AV-unprocessed.smi:334|AV-procd|sdf|2366|dock10
  -GOLD-   2262022283D 1   1.00000     0.00000
 Structure written by MMmdl.
 44 46  0  0  0  0  0  0  0  0  3 V2000
  153.1476  140.6245  159.9257 C   0  0  0  0  0  0  0  0  0  0  0  0
  152.2189  141.5307  159.1003 C   0  0  2  0  0  0  0  0  0  0  0  0
  152.2168  141.1049  157.7055 N   0  0  0  0  0  0  0  0  0  0  0  0
  152.0728  139.8452  157.2614 C   0  0  0  0  0  0  0  0  0  0  0  0
  152.0149  138.8727  158.0128 O   0  0  0  0  0  0  0  0  0  0  0  0
  151.9487  139.6314  155.7431 C   0  0  0  0  0  0  0  0  0  0  0  0
  150.5991  139.2465  155.2889 N   0  0  0  0  0  0  0  0  0  0  0  0
  149.6743  140.2872  155.0730 C   0  0  0  0  0  0  0  0  0  0  0  0
  148.4082  140.0493  154.6786 C   0  0  0  0  0  0  0  0  0  0  0  0
  147.4681  141.1294  154.4754 N   0  3  0  0  0  0  0  0  0  0  0  0
  147.8683  142.2847  154.5756 O   0  0  0  0  0  0  0  0  0  0  0  0
  146.3008  140.8600  154.2082 O   0  5  0  0  0  0  0  0  0  0  0  0
  148.0140  138.6692  154.4731 C   0  0  0  0  0  0  0  0  0  0  0  0
  148.8919  137.6689  154.6825 C   0  0  0  0  0  0  0  0  0  0  0  0
  150.2666  137.9292  155.1212 C   0  0  0  0  0  0  0  0  0  0  0  0
  151.0669  137.0188  155.3353 O   0  0  0  0  0  0  0  0  0  0  0  0
  152.6402  143.0171  159.1762 C   0  0  2  0  0  0  0  0  0  0  0  0
  152.7074  143.5981  160.6060 C   0  0  0  0  0  0  0  0  0  0  0  0
  151.8808  144.8928  160.4917 C   0  0  2  0  0  0  0  0  0  0  0  0
  150.3874  144.5304  160.3901 C   0  0  0  0  0  0  0  0  0  0  0  0
  150.2723  143.9644  158.9632 C   0  0  0  0  0  0  0  0  0  0  0  0
  151.7250  144.0376  158.4508 C   0  0  1  0  0  0  0  0  0  0  0  0
  152.1924  145.3497  159.0712 C   0  0  0  0  0  0  0  0  0  0  0  0
  153.1509  140.9148  160.9763 H   0  0  0  0  0  0  0  0  0  0  0  0
  154.1752  140.6736  159.5640 H   0  0  0  0  0  0  0  0  0  0  0  0
  152.8278  139.5831  159.8779 H   0  0  0  0  0  0  0  0  0  0  0  0
  151.2080  141.4316  159.4993 H   0  0  0  0  0  0  0  0  0  0  0  0
  152.2659  141.8397  157.0150 H   0  0  0  0  0  0  0  0  0  0  0  0
  152.2685  140.5490  155.2479 H   0  0  0  0  0  0  0  0  0  0  0  0
  152.6770  138.8783  155.4368 H   0  0  0  0  0  0  0  0  0  0  0  0
  150.0630  141.2778  155.2617 H   0  0  0  0  0  0  0  0  0  0  0  0
  147.0122  138.4276  154.1493 H   0  0  0  0  0  0  0  0  0  0  0  0
  148.5767  136.6479  154.5241 H   0  0  0  0  0  0  0  0  0  0  0  0
  153.6318  143.1039  158.7277 H   0  0  0  0  0  0  0  0  0  0  0  0
  152.3005  142.9253  161.3621 H   0  0  0  0  0  0  0  0  0  0  0  0
  153.7403  143.8160  160.8806 H   0  0  0  0  0  0  0  0  0  0  0  0
  152.1012  145.6227  161.2710 H   0  0  0  0  0  0  0  0  0  0  0  0
  150.0845  143.8083  161.1491 H   0  0  0  0  0  0  0  0  0  0  0  0
  149.7612  145.4162  160.5027 H   0  0  0  0  0  0  0  0  0  0  0  0
  149.8543  142.9586  158.9387 H   0  0  0  0  0  0  0  0  0  0  0  0
  149.6239  144.5973  158.3559 H   0  0  0  0  0  0  0  0  0  0  0  0
  151.8048  144.0027  157.3638 H   0  0  0  0  0  0  0  0  0  0  0  0
  151.6048  146.2134  158.7548 H   0  0  0  0  0  0  0  0  0  0  0  0
  153.2510  145.5574  158.9050 H   0  0  0  0  0  0  0  0  0  0  0  0
  1  2  1  0  0  0  0
  1 24  1  0  0  0  0
  1 25  1  0  0  0  0
  1 26  1  0  0  0  0
  2  3  1  0  0  0  0
  2 17  1  0  0  0  0
  2 27  1  0  0  0  0
  3  4  1  0  0  0  0
  3 28  1  0  0  0  0
  4  5  2  0  0  0  0
  4  6  1  0  0  0  0
  6  7  1  0  0  0  0
  6 29  1  0  0  0  0
  6 30  1  0  0  0  0
  7 15  1  0  0  0  0
  7  8  1  0  0  0  0
  8  9  2  0  0  0  0
  8 31  1  0  0  0  0
  9 10  1  0  0  0  0
  9 13  1  0  0  0  0
 10 11  2  0  0  0  0
 10 12  1  0  0  0  0
 13 14  2  0  0  0  0
 13 32  1  0  0  0  0
 14 15  1  0  0  0  0
 14 33  1  0  0  0  0
 15 16  2  0  0  0  0
 17 22  1  0  0  0  0
 17 18  1  0  0  0  0
 17 34  1  0  0  0  0
 18 19  1  0  0  0  0
 18 35  1  0  0  0  0
 18 36  1  0  0  0  0
 19 23  1  0  0  0  0
 19 20  1  0  0  0  0
 19 37  1  0  0  0  0
 20 21  1  0  0  0  0
 20 38  1  0  0  0  0
 20 39  1  0  0  0  0
 21 22  1  0  0  0  0
 21 40  1  0  0  0  0
 21 41  1  0  0  0  0
 22 23  1  0  0  0  0
 22 42  1  0  0  0  0
 23 43  1  0  0  0  0
 23 44  1  0  0  0  0
M  CHG  1  10   1
M  CHG  1  12  -1
M  END
> <s_m_source_file>
AV-unprocessed.smi

> <i_m_source_file_index>
334

> <i_lp_mmshare_version>
43012

> <i_f3d_flags>
0

> <s_epik_input>
W0NIMl0xW0NIMl1bQ0BIXShbQ0gyXTIpW0NAQEhdKFtDSDJdW0NAQEhdMTIpW0NASF0oW0NIM10pW05IXUMoPU8pW0NIMl1uM1tjSF1jKFtOK10oPU8pW08tXSlbY0hdW2NIXWMzPU8=

> <s_epik_cmdline>
J2VwaWtfcHl0aG9uJywgJy1waCcsICc3LjAnLCAnLXRuJywgJzgnLCAnLW1hJywgJzIwMCcsICctbWV0YWxfYmluZGluZycsICctaW1hZScsICc8aW5maWxlLm1hZT4nLCAnLW9tYWUnLCAnPG91dGZpbGUubWFlPic=

> <r_lp_tautomer_probability>
1

> <r_epik_Ionization_Penalty>
2.17081e-08

> <r_epik_Ionization_Penalty_Charging>
8.1195e-11

> <r_epik_Ionization_Penalty_Neutral>
2.16269e-08

> <r_epik_State_Penalty>
-0

> <r_epik_Charging_Adjusted_Penalty>
8.1195e-11

> <i_epik_Tot_Q>
0

> <i_epik_Tot_abs_Q>
2

> <r_epik_Metal_State_Penalty>
-0

> <b_epik_Metal_Only>
0

> <s_lp_Force_Field>
OPLS_2005

> <r_lp_Energy>
61.6433

> <b_lp_Chiralities_Consistent>
1

> <s_lp_Variant>
AV-unprocessed.smi:334-5

> <Gold.Version>
5.8.1

> <Gold.Id.Protein>
6NUR|6NUR_protein|mol2

> <Gold.PLP.Fitness>
46.9544

> <Gold.PLP.PLP>
-44.3213

> <Gold.PLP.part.hbond>
-2.0000

> <Gold.PLP.part.metal>
0.0000

> <Gold.PLP.part.buried>
2.7212

> <Gold.PLP.part.nonpolar>
-45.7064

> <Gold.PLP.part.repulsive>
0.6876

> <Gold.PLP.ligand.clash>
0.0000

> <Gold.PLP.ligand.torsion>
0.5836

> <Gold.PLP.Chemscore.Hbond>
1.2571

> <Gold.PLP.Chemscore.CHOScore>
0.0000

> <Gold.PLP.Chemscore.Metal>
0.0000

> <Gold.PLP.Chemscore.Internal.Correction>
0.0288

> <Gold.Rescore>
     Score         DG    S(hbond)    S(metal)    S(lipo)     H(rot)  DE(clash)    DE(int)     intcor
     15.42     -19.77       1.06        0.00     130.10       1.75       2.40       1.96       ----

> <Gold.Chemscore.Fitness>
15.4159

> <Gold.Chemscore.DG>
-19.7666

> <Gold.Chemscore.ZeroCoef>
-5.4800

> <Gold.Chemscore.Hbond>
1.0594

> <Gold.Chemscore.Metal>
0.0000

> <Gold.Chemscore.Lipo>
130.0985

> <Gold.Chemscore.Internal_Hbond>
0.0000

> <Gold.Chemscore.DEClash>
2.3955

> <Gold.Chemscore.DEInternal>
1.9552

> <Gold.Chemscore.Rot>
1.7474

> <Gold.Chemscore.Internal.Correction>
   9.000000E+99

> <Gold.Chemscore.Hbonds>
donor molecule, donor type, donor heavy atom, donor atom, acceptor molecule, acceptor atom, score
      P1  H 10752 10764       L1    16  0.04

> <Gold.Chemscore.Hbond.Weighted>
-3.5384

> <Gold.Chemscore.Metal.Weighted>
-0.0000

> <Gold.Chemscore.Lipo.Weighted>
-15.2215

> <Gold.Chemscore.Internal_Hbond.Weighted>
0.0000

> <Gold.Chemscore.DEClash.Weighted>
2.3955

> <Gold.Chemscore.DEInternal.Weighted>
1.9552

> <Gold.Chemscore.Rot.Weighted>
4.4733

> <Gold.Chemscore.Internal.Correction.Weighted>
   9.000000E+99

> <Gold.Protein.RotatedTorsions>
[ 6907 6896 6895 6894 ] final  -78.47 input  -60.11 | X-H torsion
[ 7974 7965 7964 7962 ] final  115.53 input  175.53 | X-H torsion
[ 8008 7997 7996 7995 ] final -102.33 input   59.86 | X-H torsion
[ 10167 10162 10161 10158 ] final -115.32 input  -65.29 | X-H torsion
[ 10718 10713 10712 10709 ] final -146.03 input   66.30 | X-H torsion
[ 10763 10752 10751 10750 ] final  -54.00 input  -60.55 | X-H torsion
[ 11005 11000 10999 10996 ] final  141.74 input  -57.11 | X-H torsion

> <Gold.Protein.ActiveResidues>
 VAL166  LYS551  ARG553  GLY616  TRP617  ASP618  TYR619  PRO620  LYS621  CYS622 
 ASP623  PHE694  ASN695  SER759  ASP760  ASP761  ALA762  ILE779  LEU786  VAL792 
 PHE793  MET794  SER795  GLU796  ALA797  LYS798  CYS799  TRP800  GLU811  SER814 

> <Gold.Protein.RotatedAtoms>
  150.6972  134.4268  159.5229 H   0  0  0  0  0  0  0  0  0  0  0  0  # atno 6907 bound_to 6896
  152.2001  134.8593  160.0518 H   0  0  0  0  0  0  0  0  0  0  0  0  # atno 6908 bound_to 6896
  151.9516  133.3633  159.4039 H   0  0  0  0  0  0  0  0  0  0  0  0  # atno 6909 bound_to 6896
  145.1908  139.3001  143.4369 H   0  0  0  0  0  0  0  0  0  0  0  0  # atno 7974 bound_to 7965
  154.8552  140.0429  157.1629 H   0  0  0  0  0  0  0  0  0  0  0  0  # atno 8008 bound_to 7997
  154.8900  140.2985  155.5355 H   0  0  0  0  0  0  0  0  0  0  0  0  # atno 8009 bound_to 7997
  156.2997  140.2395  156.3914 H   0  0  0  0  0  0  0  0  0  0  0  0  # atno 8010 bound_to 7997
  140.0914  143.4696  152.1868 H   0  0  0  0  0  0  0  0  0  0  0  0  # atno 10167 bound_to 10162
  156.3898  130.7880  151.2081 H   0  0  0  0  0  0  0  0  0  0  0  0  # atno 10718 bound_to 10713
  154.1678  135.6464  153.5002 H   0  0  0  0  0  0  0  0  0  0  0  0  # atno 10763 bound_to 10752
  153.0093  135.5376  154.6644 H   0  0  0  0  0  0  0  0  0  0  0  0  # atno 10764 bound_to 10752
  154.5975  135.2940  155.0542 H   0  0  0  0  0  0  0  0  0  0  0  0  # atno 10765 bound_to 10752
  140.0424  134.9298  157.0868 H   0  0  0  0  0  0  0  0  0  0  0  0  # atno 11005 bound_to 11000
  146.3436  140.2120  142.8590 LP  0  0  0  0  0  0  0  0  0  0  0  0  # atno 17320 bound_to 7965
  145.0043  140.8659  143.5263 LP  0  0  0  0  0  0  0  0  0  0  0  0  # atno 17321 bound_to 7965
  139.5723  144.7469  151.3859 LP  0  0  0  0  0  0  0  0  0  0  0  0  # atno 17342 bound_to 10162
  140.7026  143.7592  150.7429 LP  0  0  0  0  0  0  0  0  0  0  0  0  # atno 17343 bound_to 10162
  157.7498  131.0319  150.4202 LP  0  0  0  0  0  0  0  0  0  0  0  0  # atno 17370 bound_to 10713
  156.4461  130.4002  149.6666 LP  0  0  0  0  0  0  0  0  0  0  0  0  # atno 17371 bound_to 10713
  140.4047  134.2045  155.7163 LP  0  0  0  0  0  0  0  0  0  0  0  0  # atno 17394 bound_to 11000
  141.1890  133.8248  157.0974 LP  0  0  0  0  0  0  0  0  0  0  0  0  # atno 17395 bound_to 11000

$$$$
