AV-unprocessed.smi:3061|AV-procd|sdf|11681|dock4
  -GOLD-   2272017 83D 1   1.00000     0.00000
 Structure written by MMmdl.
 35 36  0  0  0  0  0  0  0  0  1 V2000
  145.0723  134.2871  153.1017 C   0  0  0  0  0  0  0  0  0  0  0  0
  146.2746  134.0484  152.1786 C   0  0  2  0  0  0  0  0  0  0  0  0
  146.2686  132.6151  151.6056 C   0  0  0  0  0  0  0  0  0  0  0  0
  145.2711  132.4316  150.5657 N   0  0  0  0  0  0  0  0  0  0  0  0
  145.4080  132.1121  149.2778 C   0  0  0  0  0  0  0  0  0  0  0  0
  144.2580  132.0134  148.6256 N   0  0  0  0  0  0  0  0  0  0  0  0
  143.3933  132.3067  149.6419 C   0  0  0  0  0  0  0  0  0  0  0  0
  143.9493  132.5691  150.8247 N   0  0  0  0  0  0  0  0  0  0  0  0
  147.5063  134.3050  152.9244 N   0  0  0  0  0  0  0  0  0  0  0  0
  147.8931  133.6638  154.0388 C   0  0  0  0  0  0  0  0  0  0  0  0
  147.2591  132.7347  154.5405 O   0  0  0  0  0  0  0  0  0  0  0  0
  149.1845  134.1640  154.7032 C   0  0  1  0  0  0  0  0  0  0  0  0
  148.9186  134.6402  156.1461 C   0  0  0  0  0  0  0  0  0  0  0  0
  149.6450  133.6221  157.0090 C   0  0  0  0  0  0  0  0  0  0  0  0
  149.5758  133.6163  158.2372 O   0  0  0  0  0  0  0  0  0  0  0  0
  150.3358  132.7626  156.2550 N   0  0  0  0  0  0  0  0  0  0  0  0
  151.1347  131.6490  156.7476 C   0  0  0  0  0  0  0  0  0  0  0  0
  150.2510  133.0546  154.8345 C   0  0  0  0  0  0  0  0  0  0  0  0
  144.1331  134.1315  152.5701 H   0  0  0  0  0  0  0  0  0  0  0  0
  145.0677  135.3083  153.4841 H   0  0  0  0  0  0  0  0  0  0  0  0
  145.0862  133.6104  153.9569 H   0  0  0  0  0  0  0  0  0  0  0  0
  146.1878  134.7542  151.3504 H   0  0  0  0  0  0  0  0  0  0  0  0
  147.2517  132.3574  151.2075 H   0  0  0  0  0  0  0  0  0  0  0  0
  146.0567  131.8971  152.3985 H   0  0  0  0  0  0  0  0  0  0  0  0
  146.3666  131.9390  148.8109 H   0  0  0  0  0  0  0  0  0  0  0  0
  142.3220  132.3286  149.5060 H   0  0  0  0  0  0  0  0  0  0  0  0
  148.0909  135.0564  152.5876 H   0  0  0  0  0  0  0  0  0  0  0  0
  149.5912  134.9877  154.1140 H   0  0  0  0  0  0  0  0  0  0  0  0
  149.3415  135.6303  156.3176 H   0  0  0  0  0  0  0  0  0  0  0  0
  147.8600  134.6768  156.4092 H   0  0  0  0  0  0  0  0  0  0  0  0
  151.8682  131.9944  157.4769 H   0  0  0  0  0  0  0  0  0  0  0  0
  151.6719  131.1610  155.9340 H   0  0  0  0  0  0  0  0  0  0  0  0
  150.4963  130.9055  157.2263 H   0  0  0  0  0  0  0  0  0  0  0  0
  150.0026  132.1522  154.2727 H   0  0  0  0  0  0  0  0  0  0  0  0
  151.2205  133.4062  154.4794 H   0  0  0  0  0  0  0  0  0  0  0  0
  1  2  1  0  0  0  0
  1 19  1  0  0  0  0
  1 20  1  0  0  0  0
  1 21  1  0  0  0  0
  2  3  1  0  0  0  0
  2  9  1  0  0  0  0
  2 22  1  0  0  0  0
  3  4  1  0  0  0  0
  3 23  1  0  0  0  0
  3 24  1  0  0  0  0
  4  8  1  0  0  0  0
  4  5  1  0  0  0  0
  5  6  2  0  0  0  0
  5 25  1  0  0  0  0
  6  7  1  0  0  0  0
  7  8  2  0  0  0  0
  7 26  1  0  0  0  0
  9 10  1  0  0  0  0
  9 27  1  0  0  0  0
 10 11  2  0  0  0  0
 10 12  1  0  0  0  0
 12 18  1  0  0  0  0
 12 13  1  0  0  0  0
 12 28  1  0  0  0  0
 13 14  1  0  0  0  0
 13 29  1  0  0  0  0
 13 30  1  0  0  0  0
 14 15  2  0  0  0  0
 14 16  1  0  0  0  0
 16 17  1  0  0  0  0
 16 18  1  0  0  0  0
 17 31  1  0  0  0  0
 17 32  1  0  0  0  0
 17 33  1  0  0  0  0
 18 34  1  0  0  0  0
 18 35  1  0  0  0  0
M  END
> <s_m_source_file>
AV-unprocessed.smi

> <i_m_source_file_index>
3061

> <i_lp_mmshare_version>
43012

> <i_f3d_flags>
0

> <s_epik_input>
bjFbY0hdbltjSF1uMVtDSDJdW0NAQEhdKFtDSDNdKVtOSF1DKD1PKVtDQEBIXTJbQ0gyXUMoPU8pTihbQ0gzXSlbQ0gyXTI=

> <s_epik_cmdline>
J2VwaWtfcHl0aG9uJywgJy1waCcsICc3LjAnLCAnLXRuJywgJzgnLCAnLW1hJywgJzIwMCcsICctbWV0YWxfYmluZGluZycsICctaW1hZScsICc8aW5maWxlLm1hZT4nLCAnLW9tYWUnLCAnPG91dGZpbGUubWFlPic=

> <r_lp_tautomer_probability>
1

> <r_epik_Ionization_Penalty>
4.97611e-05

> <r_epik_Ionization_Penalty_Charging>
0

> <r_epik_Ionization_Penalty_Neutral>
4.97611e-05

> <r_epik_State_Penalty>
-0

> <r_epik_Charging_Adjusted_Penalty>
0

> <i_epik_Tot_Q>
0

> <i_epik_Tot_abs_Q>
0

> <r_epik_Metal_State_Penalty>
-0

> <b_epik_Metal_Only>
0

> <s_lp_Force_Field>
OPLS_2005

> <r_lp_Energy>
12.1986

> <b_lp_Chiralities_Consistent>
1

> <s_lp_Variant>
AV-unprocessed.smi:3061-3

> <Gold.Version>
5.8.1

> <Gold.Id.Protein>
6NUR|6NUR_protein|mol2

> <Gold.PLP.Fitness>
37.3552

> <Gold.PLP.PLP>
-26.0967

> <Gold.PLP.part.hbond>
-3.0348

> <Gold.PLP.part.metal>
0.0000

> <Gold.PLP.part.buried>
-3.5853

> <Gold.PLP.part.nonpolar>
-21.2738

> <Gold.PLP.part.repulsive>
0.4575

> <Gold.PLP.ligand.clash>
0.0000

> <Gold.PLP.ligand.torsion>
0.1293

> <Gold.PLP.Chemscore.Hbond>
2.0277

> <Gold.PLP.Chemscore.CHOScore>
1.8032

> <Gold.PLP.Chemscore.Metal>
0.0000

> <Gold.Chemscore.Hbonds>
donor molecule, donor type, donor heavy atom, donor atom, acceptor molecule, acceptor atom, score
      L1  H     9    27       P1  7948  1.00
      P1  H  6896  6909       L1    15  1.00
      P1  H 10785 10796       L1     6  0.03
      L1  C     7    26       P1 10186  0.87
      L1  C     7    26       P1 10952  0.93

> <Gold.PLP.Chemscore.Internal.Correction>
0.0242

> <Gold.Rescore>
     Score         DG    S(hbond)    S(metal)    S(lipo)     H(rot)  DE(clash)    DE(int)     intcor
      8.56      -9.61       1.98        0.00      31.67       2.42       0.03       1.02       ----

> <Gold.Chemscore.Fitness>
8.5564

> <Gold.Chemscore.DG>
-9.6134

> <Gold.Chemscore.ZeroCoef>
-5.4800

> <Gold.Chemscore.Hbond>
1.9827

> <Gold.Chemscore.Metal>
0.0000

> <Gold.Chemscore.Lipo>
31.6737

> <Gold.Chemscore.Internal_Hbond>
0.0000

> <Gold.Chemscore.DEClash>
0.0337

> <Gold.Chemscore.DEInternal>
1.0233

> <Gold.Chemscore.Rot>
2.4197

> <Gold.Chemscore.Internal.Correction>
   9.000000E+99

> <Gold.Chemscore.Hbonds>
donor molecule, donor type, donor heavy atom, donor atom, acceptor molecule, acceptor atom, score
      L1  H     9    27       P1  7948  0.87
      P1  H  6896  6909       L1    15  0.98

> <Gold.Chemscore.Hbond.Weighted>
-6.6221

> <Gold.Chemscore.Metal.Weighted>
-0.0000

> <Gold.Chemscore.Lipo.Weighted>
-3.7058

> <Gold.Chemscore.Internal_Hbond.Weighted>
0.0000

> <Gold.Chemscore.DEClash.Weighted>
0.0337

> <Gold.Chemscore.DEInternal.Weighted>
1.0233

> <Gold.Chemscore.Rot.Weighted>
6.1945

> <Gold.Chemscore.Internal.Correction.Weighted>
   9.000000E+99

> <Gold.Protein.RotatedTorsions>
[ 6907 6896 6895 6894 ] final    6.80 input  -60.11 | X-H torsion
[ 7974 7965 7964 7962 ] final   93.98 input  175.53 | X-H torsion
[ 8008 7997 7996 7995 ] final  -43.63 input   59.86 | X-H torsion
[ 10167 10162 10161 10158 ] final -109.03 input  -65.29 | X-H torsion
[ 10718 10713 10712 10709 ] final  124.23 input   66.30 | X-H torsion
[ 10763 10752 10751 10750 ] final   -9.05 input  -60.55 | X-H torsion
[ 11005 11000 10999 10996 ] final  148.05 input  -57.11 | X-H torsion

> <Gold.Protein.ActiveResidues>
 VAL166  LYS551  ARG553  GLY616  TRP617  ASP618  TYR619  PRO620  LYS621  CYS622 
 ASP623  PHE694  ASN695  SER759  ASP760  ASP761  ALA762  ILE779  LEU786  VAL792 
 PHE793  MET794  SER795  GLU796  ALA797  LYS798  CYS799  TRP800  GLU811  SER814 

> <Gold.Protein.RotatedAtoms>
  151.6796  135.0964  160.0213 H   0  0  0  0  0  0  0  0  0  0  0  0  # atno 6907 bound_to 6896
  152.3843  133.6585  159.6195 H   0  0  0  0  0  0  0  0  0  0  0  0  # atno 6908 bound_to 6896
  150.7772  133.8978  159.3373 H   0  0  0  0  0  0  0  0  0  0  0  0  # atno 6909 bound_to 6896
  145.4717  139.2282  143.2931 H   0  0  0  0  0  0  0  0  0  0  0  0  # atno 7974 bound_to 7965
  154.3997  140.1443  156.3551 H   0  0  0  0  0  0  0  0  0  0  0  0  # atno 8008 bound_to 7997
  155.8233  140.3468  155.5506 H   0  0  0  0  0  0  0  0  0  0  0  0  # atno 8009 bound_to 7997
  155.8265  140.0906  157.1809 H   0  0  0  0  0  0  0  0  0  0  0  0  # atno 8010 bound_to 7997
  140.1597  143.4130  152.1435 H   0  0  0  0  0  0  0  0  0  0  0  0  # atno 10167 bound_to 10162
  157.5602  131.1090  150.8552 H   0  0  0  0  0  0  0  0  0  0  0  0  # atno 10718 bound_to 10713
  153.4492  135.7015  153.6120 H   0  0  0  0  0  0  0  0  0  0  0  0  # atno 10763 bound_to 10752
  153.4462  135.3768  155.2257 H   0  0  0  0  0  0  0  0  0  0  0  0  # atno 10764 bound_to 10752
  154.8728  135.3986  154.3902 H   0  0  0  0  0  0  0  0  0  0  0  0  # atno 10765 bound_to 10752
  140.0927  134.9031  157.1676 H   0  0  0  0  0  0  0  0  0  0  0  0  # atno 11005 bound_to 11000
  146.2393  140.5496  142.8941 LP  0  0  0  0  0  0  0  0  0  0  0  0  # atno 17320 bound_to 7965
  144.7941  140.6089  143.6522 LP  0  0  0  0  0  0  0  0  0  0  0  0  # atno 17321 bound_to 7965
  139.5387  144.7235  151.4806 LP  0  0  0  0  0  0  0  0  0  0  0  0  # atno 17342 bound_to 10162
  140.6651  143.8416  150.6932 LP  0  0  0  0  0  0  0  0  0  0  0  0  # atno 17343 bound_to 10162
  156.9052  130.5261  149.5281 LP  0  0  0  0  0  0  0  0  0  0  0  0  # atno 17370 bound_to 10713
  156.0655  130.5699  150.9280 LP  0  0  0  0  0  0  0  0  0  0  0  0  # atno 17371 bound_to 10713
  140.3329  134.2789  155.7225 LP  0  0  0  0  0  0  0  0  0  0  0  0  # atno 17394 bound_to 11000
  141.2083  133.7782  157.0068 LP  0  0  0  0  0  0  0  0  0  0  0  0  # atno 17395 bound_to 11000

$$$$
