AV-unprocessed.smi:1207|AV-procd|sdf|5051|dock6
  -GOLD-   22720 4 83D 1   1.00000     0.00000
 Structure written by MMmdl.
 52 54  0  0  0  0  0  0  0  0  2 V2000
  151.5484  144.2561  158.4975 C   0  0  0  0  0  0  0  0  0  0  0  0
  151.6065  142.8095  158.0391 C   0  0  0  0  0  0  0  0  0  0  0  0
  151.0064  142.4537  156.8103 C   0  0  0  0  0  0  0  0  0  0  0  0
  151.0399  141.1204  156.3473 C   0  0  0  0  0  0  0  0  0  0  0  0
  150.5220  140.5567  155.1942 N   0  0  0  0  0  0  0  0  0  0  0  0
  150.8781  139.2836  155.3345 C   0  0  0  0  0  0  0  0  0  0  0  0
  151.5558  138.9521  156.4509 N   0  0  0  0  0  0  0  0  0  0  0  0
  152.0347  137.6326  156.8221 C   0  0  0  0  0  0  0  0  0  0  0  0
  150.9192  136.5660  156.8277 C   0  0  2  0  0  0  0  0  0  0  0  0
  151.3459  135.5142  157.6705 O   0  0  0  0  0  0  0  0  0  0  0  0
  150.6012  136.0078  155.4205 C   0  0  0  0  0  0  0  0  0  0  0  0
  149.8527  134.7197  155.4303 N   0  3  1  0  0  0  0  0  0  0  0  0
  148.6361  134.7596  156.2775 C   0  0  0  0  0  0  0  0  0  0  0  0
  149.5387  134.2211  154.0655 C   0  0  0  0  0  0  0  0  0  0  0  0
  149.0860  132.7823  154.0698 C   0  0  0  0  0  0  0  0  0  0  0  0
  147.9336  132.2279  153.4419 C   0  0  0  0  0  0  0  0  0  0  0  0
  146.8866  132.9255  152.6219 C   0  0  0  0  0  0  0  0  0  0  0  0
  147.8361  130.9265  153.6492 N   0  0  0  0  0  0  0  0  0  0  0  0
  148.9427  130.5783  154.4292 O   0  0  0  0  0  0  0  0  0  0  0  0
  149.6731  131.6973  154.6636 C   0  0  0  0  0  0  0  0  0  0  0  0
  150.9025  131.5234  155.4910 C   0  0  0  0  0  0  0  0  0  0  0  0
  151.6962  140.1443  157.1533 C   0  0  0  0  0  0  0  0  0  0  0  0
  152.2988  140.4866  158.3768 C   0  0  0  0  0  0  0  0  0  0  0  0
  152.2533  141.8228  158.8261 C   0  0  0  0  0  0  0  0  0  0  0  0
  152.9011  142.1816  160.1519 C   0  0  0  0  0  0  0  0  0  0  0  0
  151.0300  144.8833  157.7718 H   0  0  0  0  0  0  0  0  0  0  0  0
  152.5541  144.6569  158.6261 H   0  0  0  0  0  0  0  0  0  0  0  0
  151.0190  144.3356  159.4472 H   0  0  0  0  0  0  0  0  0  0  0  0
  150.5140  143.2052  156.2103 H   0  0  0  0  0  0  0  0  0  0  0  0
  150.6226  138.5466  154.5870 H   0  0  0  0  0  0  0  0  0  0  0  0
  152.8217  137.3484  156.1214 H   0  0  0  0  0  0  0  0  0  0  0  0
  152.5030  137.7004  157.8049 H   0  0  0  0  0  0  0  0  0  0  0  0
  150.0290  137.0140  157.2667 H   0  0  0  0  0  0  0  0  0  0  0  0
  152.2602  135.6359  157.8751 H   0  0  0  0  0  0  0  0  0  0  0  0
  150.0229  136.7299  154.8424 H   0  0  0  0  0  0  0  0  0  0  0  0
  151.5483  135.8871  154.8963 H   0  0  0  0  0  0  0  0  0  0  0  0
  147.9558  135.5457  155.9472 H   0  0  0  0  0  0  0  0  0  0  0  0
  148.8806  134.9322  157.3248 H   0  0  0  0  0  0  0  0  0  0  0  0
  148.1008  133.8104  156.2365 H   0  0  0  0  0  0  0  0  0  0  0  0
  148.7536  134.8428  153.6337 H   0  0  0  0  0  0  0  0  0  0  0  0
  150.4105  134.3644  153.4259 H   0  0  0  0  0  0  0  0  0  0  0  0
  146.7246  133.9446  152.9731 H   0  0  0  0  0  0  0  0  0  0  0  0
  145.9287  132.4059  152.6691 H   0  0  0  0  0  0  0  0  0  0  0  0
  147.1850  132.9780  151.5745 H   0  0  0  0  0  0  0  0  0  0  0  0
  151.5128  132.4263  155.4893 H   0  0  0  0  0  0  0  0  0  0  0  0
  151.5130  130.7051  155.1088 H   0  0  0  0  0  0  0  0  0  0  0  0
  150.6414  131.2965  156.5248 H   0  0  0  0  0  0  0  0  0  0  0  0
  152.7931  139.7278  158.9650 H   0  0  0  0  0  0  0  0  0  0  0  0
  153.3550  141.3091  160.6227 H   0  0  0  0  0  0  0  0  0  0  0  0
  152.1601  142.5861  160.8418 H   0  0  0  0  0  0  0  0  0  0  0  0
  153.6827  142.9275  160.0062 H   0  0  0  0  0  0  0  0  0  0  0  0
  150.4673  134.0324  155.8424 H   0  0  0  0  0  0  0  0  0  0  0  0
  1  2  1  0  0  0  0
  1 26  1  0  0  0  0
  1 27  1  0  0  0  0
  1 28  1  0  0  0  0
  2 24  1  0  0  0  0
  2  3  2  0  0  0  0
  3  4  1  0  0  0  0
  3 29  1  0  0  0  0
  4 22  2  0  0  0  0
  4  5  1  0  0  0  0
  5  6  2  0  0  0  0
  6  7  1  0  0  0  0
  6 30  1  0  0  0  0
  7  8  1  0  0  0  0
  7 22  1  0  0  0  0
  8  9  1  0  0  0  0
  8 31  1  0  0  0  0
  8 32  1  0  0  0  0
  9 10  1  0  0  0  0
  9 11  1  0  0  0  0
  9 33  1  0  0  0  0
 10 34  1  0  0  0  0
 11 12  1  0  0  0  0
 11 35  1  0  0  0  0
 11 36  1  0  0  0  0
 12 13  1  0  0  0  0
 12 14  1  0  0  0  0
 12 52  1  0  0  0  0
 13 37  1  0  0  0  0
 13 38  1  0  0  0  0
 13 39  1  0  0  0  0
 14 15  1  0  0  0  0
 14 40  1  0  0  0  0
 14 41  1  0  0  0  0
 15 20  2  0  0  0  0
 15 16  1  0  0  0  0
 16 17  1  0  0  0  0
 16 18  2  0  0  0  0
 17 42  1  0  0  0  0
 17 43  1  0  0  0  0
 17 44  1  0  0  0  0
 18 19  1  0  0  0  0
 19 20  1  0  0  0  0
 20 21  1  0  0  0  0
 21 45  1  0  0  0  0
 21 46  1  0  0  0  0
 21 47  1  0  0  0  0
 22 23  1  0  0  0  0
 23 24  2  0  0  0  0
 23 48  1  0  0  0  0
 24 25  1  0  0  0  0
 25 49  1  0  0  0  0
 25 50  1  0  0  0  0
 25 51  1  0  0  0  0
M  CHG  1  12   1
M  END
> <s_m_source_file>
AV-unprocessed.smi

> <i_m_source_file_index>
1207

> <i_lp_mmshare_version>
43012

> <i_f3d_flags>
0

> <s_epik_input>
W0NIM11jKFtjSF0xKWMoW0NIM10pW2NIXWMoYzEyKW4oW2NIXW4yKVtDSDJdW0NASF0oW09IXSlbQ0gyXU4oW0NIM10pW0NIMl1jM2MoW0NIM10pbm9jM1tDSDNd

> <s_epik_cmdline>
J2VwaWtfcHl0aG9uJywgJy1waCcsICc3LjAnLCAnLXRuJywgJzgnLCAnLW1hJywgJzIwMCcsICctbWV0YWxfYmluZGluZycsICctaW1hZScsICc8aW5maWxlLm1hZT4nLCAnLW9tYWUnLCAnPG91dGZpbGUubWFlPic=

> <r_epik_Ionization_Penalty>
0.646518

> <r_epik_Ionization_Penalty_Charging>
0.559419

> <r_epik_Ionization_Penalty_Neutral>
0.0870981

> <r_epik_State_Penalty>
0.661677

> <r_epik_Charging_Adjusted_Penalty>
1.2211

> <i_epik_Tot_Q>
1

> <i_epik_Tot_abs_Q>
1

> <r_epik_Metal_State_Penalty>
0.649158

> <b_epik_Metal_Only>
0

> <s_lp_Force_Field>
OPLS_2005

> <r_lp_Energy>
10.0626

> <b_lp_Chiralities_Consistent>
1

> <s_lp_Variant>
AV-unprocessed.smi:1207-3

> <Gold.Version>
5.8.1

> <Gold.Id.Protein>
6NUR|6NUR_protein|mol2

> <Gold.PLP.Fitness>
46.6622

> <Gold.PLP.PLP>
-44.2943

> <Gold.PLP.part.hbond>
-2.0000

> <Gold.PLP.part.metal>
0.0000

> <Gold.PLP.part.buried>
-5.6633

> <Gold.PLP.part.nonpolar>
-36.9609

> <Gold.PLP.part.repulsive>
0.2409

> <Gold.PLP.ligand.clash>
0.0000

> <Gold.PLP.ligand.torsion>
0.5676

> <Gold.PLP.Chemscore.Hbond>
1.0915

> <Gold.PLP.Chemscore.CHOScore>
0.0000

> <Gold.PLP.Chemscore.Metal>
0.0000

> <Gold.Chemscore.Hbonds>
donor molecule, donor type, donor heavy atom, donor atom, acceptor molecule, acceptor atom, score
      P1  H  6896  6908       L1    10  0.07
      P1  H  7989  7998       L1     5  0.74

> <Gold.PLP.Chemscore.Internal.Correction>
0.2286

> <Gold.Rescore>
     Score         DG    S(hbond)    S(metal)    S(lipo)     H(rot)  DE(clash)    DE(int)     intcor
     15.14     -15.67       0.83        0.00     117.00       2.46       0.01       0.52       ----

> <Gold.Chemscore.Fitness>
15.1419

> <Gold.Chemscore.DG>
-15.6677

> <Gold.Chemscore.ZeroCoef>
-5.4800

> <Gold.Chemscore.Hbond>
0.8345

> <Gold.Chemscore.Metal>
0.0000

> <Gold.Chemscore.Lipo>
117.0014

> <Gold.Chemscore.Internal_Hbond>
0.0000

> <Gold.Chemscore.DEClash>
0.0075

> <Gold.Chemscore.DEInternal>
0.5183

> <Gold.Chemscore.Rot>
2.4565

> <Gold.Chemscore.Internal.Correction>
   9.000000E+99

> <Gold.Chemscore.Hbonds>
donor molecule, donor type, donor heavy atom, donor atom, acceptor molecule, acceptor atom, score
      P1  H  6896  6908       L1    10  0.02
      P1  H  7989  7998       L1     5  0.09

> <Gold.Chemscore.Hbond.Weighted>
-2.7872

> <Gold.Chemscore.Metal.Weighted>
-0.0000

> <Gold.Chemscore.Lipo.Weighted>
-13.6892

> <Gold.Chemscore.Internal_Hbond.Weighted>
0.0000

> <Gold.Chemscore.DEClash.Weighted>
0.0075

> <Gold.Chemscore.DEInternal.Weighted>
0.5183

> <Gold.Chemscore.Rot.Weighted>
6.2887

> <Gold.Chemscore.Internal.Correction.Weighted>
   9.000000E+99

> <Gold.Protein.RotatedTorsions>
[ 6907 6896 6895 6894 ] final  160.25 input  -60.11 | X-H torsion
[ 7974 7965 7964 7962 ] final  -89.21 input  175.53 | X-H torsion
[ 8008 7997 7996 7995 ] final  159.56 input   59.86 | X-H torsion
[ 10167 10162 10161 10158 ] final   64.80 input  -65.29 | X-H torsion
[ 10718 10713 10712 10709 ] final -173.95 input   66.30 | X-H torsion
[ 10763 10752 10751 10750 ] final   18.35 input  -60.55 | X-H torsion
[ 11005 11000 10999 10996 ] final  151.13 input  -57.11 | X-H torsion

> <Gold.Protein.ActiveResidues>
 VAL166  LYS551  ARG553  GLY616  TRP617  ASP618  TYR619  PRO620  LYS621  CYS622 
 ASP623  PHE694  ASN695  SER759  ASP760  ASP761  ALA762  ILE779  LEU786  VAL792 
 PHE793  MET794  SER795  GLU796  ALA797  LYS798  CYS799  TRP800  GLU811  SER814 

> <Gold.Protein.RotatedAtoms>
  151.9734  133.3733  159.4079 H   0  0  0  0  0  0  0  0  0  0  0  0  # atno 6907 bound_to 6896
  150.6945  134.4115  159.5173 H   0  0  0  0  0  0  0  0  0  0  0  0  # atno 6908 bound_to 6896
  152.1823  134.8743  160.0576 H   0  0  0  0  0  0  0  0  0  0  0  0  # atno 6909 bound_to 6896
  145.4429  140.9559  143.2065 H   0  0  0  0  0  0  0  0  0  0  0  0  # atno 7974 bound_to 7965
  156.2230  140.1828  156.7430 H   0  0  0  0  0  0  0  0  0  0  0  0  # atno 8008 bound_to 7997
  154.5896  140.0653  156.9248 H   0  0  0  0  0  0  0  0  0  0  0  0  # atno 8009 bound_to 7997
  155.2359  140.3318  155.4300 H   0  0  0  0  0  0  0  0  0  0  0  0  # atno 8010 bound_to 7997
  140.1182  144.4755  150.6936 H   0  0  0  0  0  0  0  0  0  0  0  0  # atno 10167 bound_to 10162
  156.7778  130.9472  151.3120 H   0  0  0  0  0  0  0  0  0  0  0  0  # atno 10718 bound_to 10713
  153.1257  135.6729  153.9261 H   0  0  0  0  0  0  0  0  0  0  0  0  # atno 10763 bound_to 10752
  153.8762  135.3063  155.3445 H   0  0  0  0  0  0  0  0  0  0  0  0  # atno 10764 bound_to 10752
  154.7663  135.4962  153.9640 H   0  0  0  0  0  0  0  0  0  0  0  0  # atno 10765 bound_to 10752
  140.1192  134.8875  157.2048 H   0  0  0  0  0  0  0  0  0  0  0  0  # atno 11005 bound_to 11000
  144.8110  139.5962  143.7029 LP  0  0  0  0  0  0  0  0  0  0  0  0  # atno 17320 bound_to 7965
  146.2547  139.6275  142.9403 LP  0  0  0  0  0  0  0  0  0  0  0  0  # atno 17321 bound_to 7965
  140.6887  143.2364  151.5191 LP  0  0  0  0  0  0  0  0  0  0  0  0  # atno 17342 bound_to 10162
  139.5582  144.2221  152.1648 LP  0  0  0  0  0  0  0  0  0  0  0  0  # atno 17343 bound_to 10162
  157.6660  130.9008  149.9934 LP  0  0  0  0  0  0  0  0  0  0  0  0  # atno 17370 bound_to 10713
  156.1237  130.3645  149.9845 LP  0  0  0  0  0  0  0  0  0  0  0  0  # atno 17371 bound_to 10713
  140.2988  134.3156  155.7295 LP  0  0  0  0  0  0  0  0  0  0  0  0  # atno 17394 bound_to 11000
  141.2148  133.7579  156.9610 LP  0  0  0  0  0  0  0  0  0  0  0  0  # atno 17395 bound_to 11000

$$$$
