AV-unprocessed.smi:1720|AV-procd|sdf|6934|dock10
  -GOLD-   22720 8143D 1   1.00000     0.00000
 Structure written by MMmdl.
 32 33  0  0  0  0  0  0  0  0  1 V2000
  148.3474  143.0523  158.5292 C   0  0  0  0  0  0  0  0  0  0  0  0
  149.7479  142.4206  158.5418 C   0  0  1  0  0  0  0  0  0  0  0  0
  150.0313  141.8949  157.2080 N   0  0  0  0  0  0  0  0  0  0  0  0
  150.5994  140.7103  156.9395 C   0  0  0  0  0  0  0  0  0  0  0  0
  150.9503  139.9079  157.8049 O   0  0  0  0  0  0  0  0  0  0  0  0
  150.7317  140.5237  155.6161 N   0  0  0  0  0  0  0  0  0  0  0  0
  151.2947  139.4019  154.9565 C   0  0  0  0  0  0  0  0  0  0  0  0
  152.4192  138.6686  155.4236 C   0  0  0  0  0  0  0  0  0  0  0  0
  152.7213  137.6720  154.6035 N   0  0  0  0  0  0  0  0  0  0  0  0
  151.8005  137.7627  153.6174 N   0  0  0  0  0  0  0  0  0  0  0  0
  150.9117  138.8007  153.7903 C   0  0  0  0  0  0  0  0  0  0  0  0
  150.8406  143.4295  158.9528 C   0  0  1  0  0  0  0  0  0  0  0  0
  152.1523  142.7972  159.4200 C   0  0  0  0  0  0  0  0  0  0  0  0
  153.1851  143.8829  159.1633 C   0  0  0  0  0  0  0  0  0  0  0  0
  152.4820  144.8465  158.2037 C   0  0  0  0  0  0  0  0  0  0  0  0
  151.2744  144.1939  157.8380 O   0  0  0  0  0  0  0  0  0  0  0  0
  151.7915  137.1158  152.8417 H   0  0  0  0  0  0  0  0  0  0  0  0
  148.0605  143.4041  159.5202 H   0  0  0  0  0  0  0  0  0  0  0  0
  147.5946  142.3296  158.2127 H   0  0  0  0  0  0  0  0  0  0  0  0
  148.3009  143.9024  157.8477 H   0  0  0  0  0  0  0  0  0  0  0  0
  149.7339  141.6018  159.2635 H   0  0  0  0  0  0  0  0  0  0  0  0
  149.7815  142.4856  156.4288 H   0  0  0  0  0  0  0  0  0  0  0  0
  150.4000  141.2650  155.0169 H   0  0  0  0  0  0  0  0  0  0  0  0
  153.0138  138.8226  156.3120 H   0  0  0  0  0  0  0  0  0  0  0  0
  150.1169  139.0048  153.0881 H   0  0  0  0  0  0  0  0  0  0  0  0
  150.4634  144.1091  159.7197 H   0  0  0  0  0  0  0  0  0  0  0  0
  152.1217  142.4831  160.4639 H   0  0  0  0  0  0  0  0  0  0  0  0
  152.3857  141.9220  158.8120 H   0  0  0  0  0  0  0  0  0  0  0  0
  153.4606  144.3956  160.0854 H   0  0  0  0  0  0  0  0  0  0  0  0
  154.0926  143.4644  158.7271 H   0  0  0  0  0  0  0  0  0  0  0  0
  152.2450  145.7848  158.7072 H   0  0  0  0  0  0  0  0  0  0  0  0
  153.0841  145.0752  157.3242 H   0  0  0  0  0  0  0  0  0  0  0  0
  1  2  1  0  0  0  0
  1 18  1  0  0  0  0
  1 19  1  0  0  0  0
  1 20  1  0  0  0  0
  2  3  1  0  0  0  0
  2 12  1  0  0  0  0
  2 21  1  0  0  0  0
  3  4  1  0  0  0  0
  3 22  1  0  0  0  0
  4  5  2  0  0  0  0
  4  6  1  0  0  0  0
  6  7  1  0  0  0  0
  6 23  1  0  0  0  0
  7 11  2  0  0  0  0
  7  8  1  0  0  0  0
  8  9  2  0  0  0  0
  8 24  1  0  0  0  0
  9 10  1  0  0  0  0
 10 17  1  0  0  0  0
 10 11  1  0  0  0  0
 11 25  1  0  0  0  0
 12 16  1  0  0  0  0
 12 13  1  0  0  0  0
 12 26  1  0  0  0  0
 13 14  1  0  0  0  0
 13 27  1  0  0  0  0
 13 28  1  0  0  0  0
 14 15  1  0  0  0  0
 14 29  1  0  0  0  0
 14 30  1  0  0  0  0
 15 16  1  0  0  0  0
 15 31  1  0  0  0  0
 15 32  1  0  0  0  0
M  END
> <s_m_source_file>
AV-unprocessed.smi

> <i_m_source_file_index>
1720

> <i_lp_mmshare_version>
43012

> <i_f3d_flags>
0

> <s_epik_input>
TzFbQ0gyXVtDSDJdW0NIMl1bQ0BIXTFbQ0BIXShbQ0gzXSlbTkhdQyg9TylbTkhdYzJbY0hdbltuSF1bY0hdMg==

> <s_epik_cmdline>
J2VwaWtfcHl0aG9uJywgJy1waCcsICc3LjAnLCAnLXRuJywgJzgnLCAnLW1hJywgJzIwMCcsICctbWV0YWxfYmluZGluZycsICctaW1hZScsICc8aW5maWxlLm1hZT4nLCAnLW9tYWUnLCAnPG91dGZpbGUubWFlPic=

> <r_lp_tautomer_probability>
1

> <r_epik_Ionization_Penalty>
4.95841e-05

> <r_epik_Ionization_Penalty_Charging>
0

> <r_epik_Ionization_Penalty_Neutral>
4.95841e-05

> <r_epik_State_Penalty>
-0

> <r_epik_Charging_Adjusted_Penalty>
0

> <i_epik_Tot_Q>
0

> <i_epik_Tot_abs_Q>
0

> <r_epik_Metal_State_Penalty>
-0

> <b_epik_Metal_Only>
0

> <s_lp_Force_Field>
OPLS_2005

> <r_lp_Energy>
20.531

> <b_lp_Chiralities_Consistent>
1

> <s_lp_Variant>
AV-unprocessed.smi:1720-4

> <Gold.Version>
5.8.1

> <Gold.Id.Protein>
6NUR|6NUR_protein|mol2

> <Gold.PLP.Fitness>
34.6176

> <Gold.PLP.PLP>
-28.1855

> <Gold.PLP.part.hbond>
-2.3517

> <Gold.PLP.part.metal>
0.0000

> <Gold.PLP.part.buried>
-5.1854

> <Gold.PLP.part.nonpolar>
-21.7070

> <Gold.PLP.part.repulsive>
0.4966

> <Gold.PLP.ligand.clash>
0.0000

> <Gold.PLP.ligand.torsion>
0.9474

> <Gold.PLP.Chemscore.Hbond>
1.7680

> <Gold.PLP.Chemscore.CHOScore>
1.0000

> <Gold.PLP.Chemscore.Metal>
0.0000

> <Gold.Chemscore.Hbonds>
donor molecule, donor type, donor heavy atom, donor atom, acceptor molecule, acceptor atom, score
      L1  H    10    17       P1  7949  1.00
      P1  H 10752 10765       L1     9  0.35
      L1  C    11    25       P1  7957  1.00

> <Gold.PLP.Chemscore.Internal.Correction>
0.0229

> <Gold.Rescore>
     Score         DG    S(hbond)    S(metal)    S(lipo)     H(rot)  DE(clash)    DE(int)     intcor
     13.27     -15.60       1.24        0.00      79.58       1.31       0.49       1.84       ----

> <Gold.Chemscore.Fitness>
13.2689

> <Gold.Chemscore.DG>
-15.5954

> <Gold.Chemscore.ZeroCoef>
-5.4800

> <Gold.Chemscore.Hbond>
1.2433

> <Gold.Chemscore.Metal>
0.0000

> <Gold.Chemscore.Lipo>
79.5810

> <Gold.Chemscore.Internal_Hbond>
0.0000

> <Gold.Chemscore.DEClash>
0.4859

> <Gold.Chemscore.DEInternal>
1.8406

> <Gold.Chemscore.Rot>
1.3079

> <Gold.Chemscore.Internal.Correction>
   9.000000E+99

> <Gold.Chemscore.Hbonds>
donor molecule, donor type, donor heavy atom, donor atom, acceptor molecule, acceptor atom, score
      L1  H     3    22       P1  8028  0.01
      L1  H    10    17       P1  7949  0.99
      P1  H 10752 10765       L1     9  0.05

> <Gold.Chemscore.Hbond.Weighted>
-4.1528

> <Gold.Chemscore.Metal.Weighted>
-0.0000

> <Gold.Chemscore.Lipo.Weighted>
-9.3110

> <Gold.Chemscore.Internal_Hbond.Weighted>
0.0000

> <Gold.Chemscore.DEClash.Weighted>
0.4859

> <Gold.Chemscore.DEInternal.Weighted>
1.8406

> <Gold.Chemscore.Rot.Weighted>
3.3483

> <Gold.Chemscore.Internal.Correction.Weighted>
   9.000000E+99

> <Gold.Protein.RotatedTorsions>
[ 6907 6896 6895 6894 ] final -138.92 input  -60.11 | X-H torsion
[ 7974 7965 7964 7962 ] final  117.95 input  175.53 | X-H torsion
[ 8008 7997 7996 7995 ] final  -36.44 input   59.86 | X-H torsion
[ 10167 10162 10161 10158 ] final  -41.83 input  -65.29 | X-H torsion
[ 10718 10713 10712 10709 ] final  -90.80 input   66.30 | X-H torsion
[ 10763 10752 10751 10750 ] final  173.61 input  -60.55 | X-H torsion
[ 11005 11000 10999 10996 ] final  -84.86 input  -57.11 | X-H torsion

> <Gold.Protein.ActiveResidues>
 VAL166  LYS551  ARG553  GLY616  TRP617  ASP618  TYR619  PRO620  LYS621  CYS622 
 ASP623  PHE694  ASN695  SER759  ASP760  ASP761  ALA762  ILE779  LEU786  VAL792 
 PHE793  MET794  SER795  GLU796  ALA797  LYS798  CYS799  TRP800  GLU811  SER814 

> <Gold.Protein.RotatedAtoms>
  151.0412  133.5704  159.2650 H   0  0  0  0  0  0  0  0  0  0  0  0  # atno 6907 bound_to 6896
  151.2750  135.0695  159.9158 H   0  0  0  0  0  0  0  0  0  0  0  0  # atno 6908 bound_to 6896
  152.5364  134.0136  159.8003 H   0  0  0  0  0  0  0  0  0  0  0  0  # atno 6909 bound_to 6896
  145.1612  139.3154  143.4516 H   0  0  0  0  0  0  0  0  0  0  0  0  # atno 7974 bound_to 7965
  154.4073  140.1630  156.2374 H   0  0  0  0  0  0  0  0  0  0  0  0  # atno 8008 bound_to 7997
  155.9230  140.3420  155.6165 H   0  0  0  0  0  0  0  0  0  0  0  0  # atno 8009 bound_to 7997
  155.7199  140.0767  157.2326 H   0  0  0  0  0  0  0  0  0  0  0  0  # atno 8010 bound_to 7997
  140.6990  143.3072  151.3122 H   0  0  0  0  0  0  0  0  0  0  0  0  # atno 10167 bound_to 10162
  155.9990  130.4924  150.5378 H   0  0  0  0  0  0  0  0  0  0  0  0  # atno 10718 bound_to 10713
  154.4424  135.2762  155.1838 H   0  0  0  0  0  0  0  0  0  0  0  0  # atno 10763 bound_to 10752
  154.3699  135.6111  153.5738 H   0  0  0  0  0  0  0  0  0  0  0  0  # atno 10764 bound_to 10752
  152.9841  135.5855  154.4754 H   0  0  0  0  0  0  0  0  0  0  0  0  # atno 10765 bound_to 10752
  141.1647  133.7368  156.8931 H   0  0  0  0  0  0  0  0  0  0  0  0  # atno 11005 bound_to 11000
  146.3482  140.1723  142.8589 LP  0  0  0  0  0  0  0  0  0  0  0  0  # atno 17320 bound_to 7965
  145.0329  140.8885  143.5098 LP  0  0  0  0  0  0  0  0  0  0  0  0  # atno 17321 bound_to 7965
  139.6482  144.0411  152.2606 LP  0  0  0  0  0  0  0  0  0  0  0  0  # atno 17342 bound_to 10162
  139.9939  144.6342  150.7789 LP  0  0  0  0  0  0  0  0  0  0  0  0  # atno 17343 bound_to 10162
  157.3319  131.0701  151.1854 LP  0  0  0  0  0  0  0  0  0  0  0  0  # atno 17370 bound_to 10713
  157.2732  130.6714  149.6030 LP  0  0  0  0  0  0  0  0  0  0  0  0  # atno 17371 bound_to 10713
  140.1635  134.9149  157.2744 LP  0  0  0  0  0  0  0  0  0  0  0  0  # atno 17394 bound_to 11000
  140.2584  134.3600  155.7415 LP  0  0  0  0  0  0  0  0  0  0  0  0  # atno 17395 bound_to 11000

$$$$
