AV-unprocessed.smi:99|AV-procd|sdf|874|dock3
  -GOLD-   2262017343D 1   1.00000     0.00000
 Structure written by MMmdl.
 53 56  0  0  0  0  0  0  0  0  1 V2000
  147.6987  137.2342  161.5577 O   0  0  0  0  0  0  0  0  0  0  0  0
  147.4924  136.3523  160.7212 C   0  0  0  0  0  0  0  0  0  0  0  0
  147.6976  136.5159  159.3995 O   0  0  0  0  0  0  0  0  0  0  0  0
  148.4229  137.6402  158.9299 C   0  0  0  0  0  0  0  0  0  0  0  0
  149.8665  137.2243  158.6312 C   0  0  1  0  0  0  0  0  0  0  0  0
  149.9308  135.8254  158.3998 O   0  0  0  0  0  0  0  0  0  0  0  0
  151.0207  135.5360  157.5818 C   0  0  1  0  0  0  0  0  0  0  0  0
  150.5772  134.4880  156.5827 N   0  0  0  0  0  0  0  0  0  0  0  0
  149.4612  134.7031  155.7851 C   0  0  0  0  0  0  0  0  0  0  0  0
  149.0100  133.7982  154.8851 C   0  0  0  0  0  0  0  0  0  0  0  0
  149.6971  132.5223  154.7114 C   0  0  0  0  0  0  0  0  0  0  0  0
  149.3637  131.6392  153.9243 O   0  0  0  0  0  0  0  0  0  0  0  0
  150.8160  132.3495  155.5316 N   0  0  0  0  0  0  0  0  0  0  0  0
  151.2925  133.2759  156.4611 C   0  0  0  0  0  0  0  0  0  0  0  0
  152.2983  133.0198  157.1216 O   0  0  0  0  0  0  0  0  0  0  0  0
  151.4882  136.8497  156.9160 C   0  0  1  0  0  0  0  0  0  0  0  0
  151.5935  136.7948  155.5047 O   0  0  0  0  0  0  0  0  0  0  0  0
  150.4088  137.8370  157.3402 C   0  0  2  0  0  0  0  0  0  0  0  0
  150.9742  139.1110  157.6226 O   0  0  0  0  0  0  0  0  0  0  0  0
  151.8875  139.2576  158.6063 C   0  0  0  0  0  0  0  0  0  0  0  0
  152.4046  138.3131  159.2062 O   0  0  0  0  0  0  0  0  0  0  0  0
  152.2064  140.6859  158.8926 C   0  0  0  0  0  0  0  0  0  0  0  0
  151.6208  141.6988  158.0977 C   0  0  0  0  0  0  0  0  0  0  0  0
  151.9058  143.0564  158.3405 C   0  0  0  0  0  0  0  0  0  0  0  0
  152.7812  143.4179  159.3809 C   0  0  0  0  0  0  0  0  0  0  0  0
  153.3704  142.4199  160.1789 C   0  0  0  0  0  0  0  0  0  0  0  0
  153.0857  141.0614  159.9383 C   0  0  0  0  0  0  0  0  0  0  0  0
  146.9902  134.9912  161.0672 C   0  0  0  0  0  0  0  0  0  0  0  0
  147.1868  133.9279  160.1552 C   0  0  0  0  0  0  0  0  0  0  0  0
  146.7231  132.6319  160.4534 C   0  0  0  0  0  0  0  0  0  0  0  0
  146.0576  132.3830  161.6677 C   0  0  0  0  0  0  0  0  0  0  0  0
  145.8575  133.4315  162.5843 C   0  0  0  0  0  0  0  0  0  0  0  0
  146.3200  134.7284  162.2876 C   0  0  0  0  0  0  0  0  0  0  0  0
  151.3242  131.4815  155.4426 H   0  0  0  0  0  0  0  0  0  0  0  0
  147.9551  138.0580  158.0372 H   0  0  0  0  0  0  0  0  0  0  0  0
  148.4119  138.4126  159.7001 H   0  0  0  0  0  0  0  0  0  0  0  0
  150.5264  137.4698  159.4656 H   0  0  0  0  0  0  0  0  0  0  0  0
  151.7950  135.0910  158.2083 H   0  0  0  0  0  0  0  0  0  0  0  0
  148.9235  135.6361  155.8767 H   0  0  0  0  0  0  0  0  0  0  0  0
  148.1360  134.0191  154.2895 H   0  0  0  0  0  0  0  0  0  0  0  0
  152.4529  137.1199  157.3484 H   0  0  0  0  0  0  0  0  0  0  0  0
  151.1688  137.5577  155.1430 H   0  0  0  0  0  0  0  0  0  0  0  0
  149.6079  137.8773  156.5996 H   0  0  0  0  0  0  0  0  0  0  0  0
  150.9464  141.4460  157.2921 H   0  0  0  0  0  0  0  0  0  0  0  0
  151.4529  143.8210  157.7265 H   0  0  0  0  0  0  0  0  0  0  0  0
  153.0004  144.4592  159.5663 H   0  0  0  0  0  0  0  0  0  0  0  0
  154.0434  142.6967  160.9771 H   0  0  0  0  0  0  0  0  0  0  0  0
  153.5565  140.3208  160.5682 H   0  0  0  0  0  0  0  0  0  0  0  0
  147.6949  134.0945  159.2160 H   0  0  0  0  0  0  0  0  0  0  0  0
  146.8787  131.8282  159.7489 H   0  0  0  0  0  0  0  0  0  0  0  0
  145.7015  131.3892  161.8958 H   0  0  0  0  0  0  0  0  0  0  0  0
  145.3478  133.2408  163.5173 H   0  0  0  0  0  0  0  0  0  0  0  0
  146.1502  135.5101  163.0137 H   0  0  0  0  0  0  0  0  0  0  0  0
  1  2  2  0  0  0  0
  2  3  1  0  0  0  0
  2 28  1  0  0  0  0
  3  4  1  0  0  0  0
  4  5  1  0  0  0  0
  4 35  1  0  0  0  0
  4 36  1  0  0  0  0
  5 18  1  0  0  0  0
  5  6  1  0  0  0  0
  5 37  1  0  0  0  0
  6  7  1  0  0  0  0
  7  8  1  0  0  0  0
  7 16  1  0  0  0  0
  7 38  1  0  0  0  0
  8 14  1  0  0  0  0
  8  9  1  0  0  0  0
  9 10  2  0  0  0  0
  9 39  1  0  0  0  0
 10 11  1  0  0  0  0
 10 40  1  0  0  0  0
 11 12  2  0  0  0  0
 11 13  1  0  0  0  0
 13 34  1  0  0  0  0
 13 14  1  0  0  0  0
 14 15  2  0  0  0  0
 16 17  1  0  0  0  0
 16 18  1  0  0  0  0
 16 41  1  0  0  0  0
 17 42  1  0  0  0  0
 18 19  1  0  0  0  0
 18 43  1  0  0  0  0
 19 20  1  0  0  0  0
 20 21  2  0  0  0  0
 20 22  1  0  0  0  0
 22 27  1  0  0  0  0
 22 23  2  0  0  0  0
 23 24  1  0  0  0  0
 23 44  1  0  0  0  0
 24 25  2  0  0  0  0
 24 45  1  0  0  0  0
 25 26  1  0  0  0  0
 25 46  1  0  0  0  0
 26 27  2  0  0  0  0
 26 47  1  0  0  0  0
 27 48  1  0  0  0  0
 28 33  1  0  0  0  0
 28 29  2  0  0  0  0
 29 30  1  0  0  0  0
 29 49  1  0  0  0  0
 30 31  2  0  0  0  0
 30 50  1  0  0  0  0
 31 32  1  0  0  0  0
 31 51  1  0  0  0  0
 32 33  2  0  0  0  0
 32 52  1  0  0  0  0
 33 53  1  0  0  0  0
M  END
> <s_m_source_file>
AV-unprocessed.smi

> <i_m_source_file_index>
99

> <i_lp_mmshare_version>
43012

> <i_f3d_flags>
0

> <s_epik_input>
W2NIXTFbY0hdW2NIXVtjSF1bY0hdYzFDKD1PKU9bQ0gyXVtDQEBIXTJPW0NAQEhdKG4zW2NIXVtjSF1jKD1PKVtuSF1jMz1PKVtDQEBIXShbT0hdKVtDQEhdMk9DKD1PKWM0W2NIXVtjSF1bY0hdW2NIXVtjSF00

> <s_epik_cmdline>
J2VwaWtfcHl0aG9uJywgJy1waCcsICc3LjAnLCAnLXRuJywgJzgnLCAnLW1hJywgJzIwMCcsICctbWV0YWxfYmluZGluZycsICctaW1hZScsICc8aW5maWxlLm1hZT4nLCAnLW9tYWUnLCAnPG91dGZpbGUubWFlPic=

> <r_lp_tautomer_probability>
1

> <r_epik_Ionization_Penalty>
0.00454555

> <r_epik_Ionization_Penalty_Charging>
0.0045191

> <r_epik_Ionization_Penalty_Neutral>
2.64449e-05

> <r_epik_State_Penalty>
-0

> <r_epik_Charging_Adjusted_Penalty>
0.0045191

> <i_epik_Tot_Q>
0

> <i_epik_Tot_abs_Q>
0

> <r_epik_Metal_State_Penalty>
1.27877

> <b_epik_Metal_Only>
0

> <s_epik_Chemistry_Notes>
This compound has an ester and may undergo hydrolysis at high or low pH. This compound contains an acetal/aminal-like group ( X-CH(R)-Y where X, Y are N, S, or O) that may be acid/base labile, releasing an aldehyde.

> <s_lp_Force_Field>
OPLS_2005

> <r_lp_Energy>
37.9182

> <b_lp_Chiralities_Consistent>
1

> <s_lp_Variant>
AV-unprocessed.smi:99-10

> <Gold.Version>
5.8.1

> <Gold.Id.Protein>
6NUR|6NUR_protein|mol2

> <Gold.PLP.Fitness>
54.7601

> <Gold.PLP.PLP>
-48.4448

> <Gold.PLP.part.hbond>
-4.7452

> <Gold.PLP.part.metal>
0.0000

> <Gold.PLP.part.buried>
-3.4141

> <Gold.PLP.part.nonpolar>
-40.3520

> <Gold.PLP.part.repulsive>
0.1192

> <Gold.PLP.ligand.clash>
0.0000

> <Gold.PLP.ligand.torsion>
1.3043

> <Gold.PLP.Chemscore.Hbond>
2.7801

> <Gold.PLP.Chemscore.CHOScore>
0.0000

> <Gold.PLP.Chemscore.Metal>
0.0000

> <Gold.Chemscore.Hbonds>
donor molecule, donor type, donor heavy atom, donor atom, acceptor molecule, acceptor atom, score
      P1  H  6931  6943       L1     1  0.99
      P1  H  6934  6947       L1     1  0.75
      P1  H 10752 10764       L1    17  1.00

> <Gold.PLP.Chemscore.Internal.Correction>
0.5837

> <Gold.Rescore>
     Score         DG    S(hbond)    S(metal)    S(lipo)     H(rot)  DE(clash)    DE(int)     intcor
     15.75     -20.47       2.81        0.00     117.63       3.19       1.58       3.15       ----

> <Gold.Chemscore.Fitness>
15.7453

> <Gold.Chemscore.DG>
-20.4735

> <Gold.Chemscore.ZeroCoef>
-5.4800

> <Gold.Chemscore.Hbond>
2.8136

> <Gold.Chemscore.Metal>
0.0000

> <Gold.Chemscore.Lipo>
117.6343

> <Gold.Chemscore.Internal_Hbond>
0.0000

> <Gold.Chemscore.DEClash>
1.5812

> <Gold.Chemscore.DEInternal>
3.1470

> <Gold.Chemscore.Rot>
3.1903

> <Gold.Chemscore.Internal.Correction>
   9.000000E+99

> <Gold.Chemscore.Hbonds>
donor molecule, donor type, donor heavy atom, donor atom, acceptor molecule, acceptor atom, score
      P1  H  6931  6943       L1     1  0.94
      P1  H  6934  6947       L1     1  0.64
      P1  H 10752 10764       L1    17  0.81

> <Gold.Chemscore.Hbond.Weighted>
-9.3974

> <Gold.Chemscore.Metal.Weighted>
-0.0000

> <Gold.Chemscore.Lipo.Weighted>
-13.7632

> <Gold.Chemscore.Internal_Hbond.Weighted>
0.0000

> <Gold.Chemscore.DEClash.Weighted>
1.5812

> <Gold.Chemscore.DEInternal.Weighted>
3.1470

> <Gold.Chemscore.Rot.Weighted>
8.1671

> <Gold.Chemscore.Internal.Correction.Weighted>
   9.000000E+99

> <Gold.Protein.RotatedTorsions>
[ 6907 6896 6895 6894 ] final  113.94 input  -60.11 | X-H torsion
[ 7974 7965 7964 7962 ] final  -17.70 input  175.53 | X-H torsion
[ 8008 7997 7996 7995 ] final  119.14 input   59.86 | X-H torsion
[ 10167 10162 10161 10158 ] final  173.44 input  -65.29 | X-H torsion
[ 10718 10713 10712 10709 ] final -178.81 input   66.30 | X-H torsion
[ 10763 10752 10751 10750 ] final  -41.47 input  -60.55 | X-H torsion
[ 11005 11000 10999 10996 ] final  -32.41 input  -57.11 | X-H torsion

> <Gold.Protein.ActiveResidues>
 VAL166  LYS551  ARG553  GLY616  TRP617  ASP618  TYR619  PRO620  LYS621  CYS622 
 ASP623  PHE694  ASN695  SER759  ASP760  ASP761  ALA762  ILE779  LEU786  VAL792 
 PHE793  MET794  SER795  GLU796  ALA797  LYS798  CYS799  TRP800  GLU811  SER814 

> <Gold.Protein.RotatedAtoms>
  152.4831  133.8305  159.7100 H   0  0  0  0  0  0  0  0  0  0  0  0  # atno 6907 bound_to 6896
  150.8897  133.7251  159.2915 H   0  0  0  0  0  0  0  0  0  0  0  0  # atno 6908 bound_to 6896
  151.4728  135.1050  159.9808 H   0  0  0  0  0  0  0  0  0  0  0  0  # atno 6909 bound_to 6896
  146.1928  140.3817  142.8452 H   0  0  0  0  0  0  0  0  0  0  0  0  # atno 7974 bound_to 7965
  156.2581  140.2859  156.0946 H   0  0  0  0  0  0  0  0  0  0  0  0  # atno 8008 bound_to 7997
  155.1426  140.0396  157.2819 H   0  0  0  0  0  0  0  0  0  0  0  0  # atno 8009 bound_to 7997
  154.6518  140.2546  155.7211 H   0  0  0  0  0  0  0  0  0  0  0  0  # atno 8010 bound_to 7997
  139.5108  144.3260  152.0157 H   0  0  0  0  0  0  0  0  0  0  0  0  # atno 10167 bound_to 10162
  156.8498  130.9715  151.3093 H   0  0  0  0  0  0  0  0  0  0  0  0  # atno 10718 bound_to 10713
  153.9630  135.6737  153.4745 H   0  0  0  0  0  0  0  0  0  0  0  0  # atno 10763 bound_to 10752
  153.0829  135.4914  154.8535 H   0  0  0  0  0  0  0  0  0  0  0  0  # atno 10764 bound_to 10752
  154.7262  135.3128  154.8927 H   0  0  0  0  0  0  0  0  0  0  0  0  # atno 10765 bound_to 10752
  140.9550  133.7198  156.1279 H   0  0  0  0  0  0  0  0  0  0  0  0  # atno 11005 bound_to 11000
  144.8520  140.7015  143.6162 LP  0  0  0  0  0  0  0  0  0  0  0  0  # atno 17320 bound_to 7965
  145.3739  139.1652  143.4317 LP  0  0  0  0  0  0  0  0  0  0  0  0  # atno 17321 bound_to 7965
  140.2701  144.3974  150.6154 LP  0  0  0  0  0  0  0  0  0  0  0  0  # atno 17342 bound_to 10162
  140.6095  143.2169  151.6915 LP  0  0  0  0  0  0  0  0  0  0  0  0  # atno 17343 bound_to 10162
  157.6310  130.8729  149.9273 LP  0  0  0  0  0  0  0  0  0  0  0  0  # atno 17370 bound_to 10713
  156.0834  130.3670  150.0534 LP  0  0  0  0  0  0  0  0  0  0  0  0  # atno 17371 bound_to 10713
  140.7549  134.4004  157.5535 LP  0  0  0  0  0  0  0  0  0  0  0  0  # atno 17394 bound_to 11000
  139.8859  134.8924  156.2614 LP  0  0  0  0  0  0  0  0  0  0  0  0  # atno 17395 bound_to 11000

$$$$
