AV-unprocessed.smi:37|AV-procd|sdf|323|dock2
  -GOLD-   2262016143D 1   1.00000     0.00000
 Structure written by MMmdl.
 43 44  0  0  0  0  0  0  0  0  2 V2000
  147.4675  145.5663  160.9992 C   0  0  0  0  0  0  0  0  0  0  0  0
  146.4344  144.4864  161.3535 C   0  0  0  0  0  0  0  0  0  0  0  0
  146.2772  143.4114  160.2759 C   0  0  0  0  0  0  0  0  0  0  0  0
  145.5971  142.3979  160.4459 O   0  0  0  0  0  0  0  0  0  0  0  0
  146.9588  143.7168  159.1633 O   0  0  0  0  0  0  0  0  0  0  0  0
  146.8806  142.8643  158.0328 C   0  0  0  0  0  0  0  0  0  0  0  0
  148.0990  141.9340  158.0185 C   0  0  2  0  0  0  0  0  0  0  0  0
  149.1668  142.5904  157.3288 O   0  0  0  0  0  0  0  0  0  0  0  0
  149.7497  141.7344  156.3904 C   0  0  1  0  0  0  0  0  0  0  0  0
  150.9225  140.9867  157.0088 N   0  0  0  0  0  0  0  0  0  0  0  0
  151.2408  141.1054  158.3535 C   0  0  0  0  0  0  0  0  0  0  0  0
  152.2702  140.4232  158.8948 C   0  0  0  0  0  0  0  0  0  0  0  0
  152.5465  140.5566  160.2035 F   0  0  0  0  0  0  0  0  0  0  0  0
  153.0818  139.5493  158.0514 C   0  0  0  0  0  0  0  0  0  0  0  0
  154.0042  138.9105  158.5552 O   0  0  0  0  0  0  0  0  0  0  0  0
  152.7774  139.4850  156.7233 N   0  5  0  0  0  0  0  0  0  0  0  0
  151.7410  140.1798  156.1699 C   0  0  0  0  0  0  0  0  0  0  0  0
  151.4766  140.1440  154.9679 O   0  0  0  0  0  0  0  0  0  0  0  0
  148.6311  140.7690  155.9814 C   0  0  2  0  0  0  0  0  0  0  0  0
  147.4836  141.6424  154.6073 Br  0  0  0  0  0  0  0  0  0  0  0  0
  147.8428  140.6130  157.2695 C   0  0  1  0  0  0  0  0  0  0  0  0
  148.3869  139.5232  158.0043 O   0  0  0  0  0  0  0  0  0  0  0  0
  148.3843  138.2790  157.4966 C   0  0  0  0  0  0  0  0  0  0  0  0
  147.9504  137.9494  156.3925 O   0  0  0  0  0  0  0  0  0  0  0  0
  148.9612  137.2494  158.4667 C   0  0  0  0  0  0  0  0  0  0  0  0
  150.4129  137.5574  158.8611 C   0  0  0  0  0  0  0  0  0  0  0  0
  147.5416  146.3028  161.7992 H   0  0  0  0  0  0  0  0  0  0  0  0
  147.1920  146.0970  160.0872 H   0  0  0  0  0  0  0  0  0  0  0  0
  148.4594  145.1365  160.8552 H   0  0  0  0  0  0  0  0  0  0  0  0
  146.7170  144.0003  162.2876 H   0  0  0  0  0  0  0  0  0  0  0  0
  145.4622  144.9503  161.5221 H   0  0  0  0  0  0  0  0  0  0  0  0
  145.9560  142.2865  158.0539 H   0  0  0  0  0  0  0  0  0  0  0  0
  146.8674  143.4719  157.1271 H   0  0  0  0  0  0  0  0  0  0  0  0
  148.4061  141.7465  159.0482 H   0  0  0  0  0  0  0  0  0  0  0  0
  150.1847  142.2978  155.5633 H   0  0  0  0  0  0  0  0  0  0  0  0
  150.6701  141.7525  159.0000 H   0  0  0  0  0  0  0  0  0  0  0  0
  148.9949  139.8295  155.5654 H   0  0  0  0  0  0  0  0  0  0  0  0
  146.7866  140.4371  157.0590 H   0  0  0  0  0  0  0  0  0  0  0  0
  148.3325  137.2138  159.3567 H   0  0  0  0  0  0  0  0  0  0  0  0
  148.9079  136.2643  158.0023 H   0  0  0  0  0  0  0  0  0  0  0  0
  150.8181  136.7608  159.4851 H   0  0  0  0  0  0  0  0  0  0  0  0
  150.4848  138.4859  159.4294 H   0  0  0  0  0  0  0  0  0  0  0  0
  151.0536  137.6478  157.9833 H   0  0  0  0  0  0  0  0  0  0  0  0
  1  2  1  0  0  0  0
  1 27  1  0  0  0  0
  1 28  1  0  0  0  0
  1 29  1  0  0  0  0
  2  3  1  0  0  0  0
  2 30  1  0  0  0  0
  2 31  1  0  0  0  0
  3  4  2  0  0  0  0
  3  5  1  0  0  0  0
  5  6  1  0  0  0  0
  6  7  1  0  0  0  0
  6 32  1  0  0  0  0
  6 33  1  0  0  0  0
  7 21  1  0  0  0  0
  7  8  1  0  0  0  0
  7 34  1  0  0  0  0
  8  9  1  0  0  0  0
  9 10  1  0  0  0  0
  9 19  1  0  0  0  0
  9 35  1  0  0  0  0
 10 17  1  0  0  0  0
 10 11  1  0  0  0  0
 11 12  2  0  0  0  0
 11 36  1  0  0  0  0
 12 13  1  0  0  0  0
 12 14  1  0  0  0  0
 14 15  2  0  0  0  0
 14 16  1  0  0  0  0
 16 17  1  0  0  0  0
 17 18  2  0  0  0  0
 19 20  1  0  0  0  0
 19 21  1  0  0  0  0
 19 37  1  0  0  0  0
 21 22  1  0  0  0  0
 21 38  1  0  0  0  0
 22 23  1  0  0  0  0
 23 24  2  0  0  0  0
 23 25  1  0  0  0  0
 25 26  1  0  0  0  0
 25 39  1  0  0  0  0
 25 40  1  0  0  0  0
 26 41  1  0  0  0  0
 26 42  1  0  0  0  0
 26 43  1  0  0  0  0
M  CHG  1  16  -1
M  END
> <s_m_source_file>
AV-unprocessed.smi

> <i_m_source_file_index>
37

> <i_lp_mmshare_version>
43012

> <i_f3d_flags>
0

> <s_epik_input>
W0NIM11bQ0gyXUMoPU8pT1tDSDJdW0NAQEhdMU9bQ0BASF0objJbY0hdYyhGKWMoPU8pW25IXWMyPU8pW0NAQEhdKEJyKVtDQEhdMU9DKD1PKVtDSDJdW0NIM10=

> <s_epik_cmdline>
J2VwaWtfcHl0aG9uJywgJy1waCcsICc3LjAnLCAnLXRuJywgJzgnLCAnLW1hJywgJzIwMCcsICctbWV0YWxfYmluZGluZycsICctaW1hZScsICc8aW5maWxlLm1hZT4nLCAnLW9tYWUnLCAnPG91dGZpbGUubWFlPic=

> <r_epik_Ionization_Penalty>
1.08158

> <r_epik_Ionization_Penalty_Charging>
9.05154e-09

> <r_epik_Ionization_Penalty_Neutral>
1.08158

> <r_epik_State_Penalty>
1.13706

> <r_epik_Charging_Adjusted_Penalty>
1.13706

> <i_epik_Tot_Q>
-1

> <i_epik_Tot_abs_Q>
1

> <r_epik_Metal_State_Penalty>
0.00343535

> <b_epik_Metal_Only>
0

> <s_epik_Chemistry_Notes>
This compound has an ester and may undergo hydrolysis at high or low pH. This compound contains an acetal/aminal-like group ( X-CH(R)-Y where X, Y are N, S, or O) that may be acid/base labile, releasing an aldehyde.

> <s_lp_Force_Field>
OPLS_2005

> <r_lp_Energy>
30.4092

> <b_lp_Chiralities_Consistent>
1

> <s_lp_Variant>
AV-unprocessed.smi:37-21

> <Gold.Version>
5.8.1

> <Gold.Id.Protein>
6NUR|6NUR_protein|mol2

> <Gold.PLP.Fitness>
42.6137

> <Gold.PLP.PLP>
-34.0336

> <Gold.PLP.part.hbond>
-4.8728

> <Gold.PLP.part.metal>
0.0000

> <Gold.PLP.part.buried>
-5.4700

> <Gold.PLP.part.nonpolar>
-26.8710

> <Gold.PLP.part.repulsive>
2.8987

> <Gold.PLP.ligand.clash>
0.0000

> <Gold.PLP.ligand.torsion>
0.7680

> <Gold.PLP.Chemscore.Hbond>
3.2880

> <Gold.PLP.Chemscore.CHOScore>
0.0000

> <Gold.PLP.Chemscore.Metal>
0.0000

> <Gold.Chemscore.Hbonds>
donor molecule, donor type, donor heavy atom, donor atom, acceptor molecule, acceptor atom, score
      P1  H  6934  6946       L1     4  0.99
      P1  H  7989  7998       L1    18  1.00
      P1  H  7997  8009       L1    15  0.22
      P1  H  7997  8010       L1    16  1.18

> <Gold.PLP.Chemscore.Internal.Correction>
0.2520

> <Gold.Rescore>
     Score         DG    S(hbond)    S(metal)    S(lipo)     H(rot)  DE(clash)    DE(int)     intcor
      5.85      -8.55       1.96        0.00      41.75       3.27       0.29       2.41       ----

> <Gold.Chemscore.Fitness>
5.8491

> <Gold.Chemscore.DG>
-8.5501

> <Gold.Chemscore.ZeroCoef>
-5.4800

> <Gold.Chemscore.Hbond>
1.9608

> <Gold.Chemscore.Metal>
0.0000

> <Gold.Chemscore.Lipo>
41.7459

> <Gold.Chemscore.Internal_Hbond>
0.0000

> <Gold.Chemscore.DEClash>
0.2906

> <Gold.Chemscore.DEInternal>
2.4104

> <Gold.Chemscore.Rot>
3.2669

> <Gold.Chemscore.Internal.Correction>
   9.000000E+99

> <Gold.Chemscore.Hbonds>
donor molecule, donor type, donor heavy atom, donor atom, acceptor molecule, acceptor atom, score
      P1  H  6934  6946       L1     4  0.56
      P1  H  7989  7998       L1    18  0.97
      P1  H  7997  8009       L1    15  0.01
      P1  H  7997  8010       L1    16  0.10

> <Gold.Chemscore.Hbond.Weighted>
-6.5492

> <Gold.Chemscore.Metal.Weighted>
-0.0000

> <Gold.Chemscore.Lipo.Weighted>
-4.8843

> <Gold.Chemscore.Internal_Hbond.Weighted>
0.0000

> <Gold.Chemscore.DEClash.Weighted>
0.2906

> <Gold.Chemscore.DEInternal.Weighted>
2.4104

> <Gold.Chemscore.Rot.Weighted>
8.3634

> <Gold.Chemscore.Internal.Correction.Weighted>
   9.000000E+99

> <Gold.Protein.RotatedTorsions>
[ 6907 6896 6895 6894 ] final  -38.86 input  -60.11 | X-H torsion
[ 7974 7965 7964 7962 ] final -146.84 input  175.53 | X-H torsion
[ 8008 7997 7996 7995 ] final  102.48 input   59.86 | X-H torsion
[ 10167 10162 10161 10158 ] final -121.33 input  -65.29 | X-H torsion
[ 10718 10713 10712 10709 ] final  -62.25 input   66.30 | X-H torsion
[ 10763 10752 10751 10750 ] final -113.24 input  -60.55 | X-H torsion
[ 11005 11000 10999 10996 ] final -150.18 input  -57.11 | X-H torsion

> <Gold.Protein.ActiveResidues>
 VAL166  LYS551  ARG553  GLY616  TRP617  ASP618  TYR619  PRO620  LYS621  CYS622 
 ASP623  PHE694  ASN695  SER759  ASP760  ASP761  ALA762  ILE779  LEU786  VAL792 
 PHE793  MET794  SER795  GLU796  ALA797  LYS798  CYS799  TRP800  GLU811  SER814 

> <Gold.Protein.RotatedAtoms>
  150.9973  134.9294  159.7933 H   0  0  0  0  0  0  0  0  0  0  0  0  # atno 6907 bound_to 6896
  152.5268  134.3201  159.9155 H   0  0  0  0  0  0  0  0  0  0  0  0  # atno 6908 bound_to 6896
  151.3207  133.4000  159.2688 H   0  0  0  0  0  0  0  0  0  0  0  0  # atno 6909 bound_to 6896
  144.8132  140.5403  143.5628 H   0  0  0  0  0  0  0  0  0  0  0  0  # atno 7974 bound_to 7965
  156.1396  140.3180  155.8475 H   0  0  0  0  0  0  0  0  0  0  0  0  # atno 8008 bound_to 7997
  155.4179  140.0510  157.3044 H   0  0  0  0  0  0  0  0  0  0  0  0  # atno 8009 bound_to 7997
  154.4965  140.2113  155.9448 H   0  0  0  0  0  0  0  0  0  0  0  0  # atno 8010 bound_to 7997
  140.0262  143.5294  152.2198 H   0  0  0  0  0  0  0  0  0  0  0  0  # atno 10167 bound_to 10162
  156.0867  130.4207  150.1109 H   0  0  0  0  0  0  0  0  0  0  0  0  # atno 10718 bound_to 10713
  154.8387  135.4461  154.1319 H   0  0  0  0  0  0  0  0  0  0  0  0  # atno 10763 bound_to 10752
  153.2527  135.6928  153.7668 H   0  0  0  0  0  0  0  0  0  0  0  0  # atno 10764 bound_to 10752
  153.6974  135.3377  155.3192 H   0  0  0  0  0  0  0  0  0  0  0  0  # atno 10765 bound_to 10752
  140.7429  134.3493  157.5143 H   0  0  0  0  0  0  0  0  0  0  0  0  # atno 11005 bound_to 11000
  145.5274  139.1475  143.3518 LP  0  0  0  0  0  0  0  0  0  0  0  0  # atno 17320 bound_to 7965
  146.2433  140.5415  142.8924 LP  0  0  0  0  0  0  0  0  0  0  0  0  # atno 17321 bound_to 7965
  139.6107  144.7608  151.2959 LP  0  0  0  0  0  0  0  0  0  0  0  0  # atno 17342 bound_to 10162
  140.7322  143.6831  150.7984 LP  0  0  0  0  0  0  0  0  0  0  0  0  # atno 17343 bound_to 10162
  156.9128  130.9657  151.3560 LP  0  0  0  0  0  0  0  0  0  0  0  0  # atno 17370 bound_to 10713
  157.6004  130.8508  149.8793 LP  0  0  0  0  0  0  0  0  0  0  0  0  # atno 17371 bound_to 10713
  139.8802  134.9093  156.2987 LP  0  0  0  0  0  0  0  0  0  0  0  0  # atno 17394 bound_to 11000
  140.9820  133.7261  156.0686 LP  0  0  0  0  0  0  0  0  0  0  0  0  # atno 17395 bound_to 11000

$$$$
