AV-unprocessed.smi:2345|AV-procd|sdf|9363|dock1
  -GOLD-   2272012583D 1   1.00000     0.00000
 Structure written by MMmdl.
 37 38  0  0  0  0  0  0  0  0  1 V2000
  149.4334  133.2835  154.4440 C   0  0  0  0  0  0  0  0  0  0  0  0
  147.9657  133.5110  154.0730 C   0  0  0  0  0  0  0  0  0  0  0  0
  147.6995  133.3373  152.2874 S   0  0  0  0  0  0  0  0  0  0  0  0
  145.9429  133.8100  152.1618 C   0  0  2  0  0  0  0  0  0  0  0  0
  145.4793  134.0729  150.7293 C   0  0  0  0  0  0  0  0  0  0  0  0
  144.1613  134.8240  150.9071 C   0  0  0  0  0  0  0  0  0  0  0  0
  144.3321  135.6608  152.1820 C   0  0  0  0  0  0  0  0  0  0  0  0
  145.5533  135.0877  152.9348 C   0  0  2  0  0  0  0  0  0  0  0  0
  146.6454  136.0608  152.9719 N   0  0  0  0  0  0  0  0  0  0  0  0
  146.5746  137.2820  153.5191 C   0  0  0  0  0  0  0  0  0  0  0  0
  145.5530  137.7432  154.0280 O   0  0  0  0  0  0  0  0  0  0  0  0
  147.7455  137.9316  153.4161 N   0  0  0  0  0  0  0  0  0  0  0  0
  148.0332  139.2475  153.8602 C   0  0  0  0  0  0  0  0  0  0  0  0
  147.0478  140.2404  153.6828 C   0  0  0  0  0  0  0  0  0  0  0  0
  147.3306  141.5564  154.0999 C   0  0  0  0  0  0  0  0  0  0  0  0
  148.5070  141.9242  154.6500 N   0  0  0  0  0  0  0  0  0  0  0  0
  149.4581  140.9765  154.7947 C   0  0  0  0  0  0  0  0  0  0  0  0
  149.2808  139.6320  154.4103 C   0  0  0  0  0  0  0  0  0  0  0  0
  150.3040  138.7543  154.5443 F   0  0  0  0  0  0  0  0  0  0  0  0
  149.5834  133.3896  155.5185 H   0  0  0  0  0  0  0  0  0  0  0  0
  150.0814  134.0040  153.9443 H   0  0  0  0  0  0  0  0  0  0  0  0
  149.7603  132.2830  154.1592 H   0  0  0  0  0  0  0  0  0  0  0  0
  147.3353  132.7957  154.6010 H   0  0  0  0  0  0  0  0  0  0  0  0
  147.6533  134.5083  154.3832 H   0  0  0  0  0  0  0  0  0  0  0  0
  145.3525  132.9853  152.5646 H   0  0  0  0  0  0  0  0  0  0  0  0
  146.2005  134.7071  150.2119 H   0  0  0  0  0  0  0  0  0  0  0  0
  145.3569  133.1587  150.1483 H   0  0  0  0  0  0  0  0  0  0  0  0
  143.9113  135.4338  150.0385 H   0  0  0  0  0  0  0  0  0  0  0  0
  143.3516  134.1068  151.0484 H   0  0  0  0  0  0  0  0  0  0  0  0
  144.4753  136.7113  151.9249 H   0  0  0  0  0  0  0  0  0  0  0  0
  143.4327  135.6075  152.7961 H   0  0  0  0  0  0  0  0  0  0  0  0
  145.2851  134.8216  153.9590 H   0  0  0  0  0  0  0  0  0  0  0  0
  147.5255  135.7663  152.5744 H   0  0  0  0  0  0  0  0  0  0  0  0
  148.4631  137.4836  152.8659 H   0  0  0  0  0  0  0  0  0  0  0  0
  146.0892  140.0008  153.2461 H   0  0  0  0  0  0  0  0  0  0  0  0
  146.5917  142.3356  153.9853 H   0  0  0  0  0  0  0  0  0  0  0  0
  150.3960  141.3031  155.2189 H   0  0  0  0  0  0  0  0  0  0  0  0
  1  2  1  0  0  0  0
  1 20  1  0  0  0  0
  1 21  1  0  0  0  0
  1 22  1  0  0  0  0
  2  3  1  0  0  0  0
  2 23  1  0  0  0  0
  2 24  1  0  0  0  0
  3  4  1  0  0  0  0
  4  8  1  0  0  0  0
  4  5  1  0  0  0  0
  4 25  1  0  0  0  0
  5  6  1  0  0  0  0
  5 26  1  0  0  0  0
  5 27  1  0  0  0  0
  6  7  1  0  0  0  0
  6 28  1  0  0  0  0
  6 29  1  0  0  0  0
  7  8  1  0  0  0  0
  7 30  1  0  0  0  0
  7 31  1  0  0  0  0
  8  9  1  0  0  0  0
  8 32  1  0  0  0  0
  9 10  1  0  0  0  0
  9 33  1  0  0  0  0
 10 11  2  0  0  0  0
 10 12  1  0  0  0  0
 12 13  1  0  0  0  0
 12 34  1  0  0  0  0
 13 18  1  0  0  0  0
 13 14  2  0  0  0  0
 14 15  1  0  0  0  0
 14 35  1  0  0  0  0
 15 16  2  0  0  0  0
 15 36  1  0  0  0  0
 16 17  1  0  0  0  0
 17 18  2  0  0  0  0
 17 37  1  0  0  0  0
 18 19  1  0  0  0  0
M  END
> <s_m_source_file>
AV-unprocessed.smi

> <i_m_source_file_index>
2345

> <i_lp_mmshare_version>
43012

> <i_f3d_flags>
0

> <s_epik_input>
W0NIM11bQ0gyXVNbQ0BASF0xW0NIMl1bQ0gyXVtDSDJdW0NASF0xW05IXUMoPU8pW05IXWMyW2NIXVtjSF1uW2NIXWMyRg==

> <s_epik_cmdline>
J2VwaWtfcHl0aG9uJywgJy1waCcsICc3LjAnLCAnLXRuJywgJzgnLCAnLW1hJywgJzIwMCcsICctbWV0YWxfYmluZGluZycsICctaW1hZScsICc8aW5maWxlLm1hZT4nLCAnLW9tYWUnLCAnPG91dGZpbGUubWFlPic=

> <r_epik_Ionization_Penalty>
0.00333745

> <r_epik_Ionization_Penalty_Charging>
0

> <r_epik_Ionization_Penalty_Neutral>
0.00333745

> <r_epik_State_Penalty>
0.00233401

> <r_epik_Charging_Adjusted_Penalty>
0.00233401

> <i_epik_Tot_Q>
0

> <i_epik_Tot_abs_Q>
0

> <r_epik_Metal_State_Penalty>
-0

> <b_epik_Metal_Only>
0

> <s_lp_Force_Field>
OPLS_2005

> <r_lp_Energy>
24.389

> <b_lp_Chiralities_Consistent>
1

> <s_lp_Variant>
AV-unprocessed.smi:2345-3

> <Gold.Version>
5.8.1

> <Gold.Id.Protein>
6NUR|6NUR_protein|mol2

> <Gold.PLP.Fitness>
37.6312

> <Gold.PLP.PLP>
-32.3939

> <Gold.PLP.part.hbond>
-2.8157

> <Gold.PLP.part.metal>
0.0000

> <Gold.PLP.part.buried>
-0.8377

> <Gold.PLP.part.nonpolar>
-29.3606

> <Gold.PLP.part.repulsive>
1.2667

> <Gold.PLP.ligand.clash>
0.0000

> <Gold.PLP.ligand.torsion>
0.3819

> <Gold.PLP.Chemscore.Hbond>
1.9440

> <Gold.PLP.Chemscore.CHOScore>
0.0000

> <Gold.PLP.Chemscore.Metal>
0.0000

> <Gold.Chemscore.Hbonds>
donor molecule, donor type, donor heavy atom, donor atom, acceptor molecule, acceptor atom, score
      L1  H     9    33       P1  7948  0.96
      L1  H    12    34       P1  7948  1.00

> <Gold.PLP.Chemscore.Internal.Correction>
0.1692

> <Gold.Rescore>
     Score         DG    S(hbond)    S(metal)    S(lipo)     H(rot)  DE(clash)    DE(int)     intcor
     14.99     -16.75       1.92        0.00      70.94       1.35       0.17       1.60       ----

> <Gold.Chemscore.Fitness>
14.9882

> <Gold.Chemscore.DG>
-16.7510

> <Gold.Chemscore.ZeroCoef>
-5.4800

> <Gold.Chemscore.Hbond>
1.9224

> <Gold.Chemscore.Metal>
0.0000

> <Gold.Chemscore.Lipo>
70.9384

> <Gold.Chemscore.Internal_Hbond>
0.0000

> <Gold.Chemscore.DEClash>
0.1671

> <Gold.Chemscore.DEInternal>
1.5957

> <Gold.Chemscore.Rot>
1.3475

> <Gold.Chemscore.Internal.Correction>
   9.000000E+99

> <Gold.Chemscore.Hbonds>
donor molecule, donor type, donor heavy atom, donor atom, acceptor molecule, acceptor atom, score
      L1  H     9    33       P1  7948  0.92
      L1  H    12    34       P1  7948  0.95

> <Gold.Chemscore.Hbond.Weighted>
-6.4208

> <Gold.Chemscore.Metal.Weighted>
-0.0000

> <Gold.Chemscore.Lipo.Weighted>
-8.2998

> <Gold.Chemscore.Internal_Hbond.Weighted>
0.0000

> <Gold.Chemscore.DEClash.Weighted>
0.1671

> <Gold.Chemscore.DEInternal.Weighted>
1.5957

> <Gold.Chemscore.Rot.Weighted>
3.4496

> <Gold.Chemscore.Internal.Correction.Weighted>
   9.000000E+99

> <Gold.Protein.RotatedTorsions>
[ 6907 6896 6895 6894 ] final   76.05 input  -60.11 | X-H torsion
[ 7974 7965 7964 7962 ] final  -29.69 input  175.53 | X-H torsion
[ 8008 7997 7996 7995 ] final   71.01 input   59.86 | X-H torsion
[ 10167 10162 10161 10158 ] final   -5.36 input  -65.29 | X-H torsion
[ 10718 10713 10712 10709 ] final  170.92 input   66.30 | X-H torsion
[ 10763 10752 10751 10750 ] final  140.81 input  -60.55 | X-H torsion
[ 11005 11000 10999 10996 ] final   -5.77 input  -57.11 | X-H torsion

> <Gold.Protein.ActiveResidues>
 VAL166  LYS551  ARG553  GLY616  TRP617  ASP618  TYR619  PRO620  LYS621  CYS622 
 ASP623  PHE694  ASN695  SER759  ASP760  ASP761  ALA762  ILE779  LEU786  VAL792 
 PHE793  MET794  SER795  GLU796  ALA797  LYS798  CYS799  TRP800  GLU811  SER814 

> <Gold.Protein.RotatedAtoms>
  152.5055  134.4028  159.9422 H   0  0  0  0  0  0  0  0  0  0  0  0  # atno 6907 bound_to 6896
  151.3993  133.3757  159.2738 H   0  0  0  0  0  0  0  0  0  0  0  0  # atno 6908 bound_to 6896
  150.9374  134.8806  159.7649 H   0  0  0  0  0  0  0  0  0  0  0  0  # atno 6909 bound_to 6896
  146.1198  140.5444  142.8740 H   0  0  0  0  0  0  0  0  0  0  0  0  # atno 7974 bound_to 7965
  155.7474  140.3489  155.5133 H   0  0  0  0  0  0  0  0  0  0  0  0  # atno 8008 bound_to 7997
  155.9037  140.1038  157.1352 H   0  0  0  0  0  0  0  0  0  0  0  0  # atno 8009 bound_to 7997
  154.4047  140.1281  156.4455 H   0  0  0  0  0  0  0  0  0  0  0  0  # atno 8010 bound_to 7997
  140.6960  143.6317  150.8516 H   0  0  0  0  0  0  0  0  0  0  0  0  # atno 10167 bound_to 10162
  157.0010  131.0176  151.2830 H   0  0  0  0  0  0  0  0  0  0  0  0  # atno 10718 bound_to 10713
  153.9289  135.2992  155.3446 H   0  0  0  0  0  0  0  0  0  0  0  0  # atno 10763 bound_to 10752
  154.7537  135.4968  153.9338 H   0  0  0  0  0  0  0  0  0  0  0  0  # atno 10764 bound_to 10752
  153.1102  135.6757  153.9619 H   0  0  0  0  0  0  0  0  0  0  0  0  # atno 10765 bound_to 10752
  140.6947  133.9041  155.8642 H   0  0  0  0  0  0  0  0  0  0  0  0  # atno 11005 bound_to 11000
  144.7586  140.5369  143.6751 LP  0  0  0  0  0  0  0  0  0  0  0  0  # atno 17320 bound_to 7965
  145.5490  139.1476  143.3405 LP  0  0  0  0  0  0  0  0  0  0  0  0  # atno 17321 bound_to 7965
  140.0035  143.5718  152.2866 LP  0  0  0  0  0  0  0  0  0  0  0  0  # atno 17342 bound_to 10162
  139.6416  144.7655  151.2327 LP  0  0  0  0  0  0  0  0  0  0  0  0  # atno 17343 bound_to 10162
  157.5390  130.8107  149.8006 LP  0  0  0  0  0  0  0  0  0  0  0  0  # atno 17370 bound_to 10713
  156.0171  130.3809  150.2077 LP  0  0  0  0  0  0  0  0  0  0  0  0  # atno 17371 bound_to 10713
  141.0213  134.0885  157.4117 LP  0  0  0  0  0  0  0  0  0  0  0  0  # atno 17394 bound_to 11000
  139.8913  135.0118  156.6786 LP  0  0  0  0  0  0  0  0  0  0  0  0  # atno 17395 bound_to 11000

$$$$
