AV-unprocessed.smi:78|AV-procd|sdf|775|dock9
  -GOLD-   2262017133D 1   1.00000     0.00000
 Structure written by MMmdl.
 56 59  0  0  0  0  0  0  0  0  1 V2000
  150.6863  143.4372  158.3017 C   0  0  0  0  0  0  0  0  0  0  0  0
  151.8656  143.9908  159.1155 C   0  0  0  0  0  0  0  0  0  0  0  0
  152.3429  145.3260  158.5203 C   0  0  0  0  0  0  0  0  0  0  0  0
  152.9987  142.9420  159.2091 C   0  0  0  0  0  0  0  0  0  0  0  0
  152.7767  141.7446  160.1760 C   0  0  2  0  0  0  0  0  0  0  0  0
  153.1353  142.1785  161.6135 C   0  0  0  0  0  0  0  0  0  0  0  0
  152.4079  142.9750  162.2036 O   0  0  0  0  0  0  0  0  0  0  0  0
  154.2356  141.6779  162.2020 N   0  0  0  0  0  0  0  0  0  0  0  0
  155.1559  140.7013  161.6231 C   0  0  0  0  0  0  0  0  0  0  0  0
  154.9732  140.5073  160.1092 C   0  0  0  0  0  0  0  0  0  0  0  0
  153.5585  140.5701  159.7593 N   0  0  0  0  0  0  0  0  0  0  0  0
  153.0559  139.7182  158.8297 C   0  0  0  0  0  0  0  0  0  0  0  0
  153.8647  138.7352  158.3577 N   0  0  0  0  0  0  0  0  0  0  0  0
  153.4102  137.8599  157.4573 C   0  0  0  0  0  0  0  0  0  0  0  0
  152.1958  137.7806  156.9113 N   0  0  0  0  0  0  0  0  0  0  0  0
  151.3733  138.7593  157.3860 C   0  0  0  0  0  0  0  0  0  0  0  0
  151.7228  139.7690  158.3273 C   0  0  0  0  0  0  0  0  0  0  0  0
  150.6251  140.5873  158.5646 N   0  0  0  0  0  0  0  0  0  0  0  0
  149.6888  140.1005  157.7979 C   0  0  0  0  0  0  0  0  0  0  0  0
  150.0393  138.9759  157.0833 N   0  0  0  0  0  0  0  0  0  0  0  0
  149.2232  138.2342  156.1591 C   0  0  0  0  0  0  0  0  0  0  0  0
  149.4825  138.2732  154.6454 C   0  0  0  0  0  0  0  0  0  0  0  0
  148.3180  139.2736  154.4717 C   0  0  0  0  0  0  0  0  0  0  0  0
  148.7128  140.7631  154.5075 C   0  0  0  0  0  0  0  0  0  0  0  0
  149.2392  141.1921  153.2681 O   0  0  0  0  0  0  0  0  0  0  0  0
  147.3946  139.0796  153.2532 C   0  0  0  0  0  0  0  0  0  0  0  0
  146.8678  137.7704  153.1731 O   0  0  0  0  0  0  0  0  0  0  0  0
  147.8079  138.7266  155.8234 C   0  0  0  0  0  0  0  0  0  0  0  0
  150.9800  143.2172  157.2749 H   0  0  0  0  0  0  0  0  0  0  0  0
  149.8630  144.1511  158.2667 H   0  0  0  0  0  0  0  0  0  0  0  0
  150.3012  142.5175  158.7430 H   0  0  0  0  0  0  0  0  0  0  0  0
  151.4774  144.1862  160.1126 H   0  0  0  0  0  0  0  0  0  0  0  0
  152.7603  145.1877  157.5224 H   0  0  0  0  0  0  0  0  0  0  0  0
  153.1061  145.7963  159.1384 H   0  0  0  0  0  0  0  0  0  0  0  0
  151.5180  146.0344  158.4393 H   0  0  0  0  0  0  0  0  0  0  0  0
  153.1975  142.5520  158.2099 H   0  0  0  0  0  0  0  0  0  0  0  0
  153.9101  143.4696  159.4956 H   0  0  0  0  0  0  0  0  0  0  0  0
  151.7152  141.5007  160.2093 H   0  0  0  0  0  0  0  0  0  0  0  0
  154.4409  141.9883  163.1406 H   0  0  0  0  0  0  0  0  0  0  0  0
  156.1838  140.9852  161.8500 H   0  0  0  0  0  0  0  0  0  0  0  0
  154.9747  139.7533  162.1306 H   0  0  0  0  0  0  0  0  0  0  0  0
  155.5034  141.2882  159.5634 H   0  0  0  0  0  0  0  0  0  0  0  0
  155.4222  139.5558  159.8221 H   0  0  0  0  0  0  0  0  0  0  0  0
  154.1196  137.1133  157.1319 H   0  0  0  0  0  0  0  0  0  0  0  0
  148.7091  140.5514  157.7516 H   0  0  0  0  0  0  0  0  0  0  0  0
  149.2094  137.2094  156.5322 H   0  0  0  0  0  0  0  0  0  0  0  0
  150.4548  138.6543  154.3361 H   0  0  0  0  0  0  0  0  0  0  0  0
  149.2943  137.3051  154.1787 H   0  0  0  0  0  0  0  0  0  0  0  0
  147.8565  141.3896  154.7594 H   0  0  0  0  0  0  0  0  0  0  0  0
  149.4640  140.9589  155.2724 H   0  0  0  0  0  0  0  0  0  0  0  0
  149.2341  140.4603  152.6700 H   0  0  0  0  0  0  0  0  0  0  0  0
  146.5553  139.7749  153.2877 H   0  0  0  0  0  0  0  0  0  0  0  0
  147.9275  139.2756  152.3224 H   0  0  0  0  0  0  0  0  0  0  0  0
  147.3363  137.2990  152.5013 H   0  0  0  0  0  0  0  0  0  0  0  0
  147.1016  137.9005  155.7288 H   0  0  0  0  0  0  0  0  0  0  0  0
  147.4127  139.4911  156.4928 H   0  0  0  0  0  0  0  0  0  0  0  0
  1  2  1  0  0  0  0
  1 29  1  0  0  0  0
  1 30  1  0  0  0  0
  1 31  1  0  0  0  0
  2  3  1  0  0  0  0
  2  4  1  0  0  0  0
  2 32  1  0  0  0  0
  3 33  1  0  0  0  0
  3 34  1  0  0  0  0
  3 35  1  0  0  0  0
  4  5  1  0  0  0  0
  4 36  1  0  0  0  0
  4 37  1  0  0  0  0
  5 11  1  0  0  0  0
  5  6  1  0  0  0  0
  5 38  1  0  0  0  0
  6  7  2  0  0  0  0
  6  8  1  0  0  0  0
  8  9  1  0  0  0  0
  8 39  1  0  0  0  0
  9 10  1  0  0  0  0
  9 40  1  0  0  0  0
  9 41  1  0  0  0  0
 10 11  1  0  0  0  0
 10 42  1  0  0  0  0
 10 43  1  0  0  0  0
 11 12  1  0  0  0  0
 12 17  1  0  0  0  0
 12 13  2  0  0  0  0
 13 14  1  0  0  0  0
 14 15  2  0  0  0  0
 14 44  1  0  0  0  0
 15 16  1  0  0  0  0
 16 20  1  0  0  0  0
 16 17  2  0  0  0  0
 17 18  1  0  0  0  0
 18 19  2  0  0  0  0
 19 20  1  0  0  0  0
 19 45  1  0  0  0  0
 20 21  1  0  0  0  0
 21 28  1  0  0  0  0
 21 22  1  0  0  0  0
 21 46  1  0  0  0  0
 22 23  1  0  0  0  0
 22 47  1  0  0  0  0
 22 48  1  0  0  0  0
 23 24  1  0  0  0  0
 23 26  1  0  0  0  0
 23 28  1  0  0  0  0
 24 25  1  0  0  0  0
 24 49  1  0  0  0  0
 24 50  1  0  0  0  0
 25 51  1  0  0  0  0
 26 27  1  0  0  0  0
 26 52  1  0  0  0  0
 26 53  1  0  0  0  0
 27 54  1  0  0  0  0
 28 55  1  0  0  0  0
 28 56  1  0  0  0  0
M  END
> <s_m_source_file>
AV-unprocessed.smi

> <i_m_source_file_index>
78

> <i_lp_mmshare_version>
43012

> <i_f3d_flags>
0

> <s_epik_input>
W0NIM11bQ0hdKFtDSDNdKVtDSDJdW0NAQEhdMUMoPU8pW05IXVtDSDJdW0NIMl1OMWMobltjSF1uMiljKGMyMyluW2NIXW4zW0NIXShbQ0gyXTQpW0NIMl1DNChbQ0gyXVtPSF0pW0NIMl1bT0hd

> <s_epik_cmdline>
J2VwaWtfcHl0aG9uJywgJy1waCcsICc3LjAnLCAnLXRuJywgJzgnLCAnLW1hJywgJzIwMCcsICctbWV0YWxfYmluZGluZycsICctaW1hZScsICc8aW5maWxlLm1hZT4nLCAnLW9tYWUnLCAnPG91dGZpbGUubWFlPic=

> <r_lp_tautomer_probability>
1

> <r_epik_Ionization_Penalty>
0.000550083

> <r_epik_Ionization_Penalty_Charging>
0

> <r_epik_Ionization_Penalty_Neutral>
0.000550083

> <r_epik_State_Penalty>
0.000250415

> <r_epik_Charging_Adjusted_Penalty>
0.000250415

> <i_epik_Tot_Q>
0

> <i_epik_Tot_abs_Q>
0

> <r_epik_Metal_State_Penalty>
-0

> <b_epik_Metal_Only>
0

> <s_lp_Force_Field>
OPLS_2005

> <r_lp_Energy>
48.6174

> <b_lp_Chiralities_Consistent>
1

> <s_lp_Variant>
AV-unprocessed.smi:78-1

> <Gold.Version>
5.8.1

> <Gold.Id.Protein>
6NUR|6NUR_protein|mol2

> <Gold.PLP.Fitness>
57.6681

> <Gold.PLP.PLP>
-47.1788

> <Gold.PLP.part.hbond>
-5.6844

> <Gold.PLP.part.metal>
0.0000

> <Gold.PLP.part.buried>
-3.7788

> <Gold.PLP.part.nonpolar>
-37.6596

> <Gold.PLP.part.repulsive>
0.1401

> <Gold.PLP.ligand.clash>
0.0000

> <Gold.PLP.ligand.torsion>
0.7150

> <Gold.PLP.Chemscore.Hbond>
3.7621

> <Gold.PLP.Chemscore.CHOScore>
0.0000

> <Gold.PLP.Chemscore.Metal>
0.0000

> <Gold.Chemscore.Hbonds>
donor molecule, donor type, donor heavy atom, donor atom, acceptor molecule, acceptor atom, score
      L1  H    25    51       P1  7957  0.83
      L1  H    27    54       P1  7948  1.00
      P1  H  7989  7998       L1    25  0.01
      P1  H  7997  8008       L1    13  0.69
      P1  H  8011  8017       L1    25  1.00

> <Gold.PLP.Chemscore.Internal.Correction>
0.6331

> <Gold.Rescore>
     Score         DG    S(hbond)    S(metal)    S(lipo)     H(rot)  DE(clash)    DE(int)     intcor
     14.12     -16.82       2.29        0.00     105.56       3.39       0.87       1.83       ----

> <Gold.Chemscore.Fitness>
14.1224

> <Gold.Chemscore.DG>
-16.8209

> <Gold.Chemscore.ZeroCoef>
-5.4800

> <Gold.Chemscore.Hbond>
2.2929

> <Gold.Chemscore.Metal>
0.0000

> <Gold.Chemscore.Lipo>
105.5591

> <Gold.Chemscore.Internal_Hbond>
0.0000

> <Gold.Chemscore.DEClash>
0.8651

> <Gold.Chemscore.DEInternal>
1.8334

> <Gold.Chemscore.Rot>
3.3859

> <Gold.Chemscore.Internal.Correction>
   9.000000E+99

> <Gold.Chemscore.Hbonds>
donor molecule, donor type, donor heavy atom, donor atom, acceptor molecule, acceptor atom, score
      L1  H    25    51       P1  7957  0.82
      L1  H    27    54       P1  7948  0.90
      P1  H  7997  8008       L1    13  0.04
      P1  H  8011  8017       L1    25  0.34

> <Gold.Chemscore.Hbond.Weighted>
-7.6584

> <Gold.Chemscore.Metal.Weighted>
-0.0000

> <Gold.Chemscore.Lipo.Weighted>
-12.3504

> <Gold.Chemscore.Internal_Hbond.Weighted>
0.0000

> <Gold.Chemscore.DEClash.Weighted>
0.8651

> <Gold.Chemscore.DEInternal.Weighted>
1.8334

> <Gold.Chemscore.Rot.Weighted>
8.6679

> <Gold.Chemscore.Internal.Correction.Weighted>
   9.000000E+99

> <Gold.Protein.RotatedTorsions>
[ 6907 6896 6895 6894 ] final   56.41 input  -60.11 | X-H torsion
[ 7974 7965 7964 7962 ] final   34.71 input  175.53 | X-H torsion
[ 8008 7997 7996 7995 ] final -120.48 input   59.86 | X-H torsion
[ 10167 10162 10161 10158 ] final -139.12 input  -65.29 | X-H torsion
[ 10718 10713 10712 10709 ] final  -84.79 input   66.30 | X-H torsion
[ 10763 10752 10751 10750 ] final  170.11 input  -60.55 | X-H torsion
[ 11005 11000 10999 10996 ] final  142.70 input  -57.11 | X-H torsion

> <Gold.Protein.ActiveResidues>
 VAL166  LYS551  ARG553  GLY616  TRP617  ASP618  TYR619  PRO620  LYS621  CYS622 
 ASP623  PHE694  ASN695  SER759  ASP760  ASP761  ALA762  ILE779  LEU786  VAL792 
 PHE793  MET794  SER795  GLU796  ALA797  LYS798  CYS799  TRP800  GLU811  SER814 

> <Gold.Protein.RotatedAtoms>
  152.3634  134.6840  160.0199 H   0  0  0  0  0  0  0  0  0  0  0  0  # atno 6907 bound_to 6896
  151.7156  133.3308  159.3310 H   0  0  0  0  0  0  0  0  0  0  0  0  # atno 6908 bound_to 6896
  150.7621  134.6428  159.6291 H   0  0  0  0  0  0  0  0  0  0  0  0  # atno 6909 bound_to 6896
  146.1334  139.6234  142.9211 H   0  0  0  0  0  0  0  0  0  0  0  0  # atno 7974 bound_to 7965
  155.1326  140.0400  157.2778 H   0  0  0  0  0  0  0  0  0  0  0  0  # atno 8008 bound_to 7997
  154.6532  140.2574  155.7165 H   0  0  0  0  0  0  0  0  0  0  0  0  # atno 8009 bound_to 7997
  156.2586  140.2832  156.0974 H   0  0  0  0  0  0  0  0  0  0  0  0  # atno 8010 bound_to 7997
  139.8410  143.7321  152.2663 H   0  0  0  0  0  0  0  0  0  0  0  0  # atno 10167 bound_to 10162
  156.0003  130.4709  150.4463 H   0  0  0  0  0  0  0  0  0  0  0  0  # atno 10718 bound_to 10713
  154.3929  135.2754  155.2144 H   0  0  0  0  0  0  0  0  0  0  0  0  # atno 10763 bound_to 10752
  154.4202  135.6002  153.6009 H   0  0  0  0  0  0  0  0  0  0  0  0  # atno 10764 bound_to 10752
  152.9832  135.5970  154.4186 H   0  0  0  0  0  0  0  0  0  0  0  0  # atno 10765 bound_to 10752
  140.0497  134.9262  157.0994 H   0  0  0  0  0  0  0  0  0  0  0  0  # atno 11005 bound_to 11000
  145.5210  141.0432  143.2435 LP  0  0  0  0  0  0  0  0  0  0  0  0  # atno 17320 bound_to 7965
  144.7714  139.6727  143.7193 LP  0  0  0  0  0  0  0  0  0  0  0  0  # atno 17321 bound_to 7965
  139.7558  144.7521  151.0437 LP  0  0  0  0  0  0  0  0  0  0  0  0  # atno 17342 bound_to 10162
  140.7798  143.4807  151.0022 LP  0  0  0  0  0  0  0  0  0  0  0  0  # atno 17343 bound_to 10162
  157.2500  131.0544  151.2385 LP  0  0  0  0  0  0  0  0  0  0  0  0  # atno 17370 bound_to 10713
  157.3537  130.7095  149.6457 LP  0  0  0  0  0  0  0  0  0  0  0  0  # atno 17371 bound_to 10713
  140.3937  134.2156  155.7165 LP  0  0  0  0  0  0  0  0  0  0  0  0  # atno 17394 bound_to 11000
  141.1924  133.8174  157.0840 LP  0  0  0  0  0  0  0  0  0  0  0  0  # atno 17395 bound_to 11000

$$$$
