AV-unprocessed.smi:264|AV-procd|sdf|2011|dock9
  -GOLD-   2262021213D 1   1.00000     0.00000
 Structure written by MMmdl.
 52 56  0  0  0  0  0  0  0  0  1 V2000
  146.1504  135.3075  154.8960 C   0  0  0  0  0  0  0  0  0  0  0  0
  147.5366  135.5084  154.2633 C   0  0  2  0  0  0  0  0  0  0  0  0
  148.2600  134.2886  154.4045 O   0  0  0  0  0  0  0  0  0  0  0  0
  149.6421  134.5865  154.4867 C   0  0  0  0  0  0  0  0  0  0  0  0
  149.6556  135.8225  155.3731 C   0  0  0  0  0  0  0  0  0  0  0  0
  148.4415  136.6097  154.8865 C   0  0  1  0  0  0  0  0  0  0  0  0
  148.8692  137.4588  153.8341 O   0  0  0  0  0  0  0  0  0  0  0  0
  147.7961  137.4958  155.9844 C   0  0  0  0  0  0  0  0  0  0  0  0
  148.7314  138.4222  156.6059 N   0  0  0  0  0  0  0  0  0  0  0  0
  148.9312  139.7406  156.2688 C   0  0  0  0  0  0  0  0  0  0  0  0
  149.8304  140.3639  156.9783 N   0  0  0  0  0  0  0  0  0  0  0  0
  150.2821  139.4110  157.8864 C   0  0  0  0  0  0  0  0  0  0  0  0
  151.2466  139.4017  158.9412 C   0  0  0  0  0  0  0  0  0  0  0  0
  151.9988  140.4617  159.3394 N   0  0  0  0  0  0  0  0  0  0  0  0
  153.4057  140.1993  159.6246 C   0  0  0  0  0  0  0  0  0  0  0  0
  153.9844  141.3276  160.4897 C   0  0  0  0  0  0  0  0  0  0  0  0
  153.7621  142.5913  159.8662 O   0  0  0  0  0  0  0  0  0  0  0  0
  152.3850  142.8925  159.6239 C   0  0  2  0  0  0  0  0  0  0  0  0
  152.3209  144.2384  158.9107 C   0  0  0  0  0  0  0  0  0  0  0  0
  151.0294  144.8458  159.4359 C   0  0  0  0  0  0  0  0  0  0  0  0
  151.0617  144.4920  160.8061 O   0  0  0  0  0  0  0  0  0  0  0  0
  151.5900  143.1748  160.9203 C   0  0  0  0  0  0  0  0  0  0  0  0
  151.7543  141.7764  158.7587 C   0  0  0  0  0  0  0  0  0  0  0  0
  151.4167  138.2333  159.6138 N   0  0  0  0  0  0  0  0  0  0  0  0
  150.7015  137.1519  159.2941 C   0  0  0  0  0  0  0  0  0  0  0  0
  149.7727  137.0179  158.3474 N   0  0  0  0  0  0  0  0  0  0  0  0
  149.5967  138.1814  157.6593 C   0  0  0  0  0  0  0  0  0  0  0  0
  145.5408  136.2075  154.8143 H   0  0  0  0  0  0  0  0  0  0  0  0
  146.2257  135.0382  155.9497 H   0  0  0  0  0  0  0  0  0  0  0  0
  145.6129  134.5034  154.3930 H   0  0  0  0  0  0  0  0  0  0  0  0
  147.4024  135.6867  153.1946 H   0  0  0  0  0  0  0  0  0  0  0  0
  150.2092  133.7568  154.9087 H   0  0  0  0  0  0  0  0  0  0  0  0
  150.0344  134.8080  153.4930 H   0  0  0  0  0  0  0  0  0  0  0  0
  149.5094  135.5079  156.4069 H   0  0  0  0  0  0  0  0  0  0  0  0
  150.5929  136.3787  155.3243 H   0  0  0  0  0  0  0  0  0  0  0  0
  148.6697  137.0394  153.0112 H   0  0  0  0  0  0  0  0  0  0  0  0
  146.9700  138.0754  155.5704 H   0  0  0  0  0  0  0  0  0  0  0  0
  147.3717  136.8760  156.7746 H   0  0  0  0  0  0  0  0  0  0  0  0
  148.3897  140.2274  155.4708 H   0  0  0  0  0  0  0  0  0  0  0  0
  153.5481  139.2478  160.1372 H   0  0  0  0  0  0  0  0  0  0  0  0
  153.9490  140.1359  158.6809 H   0  0  0  0  0  0  0  0  0  0  0  0
  153.5465  141.3059  161.4879 H   0  0  0  0  0  0  0  0  0  0  0  0
  155.0573  141.1852  160.6177 H   0  0  0  0  0  0  0  0  0  0  0  0
  153.1581  144.8669  159.2175 H   0  0  0  0  0  0  0  0  0  0  0  0
  152.3466  144.1619  157.8233 H   0  0  0  0  0  0  0  0  0  0  0  0
  150.9832  145.9262  159.2997 H   0  0  0  0  0  0  0  0  0  0  0  0
  150.1583  144.3963  158.9567 H   0  0  0  0  0  0  0  0  0  0  0  0
  150.7737  142.4638  161.0541 H   0  0  0  0  0  0  0  0  0  0  0  0
  152.2136  143.1325  161.8131 H   0  0  0  0  0  0  0  0  0  0  0  0
  152.1847  141.7954  157.7565 H   0  0  0  0  0  0  0  0  0  0  0  0
  150.6831  141.9547  158.6575 H   0  0  0  0  0  0  0  0  0  0  0  0
  150.9018  136.2683  159.8817 H   0  0  0  0  0  0  0  0  0  0  0  0
  1  2  1  0  0  0  0
  1 28  1  0  0  0  0
  1 29  1  0  0  0  0
  1 30  1  0  0  0  0
  2  6  1  0  0  0  0
  2  3  1  0  0  0  0
  2 31  1  0  0  0  0
  3  4  1  0  0  0  0
  4  5  1  0  0  0  0
  4 32  1  0  0  0  0
  4 33  1  0  0  0  0
  5  6  1  0  0  0  0
  5 34  1  0  0  0  0
  5 35  1  0  0  0  0
  6  7  1  0  0  0  0
  6  8  1  0  0  0  0
  7 36  1  0  0  0  0
  8  9  1  0  0  0  0
  8 37  1  0  0  0  0
  8 38  1  0  0  0  0
  9 27  1  0  0  0  0
  9 10  1  0  0  0  0
 10 11  2  0  0  0  0
 10 39  1  0  0  0  0
 11 12  1  0  0  0  0
 12 27  2  0  0  0  0
 12 13  1  0  0  0  0
 13 14  1  0  0  0  0
 13 24  2  0  0  0  0
 14 23  1  0  0  0  0
 14 15  1  0  0  0  0
 15 16  1  0  0  0  0
 15 40  1  0  0  0  0
 15 41  1  0  0  0  0
 16 17  1  0  0  0  0
 16 42  1  0  0  0  0
 16 43  1  0  0  0  0
 17 18  1  0  0  0  0
 18 22  1  0  0  0  0
 18 19  1  0  0  0  0
 18 23  1  0  0  0  0
 19 20  1  0  0  0  0
 19 44  1  0  0  0  0
 19 45  1  0  0  0  0
 20 21  1  0  0  0  0
 20 46  1  0  0  0  0
 20 47  1  0  0  0  0
 21 22  1  0  0  0  0
 22 48  1  0  0  0  0
 22 49  1  0  0  0  0
 23 50  1  0  0  0  0
 23 51  1  0  0  0  0
 24 25  1  0  0  0  0
 25 26  2  0  0  0  0
 25 52  1  0  0  0  0
 26 27  1  0  0  0  0
M  END
> <s_m_source_file>
AV-unprocessed.smi

> <i_m_source_file_index>
264

> <i_lp_mmshare_version>
43012

> <i_f3d_flags>
0

> <s_epik_input>
W0NIMl0xW0NIMl1PW0NAQEhdKFtDSDNdKVtDQEBdMShbT0hdKVtDSDJdbihbY0hdbjIpYyhjMjMpbltjSF1uYzNOKFtDSDJdNClbQ0gyXVtDSDJdT1tDQF00NVtDSDJdW0NIMl1PW0NIMl01

> <s_epik_cmdline>
J2VwaWtfcHl0aG9uJywgJy1waCcsICc3LjAnLCAnLXRuJywgJzgnLCAnLW1hJywgJzIwMCcsICctbWV0YWxfYmluZGluZycsICctaW1hZScsICc8aW5maWxlLm1hZT4nLCAnLW9tYWUnLCAnPG91dGZpbGUubWFlPic=

> <r_lp_tautomer_probability>
1

> <r_epik_Ionization_Penalty>
0.00539389

> <r_epik_Ionization_Penalty_Charging>
0

> <r_epik_Ionization_Penalty_Neutral>
0.00539389

> <r_epik_State_Penalty>
0.00375441

> <r_epik_Charging_Adjusted_Penalty>
0.00375441

> <i_epik_Tot_Q>
0

> <i_epik_Tot_abs_Q>
0

> <r_epik_Metal_State_Penalty>
-0

> <b_epik_Metal_Only>
0

> <s_lp_Force_Field>
OPLS_2005

> <r_lp_Energy>
55.2391

> <b_lp_Chiralities_Consistent>
1

> <s_lp_Variant>
AV-unprocessed.smi:264-5

> <Gold.Version>
5.8.1

> <Gold.Id.Protein>
6NUR|6NUR_protein|mol2

> <Gold.PLP.Fitness>
36.9680

> <Gold.PLP.PLP>
-35.1281

> <Gold.PLP.part.hbond>
-1.3448

> <Gold.PLP.part.metal>
0.0000

> <Gold.PLP.part.buried>
-1.7312

> <Gold.PLP.part.nonpolar>
-31.8681

> <Gold.PLP.part.repulsive>
0.2595

> <Gold.PLP.ligand.clash>
0.0000

> <Gold.PLP.ligand.torsion>
0.7177

> <Gold.PLP.Chemscore.Hbond>
0.9920

> <Gold.PLP.Chemscore.CHOScore>
0.0000

> <Gold.PLP.Chemscore.Metal>
0.0000

> <Gold.Chemscore.Hbonds>
donor molecule, donor type, donor heavy atom, donor atom, acceptor molecule, acceptor atom, score
      L1  H     7    36       P1  7948  0.73

> <Gold.PLP.Chemscore.Internal.Correction>
0.2994

> <Gold.Rescore>
     Score         DG    S(hbond)    S(metal)    S(lipo)     H(rot)  DE(clash)    DE(int)     intcor
     12.32     -14.26       0.83        0.00      90.61       1.79       0.09       1.85       ----

> <Gold.Chemscore.Fitness>
12.3220

> <Gold.Chemscore.DG>
-14.2599

> <Gold.Chemscore.ZeroCoef>
-5.4800

> <Gold.Chemscore.Hbond>
0.8294

> <Gold.Chemscore.Metal>
0.0000

> <Gold.Chemscore.Lipo>
90.6061

> <Gold.Chemscore.Internal_Hbond>
0.0000

> <Gold.Chemscore.DEClash>
0.0884

> <Gold.Chemscore.DEInternal>
1.8495

> <Gold.Chemscore.Rot>
1.7935

> <Gold.Chemscore.Internal.Correction>
   9.000000E+99

> <Gold.Chemscore.Hbonds>
donor molecule, donor type, donor heavy atom, donor atom, acceptor molecule, acceptor atom, score
      L1  H     7    36       P1  7948  0.71

> <Gold.Chemscore.Hbond.Weighted>
-2.7703

> <Gold.Chemscore.Metal.Weighted>
-0.0000

> <Gold.Chemscore.Lipo.Weighted>
-10.6009

> <Gold.Chemscore.Internal_Hbond.Weighted>
0.0000

> <Gold.Chemscore.DEClash.Weighted>
0.0884

> <Gold.Chemscore.DEInternal.Weighted>
1.8495

> <Gold.Chemscore.Rot.Weighted>
4.5913

> <Gold.Chemscore.Internal.Correction.Weighted>
   9.000000E+99

> <Gold.Protein.RotatedTorsions>
[ 6907 6896 6895 6894 ] final  161.05 input  -60.11 | X-H torsion
[ 7974 7965 7964 7962 ] final  -74.04 input  175.53 | X-H torsion
[ 8008 7997 7996 7995 ] final  -71.49 input   59.86 | X-H torsion
[ 10167 10162 10161 10158 ] final   54.92 input  -65.29 | X-H torsion
[ 10718 10713 10712 10709 ] final  -79.22 input   66.30 | X-H torsion
[ 10763 10752 10751 10750 ] final  106.09 input  -60.55 | X-H torsion
[ 11005 11000 10999 10996 ] final  151.30 input  -57.11 | X-H torsion

> <Gold.Protein.ActiveResidues>
 VAL166  LYS551  ARG553  GLY616  TRP617  ASP618  TYR619  PRO620  LYS621  CYS622 
 ASP623  PHE694  ASN695  SER759  ASP760  ASP761  ALA762  ILE779  LEU786  VAL792 
 PHE793  MET794  SER795  GLU796  ALA797  LYS798  CYS799  TRP800  GLU811  SER814 

> <Gold.Protein.RotatedAtoms>
  151.9615  133.3696  159.4036 H   0  0  0  0  0  0  0  0  0  0  0  0  # atno 6907 bound_to 6896
  150.6963  134.4236  159.5225 H   0  0  0  0  0  0  0  0  0  0  0  0  # atno 6908 bound_to 6896
  152.1925  134.8659  160.0567 H   0  0  0  0  0  0  0  0  0  0  0  0  # atno 6909 bound_to 6896
  145.6443  140.9302  143.1019 H   0  0  0  0  0  0  0  0  0  0  0  0  # atno 7974 bound_to 7965
  154.5092  140.0814  156.7956 H   0  0  0  0  0  0  0  0  0  0  0  0  # atno 8008 bound_to 7997
  155.3824  140.3428  155.4229 H   0  0  0  0  0  0  0  0  0  0  0  0  # atno 8009 bound_to 7997
  156.1553  140.1571  156.8691 H   0  0  0  0  0  0  0  0  0  0  0  0  # atno 8010 bound_to 7997
  140.2249  144.3748  150.6436 H   0  0  0  0  0  0  0  0  0  0  0  0  # atno 10167 bound_to 10162
  156.0098  130.4539  150.3615 H   0  0  0  0  0  0  0  0  0  0  0  0  # atno 10718 bound_to 10713
  153.3882  135.3888  155.1904 H   0  0  0  0  0  0  0  0  0  0  0  0  # atno 10763 bound_to 10752
  154.8716  135.3742  154.4771 H   0  0  0  0  0  0  0  0  0  0  0  0  # atno 10764 bound_to 10752
  153.5255  135.7086  153.5771 H   0  0  0  0  0  0  0  0  0  0  0  0  # atno 10765 bound_to 10752
  140.1207  134.8866  157.2067 H   0  0  0  0  0  0  0  0  0  0  0  0  # atno 11005 bound_to 11000
  144.7146  139.8245  143.7403 LP  0  0  0  0  0  0  0  0  0  0  0  0  # atno 17320 bound_to 7965
  146.1255  139.4281  143.0201 LP  0  0  0  0  0  0  0  0  0  0  0  0  # atno 17321 bound_to 7965
  140.6227  143.2178  151.6660 LP  0  0  0  0  0  0  0  0  0  0  0  0  # atno 17342 bound_to 10162
  139.5130  144.3456  152.0700 LP  0  0  0  0  0  0  0  0  0  0  0  0  # atno 17343 bound_to 10162
  157.1703  131.0367  151.2798 LP  0  0  0  0  0  0  0  0  0  0  0  0  # atno 17370 bound_to 10713
  157.4234  130.7450  149.6932 LP  0  0  0  0  0  0  0  0  0  0  0  0  # atno 17371 bound_to 10713
  140.2969  134.3176  155.7300 LP  0  0  0  0  0  0  0  0  0  0  0  0  # atno 17394 bound_to 11000
  141.2151  133.7568  156.9585 LP  0  0  0  0  0  0  0  0  0  0  0  0  # atno 17395 bound_to 11000

$$$$
