AV-unprocessed.smi:1244|AV-procd|sdf|5238|dock10
  -GOLD-   22720 4343D 1   1.00000     0.00000
 Structure written by MMmdl.
 55 57  0  0  0  0  0  0  0  0  4 V2000
  149.2347  136.3881  159.3701 C   0  0  0  0  0  0  0  0  0  0  0  0
  149.3861  136.2762  157.8491 C   0  0  1  0  0  0  0  0  0  0  0  0
  149.6112  137.6491  157.1908 C   0  0  0  0  0  0  0  0  0  0  0  0
  149.8459  137.4946  155.7359 N   0  3  1  0  0  0  0  0  0  0  0  0
  149.9472  138.7970  155.0249 C   0  0  0  0  0  0  0  0  0  0  0  0
  151.3639  139.4003  155.1133 C   0  0  0  0  0  0  0  0  0  0  0  0
  151.4876  140.2032  156.3292 N   0  5  0  0  0  0  0  0  0  0  0  0
  152.4117  140.0011  157.3060 C   0  0  0  0  0  0  0  0  0  0  0  0
  153.3737  139.2252  157.2871 O   0  0  0  0  0  0  0  0  0  0  0  0
  152.1690  140.7610  158.3878 N   0  0  0  0  0  0  0  0  0  0  0  0
  152.8735  140.8299  159.6232 C   0  0  0  0  0  0  0  0  0  0  0  0
  153.7208  139.7751  160.0496 C   0  0  0  0  0  0  0  0  0  0  0  0
  154.3893  139.8641  161.2847 C   0  0  0  0  0  0  0  0  0  0  0  0
  154.2075  141.0119  162.0741 C   0  0  0  0  0  0  0  0  0  0  0  0
  153.4155  142.0093  161.6302 N   0  3  0  0  0  0  0  0  0  0  0  0
  152.7560  141.9900  160.4443 C   0  0  0  0  0  0  0  0  0  0  0  0
  151.9749  143.1224  160.1137 N   0  0  0  0  0  0  0  0  0  0  0  0
  151.7161  144.1580  161.1069 C   0  0  0  0  0  0  0  0  0  0  0  0
  151.1378  145.3296  160.3179 C   0  0  0  0  0  0  0  0  0  0  0  0
  151.8935  145.2398  158.9958 C   0  0  0  0  0  0  0  0  0  0  0  0
  152.0951  143.7345  158.7939 C   0  0  0  0  0  0  0  0  0  0  0  0
  150.9990  136.5862  155.5004 C   0  0  0  0  0  0  0  0  0  0  0  0
  150.7846  135.2291  156.1969 C   0  0  2  0  0  0  0  0  0  0  0  0
  149.7331  134.3430  155.5049 C   0  0  0  0  0  0  0  0  0  0  0  0
  150.5003  135.4283  157.5818 O   0  0  0  0  0  0  0  0  0  0  0  0
  148.3851  137.0177  159.6353 H   0  0  0  0  0  0  0  0  0  0  0  0
  150.1263  136.8204  159.8250 H   0  0  0  0  0  0  0  0  0  0  0  0
  149.0740  135.4076  159.8190 H   0  0  0  0  0  0  0  0  0  0  0  0
  148.4768  135.8246  157.4520 H   0  0  0  0  0  0  0  0  0  0  0  0
  148.7355  138.2780  157.3581 H   0  0  0  0  0  0  0  0  0  0  0  0
  150.4638  138.1571  157.6447 H   0  0  0  0  0  0  0  0  0  0  0  0
  149.7098  138.6533  153.9694 H   0  0  0  0  0  0  0  0  0  0  0  0
  149.1988  139.4925  155.4085 H   0  0  0  0  0  0  0  0  0  0  0  0
  152.0940  138.5909  155.1070 H   0  0  0  0  0  0  0  0  0  0  0  0
  151.5644  139.9751  154.2078 H   0  0  0  0  0  0  0  0  0  0  0  0
  151.3076  141.2856  158.3518 H   0  0  0  0  0  0  0  0  0  0  0  0
  153.8752  138.8960  159.4429 H   0  0  0  0  0  0  0  0  0  0  0  0
  155.0309  139.0625  161.6200 H   0  0  0  0  0  0  0  0  0  0  0  0
  154.6751  141.1673  163.0353 H   0  0  0  0  0  0  0  0  0  0  0  0
  151.0286  143.8103  161.8784 H   0  0  0  0  0  0  0  0  0  0  0  0
  152.6476  144.4625  161.5855 H   0  0  0  0  0  0  0  0  0  0  0  0
  150.0713  145.1761  160.1479 H   0  0  0  0  0  0  0  0  0  0  0  0
  151.2680  146.2879  160.8215 H   0  0  0  0  0  0  0  0  0  0  0  0
  151.3623  145.7105  158.1682 H   0  0  0  0  0  0  0  0  0  0  0  0
  152.8630  145.7296  159.0946 H   0  0  0  0  0  0  0  0  0  0  0  0
  153.0583  143.5236  158.3274 H   0  0  0  0  0  0  0  0  0  0  0  0
  151.3092  143.3369  158.1514 H   0  0  0  0  0  0  0  0  0  0  0  0
  151.1594  136.4316  154.4329 H   0  0  0  0  0  0  0  0  0  0  0  0
  151.9052  137.0555  155.8868 H   0  0  0  0  0  0  0  0  0  0  0  0
  151.7284  134.6844  156.1589 H   0  0  0  0  0  0  0  0  0  0  0  0
  150.0429  134.0986  154.4885 H   0  0  0  0  0  0  0  0  0  0  0  0
  148.7603  134.8293  155.4367 H   0  0  0  0  0  0  0  0  0  0  0  0
  149.6015  133.4040  156.0429 H   0  0  0  0  0  0  0  0  0  0  0  0
  149.0245  137.0390  155.3643 H   0  0  0  0  0  0  0  0  0  0  0  0
  153.3127  142.8347  162.2202 H   0  0  0  0  0  0  0  0  0  0  0  0
  1  2  1  0  0  0  0
  1 26  1  0  0  0  0
  1 27  1  0  0  0  0
  1 28  1  0  0  0  0
  2 25  1  0  0  0  0
  2  3  1  0  0  0  0
  2 29  1  0  0  0  0
  3  4  1  0  0  0  0
  3 30  1  0  0  0  0
  3 31  1  0  0  0  0
  4  5  1  0  0  0  0
  4 22  1  0  0  0  0
  4 54  1  0  0  0  0
  5  6  1  0  0  0  0
  5 32  1  0  0  0  0
  5 33  1  0  0  0  0
  6  7  1  0  0  0  0
  6 34  1  0  0  0  0
  6 35  1  0  0  0  0
  7  8  1  0  0  0  0
  8  9  2  0  0  0  0
  8 10  1  0  0  0  0
 10 11  1  0  0  0  0
 10 36  1  0  0  0  0
 11 16  1  0  0  0  0
 11 12  2  0  0  0  0
 12 13  1  0  0  0  0
 12 37  1  0  0  0  0
 13 14  2  0  0  0  0
 13 38  1  0  0  0  0
 14 15  1  0  0  0  0
 14 39  1  0  0  0  0
 15 16  2  0  0  0  0
 15 55  1  0  0  0  0
 16 17  1  0  0  0  0
 17 21  1  0  0  0  0
 17 18  1  0  0  0  0
 18 19  1  0  0  0  0
 18 40  1  0  0  0  0
 18 41  1  0  0  0  0
 19 20  1  0  0  0  0
 19 42  1  0  0  0  0
 19 43  1  0  0  0  0
 20 21  1  0  0  0  0
 20 44  1  0  0  0  0
 20 45  1  0  0  0  0
 21 46  1  0  0  0  0
 21 47  1  0  0  0  0
 22 23  1  0  0  0  0
 22 48  1  0  0  0  0
 22 49  1  0  0  0  0
 23 24  1  0  0  0  0
 23 25  1  0  0  0  0
 23 50  1  0  0  0  0
 24 51  1  0  0  0  0
 24 52  1  0  0  0  0
 24 53  1  0  0  0  0
M  CHG  1   4   1
M  CHG  1   7  -1
M  CHG  1  15   1
M  END
> <s_m_source_file>
AV-unprocessed.smi

> <i_m_source_file_index>
1244

> <i_lp_mmshare_version>
43012

> <i_f3d_flags>
0

> <s_epik_input>
W0NIM11bQ0BASF0xW0NIMl1OKFtDSDJdW0NASF0oTzEpW0NIM10pW0NIMl1bQ0gyXVtOSF1DKD1PKVtOSF1jMltjSF1bY0hdW2NIXW5jMk4zW0NIMl1bQ0gyXVtDSDJdW0NIMl0z

> <s_epik_cmdline>
J2VwaWtfcHl0aG9uJywgJy1waCcsICc3LjAnLCAnLXRuJywgJzgnLCAnLW1hJywgJzIwMCcsICctbWV0YWxfYmluZGluZycsICctaW1hZScsICc8aW5maWxlLm1hZT4nLCAnLW9tYWUnLCAnPG91dGZpbGUubWFlPic=

> <r_lp_tautomer_probability>
0.999994

> <r_epik_Ionization_Penalty>
8.60539

> <r_epik_Ionization_Penalty_Charging>
8.60539

> <r_epik_Ionization_Penalty_Neutral>
3.60441e-06

> <r_epik_State_Penalty>
8.59967

> <r_epik_Charging_Adjusted_Penalty>
17.2051

> <i_epik_Tot_Q>
1

> <i_epik_Tot_abs_Q>
3

> <r_epik_Metal_State_Penalty>
4.59489

> <b_epik_Metal_Only>
1

> <s_lp_Force_Field>
OPLS_2005

> <r_lp_Energy>
46.9431

> <b_lp_Chiralities_Consistent>
1

> <s_lp_Variant>
AV-unprocessed.smi:1244-18

> <Gold.Version>
5.8.1

> <Gold.Id.Protein>
6NUR|6NUR_protein|mol2

> <Gold.PLP.Fitness>
54.1009

> <Gold.PLP.PLP>
-49.7048

> <Gold.PLP.part.hbond>
-2.0000

> <Gold.PLP.part.metal>
0.0000

> <Gold.PLP.part.buried>
-5.5124

> <Gold.PLP.part.nonpolar>
-42.2627

> <Gold.PLP.part.repulsive>
0.1280

> <Gold.PLP.ligand.clash>
0.0000

> <Gold.PLP.ligand.torsion>
0.9204

> <Gold.PLP.Chemscore.Hbond>
1.7360

> <Gold.PLP.Chemscore.CHOScore>
0.0000

> <Gold.PLP.Chemscore.Metal>
0.0000

> <Gold.Chemscore.Hbonds>
donor molecule, donor type, donor heavy atom, donor atom, acceptor molecule, acceptor atom, score
      P1  H  6896  6908       L1    25  0.41
      P1  H  7997  8008       L1     9  0.80

> <Gold.PLP.Chemscore.Internal.Correction>
1.0288

> <Gold.Rescore>
     Score         DG    S(hbond)    S(metal)    S(lipo)     H(rot)  DE(clash)    DE(int)     intcor
     17.79     -20.41       1.64        0.00     111.83       1.42       0.05       2.58       ----

> <Gold.Chemscore.Fitness>
17.7863

> <Gold.Chemscore.DG>
-20.4120

> <Gold.Chemscore.ZeroCoef>
-5.4800

> <Gold.Chemscore.Hbond>
1.6406

> <Gold.Chemscore.Metal>
0.0000

> <Gold.Chemscore.Lipo>
111.8276

> <Gold.Chemscore.Internal_Hbond>
0.0000

> <Gold.Chemscore.DEClash>
0.0491

> <Gold.Chemscore.DEInternal>
2.5766

> <Gold.Chemscore.Rot>
1.4185

> <Gold.Chemscore.Internal.Correction>
   9.000000E+99

> <Gold.Chemscore.Hbonds>
donor molecule, donor type, donor heavy atom, donor atom, acceptor molecule, acceptor atom, score
      P1  H  6896  6908       L1    25  0.09
      P1  H  7997  8008       L1     9  0.43

> <Gold.Chemscore.Hbond.Weighted>
-5.4795

> <Gold.Chemscore.Metal.Weighted>
-0.0000

> <Gold.Chemscore.Lipo.Weighted>
-13.0838

> <Gold.Chemscore.Internal_Hbond.Weighted>
0.0000

> <Gold.Chemscore.DEClash.Weighted>
0.0491

> <Gold.Chemscore.DEInternal.Weighted>
2.5766

> <Gold.Chemscore.Rot.Weighted>
3.6313

> <Gold.Chemscore.Internal.Correction.Weighted>
   9.000000E+99

> <Gold.Protein.RotatedTorsions>
[ 6907 6896 6895 6894 ] final  168.56 input  -60.11 | X-H torsion
[ 7974 7965 7964 7962 ] final   51.39 input  175.53 | X-H torsion
[ 8008 7997 7996 7995 ] final  -79.86 input   59.86 | X-H torsion
[ 10167 10162 10161 10158 ] final  -80.53 input  -65.29 | X-H torsion
[ 10718 10713 10712 10709 ] final   56.59 input   66.30 | X-H torsion
[ 10763 10752 10751 10750 ] final  151.23 input  -60.55 | X-H torsion
[ 11005 11000 10999 10996 ] final  -76.46 input  -57.11 | X-H torsion

> <Gold.Protein.ActiveResidues>
 VAL166  LYS551  ARG553  GLY616  TRP617  ASP618  TYR619  PRO620  LYS621  CYS622 
 ASP623  PHE694  ASN695  SER759  ASP760  ASP761  ALA762  ILE779  LEU786  VAL792 
 PHE793  MET794  SER795  GLU796  ALA797  LYS798  CYS799  TRP800  GLU811  SER814 

> <Gold.Protein.RotatedAtoms>
  151.8457  133.3431  159.3657 H   0  0  0  0  0  0  0  0  0  0  0  0  # atno 6907 bound_to 6896
  150.7221  134.5348  159.5727 H   0  0  0  0  0  0  0  0  0  0  0  0  # atno 6908 bound_to 6896
  152.2831  134.7807  160.0444 H   0  0  0  0  0  0  0  0  0  0  0  0  # atno 6909 bound_to 6896
  145.9918  139.4347  143.0069 H   0  0  0  0  0  0  0  0  0  0  0  0  # atno 7974 bound_to 7965
  154.5826  140.0672  156.9126 H   0  0  0  0  0  0  0  0  0  0  0  0  # atno 8008 bound_to 7997
  155.2435  140.3346  155.4271 H   0  0  0  0  0  0  0  0  0  0  0  0  # atno 8009 bound_to 7997
  156.2200  140.1795  156.7484 H   0  0  0  0  0  0  0  0  0  0  0  0  # atno 8010 bound_to 7997
  140.4495  143.2488  151.8509 H   0  0  0  0  0  0  0  0  0  0  0  0  # atno 10167 bound_to 10162
  157.5444  130.8720  149.8869 H   0  0  0  0  0  0  0  0  0  0  0  0  # atno 10718 bound_to 10713
  154.1003  135.2846  155.3253 H   0  0  0  0  0  0  0  0  0  0  0  0  # atno 10763 bound_to 10752
  154.6560  135.5352  153.7962 H   0  0  0  0  0  0  0  0  0  0  0  0  # atno 10764 bound_to 10752
  153.0381  135.6522  154.1167 H   0  0  0  0  0  0  0  0  0  0  0  0  # atno 10765 bound_to 10752
  141.1654  133.6984  156.7672 H   0  0  0  0  0  0  0  0  0  0  0  0  # atno 11005 bound_to 11000
  145.7619  140.9932  143.1195 LP  0  0  0  0  0  0  0  0  0  0  0  0  # atno 17320 bound_to 7965
  144.6891  139.9340  143.7473 LP  0  0  0  0  0  0  0  0  0  0  0  0  # atno 17321 bound_to 7965
  139.4795  144.5136  151.8898 LP  0  0  0  0  0  0  0  0  0  0  0  0  # atno 17342 bound_to 10162
  140.4224  144.2225  150.5887 LP  0  0  0  0  0  0  0  0  0  0  0  0  # atno 17343 bound_to 10162
  156.0523  130.3715  150.1172 LP  0  0  0  0  0  0  0  0  0  0  0  0  # atno 17370 bound_to 10713
  156.9350  130.9726  151.3526 LP  0  0  0  0  0  0  0  0  0  0  0  0  # atno 17371 bound_to 10713
  140.2490  134.8555  157.3649 LP  0  0  0  0  0  0  0  0  0  0  0  0  # atno 17394 bound_to 11000
  140.1721  134.4595  155.7825 LP  0  0  0  0  0  0  0  0  0  0  0  0  # atno 17395 bound_to 11000

$$$$
