AV-unprocessed.smi:3337|AV-procd|sdf|12861|dock4
  -GOLD-   2272019253D 1   1.00000     0.00000
 Structure written by MMmdl.
 46 47  0  0  0  0  0  0  0  0  2 V2000
  146.4604  129.5256  152.2859 C   0  0  0  0  0  0  0  0  0  0  0  0
  145.9809  130.9833  152.3302 C   0  0  2  0  0  0  0  0  0  0  0  0
  145.5548  131.4746  150.9351 C   0  0  0  0  0  0  0  0  0  0  0  0
  145.1310  132.9544  150.9576 C   0  0  1  0  0  0  0  0  0  0  0  0
  143.7528  133.1743  151.6057 C   0  0  0  0  0  0  0  0  0  0  0  0
  146.2271  133.8211  151.6088 C   0  0  0  0  0  0  0  0  0  0  0  0
  146.5936  133.3254  152.9614 N   0  3  2  0  0  0  0  0  0  0  0  0
  147.5459  134.2334  153.6489 C   0  0  0  0  0  0  0  0  0  0  0  0
  146.8349  135.3764  154.4002 C   0  0  0  0  0  0  0  0  0  0  0  0
  147.0717  136.6651  153.7606 N   0  0  0  0  0  0  0  0  0  0  0  0
  146.3521  137.7764  153.9835 C   0  0  0  0  0  0  0  0  0  0  0  0
  145.4057  137.8137  154.7707 O   0  0  0  0  0  0  0  0  0  0  0  0
  146.7664  139.0300  153.1984 C   0  0  2  0  0  0  0  0  0  0  0  0
  146.9100  138.7522  151.6884 C   0  0  0  0  0  0  0  0  0  0  0  0
  147.9753  139.6071  153.7732 N   0  0  0  0  0  0  0  0  0  0  0  0
  149.2048  139.0967  153.8743 C   0  0  0  0  0  0  0  0  0  0  0  0
  150.0880  139.9214  154.4191 N   0  0  0  0  0  0  0  0  0  0  0  0
  149.2846  141.0044  154.6368 C   0  0  0  0  0  0  0  0  0  0  0  0
  148.0137  140.8739  154.2570 N   0  0  0  0  0  0  0  0  0  0  0  0
  147.0601  131.9137  152.9169 C   0  0  0  0  0  0  0  0  0  0  0  0
  147.3372  129.4149  151.6469 H   0  0  0  0  0  0  0  0  0  0  0  0
  145.6816  128.8681  151.8988 H   0  0  0  0  0  0  0  0  0  0  0  0
  146.7270  129.1684  153.2810 H   0  0  0  0  0  0  0  0  0  0  0  0
  145.1116  131.0158  152.9881 H   0  0  0  0  0  0  0  0  0  0  0  0
  146.3895  131.3551  150.2427 H   0  0  0  0  0  0  0  0  0  0  0  0
  144.7459  130.8562  150.5439 H   0  0  0  0  0  0  0  0  0  0  0  0
  145.0342  133.2775  149.9202 H   0  0  0  0  0  0  0  0  0  0  0  0
  143.7510  132.9116  152.6635 H   0  0  0  0  0  0  0  0  0  0  0  0
  142.9883  132.5730  151.1130 H   0  0  0  0  0  0  0  0  0  0  0  0
  143.4476  134.2179  151.5268 H   0  0  0  0  0  0  0  0  0  0  0  0
  147.1187  133.8262  150.9793 H   0  0  0  0  0  0  0  0  0  0  0  0
  145.8830  134.8547  151.6688 H   0  0  0  0  0  0  0  0  0  0  0  0
  148.1807  133.6527  154.3197 H   0  0  0  0  0  0  0  0  0  0  0  0
  148.2120  134.6835  152.9110 H   0  0  0  0  0  0  0  0  0  0  0  0
  145.7593  135.1983  154.4143 H   0  0  0  0  0  0  0  0  0  0  0  0
  147.1532  135.4338  155.4413 H   0  0  0  0  0  0  0  0  0  0  0  0
  147.8312  136.7157  153.0969 H   0  0  0  0  0  0  0  0  0  0  0  0
  145.9740  139.7718  153.3134 H   0  0  0  0  0  0  0  0  0  0  0  0
  145.9780  138.3712  151.2697 H   0  0  0  0  0  0  0  0  0  0  0  0
  147.6901  138.0199  151.4756 H   0  0  0  0  0  0  0  0  0  0  0  0
  147.1599  139.6662  151.1486 H   0  0  0  0  0  0  0  0  0  0  0  0
  149.4605  138.1019  153.5398 H   0  0  0  0  0  0  0  0  0  0  0  0
  149.6485  141.9186  155.0823 H   0  0  0  0  0  0  0  0  0  0  0  0
  147.3136  131.5701  153.9190 H   0  0  0  0  0  0  0  0  0  0  0  0
  147.9750  131.8525  152.3247 H   0  0  0  0  0  0  0  0  0  0  0  0
  145.7423  133.3388  153.5047 H   0  0  0  0  0  0  0  0  0  0  0  0
  1  2  1  0  0  0  0
  1 21  1  0  0  0  0
  1 22  1  0  0  0  0
  1 23  1  0  0  0  0
  2 20  1  0  0  0  0
  2  3  1  0  0  0  0
  2 24  1  0  0  0  0
  3  4  1  0  0  0  0
  3 25  1  0  0  0  0
  3 26  1  0  0  0  0
  4  5  1  0  0  0  0
  4  6  1  0  0  0  0
  4 27  1  0  0  0  0
  5 28  1  0  0  0  0
  5 29  1  0  0  0  0
  5 30  1  0  0  0  0
  6  7  1  0  0  0  0
  6 31  1  0  0  0  0
  6 32  1  0  0  0  0
  7  8  1  0  0  0  0
  7 20  1  0  0  0  0
  7 46  1  0  0  0  0
  8  9  1  0  0  0  0
  8 33  1  0  0  0  0
  8 34  1  0  0  0  0
  9 10  1  0  0  0  0
  9 35  1  0  0  0  0
  9 36  1  0  0  0  0
 10 11  1  0  0  0  0
 10 37  1  0  0  0  0
 11 12  2  0  0  0  0
 11 13  1  0  0  0  0
 13 14  1  0  0  0  0
 13 15  1  0  0  0  0
 13 38  1  0  0  0  0
 14 39  1  0  0  0  0
 14 40  1  0  0  0  0
 14 41  1  0  0  0  0
 15 19  1  0  0  0  0
 15 16  1  0  0  0  0
 16 17  2  0  0  0  0
 16 42  1  0  0  0  0
 17 18  1  0  0  0  0
 18 19  2  0  0  0  0
 18 43  1  0  0  0  0
 20 44  1  0  0  0  0
 20 45  1  0  0  0  0
M  CHG  1   7   1
M  END
> <s_m_source_file>
AV-unprocessed.smi

> <i_m_source_file_index>
3337

> <i_lp_mmshare_version>
43012

> <i_f3d_flags>
0

> <s_epik_input>
W0NIM11bQ0BASF0xW0NIMl1bQ0BASF0oW0NIM10pW0NIMl1OKFtDSDJdMSlbQ0gyXVtDSDJdW05IXUMoPU8pW0NASF0oW0NIM10pbjJbY0hdbltjSF1uMg==

> <s_epik_cmdline>
J2VwaWtfcHl0aG9uJywgJy1waCcsICc3LjAnLCAnLXRuJywgJzgnLCAnLW1hJywgJzIwMCcsICctbWV0YWxfYmluZGluZycsICctaW1hZScsICc8aW5maWxlLm1hZT4nLCAnLW9tYWUnLCAnPG91dGZpbGUubWFlPic=

> <r_lp_tautomer_probability>
1

> <r_epik_Ionization_Penalty>
0.00175613

> <r_epik_Ionization_Penalty_Charging>
0.00174812

> <r_epik_Ionization_Penalty_Neutral>
8.01354e-06

> <r_epik_State_Penalty>
0.00118332

> <r_epik_Charging_Adjusted_Penalty>
0.00293143

> <i_epik_Tot_Q>
1

> <i_epik_Tot_abs_Q>
1

> <r_epik_Metal_State_Penalty>
-0

> <b_epik_Metal_Only>
0

> <s_lp_Force_Field>
OPLS_2005

> <r_lp_Energy>
24.9418

> <b_lp_Chiralities_Consistent>
1

> <s_lp_Variant>
AV-unprocessed.smi:3337-1

> <Gold.Version>
5.8.1

> <Gold.Id.Protein>
6NUR|6NUR_protein|mol2

> <Gold.PLP.Fitness>
38.1802

> <Gold.PLP.PLP>
-30.8566

> <Gold.PLP.part.hbond>
-2.0000

> <Gold.PLP.part.metal>
0.0000

> <Gold.PLP.part.buried>
1.0257

> <Gold.PLP.part.nonpolar>
-30.3611

> <Gold.PLP.part.repulsive>
0.3137

> <Gold.PLP.ligand.clash>
0.0000

> <Gold.PLP.ligand.torsion>
1.1531

> <Gold.PLP.Chemscore.Hbond>
2.0000

> <Gold.PLP.Chemscore.CHOScore>
1.1673

> <Gold.PLP.Chemscore.Metal>
0.0000

> <Gold.Chemscore.Hbonds>
donor molecule, donor type, donor heavy atom, donor atom, acceptor molecule, acceptor atom, score
      L1  H    10    37       P1  7948  1.00
      P1  H  7989  7998       L1    17  0.90
      L1  C    16    42       P1  7948  1.00

> <Gold.PLP.Chemscore.Internal.Correction>
0.1280

> <Gold.Rescore>
     Score         DG    S(hbond)    S(metal)    S(lipo)     H(rot)  DE(clash)    DE(int)     intcor
     10.62     -11.66       1.00        0.00      79.25       2.51       0.03       1.02       ----

> <Gold.Chemscore.Fitness>
10.6173

> <Gold.Chemscore.DG>
-11.6604

> <Gold.Chemscore.ZeroCoef>
-5.4800

> <Gold.Chemscore.Hbond>
1.0004

> <Gold.Chemscore.Metal>
0.0000

> <Gold.Chemscore.Lipo>
79.2498

> <Gold.Chemscore.Internal_Hbond>
0.0000

> <Gold.Chemscore.DEClash>
0.0255

> <Gold.Chemscore.DEInternal>
1.0176

> <Gold.Chemscore.Rot>
2.5129

> <Gold.Chemscore.Internal.Correction>
   9.000000E+99

> <Gold.Chemscore.Hbonds>
donor molecule, donor type, donor heavy atom, donor atom, acceptor molecule, acceptor atom, score
      L1  H    10    37       P1  7948  1.00
      P1  H  7989  7998       L1    17  0.16

> <Gold.Chemscore.Hbond.Weighted>
-3.3412

> <Gold.Chemscore.Metal.Weighted>
-0.0000

> <Gold.Chemscore.Lipo.Weighted>
-9.2722

> <Gold.Chemscore.Internal_Hbond.Weighted>
0.0000

> <Gold.Chemscore.DEClash.Weighted>
0.0255

> <Gold.Chemscore.DEInternal.Weighted>
1.0176

> <Gold.Chemscore.Rot.Weighted>
6.4331

> <Gold.Chemscore.Internal.Correction.Weighted>
   9.000000E+99

> <Gold.Protein.RotatedTorsions>
[ 6907 6896 6895 6894 ] final   47.52 input  -60.11 | X-H torsion
[ 7974 7965 7964 7962 ] final  -98.52 input  175.53 | X-H torsion
[ 8008 7997 7996 7995 ] final  159.77 input   59.86 | X-H torsion
[ 10167 10162 10161 10158 ] final   97.46 input  -65.29 | X-H torsion
[ 10718 10713 10712 10709 ] final   59.83 input   66.30 | X-H torsion
[ 10763 10752 10751 10750 ] final    3.42 input  -60.55 | X-H torsion
[ 11005 11000 10999 10996 ] final   81.45 input  -57.11 | X-H torsion

> <Gold.Protein.ActiveResidues>
 VAL166  LYS551  ARG553  GLY616  TRP617  ASP618  TYR619  PRO620  LYS621  CYS622 
 ASP623  PHE694  ASN695  SER759  ASP760  ASP761  ALA762  ILE779  LEU786  VAL792 
 PHE793  MET794  SER795  GLU796  ALA797  LYS798  CYS799  TRP800  GLU811  SER814 

> <Gold.Protein.RotatedAtoms>
  152.2690  134.7953  160.0417 H   0  0  0  0  0  0  0  0  0  0  0  0  # atno 6907 bound_to 6896
  151.8573  133.3445  159.3700 H   0  0  0  0  0  0  0  0  0  0  0  0  # atno 6908 bound_to 6896
  150.7144  134.5168  159.5678 H   0  0  0  0  0  0  0  0  0  0  0  0  # atno 6909 bound_to 6896
  145.3195  140.9418  143.2724 H   0  0  0  0  0  0  0  0  0  0  0  0  # atno 7974 bound_to 7965
  156.2217  140.1822  156.7461 H   0  0  0  0  0  0  0  0  0  0  0  0  # atno 8008 bound_to 7997
  154.5876  140.0656  156.9222 H   0  0  0  0  0  0  0  0  0  0  0  0  # atno 8009 bound_to 7997
  155.2393  140.3320  155.4296 H   0  0  0  0  0  0  0  0  0  0  0  0  # atno 8010 bound_to 7997
  139.7799  144.6892  151.0037 H   0  0  0  0  0  0  0  0  0  0  0  0  # atno 10167 bound_to 10162
  157.5706  130.8904  149.9260 H   0  0  0  0  0  0  0  0  0  0  0  0  # atno 10718 bound_to 10713
  153.2835  135.6942  153.7362 H   0  0  0  0  0  0  0  0  0  0  0  0  # atno 10763 bound_to 10752
  153.6340  135.3405  155.3051 H   0  0  0  0  0  0  0  0  0  0  0  0  # atno 10764 bound_to 10752
  154.8502  135.4415  154.1896 H   0  0  0  0  0  0  0  0  0  0  0  0  # atno 10765 bound_to 10752
  139.9098  134.7997  156.2043 H   0  0  0  0  0  0  0  0  0  0  0  0  # atno 11005 bound_to 11000
  144.8951  139.4723  143.6659 LP  0  0  0  0  0  0  0  0  0  0  0  0  # atno 17320 bound_to 7965
  146.3088  139.7672  142.9036 LP  0  0  0  0  0  0  0  0  0  0  0  0  # atno 17321 bound_to 7965
  140.7818  143.4495  151.0434 LP  0  0  0  0  0  0  0  0  0  0  0  0  # atno 17342 bound_to 10162
  139.8176  143.7865  152.3175 LP  0  0  0  0  0  0  0  0  0  0  0  0  # atno 17343 bound_to 10162
  156.0752  130.3680  150.0693 LP  0  0  0  0  0  0  0  0  0  0  0  0  # atno 17370 bound_to 10713
  156.8846  130.9568  151.3595 LP  0  0  0  0  0  0  0  0  0  0  0  0  # atno 17371 bound_to 10713
  141.0505  133.6891  156.1763 LP  0  0  0  0  0  0  0  0  0  0  0  0  # atno 17394 bound_to 11000
  140.6817  134.4760  157.5589 LP  0  0  0  0  0  0  0  0  0  0  0  0  # atno 17395 bound_to 11000

$$$$
