AV-unprocessed.smi:1230|AV-procd|sdf|5152|dock6
  -GOLD-   22720 4223D 1   1.00000     0.00000
 Structure written by MMmdl.
 38 39  0  0  0  0  0  0  0  0  2 V2000
  152.1107  144.9667  158.7031 C   0  0  0  0  0  0  0  0  0  0  0  0
  151.9591  143.9035  159.8034 C   0  0  2  0  0  0  0  0  0  0  0  0
  152.4764  144.4405  161.1533 C   0  0  0  0  0  0  0  0  0  0  0  0
  152.3439  143.3957  162.2716 C   0  0  0  0  0  0  0  0  0  0  0  0
  153.0663  142.0942  161.8977 C   0  0  0  0  0  0  0  0  0  0  0  0
  152.5500  141.5445  160.5604 C   0  0  0  0  0  0  0  0  0  0  0  0
  152.6766  142.5871  159.4291 C   0  0  1  0  0  0  0  0  0  0  0  0
  152.0597  142.0656  158.2608 O   0  0  0  0  0  0  0  0  0  0  0  0
  150.6432  141.9914  158.3289 C   0  0  0  0  0  0  0  0  0  0  0  0
  150.1348  141.1755  157.1315 C   0  0  0  0  0  0  0  0  0  0  0  0
  150.8747  139.9125  157.0014 N   0  0  0  0  0  0  0  0  0  0  0  0
  151.1771  139.2139  158.1826 C   0  0  0  0  0  0  0  0  0  0  0  0
  151.8776  138.0644  158.1639 C   0  0  0  0  0  0  0  0  0  0  0  0
  152.2067  137.3427  159.3488 C   0  0  0  0  0  0  0  0  0  0  0  0
  152.4890  136.7350  160.2932 N   0  0  0  0  0  0  0  0  0  0  0  0
  152.3264  137.5390  156.8768 C   0  0  0  0  0  0  0  0  0  0  0  0
  152.9624  136.4869  156.8290 O   0  0  0  0  0  0  0  0  0  0  0  0
  152.0105  138.2617  155.7619 N   0  5  0  0  0  0  0  0  0  0  0  0
  151.3044  139.4351  155.7948 C   0  0  0  0  0  0  0  0  0  0  0  0
  151.0469  140.0761  154.7756 O   0  0  0  0  0  0  0  0  0  0  0  0
  153.1587  145.2167  158.5356 H   0  0  0  0  0  0  0  0  0  0  0  0
  151.5883  145.8853  158.9708 H   0  0  0  0  0  0  0  0  0  0  0  0
  151.6960  144.6202  157.7563 H   0  0  0  0  0  0  0  0  0  0  0  0
  150.8949  143.6895  159.9143 H   0  0  0  0  0  0  0  0  0  0  0  0
  153.5225  144.7349  161.0561 H   0  0  0  0  0  0  0  0  0  0  0  0
  151.9280  145.3413  161.4311 H   0  0  0  0  0  0  0  0  0  0  0  0
  152.7502  143.7922  163.2024 H   0  0  0  0  0  0  0  0  0  0  0  0
  151.2892  143.1887  162.4568 H   0  0  0  0  0  0  0  0  0  0  0  0
  154.1398  142.2756  161.8297 H   0  0  0  0  0  0  0  0  0  0  0  0
  152.9259  141.3515  162.6836 H   0  0  0  0  0  0  0  0  0  0  0  0
  153.0959  140.6353  160.3095 H   0  0  0  0  0  0  0  0  0  0  0  0
  151.5050  141.2512  160.6691 H   0  0  0  0  0  0  0  0  0  0  0  0
  153.7297  142.8049  159.2387 H   0  0  0  0  0  0  0  0  0  0  0  0
  150.3578  141.5088  159.2642 H   0  0  0  0  0  0  0  0  0  0  0  0
  150.1853  142.9811  158.3273 H   0  0  0  0  0  0  0  0  0  0  0  0
  149.0662  140.9844  157.2399 H   0  0  0  0  0  0  0  0  0  0  0  0
  150.2273  141.7641  156.2176 H   0  0  0  0  0  0  0  0  0  0  0  0
  150.8186  139.6726  159.0926 H   0  0  0  0  0  0  0  0  0  0  0  0
  1  2  1  0  0  0  0
  1 21  1  0  0  0  0
  1 22  1  0  0  0  0
  1 23  1  0  0  0  0
  2  7  1  0  0  0  0
  2  3  1  0  0  0  0
  2 24  1  0  0  0  0
  3  4  1  0  0  0  0
  3 25  1  0  0  0  0
  3 26  1  0  0  0  0
  4  5  1  0  0  0  0
  4 27  1  0  0  0  0
  4 28  1  0  0  0  0
  5  6  1  0  0  0  0
  5 29  1  0  0  0  0
  5 30  1  0  0  0  0
  6  7  1  0  0  0  0
  6 31  1  0  0  0  0
  6 32  1  0  0  0  0
  7  8  1  0  0  0  0
  7 33  1  0  0  0  0
  8  9  1  0  0  0  0
  9 10  1  0  0  0  0
  9 34  1  0  0  0  0
  9 35  1  0  0  0  0
 10 11  1  0  0  0  0
 10 36  1  0  0  0  0
 10 37  1  0  0  0  0
 11 19  1  0  0  0  0
 11 12  1  0  0  0  0
 12 13  2  0  0  0  0
 12 38  1  0  0  0  0
 13 14  1  0  0  0  0
 13 16  1  0  0  0  0
 14 15  3  0  0  0  0
 16 17  2  0  0  0  0
 16 18  1  0  0  0  0
 18 19  1  0  0  0  0
 19 20  2  0  0  0  0
M  CHG  1  18  -1
M  END
> <s_m_source_file>
AV-unprocessed.smi

> <i_m_source_file_index>
1230

> <i_lp_mmshare_version>
43012

> <i_f3d_flags>
0

> <s_epik_input>
W0NIM11bQ0BASF0xW0NIMl1bQ0gyXVtDSDJdW0NIMl1bQ0BIXTFPW0NIMl1bQ0gyXW4yW2NIXWMoQyNOKWMoPU8pW25IXWMyPU8=

> <s_epik_cmdline>
J2VwaWtfcHl0aG9uJywgJy1waCcsICc3LjAnLCAnLXRuJywgJzgnLCAnLW1hJywgJzIwMCcsICctbWV0YWxfYmluZGluZycsICctaW1hZScsICc8aW5maWxlLm1hZT4nLCAnLW9tYWUnLCAnPG91dGZpbGUubWFlPic=

> <r_epik_Ionization_Penalty>
0.400014

> <r_epik_Ionization_Penalty_Charging>
4.81474e-10

> <r_epik_Ionization_Penalty_Neutral>
0.400014

> <r_epik_State_Penalty>
0.399305

> <r_epik_Charging_Adjusted_Penalty>
0.399305

> <i_epik_Tot_Q>
-1

> <i_epik_Tot_abs_Q>
1

> <r_epik_Metal_State_Penalty>
0.00056968

> <b_epik_Metal_Only>
0

> <s_lp_Force_Field>
OPLS_2005

> <r_lp_Energy>
24.1099

> <b_lp_Chiralities_Consistent>
1

> <s_lp_Variant>
AV-unprocessed.smi:1230-1

> <Gold.Version>
5.8.1

> <Gold.Id.Protein>
6NUR|6NUR_protein|mol2

> <Gold.PLP.Fitness>
48.6365

> <Gold.PLP.PLP>
-40.6944

> <Gold.PLP.part.hbond>
-2.8565

> <Gold.PLP.part.metal>
0.0000

> <Gold.PLP.part.buried>
-5.5009

> <Gold.PLP.part.nonpolar>
-32.8485

> <Gold.PLP.part.repulsive>
0.0732

> <Gold.PLP.ligand.clash>
0.0036

> <Gold.PLP.ligand.torsion>
0.3624

> <Gold.PLP.Chemscore.Hbond>
2.8865

> <Gold.PLP.Chemscore.CHOScore>
0.0000

> <Gold.PLP.Chemscore.Metal>
0.0000

> <Gold.Chemscore.Hbonds>
donor molecule, donor type, donor heavy atom, donor atom, acceptor molecule, acceptor atom, score
      P1  H  6896  6909       L1    15  1.00
      P1  H  7989  7998       L1    20  1.00
      P1  H 10752 10764       L1    17  0.96

> <Gold.PLP.Chemscore.Internal.Correction>
0.0111

> <Gold.Rescore>
     Score         DG    S(hbond)    S(metal)    S(lipo)     H(rot)  DE(clash)    DE(int)     intcor
     20.26     -21.42       2.77        0.00      98.80       1.90       0.09       1.06       ----

> <Gold.Chemscore.Fitness>
20.2645

> <Gold.Chemscore.DG>
-21.4178

> <Gold.Chemscore.ZeroCoef>
-5.4800

> <Gold.Chemscore.Hbond>
2.7659

> <Gold.Chemscore.Metal>
0.0000

> <Gold.Chemscore.Lipo>
98.7979

> <Gold.Chemscore.Internal_Hbond>
0.0000

> <Gold.Chemscore.DEClash>
0.0928

> <Gold.Chemscore.DEInternal>
1.0605

> <Gold.Chemscore.Rot>
1.8984

> <Gold.Chemscore.Internal.Correction>
   9.000000E+99

> <Gold.Chemscore.Hbonds>
donor molecule, donor type, donor heavy atom, donor atom, acceptor molecule, acceptor atom, score
      P1  H  6896  6909       L1    15  0.74
      P1  H  7989  7998       L1    20  0.99
      P1  H 10752 10764       L1    17  0.89

> <Gold.Chemscore.Hbond.Weighted>
-9.2383

> <Gold.Chemscore.Metal.Weighted>
-0.0000

> <Gold.Chemscore.Lipo.Weighted>
-11.5594

> <Gold.Chemscore.Internal_Hbond.Weighted>
0.0000

> <Gold.Chemscore.DEClash.Weighted>
0.0928

> <Gold.Chemscore.DEInternal.Weighted>
1.0605

> <Gold.Chemscore.Rot.Weighted>
4.8598

> <Gold.Chemscore.Internal.Correction.Weighted>
   9.000000E+99

> <Gold.Protein.RotatedTorsions>
[ 6907 6896 6895 6894 ] final  152.10 input  -60.11 | X-H torsion
[ 7974 7965 7964 7962 ] final   75.03 input  175.53 | X-H torsion
[ 8008 7997 7996 7995 ] final -152.04 input   59.86 | X-H torsion
[ 10167 10162 10161 10158 ] final   -7.30 input  -65.29 | X-H torsion
[ 10718 10713 10712 10709 ] final  -81.84 input   66.30 | X-H torsion
[ 10763 10752 10751 10750 ] final   11.89 input  -60.55 | X-H torsion
[ 11005 11000 10999 10996 ] final -140.17 input  -57.11 | X-H torsion

> <Gold.Protein.ActiveResidues>
 VAL166  LYS551  ARG553  GLY616  TRP617  ASP618  TYR619  PRO620  LYS621  CYS622 
 ASP623  PHE694  ASN695  SER759  ASP760  ASP761  ALA762  ILE779  LEU786  VAL792 
 PHE793  MET794  SER795  GLU796  ALA797  LYS798  CYS799  TRP800  GLU811  SER814 

> <Gold.Protein.RotatedAtoms>
  152.0915  133.4203  159.4545 H   0  0  0  0  0  0  0  0  0  0  0  0  # atno 6907 bound_to 6896
  150.6862  134.2866  159.4658 H   0  0  0  0  0  0  0  0  0  0  0  0  # atno 6908 bound_to 6896
  152.0718  134.9528  160.0625 H   0  0  0  0  0  0  0  0  0  0  0  0  # atno 6909 bound_to 6896
  145.7208  139.2647  143.1597 H   0  0  0  0  0  0  0  0  0  0  0  0  # atno 7974 bound_to 7965
  155.6488  140.0710  157.2594 H   0  0  0  0  0  0  0  0  0  0  0  0  # atno 8008 bound_to 7997
  154.4167  140.1737  156.1702 H   0  0  0  0  0  0  0  0  0  0  0  0  # atno 8009 bound_to 7997
  155.9794  140.3355  155.6652 H   0  0  0  0  0  0  0  0  0  0  0  0  # atno 8010 bound_to 7997
  140.7024  143.6096  150.8716 H   0  0  0  0  0  0  0  0  0  0  0  0  # atno 10167 bound_to 10162
  156.0043  130.4616  150.4014 H   0  0  0  0  0  0  0  0  0  0  0  0  # atno 10718 bound_to 10713
  153.1879  135.6838  153.8391 H   0  0  0  0  0  0  0  0  0  0  0  0  # atno 10763 bound_to 10752
  153.7700  135.3197  155.3351 H   0  0  0  0  0  0  0  0  0  0  0  0  # atno 10764 bound_to 10752
  154.8100  135.4724  154.0588 H   0  0  0  0  0  0  0  0  0  0  0  0  # atno 10765 bound_to 10752
  140.8449  134.2357  157.4791 H   0  0  0  0  0  0  0  0  0  0  0  0  # atno 11005 bound_to 11000
  146.0628  140.7953  142.9726 LP  0  0  0  0  0  0  0  0  0  0  0  0  # atno 17320 bound_to 7965
  144.6917  140.3222  143.7230 LP  0  0  0  0  0  0  0  0  0  0  0  0  # atno 17321 bound_to 7965
  139.9820  143.5941  152.2940 LP  0  0  0  0  0  0  0  0  0  0  0  0  # atno 17342 bound_to 10162
  139.6565  144.7662  151.2045 LP  0  0  0  0  0  0  0  0  0  0  0  0  # atno 17343 bound_to 10162
  157.2083  131.0454  151.2613 LP  0  0  0  0  0  0  0  0  0  0  0  0  # atno 17370 bound_to 10713
  157.3912  130.7283  149.6699 LP  0  0  0  0  0  0  0  0  0  0  0  0  # atno 17371 bound_to 10713
  139.8703  134.9654  156.4527 LP  0  0  0  0  0  0  0  0  0  0  0  0  # atno 17394 bound_to 11000
  140.8855  133.7887  155.9513 LP  0  0  0  0  0  0  0  0  0  0  0  0  # atno 17395 bound_to 11000

$$$$
