AV-unprocessed.smi:2553|AV-procd|sdf|10017|dock3
  -GOLD-   2272014 63D 1   1.00000     0.00000
 Structure written by MMmdl.
 29 30  0  0  0  0  0  0  0  0  1 V2000
  147.0746  139.2644  153.0005 O   0  0  0  0  0  0  0  0  0  0  0  0
  148.1028  139.4919  153.6352 C   0  0  0  0  0  0  0  0  0  0  0  0
  149.1725  138.5933  153.5729 N   0  0  0  0  0  0  0  0  0  0  0  0
  150.3897  138.7318  154.2407 C   0  0  0  0  0  0  0  0  0  0  0  0
  151.2560  137.8649  154.1245 O   0  0  0  0  0  0  0  0  0  0  0  0
  150.5516  139.8900  155.0348 N   0  0  0  0  0  0  0  0  0  0  0  0
  151.7859  140.0449  155.7650 C   0  0  0  0  0  0  0  0  0  0  0  0
  151.5604  140.2457  157.2716 C   0  0  0  0  0  0  0  0  0  0  0  0
  152.8313  140.3216  157.9027 O   0  0  0  0  0  0  0  0  0  0  0  0
  152.9327  140.9704  159.1140 C   0  0  0  0  0  0  0  0  0  0  0  0
  152.1010  142.0501  159.5052 C   0  0  0  0  0  0  0  0  0  0  0  0
  152.2664  142.6574  160.7650 C   0  0  0  0  0  0  0  0  0  0  0  0
  153.2603  142.1956  161.6474 C   0  0  0  0  0  0  0  0  0  0  0  0
  153.4162  142.7795  162.8590 F   0  0  0  0  0  0  0  0  0  0  0  0
  154.0914  141.1261  161.2677 C   0  0  0  0  0  0  0  0  0  0  0  0
  153.9289  140.5176  160.0076 C   0  0  0  0  0  0  0  0  0  0  0  0
  154.9639  139.2082  159.5606 Cl  0  0  0  0  0  0  0  0  0  0  0  0
  149.5128  140.8026  155.1355 C   0  0  0  0  0  0  0  0  0  0  0  0
  148.3306  140.6563  154.4901 C   0  0  0  0  0  0  0  0  0  0  0  0
  147.0797  141.8331  154.6744 Cl  0  0  0  0  0  0  0  0  0  0  0  0
  149.0515  137.7709  152.9998 H   0  0  0  0  0  0  0  0  0  0  0  0
  152.4146  139.1787  155.5490 H   0  0  0  0  0  0  0  0  0  0  0  0
  152.2949  140.9057  155.3286 H   0  0  0  0  0  0  0  0  0  0  0  0
  150.9809  141.1522  157.4527 H   0  0  0  0  0  0  0  0  0  0  0  0
  150.9977  139.4004  157.6705 H   0  0  0  0  0  0  0  0  0  0  0  0
  151.3265  142.4308  158.8569 H   0  0  0  0  0  0  0  0  0  0  0  0
  151.6281  143.4790  161.0552 H   0  0  0  0  0  0  0  0  0  0  0  0
  154.8551  140.7722  161.9446 H   0  0  0  0  0  0  0  0  0  0  0  0
  149.6457  141.6708  155.7657 H   0  0  0  0  0  0  0  0  0  0  0  0
  1  2  2  0  0  0  0
  2 19  1  0  0  0  0
  2  3  1  0  0  0  0
  3 21  1  0  0  0  0
  3  4  1  0  0  0  0
  4  5  2  0  0  0  0
  4  6  1  0  0  0  0
  6  7  1  0  0  0  0
  6 18  1  0  0  0  0
  7  8  1  0  0  0  0
  7 22  1  0  0  0  0
  7 23  1  0  0  0  0
  8  9  1  0  0  0  0
  8 24  1  0  0  0  0
  8 25  1  0  0  0  0
  9 10  1  0  0  0  0
 10 16  1  0  0  0  0
 10 11  2  0  0  0  0
 11 12  1  0  0  0  0
 11 26  1  0  0  0  0
 12 13  2  0  0  0  0
 12 27  1  0  0  0  0
 13 14  1  0  0  0  0
 13 15  1  0  0  0  0
 15 16  2  0  0  0  0
 15 28  1  0  0  0  0
 16 17  1  0  0  0  0
 18 19  2  0  0  0  0
 18 29  1  0  0  0  0
 19 20  1  0  0  0  0
M  END
> <s_m_source_file>
AV-unprocessed.smi

> <i_m_source_file_index>
2553

> <i_lp_mmshare_version>
43012

> <i_f3d_flags>
0

> <s_epik_input>
Tz1jMVtuSF1jKD1PKW4oW2NIXWMxQ2wpW0NIMl1bQ0gyXU9jMltjSF1bY0hdYyhGKVtjSF1jMkNs

> <s_epik_cmdline>
J2VwaWtfcHl0aG9uJywgJy1waCcsICc3LjAnLCAnLXRuJywgJzgnLCAnLW1hJywgJzIwMCcsICctbWV0YWxfYmluZGluZycsICctaW1hZScsICc8aW5maWxlLm1hZT4nLCAnLW9tYWUnLCAnPG91dGZpbGUubWFlPic=

> <r_lp_tautomer_probability>
0.999537

> <r_epik_Ionization_Penalty>
0.0476949

> <r_epik_Ionization_Penalty_Charging>
0.0476949

> <r_epik_Ionization_Penalty_Neutral>
0

> <r_epik_State_Penalty>
0.0406325

> <r_epik_Charging_Adjusted_Penalty>
0.0883274

> <i_epik_Tot_Q>
0

> <i_epik_Tot_abs_Q>
0

> <r_epik_Metal_State_Penalty>
2.53375

> <b_epik_Metal_Only>
0

> <s_lp_Force_Field>
OPLS_2005

> <r_lp_Energy>
13.2328

> <b_lp_Chiralities_Consistent>
1

> <s_lp_Variant>
AV-unprocessed.smi:2553-1

> <Gold.Version>
5.8.1

> <Gold.Id.Protein>
6NUR|6NUR_protein|mol2

> <Gold.PLP.Fitness>
50.9288

> <Gold.PLP.PLP>
-46.0349

> <Gold.PLP.part.hbond>
-3.0000

> <Gold.PLP.part.metal>
0.0000

> <Gold.PLP.part.buried>
-2.4712

> <Gold.PLP.part.nonpolar>
-41.1773

> <Gold.PLP.part.repulsive>
1.2991

> <Gold.PLP.ligand.clash>
0.0000

> <Gold.PLP.ligand.torsion>
0.5390

> <Gold.PLP.Chemscore.Hbond>
1.9760

> <Gold.PLP.Chemscore.CHOScore>
0.0000

> <Gold.PLP.Chemscore.Metal>
0.0000

> <Gold.Chemscore.Hbonds>
donor molecule, donor type, donor heavy atom, donor atom, acceptor molecule, acceptor atom, score
      L1  H     3    21       P1  7948  1.00
      P1  H  7997  8009       L1     9  0.90

> <Gold.PLP.Chemscore.Internal.Correction>
0.0440

> <Gold.Rescore>
     Score         DG    S(hbond)    S(metal)    S(lipo)     H(rot)  DE(clash)    DE(int)     intcor
     16.91     -17.67       1.86        0.00      93.56       1.94       0.28       0.48       ----

> <Gold.Chemscore.Fitness>
16.9086

> <Gold.Chemscore.DG>
-17.6687

> <Gold.Chemscore.ZeroCoef>
-5.4800

> <Gold.Chemscore.Hbond>
1.8553

> <Gold.Chemscore.Metal>
0.0000

> <Gold.Chemscore.Lipo>
93.5634

> <Gold.Chemscore.Internal_Hbond>
0.0000

> <Gold.Chemscore.DEClash>
0.2806

> <Gold.Chemscore.DEInternal>
0.4795

> <Gold.Chemscore.Rot>
1.9355

> <Gold.Chemscore.Internal.Correction>
   9.000000E+99

> <Gold.Chemscore.Hbonds>
donor molecule, donor type, donor heavy atom, donor atom, acceptor molecule, acceptor atom, score
      L1  H     3    21       P1  7948  1.00
      P1  H  7997  8009       L1     9  0.76

> <Gold.Chemscore.Hbond.Weighted>
-6.1966

> <Gold.Chemscore.Metal.Weighted>
-0.0000

> <Gold.Chemscore.Lipo.Weighted>
-10.9469

> <Gold.Chemscore.Internal_Hbond.Weighted>
0.0000

> <Gold.Chemscore.DEClash.Weighted>
0.2806

> <Gold.Chemscore.DEInternal.Weighted>
0.4795

> <Gold.Chemscore.Rot.Weighted>
4.9548

> <Gold.Chemscore.Internal.Correction.Weighted>
   9.000000E+99

> <Gold.Protein.RotatedTorsions>
[ 6907 6896 6895 6894 ] final   41.12 input  -60.11 | X-H torsion
[ 7974 7965 7964 7962 ] final  -26.56 input  175.53 | X-H torsion
[ 8008 7997 7996 7995 ] final  158.31 input   59.86 | X-H torsion
[ 10167 10162 10161 10158 ] final   37.89 input  -65.29 | X-H torsion
[ 10718 10713 10712 10709 ] final  -11.19 input   66.30 | X-H torsion
[ 10763 10752 10751 10750 ] final  105.49 input  -60.55 | X-H torsion
[ 11005 11000 10999 10996 ] final -173.39 input  -57.11 | X-H torsion

> <Gold.Protein.ActiveResidues>
 VAL166  LYS551  ARG553  GLY616  TRP617  ASP618  TYR619  PRO620  LYS621  CYS622 
 ASP623  PHE694  ASN695  SER759  ASP760  ASP761  ALA762  ILE779  LEU786  VAL792 
 PHE793  MET794  SER795  GLU796  ALA797  LYS798  CYS799  TRP800  GLU811  SER814 

> <Gold.Protein.RotatedAtoms>
  152.1912  134.8670  160.0517 H   0  0  0  0  0  0  0  0  0  0  0  0  # atno 6907 bound_to 6896
  151.9558  133.3675  159.4025 H   0  0  0  0  0  0  0  0  0  0  0  0  # atno 6908 bound_to 6896
  150.6935  134.4216  159.5251 H   0  0  0  0  0  0  0  0  0  0  0  0  # atno 6909 bound_to 6896
  146.1417  140.5036  142.8649 H   0  0  0  0  0  0  0  0  0  0  0  0  # atno 7974 bound_to 7965
  156.2310  140.1861  156.7241 H   0  0  0  0  0  0  0  0  0  0  0  0  # atno 8008 bound_to 7997
  154.6023  140.0634  156.9413 H   0  0  0  0  0  0  0  0  0  0  0  0  # atno 8009 bound_to 7997
  155.2153  140.3303  155.4325 H   0  0  0  0  0  0  0  0  0  0  0  0  # atno 8010 bound_to 7997
  140.3989  144.1751  150.6133 H   0  0  0  0  0  0  0  0  0  0  0  0  # atno 10167 bound_to 10162
  156.6626  130.4986  149.6025 H   0  0  0  0  0  0  0  0  0  0  0  0  # atno 10718 bound_to 10713
  153.3800  135.3908  155.1850 H   0  0  0  0  0  0  0  0  0  0  0  0  # atno 10763 bound_to 10752
  154.8706  135.3723  154.4869 H   0  0  0  0  0  0  0  0  0  0  0  0  # atno 10764 bound_to 10752
  153.5345  135.7085  153.5728 H   0  0  0  0  0  0  0  0  0  0  0  0  # atno 10765 bound_to 10752
  140.4863  134.6027  157.4938 H   0  0  0  0  0  0  0  0  0  0  0  0  # atno 11005 bound_to 11000
  144.7800  140.5820  143.6612 LP  0  0  0  0  0  0  0  0  0  0  0  0  # atno 17320 bound_to 7965
  145.5031  139.1482  143.3646 LP  0  0  0  0  0  0  0  0  0  0  0  0  # atno 17321 bound_to 7965
  140.4761  143.2395  151.9021 LP  0  0  0  0  0  0  0  0  0  0  0  0  # atno 17342 bound_to 10162
  139.4785  144.5319  151.8655 LP  0  0  0  0  0  0  0  0  0  0  0  0  # atno 17343 bound_to 10162
  156.1999  130.6613  151.1156 LP  0  0  0  0  0  0  0  0  0  0  0  0  # atno 17370 bound_to 10713
  157.7104  131.0736  150.6519 LP  0  0  0  0  0  0  0  0  0  0  0  0  # atno 17371 bound_to 10713
  139.9796  134.7159  155.9885 LP  0  0  0  0  0  0  0  0  0  0  0  0  # atno 17394 bound_to 11000
  141.1506  133.6549  156.4002 LP  0  0  0  0  0  0  0  0  0  0  0  0  # atno 17395 bound_to 11000

$$$$
