AV-unprocessed.smi:2861|AV-procd|sdf|11007|dock3
  -GOLD-   2272015463D 1   1.00000     0.00000
 Structure written by MMmdl.
 33 35  0  0  0  0  0  0  0  0  1 V2000
  148.2750  139.1354  155.7764 O   0  0  0  0  0  0  0  0  0  0  0  0
  148.9511  139.4687  154.8021 C   0  0  0  0  0  0  0  0  0  0  0  0
  150.4652  139.6682  154.9361 C   0  0  0  0  0  0  0  0  0  0  0  0
  150.7912  140.6306  156.0430 C   0  0  0  0  0  0  0  0  0  0  0  0
  150.2672  141.8874  156.2265 C   0  0  0  0  0  0  0  0  0  0  0  0
  150.9254  142.6703  157.6371 S   0  0  0  0  0  0  0  0  0  0  0  0
  151.8992  141.2327  157.9400 C   0  0  0  0  0  0  0  0  0  0  0  0
  152.8000  141.1112  159.0401 N   0  0  0  0  0  0  0  0  0  0  0  0
  152.7641  142.0512  160.1540 C   0  0  0  0  0  0  0  0  0  0  0  0
  153.9990  141.7412  161.0070 C   0  0  0  0  0  0  0  0  0  0  0  0
  154.4878  140.3746  160.5311 C   0  0  0  0  0  0  0  0  0  0  0  0
  153.7377  140.1630  159.2266 C   0  0  0  0  0  0  0  0  0  0  0  0
  153.9975  139.2194  158.4804 O   0  0  0  0  0  0  0  0  0  0  0  0
  151.7136  140.2689  157.0302 N   0  0  0  0  0  0  0  0  0  0  0  0
  148.4317  139.6854  153.5842 N   0  0  0  0  0  0  0  0  0  0  0  0
  147.0529  139.5610  153.2364 C   0  0  0  0  0  0  0  0  0  0  0  0
  146.4302  138.1840  153.3168 C   0  0  0  0  0  0  0  0  0  0  0  0
  146.7121  138.7991  151.9739 C   0  0  0  0  0  0  0  0  0  0  0  0
  150.9517  138.7090  155.1194 H   0  0  0  0  0  0  0  0  0  0  0  0
  150.8492  140.0299  153.9814 H   0  0  0  0  0  0  0  0  0  0  0  0
  149.5413  142.4010  155.6141 H   0  0  0  0  0  0  0  0  0  0  0  0
  152.7753  143.0853  159.8065 H   0  0  0  0  0  0  0  0  0  0  0  0
  151.8487  141.8940  160.7264 H   0  0  0  0  0  0  0  0  0  0  0  0
  154.7723  142.4909  160.8340 H   0  0  0  0  0  0  0  0  0  0  0  0
  153.7677  141.7469  162.0727 H   0  0  0  0  0  0  0  0  0  0  0  0
  155.5674  140.3529  160.3792 H   0  0  0  0  0  0  0  0  0  0  0  0
  154.2167  139.5876  161.2356 H   0  0  0  0  0  0  0  0  0  0  0  0
  149.0618  139.9624  152.8452 H   0  0  0  0  0  0  0  0  0  0  0  0
  146.3969  140.3948  153.4837 H   0  0  0  0  0  0  0  0  0  0  0  0
  147.0623  137.3555  153.6312 H   0  0  0  0  0  0  0  0  0  0  0  0
  145.3907  138.1219  153.6326 H   0  0  0  0  0  0  0  0  0  0  0  0
  145.8613  139.1483  151.3924 H   0  0  0  0  0  0  0  0  0  0  0  0
  147.5326  138.3819  151.3931 H   0  0  0  0  0  0  0  0  0  0  0  0
  1  2  2  0  0  0  0
  2  3  1  0  0  0  0
  2 15  1  0  0  0  0
  3  4  1  0  0  0  0
  3 19  1  0  0  0  0
  3 20  1  0  0  0  0
  4 14  1  0  0  0  0
  4  5  2  0  0  0  0
  5  6  1  0  0  0  0
  5 21  1  0  0  0  0
  6  7  1  0  0  0  0
  7  8  1  0  0  0  0
  7 14  2  0  0  0  0
  8 12  1  0  0  0  0
  8  9  1  0  0  0  0
  9 10  1  0  0  0  0
  9 22  1  0  0  0  0
  9 23  1  0  0  0  0
 10 11  1  0  0  0  0
 10 24  1  0  0  0  0
 10 25  1  0  0  0  0
 11 12  1  0  0  0  0
 11 26  1  0  0  0  0
 11 27  1  0  0  0  0
 12 13  2  0  0  0  0
 15 16  1  0  0  0  0
 15 28  1  0  0  0  0
 16 18  1  0  0  0  0
 16 17  1  0  0  0  0
 16 29  1  0  0  0  0
 17 18  1  0  0  0  0
 17 30  1  0  0  0  0
 17 31  1  0  0  0  0
 18 32  1  0  0  0  0
 18 33  1  0  0  0  0
M  END
> <s_m_source_file>
AV-unprocessed.smi

> <i_m_source_file_index>
2861

> <i_lp_mmshare_version>
43012

> <i_f3d_flags>
0

> <s_epik_input>
W0NIMl0xW0NIMl1bQ0hdMVtOSF1DKD1PKVtDSDJdYzJbY0hdc2MobjIpTjNbQ0gyXVtDSDJdW0NIMl1DMz1P

> <s_epik_cmdline>
J2VwaWtfcHl0aG9uJywgJy1waCcsICc3LjAnLCAnLXRuJywgJzgnLCAnLW1hJywgJzIwMCcsICctbWV0YWxfYmluZGluZycsICctaW1hZScsICc8aW5maWxlLm1hZT4nLCAnLW9tYWUnLCAnPG91dGZpbGUubWFlPic=

> <r_lp_tautomer_probability>
1

> <r_epik_Ionization_Penalty>
2.96745e-05

> <r_epik_Ionization_Penalty_Charging>
0

> <r_epik_Ionization_Penalty_Neutral>
2.96745e-05

> <r_epik_State_Penalty>
-0

> <r_epik_Charging_Adjusted_Penalty>
0

> <i_epik_Tot_Q>
0

> <i_epik_Tot_abs_Q>
0

> <r_epik_Metal_State_Penalty>
-0

> <b_epik_Metal_Only>
0

> <s_lp_Force_Field>
OPLS_2005

> <r_lp_Energy>
30.3521

> <b_lp_Chiralities_Consistent>
1

> <s_lp_Variant>
AV-unprocessed.smi:2861-1

> <Gold.Version>
5.8.1

> <Gold.Id.Protein>
6NUR|6NUR_protein|mol2

> <Gold.PLP.Fitness>
45.6703

> <Gold.PLP.PLP>
-37.1800

> <Gold.PLP.part.hbond>
-2.0000

> <Gold.PLP.part.metal>
0.0000

> <Gold.PLP.part.buried>
0.5453

> <Gold.PLP.part.nonpolar>
-34.5058

> <Gold.PLP.part.repulsive>
0.1269

> <Gold.PLP.ligand.clash>
0.0000

> <Gold.PLP.ligand.torsion>
0.2651

> <Gold.PLP.Chemscore.Hbond>
1.9920

> <Gold.PLP.Chemscore.CHOScore>
1.0000

> <Gold.PLP.Chemscore.Metal>
0.0000

> <Gold.Chemscore.Hbonds>
donor molecule, donor type, donor heavy atom, donor atom, acceptor molecule, acceptor atom, score
      L1  H    15    28       P1  7957  1.00
      P1  H  7997  8008       L1    13  1.00
      L1  C     5    21       P1  8028  0.99

> <Gold.PLP.Chemscore.Internal.Correction>
0.0444

> <Gold.Rescore>
     Score         DG    S(hbond)    S(metal)    S(lipo)     H(rot)  DE(clash)    DE(int)     intcor
     15.66     -17.51       1.93        0.00      80.34       1.49       0.31       1.54       ----

> <Gold.Chemscore.Fitness>
15.6583

> <Gold.Chemscore.DG>
-17.5110

> <Gold.Chemscore.ZeroCoef>
-5.4800

> <Gold.Chemscore.Hbond>
1.9313

> <Gold.Chemscore.Metal>
0.0000

> <Gold.Chemscore.Lipo>
80.3415

> <Gold.Chemscore.Internal_Hbond>
0.0000

> <Gold.Chemscore.DEClash>
0.3146

> <Gold.Chemscore.DEInternal>
1.5381

> <Gold.Chemscore.Rot>
1.4920

> <Gold.Chemscore.Internal.Correction>
   9.000000E+99

> <Gold.Chemscore.Hbonds>
donor molecule, donor type, donor heavy atom, donor atom, acceptor molecule, acceptor atom, score
      L1  H    15    28       P1  7957  0.98
      P1  H  7997  8008       L1    13  0.30

> <Gold.Chemscore.Hbond.Weighted>
-6.4504

> <Gold.Chemscore.Metal.Weighted>
-0.0000

> <Gold.Chemscore.Lipo.Weighted>
-9.4000

> <Gold.Chemscore.Internal_Hbond.Weighted>
0.0000

> <Gold.Chemscore.DEClash.Weighted>
0.3146

> <Gold.Chemscore.DEInternal.Weighted>
1.5381

> <Gold.Chemscore.Rot.Weighted>
3.8194

> <Gold.Chemscore.Internal.Correction.Weighted>
   9.000000E+99

> <Gold.Protein.RotatedTorsions>
[ 6907 6896 6895 6894 ] final  137.59 input  -60.11 | X-H torsion
[ 7974 7965 7964 7962 ] final   56.19 input  175.53 | X-H torsion
[ 8008 7997 7996 7995 ] final -112.02 input   59.86 | X-H torsion
[ 10167 10162 10161 10158 ] final   15.79 input  -65.29 | X-H torsion
[ 10718 10713 10712 10709 ] final -122.43 input   66.30 | X-H torsion
[ 10763 10752 10751 10750 ] final  168.87 input  -60.55 | X-H torsion
[ 11005 11000 10999 10996 ] final -142.05 input  -57.11 | X-H torsion

> <Gold.Protein.ActiveResidues>
 VAL166  LYS551  ARG553  GLY616  TRP617  ASP618  TYR619  PRO620  LYS621  CYS622 
 ASP623  PHE694  ASN695  SER759  ASP760  ASP761  ALA762  ILE779  LEU786  VAL792 
 PHE793  MET794  SER795  GLU796  ALA797  LYS798  CYS799  TRP800  GLU811  SER814 

> <Gold.Protein.RotatedAtoms>
  152.2764  133.5429  159.5470 H   0  0  0  0  0  0  0  0  0  0  0  0  # atno 6907 bound_to 6896
  150.7178  134.0626  159.3845 H   0  0  0  0  0  0  0  0  0  0  0  0  # atno 6908 bound_to 6896
  151.8539  135.0548  160.0513 H   0  0  0  0  0  0  0  0  0  0  0  0  # atno 6909 bound_to 6896
  145.9424  139.3900  143.0355 H   0  0  0  0  0  0  0  0  0  0  0  0  # atno 7974 bound_to 7965
  154.9988  140.0394  157.2351 H   0  0  0  0  0  0  0  0  0  0  0  0  # atno 8008 bound_to 7997
  154.7562  140.2776  155.6228 H   0  0  0  0  0  0  0  0  0  0  0  0  # atno 8009 bound_to 7997
  156.2895  140.2637  156.2329 H   0  0  0  0  0  0  0  0  0  0  0  0  # atno 8010 bound_to 7997
  140.5842  143.8921  150.6816 H   0  0  0  0  0  0  0  0  0  0  0  0  # atno 10167 bound_to 10162
  156.1418  130.6471  150.9782 H   0  0  0  0  0  0  0  0  0  0  0  0  # atno 10718 bound_to 10713
  154.3749  135.2753  155.2245 H   0  0  0  0  0  0  0  0  0  0  0  0  # atno 10763 bound_to 10752
  154.4377  135.5962  153.6112 H   0  0  0  0  0  0  0  0  0  0  0  0  # atno 10764 bound_to 10752
  152.9837  135.6011  154.3984 H   0  0  0  0  0  0  0  0  0  0  0  0  # atno 10765 bound_to 10752
  140.8264  134.2570  157.4877 H   0  0  0  0  0  0  0  0  0  0  0  0  # atno 11005 bound_to 11000
  145.8282  140.9644  143.0863 LP  0  0  0  0  0  0  0  0  0  0  0  0  # atno 17320 bound_to 7965
  144.6781  140.0128  143.7484 LP  0  0  0  0  0  0  0  0  0  0  0  0  # atno 17321 bound_to 7965
  140.2428  143.3651  152.1472 LP  0  0  0  0  0  0  0  0  0  0  0  0  # atno 17342 bound_to 10162
  139.5188  144.7010  151.5492 LP  0  0  0  0  0  0  0  0  0  0  0  0  # atno 17343 bound_to 10162
  157.6582  131.0885  150.7899 LP  0  0  0  0  0  0  0  0  0  0  0  0  # atno 17370 bound_to 10713
  156.7974  130.4910  149.5375 LP  0  0  0  0  0  0  0  0  0  0  0  0  # atno 17371 bound_to 10713
  139.8706  134.9562  156.4232 LP  0  0  0  0  0  0  0  0  0  0  0  0  # atno 17394 bound_to 11000
  140.9045  133.7756  155.9719 LP  0  0  0  0  0  0  0  0  0  0  0  0  # atno 17395 bound_to 11000

$$$$
