AV-unprocessed.smi:203|AV-procd|sdf|1595|dock5
  -GOLD-   2262019493D 1   1.00000     0.00000
 Structure written by MMmdl.
 57 61  0  0  0  0  0  0  0  0  1 V2000
  152.2047  143.5624  158.1578 O   0  0  0  0  0  0  0  0  0  0  0  0
  151.3623  142.7155  157.8701 C   0  0  0  0  0  0  0  0  0  0  0  0
  151.3235  141.3273  158.4860 C   0  0  0  0  0  0  0  0  0  0  0  0
  150.2728  140.5828  157.6390 C   0  0  2  0  0  0  0  0  0  0  0  0
  150.8690  139.4581  156.7332 C   0  0  2  0  0  0  0  0  0  0  0  0
  151.9752  139.9798  155.7781 C   0  0  0  0  0  0  0  0  0  0  0  0
  152.5433  138.8591  154.8977 C   0  0  0  0  0  0  0  0  0  0  0  0
  151.4090  138.1789  154.1245 C   0  0  0  0  0  0  0  0  0  0  0  0
  150.3376  137.6640  155.0945 C   0  0  0  0  0  0  0  0  0  0  0  0
  149.8429  138.7345  155.9600 N   0  0  0  0  0  0  0  0  0  0  0  0
  148.7583  138.3151  156.6493 C   0  0  0  0  0  0  0  0  0  0  0  0
  147.5524  138.7959  156.2592 N   0  0  0  0  0  0  0  0  0  0  0  0
  146.4452  138.4278  156.9112 C   0  0  0  0  0  0  0  0  0  0  0  0
  146.3252  137.6046  157.9556 N   0  0  0  0  0  0  0  0  0  0  0  0
  147.5374  137.1135  158.3426 C   0  0  0  0  0  0  0  0  0  0  0  0
  148.7956  137.4121  157.7490 C   0  0  0  0  0  0  0  0  0  0  0  0
  149.8076  136.7267  158.4104 N   0  0  0  0  0  0  0  0  0  0  0  0
  149.1836  136.0638  159.3455 C   0  0  0  0  0  0  0  0  0  0  0  0
  147.8192  136.2411  159.3788 N   0  0  0  0  0  0  0  0  0  0  0  0
  146.8901  135.6298  160.3130 C   0  0  0  0  0  0  0  0  0  0  0  0
  146.9712  136.2600  161.7202 C   0  0  1  0  0  0  0  0  0  0  0  0
  146.8123  137.6595  161.5847 O   0  0  0  0  0  0  0  0  0  0  0  0
  145.8741  135.7517  162.6771 C   0  0  1  0  0  0  0  0  0  0  0  0
  144.4716  136.2941  162.3937 C   0  0  0  0  0  0  0  0  0  0  0  0
  143.5527  135.2431  162.9939 C   0  0  0  0  0  0  0  0  0  0  0  0
  144.4450  134.0062  163.1198 C   0  0  0  0  0  0  0  0  0  0  0  0
  145.6636  134.3608  162.4804 O   0  0  0  0  0  0  0  0  0  0  0  0
  149.5361  141.6930  156.8558 C   0  0  0  0  0  0  0  0  0  0  0  0
  150.3687  142.8713  156.9981 N   0  0  0  0  0  0  0  0  0  0  0  0
  152.3046  140.8523  158.4780 H   0  0  0  0  0  0  0  0  0  0  0  0
  151.0010  141.4123  159.5243 H   0  0  0  0  0  0  0  0  0  0  0  0
  149.5699  140.1354  158.3426 H   0  0  0  0  0  0  0  0  0  0  0  0
  151.3409  138.7288  157.3924 H   0  0  0  0  0  0  0  0  0  0  0  0
  151.5796  140.7644  155.1330 H   0  0  0  0  0  0  0  0  0  0  0  0
  152.7925  140.4310  156.3398 H   0  0  0  0  0  0  0  0  0  0  0  0
  153.2828  139.2620  154.2049 H   0  0  0  0  0  0  0  0  0  0  0  0
  153.0606  138.1265  155.5184 H   0  0  0  0  0  0  0  0  0  0  0  0
  150.9627  138.8868  153.4247 H   0  0  0  0  0  0  0  0  0  0  0  0
  151.8010  137.3547  153.5281 H   0  0  0  0  0  0  0  0  0  0  0  0
  149.5119  137.2326  154.5265 H   0  0  0  0  0  0  0  0  0  0  0  0
  150.7530  136.8636  155.7085 H   0  0  0  0  0  0  0  0  0  0  0  0
  145.5235  138.8550  156.5448 H   0  0  0  0  0  0  0  0  0  0  0  0
  149.7049  135.4253  160.0439 H   0  0  0  0  0  0  0  0  0  0  0  0
  145.8788  135.7152  159.9134 H   0  0  0  0  0  0  0  0  0  0  0  0
  147.1185  134.5647  160.3538 H   0  0  0  0  0  0  0  0  0  0  0  0
  147.9536  136.0569  162.1486 H   0  0  0  0  0  0  0  0  0  0  0  0
  145.8920  137.8490  161.4845 H   0  0  0  0  0  0  0  0  0  0  0  0
  146.1397  135.9445  163.7188 H   0  0  0  0  0  0  0  0  0  0  0  0
  144.3074  137.2863  162.8149 H   0  0  0  0  0  0  0  0  0  0  0  0
  144.3018  136.3515  161.3175 H   0  0  0  0  0  0  0  0  0  0  0  0
  143.1887  135.5508  163.9748 H   0  0  0  0  0  0  0  0  0  0  0  0
  142.6876  135.0625  162.3547 H   0  0  0  0  0  0  0  0  0  0  0  0
  144.6408  133.7791  164.1685 H   0  0  0  0  0  0  0  0  0  0  0  0
  144.0044  133.1238  162.6552 H   0  0  0  0  0  0  0  0  0  0  0  0
  149.3793  141.4494  155.8049 H   0  0  0  0  0  0  0  0  0  0  0  0
  148.5592  141.8949  157.2963 H   0  0  0  0  0  0  0  0  0  0  0  0
  150.2054  143.7180  156.4728 H   0  0  0  0  0  0  0  0  0  0  0  0
  1  2  2  0  0  0  0
  2 29  1  0  0  0  0
  2  3  1  0  0  0  0
  3  4  1  0  0  0  0
  3 30  1  0  0  0  0
  3 31  1  0  0  0  0
  4  5  1  0  0  0  0
  4 28  1  0  0  0  0
  4 32  1  0  0  0  0
  5 10  1  0  0  0  0
  5  6  1  0  0  0  0
  5 33  1  0  0  0  0
  6  7  1  0  0  0  0
  6 34  1  0  0  0  0
  6 35  1  0  0  0  0
  7  8  1  0  0  0  0
  7 36  1  0  0  0  0
  7 37  1  0  0  0  0
  8  9  1  0  0  0  0
  8 38  1  0  0  0  0
  8 39  1  0  0  0  0
  9 10  1  0  0  0  0
  9 40  1  0  0  0  0
  9 41  1  0  0  0  0
 10 11  1  0  0  0  0
 11 16  1  0  0  0  0
 11 12  2  0  0  0  0
 12 13  1  0  0  0  0
 13 14  2  0  0  0  0
 13 42  1  0  0  0  0
 14 15  1  0  0  0  0
 15 19  1  0  0  0  0
 15 16  2  0  0  0  0
 16 17  1  0  0  0  0
 17 18  2  0  0  0  0
 18 19  1  0  0  0  0
 18 43  1  0  0  0  0
 19 20  1  0  0  0  0
 20 21  1  0  0  0  0
 20 44  1  0  0  0  0
 20 45  1  0  0  0  0
 21 22  1  0  0  0  0
 21 23  1  0  0  0  0
 21 46  1  0  0  0  0
 22 47  1  0  0  0  0
 23 27  1  0  0  0  0
 23 24  1  0  0  0  0
 23 48  1  0  0  0  0
 24 25  1  0  0  0  0
 24 49  1  0  0  0  0
 24 50  1  0  0  0  0
 25 26  1  0  0  0  0
 25 51  1  0  0  0  0
 25 52  1  0  0  0  0
 26 27  1  0  0  0  0
 26 53  1  0  0  0  0
 26 54  1  0  0  0  0
 28 29  1  0  0  0  0
 28 55  1  0  0  0  0
 28 56  1  0  0  0  0
 29 57  1  0  0  0  0
M  END
> <s_m_source_file>
AV-unprocessed.smi

> <i_m_source_file_index>
203

> <i_lp_mmshare_version>
43012

> <i_f3d_flags>
0

> <s_epik_input>
Tz1DMVtDSDJdW0NASF0oW0NIMl1bTkhdMSlbQ0BASF0yW0NIMl1bQ0gyXVtDSDJdW0NIMl1OMmMobltjSF1uMyljKGMzNCluW2NIXW40W0NIMl1bQ0BIXShbT0hdKVtDQEBIXTVbQ0gyXVtDSDJdW0NIMl1PNQ==

> <s_epik_cmdline>
J2VwaWtfcHl0aG9uJywgJy1waCcsICc3LjAnLCAnLXRuJywgJzgnLCAnLW1hJywgJzIwMCcsICctbWV0YWxfYmluZGluZycsICctaW1hZScsICc8aW5maWxlLm1hZT4nLCAnLW9tYWUnLCAnPG91dGZpbGUubWFlPic=

> <r_lp_tautomer_probability>
1

> <r_epik_Ionization_Penalty>
0.00175146

> <r_epik_Ionization_Penalty_Charging>
0

> <r_epik_Ionization_Penalty_Neutral>
0.00175146

> <r_epik_State_Penalty>
0.00109045

> <r_epik_Charging_Adjusted_Penalty>
0.00109045

> <i_epik_Tot_Q>
0

> <i_epik_Tot_abs_Q>
0

> <r_epik_Metal_State_Penalty>
-0

> <b_epik_Metal_Only>
0

> <s_lp_Force_Field>
OPLS_2005

> <r_lp_Energy>
56.5765

> <b_lp_Chiralities_Consistent>
1

> <s_lp_Variant>
AV-unprocessed.smi:203-14

> <Gold.Version>
5.8.1

> <Gold.Id.Protein>
6NUR|6NUR_protein|mol2

> <Gold.PLP.Fitness>
42.5754

> <Gold.PLP.PLP>
-37.6133

> <Gold.PLP.part.hbond>
-2.0410

> <Gold.PLP.part.metal>
0.0000

> <Gold.PLP.part.buried>
-6.7906

> <Gold.PLP.part.nonpolar>
-29.8303

> <Gold.PLP.part.repulsive>
0.1355

> <Gold.PLP.ligand.clash>
0.0000

> <Gold.PLP.ligand.torsion>
0.6644

> <Gold.PLP.Chemscore.Hbond>
2.0000

> <Gold.PLP.Chemscore.CHOScore>
0.0000

> <Gold.PLP.Chemscore.Metal>
0.0000

> <Gold.Chemscore.Hbonds>
donor molecule, donor type, donor heavy atom, donor atom, acceptor molecule, acceptor atom, score
      L1  H    29    57       P1  8028  0.88
      P1  H  6931  6943       L1    22  0.16
      P1  H  6934  6947       L1    22  0.48

> <Gold.PLP.Chemscore.Internal.Correction>
0.2910

> <Gold.Rescore>
     Score         DG    S(hbond)    S(metal)    S(lipo)     H(rot)  DE(clash)    DE(int)     intcor
     14.33     -15.25       1.98        0.00      86.49       2.72       0.09       0.83       ----

> <Gold.Chemscore.Fitness>
14.3310

> <Gold.Chemscore.DG>
-15.2501

> <Gold.Chemscore.ZeroCoef>
-5.4800

> <Gold.Chemscore.Hbond>
1.9781

> <Gold.Chemscore.Metal>
0.0000

> <Gold.Chemscore.Lipo>
86.4874

> <Gold.Chemscore.Internal_Hbond>
0.0000

> <Gold.Chemscore.DEClash>
0.0882

> <Gold.Chemscore.DEInternal>
0.8308

> <Gold.Chemscore.Rot>
2.7171

> <Gold.Chemscore.Internal.Correction>
   9.000000E+99

> <Gold.Chemscore.Hbonds>
donor molecule, donor type, donor heavy atom, donor atom, acceptor molecule, acceptor atom, score
      L1  H    29    57       P1  8028  0.87
      P1  H  6931  6943       L1    22  0.03
      P1  H  6934  6947       L1    22  0.02

> <Gold.Chemscore.Hbond.Weighted>
-6.6068

> <Gold.Chemscore.Metal.Weighted>
-0.0000

> <Gold.Chemscore.Lipo.Weighted>
-10.1190

> <Gold.Chemscore.Internal_Hbond.Weighted>
0.0000

> <Gold.Chemscore.DEClash.Weighted>
0.0882

> <Gold.Chemscore.DEInternal.Weighted>
0.8308

> <Gold.Chemscore.Rot.Weighted>
6.9557

> <Gold.Chemscore.Internal.Correction.Weighted>
   9.000000E+99

> <Gold.Protein.RotatedTorsions>
[ 6907 6896 6895 6894 ] final  144.52 input  -60.11 | X-H torsion
[ 7974 7965 7964 7962 ] final  132.91 input  175.53 | X-H torsion
[ 8008 7997 7996 7995 ] final  168.31 input   59.86 | X-H torsion
[ 10167 10162 10161 10158 ] final -175.87 input  -65.29 | X-H torsion
[ 10718 10713 10712 10709 ] final  -42.16 input   66.30 | X-H torsion
[ 10763 10752 10751 10750 ] final  179.01 input  -60.55 | X-H torsion
[ 11005 11000 10999 10996 ] final  -65.72 input  -57.11 | X-H torsion

> <Gold.Protein.ActiveResidues>
 VAL166  LYS551  ARG553  GLY616  TRP617  ASP618  TYR619  PRO620  LYS621  CYS622 
 ASP623  PHE694  ASN695  SER759  ASP760  ASP761  ALA762  ILE779  LEU786  VAL792 
 PHE793  MET794  SER795  GLU796  ALA797  LYS798  CYS799  TRP800  GLU811  SER814 

> <Gold.Protein.RotatedAtoms>
  152.1926  133.4784  159.5015 H   0  0  0  0  0  0  0  0  0  0  0  0  # atno 6907 bound_to 6896
  150.6954  134.1692  159.4215 H   0  0  0  0  0  0  0  0  0  0  0  0  # atno 6908 bound_to 6896
  151.9608  135.0124  160.0598 H   0  0  0  0  0  0  0  0  0  0  0  0  # atno 6909 bound_to 6896
  144.9920  139.4397  143.5335 H   0  0  0  0  0  0  0  0  0  0  0  0  # atno 7974 bound_to 7965
  156.1558  140.1594  156.8694 H   0  0  0  0  0  0  0  0  0  0  0  0  # atno 8008 bound_to 7997
  154.5113  140.0800  156.8032 H   0  0  0  0  0  0  0  0  0  0  0  0  # atno 8009 bound_to 7997
  155.3806  140.3405  155.4249 H   0  0  0  0  0  0  0  0  0  0  0  0  # atno 8010 bound_to 7997
  139.5558  144.1992  152.1157 H   0  0  0  0  0  0  0  0  0  0  0  0  # atno 10167 bound_to 10162
  156.2626  130.4198  149.8525 H   0  0  0  0  0  0  0  0  0  0  0  0  # atno 10718 bound_to 10713
  154.5152  135.2791  155.1309 H   0  0  0  0  0  0  0  0  0  0  0  0  # atno 10763 bound_to 10752
  154.2889  135.6271  153.5381 H   0  0  0  0  0  0  0  0  0  0  0  0  # atno 10764 bound_to 10752
  152.9926  135.5669  154.5627 H   0  0  0  0  0  0  0  0  0  0  0  0  # atno 10765 bound_to 10752
  141.1462  133.6686  156.6030 H   0  0  0  0  0  0  0  0  0  0  0  0  # atno 11005 bound_to 11000
  146.3433  139.9257  142.8760 LP  0  0  0  0  0  0  0  0  0  0  0  0  # atno 17320 bound_to 7965
  145.2273  140.9959  143.4011 LP  0  0  0  0  0  0  0  0  0  0  0  0  # atno 17321 bound_to 7965
  140.1496  144.5127  150.6695 LP  0  0  0  0  0  0  0  0  0  0  0  0  # atno 17342 bound_to 10162
  140.6831  143.2336  151.5332 LP  0  0  0  0  0  0  0  0  0  0  0  0  # atno 17343 bound_to 10162
  156.6035  130.8557  151.3437 LP  0  0  0  0  0  0  0  0  0  0  0  0  # atno 17370 bound_to 10713
  157.7256  130.9618  150.1621 LP  0  0  0  0  0  0  0  0  0  0  0  0  # atno 17371 bound_to 10713
  140.3674  134.7635  157.4575 LP  0  0  0  0  0  0  0  0  0  0  0  0  # atno 17394 bound_to 11000
  140.0737  134.5827  155.8614 LP  0  0  0  0  0  0  0  0  0  0  0  0  # atno 17395 bound_to 11000

$$$$
