AV-unprocessed.smi:1001|AV-procd|sdf|4357|dock6
  -GOLD-   22720 2253D 1   1.00000     0.00000
 Structure written by MMmdl.
 47 48  0  0  0  0  0  0  0  0  1 V2000
  146.7857  131.1036  158.6268 N   0  0  0  0  0  0  0  0  0  0  0  0
  146.7636  131.3129  159.9489 C   0  0  0  0  0  0  0  0  0  0  0  0
  146.4848  130.4136  160.7410 O   0  0  0  0  0  0  0  0  0  0  0  0
  147.0950  132.6944  160.3955 C   0  0  0  0  0  0  0  0  0  0  0  0
  147.3058  132.9030  161.8180 C   0  0  0  0  0  0  0  0  0  0  0  0
  147.6046  134.1488  162.2467 C   0  0  0  0  0  0  0  0  0  0  0  0
  147.7207  135.2786  161.3233 C   0  0  0  0  0  0  0  0  0  0  0  0
  147.9895  136.4226  161.6892 O   0  0  0  0  0  0  0  0  0  0  0  0
  147.5043  134.9488  160.0131 N   0  0  0  0  0  0  0  0  0  0  0  0
  147.6008  135.9596  158.9499 C   0  0  0  0  0  0  0  0  0  0  0  0
  149.0486  136.2640  158.5379 C   0  0  0  0  0  0  0  0  0  0  0  0
  149.7651  135.3818  158.0627 O   0  0  0  0  0  0  0  0  0  0  0  0
  149.4604  137.5287  158.7140 N   0  0  0  0  0  0  0  0  0  0  0  0
  150.8007  138.0198  158.4164 C   0  0  0  0  0  0  0  0  0  0  0  0
  151.1659  139.2215  159.3034 C   0  0  0  0  0  0  0  0  0  0  0  0
  151.1323  140.5536  158.5356 C   0  0  0  0  0  0  0  0  0  0  0  0
  151.3349  141.7959  159.4280 C   0  0  0  0  0  0  0  0  0  0  0  0
  151.1330  143.1197  158.6575 C   0  0  0  0  0  0  0  0  0  0  0  0
  151.3507  144.3440  159.5618 C   0  0  0  0  0  0  0  0  0  0  0  0
  152.7370  144.3122  160.2217 C   0  0  0  0  0  0  0  0  0  0  0  0
  152.9501  143.0010  160.9925 C   0  0  0  0  0  0  0  0  0  0  0  0
  152.7305  141.7789  160.0857 C   0  0  0  0  0  0  0  0  0  0  0  0
  147.1922  133.6771  159.5594 N   0  0  0  0  0  0  0  0  0  0  0  0
  146.5727  130.1875  158.2596 H   0  0  0  0  0  0  0  0  0  0  0  0
  147.0179  131.8623  158.0021 H   0  0  0  0  0  0  0  0  0  0  0  0
  147.2275  132.0870  162.5217 H   0  0  0  0  0  0  0  0  0  0  0  0
  147.7644  134.3182  163.3012 H   0  0  0  0  0  0  0  0  0  0  0  0
  147.0598  135.6277  158.0621 H   0  0  0  0  0  0  0  0  0  0  0  0
  147.1059  136.8796  159.2672 H   0  0  0  0  0  0  0  0  0  0  0  0
  148.8062  138.1926  159.1026 H   0  0  0  0  0  0  0  0  0  0  0  0
  151.5299  137.2169  158.5364 H   0  0  0  0  0  0  0  0  0  0  0  0
  150.8298  138.3109  157.3660 H   0  0  0  0  0  0  0  0  0  0  0  0
  150.4772  139.2594  160.1472 H   0  0  0  0  0  0  0  0  0  0  0  0
  152.1618  139.0759  159.7239 H   0  0  0  0  0  0  0  0  0  0  0  0
  151.9207  140.5306  157.7822 H   0  0  0  0  0  0  0  0  0  0  0  0
  150.1938  140.6410  157.9866 H   0  0  0  0  0  0  0  0  0  0  0  0
  150.5961  141.7544  160.2298 H   0  0  0  0  0  0  0  0  0  0  0  0
  151.8227  143.1643  157.8136 H   0  0  0  0  0  0  0  0  0  0  0  0
  150.1290  143.1695  158.2372 H   0  0  0  0  0  0  0  0  0  0  0  0
  151.2370  145.2594  158.9807 H   0  0  0  0  0  0  0  0  0  0  0  0
  150.5790  144.3698  160.3324 H   0  0  0  0  0  0  0  0  0  0  0  0
  153.5083  144.4176  159.4579 H   0  0  0  0  0  0  0  0  0  0  0  0
  152.8484  145.1630  160.8947 H   0  0  0  0  0  0  0  0  0  0  0  0
  153.9563  142.9767  161.4117 H   0  0  0  0  0  0  0  0  0  0  0  0
  152.2617  142.9574  161.8375 H   0  0  0  0  0  0  0  0  0  0  0  0
  152.8557  140.8688  160.6731 H   0  0  0  0  0  0  0  0  0  0  0  0
  153.5013  141.7560  159.3141 H   0  0  0  0  0  0  0  0  0  0  0  0
  1  2  1  0  0  0  0
  1 24  1  0  0  0  0
  1 25  1  0  0  0  0
  2  3  2  0  0  0  0
  2  4  1  0  0  0  0
  4 23  2  0  0  0  0
  4  5  1  0  0  0  0
  5  6  2  0  0  0  0
  5 26  1  0  0  0  0
  6  7  1  0  0  0  0
  6 27  1  0  0  0  0
  7  8  2  0  0  0  0
  7  9  1  0  0  0  0
  9 10  1  0  0  0  0
  9 23  1  0  0  0  0
 10 11  1  0  0  0  0
 10 28  1  0  0  0  0
 10 29  1  0  0  0  0
 11 12  2  0  0  0  0
 11 13  1  0  0  0  0
 13 14  1  0  0  0  0
 13 30  1  0  0  0  0
 14 15  1  0  0  0  0
 14 31  1  0  0  0  0
 14 32  1  0  0  0  0
 15 16  1  0  0  0  0
 15 33  1  0  0  0  0
 15 34  1  0  0  0  0
 16 17  1  0  0  0  0
 16 35  1  0  0  0  0
 16 36  1  0  0  0  0
 17 22  1  0  0  0  0
 17 18  1  0  0  0  0
 17 37  1  0  0  0  0
 18 19  1  0  0  0  0
 18 38  1  0  0  0  0
 18 39  1  0  0  0  0
 19 20  1  0  0  0  0
 19 40  1  0  0  0  0
 19 41  1  0  0  0  0
 20 21  1  0  0  0  0
 20 42  1  0  0  0  0
 20 43  1  0  0  0  0
 21 22  1  0  0  0  0
 21 44  1  0  0  0  0
 21 45  1  0  0  0  0
 22 46  1  0  0  0  0
 22 47  1  0  0  0  0
M  END
> <s_m_source_file>
AV-unprocessed.smi

> <i_m_source_file_index>
1001

> <i_lp_mmshare_version>
43012

> <i_f3d_flags>
0

> <s_epik_input>
W05IMl1DKD1PKWMxW2NIXVtjSF1jKD1PKW4objEpW0NIMl1DKD1PKVtOSF1bQ0gyXVtDSDJdW0NIMl1bQ0hdMltDSDJdW0NIMl1bQ0gyXVtDSDJdW0NIMl0y

> <s_epik_cmdline>
J2VwaWtfcHl0aG9uJywgJy1waCcsICc3LjAnLCAnLXRuJywgJzgnLCAnLW1hJywgJzIwMCcsICctbWV0YWxfYmluZGluZycsICctaW1hZScsICc8aW5maWxlLm1hZT4nLCAnLW9tYWUnLCAnPG91dGZpbGUubWFlPic=

> <r_lp_tautomer_probability>
1

> <r_epik_Ionization_Penalty>
2.90452e-06

> <r_epik_Ionization_Penalty_Charging>
3.08996e-10

> <r_epik_Ionization_Penalty_Neutral>
2.90421e-06

> <r_epik_State_Penalty>
-0

> <r_epik_Charging_Adjusted_Penalty>
3.08996e-10

> <i_epik_Tot_Q>
0

> <i_epik_Tot_abs_Q>
0

> <r_epik_Metal_State_Penalty>
-0

> <b_epik_Metal_Only>
0

> <s_lp_Force_Field>
OPLS_2005

> <r_lp_Energy>
27.0219

> <b_lp_Chiralities_Consistent>
1

> <s_lp_Variant>
AV-unprocessed.smi:1001-1

> <Gold.Version>
5.8.1

> <Gold.Id.Protein>
6NUR|6NUR_protein|mol2

> <Gold.PLP.Fitness>
51.1084

> <Gold.PLP.PLP>
-44.2857

> <Gold.PLP.part.hbond>
-3.0000

> <Gold.PLP.part.metal>
0.0000

> <Gold.PLP.part.buried>
-5.0556

> <Gold.PLP.part.nonpolar>
-36.5734

> <Gold.PLP.part.repulsive>
0.2227

> <Gold.PLP.ligand.clash>
0.0000

> <Gold.PLP.ligand.torsion>
0.8643

> <Gold.PLP.Chemscore.Hbond>
2.7680

> <Gold.PLP.Chemscore.CHOScore>
0.0000

> <Gold.PLP.Chemscore.Metal>
0.0000

> <Gold.Chemscore.Hbonds>
donor molecule, donor type, donor heavy atom, donor atom, acceptor molecule, acceptor atom, score
      P1  H  6896  6908       L1    12  1.00
      P1  H  6931  6943       L1     8  0.80

> <Gold.PLP.Chemscore.Internal.Correction>
0.2472

> <Gold.Rescore>
     Score         DG    S(hbond)    S(metal)    S(lipo)     H(rot)  DE(clash)    DE(int)     intcor
     19.03     -19.70       2.68        0.00      98.92       2.46       0.00       0.67       ----

> <Gold.Chemscore.Fitness>
19.0304

> <Gold.Chemscore.DG>
-19.6984

> <Gold.Chemscore.ZeroCoef>
-5.4800

> <Gold.Chemscore.Hbond>
2.6769

> <Gold.Chemscore.Metal>
0.0000

> <Gold.Chemscore.Lipo>
98.9166

> <Gold.Chemscore.Internal_Hbond>
0.0000

> <Gold.Chemscore.DEClash>
0.0009

> <Gold.Chemscore.DEInternal>
0.6672

> <Gold.Chemscore.Rot>
2.4593

> <Gold.Chemscore.Internal.Correction>
   9.000000E+99

> <Gold.Chemscore.Hbonds>
donor molecule, donor type, donor heavy atom, donor atom, acceptor molecule, acceptor atom, score
      P1  H  6896  6908       L1    12  0.74
      P1  H  6931  6943       L1     8  0.79

> <Gold.Chemscore.Hbond.Weighted>
-8.9410

> <Gold.Chemscore.Metal.Weighted>
-0.0000

> <Gold.Chemscore.Lipo.Weighted>
-11.5732

> <Gold.Chemscore.Internal_Hbond.Weighted>
0.0000

> <Gold.Chemscore.DEClash.Weighted>
0.0009

> <Gold.Chemscore.DEInternal.Weighted>
0.6672

> <Gold.Chemscore.Rot.Weighted>
6.2958

> <Gold.Chemscore.Internal.Correction.Weighted>
   9.000000E+99

> <Gold.Protein.RotatedTorsions>
[ 6907 6896 6895 6894 ] final  158.38 input  -60.11 | X-H torsion
[ 7974 7965 7964 7962 ] final   47.19 input  175.53 | X-H torsion
[ 8008 7997 7996 7995 ] final    2.35 input   59.86 | X-H torsion
[ 10167 10162 10161 10158 ] final -178.29 input  -65.29 | X-H torsion
[ 10718 10713 10712 10709 ] final   88.61 input   66.30 | X-H torsion
[ 10763 10752 10751 10750 ] final    2.57 input  -60.55 | X-H torsion
[ 11005 11000 10999 10996 ] final   16.26 input  -57.11 | X-H torsion

> <Gold.Protein.ActiveResidues>
 VAL166  LYS551  ARG553  GLY616  TRP617  ASP618  TYR619  PRO620  LYS621  CYS622 
 ASP623  PHE694  ASN695  SER759  ASP760  ASP761  ALA762  ILE779  LEU786  VAL792 
 PHE793  MET794  SER795  GLU796  ALA797  LYS798  CYS799  TRP800  GLU811  SER814 

> <Gold.Protein.RotatedAtoms>
  152.0012  133.3826  159.4182 H   0  0  0  0  0  0  0  0  0  0  0  0  # atno 6907 bound_to 6896
  150.6910  134.3831  159.5052 H   0  0  0  0  0  0  0  0  0  0  0  0  # atno 6908 bound_to 6896
  152.1579  134.8936  160.0594 H   0  0  0  0  0  0  0  0  0  0  0  0  # atno 6909 bound_to 6896
  146.0320  139.4775  142.9831 H   0  0  0  0  0  0  0  0  0  0  0  0  # atno 7974 bound_to 7965
  154.6906  140.2652  155.6816 H   0  0  0  0  0  0  0  0  0  0  0  0  # atno 8008 bound_to 7997
  156.2730  140.2792  156.1406 H   0  0  0  0  0  0  0  0  0  0  0  0  # atno 8009 bound_to 7997
  155.0902  140.0373  157.2656 H   0  0  0  0  0  0  0  0  0  0  0  0  # atno 8010 bound_to 7997
  139.5439  144.2287  152.0950 H   0  0  0  0  0  0  0  0  0  0  0  0  # atno 10167 bound_to 10162
  157.6950  131.0301  150.3301 H   0  0  0  0  0  0  0  0  0  0  0  0  # atno 10718 bound_to 10713
  153.2939  135.6950  153.7267 H   0  0  0  0  0  0  0  0  0  0  0  0  # atno 10763 bound_to 10752
  153.6207  135.3428  155.3010 H   0  0  0  0  0  0  0  0  0  0  0  0  # atno 10764 bound_to 10752
  154.8532  135.4385  154.2030 H   0  0  0  0  0  0  0  0  0  0  0  0  # atno 10765 bound_to 10752
  140.4491  134.1242  155.7700 H   0  0  0  0  0  0  0  0  0  0  0  0  # atno 11005 bound_to 11000
  145.7025  141.0131  143.1497 LP  0  0  0  0  0  0  0  0  0  0  0  0  # atno 17320 bound_to 7965
  144.7035  139.8661  143.7437 LP  0  0  0  0  0  0  0  0  0  0  0  0  # atno 17321 bound_to 7965
  140.1771  144.4880  150.6548 LP  0  0  0  0  0  0  0  0  0  0  0  0  # atno 17342 bound_to 10162
  140.6680  143.2275  151.5695 LP  0  0  0  0  0  0  0  0  0  0  0  0  # atno 17343 bound_to 10162
  156.3776  130.3874  149.7127 LP  0  0  0  0  0  0  0  0  0  0  0  0  # atno 17370 bound_to 10713
  156.4520  130.7911  151.2932 LP  0  0  0  0  0  0  0  0  0  0  0  0  # atno 17371 bound_to 10713
  141.1672  133.8680  157.1680 LP  0  0  0  0  0  0  0  0  0  0  0  0  # atno 17394 bound_to 11000
  140.0018  135.0024  157.0207 LP  0  0  0  0  0  0  0  0  0  0  0  0  # atno 17395 bound_to 11000

$$$$
