AV-unprocessed.smi:2587|AV-procd|sdf|10146|dock8
  -GOLD-   2272014153D 1   1.00000     0.00000
 Structure written by MMmdl.
 39 40  0  0  0  0  0  0  0  0  1 V2000
  145.9977  143.1690  153.9456 C   0  0  0  0  0  0  0  0  0  0  0  0
  146.8134  142.1095  154.0503 C   0  0  0  0  0  0  0  0  0  0  0  0
  148.0980  142.0961  154.8540 C   0  0  0  0  0  0  0  0  0  0  0  0
  148.8648  140.8636  154.6743 N   0  0  0  0  0  0  0  0  0  0  0  0
  148.4690  139.9530  153.6032 C   0  0  0  0  0  0  0  0  0  0  0  0
  148.1225  138.5512  154.1273 C   0  0  0  0  0  0  0  0  0  0  0  0
  147.3478  137.8686  153.1666 O   0  0  0  0  0  0  0  0  0  0  0  0
  150.0721  140.6638  155.3879 C   0  0  0  0  0  0  0  0  0  0  0  0
  150.3464  141.3219  156.6139 C   0  0  0  0  0  0  0  0  0  0  0  0
  151.5841  141.0533  157.2461 C   0  0  0  0  0  0  0  0  0  0  0  0
  151.9215  141.6739  158.4683 N   0  0  0  0  0  0  0  0  0  0  0  0
  153.0611  141.1426  159.2139 C   0  0  0  0  0  0  0  0  0  0  0  0
  153.0977  141.7368  160.6320 C   0  0  0  0  0  0  0  0  0  0  0  0
  153.1033  143.1583  160.5569 O   0  0  0  0  0  0  0  0  0  0  0  0
  151.9297  143.6595  159.9257 C   0  0  0  0  0  0  0  0  0  0  0  0
  151.8485  143.1330  158.4823 C   0  0  0  0  0  0  0  0  0  0  0  0
  152.4631  140.1859  156.6901 N   0  0  0  0  0  0  0  0  0  0  0  0
  152.1173  139.6165  155.5364 C   0  0  0  0  0  0  0  0  0  0  0  0
  150.9830  139.8087  154.8639 N   0  0  0  0  0  0  0  0  0  0  0  0
  146.2220  144.1016  154.4426 H   0  0  0  0  0  0  0  0  0  0  0  0
  145.0927  143.1159  153.3587 H   0  0  0  0  0  0  0  0  0  0  0  0
  146.5536  141.1927  153.5411 H   0  0  0  0  0  0  0  0  0  0  0  0
  148.7103  142.9497  154.5601 H   0  0  0  0  0  0  0  0  0  0  0  0
  147.8625  142.2488  155.9076 H   0  0  0  0  0  0  0  0  0  0  0  0
  147.6458  140.3723  153.0252 H   0  0  0  0  0  0  0  0  0  0  0  0
  149.2995  139.8756  152.9002 H   0  0  0  0  0  0  0  0  0  0  0  0
  149.0276  137.9769  154.3267 H   0  0  0  0  0  0  0  0  0  0  0  0
  147.5600  138.6072  155.0596 H   0  0  0  0  0  0  0  0  0  0  0  0
  147.8933  137.2235  152.7431 H   0  0  0  0  0  0  0  0  0  0  0  0
  149.6359  141.9895  157.0741 H   0  0  0  0  0  0  0  0  0  0  0  0
  152.9963  140.0557  159.2807 H   0  0  0  0  0  0  0  0  0  0  0  0
  153.9838  141.3831  158.6840 H   0  0  0  0  0  0  0  0  0  0  0  0
  152.2425  141.3961  161.2183 H   0  0  0  0  0  0  0  0  0  0  0  0
  153.9944  141.4046  161.1551 H   0  0  0  0  0  0  0  0  0  0  0  0
  151.0452  143.3692  160.4952 H   0  0  0  0  0  0  0  0  0  0  0  0
  151.9642  144.7489  159.9262 H   0  0  0  0  0  0  0  0  0  0  0  0
  152.6760  143.5312  157.8937 H   0  0  0  0  0  0  0  0  0  0  0  0
  150.9303  143.4984  158.0248 H   0  0  0  0  0  0  0  0  0  0  0  0
  152.8280  138.9290  155.1020 H   0  0  0  0  0  0  0  0  0  0  0  0
  1  2  2  0  0  0  0
  1 20  1  0  0  0  0
  1 21  1  0  0  0  0
  2  3  1  0  0  0  0
  2 22  1  0  0  0  0
  3  4  1  0  0  0  0
  3 23  1  0  0  0  0
  3 24  1  0  0  0  0
  4  5  1  0  0  0  0
  4  8  1  0  0  0  0
  5  6  1  0  0  0  0
  5 25  1  0  0  0  0
  5 26  1  0  0  0  0
  6  7  1  0  0  0  0
  6 27  1  0  0  0  0
  6 28  1  0  0  0  0
  7 29  1  0  0  0  0
  8 19  1  0  0  0  0
  8  9  2  0  0  0  0
  9 10  1  0  0  0  0
  9 30  1  0  0  0  0
 10 11  1  0  0  0  0
 10 17  2  0  0  0  0
 11 16  1  0  0  0  0
 11 12  1  0  0  0  0
 12 13  1  0  0  0  0
 12 31  1  0  0  0  0
 12 32  1  0  0  0  0
 13 14  1  0  0  0  0
 13 33  1  0  0  0  0
 13 34  1  0  0  0  0
 14 15  1  0  0  0  0
 15 16  1  0  0  0  0
 15 35  1  0  0  0  0
 15 36  1  0  0  0  0
 16 37  1  0  0  0  0
 16 38  1  0  0  0  0
 17 18  1  0  0  0  0
 18 19  2  0  0  0  0
 18 39  1  0  0  0  0
M  END
> <s_m_source_file>
AV-unprocessed.smi

> <i_m_source_file_index>
2587

> <i_lp_mmshare_version>
43012

> <i_f3d_flags>
0

> <s_epik_input>
W0NIMl09W0NIXVtDSDJdTihbQ0gyXVtDSDJdW09IXSljMVtjSF1jKG5bY0hdbjEpTjJbQ0gyXVtDSDJdT1tDSDJdW0NIMl0y

> <s_epik_cmdline>
J2VwaWtfcHl0aG9uJywgJy1waCcsICc3LjAnLCAnLXRuJywgJzgnLCAnLW1hJywgJzIwMCcsICctbWV0YWxfYmluZGluZycsICctaW1hZScsICc8aW5maWxlLm1hZT4nLCAnLW9tYWUnLCAnPG91dGZpbGUubWFlPic=

> <r_lp_tautomer_probability>
1

> <r_epik_Ionization_Penalty>
0.00218234

> <r_epik_Ionization_Penalty_Charging>
0

> <r_epik_Ionization_Penalty_Neutral>
0.00218234

> <r_epik_State_Penalty>
0.00992355

> <r_epik_Charging_Adjusted_Penalty>
0.00992355

> <i_epik_Tot_Q>
0

> <i_epik_Tot_abs_Q>
0

> <r_epik_Metal_State_Penalty>
0.00985368

> <b_epik_Metal_Only>
0

> <s_lp_Force_Field>
OPLS_2005

> <r_lp_Energy>
11.4622

> <b_lp_Chiralities_Consistent>
1

> <s_lp_Variant>
AV-unprocessed.smi:2587-1

> <Gold.Version>
5.8.1

> <Gold.Id.Protein>
6NUR|6NUR_protein|mol2

> <Gold.PLP.Fitness>
46.8547

> <Gold.PLP.PLP>
-38.5756

> <Gold.PLP.part.hbond>
-3.0000

> <Gold.PLP.part.metal>
0.0000

> <Gold.PLP.part.buried>
1.8480

> <Gold.PLP.part.nonpolar>
-36.7313

> <Gold.PLP.part.repulsive>
0.0576

> <Gold.PLP.ligand.clash>
0.0000

> <Gold.PLP.ligand.torsion>
0.5607

> <Gold.PLP.Chemscore.Hbond>
2.9500

> <Gold.PLP.Chemscore.CHOScore>
0.0000

> <Gold.PLP.Chemscore.Metal>
0.0000

> <Gold.Chemscore.Hbonds>
donor molecule, donor type, donor heavy atom, donor atom, acceptor molecule, acceptor atom, score
      L1  H     7    29       P1  7948  1.00
      P1  H  7989  7998       L1    19  0.90
      P1  H  7997  8009       L1    17  1.00

> <Gold.PLP.Chemscore.Internal.Correction>
0.5505

> <Gold.Rescore>
     Score         DG    S(hbond)    S(metal)    S(lipo)     H(rot)  DE(clash)    DE(int)     intcor
     12.49     -14.55       1.83        0.00      80.15       2.51       1.45       0.60       ----

> <Gold.Chemscore.Fitness>
12.4905

> <Gold.Chemscore.DG>
-14.5471

> <Gold.Chemscore.ZeroCoef>
-5.4800

> <Gold.Chemscore.Hbond>
1.8325

> <Gold.Chemscore.Metal>
0.0000

> <Gold.Chemscore.Lipo>
80.1526

> <Gold.Chemscore.Internal_Hbond>
0.0000

> <Gold.Chemscore.DEClash>
1.4540

> <Gold.Chemscore.DEInternal>
0.6026

> <Gold.Chemscore.Rot>
2.5123

> <Gold.Chemscore.Internal.Correction>
   9.000000E+99

> <Gold.Chemscore.Hbonds>
donor molecule, donor type, donor heavy atom, donor atom, acceptor molecule, acceptor atom, score
      L1  H     7    29       P1  7948  1.00
      P1  H  7989  7998       L1    19  0.05
      P1  H  7997  8009       L1    17  0.29

> <Gold.Chemscore.Hbond.Weighted>
-6.1207

> <Gold.Chemscore.Metal.Weighted>
-0.0000

> <Gold.Chemscore.Lipo.Weighted>
-9.3779

> <Gold.Chemscore.Internal_Hbond.Weighted>
0.0000

> <Gold.Chemscore.DEClash.Weighted>
1.4540

> <Gold.Chemscore.DEInternal.Weighted>
0.6026

> <Gold.Chemscore.Rot.Weighted>
6.4315

> <Gold.Chemscore.Internal.Correction.Weighted>
   9.000000E+99

> <Gold.Protein.RotatedTorsions>
[ 6907 6896 6895 6894 ] final  -50.59 input  -60.11 | X-H torsion
[ 7974 7965 7964 7962 ] final  -67.87 input  175.53 | X-H torsion
[ 8008 7997 7996 7995 ] final -176.46 input   59.86 | X-H torsion
[ 10167 10162 10161 10158 ] final  158.72 input  -65.29 | X-H torsion
[ 10718 10713 10712 10709 ] final  170.70 input   66.30 | X-H torsion
[ 10763 10752 10751 10750 ] final   87.64 input  -60.55 | X-H torsion
[ 11005 11000 10999 10996 ] final  -80.69 input  -57.11 | X-H torsion

> <Gold.Protein.ActiveResidues>
 VAL166  LYS551  ARG553  GLY616  TRP617  ASP618  TYR619  PRO620  LYS621  CYS622 
 ASP623  PHE694  ASN695  SER759  ASP760  ASP761  ALA762  ILE779  LEU786  VAL792 
 PHE793  MET794  SER795  GLU796  ALA797  LYS798  CYS799  TRP800  GLU811  SER814 

> <Gold.Protein.RotatedAtoms>
  150.8692  134.8062  159.7141 H   0  0  0  0  0  0  0  0  0  0  0  0  # atno 6907 bound_to 6896
  152.4703  134.4974  159.9724 H   0  0  0  0  0  0  0  0  0  0  0  0  # atno 6908 bound_to 6896
  151.5065  133.3455  159.2913 H   0  0  0  0  0  0  0  0  0  0  0  0  # atno 6909 bound_to 6896
  145.7237  140.9027  143.0616 H   0  0  0  0  0  0  0  0  0  0  0  0  # atno 7974 bound_to 7965
  155.9951  140.1209  157.0601 H   0  0  0  0  0  0  0  0  0  0  0  0  # atno 8008 bound_to 7997
  154.4224  140.1118  156.5688 H   0  0  0  0  0  0  0  0  0  0  0  0  # atno 8009 bound_to 7997
  155.6289  140.3473  155.4678 H   0  0  0  0  0  0  0  0  0  0  0  0  # atno 8010 bound_to 7997
  139.4828  144.4798  151.8460 H   0  0  0  0  0  0  0  0  0  0  0  0  # atno 10167 bound_to 10162
  157.0043  131.0185  151.2821 H   0  0  0  0  0  0  0  0  0  0  0  0  # atno 10718 bound_to 10713
  153.1688  135.4536  154.9874 H   0  0  0  0  0  0  0  0  0  0  0  0  # atno 10763 bound_to 10752
  154.7951  135.3234  154.7688 H   0  0  0  0  0  0  0  0  0  0  0  0  # atno 10764 bound_to 10752
  153.8167  135.6950  153.4887 H   0  0  0  0  0  0  0  0  0  0  0  0  # atno 10765 bound_to 10752
  141.1667  133.7162  156.8311 H   0  0  0  0  0  0  0  0  0  0  0  0  # atno 11005 bound_to 11000
  144.6910  139.9237  143.7469 LP  0  0  0  0  0  0  0  0  0  0  0  0  # atno 17320 bound_to 7965
  146.0602  139.3596  143.0586 LP  0  0  0  0  0  0  0  0  0  0  0  0  # atno 17321 bound_to 7965
  140.4273  144.2163  150.5887 LP  0  0  0  0  0  0  0  0  0  0  0  0  # atno 17342 bound_to 10162
  140.4814  143.2378  151.8950 LP  0  0  0  0  0  0  0  0  0  0  0  0  # atno 17343 bound_to 10162
  157.5367  130.8093  149.7980 LP  0  0  0  0  0  0  0  0  0  0  0  0  # atno 17370 bound_to 10713
  156.0159  130.3814  150.2112 LP  0  0  0  0  0  0  0  0  0  0  0  0  # atno 17371 bound_to 10713
  140.2050  134.8869  157.3212 LP  0  0  0  0  0  0  0  0  0  0  0  0  # atno 17394 bound_to 11000
  140.2146  134.4096  155.7595 LP  0  0  0  0  0  0  0  0  0  0  0  0  # atno 17395 bound_to 11000

$$$$
