AV-unprocessed.smi:2482|AV-procd|sdf|9784|dock8
  -GOLD-   2272013423D 1   1.00000     0.00000
 Structure written by MMmdl.
 34 35  0  0  0  0  0  0  0  0  3 V2000
  152.9373  142.5154  160.6189 C   0  0  0  0  0  0  0  0  0  0  0  0
  152.2934  142.2343  159.2740 C   0  0  0  0  0  0  0  0  0  0  0  0
  151.7169  143.2964  158.6712 N   0  0  0  0  0  0  0  0  0  0  0  0
  151.1351  143.0981  157.4720 C   0  0  0  0  0  0  0  0  0  0  0  0
  151.0998  141.8471  156.8277 C   0  0  0  0  0  0  0  0  0  0  0  0
  151.6914  140.7252  157.4498 C   0  0  0  0  0  0  0  0  0  0  0  0
  151.6711  139.5258  156.8454 N   0  5  0  0  0  0  0  0  0  0  0  0
  151.9315  139.4333  155.5183 C   0  0  0  0  0  0  0  0  0  0  0  0
  152.9836  139.6743  154.9229 O   0  0  0  0  0  0  0  0  0  0  0  0
  150.6940  138.9641  154.7384 C   0  0  1  0  0  0  0  0  0  0  0  0
  150.1140  137.6330  155.2682 C   0  0  0  0  0  0  0  0  0  0  0  0
  148.8925  137.2717  154.5139 N   0  3  1  0  0  0  0  0  0  0  0  0
  148.3215  135.9766  154.9395 C   0  0  0  0  0  0  0  0  0  0  0  0
  147.9044  138.3736  154.5534 C   0  0  0  0  0  0  0  0  0  0  0  0
  148.5451  139.6814  154.0599 C   0  0  0  0  0  0  0  0  0  0  0  0
  149.6946  139.9752  154.8430 O   0  0  0  0  0  0  0  0  0  0  0  0
  152.3110  140.9365  158.7091 C   0  0  0  0  0  0  0  0  0  0  0  0
  153.0808  139.6305  159.5512 Cl  0  0  0  0  0  0  0  0  0  0  0  0
  152.4796  141.9006  161.3942 H   0  0  0  0  0  0  0  0  0  0  0  0
  152.8237  143.5611  160.9078 H   0  0  0  0  0  0  0  0  0  0  0  0
  154.0032  142.2894  160.5829 H   0  0  0  0  0  0  0  0  0  0  0  0
  150.6836  143.9634  157.0099 H   0  0  0  0  0  0  0  0  0  0  0  0
  150.6184  141.7513  155.8653 H   0  0  0  0  0  0  0  0  0  0  0  0
  150.9691  138.8356  153.6886 H   0  0  0  0  0  0  0  0  0  0  0  0
  150.8527  136.8364  155.1662 H   0  0  0  0  0  0  0  0  0  0  0  0
  149.8682  137.7123  156.3289 H   0  0  0  0  0  0  0  0  0  0  0  0
  148.0008  136.0133  155.9814 H   0  0  0  0  0  0  0  0  0  0  0  0
  149.0586  135.1795  154.8360 H   0  0  0  0  0  0  0  0  0  0  0  0
  147.4597  135.7159  154.3245 H   0  0  0  0  0  0  0  0  0  0  0  0
  147.0454  138.1220  153.9304 H   0  0  0  0  0  0  0  0  0  0  0  0
  147.5365  138.5005  155.5729 H   0  0  0  0  0  0  0  0  0  0  0  0
  148.8168  139.6101  153.0055 H   0  0  0  0  0  0  0  0  0  0  0  0
  147.8363  140.5047  154.1508 H   0  0  0  0  0  0  0  0  0  0  0  0
  149.1714  137.1654  153.5488 H   0  0  0  0  0  0  0  0  0  0  0  0
  1  2  1  0  0  0  0
  1 19  1  0  0  0  0
  1 20  1  0  0  0  0
  1 21  1  0  0  0  0
  2 17  1  0  0  0  0
  2  3  2  0  0  0  0
  3  4  1  0  0  0  0
  4  5  2  0  0  0  0
  4 22  1  0  0  0  0
  5  6  1  0  0  0  0
  5 23  1  0  0  0  0
  6  7  1  0  0  0  0
  6 17  2  0  0  0  0
  7  8  1  0  0  0  0
  8  9  2  0  0  0  0
  8 10  1  0  0  0  0
 10 16  1  0  0  0  0
 10 11  1  0  0  0  0
 10 24  1  0  0  0  0
 11 12  1  0  0  0  0
 11 25  1  0  0  0  0
 11 26  1  0  0  0  0
 12 13  1  0  0  0  0
 12 14  1  0  0  0  0
 12 34  1  0  0  0  0
 13 27  1  0  0  0  0
 13 28  1  0  0  0  0
 13 29  1  0  0  0  0
 14 15  1  0  0  0  0
 14 30  1  0  0  0  0
 14 31  1  0  0  0  0
 15 16  1  0  0  0  0
 15 32  1  0  0  0  0
 15 33  1  0  0  0  0
 17 18  1  0  0  0  0
M  CHG  1   7  -1
M  CHG  1  12   1
M  END
> <s_m_source_file>
AV-unprocessed.smi

> <i_m_source_file_index>
2482

> <i_lp_mmshare_version>
43012

> <i_f3d_flags>
0

> <s_epik_input>
W0NIM11jMW5bY0hdW2NIXWMoYzFDbClbTkhdQyg9TylbQ0BASF0yW0NIMl1OKFtDSDNdKVtDSDJdW0NIMl1PMg==

> <s_epik_cmdline>
J2VwaWtfcHl0aG9uJywgJy1waCcsICc3LjAnLCAnLXRuJywgJzgnLCAnLW1hJywgJzIwMCcsICctbWV0YWxfYmluZGluZycsICctaW1hZScsICc8aW5maWxlLm1hZT4nLCAnLW9tYWUnLCAnPG91dGZpbGUubWFlPic=

> <r_epik_Ionization_Penalty>
6.9249

> <r_epik_Ionization_Penalty_Charging>
6.74596

> <r_epik_Ionization_Penalty_Neutral>
0.178941

> <r_epik_State_Penalty>
6.78185

> <r_epik_Charging_Adjusted_Penalty>
13.5278

> <i_epik_Tot_Q>
0

> <i_epik_Tot_abs_Q>
2

> <r_epik_Metal_State_Penalty>
2.70608

> <b_epik_Metal_Only>
1

> <s_lp_Force_Field>
OPLS_2005

> <r_lp_Energy>
14.2833

> <b_lp_Chiralities_Consistent>
1

> <s_lp_Variant>
AV-unprocessed.smi:2482-10

> <Gold.Version>
5.8.1

> <Gold.Id.Protein>
6NUR|6NUR_protein|mol2

> <Gold.PLP.Fitness>
42.2343

> <Gold.PLP.PLP>
-31.7412

> <Gold.PLP.part.hbond>
-3.0000

> <Gold.PLP.part.metal>
0.0000

> <Gold.PLP.part.buried>
-4.3116

> <Gold.PLP.part.nonpolar>
-24.5839

> <Gold.PLP.part.repulsive>
0.1178

> <Gold.PLP.ligand.clash>
0.0000

> <Gold.PLP.ligand.torsion>
1.0322

> <Gold.PLP.Chemscore.Hbond>
3.0400

> <Gold.PLP.Chemscore.CHOScore>
1.0000

> <Gold.PLP.Chemscore.Metal>
0.0000

> <Gold.Chemscore.Hbonds>
donor molecule, donor type, donor heavy atom, donor atom, acceptor molecule, acceptor atom, score
      L1  H    12    34       P1  7948  1.98
      P1  H  7989  7998       L1     9  0.05
      P1  H  7997  8009       L1     9  1.00
      L1  C     4    22       P1  8028  1.00

> <Gold.PLP.Chemscore.Internal.Correction>
0.4374

> <Gold.Rescore>
     Score         DG    S(hbond)    S(metal)    S(lipo)     H(rot)  DE(clash)    DE(int)     intcor
     18.10     -19.03       1.95        0.00      82.11       1.00       0.01       0.92       ----

> <Gold.Chemscore.Fitness>
18.1010

> <Gold.Chemscore.DG>
-19.0256

> <Gold.Chemscore.ZeroCoef>
-5.4800

> <Gold.Chemscore.Hbond>
1.9456

> <Gold.Chemscore.Metal>
0.0000

> <Gold.Chemscore.Lipo>
82.1123

> <Gold.Chemscore.Internal_Hbond>
0.0000

> <Gold.Chemscore.DEClash>
0.0078

> <Gold.Chemscore.DEInternal>
0.9167

> <Gold.Chemscore.Rot>
1.0000

> <Gold.Chemscore.Internal.Correction>
   9.000000E+99

> <Gold.Chemscore.Hbonds>
donor molecule, donor type, donor heavy atom, donor atom, acceptor molecule, acceptor atom, score
      L1  H    12    34       P1  7948  0.93
      P1  H  7997  8009       L1     9  1.00

> <Gold.Chemscore.Hbond.Weighted>
-6.4985

> <Gold.Chemscore.Metal.Weighted>
-0.0000

> <Gold.Chemscore.Lipo.Weighted>
-9.6071

> <Gold.Chemscore.Internal_Hbond.Weighted>
0.0000

> <Gold.Chemscore.DEClash.Weighted>
0.0078

> <Gold.Chemscore.DEInternal.Weighted>
0.9167

> <Gold.Chemscore.Rot.Weighted>
2.5600

> <Gold.Chemscore.Internal.Correction.Weighted>
   9.000000E+99

> <Gold.Protein.RotatedTorsions>
[ 6907 6896 6895 6894 ] final -165.58 input  -60.11 | X-H torsion
[ 7974 7965 7964 7962 ] final   -1.49 input  175.53 | X-H torsion
[ 8008 7997 7996 7995 ] final -125.62 input   59.86 | X-H torsion
[ 10167 10162 10161 10158 ] final  166.16 input  -65.29 | X-H torsion
[ 10718 10713 10712 10709 ] final  -60.09 input   66.30 | X-H torsion
[ 10763 10752 10751 10750 ] final   87.52 input  -60.55 | X-H torsion
[ 11005 11000 10999 10996 ] final  156.47 input  -57.11 | X-H torsion

> <Gold.Protein.ActiveResidues>
 VAL166  LYS551  ARG553  GLY616  TRP617  ASP618  TYR619  PRO620  LYS621  CYS622 
 ASP623  PHE694  ASN695  SER759  ASP760  ASP761  ALA762  ILE779  LEU786  VAL792 
 PHE793  MET794  SER795  GLU796  ALA797  LYS798  CYS799  TRP800  GLU811  SER814 

> <Gold.Protein.RotatedAtoms>
  151.4300  133.3673  159.2767 H   0  0  0  0  0  0  0  0  0  0  0  0  # atno 6907 bound_to 6896
  150.9232  134.8651  159.7513 H   0  0  0  0  0  0  0  0  0  0  0  0  # atno 6908 bound_to 6896
  152.4992  134.4239  159.9542 H   0  0  0  0  0  0  0  0  0  0  0  0  # atno 6909 bound_to 6896
  146.2416  140.1428  142.8335 H   0  0  0  0  0  0  0  0  0  0  0  0  # atno 7974 bound_to 7965
  155.2163  140.0420  157.2941 H   0  0  0  0  0  0  0  0  0  0  0  0  # atno 8008 bound_to 7997
  154.5979  140.2444  155.7803 H   0  0  0  0  0  0  0  0  0  0  0  0  # atno 8009 bound_to 7997
  156.2302  140.2941  156.0178 H   0  0  0  0  0  0  0  0  0  0  0  0  # atno 8010 bound_to 7997
  139.4919  144.4056  151.9359 H   0  0  0  0  0  0  0  0  0  0  0  0  # atno 10167 bound_to 10162
  156.1015  130.4185  150.0805 H   0  0  0  0  0  0  0  0  0  0  0  0  # atno 10718 bound_to 10713
  153.1676  135.4540  154.9859 H   0  0  0  0  0  0  0  0  0  0  0  0  # atno 10763 bound_to 10752
  154.7943  135.3232  154.7706 H   0  0  0  0  0  0  0  0  0  0  0  0  # atno 10764 bound_to 10752
  153.8187  135.6948  153.4885 H   0  0  0  0  0  0  0  0  0  0  0  0  # atno 10765 bound_to 10752
  140.1678  134.8565  157.2653 H   0  0  0  0  0  0  0  0  0  0  0  0  # atno 11005 bound_to 11000
  145.0232  140.8811  143.5154 LP  0  0  0  0  0  0  0  0  0  0  0  0  # atno 17320 bound_to 7965
  145.1480  139.2532  143.5456 LP  0  0  0  0  0  0  0  0  0  0  0  0  # atno 17321 bound_to 7965
  140.3496  144.3105  150.5951 LP  0  0  0  0  0  0  0  0  0  0  0  0  # atno 17342 bound_to 10162
  140.5496  143.2208  151.7949 LP  0  0  0  0  0  0  0  0  0  0  0  0  # atno 17343 bound_to 10162
  156.8791  130.9550  151.3601 LP  0  0  0  0  0  0  0  0  0  0  0  0  # atno 17370 bound_to 10713
  157.6186  130.8638  149.9070 LP  0  0  0  0  0  0  0  0  0  0  0  0  # atno 17371 bound_to 10713
  140.2414  134.3792  155.7479 LP  0  0  0  0  0  0  0  0  0  0  0  0  # atno 17394 bound_to 11000
  141.2215  133.7267  156.8794 LP  0  0  0  0  0  0  0  0  0  0  0  0  # atno 17395 bound_to 11000

$$$$
