AV-unprocessed.smi:2252|AV-procd|sdf|9103|dock7
  -GOLD-   2272012303D 1   1.00000     0.00000
 Structure written by MMmdl.
 46 48  0  0  0  0  0  0  0  0  3 V2000
  153.3466  142.1875  159.5382 C   0  0  0  0  0  0  0  0  0  0  0  0
  152.4307  143.1576  158.9352 N   0  0  0  0  0  0  0  0  0  0  0  0
  152.3060  144.4814  159.2709 C   0  0  0  0  0  0  0  0  0  0  0  0
  151.3407  145.0056  158.4516 C   0  0  0  0  0  0  0  0  0  0  0  0
  150.9158  143.9809  157.6504 N   0  3  0  0  0  0  0  0  0  0  0  0
  151.5732  142.8536  157.9468 C   0  0  0  0  0  0  0  0  0  0  0  0
  151.3816  141.5340  157.2666 C   0  0  0  0  0  0  0  0  0  0  0  0
  150.3546  141.6030  156.1241 C   0  0  0  0  0  0  0  0  0  0  0  0
  149.5824  140.3714  156.0112 N   0  0  0  0  0  0  0  0  0  0  0  0
  149.7207  139.4628  155.0328 C   0  0  0  0  0  0  0  0  0  0  0  0
  150.5247  139.5860  154.1081 O   0  0  0  0  0  0  0  0  0  0  0  0
  148.8267  138.2160  155.1174 C   0  0  2  0  0  0  0  0  0  0  0  0
  149.7179  136.9879  155.4015 C   0  0  0  0  0  0  0  0  0  0  0  0
  151.0582  137.1329  156.0889 C   0  0  0  0  0  0  0  0  0  0  0  0
  151.0008  136.7623  154.6293 C   0  0  0  0  0  0  0  0  0  0  0  0
  148.0201  138.0292  153.8773 N   0  3  0  0  0  0  0  0  0  0  0  0
  146.8765  137.1001  154.0013 C   0  0  0  0  0  0  0  0  0  0  0  0
  145.9288  137.4304  152.8434 C   0  0  0  0  0  0  0  0  0  0  0  0
  146.3542  138.8145  152.3437 C   0  0  0  0  0  0  0  0  0  0  0  0
  147.4535  139.2697  153.3041 C   0  0  0  0  0  0  0  0  0  0  0  0
  154.0100  142.6975  160.2373 H   0  0  0  0  0  0  0  0  0  0  0  0
  153.9426  141.7150  158.7569 H   0  0  0  0  0  0  0  0  0  0  0  0
  152.7698  141.4324  160.0729 H   0  0  0  0  0  0  0  0  0  0  0  0
  152.8996  144.9424  160.0474 H   0  0  0  0  0  0  0  0  0  0  0  0
  150.9365  146.0049  158.3793 H   0  0  0  0  0  0  0  0  0  0  0  0
  152.3540  141.1999  156.9045 H   0  0  0  0  0  0  0  0  0  0  0  0
  151.0665  140.8298  158.0377 H   0  0  0  0  0  0  0  0  0  0  0  0
  149.6806  142.4497  156.2657 H   0  0  0  0  0  0  0  0  0  0  0  0
  150.8646  141.7681  155.1748 H   0  0  0  0  0  0  0  0  0  0  0  0
  148.9060  140.1896  156.7392 H   0  0  0  0  0  0  0  0  0  0  0  0
  148.1332  138.3461  155.9508 H   0  0  0  0  0  0  0  0  0  0  0  0
  149.1556  136.0856  155.6374 H   0  0  0  0  0  0  0  0  0  0  0  0
  151.3999  138.1362  156.3354 H   0  0  0  0  0  0  0  0  0  0  0  0
  151.3454  136.3564  156.7948 H   0  0  0  0  0  0  0  0  0  0  0  0
  151.2524  135.7384  154.3604 H   0  0  0  0  0  0  0  0  0  0  0  0
  151.3055  137.5205  153.9106 H   0  0  0  0  0  0  0  0  0  0  0  0
  147.1976  136.0581  153.9831 H   0  0  0  0  0  0  0  0  0  0  0  0
  146.3646  137.2786  154.9484 H   0  0  0  0  0  0  0  0  0  0  0  0
  146.0293  136.6972  152.0421 H   0  0  0  0  0  0  0  0  0  0  0  0
  144.8885  137.4179  153.1706 H   0  0  0  0  0  0  0  0  0  0  0  0
  146.7532  138.7332  151.3318 H   0  0  0  0  0  0  0  0  0  0  0  0
  145.5230  139.5200  152.3142 H   0  0  0  0  0  0  0  0  0  0  0  0
  147.0154  139.8725  154.1013 H   0  0  0  0  0  0  0  0  0  0  0  0
  148.2086  139.8750  152.8013 H   0  0  0  0  0  0  0  0  0  0  0  0
  148.6319  137.6392  153.1744 H   0  0  0  0  0  0  0  0  0  0  0  0
  150.2062  144.0625  156.9330 H   0  0  0  0  0  0  0  0  0  0  0  0
  1  2  1  0  0  0  0
  1 21  1  0  0  0  0
  1 22  1  0  0  0  0
  1 23  1  0  0  0  0
  2  6  1  0  0  0  0
  2  3  1  0  0  0  0
  3  4  2  0  0  0  0
  3 24  1  0  0  0  0
  4  5  1  0  0  0  0
  4 25  1  0  0  0  0
  5  6  2  0  0  0  0
  5 46  1  0  0  0  0
  6  7  1  0  0  0  0
  7  8  1  0  0  0  0
  7 26  1  0  0  0  0
  7 27  1  0  0  0  0
  8  9  1  0  0  0  0
  8 28  1  0  0  0  0
  8 29  1  0  0  0  0
  9 10  1  0  0  0  0
  9 30  1  0  0  0  0
 10 11  2  0  0  0  0
 10 12  1  0  0  0  0
 12 13  1  0  0  0  0
 12 16  1  0  0  0  0
 12 31  1  0  0  0  0
 13 15  1  0  0  0  0
 13 14  1  0  0  0  0
 13 32  1  0  0  0  0
 14 15  1  0  0  0  0
 14 33  1  0  0  0  0
 14 34  1  0  0  0  0
 15 35  1  0  0  0  0
 15 36  1  0  0  0  0
 16 20  1  0  0  0  0
 16 17  1  0  0  0  0
 16 45  1  0  0  0  0
 17 18  1  0  0  0  0
 17 37  1  0  0  0  0
 17 38  1  0  0  0  0
 18 19  1  0  0  0  0
 18 39  1  0  0  0  0
 18 40  1  0  0  0  0
 19 20  1  0  0  0  0
 19 41  1  0  0  0  0
 19 42  1  0  0  0  0
 20 43  1  0  0  0  0
 20 44  1  0  0  0  0
M  CHG  1   5   1
M  CHG  1  16   1
M  END
> <s_m_source_file>
AV-unprocessed.smi

> <i_m_source_file_index>
2252

> <i_lp_mmshare_version>
43012

> <i_f3d_flags>
0

> <s_epik_input>
W0NIM11uMVtjSF1bY0hdbmMxW0NIMl1bQ0gyXVtOSF1DKD1PKVtDQEhdKFtDSF0yW0NIMl1bQ0gyXTIpTjNbQ0gyXVtDSDJdW0NIMl1bQ0gyXTM=

> <s_epik_cmdline>
J2VwaWtfcHl0aG9uJywgJy1waCcsICc3LjAnLCAnLXRuJywgJzgnLCAnLW1hJywgJzIwMCcsICctbWV0YWxfYmluZGluZycsICctaW1hZScsICc8aW5maWxlLm1hZT4nLCAnLW9tYWUnLCAnPG91dGZpbGUubWFlPic=

> <r_lp_tautomer_probability>
1

> <r_epik_Ionization_Penalty>
0.116886

> <r_epik_Ionization_Penalty_Charging>
0.00955009

> <r_epik_Ionization_Penalty_Neutral>
0.107336

> <r_epik_State_Penalty>
0.0956868

> <r_epik_Charging_Adjusted_Penalty>
0.105237

> <i_epik_Tot_Q>
2

> <i_epik_Tot_abs_Q>
2

> <r_epik_Metal_State_Penalty>
0.438836

> <b_epik_Metal_Only>
0

> <s_lp_Force_Field>
OPLS_2005

> <r_lp_Energy>
40.5803

> <b_lp_Chiralities_Consistent>
1

> <s_lp_Variant>
AV-unprocessed.smi:2252-1

> <Gold.Version>
5.8.1

> <Gold.Id.Protein>
6NUR|6NUR_protein|mol2

> <Gold.PLP.Fitness>
51.9807

> <Gold.PLP.PLP>
-38.2293

> <Gold.PLP.part.hbond>
-3.0000

> <Gold.PLP.part.metal>
0.0000

> <Gold.PLP.part.buried>
-1.2713

> <Gold.PLP.part.nonpolar>
-34.8287

> <Gold.PLP.part.repulsive>
0.3334

> <Gold.PLP.ligand.clash>
0.0000

> <Gold.PLP.ligand.torsion>
1.2118

> <Gold.PLP.Chemscore.Hbond>
5.0000

> <Gold.PLP.Chemscore.CHOScore>
0.0000

> <Gold.PLP.Chemscore.Metal>
0.0000

> <Gold.Chemscore.Hbonds>
donor molecule, donor type, donor heavy atom, donor atom, acceptor molecule, acceptor atom, score
      L1  H     5    46       P1  8028  2.00
      L1  H    16    45       P1  7948  1.95
      P1  H  7989  7998       L1    11  1.00

> <Gold.PLP.Chemscore.Internal.Correction>
1.1751

> <Gold.Rescore>
     Score         DG    S(hbond)    S(metal)    S(lipo)     H(rot)  DE(clash)    DE(int)     intcor
     17.17     -21.04       2.95        0.00      93.57       2.05       1.33       2.55       ----

> <Gold.Chemscore.Fitness>
17.1682

> <Gold.Chemscore.DG>
-21.0435

> <Gold.Chemscore.ZeroCoef>
-5.4800

> <Gold.Chemscore.Hbond>
2.9498

> <Gold.Chemscore.Metal>
0.0000

> <Gold.Chemscore.Lipo>
93.5718

> <Gold.Chemscore.Internal_Hbond>
0.0000

> <Gold.Chemscore.DEClash>
1.3294

> <Gold.Chemscore.DEInternal>
2.5459

> <Gold.Chemscore.Rot>
2.0456

> <Gold.Chemscore.Internal.Correction>
   9.000000E+99

> <Gold.Chemscore.Hbonds>
donor molecule, donor type, donor heavy atom, donor atom, acceptor molecule, acceptor atom, score
      L1  H     5    46       P1  8028  0.96
      L1  H    16    45       P1  7948  0.93
      P1  H  7989  7998       L1    11  1.00

> <Gold.Chemscore.Hbond.Weighted>
-9.8524

> <Gold.Chemscore.Metal.Weighted>
-0.0000

> <Gold.Chemscore.Lipo.Weighted>
-10.9479

> <Gold.Chemscore.Internal_Hbond.Weighted>
0.0000

> <Gold.Chemscore.DEClash.Weighted>
1.3294

> <Gold.Chemscore.DEInternal.Weighted>
2.5459

> <Gold.Chemscore.Rot.Weighted>
5.2368

> <Gold.Chemscore.Internal.Correction.Weighted>
   9.000000E+99

> <Gold.Protein.RotatedTorsions>
[ 6907 6896 6895 6894 ] final   56.31 input  -60.11 | X-H torsion
[ 7974 7965 7964 7962 ] final  -97.22 input  175.53 | X-H torsion
[ 8008 7997 7996 7995 ] final    7.80 input   59.86 | X-H torsion
[ 10167 10162 10161 10158 ] final   96.04 input  -65.29 | X-H torsion
[ 10718 10713 10712 10709 ] final  -70.63 input   66.30 | X-H torsion
[ 10763 10752 10751 10750 ] final -137.10 input  -60.55 | X-H torsion
[ 11005 11000 10999 10996 ] final -116.34 input  -57.11 | X-H torsion

> <Gold.Protein.ActiveResidues>
 VAL166  LYS551  ARG553  GLY616  TRP617  ASP618  TYR619  PRO620  LYS621  CYS622 
 ASP623  PHE694  ASN695  SER759  ASP760  ASP761  ALA762  ILE779  LEU786  VAL792 
 PHE793  MET794  SER795  GLU796  ALA797  LYS798  CYS799  TRP800  GLU811  SER814 

> <Gold.Protein.RotatedAtoms>
  152.3624  134.6853  160.0202 H   0  0  0  0  0  0  0  0  0  0  0  0  # atno 6907 bound_to 6896
  151.7172  133.3308  159.3314 H   0  0  0  0  0  0  0  0  0  0  0  0  # atno 6908 bound_to 6896
  150.7614  134.6414  159.6284 H   0  0  0  0  0  0  0  0  0  0  0  0  # atno 6909 bound_to 6896
  145.3366  140.9452  143.2632 H   0  0  0  0  0  0  0  0  0  0  0  0  # atno 7974 bound_to 7965
  154.7586  140.2780  155.6233 H   0  0  0  0  0  0  0  0  0  0  0  0  # atno 8008 bound_to 7997
  156.2911  140.2664  156.2285 H   0  0  0  0  0  0  0  0  0  0  0  0  # atno 8009 bound_to 7997
  155.0046  140.0372  157.2364 H   0  0  0  0  0  0  0  0  0  0  0  0  # atno 8010 bound_to 7997
  139.7931  144.6844  150.9865 H   0  0  0  0  0  0  0  0  0  0  0  0  # atno 10167 bound_to 10162
  156.0399  130.4335  150.2324 H   0  0  0  0  0  0  0  0  0  0  0  0  # atno 10718 bound_to 10713
  154.8669  135.3652  154.5168 H   0  0  0  0  0  0  0  0  0  0  0  0  # atno 10763 bound_to 10752
  153.5800  135.7018  153.5472 H   0  0  0  0  0  0  0  0  0  0  0  0  # atno 10764 bound_to 10752
  153.3465  135.4083  155.1575 H   0  0  0  0  0  0  0  0  0  0  0  0  # atno 10765 bound_to 10752
  141.0428  133.9809  157.2966 H   0  0  0  0  0  0  0  0  0  0  0  0  # atno 11005 bound_to 11000
  144.8823  139.4887  143.6717 LP  0  0  0  0  0  0  0  0  0  0  0  0  # atno 17320 bound_to 7965
  146.3024  139.7470  142.9081 LP  0  0  0  0  0  0  0  0  0  0  0  0  # atno 17321 bound_to 7965
  140.7820  143.4360  151.0623 LP  0  0  0  0  0  0  0  0  0  0  0  0  # atno 17342 bound_to 10162
  139.8035  143.8050  152.3165 LP  0  0  0  0  0  0  0  0  0  0  0  0  # atno 17343 bound_to 10162
  157.0420  131.0038  151.3280 LP  0  0  0  0  0  0  0  0  0  0  0  0  # atno 17370 bound_to 10713
  157.5202  130.7993  149.7801 LP  0  0  0  0  0  0  0  0  0  0  0  0  # atno 17371 bound_to 10713
  139.9289  135.0201  156.8331 LP  0  0  0  0  0  0  0  0  0  0  0  0  # atno 17394 bound_to 11000
  140.6202  134.0001  155.7615 LP  0  0  0  0  0  0  0  0  0  0  0  0  # atno 17395 bound_to 11000

$$$$
