AV-unprocessed.smi:745|AV-procd|sdf|3572|dock3
  -GOLD-   22720 0563D 1   1.00000     0.00000
 Structure written by MMmdl.
 42 43  0  0  0  0  0  0  0  0  2 V2000
  149.7332  139.3474  154.9552 C   0  0  0  0  0  0  0  0  0  0  0  0
  148.7795  140.5493  154.8394 C   0  0  2  0  0  0  0  0  0  0  0  0
  149.4017  141.6788  155.5320 N   0  0  0  0  0  0  0  0  0  0  0  0
  149.9360  141.6509  156.7629 C   0  0  0  0  0  0  0  0  0  0  0  0
  150.0022  140.6330  157.4527 O   0  0  0  0  0  0  0  0  0  0  0  0
  150.3859  142.8655  157.1238 N   0  0  0  0  0  0  0  0  0  0  0  0
  151.0185  143.2420  158.3386 C   0  0  0  0  0  0  0  0  0  0  0  0
  151.2454  144.6285  158.4904 C   0  0  0  0  0  0  0  0  0  0  0  0
  151.8676  145.1048  159.6607 C   0  0  0  0  0  0  0  0  0  0  0  0
  152.2479  144.1810  160.6503 C   0  0  0  0  0  0  0  0  0  0  0  0
  151.9862  142.8178  160.4201 C   0  0  0  0  0  0  0  0  0  0  0  0
  151.3906  142.3590  159.2990 N   0  0  0  0  0  0  0  0  0  0  0  0
  147.3571  140.2659  155.3984 C   0  0  2  0  0  0  0  0  0  0  0  0
  146.7130  139.0188  154.7523 C   0  0  0  0  0  0  0  0  0  0  0  0
  145.2886  138.7669  155.2735 C   0  0  0  0  0  0  0  0  0  0  0  0
  144.4261  139.9517  155.0552 N   0  3  1  0  0  0  0  0  0  0  0  0
  143.0163  139.6998  155.4228 C   0  0  0  0  0  0  0  0  0  0  0  0
  144.9777  141.1565  155.7182 C   0  0  0  0  0  0  0  0  0  0  0  0
  146.3957  141.4635  155.2104 C   0  0  0  0  0  0  0  0  0  0  0  0
  149.4119  138.5118  154.3345 H   0  0  0  0  0  0  0  0  0  0  0  0
  149.8073  138.9944  155.9843 H   0  0  0  0  0  0  0  0  0  0  0  0
  150.7376  139.6139  154.6238 H   0  0  0  0  0  0  0  0  0  0  0  0
  148.6872  140.7819  153.7768 H   0  0  0  0  0  0  0  0  0  0  0  0
  149.4001  142.5614  155.0417 H   0  0  0  0  0  0  0  0  0  0  0  0
  150.2588  143.6089  156.4533 H   0  0  0  0  0  0  0  0  0  0  0  0
  150.9468  145.3247  157.7200 H   0  0  0  0  0  0  0  0  0  0  0  0
  152.0494  146.1608  159.7955 H   0  0  0  0  0  0  0  0  0  0  0  0
  152.7273  144.5080  161.5611 H   0  0  0  0  0  0  0  0  0  0  0  0
  152.2628  142.0756  161.1543 H   0  0  0  0  0  0  0  0  0  0  0  0
  147.4479  140.0784  156.4698 H   0  0  0  0  0  0  0  0  0  0  0  0
  146.6878  139.1370  153.6680 H   0  0  0  0  0  0  0  0  0  0  0  0
  147.3110  138.1302  154.9524 H   0  0  0  0  0  0  0  0  0  0  0  0
  144.8617  137.9047  154.7597 H   0  0  0  0  0  0  0  0  0  0  0  0
  145.3141  138.5219  156.3367 H   0  0  0  0  0  0  0  0  0  0  0  0
  142.9212  139.4900  156.4890 H   0  0  0  0  0  0  0  0  0  0  0  0
  142.6208  138.8474  154.8692 H   0  0  0  0  0  0  0  0  0  0  0  0
  142.3967  140.5655  155.1870 H   0  0  0  0  0  0  0  0  0  0  0  0
  144.3293  142.0111  155.5204 H   0  0  0  0  0  0  0  0  0  0  0  0
  144.9883  141.0087  156.7993 H   0  0  0  0  0  0  0  0  0  0  0  0
  146.7653  142.3408  155.7409 H   0  0  0  0  0  0  0  0  0  0  0  0
  146.3526  141.7380  154.1553 H   0  0  0  0  0  0  0  0  0  0  0  0
  144.4353  140.1380  154.0625 H   0  0  0  0  0  0  0  0  0  0  0  0
  1  2  1  0  0  0  0
  1 20  1  0  0  0  0
  1 21  1  0  0  0  0
  1 22  1  0  0  0  0
  2  3  1  0  0  0  0
  2 13  1  0  0  0  0
  2 23  1  0  0  0  0
  3  4  1  0  0  0  0
  3 24  1  0  0  0  0
  4  5  2  0  0  0  0
  4  6  1  0  0  0  0
  6  7  1  0  0  0  0
  6 25  1  0  0  0  0
  7 12  1  0  0  0  0
  7  8  2  0  0  0  0
  8  9  1  0  0  0  0
  8 26  1  0  0  0  0
  9 10  2  0  0  0  0
  9 27  1  0  0  0  0
 10 11  1  0  0  0  0
 10 28  1  0  0  0  0
 11 12  2  0  0  0  0
 11 29  1  0  0  0  0
 13 19  1  0  0  0  0
 13 14  1  0  0  0  0
 13 30  1  0  0  0  0
 14 15  1  0  0  0  0
 14 31  1  0  0  0  0
 14 32  1  0  0  0  0
 15 16  1  0  0  0  0
 15 33  1  0  0  0  0
 15 34  1  0  0  0  0
 16 17  1  0  0  0  0
 16 18  1  0  0  0  0
 16 42  1  0  0  0  0
 17 35  1  0  0  0  0
 17 36  1  0  0  0  0
 17 37  1  0  0  0  0
 18 19  1  0  0  0  0
 18 38  1  0  0  0  0
 18 39  1  0  0  0  0
 19 40  1  0  0  0  0
 19 41  1  0  0  0  0
M  CHG  1  16   1
M  END
> <s_m_source_file>
AV-unprocessed.smi

> <i_m_source_file_index>
745

> <i_lp_mmshare_version>
43012

> <i_f3d_flags>
0

> <s_epik_input>
W0NIMl0xW0NIMl1OKFtDSDNdKVtDSDJdW0NIMl1bQ0hdMVtDQEhdKFtDSDNdKVtOSF1DKD1PKVtOSF1jMltjSF1bY0hdW2NIXVtjSF1uMg==

> <s_epik_cmdline>
J2VwaWtfcHl0aG9uJywgJy1waCcsICc3LjAnLCAnLXRuJywgJzgnLCAnLW1hJywgJzIwMCcsICctbWV0YWxfYmluZGluZycsICctaW1hZScsICc8aW5maWxlLm1hZT4nLCAnLW9tYWUnLCAnPG91dGZpbGUubWFlPic=

> <r_epik_Ionization_Penalty>
0.0011087

> <r_epik_Ionization_Penalty_Charging>
0.00106265

> <r_epik_Ionization_Penalty_Neutral>
4.60506e-05

> <r_epik_State_Penalty>
0.000695551

> <r_epik_Charging_Adjusted_Penalty>
0.0017582

> <i_epik_Tot_Q>
1

> <i_epik_Tot_abs_Q>
1

> <r_epik_Metal_State_Penalty>
-0

> <b_epik_Metal_Only>
0

> <s_lp_Force_Field>
OPLS_2005

> <r_lp_Energy>
20.1287

> <b_lp_Chiralities_Consistent>
1

> <s_lp_Variant>
AV-unprocessed.smi:745-1

> <Gold.Version>
5.8.1

> <Gold.Id.Protein>
6NUR|6NUR_protein|mol2

> <Gold.PLP.Fitness>
43.6273

> <Gold.PLP.PLP>
-32.5624

> <Gold.PLP.part.hbond>
-3.0000

> <Gold.PLP.part.metal>
0.0000

> <Gold.PLP.part.buried>
-4.0536

> <Gold.PLP.part.nonpolar>
-25.7180

> <Gold.PLP.part.repulsive>
0.2237

> <Gold.PLP.ligand.clash>
0.0000

> <Gold.PLP.ligand.torsion>
0.1881

> <Gold.PLP.Chemscore.Hbond>
3.8080

> <Gold.PLP.Chemscore.CHOScore>
0.0000

> <Gold.PLP.Chemscore.Metal>
0.0000

> <Gold.Chemscore.Hbonds>
donor molecule, donor type, donor heavy atom, donor atom, acceptor molecule, acceptor atom, score
      L1  H     3    24       P1  8028  0.23
      L1  H     6    25       P1  8028  0.85
      L1  H    16    42       P1 10175  2.00

> <Gold.PLP.Chemscore.Internal.Correction>
0.0172

> <Gold.Rescore>
     Score         DG    S(hbond)    S(metal)    S(lipo)     H(rot)  DE(clash)    DE(int)     intcor
     17.43     -20.63       2.81        0.00      76.90       1.26       0.43       2.78       ----

> <Gold.Chemscore.Fitness>
17.4270

> <Gold.Chemscore.DG>
-20.6329

> <Gold.Chemscore.ZeroCoef>
-5.4800

> <Gold.Chemscore.Hbond>
2.8090

> <Gold.Chemscore.Metal>
0.0000

> <Gold.Chemscore.Lipo>
76.8958

> <Gold.Chemscore.Internal_Hbond>
0.0000

> <Gold.Chemscore.DEClash>
0.4286

> <Gold.Chemscore.DEInternal>
2.7772

> <Gold.Chemscore.Rot>
1.2601

> <Gold.Chemscore.Internal.Correction>
   9.000000E+99

> <Gold.Chemscore.Hbonds>
donor molecule, donor type, donor heavy atom, donor atom, acceptor molecule, acceptor atom, score
      L1  H     3    24       P1  8028  0.22
      L1  H     6    25       P1  8028  0.83
      L1  H    16    42       P1 10175  0.97

> <Gold.Chemscore.Hbond.Weighted>
-9.3820

> <Gold.Chemscore.Metal.Weighted>
-0.0000

> <Gold.Chemscore.Lipo.Weighted>
-8.9968

> <Gold.Chemscore.Internal_Hbond.Weighted>
0.0000

> <Gold.Chemscore.DEClash.Weighted>
0.4286

> <Gold.Chemscore.DEInternal.Weighted>
2.7772

> <Gold.Chemscore.Rot.Weighted>
3.2260

> <Gold.Chemscore.Internal.Correction.Weighted>
   9.000000E+99

> <Gold.Protein.RotatedTorsions>
[ 6907 6896 6895 6894 ] final  121.32 input  -60.11 | X-H torsion
[ 7974 7965 7964 7962 ] final  -70.07 input  175.53 | X-H torsion
[ 8008 7997 7996 7995 ] final   -7.83 input   59.86 | X-H torsion
[ 10167 10162 10161 10158 ] final   32.19 input  -65.29 | X-H torsion
[ 10718 10713 10712 10709 ] final  -66.69 input   66.30 | X-H torsion
[ 10763 10752 10751 10750 ] final  104.71 input  -60.55 | X-H torsion
[ 11005 11000 10999 10996 ] final  -14.58 input  -57.11 | X-H torsion

> <Gold.Protein.ActiveResidues>
 VAL166  LYS551  ARG553  GLY616  TRP617  ASP618  TYR619  PRO620  LYS621  CYS622 
 ASP623  PHE694  ASN695  SER759  ASP760  ASP761  ALA762  ILE779  LEU786  VAL792 
 PHE793  MET794  SER795  GLU796  ALA797  LYS798  CYS799  TRP800  GLU811  SER814 

> <Gold.Protein.RotatedAtoms>
  152.4331  133.7312  159.6588 H   0  0  0  0  0  0  0  0  0  0  0  0  # atno 6907 bound_to 6896
  150.8212  133.8239  159.3144 H   0  0  0  0  0  0  0  0  0  0  0  0  # atno 6908 bound_to 6896
  151.5921  135.1055  160.0093 H   0  0  0  0  0  0  0  0  0  0  0  0  # atno 6909 bound_to 6896
  145.6957  140.9136  143.0758 H   0  0  0  0  0  0  0  0  0  0  0  0  # atno 7974 bound_to 7965
  154.5800  140.2397  155.8067 H   0  0  0  0  0  0  0  0  0  0  0  0  # atno 8008 bound_to 7997
  156.2172  140.3008  155.9823 H   0  0  0  0  0  0  0  0  0  0  0  0  # atno 8009 bound_to 7997
  155.2558  140.0412  157.2982 H   0  0  0  0  0  0  0  0  0  0  0  0  # atno 8010 bound_to 7997
  140.4521  144.1032  150.6194 H   0  0  0  0  0  0  0  0  0  0  0  0  # atno 10167 bound_to 10162
  156.0598  130.4266  150.1745 H   0  0  0  0  0  0  0  0  0  0  0  0  # atno 10718 bound_to 10713
  153.3696  135.3934  155.1779 H   0  0  0  0  0  0  0  0  0  0  0  0  # atno 10763 bound_to 10752
  154.8692  135.3699  154.4994 H   0  0  0  0  0  0  0  0  0  0  0  0  # atno 10764 bound_to 10752
  153.5461  135.7083  153.5674 H   0  0  0  0  0  0  0  0  0  0  0  0  # atno 10765 bound_to 10752
  140.7878  133.8311  155.9351 H   0  0  0  0  0  0  0  0  0  0  0  0  # atno 11005 bound_to 11000
  144.6983  139.8881  143.7451 LP  0  0  0  0  0  0  0  0  0  0  0  0  # atno 17320 bound_to 7965
  146.0842  139.3830  143.0445 LP  0  0  0  0  0  0  0  0  0  0  0  0  # atno 17321 bound_to 7965
  140.4194  143.2618  151.9734 LP  0  0  0  0  0  0  0  0  0  0  0  0  # atno 17342 bound_to 10162
  139.4797  144.5844  151.7878 LP  0  0  0  0  0  0  0  0  0  0  0  0  # atno 17343 bound_to 10162
  156.9815  130.9866  151.3436 LP  0  0  0  0  0  0  0  0  0  0  0  0  # atno 17370 bound_to 10713
  157.5598  130.8238  149.8251 LP  0  0  0  0  0  0  0  0  0  0  0  0  # atno 17371 bound_to 10713
  140.9419  134.1890  157.4791 LP  0  0  0  0  0  0  0  0  0  0  0  0  # atno 17394 bound_to 11000
  139.8734  134.9875  156.5371 LP  0  0  0  0  0  0  0  0  0  0  0  0  # atno 17395 bound_to 11000

$$$$
