AV-unprocessed.smi:1042|AV-procd|sdf|4538|dock2
  -GOLD-   22720 2563D 1   1.00000     0.00000
 Structure written by MMmdl.
 40 42  0  0  0  0  0  0  0  0  2 V2000
  151.4524  141.1250  156.3649 O   0  0  0  0  0  0  0  0  0  0  0  0
  150.5707  141.9841  156.3845 C   0  0  0  0  0  0  0  0  0  0  0  0
  149.5226  141.9831  155.5478 N   0  0  0  0  0  0  0  0  0  0  0  0
  149.2834  140.9922  154.5030 C   0  0  0  0  0  0  0  0  0  0  0  0
  149.6913  139.5699  154.9352 C   0  0  2  0  0  0  0  0  0  0  0  0
  150.9063  139.0197  154.1949 C   0  0  0  0  0  0  0  0  0  0  0  0
  150.7919  137.5188  154.4471 C   0  0  0  0  0  0  0  0  0  0  0  0
  149.3426  137.2261  154.4319 N   0  3  1  0  0  0  0  0  0  0  0  0
  148.9491  136.1034  155.3099 C   0  0  0  0  0  0  0  0  0  0  0  0
  149.1884  134.7440  154.6977 C   0  0  0  0  0  0  0  0  0  0  0  0
  147.7842  135.3030  154.7789 C   0  0  0  0  0  0  0  0  0  0  0  0
  148.6215  138.4914  154.7062 C   0  0  0  0  0  0  0  0  0  0  0  0
  150.5212  143.0315  157.2263 N   0  0  0  0  0  0  0  0  0  0  0  0
  151.4229  143.3582  158.2739 C   0  0  0  0  0  0  0  0  0  0  0  0
  151.2057  144.6162  158.8801 C   0  0  0  0  0  0  0  0  0  0  0  0
  152.0452  145.0329  159.9314 C   0  0  0  0  0  0  0  0  0  0  0  0
  153.0796  144.1784  160.3520 C   0  0  0  0  0  0  0  0  0  0  0  0
  153.2262  142.9421  159.6963 C   0  0  0  0  0  0  0  0  0  0  0  0
  152.4233  142.5412  158.6879 N   0  0  0  0  0  0  0  0  0  0  0  0
  148.8499  142.7317  155.6282 H   0  0  0  0  0  0  0  0  0  0  0  0
  148.2221  141.0177  154.2540 H   0  0  0  0  0  0  0  0  0  0  0  0
  149.8193  141.2793  153.5967 H   0  0  0  0  0  0  0  0  0  0  0  0
  149.9374  139.5767  155.9986 H   0  0  0  0  0  0  0  0  0  0  0  0
  150.8287  139.2255  153.1261 H   0  0  0  0  0  0  0  0  0  0  0  0
  151.8473  139.4380  154.5536 H   0  0  0  0  0  0  0  0  0  0  0  0
  151.3277  136.9251  153.7061 H   0  0  0  0  0  0  0  0  0  0  0  0
  151.2073  137.2843  155.4289 H   0  0  0  0  0  0  0  0  0  0  0  0
  149.0725  136.2577  156.3807 H   0  0  0  0  0  0  0  0  0  0  0  0
  149.6546  134.6958  153.7152 H   0  0  0  0  0  0  0  0  0  0  0  0
  149.4393  133.9270  155.3714 H   0  0  0  0  0  0  0  0  0  0  0  0
  147.1105  134.8535  155.5054 H   0  0  0  0  0  0  0  0  0  0  0  0
  147.3170  135.6267  153.8504 H   0  0  0  0  0  0  0  0  0  0  0  0
  147.9496  138.4133  155.5627 H   0  0  0  0  0  0  0  0  0  0  0  0
  148.0117  138.7255  153.8326 H   0  0  0  0  0  0  0  0  0  0  0  0
  149.7463  143.6672  157.1087 H   0  0  0  0  0  0  0  0  0  0  0  0
  150.4058  145.2607  158.5451 H   0  0  0  0  0  0  0  0  0  0  0  0
  151.8970  145.9914  160.4066 H   0  0  0  0  0  0  0  0  0  0  0  0
  153.7435  144.4625  161.1551 H   0  0  0  0  0  0  0  0  0  0  0  0
  154.0081  142.2571  159.9886 H   0  0  0  0  0  0  0  0  0  0  0  0
  149.1068  136.9661  153.4848 H   0  0  0  0  0  0  0  0  0  0  0  0
  1  2  2  0  0  0  0
  2  3  1  0  0  0  0
  2 13  1  0  0  0  0
  3  4  1  0  0  0  0
  3 20  1  0  0  0  0
  4  5  1  0  0  0  0
  4 21  1  0  0  0  0
  4 22  1  0  0  0  0
  5 12  1  0  0  0  0
  5  6  1  0  0  0  0
  5 23  1  0  0  0  0
  6  7  1  0  0  0  0
  6 24  1  0  0  0  0
  6 25  1  0  0  0  0
  7  8  1  0  0  0  0
  7 26  1  0  0  0  0
  7 27  1  0  0  0  0
  8  9  1  0  0  0  0
  8 12  1  0  0  0  0
  8 40  1  0  0  0  0
  9 11  1  0  0  0  0
  9 10  1  0  0  0  0
  9 28  1  0  0  0  0
 10 11  1  0  0  0  0
 10 29  1  0  0  0  0
 10 30  1  0  0  0  0
 11 31  1  0  0  0  0
 11 32  1  0  0  0  0
 12 33  1  0  0  0  0
 12 34  1  0  0  0  0
 13 14  1  0  0  0  0
 13 35  1  0  0  0  0
 14 19  1  0  0  0  0
 14 15  2  0  0  0  0
 15 16  1  0  0  0  0
 15 36  1  0  0  0  0
 16 17  2  0  0  0  0
 16 37  1  0  0  0  0
 17 18  1  0  0  0  0
 17 38  1  0  0  0  0
 18 19  2  0  0  0  0
 18 39  1  0  0  0  0
M  CHG  1   8   1
M  END
> <s_m_source_file>
AV-unprocessed.smi

> <i_m_source_file_index>
1042

> <i_lp_mmshare_version>
43012

> <i_f3d_flags>
0

> <s_epik_input>
bjFbY0hdW2NIXVtjSF1bY0hdYzFbTkhdQyg9TylbTkhdW0NIMl1bQ0BASF0yW0NIMl1bQ0gyXU4oW0NIMl0yKVtDSF0zW0NIMl1bQ0gyXTM=

> <s_epik_cmdline>
J2VwaWtfcHl0aG9uJywgJy1waCcsICc3LjAnLCAnLXRuJywgJzgnLCAnLW1hJywgJzIwMCcsICctbWV0YWxfYmluZGluZycsICctaW1hZScsICc8aW5maWxlLm1hZT4nLCAnLW9tYWUnLCAnPG91dGZpbGUubWFlPic=

> <r_lp_tautomer_probability>
1

> <r_epik_Ionization_Penalty>
0.000244736

> <r_epik_Ionization_Penalty_Charging>
0.000203384

> <r_epik_Ionization_Penalty_Neutral>
4.13519e-05

> <r_epik_State_Penalty>
-0

> <r_epik_Charging_Adjusted_Penalty>
0.000203384

> <i_epik_Tot_Q>
1

> <i_epik_Tot_abs_Q>
1

> <r_epik_Metal_State_Penalty>
-0

> <b_epik_Metal_Only>
0

> <s_lp_Force_Field>
OPLS_2005

> <r_lp_Energy>
38.555

> <b_lp_Chiralities_Consistent>
1

> <s_lp_Variant>
AV-unprocessed.smi:1042-3

> <Gold.Version>
5.8.1

> <Gold.Id.Protein>
6NUR|6NUR_protein|mol2

> <Gold.PLP.Fitness>
46.1099

> <Gold.PLP.PLP>
-35.8737

> <Gold.PLP.part.hbond>
-3.0000

> <Gold.PLP.part.metal>
0.0000

> <Gold.PLP.part.buried>
-4.7599

> <Gold.PLP.part.nonpolar>
-29.1991

> <Gold.PLP.part.repulsive>
0.2002

> <Gold.PLP.ligand.clash>
0.0000

> <Gold.PLP.ligand.torsion>
1.5117

> <Gold.PLP.Chemscore.Hbond>
4.0000

> <Gold.PLP.Chemscore.CHOScore>
0.0000

> <Gold.PLP.Chemscore.Metal>
0.0000

> <Gold.Chemscore.Hbonds>
donor molecule, donor type, donor heavy atom, donor atom, acceptor molecule, acceptor atom, score
      L1  H     3    20       P1  8028  0.75
      L1  H     8    40       P1  7948  2.00
      L1  H    13    35       P1  8028  0.78

> <Gold.PLP.Chemscore.Internal.Correction>
1.2596

> <Gold.Rescore>
     Score         DG    S(hbond)    S(metal)    S(lipo)     H(rot)  DE(clash)    DE(int)     intcor
     16.57     -20.59       2.86        0.00      79.79       1.47       0.06       3.95       ----

> <Gold.Chemscore.Fitness>
16.5726

> <Gold.Chemscore.DG>
-20.5889

> <Gold.Chemscore.ZeroCoef>
-5.4800

> <Gold.Chemscore.Hbond>
2.8558

> <Gold.Chemscore.Metal>
0.0000

> <Gold.Chemscore.Lipo>
79.7896

> <Gold.Chemscore.Internal_Hbond>
0.0000

> <Gold.Chemscore.DEClash>
0.0618

> <Gold.Chemscore.DEInternal>
3.9546

> <Gold.Chemscore.Rot>
1.4707

> <Gold.Chemscore.Internal.Correction>
   9.000000E+99

> <Gold.Chemscore.Hbonds>
donor molecule, donor type, donor heavy atom, donor atom, acceptor molecule, acceptor atom, score
      L1  H     3    20       P1  8028  0.74
      L1  H     8    40       P1  7948  1.00
      L1  H    13    35       P1  8028  0.70

> <Gold.Chemscore.Hbond.Weighted>
-9.5385

> <Gold.Chemscore.Metal.Weighted>
-0.0000

> <Gold.Chemscore.Lipo.Weighted>
-9.3354

> <Gold.Chemscore.Internal_Hbond.Weighted>
0.0000

> <Gold.Chemscore.DEClash.Weighted>
0.0618

> <Gold.Chemscore.DEInternal.Weighted>
3.9546

> <Gold.Chemscore.Rot.Weighted>
3.7650

> <Gold.Chemscore.Internal.Correction.Weighted>
   9.000000E+99

> <Gold.Protein.RotatedTorsions>
[ 6907 6896 6895 6894 ] final  -89.68 input  -60.11 | X-H torsion
[ 7974 7965 7964 7962 ] final  -12.25 input  175.53 | X-H torsion
[ 8008 7997 7996 7995 ] final  -85.34 input   59.86 | X-H torsion
[ 10167 10162 10161 10158 ] final  -25.88 input  -65.29 | X-H torsion
[ 10718 10713 10712 10709 ] final   31.95 input   66.30 | X-H torsion
[ 10763 10752 10751 10750 ] final  127.24 input  -60.55 | X-H torsion
[ 11005 11000 10999 10996 ] final  114.56 input  -57.11 | X-H torsion

> <Gold.Protein.ActiveResidues>
 VAL166  LYS551  ARG553  GLY616  TRP617  ASP618  TYR619  PRO620  LYS621  CYS622 
 ASP623  PHE694  ASN695  SER759  ASP760  ASP761  ALA762  ILE779  LEU786  VAL792 
 PHE793  MET794  SER795  GLU796  ALA797  LYS798  CYS799  TRP800  GLU811  SER814 

> <Gold.Protein.RotatedAtoms>
  150.6875  134.2550  159.4525 H   0  0  0  0  0  0  0  0  0  0  0  0  # atno 6907 bound_to 6896
  152.0484  134.9666  160.0584 H   0  0  0  0  0  0  0  0  0  0  0  0  # atno 6908 bound_to 6896
  152.1140  133.4281  159.4681 H   0  0  0  0  0  0  0  0  0  0  0  0  # atno 6909 bound_to 6896
  146.2159  140.3030  142.8376 H   0  0  0  0  0  0  0  0  0  0  0  0  # atno 7974 bound_to 7965
  154.6396  140.0593  156.9830 H   0  0  0  0  0  0  0  0  0  0  0  0  # atno 8008 bound_to 7997
  155.1537  140.3276  155.4407 H   0  0  0  0  0  0  0  0  0  0  0  0  # atno 8009 bound_to 7997
  156.2524  140.1943  156.6648 H   0  0  0  0  0  0  0  0  0  0  0  0  # atno 8010 bound_to 7997
  140.7285  143.4226  151.0926 H   0  0  0  0  0  0  0  0  0  0  0  0  # atno 10167 bound_to 10162
  157.2791  130.7246  149.6546 H   0  0  0  0  0  0  0  0  0  0  0  0  # atno 10718 bound_to 10713
  153.7062  135.3275  155.3236 H   0  0  0  0  0  0  0  0  0  0  0  0  # atno 10763 bound_to 10752
  154.8398  135.4466  154.1361 H   0  0  0  0  0  0  0  0  0  0  0  0  # atno 10764 bound_to 10752
  153.2442  135.6974  153.7829 H   0  0  0  0  0  0  0  0  0  0  0  0  # atno 10765 bound_to 10752
  139.8984  134.9570  156.6911 H   0  0  0  0  0  0  0  0  0  0  0  0  # atno 11005 bound_to 11000
  144.9043  140.7681  143.5847 LP  0  0  0  0  0  0  0  0  0  0  0  0  # atno 17320 bound_to 7965
  145.2957  139.1868  143.4716 LP  0  0  0  0  0  0  0  0  0  0  0  0  # atno 17321 bound_to 7965
  139.7874  143.8268  152.3147 LP  0  0  0  0  0  0  0  0  0  0  0  0  # atno 17342 bound_to 10162
  139.8240  144.7283  150.9536 LP  0  0  0  0  0  0  0  0  0  0  0  0  # atno 17343 bound_to 10162
  155.9664  130.4344  150.5046 LP  0  0  0  0  0  0  0  0  0  0  0  0  # atno 17370 bound_to 10713
  157.2986  131.0640  151.2084 LP  0  0  0  0  0  0  0  0  0  0  0  0  # atno 17371 bound_to 10713
  140.7224  133.9129  155.8156 LP  0  0  0  0  0  0  0  0  0  0  0  0  # atno 17394 bound_to 11000
  141.0217  134.0880  157.4113 LP  0  0  0  0  0  0  0  0  0  0  0  0  # atno 17395 bound_to 11000

$$$$
