AV-unprocessed.smi:69|AV-procd|sdf|643|dock5
  -GOLD-   2262016533D 1   1.00000     0.00000
 Structure written by MMmdl.
 32 34  0  0  0  0  0  0  0  0  1 V2000
  150.5620  134.2627  156.9209 N   0  0  0  0  0  0  0  0  0  0  0  0
  150.3823  135.5901  156.9650 C   0  0  0  0  0  0  0  0  0  0  0  0
  149.8300  136.1279  158.0777 N   0  0  0  0  0  0  0  0  0  0  0  0
  149.6387  137.4494  158.1447 C   0  0  0  0  0  0  0  0  0  0  0  0
  149.9212  138.3821  157.2313 N   0  0  0  0  0  0  0  0  0  0  0  0
  150.4786  137.8380  156.1098 C   0  0  0  0  0  0  0  0  0  0  0  0
  150.7423  136.4558  155.9012 C   0  0  0  0  0  0  0  0  0  0  0  0
  151.3145  136.2664  154.6507 N   0  0  0  0  0  0  0  0  0  0  0  0
  151.3825  137.4713  154.1512 C   0  0  0  0  0  0  0  0  0  0  0  0
  150.8970  138.4764  154.9594 N   0  0  0  0  0  0  0  0  0  0  0  0
  150.8368  139.9397  154.6587 C   0  0  2  0  0  0  0  0  0  0  0  0
  151.4366  140.6244  155.7149 O   0  0  0  0  0  0  0  0  0  0  0  0
  150.6720  141.7815  156.0318 C   0  0  2  0  0  0  0  0  0  0  0  0
  150.9404  142.2002  157.4853 C   0  0  0  0  0  0  0  0  0  0  0  0
  150.1384  143.3111  157.8259 O   0  0  0  0  0  0  0  0  0  0  0  0
  149.2389  141.3066  155.7858 C   0  0  1  0  0  0  0  0  0  0  0  0
  148.3282  142.3763  155.6095 O   0  0  0  0  0  0  0  0  0  0  0  0
  149.3780  140.4171  154.5518 C   0  0  1  0  0  0  0  0  0  0  0  0
  149.1665  141.1337  153.3483 O   0  0  0  0  0  0  0  0  0  0  0  0
  151.4131  140.0628  153.7401 H   0  0  0  0  0  0  0  0  0  0  0  0
  150.9206  142.5825  155.3323 H   0  0  0  0  0  0  0  0  0  0  0  0
  148.9029  140.7017  156.6282 H   0  0  0  0  0  0  0  0  0  0  0  0
  148.6838  139.5759  154.5825 H   0  0  0  0  0  0  0  0  0  0  0  0
  150.9713  133.8382  156.1011 H   0  0  0  0  0  0  0  0  0  0  0  0
  150.2868  133.6901  157.7057 H   0  0  0  0  0  0  0  0  0  0  0  0
  149.1954  137.8116  159.0605 H   0  0  0  0  0  0  0  0  0  0  0  0
  151.7881  137.6605  153.1678 H   0  0  0  0  0  0  0  0  0  0  0  0
  150.6782  141.3888  158.1649 H   0  0  0  0  0  0  0  0  0  0  0  0
  151.9950  142.4275  157.6443 H   0  0  0  0  0  0  0  0  0  0  0  0
  149.7040  143.6188  157.0451 H   0  0  0  0  0  0  0  0  0  0  0  0
  148.8185  143.1835  155.5745 H   0  0  0  0  0  0  0  0  0  0  0  0
  148.8654  140.5269  152.6893 H   0  0  0  0  0  0  0  0  0  0  0  0
  1  2  1  0  0  0  0
  1 24  1  0  0  0  0
  1 25  1  0  0  0  0
  2  7  1  0  0  0  0
  2  3  2  0  0  0  0
  3  4  1  0  0  0  0
  4  5  2  0  0  0  0
  4 26  1  0  0  0  0
  5  6  1  0  0  0  0
  6 10  1  0  0  0  0
  6  7  2  0  0  0  0
  7  8  1  0  0  0  0
  8  9  2  0  0  0  0
  9 10  1  0  0  0  0
  9 27  1  0  0  0  0
 10 11  1  0  0  0  0
 11 20  1  0  0  0  0
 11 18  1  0  0  0  0
 11 12  1  0  0  0  0
 12 13  1  0  0  0  0
 13 21  1  0  0  0  0
 13 14  1  0  0  0  0
 13 16  1  0  0  0  0
 14 15  1  0  0  0  0
 14 28  1  0  0  0  0
 14 29  1  0  0  0  0
 15 30  1  0  0  0  0
 16 22  1  0  0  0  0
 16 17  1  0  0  0  0
 16 18  1  0  0  0  0
 17 31  1  0  0  0  0
 18 23  1  0  0  0  0
 18 19  1  0  0  0  0
 19 32  1  0  0  0  0
M  END
> <s_m_source_file>
AV-unprocessed.smi

> <i_m_source_file_index>
69

> <i_lp_mmshare_version>
43012

> <i_f3d_flags>
0

> <s_epik_input>
bjFbY0hdbmMoW05IMl0pYyhjMTIpbltjSF1uMltDQEBIXTNPW0NASF0oW0NIMl1bT0hdKVtDQEBIXShbT0hdKVtDQEhdM1tPSF0=

> <s_epik_cmdline>
J2VwaWtfcHl0aG9uJywgJy1waCcsICc3LjAnLCAnLXRuJywgJzgnLCAnLW1hJywgJzIwMCcsICctbWV0YWxfYmluZGluZycsICctaW1hZScsICc8aW5maWxlLm1hZT4nLCAnLW9tYWUnLCAnPG91dGZpbGUubWFlPic=

> <r_lp_tautomer_probability>
1

> <r_epik_Ionization_Penalty>
0.000428445

> <r_epik_Ionization_Penalty_Charging>
0

> <r_epik_Ionization_Penalty_Neutral>
0.000428445

> <r_epik_State_Penalty>
-0

> <r_epik_Charging_Adjusted_Penalty>
0

> <i_epik_Tot_Q>
0

> <i_epik_Tot_abs_Q>
0

> <r_epik_Metal_State_Penalty>
-0

> <b_epik_Metal_Only>
0

> <s_epik_Chemistry_Notes>
This compound contains an acetal/aminal-like group ( X-CH(R)-Y where X, Y are N, S, or O) that may be acid/base labile, releasing an aldehyde.

> <s_lp_Force_Field>
OPLS_2005

> <r_lp_Energy>
38.6476

> <b_lp_Chiralities_Consistent>
1

> <s_lp_Variant>
AV-unprocessed.smi:69-1

> <Gold.Version>
5.8.1

> <Gold.Id.Protein>
6NUR|6NUR_protein|mol2

> <Gold.PLP.Fitness>
43.5043

> <Gold.PLP.PLP>
-27.3081

> <Gold.PLP.part.hbond>
-7.4910

> <Gold.PLP.part.metal>
0.0000

> <Gold.PLP.part.buried>
-0.8116

> <Gold.PLP.part.nonpolar>
-20.7116

> <Gold.PLP.part.repulsive>
0.3317

> <Gold.PLP.ligand.clash>
0.0000

> <Gold.PLP.ligand.torsion>
0.0974

> <Gold.PLP.Chemscore.Hbond>
4.8614

> <Gold.PLP.Chemscore.CHOScore>
0.5980

> <Gold.PLP.Chemscore.Metal>
0.0000

> <Gold.Chemscore.Hbonds>
donor molecule, donor type, donor heavy atom, donor atom, acceptor molecule, acceptor atom, score
      L1  H    15    30       P1  8028  1.00
      L1  H    17    31       P1  8028  0.99
      L1  H    19    32       P1  7957  0.61
      P1  H  6896  6908       L1     3  0.10
      P1  H  8011  8017       L1    19  1.00
      P1  H 10752 10763       L1     8  1.00
      L1  C     9    27       P1  7949  0.69

> <Gold.PLP.Chemscore.Internal.Correction>
0.0128

> <Gold.Rescore>
     Score         DG    S(hbond)    S(metal)    S(lipo)     H(rot)  DE(clash)    DE(int)     intcor
     10.49     -12.10       3.92        0.00      32.84       4.03       1.57       0.04       ----

> <Gold.Chemscore.Fitness>
10.4908

> <Gold.Chemscore.DG>
-12.0953

> <Gold.Chemscore.ZeroCoef>
-5.4800

> <Gold.Chemscore.Hbond>
3.9173

> <Gold.Chemscore.Metal>
0.0000

> <Gold.Chemscore.Lipo>
32.8424

> <Gold.Chemscore.Internal_Hbond>
0.0000

> <Gold.Chemscore.DEClash>
1.5681

> <Gold.Chemscore.DEInternal>
0.0364

> <Gold.Chemscore.Rot>
4.0277

> <Gold.Chemscore.Internal.Correction>
   9.000000E+99

> <Gold.Chemscore.Hbonds>
donor molecule, donor type, donor heavy atom, donor atom, acceptor molecule, acceptor atom, score
      L1  H    15    30       P1  8028  0.93
      L1  H    17    31       P1  8028  0.88
      L1  H    19    32       P1  7957  0.60
      P1  H  6896  6908       L1     3  0.01
      P1  H  8011  8017       L1    19  0.25
      P1  H 10752 10763       L1     8  0.61

> <Gold.Chemscore.Hbond.Weighted>
-13.0837

> <Gold.Chemscore.Metal.Weighted>
-0.0000

> <Gold.Chemscore.Lipo.Weighted>
-3.8426

> <Gold.Chemscore.Internal_Hbond.Weighted>
0.0000

> <Gold.Chemscore.DEClash.Weighted>
1.5681

> <Gold.Chemscore.DEInternal.Weighted>
0.0364

> <Gold.Chemscore.Rot.Weighted>
10.3110

> <Gold.Chemscore.Internal.Correction.Weighted>
   9.000000E+99

> <Gold.Protein.RotatedTorsions>
[ 6907 6896 6895 6894 ] final  156.82 input  -60.11 | X-H torsion
[ 7974 7965 7964 7962 ] final   59.50 input  175.53 | X-H torsion
[ 8008 7997 7996 7995 ] final -119.97 input   59.86 | X-H torsion
[ 10167 10162 10161 10158 ] final  -28.85 input  -65.29 | X-H torsion
[ 10718 10713 10712 10709 ] final   35.14 input   66.30 | X-H torsion
[ 10763 10752 10751 10750 ] final   66.92 input  -60.55 | X-H torsion
[ 11005 11000 10999 10996 ] final  -31.53 input  -57.11 | X-H torsion

> <Gold.Protein.ActiveResidues>
 VAL166  LYS551  ARG553  GLY616  TRP617  ASP618  TYR619  PRO620  LYS621  CYS622 
 ASP623  PHE694  ASN695  SER759  ASP760  ASP761  ALA762  ILE779  LEU786  VAL792 
 PHE793  MET794  SER795  GLU796  ALA797  LYS798  CYS799  TRP800  GLU811  SER814 

> <Gold.Protein.RotatedAtoms>
  152.0242  133.3911  159.4270 H   0  0  0  0  0  0  0  0  0  0  0  0  # atno 6907 bound_to 6896
  150.6887  134.3593  159.4952 H   0  0  0  0  0  0  0  0  0  0  0  0  # atno 6908 bound_to 6896
  152.1370  134.9091  160.0606 H   0  0  0  0  0  0  0  0  0  0  0  0  # atno 6909 bound_to 6896
  145.9065  139.3621  143.0561 H   0  0  0  0  0  0  0  0  0  0  0  0  # atno 7974 bound_to 7965
  155.1244  140.0399  157.2758 H   0  0  0  0  0  0  0  0  0  0  0  0  # atno 8008 bound_to 7997
  154.6590  140.2586  155.7104 H   0  0  0  0  0  0  0  0  0  0  0  0  # atno 8009 bound_to 7997
  156.2611  140.2821  156.1054 H   0  0  0  0  0  0  0  0  0  0  0  0  # atno 8010 bound_to 7997
  140.7266  143.3976  151.1320 H   0  0  0  0  0  0  0  0  0  0  0  0  # atno 10167 bound_to 10162
  157.3190  130.7438  149.6773 H   0  0  0  0  0  0  0  0  0  0  0  0  # atno 10718 bound_to 10713
  153.0162  135.5303  154.6899 H   0  0  0  0  0  0  0  0  0  0  0  0  # atno 10763 bound_to 10752
  154.6036  135.2871  155.0510 H   0  0  0  0  0  0  0  0  0  0  0  0  # atno 10764 bound_to 10752
  154.1558  135.6555  153.5026 H   0  0  0  0  0  0  0  0  0  0  0  0  # atno 10765 bound_to 10752
  140.9475  133.7241  156.1170 H   0  0  0  0  0  0  0  0  0  0  0  0  # atno 11005 bound_to 11000
  145.8726  140.9411  143.0643 LP  0  0  0  0  0  0  0  0  0  0  0  0  # atno 17320 bound_to 7965
  144.6739  140.0674  143.7474 LP  0  0  0  0  0  0  0  0  0  0  0  0  # atno 17321 bound_to 7965
  139.7591  143.8662  152.3096 LP  0  0  0  0  0  0  0  0  0  0  0  0  # atno 17342 bound_to 10162
  139.8542  144.7149  150.9177 LP  0  0  0  0  0  0  0  0  0  0  0  0  # atno 17343 bound_to 10162
  155.9684  130.4229  150.4536 LP  0  0  0  0  0  0  0  0  0  0  0  0  # atno 17370 bound_to 10713
  157.2548  131.0554  151.2357 LP  0  0  0  0  0  0  0  0  0  0  0  0  # atno 17371 bound_to 10713
  140.7648  134.3898  157.5519 LP  0  0  0  0  0  0  0  0  0  0  0  0  # atno 17394 bound_to 11000
  139.8838  134.8984  156.2745 LP  0  0  0  0  0  0  0  0  0  0  0  0  # atno 17395 bound_to 11000

$$$$
