AV-unprocessed.smi:1436|AV-procd|sdf|5859|dock3
  -GOLD-   22720 5533D 1   1.00000     0.00000
 Structure written by MMmdl.
 43 44  0  0  0  0  0  0  0  0  1 V2000
  142.5625  136.2333  162.9346 C   0  0  0  0  0  0  0  0  0  0  0  0
  143.9595  136.5643  162.4950 C   0  0  0  0  0  0  0  0  0  0  0  0
  144.2304  137.7838  162.0622 N   0  0  0  0  0  0  0  0  0  0  0  0
  145.5830  137.7731  161.7105 O   0  0  0  0  0  0  0  0  0  0  0  0
  146.0792  136.5323  161.9452 C   0  0  0  0  0  0  0  0  0  0  0  0
  147.5155  136.3210  161.6050 C   0  0  0  0  0  0  0  0  0  0  0  0
  145.1027  135.7146  162.4462 C   0  0  0  0  0  0  0  0  0  0  0  0
  145.1920  134.2578  162.8314 C   0  0  0  0  0  0  0  0  0  0  0  0
  145.1201  133.3906  161.5742 C   0  0  0  0  0  0  0  0  0  0  0  0
  145.9430  133.5422  160.6719 O   0  0  0  0  0  0  0  0  0  0  0  0
  144.1440  132.4696  161.5425 N   0  0  0  0  0  0  0  0  0  0  0  0
  143.9635  131.4500  160.5135 C   0  0  2  0  0  0  0  0  0  0  0  0
  143.6805  132.1075  159.1544 C   0  0  0  0  0  0  0  0  0  0  0  0
  142.9058  130.3886  160.9108 C   0  0  0  0  0  0  0  0  0  0  0  0
  142.6791  129.2827  159.9729 N   0  0  0  0  0  0  0  0  0  0  0  0
  141.6437  129.6367  159.0064 C   0  0  0  0  0  0  0  0  0  0  0  0
  141.3762  128.5051  157.9999 C   0  0  0  0  0  0  0  0  0  0  0  0
  142.5861  128.1735  157.3278 O   0  0  0  0  0  0  0  0  0  0  0  0
  143.6146  127.7704  158.2250 C   0  0  0  0  0  0  0  0  0  0  0  0
  143.8847  128.8898  159.2446 C   0  0  0  0  0  0  0  0  0  0  0  0
  141.9422  135.9607  162.0806 H   0  0  0  0  0  0  0  0  0  0  0  0
  142.0903  137.0793  163.4348 H   0  0  0  0  0  0  0  0  0  0  0  0
  142.5542  135.3944  163.6304 H   0  0  0  0  0  0  0  0  0  0  0  0
  147.6935  136.5304  160.5502 H   0  0  0  0  0  0  0  0  0  0  0  0
  147.8218  135.2933  161.7985 H   0  0  0  0  0  0  0  0  0  0  0  0
  148.1532  136.9805  162.1937 H   0  0  0  0  0  0  0  0  0  0  0  0
  146.1186  134.0340  163.3602 H   0  0  0  0  0  0  0  0  0  0  0  0
  144.3843  133.9776  163.5085 H   0  0  0  0  0  0  0  0  0  0  0  0
  143.5140  132.4293  162.3304 H   0  0  0  0  0  0  0  0  0  0  0  0
  144.9179  130.9292  160.4171 H   0  0  0  0  0  0  0  0  0  0  0  0
  143.5740  131.3559  158.3719 H   0  0  0  0  0  0  0  0  0  0  0  0
  144.4943  132.7727  158.8640 H   0  0  0  0  0  0  0  0  0  0  0  0
  142.7636  132.6975  159.1768 H   0  0  0  0  0  0  0  0  0  0  0  0
  143.2446  129.9612  161.8556 H   0  0  0  0  0  0  0  0  0  0  0  0
  141.9570  130.8741  161.1443 H   0  0  0  0  0  0  0  0  0  0  0  0
  140.7166  129.8766  159.5284 H   0  0  0  0  0  0  0  0  0  0  0  0
  141.9367  130.5369  158.4636 H   0  0  0  0  0  0  0  0  0  0  0  0
  140.9767  127.6240  158.5043 H   0  0  0  0  0  0  0  0  0  0  0  0
  140.6345  128.8184  157.2650 H   0  0  0  0  0  0  0  0  0  0  0  0
  143.3232  126.8497  158.7326 H   0  0  0  0  0  0  0  0  0  0  0  0
  144.5191  127.5507  157.6575 H   0  0  0  0  0  0  0  0  0  0  0  0
  144.3046  129.7548  158.7293 H   0  0  0  0  0  0  0  0  0  0  0  0
  144.6443  128.5313  159.9360 H   0  0  0  0  0  0  0  0  0  0  0  0
  1  2  1  0  0  0  0
  1 21  1  0  0  0  0
  1 22  1  0  0  0  0
  1 23  1  0  0  0  0
  2  7  1  0  0  0  0
  2  3  2  0  0  0  0
  3  4  1  0  0  0  0
  4  5  1  0  0  0  0
  5  6  1  0  0  0  0
  5  7  2  0  0  0  0
  6 24  1  0  0  0  0
  6 25  1  0  0  0  0
  6 26  1  0  0  0  0
  7  8  1  0  0  0  0
  8  9  1  0  0  0  0
  8 27  1  0  0  0  0
  8 28  1  0  0  0  0
  9 10  2  0  0  0  0
  9 11  1  0  0  0  0
 11 12  1  0  0  0  0
 11 29  1  0  0  0  0
 12 13  1  0  0  0  0
 12 14  1  0  0  0  0
 12 30  1  0  0  0  0
 13 31  1  0  0  0  0
 13 32  1  0  0  0  0
 13 33  1  0  0  0  0
 14 15  1  0  0  0  0
 14 34  1  0  0  0  0
 14 35  1  0  0  0  0
 15 20  1  0  0  0  0
 15 16  1  0  0  0  0
 16 17  1  0  0  0  0
 16 36  1  0  0  0  0
 16 37  1  0  0  0  0
 17 18  1  0  0  0  0
 17 38  1  0  0  0  0
 17 39  1  0  0  0  0
 18 19  1  0  0  0  0
 19 20  1  0  0  0  0
 19 40  1  0  0  0  0
 19 41  1  0  0  0  0
 20 42  1  0  0  0  0
 20 43  1  0  0  0  0
M  END
> <s_m_source_file>
AV-unprocessed.smi

> <i_m_source_file_index>
1436

> <i_lp_mmshare_version>
43012

> <i_f3d_flags>
0

> <s_epik_input>
W0NIM11jMW5vYyhbQ0gzXSljMVtDSDJdQyg9TylbTkhdW0NASF0oW0NIM10pW0NIMl1OMltDSDJdW0NIMl1PW0NIMl1bQ0gyXTI=

> <s_epik_cmdline>
J2VwaWtfcHl0aG9uJywgJy1waCcsICc3LjAnLCAnLXRuJywgJzgnLCAnLW1hJywgJzIwMCcsICctbWV0YWxfYmluZGluZycsICctaW1hZScsICc8aW5maWxlLm1hZT4nLCAnLW9tYWUnLCAnPG91dGZpbGUubWFlPic=

> <r_epik_Ionization_Penalty>
0.234179

> <r_epik_Ionization_Penalty_Charging>
0

> <r_epik_Ionization_Penalty_Neutral>
0.234179

> <r_epik_State_Penalty>
0.224936

> <r_epik_Charging_Adjusted_Penalty>
0.224936

> <i_epik_Tot_Q>
0

> <i_epik_Tot_abs_Q>
0

> <r_epik_Metal_State_Penalty>
0.224936

> <b_epik_Metal_Only>
0

> <s_lp_Force_Field>
OPLS_2005

> <r_lp_Energy>
20.5604

> <b_lp_Chiralities_Consistent>
1

> <s_lp_Variant>
AV-unprocessed.smi:1436-1

> <Gold.Version>
5.8.1

> <Gold.Id.Protein>
6NUR|6NUR_protein|mol2

> <Gold.PLP.Fitness>
32.0673

> <Gold.PLP.PLP>
-30.8868

> <Gold.PLP.part.hbond>
-1.8726

> <Gold.PLP.part.metal>
0.0000

> <Gold.PLP.part.buried>
-5.8943

> <Gold.PLP.part.nonpolar>
-24.3535

> <Gold.PLP.part.repulsive>
1.4080

> <Gold.PLP.ligand.clash>
0.0000

> <Gold.PLP.ligand.torsion>
0.6847

> <Gold.PLP.Chemscore.Hbond>
0.8320

> <Gold.PLP.Chemscore.CHOScore>
0.0000

> <Gold.PLP.Chemscore.Metal>
0.0000

> <Gold.Chemscore.Hbonds>
donor molecule, donor type, donor heavy atom, donor atom, acceptor molecule, acceptor atom, score
      P1  H  6934  6947       L1     4  0.55

> <Gold.PLP.Chemscore.Internal.Correction>
0.0538

> <Gold.Rescore>
     Score         DG    S(hbond)    S(metal)    S(lipo)     H(rot)  DE(clash)    DE(int)     intcor
     12.40     -13.08       0.95        0.00      75.25       1.71       0.04       0.63       ----

> <Gold.Chemscore.Fitness>
12.4038

> <Gold.Chemscore.DG>
-13.0801

> <Gold.Chemscore.ZeroCoef>
-5.4800

> <Gold.Chemscore.Hbond>
0.9537

> <Gold.Chemscore.Metal>
0.0000

> <Gold.Chemscore.Lipo>
75.2454

> <Gold.Chemscore.Internal_Hbond>
0.0000

> <Gold.Chemscore.DEClash>
0.0440

> <Gold.Chemscore.DEInternal>
0.6323

> <Gold.Chemscore.Rot>
1.7145

> <Gold.Chemscore.Internal.Correction>
   9.000000E+99

> <Gold.Chemscore.Hbonds>
donor molecule, donor type, donor heavy atom, donor atom, acceptor molecule, acceptor atom, score
      P1  H  6934  6947       L1     4  0.40

> <Gold.Chemscore.Hbond.Weighted>
-3.1855

> <Gold.Chemscore.Metal.Weighted>
-0.0000

> <Gold.Chemscore.Lipo.Weighted>
-8.8037

> <Gold.Chemscore.Internal_Hbond.Weighted>
0.0000

> <Gold.Chemscore.DEClash.Weighted>
0.0440

> <Gold.Chemscore.DEInternal.Weighted>
0.6323

> <Gold.Chemscore.Rot.Weighted>
4.3891

> <Gold.Chemscore.Internal.Correction.Weighted>
   9.000000E+99

> <Gold.Protein.RotatedTorsions>
[ 6907 6896 6895 6894 ] final   15.76 input  -60.11 | X-H torsion
[ 7974 7965 7964 7962 ] final   20.31 input  175.53 | X-H torsion
[ 8008 7997 7996 7995 ] final  173.59 input   59.86 | X-H torsion
[ 10167 10162 10161 10158 ] final   28.11 input  -65.29 | X-H torsion
[ 10718 10713 10712 10709 ] final -166.34 input   66.30 | X-H torsion
[ 10763 10752 10751 10750 ] final  102.51 input  -60.55 | X-H torsion
[ 11005 11000 10999 10996 ] final  131.28 input  -57.11 | X-H torsion

> <Gold.Protein.ActiveResidues>
 VAL166  LYS551  ARG553  GLY616  TRP617  ASP618  TYR619  PRO620  LYS621  CYS622 
 ASP623  PHE694  ASN695  SER759  ASP760  ASP761  ALA762  ILE779  LEU786  VAL792 
 PHE793  MET794  SER795  GLU796  ALA797  LYS798  CYS799  TRP800  GLU811  SER814 

> <Gold.Protein.RotatedAtoms>
  151.8233  135.0645  160.0427 H   0  0  0  0  0  0  0  0  0  0  0  0  # atno 6907 bound_to 6896
  152.2935  133.5580  159.5581 H   0  0  0  0  0  0  0  0  0  0  0  0  # atno 6908 bound_to 6896
  150.7240  134.0310  159.3775 H   0  0  0  0  0  0  0  0  0  0  0  0  # atno 6909 bound_to 6896
  146.2116  139.8188  142.8684 H   0  0  0  0  0  0  0  0  0  0  0  0  # atno 7974 bound_to 7965
  156.1060  140.1456  156.9404 H   0  0  0  0  0  0  0  0  0  0  0  0  # atno 8008 bound_to 7997
  154.4734  140.0902  156.7245 H   0  0  0  0  0  0  0  0  0  0  0  0  # atno 8009 bound_to 7997
  155.4679  140.3440  155.4324 H   0  0  0  0  0  0  0  0  0  0  0  0  # atno 8010 bound_to 7997
  140.4880  144.0511  150.6287 H   0  0  0  0  0  0  0  0  0  0  0  0  # atno 10167 bound_to 10162
  156.6664  130.9066  151.3037 H   0  0  0  0  0  0  0  0  0  0  0  0  # atno 10718 bound_to 10713
  153.3406  135.4008  155.1568 H   0  0  0  0  0  0  0  0  0  0  0  0  # atno 10763 bound_to 10752
  154.8642  135.3632  154.5351 H   0  0  0  0  0  0  0  0  0  0  0  0  # atno 10764 bound_to 10752
  153.5796  135.7077  153.5529 H   0  0  0  0  0  0  0  0  0  0  0  0  # atno 10765 bound_to 10752
  139.9721  134.9574  156.9415 H   0  0  0  0  0  0  0  0  0  0  0  0  # atno 11005 bound_to 11000
  145.3118  141.0221  143.3550 LP  0  0  0  0  0  0  0  0  0  0  0  0  # atno 17320 bound_to 7965
  144.8930  139.4749  143.6668 LP  0  0  0  0  0  0  0  0  0  0  0  0  # atno 17321 bound_to 7965
  140.3772  143.2822  152.0211 LP  0  0  0  0  0  0  0  0  0  0  0  0  # atno 17342 bound_to 10162
  139.4846  144.6183  151.7303 LP  0  0  0  0  0  0  0  0  0  0  0  0  # atno 17343 bound_to 10162
  157.7092  130.9420  150.1032 LP  0  0  0  0  0  0  0  0  0  0  0  0  # atno 17370 bound_to 10713
  156.1971  130.3658  149.8835 LP  0  0  0  0  0  0  0  0  0  0  0  0  # atno 17371 bound_to 10713
  140.5272  134.0849  155.7306 LP  0  0  0  0  0  0  0  0  0  0  0  0  # atno 17394 bound_to 11000
  141.1400  133.9155  157.2348 LP  0  0  0  0  0  0  0  0  0  0  0  0  # atno 17395 bound_to 11000

$$$$
