AV-unprocessed.smi:301|AV-procd|sdf|2271|dock7
  -GOLD-   2262022163D 1   1.00000     0.00000
 Structure written by MMmdl.
 32 33  0  0  0  0  0  0  0  0  1 V2000
  149.8939  144.8934  160.3258 C   0  0  0  0  0  0  0  0  0  0  0  0
  151.1709  144.2304  159.9374 C   0  0  0  0  0  0  0  0  0  0  0  0
  151.7500  143.2660  160.6568 N   0  0  0  0  0  0  0  0  0  0  0  0
  152.9453  142.8121  160.0889 C   0  0  0  0  0  0  0  0  0  0  0  0
  153.7342  141.7283  160.7681 C   0  0  0  0  0  0  0  0  0  0  0  0
  153.9230  140.5151  159.8496 C   0  0  0  0  0  0  0  0  0  0  0  0
  155.0301  140.2455  159.3814 O   0  0  0  0  0  0  0  0  0  0  0  0
  152.8257  139.7830  159.6029 N   0  0  0  0  0  0  0  0  0  0  0  0
  152.7815  138.6021  158.7484 C   0  0  0  0  0  0  0  0  0  0  0  0
  151.7236  138.7463  157.6421 C   0  0  1  0  0  0  0  0  0  0  0  0
  150.4646  139.4873  158.0897 C   0  0  0  0  0  0  0  0  0  0  0  0
  149.9497  140.0325  156.7777 C   0  0  0  0  0  0  0  0  0  0  0  0
  151.2471  140.4208  156.0758 C   0  0  0  0  0  0  0  0  0  0  0  0
  152.2369  139.5136  156.5541 O   0  0  0  0  0  0  0  0  0  0  0  0
  153.2582  143.4470  158.9118 C   0  0  0  0  0  0  0  0  0  0  0  0
  152.0700  144.6472  158.4839 S   0  0  0  0  0  0  0  0  0  0  0  0
  149.3487  144.2821  161.0457 H   0  0  0  0  0  0  0  0  0  0  0  0
  149.2655  145.0400  159.4471 H   0  0  0  0  0  0  0  0  0  0  0  0
  150.1013  145.8642  160.7759 H   0  0  0  0  0  0  0  0  0  0  0  0
  154.7187  142.0924  161.0642 H   0  0  0  0  0  0  0  0  0  0  0  0
  153.2311  141.4202  161.6860 H   0  0  0  0  0  0  0  0  0  0  0  0
  151.9552  140.0721  160.0253 H   0  0  0  0  0  0  0  0  0  0  0  0
  153.7648  138.4233  158.3103 H   0  0  0  0  0  0  0  0  0  0  0  0
  152.5582  137.7347  159.3702 H   0  0  0  0  0  0  0  0  0  0  0  0
  151.4354  137.7669  157.2561 H   0  0  0  0  0  0  0  0  0  0  0  0
  149.7476  138.8405  158.5960 H   0  0  0  0  0  0  0  0  0  0  0  0
  150.7174  140.3096  158.7608 H   0  0  0  0  0  0  0  0  0  0  0  0
  149.4399  139.2458  156.2197 H   0  0  0  0  0  0  0  0  0  0  0  0
  149.2616  140.8694  156.8988 H   0  0  0  0  0  0  0  0  0  0  0  0
  151.1604  140.3817  154.9897 H   0  0  0  0  0  0  0  0  0  0  0  0
  151.5431  141.4326  156.3556 H   0  0  0  0  0  0  0  0  0  0  0  0
  154.1166  143.2859  158.2765 H   0  0  0  0  0  0  0  0  0  0  0  0
  1  2  1  0  0  0  0
  1 17  1  0  0  0  0
  1 18  1  0  0  0  0
  1 19  1  0  0  0  0
  2 16  1  0  0  0  0
  2  3  2  0  0  0  0
  3  4  1  0  0  0  0
  4  5  1  0  0  0  0
  4 15  2  0  0  0  0
  5  6  1  0  0  0  0
  5 20  1  0  0  0  0
  5 21  1  0  0  0  0
  6  7  2  0  0  0  0
  6  8  1  0  0  0  0
  8  9  1  0  0  0  0
  8 22  1  0  0  0  0
  9 10  1  0  0  0  0
  9 23  1  0  0  0  0
  9 24  1  0  0  0  0
 10 14  1  0  0  0  0
 10 11  1  0  0  0  0
 10 25  1  0  0  0  0
 11 12  1  0  0  0  0
 11 26  1  0  0  0  0
 11 27  1  0  0  0  0
 12 13  1  0  0  0  0
 12 28  1  0  0  0  0
 12 29  1  0  0  0  0
 13 14  1  0  0  0  0
 13 30  1  0  0  0  0
 13 31  1  0  0  0  0
 15 16  1  0  0  0  0
 15 32  1  0  0  0  0
M  END
> <s_m_source_file>
AV-unprocessed.smi

> <i_m_source_file_index>
301

> <i_lp_mmshare_version>
43012

> <i_f3d_flags>
0

> <s_epik_input>
W0NIM11jMW5jKFtjSF1zMSlbQ0gyXUMoPU8pW05IXVtDSDJdW0NAQEhdMltDSDJdW0NIMl1bQ0gyXU8y

> <s_epik_cmdline>
J2VwaWtfcHl0aG9uJywgJy1waCcsICc3LjAnLCAnLXRuJywgJzgnLCAnLW1hJywgJzIwMCcsICctbWV0YWxfYmluZGluZycsICctaW1hZScsICc8aW5maWxlLm1hZT4nLCAnLW9tYWUnLCAnPG91dGZpbGUubWFlPic=

> <r_lp_tautomer_probability>
1

> <r_epik_Ionization_Penalty>
6.06873e-05

> <r_epik_Ionization_Penalty_Charging>
0

> <r_epik_Ionization_Penalty_Neutral>
6.06873e-05

> <r_epik_State_Penalty>
-0

> <r_epik_Charging_Adjusted_Penalty>
0

> <i_epik_Tot_Q>
0

> <i_epik_Tot_abs_Q>
0

> <r_epik_Metal_State_Penalty>
-0

> <b_epik_Metal_Only>
0

> <s_lp_Force_Field>
OPLS_2005

> <r_lp_Energy>
16.0562

> <b_lp_Chiralities_Consistent>
1

> <s_lp_Variant>
AV-unprocessed.smi:301-2

> <Gold.Version>
5.8.1

> <Gold.Id.Protein>
6NUR|6NUR_protein|mol2

> <Gold.PLP.Fitness>
38.7090

> <Gold.PLP.PLP>
-34.2019

> <Gold.PLP.part.hbond>
-2.0716

> <Gold.PLP.part.metal>
0.0000

> <Gold.PLP.part.buried>
-4.2135

> <Gold.PLP.part.nonpolar>
-26.8825

> <Gold.PLP.part.repulsive>
0.1783

> <Gold.PLP.ligand.clash>
0.0000

> <Gold.PLP.ligand.torsion>
0.3458

> <Gold.PLP.Chemscore.Hbond>
1.7309

> <Gold.PLP.Chemscore.CHOScore>
0.0000

> <Gold.PLP.Chemscore.Metal>
0.0000

> <Gold.Chemscore.Hbonds>
donor molecule, donor type, donor heavy atom, donor atom, acceptor molecule, acceptor atom, score
      P1  H  7997  8009       L1     7  0.65
      P1  H  7997  8010       L1    14  0.30

> <Gold.PLP.Chemscore.Internal.Correction>
0.0058

> <Gold.Rescore>
     Score         DG    S(hbond)    S(metal)    S(lipo)     H(rot)  DE(clash)    DE(int)     intcor
     17.74     -18.07       1.66        0.00      93.19       1.51       0.00       0.33       ----

> <Gold.Chemscore.Fitness>
17.7412

> <Gold.Chemscore.DG>
-18.0712

> <Gold.Chemscore.ZeroCoef>
-5.4800

> <Gold.Chemscore.Hbond>
1.6631

> <Gold.Chemscore.Metal>
0.0000

> <Gold.Chemscore.Lipo>
93.1917

> <Gold.Chemscore.Internal_Hbond>
0.0000

> <Gold.Chemscore.DEClash>
0.0021

> <Gold.Chemscore.DEInternal>
0.3278

> <Gold.Chemscore.Rot>
1.5106

> <Gold.Chemscore.Internal.Correction>
   9.000000E+99

> <Gold.Chemscore.Hbonds>
donor molecule, donor type, donor heavy atom, donor atom, acceptor molecule, acceptor atom, score
      P1  H  7997  8009       L1     7  0.64
      P1  H  7997  8010       L1    14  0.26

> <Gold.Chemscore.Hbond.Weighted>
-5.5547

> <Gold.Chemscore.Metal.Weighted>
-0.0000

> <Gold.Chemscore.Lipo.Weighted>
-10.9034

> <Gold.Chemscore.Internal_Hbond.Weighted>
0.0000

> <Gold.Chemscore.DEClash.Weighted>
0.0021

> <Gold.Chemscore.DEInternal.Weighted>
0.3278

> <Gold.Chemscore.Rot.Weighted>
3.8670

> <Gold.Chemscore.Internal.Correction.Weighted>
   9.000000E+99

> <Gold.Protein.RotatedTorsions>
[ 6907 6896 6895 6894 ] final   78.25 input  -60.11 | X-H torsion
[ 7974 7965 7964 7962 ] final   88.59 input  175.53 | X-H torsion
[ 8008 7997 7996 7995 ] final   95.24 input   59.86 | X-H torsion
[ 10167 10162 10161 10158 ] final   19.32 input  -65.29 | X-H torsion
[ 10718 10713 10712 10709 ] final   73.42 input   66.30 | X-H torsion
[ 10763 10752 10751 10750 ] final   57.12 input  -60.55 | X-H torsion
[ 11005 11000 10999 10996 ] final -174.58 input  -57.11 | X-H torsion

> <Gold.Protein.ActiveResidues>
 VAL166  LYS551  ARG553  GLY616  TRP617  ASP618  TYR619  PRO620  LYS621  CYS622 
 ASP623  PHE694  ASN695  SER759  ASP760  ASP761  ALA762  ILE779  LEU786  VAL792 
 PHE793  MET794  SER795  GLU796  ALA797  LYS798  CYS799  TRP800  GLU811  SER814 

> <Gold.Protein.RotatedAtoms>
  152.5151  134.3693  159.9312 H   0  0  0  0  0  0  0  0  0  0  0  0  # atno 6907 bound_to 6896
  151.3647  133.3870  159.2701 H   0  0  0  0  0  0  0  0  0  0  0  0  # atno 6908 bound_to 6896
  150.9624  134.9029  159.7797 H   0  0  0  0  0  0  0  0  0  0  0  0  # atno 6909 bound_to 6896
  145.5437  139.2290  143.2551 H   0  0  0  0  0  0  0  0  0  0  0  0  # atno 7974 bound_to 7965
  156.0668  140.3289  155.7527 H   0  0  0  0  0  0  0  0  0  0  0  0  # atno 8008 bound_to 7997
  155.5369  140.0598  157.2895 H   0  0  0  0  0  0  0  0  0  0  0  0  # atno 8009 bound_to 7997
  154.4509  140.1917  156.0540 H   0  0  0  0  0  0  0  0  0  0  0  0  # atno 8010 bound_to 7997
  140.5588  143.9376  150.6627 H   0  0  0  0  0  0  0  0  0  0  0  0  # atno 10167 bound_to 10162
  157.6547  130.9627  150.1066 H   0  0  0  0  0  0  0  0  0  0  0  0  # atno 10718 bound_to 10713
  152.9844  135.5652  154.5339 H   0  0  0  0  0  0  0  0  0  0  0  0  # atno 10763 bound_to 10752
  154.4806  135.2788  155.1575 H   0  0  0  0  0  0  0  0  0  0  0  0  # atno 10764 bound_to 10752
  154.3086  135.6293  153.5509 H   0  0  0  0  0  0  0  0  0  0  0  0  # atno 10765 bound_to 10752
  140.4729  134.6148  157.4889 H   0  0  0  0  0  0  0  0  0  0  0  0  # atno 11005 bound_to 11000
  146.1964  140.6258  142.9122 LP  0  0  0  0  0  0  0  0  0  0  0  0  # atno 17320 bound_to 7965
  144.7564  140.5317  143.6766 LP  0  0  0  0  0  0  0  0  0  0  0  0  # atno 17321 bound_to 7965
  140.2821  143.3382  152.1141 LP  0  0  0  0  0  0  0  0  0  0  0  0  # atno 17342 bound_to 10162
  139.5060  144.6806  151.6019 LP  0  0  0  0  0  0  0  0  0  0  0  0  # atno 17343 bound_to 10162
  156.1974  130.3658  149.8831 LP  0  0  0  0  0  0  0  0  0  0  0  0  # atno 17370 bound_to 10713
  156.6744  130.8833  151.3567 LP  0  0  0  0  0  0  0  0  0  0  0  0  # atno 17371 bound_to 10713
  139.9874  134.7039  155.9749 LP  0  0  0  0  0  0  0  0  0  0  0  0  # atno 17394 bound_to 11000
  141.1568  133.6542  156.4189 LP  0  0  0  0  0  0  0  0  0  0  0  0  # atno 17395 bound_to 11000

$$$$
