AV-unprocessed.smi:1628|AV-procd|sdf|6520|dock4
  -GOLD-   22720 7193D 1   1.00000     0.00000
 Structure written by MMmdl.
 55 57  0  0  0  0  0  0  0  0  2 V2000
  149.3003  135.4785  156.4611 O   0  0  0  0  0  0  0  0  0  0  0  0
  149.2862  135.7780  155.2675 C   0  0  0  0  0  0  0  0  0  0  0  0
  148.9116  134.9289  154.3013 N   0  0  0  0  0  0  0  0  0  0  0  0
  148.4946  133.5530  154.5366 C   0  0  0  0  0  0  0  0  0  0  0  0
  148.5425  132.7415  153.2270 C   0  0  0  0  0  0  0  0  0  0  0  0
  147.2056  132.3127  152.7367 N   0  3  0  0  0  0  0  0  0  0  0  0
  146.3855  133.4407  152.2204 C   0  0  0  0  0  0  0  0  0  0  0  0
  145.3442  132.9997  151.1799 C   0  0  0  0  0  0  0  0  0  0  0  0
  144.3319  131.9530  151.6767 C   0  0  0  0  0  0  0  0  0  0  0  0
  144.9431  130.5463  151.7827 C   0  0  0  0  0  0  0  0  0  0  0  0
  145.7637  130.2647  153.0556 C   0  0  0  0  0  0  0  0  0  0  0  0
  146.4680  131.4658  153.7106 C   0  0  0  0  0  0  0  0  0  0  0  0
  149.6155  136.9793  154.7624 N   0  0  0  0  0  0  0  0  0  0  0  0
  150.1156  138.1177  155.4508 C   0  0  0  0  0  0  0  0  0  0  0  0
  150.1808  139.3401  154.7547 C   0  0  0  0  0  0  0  0  0  0  0  0
  150.6953  140.4772  155.4056 C   0  0  0  0  0  0  0  0  0  0  0  0
  151.1425  140.3640  156.7431 C   0  0  0  0  0  0  0  0  0  0  0  0
  151.6637  141.4899  157.4171 N   0  0  0  0  0  0  0  0  0  0  0  0
  150.8769  142.7159  157.3076 C   0  0  0  0  0  0  0  0  0  0  0  0
  151.6907  143.9216  157.8087 C   0  0  0  0  0  0  0  0  0  0  0  0
  152.1522  143.6770  159.1330 O   0  0  0  0  0  0  0  0  0  0  0  0
  153.0090  142.5420  159.1933 C   0  0  0  0  0  0  0  0  0  0  0  0
  152.2397  141.2879  158.7455 C   0  0  0  0  0  0  0  0  0  0  0  0
  151.0977  139.1823  157.4056 N   0  0  0  0  0  0  0  0  0  0  0  0
  150.6011  138.0948  156.7795 C   0  0  0  0  0  0  0  0  0  0  0  0
  148.9199  135.2543  153.3456 H   0  0  0  0  0  0  0  0  0  0  0  0
  149.1457  133.1047  155.2887 H   0  0  0  0  0  0  0  0  0  0  0  0
  147.4856  133.5640  154.9503 H   0  0  0  0  0  0  0  0  0  0  0  0
  149.0300  133.3277  152.4468 H   0  0  0  0  0  0  0  0  0  0  0  0
  149.1632  131.8546  153.3630 H   0  0  0  0  0  0  0  0  0  0  0  0
  145.9020  133.9701  153.0427 H   0  0  0  0  0  0  0  0  0  0  0  0
  147.0404  134.1688  151.7398 H   0  0  0  0  0  0  0  0  0  0  0  0
  144.7939  133.8851  150.8596 H   0  0  0  0  0  0  0  0  0  0  0  0
  145.8491  132.6309  150.2860 H   0  0  0  0  0  0  0  0  0  0  0  0
  143.8753  132.2584  152.6189 H   0  0  0  0  0  0  0  0  0  0  0  0
  143.5177  131.9099  150.9524 H   0  0  0  0  0  0  0  0  0  0  0  0
  144.1442  129.8061  151.7253 H   0  0  0  0  0  0  0  0  0  0  0  0
  145.5641  130.3617  150.9052 H   0  0  0  0  0  0  0  0  0  0  0  0
  145.1069  129.8197  153.8037 H   0  0  0  0  0  0  0  0  0  0  0  0
  146.5013  129.4952  152.8250 H   0  0  0  0  0  0  0  0  0  0  0  0
  147.1553  131.0662  154.4578 H   0  0  0  0  0  0  0  0  0  0  0  0
  145.7528  132.0685  154.2722 H   0  0  0  0  0  0  0  0  0  0  0  0
  149.4596  137.1065  153.7733 H   0  0  0  0  0  0  0  0  0  0  0  0
  149.8414  139.4105  153.7316 H   0  0  0  0  0  0  0  0  0  0  0  0
  150.7564  141.4119  154.8687 H   0  0  0  0  0  0  0  0  0  0  0  0
  150.5614  142.9042  156.2825 H   0  0  0  0  0  0  0  0  0  0  0  0
  149.9697  142.6048  157.9030 H   0  0  0  0  0  0  0  0  0  0  0  0
  152.5362  144.1214  157.1481 H   0  0  0  0  0  0  0  0  0  0  0  0
  151.0702  144.8179  157.8101 H   0  0  0  0  0  0  0  0  0  0  0  0
  153.8888  142.7028  158.5682 H   0  0  0  0  0  0  0  0  0  0  0  0
  153.3641  142.4187  160.2165 H   0  0  0  0  0  0  0  0  0  0  0  0
  151.4419  141.0660  159.4557 H   0  0  0  0  0  0  0  0  0  0  0  0
  152.9176  140.4336  158.7375 H   0  0  0  0  0  0  0  0  0  0  0  0
  150.6237  137.1889  157.3648 H   0  0  0  0  0  0  0  0  0  0  0  0
  147.4025  131.7198  151.9430 H   0  0  0  0  0  0  0  0  0  0  0  0
  1  2  2  0  0  0  0
  2  3  1  0  0  0  0
  2 13  1  0  0  0  0
  3  4  1  0  0  0  0
  3 26  1  0  0  0  0
  4  5  1  0  0  0  0
  4 27  1  0  0  0  0
  4 28  1  0  0  0  0
  5  6  1  0  0  0  0
  5 29  1  0  0  0  0
  5 30  1  0  0  0  0
  6 12  1  0  0  0  0
  6  7  1  0  0  0  0
  6 55  1  0  0  0  0
  7  8  1  0  0  0  0
  7 31  1  0  0  0  0
  7 32  1  0  0  0  0
  8  9  1  0  0  0  0
  8 33  1  0  0  0  0
  8 34  1  0  0  0  0
  9 10  1  0  0  0  0
  9 35  1  0  0  0  0
  9 36  1  0  0  0  0
 10 11  1  0  0  0  0
 10 37  1  0  0  0  0
 10 38  1  0  0  0  0
 11 12  1  0  0  0  0
 11 39  1  0  0  0  0
 11 40  1  0  0  0  0
 12 41  1  0  0  0  0
 12 42  1  0  0  0  0
 13 14  1  0  0  0  0
 13 43  1  0  0  0  0
 14 25  1  0  0  0  0
 14 15  2  0  0  0  0
 15 16  1  0  0  0  0
 15 44  1  0  0  0  0
 16 17  2  0  0  0  0
 16 45  1  0  0  0  0
 17 18  1  0  0  0  0
 17 24  1  0  0  0  0
 18 23  1  0  0  0  0
 18 19  1  0  0  0  0
 19 20  1  0  0  0  0
 19 46  1  0  0  0  0
 19 47  1  0  0  0  0
 20 21  1  0  0  0  0
 20 48  1  0  0  0  0
 20 49  1  0  0  0  0
 21 22  1  0  0  0  0
 22 23  1  0  0  0  0
 22 50  1  0  0  0  0
 22 51  1  0  0  0  0
 23 52  1  0  0  0  0
 23 53  1  0  0  0  0
 24 25  2  0  0  0  0
 25 54  1  0  0  0  0
M  CHG  1   6   1
M  END
> <s_m_source_file>
AV-unprocessed.smi

> <i_m_source_file_index>
1628

> <i_lp_mmshare_version>
43012

> <i_f3d_flags>
0

> <s_epik_input>
W0NIMl0xW0NIMl1bQ0gyXVtDSDJdW0NIMl1bQ0gyXU4xW0NIMl1bQ0gyXVtOSF1DKD1PKVtOSF1jMltjSF1bY0hdYyhuW2NIXTIpTjNbQ0gyXVtDSDJdT1tDSDJdW0NIMl0z

> <s_epik_cmdline>
J2VwaWtfcHl0aG9uJywgJy1waCcsICc3LjAnLCAnLXRuJywgJzgnLCAnLW1hJywgJzIwMCcsICctbWV0YWxfYmluZGluZycsICctaW1hZScsICc8aW5maWxlLm1hZT4nLCAnLW9tYWUnLCAnPG91dGZpbGUubWFlPic=

> <r_lp_tautomer_probability>
1

> <r_epik_Ionization_Penalty>
0.00380107

> <r_epik_Ionization_Penalty_Charging>
0.00211816

> <r_epik_Ionization_Penalty_Neutral>
0.00168291

> <r_epik_State_Penalty>
-0

> <r_epik_Charging_Adjusted_Penalty>
0.00211816

> <i_epik_Tot_Q>
1

> <i_epik_Tot_abs_Q>
1

> <r_epik_Metal_State_Penalty>
-0

> <b_epik_Metal_Only>
0

> <s_lp_Force_Field>
OPLS_2005

> <r_lp_Energy>
41.9459

> <b_lp_Chiralities_Consistent>
1

> <s_lp_Variant>
AV-unprocessed.smi:1628-1

> <Gold.Version>
5.8.1

> <Gold.Id.Protein>
6NUR|6NUR_protein|mol2

> <Gold.PLP.Fitness>
51.3634

> <Gold.PLP.PLP>
-44.5437

> <Gold.PLP.part.hbond>
-3.0000

> <Gold.PLP.part.metal>
0.0000

> <Gold.PLP.part.buried>
-5.3425

> <Gold.PLP.part.nonpolar>
-36.5372

> <Gold.PLP.part.repulsive>
0.0971

> <Gold.PLP.ligand.clash>
0.0000

> <Gold.PLP.ligand.torsion>
0.7202

> <Gold.PLP.Chemscore.Hbond>
2.6088

> <Gold.PLP.Chemscore.CHOScore>
0.0000

> <Gold.PLP.Chemscore.Metal>
0.0000

> <Gold.Chemscore.Hbonds>
donor molecule, donor type, donor heavy atom, donor atom, acceptor molecule, acceptor atom, score
      L1  H     3    26       P1  7948  1.00
      L1  H    13    43       P1  7948  0.71

> <Gold.PLP.Chemscore.Internal.Correction>
0.4338

> <Gold.Rescore>
     Score         DG    S(hbond)    S(metal)    S(lipo)     H(rot)  DE(clash)    DE(int)     intcor
     17.20     -19.09       1.14        0.00     118.84       1.60       0.12       1.77       ----

> <Gold.Chemscore.Fitness>
17.1999

> <Gold.Chemscore.DG>
-19.0908

> <Gold.Chemscore.ZeroCoef>
-5.4800

> <Gold.Chemscore.Hbond>
1.1367

> <Gold.Chemscore.Metal>
0.0000

> <Gold.Chemscore.Lipo>
118.8380

> <Gold.Chemscore.Internal_Hbond>
0.0000

> <Gold.Chemscore.DEClash>
0.1169

> <Gold.Chemscore.DEInternal>
1.7741

> <Gold.Chemscore.Rot>
1.5976

> <Gold.Chemscore.Internal.Correction>
   9.000000E+99

> <Gold.Chemscore.Hbonds>
donor molecule, donor type, donor heavy atom, donor atom, acceptor molecule, acceptor atom, score
      L1  H     3    26       P1  7948  0.55
      L1  H     6    55       P1 10747  0.04
      L1  H    13    43       P1  7948  0.63

> <Gold.Chemscore.Hbond.Weighted>
-3.7967

> <Gold.Chemscore.Metal.Weighted>
-0.0000

> <Gold.Chemscore.Lipo.Weighted>
-13.9040

> <Gold.Chemscore.Internal_Hbond.Weighted>
0.0000

> <Gold.Chemscore.DEClash.Weighted>
0.1169

> <Gold.Chemscore.DEInternal.Weighted>
1.7741

> <Gold.Chemscore.Rot.Weighted>
4.0899

> <Gold.Chemscore.Internal.Correction.Weighted>
   9.000000E+99

> <Gold.Protein.RotatedTorsions>
[ 6907 6896 6895 6894 ] final  -44.31 input  -60.11 | X-H torsion
[ 7974 7965 7964 7962 ] final  -71.60 input  175.53 | X-H torsion
[ 8008 7997 7996 7995 ] final  -10.20 input   59.86 | X-H torsion
[ 10167 10162 10161 10158 ] final -128.48 input  -65.29 | X-H torsion
[ 10718 10713 10712 10709 ] final -124.62 input   66.30 | X-H torsion
[ 10763 10752 10751 10750 ] final -168.67 input  -60.55 | X-H torsion
[ 11005 11000 10999 10996 ] final -150.89 input  -57.11 | X-H torsion

> <Gold.Protein.ActiveResidues>
 VAL166  LYS551  ARG553  GLY616  TRP617  ASP618  TYR619  PRO620  LYS621  CYS622 
 ASP623  PHE694  ASN695  SER759  ASP760  ASP761  ALA762  ILE779  LEU786  VAL792 
 PHE793  MET794  SER795  GLU796  ALA797  LYS798  CYS799  TRP800  GLU811  SER814 

> <Gold.Protein.RotatedAtoms>
  150.9342  134.8756  159.7570 H   0  0  0  0  0  0  0  0  0  0  0  0  # atno 6907 bound_to 6896
  152.5052  134.4034  159.9434 H   0  0  0  0  0  0  0  0  0  0  0  0  # atno 6908 bound_to 6896
  151.4059  133.3702  159.2773 H   0  0  0  0  0  0  0  0  0  0  0  0  # atno 6909 bound_to 6896
  145.6759  140.9205  143.0858 H   0  0  0  0  0  0  0  0  0  0  0  0  # atno 7974 bound_to 7965
  154.5576  140.2335  155.8385 H   0  0  0  0  0  0  0  0  0  0  0  0  # atno 8008 bound_to 7997
  156.2002  140.3054  155.9470 H   0  0  0  0  0  0  0  0  0  0  0  0  # atno 8009 bound_to 7997
  155.2950  140.0428  157.3016 H   0  0  0  0  0  0  0  0  0  0  0  0  # atno 8010 bound_to 7997
  139.9499  143.6068  152.2478 H   0  0  0  0  0  0  0  0  0  0  0  0  # atno 10167 bound_to 10162
  156.1604  130.6597  151.0041 H   0  0  0  0  0  0  0  0  0  0  0  0  # atno 10718 bound_to 10713
  154.6604  135.2924  154.9874 H   0  0  0  0  0  0  0  0  0  0  0  0  # atno 10763 bound_to 10752
  154.0936  135.6587  153.4860 H   0  0  0  0  0  0  0  0  0  0  0  0  # atno 10764 bound_to 10752
  153.0426  135.5226  154.7552 H   0  0  0  0  0  0  0  0  0  0  0  0  # atno 10765 bound_to 10752
  140.7354  134.3574  157.5158 H   0  0  0  0  0  0  0  0  0  0  0  0  # atno 11005 bound_to 11000
  144.7041  139.8633  143.7435 LP  0  0  0  0  0  0  0  0  0  0  0  0  # atno 17320 bound_to 7965
  146.1005  139.4001  143.0349 LP  0  0  0  0  0  0  0  0  0  0  0  0  # atno 17321 bound_to 7965
  139.6637  144.7662  151.1914 LP  0  0  0  0  0  0  0  0  0  0  0  0  # atno 17342 bound_to 10162
  140.7586  143.5971  150.8737 LP  0  0  0  0  0  0  0  0  0  0  0  0  # atno 17343 bound_to 10162
  157.6728  131.0857  150.7571 LP  0  0  0  0  0  0  0  0  0  0  0  0  # atno 17370 bound_to 10713
  156.7634  130.4806  149.5432 LP  0  0  0  0  0  0  0  0  0  0  0  0  # atno 17371 bound_to 10713
  139.8817  134.9046  156.2881 LP  0  0  0  0  0  0  0  0  0  0  0  0  # atno 17394 bound_to 11000
  140.9884  133.7224  156.0776 LP  0  0  0  0  0  0  0  0  0  0  0  0  # atno 17395 bound_to 11000

$$$$
