AV-unprocessed.smi:767|AV-procd|sdf|3658|dock2
  -GOLD-   22720 1 63D 1   1.00000     0.00000
 Structure written by MMmdl.
 47 49  0  0  0  0  0  0  0  0  1 V2000
  143.7507  132.5766  149.6478 C   0  0  0  0  0  0  0  0  0  0  0  0
  144.9294  132.5109  150.5963 C   0  0  0  0  0  0  0  0  0  0  0  0
  145.1906  131.3452  151.3472 C   0  0  0  0  0  0  0  0  0  0  0  0
  146.2986  131.3413  152.2161 C   0  0  0  0  0  0  0  0  0  0  0  0
  147.0997  132.4983  152.3005 C   0  0  0  0  0  0  0  0  0  0  0  0
  148.2958  132.5488  153.2300 C   0  0  0  0  0  0  0  0  0  0  0  0
  148.0209  133.4134  154.4706 C   0  0  0  0  0  0  0  0  0  0  0  0
  148.3971  134.8044  154.2509 N   0  0  0  0  0  0  0  0  0  0  0  0
  148.4795  135.7351  155.2114 C   0  0  0  0  0  0  0  0  0  0  0  0
  148.2584  135.5192  156.4031 O   0  0  0  0  0  0  0  0  0  0  0  0
  148.8216  136.9323  154.7178 N   0  0  0  0  0  0  0  0  0  0  0  0
  148.9697  138.1482  155.5244 C   0  0  1  0  0  0  0  0  0  0  0  0
  150.4314  138.4743  155.8419 C   0  0  1  0  0  0  0  0  0  0  0  0
  151.7173  137.7300  155.8245 C   0  0  0  0  0  0  0  0  0  0  0  0
  152.5856  138.8590  155.2053 C   0  0  0  0  0  0  0  0  0  0  0  0
  151.6559  139.8834  154.7673 O   0  0  0  0  0  0  0  0  0  0  0  0
  150.4659  139.1697  154.4970 C   0  0  2  0  0  0  0  0  0  0  0  0
  148.9735  139.5058  154.7147 C   0  0  0  0  0  0  0  0  0  0  0  0
  148.1215  139.5651  153.4417 C   0  0  0  0  0  0  0  0  0  0  0  0
  148.6470  140.7908  155.4965 C   0  0  0  0  0  0  0  0  0  0  0  0
  146.7527  133.6111  151.5059 C   0  0  0  0  0  0  0  0  0  0  0  0
  145.6922  133.6239  150.6701 N   0  0  0  0  0  0  0  0  0  0  0  0
  143.2021  131.6343  149.6327 H   0  0  0  0  0  0  0  0  0  0  0  0
  144.0911  132.7880  148.6337 H   0  0  0  0  0  0  0  0  0  0  0  0
  143.0629  133.3659  149.9523 H   0  0  0  0  0  0  0  0  0  0  0  0
  144.5582  130.4737  151.2631 H   0  0  0  0  0  0  0  0  0  0  0  0
  146.5255  130.4667  152.8080 H   0  0  0  0  0  0  0  0  0  0  0  0
  148.5561  131.5315  153.5261 H   0  0  0  0  0  0  0  0  0  0  0  0
  149.1547  132.9394  152.6826 H   0  0  0  0  0  0  0  0  0  0  0  0
  146.9588  133.3857  154.7158 H   0  0  0  0  0  0  0  0  0  0  0  0
  148.5498  133.0157  155.3386 H   0  0  0  0  0  0  0  0  0  0  0  0
  148.5978  135.0785  153.3003 H   0  0  0  0  0  0  0  0  0  0  0  0
  148.9841  137.0159  153.7251 H   0  0  0  0  0  0  0  0  0  0  0  0
  148.3307  138.1732  156.4089 H   0  0  0  0  0  0  0  0  0  0  0  0
  150.4493  139.1749  156.6804 H   0  0  0  0  0  0  0  0  0  0  0  0
  152.0537  137.4392  156.8199 H   0  0  0  0  0  0  0  0  0  0  0  0
  151.6763  136.8470  155.1855 H   0  0  0  0  0  0  0  0  0  0  0  0
  153.2802  139.2832  155.9308 H   0  0  0  0  0  0  0  0  0  0  0  0
  153.1652  138.4844  154.3605 H   0  0  0  0  0  0  0  0  0  0  0  0
  150.6138  138.4934  153.6487 H   0  0  0  0  0  0  0  0  0  0  0  0
  148.2644  140.5039  152.9058 H   0  0  0  0  0  0  0  0  0  0  0  0
  147.0592  139.4731  153.6694 H   0  0  0  0  0  0  0  0  0  0  0  0
  148.3719  138.7661  152.7439 H   0  0  0  0  0  0  0  0  0  0  0  0
  148.9537  141.6786  154.9428 H   0  0  0  0  0  0  0  0  0  0  0  0
  149.1341  140.8449  156.4685 H   0  0  0  0  0  0  0  0  0  0  0  0
  147.5758  140.8775  155.6820 H   0  0  0  0  0  0  0  0  0  0  0  0
  147.3387  134.5175  151.5445 H   0  0  0  0  0  0  0  0  0  0  0  0
  1  2  1  0  0  0  0
  1 23  1  0  0  0  0
  1 24  1  0  0  0  0
  1 25  1  0  0  0  0
  2 22  1  0  0  0  0
  2  3  2  0  0  0  0
  3  4  1  0  0  0  0
  3 26  1  0  0  0  0
  4  5  2  0  0  0  0
  4 27  1  0  0  0  0
  5  6  1  0  0  0  0
  5 21  1  0  0  0  0
  6  7  1  0  0  0  0
  6 28  1  0  0  0  0
  6 29  1  0  0  0  0
  7  8  1  0  0  0  0
  7 30  1  0  0  0  0
  7 31  1  0  0  0  0
  8  9  1  0  0  0  0
  8 32  1  0  0  0  0
  9 10  2  0  0  0  0
  9 11  1  0  0  0  0
 11 12  1  0  0  0  0
 11 33  1  0  0  0  0
 12 18  1  0  0  0  0
 12 13  1  0  0  0  0
 12 34  1  0  0  0  0
 13 17  1  0  0  0  0
 13 14  1  0  0  0  0
 13 35  1  0  0  0  0
 14 15  1  0  0  0  0
 14 36  1  0  0  0  0
 14 37  1  0  0  0  0
 15 16  1  0  0  0  0
 15 38  1  0  0  0  0
 15 39  1  0  0  0  0
 16 17  1  0  0  0  0
 17 18  1  0  0  0  0
 17 40  1  0  0  0  0
 18 19  1  0  0  0  0
 18 20  1  0  0  0  0
 19 41  1  0  0  0  0
 19 42  1  0  0  0  0
 19 43  1  0  0  0  0
 20 44  1  0  0  0  0
 20 45  1  0  0  0  0
 20 46  1  0  0  0  0
 21 22  2  0  0  0  0
 21 47  1  0  0  0  0
M  END
> <s_m_source_file>
AV-unprocessed.smi

> <i_m_source_file_index>
767

> <i_lp_mmshare_version>
43012

> <i_f3d_flags>
0

> <s_epik_input>
W0NIM11jMVtjSF1bY0hdYyhbY0hdbjEpW0NIMl1bQ0gyXVtOSF1DKD1PKVtOSF1bQ0BIXTJDKFtDSDNdKShbQ0gzXSlbQ0BIXShbQ0BASF0yMylPW0NIMl1bQ0gyXTM=

> <s_epik_cmdline>
J2VwaWtfcHl0aG9uJywgJy1waCcsICc3LjAnLCAnLXRuJywgJzgnLCAnLW1hJywgJzIwMCcsICctbWV0YWxfYmluZGluZycsICctaW1hZScsICc8aW5maWxlLm1hZT4nLCAnLW9tYWUnLCAnPG91dGZpbGUubWFlPic=

> <r_epik_Ionization_Penalty>
0.0567523

> <r_epik_Ionization_Penalty_Charging>
0

> <r_epik_Ionization_Penalty_Neutral>
0.0567523

> <r_epik_State_Penalty>
0.0489186

> <r_epik_Charging_Adjusted_Penalty>
0.0489186

> <i_epik_Tot_Q>
0

> <i_epik_Tot_abs_Q>
0

> <r_epik_Metal_State_Penalty>
0.044622

> <b_epik_Metal_Only>
0

> <s_lp_Force_Field>
OPLS_2005

> <r_lp_Energy>
57.787

> <b_lp_Chiralities_Consistent>
1

> <s_lp_Variant>
AV-unprocessed.smi:767-2

> <Gold.Version>
5.8.1

> <Gold.Id.Protein>
6NUR|6NUR_protein|mol2

> <Gold.PLP.Fitness>
46.5061

> <Gold.PLP.PLP>
-35.5665

> <Gold.PLP.part.hbond>
-2.8665

> <Gold.PLP.part.metal>
0.0000

> <Gold.PLP.part.buried>
-2.0484

> <Gold.PLP.part.nonpolar>
-31.2701

> <Gold.PLP.part.repulsive>
0.2530

> <Gold.PLP.ligand.clash>
0.0000

> <Gold.PLP.ligand.torsion>
0.6642

> <Gold.PLP.Chemscore.Hbond>
3.0000

> <Gold.PLP.Chemscore.CHOScore>
1.0000

> <Gold.PLP.Chemscore.Metal>
0.0000

> <Gold.Chemscore.Hbonds>
donor molecule, donor type, donor heavy atom, donor atom, acceptor molecule, acceptor atom, score
      L1  H     8    32       P1  7948  1.00
      L1  H    11    33       P1  7948  1.00
      P1  H  7989  7998       L1    16  0.95
      L1  C    21    47       P1  7948  1.00

> <Gold.PLP.Chemscore.Internal.Correction>
0.2681

> <Gold.Rescore>
     Score         DG    S(hbond)    S(metal)    S(lipo)     H(rot)  DE(clash)    DE(int)     intcor
     21.21     -21.99       2.49        0.00     101.81       1.45       0.22       0.56       ----

> <Gold.Chemscore.Fitness>
21.2124

> <Gold.Chemscore.DG>
-21.9901

> <Gold.Chemscore.ZeroCoef>
-5.4800

> <Gold.Chemscore.Hbond>
2.4878

> <Gold.Chemscore.Metal>
0.0000

> <Gold.Chemscore.Lipo>
101.8120

> <Gold.Chemscore.Internal_Hbond>
0.0000

> <Gold.Chemscore.DEClash>
0.2162

> <Gold.Chemscore.DEInternal>
0.5615

> <Gold.Chemscore.Rot>
1.4497

> <Gold.Chemscore.Internal.Correction>
   9.000000E+99

> <Gold.Chemscore.Hbonds>
donor molecule, donor type, donor heavy atom, donor atom, acceptor molecule, acceptor atom, score
      L1  H     8    32       P1  7948  0.74
      L1  H    11    33       P1  7948  0.91
      P1  H  7989  7998       L1    16  0.21

> <Gold.Chemscore.Hbond.Weighted>
-8.3093

> <Gold.Chemscore.Metal.Weighted>
-0.0000

> <Gold.Chemscore.Lipo.Weighted>
-11.9120

> <Gold.Chemscore.Internal_Hbond.Weighted>
0.0000

> <Gold.Chemscore.DEClash.Weighted>
0.2162

> <Gold.Chemscore.DEInternal.Weighted>
0.5615

> <Gold.Chemscore.Rot.Weighted>
3.7112

> <Gold.Chemscore.Internal.Correction.Weighted>
   9.000000E+99

> <Gold.Protein.RotatedTorsions>
[ 6907 6896 6895 6894 ] final  -72.06 input  -60.11 | X-H torsion
[ 7974 7965 7964 7962 ] final   83.26 input  175.53 | X-H torsion
[ 8008 7997 7996 7995 ] final   79.49 input   59.86 | X-H torsion
[ 10167 10162 10161 10158 ] final   26.20 input  -65.29 | X-H torsion
[ 10718 10713 10712 10709 ] final    3.51 input   66.30 | X-H torsion
[ 10763 10752 10751 10750 ] final  -79.73 input  -60.55 | X-H torsion
[ 11005 11000 10999 10996 ] final   -8.84 input  -57.11 | X-H torsion

> <Gold.Protein.ActiveResidues>
 VAL166  LYS551  ARG553  GLY616  TRP617  ASP618  TYR619  PRO620  LYS621  CYS622 
 ASP623  PHE694  ASN695  SER759  ASP760  ASP761  ALA762  ILE779  LEU786  VAL792 
 PHE793  MET794  SER795  GLU796  ALA797  LYS798  CYS799  TRP800  GLU811  SER814 

> <Gold.Protein.RotatedAtoms>
  150.7186  134.5218  159.5657 H   0  0  0  0  0  0  0  0  0  0  0  0  # atno 6907 bound_to 6896
  152.2772  134.7866  160.0412 H   0  0  0  0  0  0  0  0  0  0  0  0  # atno 6908 bound_to 6896
  151.8525  133.3407  159.3714 H   0  0  0  0  0  0  0  0  0  0  0  0  # atno 6909 bound_to 6896
  145.6142  139.2374  143.2175 H   0  0  0  0  0  0  0  0  0  0  0  0  # atno 7974 bound_to 7965
  155.8704  140.3449  155.5817 H   0  0  0  0  0  0  0  0  0  0  0  0  # atno 8008 bound_to 7997
  155.7834  140.0861  157.2066 H   0  0  0  0  0  0  0  0  0  0  0  0  # atno 8009 bound_to 7997
  154.4017  140.1496  156.3066 H   0  0  0  0  0  0  0  0  0  0  0  0  # atno 8010 bound_to 7997
  140.5043  144.0265  150.6345 H   0  0  0  0  0  0  0  0  0  0  0  0  # atno 10167 bound_to 10162
  156.8788  130.5646  149.5654 H   0  0  0  0  0  0  0  0  0  0  0  0  # atno 10718 bound_to 10713
  154.5423  135.5685  153.6850 H   0  0  0  0  0  0  0  0  0  0  0  0  # atno 10763 bound_to 10752
  152.9967  135.6231  154.2485 H   0  0  0  0  0  0  0  0  0  0  0  0  # atno 10764 bound_to 10752
  154.2417  135.2862  155.2831 H   0  0  0  0  0  0  0  0  0  0  0  0  # atno 10765 bound_to 10752
  140.7277  133.8775  155.8869 H   0  0  0  0  0  0  0  0  0  0  0  0  # atno 11005 bound_to 11000
  146.1481  140.6964  142.9335 LP  0  0  0  0  0  0  0  0  0  0  0  0  # atno 17320 bound_to 7965
  144.7257  140.4517  143.6975 LP  0  0  0  0  0  0  0  0  0  0  0  0  # atno 17321 bound_to 7965
  140.3569  143.2930  152.0426 LP  0  0  0  0  0  0  0  0  0  0  0  0  # atno 17342 bound_to 10162
  139.4879  144.6332  151.7028 LP  0  0  0  0  0  0  0  0  0  0  0  0  # atno 17343 bound_to 10162
  156.0688  130.5725  150.9341 LP  0  0  0  0  0  0  0  0  0  0  0  0  # atno 17370 bound_to 10713
  157.6152  131.0934  150.8723 LP  0  0  0  0  0  0  0  0  0  0  0  0  # atno 17371 bound_to 10713
  140.9948  134.1230  157.4374 LP  0  0  0  0  0  0  0  0  0  0  0  0  # atno 17394 bound_to 11000
  139.8833  135.0051  156.6292 LP  0  0  0  0  0  0  0  0  0  0  0  0  # atno 17395 bound_to 11000

$$$$
