AV-unprocessed.smi:3316|AV-procd|sdf|12759|dock2
  -GOLD-   2272019 93D 1   1.00000     0.00000
 Structure written by MMmdl.
 41 43  0  0  0  0  0  0  0  0  2 V2000
  147.5760  139.9119  153.8659 C   0  0  0  0  0  0  0  0  0  0  0  0
  148.6109  140.0762  154.9901 C   0  0  2  0  0  0  0  0  0  0  0  0
  149.2966  141.4546  154.9263 C   0  0  0  0  0  0  0  0  0  0  0  0
  149.4362  142.0567  156.2678 N   0  3  0  0  0  0  0  0  0  0  0  0
  150.7494  141.8217  156.8980 C   0  0  0  0  0  0  0  0  0  0  0  0
  150.7739  142.3434  158.3470 C   0  0  1  0  0  0  0  0  0  0  0  0
  152.0409  141.9165  159.1497 C   0  0  0  0  0  0  0  0  0  0  0  0
  152.5749  143.2602  159.6974 C   0  0  1  0  0  0  0  0  0  0  0  0
  153.0868  144.0638  158.5214 C   0  0  0  0  0  0  0  0  0  0  0  0
  152.0252  144.4421  157.8077 C   0  0  0  0  0  0  0  0  0  0  0  0
  150.7952  143.8890  158.5001 C   0  0  2  0  0  0  0  0  0  0  0  0
  151.2521  143.9874  159.9606 C   0  0  0  0  0  0  0  0  0  0  0  0
  149.6185  138.9327  154.9867 C   0  0  0  0  0  0  0  0  0  0  0  0
  150.9931  139.1894  154.7974 C   0  0  0  0  0  0  0  0  0  0  0  0
  151.8890  138.1015  154.7944 C   0  0  0  0  0  0  0  0  0  0  0  0
  151.4990  136.8198  154.9602 N   0  0  0  0  0  0  0  0  0  0  0  0
  150.1836  136.5786  155.1431 C   0  0  0  0  0  0  0  0  0  0  0  0
  149.2063  137.5938  155.1628 C   0  0  0  0  0  0  0  0  0  0  0  0
  147.0562  138.9569  153.9491 H   0  0  0  0  0  0  0  0  0  0  0  0
  148.0404  139.9536  152.8802 H   0  0  0  0  0  0  0  0  0  0  0  0
  146.8231  140.6992  153.9082 H   0  0  0  0  0  0  0  0  0  0  0  0
  148.0622  140.0290  155.9322 H   0  0  0  0  0  0  0  0  0  0  0  0
  150.2809  141.3716  154.4637 H   0  0  0  0  0  0  0  0  0  0  0  0
  148.7089  142.1284  154.3014 H   0  0  0  0  0  0  0  0  0  0  0  0
  149.2932  143.0535  156.1892 H   0  0  0  0  0  0  0  0  0  0  0  0
  150.9494  140.7493  156.8948 H   0  0  0  0  0  0  0  0  0  0  0  0
  151.5324  142.2894  156.3001 H   0  0  0  0  0  0  0  0  0  0  0  0
  149.8948  141.9548  158.8646 H   0  0  0  0  0  0  0  0  0  0  0  0
  151.7723  141.2404  159.9623 H   0  0  0  0  0  0  0  0  0  0  0  0
  152.7851  141.4115  158.5317 H   0  0  0  0  0  0  0  0  0  0  0  0
  153.2583  143.2019  160.5450 H   0  0  0  0  0  0  0  0  0  0  0  0
  154.1290  144.2511  158.3087 H   0  0  0  0  0  0  0  0  0  0  0  0
  152.0149  145.0049  156.8859 H   0  0  0  0  0  0  0  0  0  0  0  0
  149.8659  144.4113  158.2710 H   0  0  0  0  0  0  0  0  0  0  0  0
  150.5980  143.4737  160.6680 H   0  0  0  0  0  0  0  0  0  0  0  0
  151.3920  145.0176  160.2955 H   0  0  0  0  0  0  0  0  0  0  0  0
  151.3607  140.1957  154.6592 H   0  0  0  0  0  0  0  0  0  0  0  0
  152.9469  138.2656  154.6525 H   0  0  0  0  0  0  0  0  0  0  0  0
  149.9000  135.5449  155.2753 H   0  0  0  0  0  0  0  0  0  0  0  0
  148.1664  137.3432  155.3122 H   0  0  0  0  0  0  0  0  0  0  0  0
  148.7186  141.6740  156.8673 H   0  0  0  0  0  0  0  0  0  0  0  0
  1  2  1  0  0  0  0
  1 19  1  0  0  0  0
  1 20  1  0  0  0  0
  1 21  1  0  0  0  0
  2  3  1  0  0  0  0
  2 13  1  0  0  0  0
  2 22  1  0  0  0  0
  3  4  1  0  0  0  0
  3 23  1  0  0  0  0
  3 24  1  0  0  0  0
  4  5  1  0  0  0  0
  4 25  1  0  0  0  0
  4 41  1  0  0  0  0
  5  6  1  0  0  0  0
  5 26  1  0  0  0  0
  5 27  1  0  0  0  0
  6 11  1  0  0  0  0
  6  7  1  0  0  0  0
  6 28  1  0  0  0  0
  7  8  1  0  0  0  0
  7 29  1  0  0  0  0
  7 30  1  0  0  0  0
  8 12  1  0  0  0  0
  8  9  1  0  0  0  0
  8 31  1  0  0  0  0
  9 10  2  0  0  0  0
  9 32  1  0  0  0  0
 10 11  1  0  0  0  0
 10 33  1  0  0  0  0
 11 12  1  0  0  0  0
 11 34  1  0  0  0  0
 12 35  1  0  0  0  0
 12 36  1  0  0  0  0
 13 18  1  0  0  0  0
 13 14  2  0  0  0  0
 14 15  1  0  0  0  0
 14 37  1  0  0  0  0
 15 16  2  0  0  0  0
 15 38  1  0  0  0  0
 16 17  1  0  0  0  0
 17 18  2  0  0  0  0
 17 39  1  0  0  0  0
 18 40  1  0  0  0  0
M  CHG  1   4   1
M  END
> <s_m_source_file>
AV-unprocessed.smi

> <i_m_source_file_index>
3316

> <i_lp_mmshare_version>
43012

> <i_f3d_flags>
0

> <s_epik_input>
W2NIXTFbY0hdbltjSF1bY0hdYzFbQ0BIXShbQ0gzXSlbQ0gyXVtOSF1bQ0gyXVtDQEhdKFtDSDJdW0NASF0yMylbQ0BIXShbQ0gyXTMpW0NIXT1bQ0hdMg==

> <s_epik_cmdline>
J2VwaWtfcHl0aG9uJywgJy1waCcsICc3LjAnLCAnLXRuJywgJzgnLCAnLW1hJywgJzIwMCcsICctbWV0YWxfYmluZGluZycsICctaW1hZScsICc8aW5maWxlLm1hZT4nLCAnLW9tYWUnLCAnPG91dGZpbGUubWFlPic=

> <r_lp_tautomer_probability>
1

> <r_epik_Ionization_Penalty>
0.00280406

> <r_epik_Ionization_Penalty_Charging>
0.000446589

> <r_epik_Ionization_Penalty_Neutral>
0.00235747

> <r_epik_State_Penalty>
-0

> <r_epik_Charging_Adjusted_Penalty>
0.000446589

> <i_epik_Tot_Q>
1

> <i_epik_Tot_abs_Q>
1

> <r_epik_Metal_State_Penalty>
-0

> <b_epik_Metal_Only>
0

> <s_lp_Force_Field>
OPLS_2005

> <r_lp_Energy>
65.6453

> <b_lp_Chiralities_Consistent>
1

> <s_lp_Variant>
AV-unprocessed.smi:3316-7

> <Gold.Version>
5.8.1

> <Gold.Id.Protein>
6NUR|6NUR_protein|mol2

> <Gold.PLP.Fitness>
50.1942

> <Gold.PLP.PLP>
-42.9140

> <Gold.PLP.part.hbond>
-2.0000

> <Gold.PLP.part.metal>
0.0000

> <Gold.PLP.part.buried>
-3.2466

> <Gold.PLP.part.nonpolar>
-38.3524

> <Gold.PLP.part.repulsive>
0.1952

> <Gold.PLP.ligand.clash>
0.0000

> <Gold.PLP.ligand.torsion>
0.9068

> <Gold.PLP.Chemscore.Hbond>
3.0000

> <Gold.PLP.Chemscore.CHOScore>
0.0000

> <Gold.PLP.Chemscore.Metal>
0.0000

> <Gold.Chemscore.Hbonds>
donor molecule, donor type, donor heavy atom, donor atom, acceptor molecule, acceptor atom, score
      L1  H     4    25       P1  8028  2.00
      P1  H 10752 10763       L1    16  1.00

> <Gold.PLP.Chemscore.Internal.Correction>
0.0938

> <Gold.Rescore>
     Score         DG    S(hbond)    S(metal)    S(lipo)     H(rot)  DE(clash)    DE(int)     intcor
     23.84     -24.85       1.96        0.00     139.56       1.36       0.12       0.89       ----

> <Gold.Chemscore.Fitness>
23.8409

> <Gold.Chemscore.DG>
-24.8469

> <Gold.Chemscore.ZeroCoef>
-5.4800

> <Gold.Chemscore.Hbond>
1.9551

> <Gold.Chemscore.Metal>
0.0000

> <Gold.Chemscore.Lipo>
139.5623

> <Gold.Chemscore.Internal_Hbond>
0.0000

> <Gold.Chemscore.DEClash>
0.1196

> <Gold.Chemscore.DEInternal>
0.8864

> <Gold.Chemscore.Rot>
1.3640

> <Gold.Chemscore.Internal.Correction>
   9.000000E+99

> <Gold.Chemscore.Hbonds>
donor molecule, donor type, donor heavy atom, donor atom, acceptor molecule, acceptor atom, score
      L1  H     4    25       P1  8028  1.00
      P1  H 10752 10763       L1    16  0.69

> <Gold.Chemscore.Hbond.Weighted>
-6.5300

> <Gold.Chemscore.Metal.Weighted>
-0.0000

> <Gold.Chemscore.Lipo.Weighted>
-16.3288

> <Gold.Chemscore.Internal_Hbond.Weighted>
0.0000

> <Gold.Chemscore.DEClash.Weighted>
0.1196

> <Gold.Chemscore.DEInternal.Weighted>
0.8864

> <Gold.Chemscore.Rot.Weighted>
3.4919

> <Gold.Chemscore.Internal.Correction.Weighted>
   9.000000E+99

> <Gold.Protein.RotatedTorsions>
[ 6907 6896 6895 6894 ] final -167.58 input  -60.11 | X-H torsion
[ 7974 7965 7964 7962 ] final  166.99 input  175.53 | X-H torsion
[ 8008 7997 7996 7995 ] final -132.59 input   59.86 | X-H torsion
[ 10167 10162 10161 10158 ] final   80.71 input  -65.29 | X-H torsion
[ 10718 10713 10712 10709 ] final  -42.77 input   66.30 | X-H torsion
[ 10763 10752 10751 10750 ] final   47.89 input  -60.55 | X-H torsion
[ 11005 11000 10999 10996 ] final -126.70 input  -57.11 | X-H torsion

> <Gold.Protein.ActiveResidues>
 VAL166  LYS551  ARG553  GLY616  TRP617  ASP618  TYR619  PRO620  LYS621  CYS622 
 ASP623  PHE694  ASN695  SER759  ASP760  ASP761  ALA762  ILE779  LEU786  VAL792 
 PHE793  MET794  SER795  GLU796  ALA797  LYS798  CYS799  TRP800  GLU811  SER814 

> <Gold.Protein.RotatedAtoms>
  151.4619  133.3590  159.2810 H   0  0  0  0  0  0  0  0  0  0  0  0  # atno 6907 bound_to 6896
  150.9020  134.8434  159.7377 H   0  0  0  0  0  0  0  0  0  0  0  0  # atno 6908 bound_to 6896
  152.4884  134.4540  159.9635 H   0  0  0  0  0  0  0  0  0  0  0  0  # atno 6909 bound_to 6896
  144.7441  139.8696  143.6388 H   0  0  0  0  0  0  0  0  0  0  0  0  # atno 7974 bound_to 7965
  155.3314  140.0467  157.3042 H   0  0  0  0  0  0  0  0  0  0  0  0  # atno 8008 bound_to 7997
  154.5326  140.2262  155.8743 H   0  0  0  0  0  0  0  0  0  0  0  0  # atno 8009 bound_to 7997
  156.1803  140.3075  155.9143 H   0  0  0  0  0  0  0  0  0  0  0  0  # atno 8010 bound_to 7997
  139.9469  144.6052  150.8198 H   0  0  0  0  0  0  0  0  0  0  0  0  # atno 10167 bound_to 10162
  156.2561  130.4192  149.8595 H   0  0  0  0  0  0  0  0  0  0  0  0  # atno 10718 bound_to 10713
  152.9796  135.5962  154.3836 H   0  0  0  0  0  0  0  0  0  0  0  0  # atno 10763 bound_to 10752
  154.3499  135.2767  155.2379 H   0  0  0  0  0  0  0  0  0  0  0  0  # atno 10764 bound_to 10752
  154.4424  135.6010  153.6193 H   0  0  0  0  0  0  0  0  0  0  0  0  # atno 10765 bound_to 10752
  140.9660  134.0871  157.3919 H   0  0  0  0  0  0  0  0  0  0  0  0  # atno 11005 bound_to 11000
  146.1290  139.4321  143.0181 LP  0  0  0  0  0  0  0  0  0  0  0  0  # atno 17320 bound_to 7965
  145.7192  141.0080  143.1411 LP  0  0  0  0  0  0  0  0  0  0  0  0  # atno 17321 bound_to 7965
  140.7594  143.3129  151.2802 LP  0  0  0  0  0  0  0  0  0  0  0  0  # atno 17342 bound_to 10162
  139.6659  144.0106  152.2723 LP  0  0  0  0  0  0  0  0  0  0  0  0  # atno 17343 bound_to 10162
  156.6127  130.8593  151.3458 LP  0  0  0  0  0  0  0  0  0  0  0  0  # atno 17370 bound_to 10713
  157.7233  130.9588  150.1527 LP  0  0  0  0  0  0  0  0  0  0  0  0  # atno 17371 bound_to 10713
  139.8895  135.0105  156.6681 LP  0  0  0  0  0  0  0  0  0  0  0  0  # atno 17394 bound_to 11000
  140.7398  133.8987  155.8270 LP  0  0  0  0  0  0  0  0  0  0  0  0  # atno 17395 bound_to 11000

$$$$
