AV-unprocessed.smi:99|AV-procd|sdf|888|dock1
  -GOLD-   2262017373D 1   1.00000     0.00000
 Structure written by MMmdl.
 52 55  0  0  0  0  0  0  0  0  2 V2000
  149.5089  135.6218  158.3790 O   0  0  0  0  0  0  0  0  0  0  0  0
  148.8825  136.3853  159.1166 C   0  0  0  0  0  0  0  0  0  0  0  0
  148.8538  137.7238  158.9577 O   0  0  0  0  0  0  0  0  0  0  0  0
  149.9652  138.3982  158.3877 C   0  0  0  0  0  0  0  0  0  0  0  0
  150.0833  138.0503  156.8906 C   0  0  1  0  0  0  0  0  0  0  0  0
  148.7919  137.6807  156.4219 O   0  0  0  0  0  0  0  0  0  0  0  0
  148.1995  138.7893  155.8210 C   0  0  2  0  0  0  0  0  0  0  0  0
  146.9610  138.3593  155.0476 N   0  0  0  0  0  0  0  0  0  0  0  0
  146.9923  137.3085  154.1418 C   0  0  0  0  0  0  0  0  0  0  0  0
  145.9047  136.9552  153.4264 C   0  0  0  0  0  0  0  0  0  0  0  0
  144.6660  137.7082  153.5886 C   0  0  0  0  0  0  0  0  0  0  0  0
  143.6648  137.3502  152.9715 O   0  0  0  0  0  0  0  0  0  0  0  0
  144.6799  138.7900  154.4181 N   0  5  0  0  0  0  0  0  0  0  0  0
  145.7864  139.1624  155.1257 C   0  0  0  0  0  0  0  0  0  0  0  0
  145.8168  140.1762  155.8239 O   0  0  0  0  0  0  0  0  0  0  0  0
  149.3563  139.3850  154.9995 C   0  0  2  0  0  0  0  0  0  0  0  0
  149.6318  138.6930  153.7942 O   0  0  0  0  0  0  0  0  0  0  0  0
  150.5364  139.1902  155.9456 C   0  0  1  0  0  0  0  0  0  0  0  0
  150.7886  140.4119  156.6370 O   0  0  0  0  0  0  0  0  0  0  0  0
  151.8500  140.5471  157.4652 C   0  0  0  0  0  0  0  0  0  0  0  0
  152.6499  139.6434  157.7146 O   0  0  0  0  0  0  0  0  0  0  0  0
  151.9247  141.8997  158.0881 C   0  0  0  0  0  0  0  0  0  0  0  0
  151.2620  142.9847  157.4682 C   0  0  0  0  0  0  0  0  0  0  0  0
  151.3482  144.2818  158.0094 C   0  0  0  0  0  0  0  0  0  0  0  0
  152.0969  144.5097  159.1785 C   0  0  0  0  0  0  0  0  0  0  0  0
  152.7569  143.4379  159.8076 C   0  0  0  0  0  0  0  0  0  0  0  0
  152.6712  142.1398  159.2682 C   0  0  0  0  0  0  0  0  0  0  0  0
  148.0339  135.9204  160.2509 C   0  0  0  0  0  0  0  0  0  0  0  0
  147.5678  134.5851  160.2646 C   0  0  0  0  0  0  0  0  0  0  0  0
  146.7331  134.1277  161.3023 C   0  0  0  0  0  0  0  0  0  0  0  0
  146.3561  134.9996  162.3404 C   0  0  0  0  0  0  0  0  0  0  0  0
  146.8166  136.3291  162.3404 C   0  0  0  0  0  0  0  0  0  0  0  0
  147.6512  136.7884  161.3033 C   0  0  0  0  0  0  0  0  0  0  0  0
  149.8293  139.4726  158.5146 H   0  0  0  0  0  0  0  0  0  0  0  0
  150.8884  138.1273  158.9023 H   0  0  0  0  0  0  0  0  0  0  0  0
  150.7400  137.1874  156.7755 H   0  0  0  0  0  0  0  0  0  0  0  0
  147.8257  139.4811  156.5785 H   0  0  0  0  0  0  0  0  0  0  0  0
  147.9040  136.7586  153.9697 H   0  0  0  0  0  0  0  0  0  0  0  0
  145.9555  136.1363  152.7238 H   0  0  0  0  0  0  0  0  0  0  0  0
  149.1586  140.4337  154.7732 H   0  0  0  0  0  0  0  0  0  0  0  0
  149.5587  139.3052  153.0779 H   0  0  0  0  0  0  0  0  0  0  0  0
  151.4125  138.8699  155.3797 H   0  0  0  0  0  0  0  0  0  0  0  0
  150.6904  142.8366  156.5634 H   0  0  0  0  0  0  0  0  0  0  0  0
  150.8427  145.1034  157.5235 H   0  0  0  0  0  0  0  0  0  0  0  0
  152.1659  145.5053  159.5914 H   0  0  0  0  0  0  0  0  0  0  0  0
  153.3343  143.6118  160.7036 H   0  0  0  0  0  0  0  0  0  0  0  0
  153.1981  141.3418  159.7705 H   0  0  0  0  0  0  0  0  0  0  0  0
  147.8360  133.9005  159.4730 H   0  0  0  0  0  0  0  0  0  0  0  0
  146.3789  133.1075  161.2995 H   0  0  0  0  0  0  0  0  0  0  0  0
  145.7140  134.6493  163.1350 H   0  0  0  0  0  0  0  0  0  0  0  0
  146.5265  136.9999  163.1354 H   0  0  0  0  0  0  0  0  0  0  0  0
  147.9799  137.8170  161.3288 H   0  0  0  0  0  0  0  0  0  0  0  0
  1  2  2  0  0  0  0
  2  3  1  0  0  0  0
  2 28  1  0  0  0  0
  3  4  1  0  0  0  0
  4  5  1  0  0  0  0
  4 34  1  0  0  0  0
  4 35  1  0  0  0  0
  5 18  1  0  0  0  0
  5  6  1  0  0  0  0
  5 36  1  0  0  0  0
  6  7  1  0  0  0  0
  7  8  1  0  0  0  0
  7 16  1  0  0  0  0
  7 37  1  0  0  0  0
  8 14  1  0  0  0  0
  8  9  1  0  0  0  0
  9 10  2  0  0  0  0
  9 38  1  0  0  0  0
 10 11  1  0  0  0  0
 10 39  1  0  0  0  0
 11 12  2  0  0  0  0
 11 13  1  0  0  0  0
 13 14  1  0  0  0  0
 14 15  2  0  0  0  0
 16 17  1  0  0  0  0
 16 18  1  0  0  0  0
 16 40  1  0  0  0  0
 17 41  1  0  0  0  0
 18 19  1  0  0  0  0
 18 42  1  0  0  0  0
 19 20  1  0  0  0  0
 20 21  2  0  0  0  0
 20 22  1  0  0  0  0
 22 27  1  0  0  0  0
 22 23  2  0  0  0  0
 23 24  1  0  0  0  0
 23 43  1  0  0  0  0
 24 25  2  0  0  0  0
 24 44  1  0  0  0  0
 25 26  1  0  0  0  0
 25 45  1  0  0  0  0
 26 27  2  0  0  0  0
 26 46  1  0  0  0  0
 27 47  1  0  0  0  0
 28 33  1  0  0  0  0
 28 29  2  0  0  0  0
 29 30  1  0  0  0  0
 29 48  1  0  0  0  0
 30 31  2  0  0  0  0
 30 49  1  0  0  0  0
 31 32  1  0  0  0  0
 31 50  1  0  0  0  0
 32 33  2  0  0  0  0
 32 51  1  0  0  0  0
 33 52  1  0  0  0  0
M  CHG  1  13  -1
M  END
> <s_m_source_file>
AV-unprocessed.smi

> <i_m_source_file_index>
99

> <i_lp_mmshare_version>
43012

> <i_f3d_flags>
0

> <s_epik_input>
W2NIXTFbY0hdW2NIXVtjSF1bY0hdYzFDKD1PKU9bQ0gyXVtDQEBIXTJPW0NAQEhdKG4zW2NIXVtjSF1jKD1PKVtuSF1jMz1PKVtDQEBIXShbT0hdKVtDQEhdMk9DKD1PKWM0W2NIXVtjSF1bY0hdW2NIXVtjSF00

> <s_epik_cmdline>
J2VwaWtfcHl0aG9uJywgJy1waCcsICc3LjAnLCAnLXRuJywgJzgnLCAnLW1hJywgJzIwMCcsICctbWV0YWxfYmluZGluZycsICctaW1hZScsICc8aW5maWxlLm1hZT4nLCAnLW9tYWUnLCAnPG91dGZpbGUubWFlPic=

> <r_lp_tautomer_probability>
1

> <r_epik_Ionization_Penalty>
2.89159

> <r_epik_Ionization_Penalty_Charging>
2.1077e-08

> <r_epik_Ionization_Penalty_Neutral>
2.89159

> <r_epik_State_Penalty>
2.88671

> <r_epik_Charging_Adjusted_Penalty>
2.88671

> <i_epik_Tot_Q>
-1

> <i_epik_Tot_abs_Q>
1

> <r_epik_Metal_State_Penalty>
0.0727308

> <b_epik_Metal_Only>
1

> <s_epik_Chemistry_Notes>
This compound has an ester and may undergo hydrolysis at high or low pH. This compound contains an acetal/aminal-like group ( X-CH(R)-Y where X, Y are N, S, or O) that may be acid/base labile, releasing an aldehyde.

> <s_lp_Force_Field>
OPLS_2005

> <r_lp_Energy>
52.0393

> <b_lp_Chiralities_Consistent>
1

> <s_lp_Variant>
AV-unprocessed.smi:99-24

> <Gold.Version>
5.8.1

> <Gold.Id.Protein>
6NUR|6NUR_protein|mol2

> <Gold.PLP.Fitness>
57.5096

> <Gold.PLP.PLP>
-48.2097

> <Gold.PLP.part.hbond>
-3.5094

> <Gold.PLP.part.metal>
0.0000

> <Gold.PLP.part.buried>
-5.2336

> <Gold.PLP.part.nonpolar>
-39.9744

> <Gold.PLP.part.repulsive>
1.1244

> <Gold.PLP.ligand.clash>
0.0000

> <Gold.PLP.ligand.torsion>
1.5464

> <Gold.PLP.Chemscore.Hbond>
2.9913

> <Gold.PLP.Chemscore.CHOScore>
1.0000

> <Gold.PLP.Chemscore.Metal>
0.0000

> <Gold.Chemscore.Hbonds>
donor molecule, donor type, donor heavy atom, donor atom, acceptor molecule, acceptor atom, score
      L1  H    17    41       P1  7957  0.96
      P1  H  6896  6908       L1     1  1.00
      P1  H  7997  8008       L1    21  0.89
      L1  C     9    38       P1  7948  0.97

> <Gold.PLP.Chemscore.Internal.Correction>
0.4189

> <Gold.Rescore>
     Score         DG    S(hbond)    S(metal)    S(lipo)     H(rot)  DE(clash)    DE(int)     intcor
     18.29     -21.25       2.58        0.00     129.55       3.13       0.37       2.59       ----

> <Gold.Chemscore.Fitness>
18.2888

> <Gold.Chemscore.DG>
-21.2464

> <Gold.Chemscore.ZeroCoef>
-5.4800

> <Gold.Chemscore.Hbond>
2.5849

> <Gold.Chemscore.Metal>
0.0000

> <Gold.Chemscore.Lipo>
129.5494

> <Gold.Chemscore.Internal_Hbond>
0.0000

> <Gold.Chemscore.DEClash>
0.3653

> <Gold.Chemscore.DEInternal>
2.5923

> <Gold.Chemscore.Rot>
3.1346

> <Gold.Chemscore.Internal.Correction>
   9.000000E+99

> <Gold.Chemscore.Hbonds>
donor molecule, donor type, donor heavy atom, donor atom, acceptor molecule, acceptor atom, score
      L1  H    17    41       P1  7957  0.89
      P1  H  6896  6908       L1     1  0.68
      P1  H  7997  8008       L1    21  0.70

> <Gold.Chemscore.Hbond.Weighted>
-8.6336

> <Gold.Chemscore.Metal.Weighted>
-0.0000

> <Gold.Chemscore.Lipo.Weighted>
-15.1573

> <Gold.Chemscore.Internal_Hbond.Weighted>
0.0000

> <Gold.Chemscore.DEClash.Weighted>
0.3653

> <Gold.Chemscore.DEInternal.Weighted>
2.5923

> <Gold.Chemscore.Rot.Weighted>
8.0246

> <Gold.Chemscore.Internal.Correction.Weighted>
   9.000000E+99

> <Gold.Protein.RotatedTorsions>
[ 6907 6896 6895 6894 ] final  162.17 input  -60.11 | X-H torsion
[ 7974 7965 7964 7962 ] final   78.73 input  175.53 | X-H torsion
[ 8008 7997 7996 7995 ] final  -82.36 input   59.86 | X-H torsion
[ 10167 10162 10161 10158 ] final  -65.36 input  -65.29 | X-H torsion
[ 10718 10713 10712 10709 ] final   26.54 input   66.30 | X-H torsion
[ 10763 10752 10751 10750 ] final  -30.05 input  -60.55 | X-H torsion
[ 11005 11000 10999 10996 ] final   73.56 input  -57.11 | X-H torsion

> <Gold.Protein.ActiveResidues>
 VAL166  LYS551  ARG553  GLY616  TRP617  ASP618  TYR619  PRO620  LYS621  CYS622 
 ASP623  PHE694  ASN695  SER759  ASP760  ASP761  ALA762  ILE779  LEU786  VAL792 
 PHE793  MET794  SER795  GLU796  ALA797  LYS798  CYS799  TRP800  GLU811  SER814 

> <Gold.Protein.RotatedAtoms>
  151.9444  133.3647  159.3976 H   0  0  0  0  0  0  0  0  0  0  0  0  # atno 6907 bound_to 6896
  150.6992  134.4405  159.5299 H   0  0  0  0  0  0  0  0  0  0  0  0  # atno 6908 bound_to 6896
  152.2068  134.8538  160.0552 H   0  0  0  0  0  0  0  0  0  0  0  0  # atno 6909 bound_to 6896
  145.6734  139.2503  143.1855 H   0  0  0  0  0  0  0  0  0  0  0  0  # atno 7974 bound_to 7965
  154.6078  140.0634  156.9453 H   0  0  0  0  0  0  0  0  0  0  0  0  # atno 8008 bound_to 7997
  155.2024  140.3316  155.4323 H   0  0  0  0  0  0  0  0  0  0  0  0  # atno 8009 bound_to 7997
  156.2358  140.1862  156.7107 H   0  0  0  0  0  0  0  0  0  0  0  0  # atno 8010 bound_to 7997
  140.5735  143.2320  151.6490 H   0  0  0  0  0  0  0  0  0  0  0  0  # atno 10167 bound_to 10162
  157.2082  130.6922  149.6217 H   0  0  0  0  0  0  0  0  0  0  0  0  # atno 10718 bound_to 10713
  153.7747  135.6909  153.4900 H   0  0  0  0  0  0  0  0  0  0  0  0  # atno 10763 bound_to 10752
  153.1851  135.4492  155.0077 H   0  0  0  0  0  0  0  0  0  0  0  0  # atno 10764 bound_to 10752
  154.8104  135.3375  154.7254 H   0  0  0  0  0  0  0  0  0  0  0  0  # atno 10765 bound_to 10752
  139.9434  134.7357  156.1041 H   0  0  0  0  0  0  0  0  0  0  0  0  # atno 11005 bound_to 11000
  146.1026  140.7526  142.9542 LP  0  0  0  0  0  0  0  0  0  0  0  0  # atno 17320 bound_to 7965
  144.7049  140.3811  143.7126 LP  0  0  0  0  0  0  0  0  0  0  0  0  # atno 17321 bound_to 7965
  139.5130  144.3457  152.0699 LP  0  0  0  0  0  0  0  0  0  0  0  0  # atno 17342 bound_to 10162
  140.2598  144.4080  150.6190 LP  0  0  0  0  0  0  0  0  0  0  0  0  # atno 17343 bound_to 10162
  155.9693  130.4560  150.5908 LP  0  0  0  0  0  0  0  0  0  0  0  0  # atno 17370 bound_to 10713
  157.3698  131.0764  151.1567 LP  0  0  0  0  0  0  0  0  0  0  0  0  # atno 17371 bound_to 10713
  141.1076  133.6654  156.2902 LP  0  0  0  0  0  0  0  0  0  0  0  0  # atno 17394 bound_to 11000
  140.5895  134.5665  157.5496 LP  0  0  0  0  0  0  0  0  0  0  0  0  # atno 17395 bound_to 11000

$$$$
