AV-unprocessed.smi:255|AV-procd|sdf|1956|dock7
  -GOLD-   2262021 93D 1   1.00000     0.00000
 Structure written by MMmdl.
 44 47  0  0  0  0  0  0  0  0  1 V2000
  153.2352  139.1306  155.7517 O   0  0  0  0  0  0  0  0  0  0  0  0
  151.9354  139.0238  155.2122 C   0  0  0  0  0  0  0  0  0  0  0  0
  151.0662  140.2057  155.6941 C   0  0  1  0  0  0  0  0  0  0  0  0
  149.5946  140.1372  155.2834 C   0  0  0  0  0  0  0  0  0  0  0  0
  148.9606  141.1954  156.1866 C   0  0  1  0  0  0  0  0  0  0  0  0
  147.7244  140.8531  156.5488 F   0  0  0  0  0  0  0  0  0  0  0  0
  149.9074  141.3161  157.3933 C   0  0  0  0  0  0  0  0  0  0  0  0
  151.0437  140.4296  157.1410 N   0  0  0  0  0  0  0  0  0  0  0  0
  151.1048  139.3290  157.9317 C   0  0  0  0  0  0  0  0  0  0  0  0
  152.2916  138.9053  158.4437 N   0  0  0  0  0  0  0  0  0  0  0  0
  152.3327  137.8281  159.2336 C   0  0  0  0  0  0  0  0  0  0  0  0
  151.3268  137.0468  159.6333 N   0  0  0  0  0  0  0  0  0  0  0  0
  150.1346  137.4751  159.1274 C   0  0  0  0  0  0  0  0  0  0  0  0
  149.9381  138.5960  158.2736 C   0  0  0  0  0  0  0  0  0  0  0  0
  148.5926  138.7245  157.9549 N   0  0  0  0  0  0  0  0  0  0  0  0
  148.0241  137.7316  158.5831 C   0  0  0  0  0  0  0  0  0  0  0  0
  148.8738  136.9368  159.3201 N   0  0  0  0  0  0  0  0  0  0  0  0
  148.5095  135.7701  160.1086 C   0  0  0  0  0  0  0  0  0  0  0  0
  147.3790  136.0312  161.1368 C   0  0  2  0  0  0  0  0  0  0  0  0
  147.3896  137.3915  161.5257 O   0  0  0  0  0  0  0  0  0  0  0  0
  147.5137  135.1520  162.3692 C   0  0  0  0  0  0  0  0  0  0  0  0
  146.8152  133.8619  161.9445 C   0  0  0  0  0  0  0  0  0  0  0  0
  145.8431  134.2427  160.9751 O   0  0  0  0  0  0  0  0  0  0  0  0
  145.9798  135.6242  160.6569 C   0  0  0  0  0  0  0  0  0  0  0  0
  151.4939  141.1152  155.2686 H   0  0  0  0  0  0  0  0  0  0  0  0
  148.8928  142.1521  155.6678 H   0  0  0  0  0  0  0  0  0  0  0  0
  153.2863  138.5848  156.5213 H   0  0  0  0  0  0  0  0  0  0  0  0
  152.0054  138.9931  154.1242 H   0  0  0  0  0  0  0  0  0  0  0  0
  151.5088  138.0756  155.5406 H   0  0  0  0  0  0  0  0  0  0  0  0
  149.4369  140.3384  154.2236 H   0  0  0  0  0  0  0  0  0  0  0  0
  149.1845  139.1507  155.5044 H   0  0  0  0  0  0  0  0  0  0  0  0
  150.2736  142.3389  157.4860 H   0  0  0  0  0  0  0  0  0  0  0  0
  149.3949  141.0807  158.3275 H   0  0  0  0  0  0  0  0  0  0  0  0
  153.3114  137.5541  159.5990 H   0  0  0  0  0  0  0  0  0  0  0  0
  146.9599  137.5532  158.5300 H   0  0  0  0  0  0  0  0  0  0  0  0
  148.2202  134.9773  159.4179 H   0  0  0  0  0  0  0  0  0  0  0  0
  149.4049  135.4134  160.6194 H   0  0  0  0  0  0  0  0  0  0  0  0
  146.9636  137.4675  162.3657 H   0  0  0  0  0  0  0  0  0  0  0  0
  148.5459  134.9960  162.6851 H   0  0  0  0  0  0  0  0  0  0  0  0
  146.9718  135.5883  163.2101 H   0  0  0  0  0  0  0  0  0  0  0  0
  147.5229  133.1765  161.4773 H   0  0  0  0  0  0  0  0  0  0  0  0
  146.3539  133.3461  162.7869 H   0  0  0  0  0  0  0  0  0  0  0  0
  145.2143  136.1612  161.2198 H   0  0  0  0  0  0  0  0  0  0  0  0
  145.7952  135.8169  159.6010 H   0  0  0  0  0  0  0  0  0  0  0  0
  1  2  1  0  0  0  0
  1 27  1  0  0  0  0
  2  3  1  0  0  0  0
  2 28  1  0  0  0  0
  2 29  1  0  0  0  0
  3 25  1  0  0  0  0
  3  8  1  0  0  0  0
  3  4  1  0  0  0  0
  4  5  1  0  0  0  0
  4 30  1  0  0  0  0
  4 31  1  0  0  0  0
  5 26  1  0  0  0  0
  5  6  1  0  0  0  0
  5  7  1  0  0  0  0
  7  8  1  0  0  0  0
  7 32  1  0  0  0  0
  7 33  1  0  0  0  0
  8  9  1  0  0  0  0
  9 14  1  0  0  0  0
  9 10  2  0  0  0  0
 10 11  1  0  0  0  0
 11 12  2  0  0  0  0
 11 34  1  0  0  0  0
 12 13  1  0  0  0  0
 13 17  1  0  0  0  0
 13 14  2  0  0  0  0
 14 15  1  0  0  0  0
 15 16  2  0  0  0  0
 16 17  1  0  0  0  0
 16 35  1  0  0  0  0
 17 18  1  0  0  0  0
 18 19  1  0  0  0  0
 18 36  1  0  0  0  0
 18 37  1  0  0  0  0
 19 24  1  0  0  0  0
 19 20  1  0  0  0  0
 19 21  1  0  0  0  0
 20 38  1  0  0  0  0
 21 22  1  0  0  0  0
 21 39  1  0  0  0  0
 21 40  1  0  0  0  0
 22 23  1  0  0  0  0
 22 41  1  0  0  0  0
 22 42  1  0  0  0  0
 23 24  1  0  0  0  0
 24 43  1  0  0  0  0
 24 44  1  0  0  0  0
M  END
> <s_m_source_file>
AV-unprocessed.smi

> <i_m_source_file_index>
255

> <i_lp_mmshare_version>
43012

> <i_f3d_flags>
0

> <s_epik_input>
W09IXVtDSDJdW0NAQEhdMVtDSDJdW0NASF0oRilbQ0gyXU4xYyhuW2NIXW4yKWMoYzIzKW5bY0hdbjNbQ0gyXVtDQEBdNChbT0hdKVtDSDJdW0NIMl1PW0NIMl00

> <s_epik_cmdline>
J2VwaWtfcHl0aG9uJywgJy1waCcsICc3LjAnLCAnLXRuJywgJzgnLCAnLW1hJywgJzIwMCcsICctbWV0YWxfYmluZGluZycsICctaW1hZScsICc8aW5maWxlLm1hZT4nLCAnLW9tYWUnLCAnPG91dGZpbGUubWFlPic=

> <r_lp_tautomer_probability>
1

> <r_epik_Ionization_Penalty>
0.0058098

> <r_epik_Ionization_Penalty_Charging>
0

> <r_epik_Ionization_Penalty_Neutral>
0.0058098

> <r_epik_State_Penalty>
0.00411166

> <r_epik_Charging_Adjusted_Penalty>
0.00411166

> <i_epik_Tot_Q>
0

> <i_epik_Tot_abs_Q>
0

> <r_epik_Metal_State_Penalty>
-0

> <b_epik_Metal_Only>
0

> <s_lp_Force_Field>
OPLS_2005

> <r_lp_Energy>
54.0655

> <b_lp_Chiralities_Consistent>
1

> <s_lp_Variant>
AV-unprocessed.smi:255-8

> <Gold.Version>
5.8.1

> <Gold.Id.Protein>
6NUR|6NUR_protein|mol2

> <Gold.PLP.Fitness>
44.4759

> <Gold.PLP.PLP>
-36.0392

> <Gold.PLP.part.hbond>
-3.9944

> <Gold.PLP.part.metal>
0.0000

> <Gold.PLP.part.buried>
-5.9332

> <Gold.PLP.part.nonpolar>
-27.4872

> <Gold.PLP.part.repulsive>
0.0000

> <Gold.PLP.ligand.clash>
0.0000

> <Gold.PLP.ligand.torsion>
1.3457

> <Gold.PLP.Chemscore.Hbond>
3.6800

> <Gold.PLP.Chemscore.CHOScore>
0.0000

> <Gold.PLP.Chemscore.Metal>
0.0000

> <Gold.Chemscore.Hbonds>
donor molecule, donor type, donor heavy atom, donor atom, acceptor molecule, acceptor atom, score
      P1  H  6896  6909       L1    12  1.00
      P1  H  6931  6943       L1    20  0.82
      P1  H  6934  6947       L1    20  0.82
      P1  H  7997  8010       L1     1  1.00

> <Gold.PLP.Chemscore.Internal.Correction>
0.0881

> <Gold.Rescore>
     Score         DG    S(hbond)    S(metal)    S(lipo)     H(rot)  DE(clash)    DE(int)     intcor
      9.52     -13.44       2.94        0.00      56.84       3.33       0.00       3.92       ----

> <Gold.Chemscore.Fitness>
9.5196

> <Gold.Chemscore.DG>
-13.4370

> <Gold.Chemscore.ZeroCoef>
-5.4800

> <Gold.Chemscore.Hbond>
2.9416

> <Gold.Chemscore.Metal>
0.0000

> <Gold.Chemscore.Lipo>
56.8386

> <Gold.Chemscore.Internal_Hbond>
0.0000

> <Gold.Chemscore.DEClash>
0.0009

> <Gold.Chemscore.DEInternal>
3.9165

> <Gold.Chemscore.Rot>
3.3273

> <Gold.Chemscore.Internal.Correction>
   9.000000E+99

> <Gold.Chemscore.Hbonds>
donor molecule, donor type, donor heavy atom, donor atom, acceptor molecule, acceptor atom, score
      P1  H  6896  6909       L1    12  0.92
      P1  H  6931  6943       L1    20  0.20
      P1  H  6934  6947       L1    20  0.18
      P1  H  7997  8010       L1     1  0.25

> <Gold.Chemscore.Hbond.Weighted>
-9.8248

> <Gold.Chemscore.Metal.Weighted>
-0.0000

> <Gold.Chemscore.Lipo.Weighted>
-6.6501

> <Gold.Chemscore.Internal_Hbond.Weighted>
0.0000

> <Gold.Chemscore.DEClash.Weighted>
0.0009

> <Gold.Chemscore.DEInternal.Weighted>
3.9165

> <Gold.Chemscore.Rot.Weighted>
8.5179

> <Gold.Chemscore.Internal.Correction.Weighted>
   9.000000E+99

> <Gold.Protein.RotatedTorsions>
[ 6907 6896 6895 6894 ] final  113.33 input  -60.11 | X-H torsion
[ 7974 7965 7964 7962 ] final  -59.47 input  175.53 | X-H torsion
[ 8008 7997 7996 7995 ] final   94.15 input   59.86 | X-H torsion
[ 10167 10162 10161 10158 ] final  113.75 input  -65.29 | X-H torsion
[ 10718 10713 10712 10709 ] final   55.59 input   66.30 | X-H torsion
[ 10763 10752 10751 10750 ] final    7.07 input  -60.55 | X-H torsion
[ 11005 11000 10999 10996 ] final   71.50 input  -57.11 | X-H torsion

> <Gold.Protein.ActiveResidues>
 VAL166  LYS551  ARG553  GLY616  TRP617  ASP618  TYR619  PRO620  LYS621  CYS622 
 ASP623  PHE694  ASN695  SER759  ASP760  ASP761  ALA762  ILE779  LEU786  VAL792 
 PHE793  MET794  SER795  GLU796  ALA797  LYS798  CYS799  TRP800  GLU811  SER814 

> <Gold.Protein.RotatedAtoms>
  152.4867  133.8390  159.7142 H   0  0  0  0  0  0  0  0  0  0  0  0  # atno 6907 bound_to 6896
  150.8959  133.7172  159.2898 H   0  0  0  0  0  0  0  0  0  0  0  0  # atno 6908 bound_to 6896
  151.4630  135.1044  159.9782 H   0  0  0  0  0  0  0  0  0  0  0  0  # atno 6909 bound_to 6896
  145.8271  140.8503  143.0102 H   0  0  0  0  0  0  0  0  0  0  0  0  # atno 7974 bound_to 7965
  156.0547  140.3303  155.7391 H   0  0  0  0  0  0  0  0  0  0  0  0  # atno 8008 bound_to 7997
  155.5547  140.0613  157.2859 H   0  0  0  0  0  0  0  0  0  0  0  0  # atno 8009 bound_to 7997
  154.4452  140.1888  156.0710 H   0  0  0  0  0  0  0  0  0  0  0  0  # atno 8010 bound_to 7997
  139.6438  144.7125  151.2183 H   0  0  0  0  0  0  0  0  0  0  0  0  # atno 10167 bound_to 10162
  157.5358  130.8662  149.8751 H   0  0  0  0  0  0  0  0  0  0  0  0  # atno 10718 bound_to 10713
  153.2405  135.6903  153.7789 H   0  0  0  0  0  0  0  0  0  0  0  0  # atno 10763 bound_to 10752
  153.6920  135.3311  155.3205 H   0  0  0  0  0  0  0  0  0  0  0  0  # atno 10764 bound_to 10752
  154.8353  135.4547  154.1324 H   0  0  0  0  0  0  0  0  0  0  0  0  # atno 10765 bound_to 10752
  139.9540  134.7177  156.0796 H   0  0  0  0  0  0  0  0  0  0  0  0  # atno 11005 bound_to 11000
  144.6742  140.0618  143.7476 LP  0  0  0  0  0  0  0  0  0  0  0  0  # atno 17320 bound_to 7965
  145.9611  139.2801  143.1155 LP  0  0  0  0  0  0  0  0  0  0  0  0  # atno 17321 bound_to 7965
  140.7504  143.6266  150.8463 LP  0  0  0  0  0  0  0  0  0  0  0  0  # atno 17342 bound_to 10162
  139.9906  143.5851  152.2911 LP  0  0  0  0  0  0  0  0  0  0  0  0  # atno 17343 bound_to 10162
  156.0457  130.3728  150.1322 LP  0  0  0  0  0  0  0  0  0  0  0  0  # atno 17370 bound_to 10713
  156.9505  130.9773  151.3499 LP  0  0  0  0  0  0  0  0  0  0  0  0  # atno 17371 bound_to 10713
  141.1208  133.6613  156.3211 LP  0  0  0  0  0  0  0  0  0  0  0  0  # atno 17394 bound_to 11000
  140.5652  134.5895  157.5444 LP  0  0  0  0  0  0  0  0  0  0  0  0  # atno 17395 bound_to 11000

$$$$
