AV-unprocessed.smi:3249|AV-procd|sdf|12421|dock2
  -GOLD-   2272018303D 1   1.00000     0.00000
 Structure written by MMmdl.
 44 45  0  0  0  0  0  0  0  0  2 V2000
  143.9949  144.3710  155.8955 C   0  0  0  0  0  0  0  0  0  0  0  0
  145.1655  143.4674  155.6343 C   0  0  0  0  0  0  0  0  0  0  0  0
  145.8448  142.6248  156.5591 C   0  0  0  0  0  0  0  0  0  0  0  0
  146.8414  141.9534  156.0060 N   0  0  0  0  0  0  0  0  0  0  0  0
  146.8391  142.3432  154.7131 N   0  0  0  0  0  0  0  0  0  0  0  0
  147.8165  141.7844  153.7877 C   0  0  2  0  0  0  0  0  0  0  0  0
  147.1257  140.7856  152.8410 C   0  0  0  0  0  0  0  0  0  0  0  0
  149.0325  141.1745  154.5344 C   0  0  2  0  0  0  0  0  0  0  0  0
  148.8256  139.7000  154.9254 C   0  0  0  0  0  0  0  0  0  0  0  0
  149.3303  141.9531  155.7573 N   0  3  0  0  0  0  0  0  0  0  0  0
  150.5243  141.5068  156.5042 C   0  0  0  0  0  0  0  0  0  0  0  0
  150.7650  142.3905  157.7353 C   0  0  1  0  0  0  0  0  0  0  0  0
  151.7269  141.7252  158.7387 C   0  0  0  0  0  0  0  0  0  0  0  0
  152.0286  142.6714  159.9061 C   0  0  0  0  0  0  0  0  0  0  0  0
  152.5189  144.0187  159.3655 C   0  0  0  0  0  0  0  0  0  0  0  0
  151.5294  144.5701  158.3270 C   0  0  0  0  0  0  0  0  0  0  0  0
  151.3384  143.6168  157.2856 O   0  0  0  0  0  0  0  0  0  0  0  0
  145.8334  143.2552  154.4620 C   0  0  0  0  0  0  0  0  0  0  0  0
  143.6800  144.3366  156.9388 H   0  0  0  0  0  0  0  0  0  0  0  0
  143.1316  144.0952  155.2898 H   0  0  0  0  0  0  0  0  0  0  0  0
  144.2306  145.4103  155.6662 H   0  0  0  0  0  0  0  0  0  0  0  0
  145.6432  142.4819  157.6106 H   0  0  0  0  0  0  0  0  0  0  0  0
  148.1843  142.6080  153.1720 H   0  0  0  0  0  0  0  0  0  0  0  0
  147.7951  140.4619  152.0437 H   0  0  0  0  0  0  0  0  0  0  0  0
  146.2553  141.2378  152.3641 H   0  0  0  0  0  0  0  0  0  0  0  0
  146.7878  139.8960  153.3733 H   0  0  0  0  0  0  0  0  0  0  0  0
  149.8986  141.2072  153.8707 H   0  0  0  0  0  0  0  0  0  0  0  0
  148.7094  139.0600  154.0505 H   0  0  0  0  0  0  0  0  0  0  0  0
  147.9387  139.5761  155.5478 H   0  0  0  0  0  0  0  0  0  0  0  0
  149.6806  139.3199  155.4855 H   0  0  0  0  0  0  0  0  0  0  0  0
  149.4565  142.9206  155.4949 H   0  0  0  0  0  0  0  0  0  0  0  0
  150.3719  140.4714  156.8117 H   0  0  0  0  0  0  0  0  0  0  0  0
  151.4012  141.5240  155.8558 H   0  0  0  0  0  0  0  0  0  0  0  0
  149.8107  142.5911  158.2262 H   0  0  0  0  0  0  0  0  0  0  0  0
  151.2989  140.7955  159.1151 H   0  0  0  0  0  0  0  0  0  0  0  0
  152.6579  141.4594  158.2363 H   0  0  0  0  0  0  0  0  0  0  0  0
  151.1267  142.8199  160.5016 H   0  0  0  0  0  0  0  0  0  0  0  0
  152.7746  142.2328  160.5693 H   0  0  0  0  0  0  0  0  0  0  0  0
  152.6461  144.7300  160.1822 H   0  0  0  0  0  0  0  0  0  0  0  0
  153.4988  143.8936  158.9032 H   0  0  0  0  0  0  0  0  0  0  0  0
  150.5727  144.8149  158.7909 H   0  0  0  0  0  0  0  0  0  0  0  0
  151.9175  145.4918  157.8931 H   0  0  0  0  0  0  0  0  0  0  0  0
  145.6767  143.6752  153.4794 H   0  0  0  0  0  0  0  0  0  0  0  0
  148.5335  141.8927  156.3752 H   0  0  0  0  0  0  0  0  0  0  0  0
  1  2  1  0  0  0  0
  1 19  1  0  0  0  0
  1 20  1  0  0  0  0
  1 21  1  0  0  0  0
  2 18  2  0  0  0  0
  2  3  1  0  0  0  0
  3  4  2  0  0  0  0
  3 22  1  0  0  0  0
  4  5  1  0  0  0  0
  5  6  1  0  0  0  0
  5 18  1  0  0  0  0
  6  7  1  0  0  0  0
  6  8  1  0  0  0  0
  6 23  1  0  0  0  0
  7 24  1  0  0  0  0
  7 25  1  0  0  0  0
  7 26  1  0  0  0  0
  8  9  1  0  0  0  0
  8 10  1  0  0  0  0
  8 27  1  0  0  0  0
  9 28  1  0  0  0  0
  9 29  1  0  0  0  0
  9 30  1  0  0  0  0
 10 11  1  0  0  0  0
 10 31  1  0  0  0  0
 10 44  1  0  0  0  0
 11 12  1  0  0  0  0
 11 32  1  0  0  0  0
 11 33  1  0  0  0  0
 12 17  1  0  0  0  0
 12 13  1  0  0  0  0
 12 34  1  0  0  0  0
 13 14  1  0  0  0  0
 13 35  1  0  0  0  0
 13 36  1  0  0  0  0
 14 15  1  0  0  0  0
 14 37  1  0  0  0  0
 14 38  1  0  0  0  0
 15 16  1  0  0  0  0
 15 39  1  0  0  0  0
 15 40  1  0  0  0  0
 16 17  1  0  0  0  0
 16 41  1  0  0  0  0
 16 42  1  0  0  0  0
 18 43  1  0  0  0  0
M  CHG  1  10   1
M  END
> <s_m_source_file>
AV-unprocessed.smi

> <i_m_source_file_index>
3249

> <i_lp_mmshare_version>
43012

> <i_f3d_flags>
0

> <s_epik_input>
W0NIM11jMVtjSF1ubihbY0hdMSlbQ0BIXShbQ0gzXSlbQ0BIXShbQ0gzXSlbTkhdW0NIMl1bQ0BASF0yW0NIMl1bQ0gyXVtDSDJdW0NIMl1PMg==

> <s_epik_cmdline>
J2VwaWtfcHl0aG9uJywgJy1waCcsICc3LjAnLCAnLXRuJywgJzgnLCAnLW1hJywgJzIwMCcsICctbWV0YWxfYmluZGluZycsICctaW1hZScsICc8aW5maWxlLm1hZT4nLCAnLW9tYWUnLCAnPG91dGZpbGUubWFlPic=

> <r_lp_tautomer_probability>
1

> <r_epik_Ionization_Penalty>
0.00659207

> <r_epik_Ionization_Penalty_Charging>
0.00656881

> <r_epik_Ionization_Penalty_Neutral>
2.32662e-05

> <r_epik_State_Penalty>
0.0048654

> <r_epik_Charging_Adjusted_Penalty>
0.0114342

> <i_epik_Tot_Q>
1

> <i_epik_Tot_abs_Q>
1

> <r_epik_Metal_State_Penalty>
-0

> <b_epik_Metal_Only>
0

> <s_lp_Force_Field>
OPLS_2005

> <r_lp_Energy>
18.8744

> <b_lp_Chiralities_Consistent>
1

> <s_lp_Variant>
AV-unprocessed.smi:3249-5

> <Gold.Version>
5.8.1

> <Gold.Id.Protein>
6NUR|6NUR_protein|mol2

> <Gold.PLP.Fitness>
43.6464

> <Gold.PLP.PLP>
-39.7072

> <Gold.PLP.part.hbond>
-1.0000

> <Gold.PLP.part.metal>
0.0000

> <Gold.PLP.part.buried>
-5.0871

> <Gold.PLP.part.nonpolar>
-34.3539

> <Gold.PLP.part.repulsive>
1.0534

> <Gold.PLP.ligand.clash>
0.0000

> <Gold.PLP.ligand.torsion>
1.0970

> <Gold.PLP.Chemscore.Hbond>
2.0000

> <Gold.PLP.Chemscore.CHOScore>
0.0000

> <Gold.PLP.Chemscore.Metal>
0.0000

> <Gold.Chemscore.Hbonds>
donor molecule, donor type, donor heavy atom, donor atom, acceptor molecule, acceptor atom, score
      L1  H    10    31       P1  8028  1.95

> <Gold.PLP.Chemscore.Internal.Correction>
0.1333

> <Gold.Rescore>
     Score         DG    S(hbond)    S(metal)    S(lipo)     H(rot)  DE(clash)    DE(int)     intcor
     15.53     -16.96       0.98        0.00     103.69       1.53       0.18       1.25       ----

> <Gold.Chemscore.Fitness>
15.5312

> <Gold.Chemscore.DG>
-16.9611

> <Gold.Chemscore.ZeroCoef>
-5.4800

> <Gold.Chemscore.Hbond>
0.9804

> <Gold.Chemscore.Metal>
0.0000

> <Gold.Chemscore.Lipo>
103.6902

> <Gold.Chemscore.Internal_Hbond>
0.0000

> <Gold.Chemscore.DEClash>
0.1835

> <Gold.Chemscore.DEInternal>
1.2465

> <Gold.Chemscore.Rot>
1.5333

> <Gold.Chemscore.Internal.Correction>
   9.000000E+99

> <Gold.Chemscore.Hbonds>
donor molecule, donor type, donor heavy atom, donor atom, acceptor molecule, acceptor atom, score
      L1  H    10    31       P1  8028  0.92

> <Gold.Chemscore.Hbond.Weighted>
-3.2746

> <Gold.Chemscore.Metal.Weighted>
-0.0000

> <Gold.Chemscore.Lipo.Weighted>
-12.1318

> <Gold.Chemscore.Internal_Hbond.Weighted>
0.0000

> <Gold.Chemscore.DEClash.Weighted>
0.1835

> <Gold.Chemscore.DEInternal.Weighted>
1.2465

> <Gold.Chemscore.Rot.Weighted>
3.9252

> <Gold.Chemscore.Internal.Correction.Weighted>
   9.000000E+99

> <Gold.Protein.RotatedTorsions>
[ 6907 6896 6895 6894 ] final  -92.96 input  -60.11 | X-H torsion
[ 7974 7965 7964 7962 ] final  -19.42 input  175.53 | X-H torsion
[ 8008 7997 7996 7995 ] final  130.83 input   59.86 | X-H torsion
[ 10167 10162 10161 10158 ] final  168.76 input  -65.29 | X-H torsion
[ 10718 10713 10712 10709 ] final  175.60 input   66.30 | X-H torsion
[ 10763 10752 10751 10750 ] final  142.61 input  -60.55 | X-H torsion
[ 11005 11000 10999 10996 ] final  127.39 input  -57.11 | X-H torsion

> <Gold.Protein.ActiveResidues>
 VAL166  LYS551  ARG553  GLY616  TRP617  ASP618  TYR619  PRO620  LYS621  CYS622 
 ASP623  PHE694  ASN695  SER759  ASP760  ASP761  ALA762  ILE779  LEU786  VAL792 
 PHE793  MET794  SER795  GLU796  ALA797  LYS798  CYS799  TRP800  GLU811  SER814 

> <Gold.Protein.RotatedAtoms>
  150.6914  134.2041  159.4333 H   0  0  0  0  0  0  0  0  0  0  0  0  # atno 6907 bound_to 6896
  152.0005  134.9928  160.0574 H   0  0  0  0  0  0  0  0  0  0  0  0  # atno 6908 bound_to 6896
  152.1583  133.4530  159.4885 H   0  0  0  0  0  0  0  0  0  0  0  0  # atno 6909 bound_to 6896
  146.1842  140.4059  142.8483 H   0  0  0  0  0  0  0  0  0  0  0  0  # atno 7974 bound_to 7965
  156.2961  140.2586  156.2826 H   0  0  0  0  0  0  0  0  0  0  0  0  # atno 8008 bound_to 7997
  154.9587  140.0393  157.2198 H   0  0  0  0  0  0  0  0  0  0  0  0  # atno 8009 bound_to 7997
  154.7967  140.2821  155.5956 H   0  0  0  0  0  0  0  0  0  0  0  0  # atno 8010 bound_to 7997
  139.4976  144.3779  151.9654 H   0  0  0  0  0  0  0  0  0  0  0  0  # atno 10167 bound_to 10162
  156.9324  130.9975  151.2984 H   0  0  0  0  0  0  0  0  0  0  0  0  # atno 10718 bound_to 10713
  153.9587  135.2962  155.3435 H   0  0  0  0  0  0  0  0  0  0  0  0  # atno 10763 bound_to 10752
  154.7387  135.5035  153.9088 H   0  0  0  0  0  0  0  0  0  0  0  0  # atno 10764 bound_to 10752
  153.0957  135.6720  153.9877 H   0  0  0  0  0  0  0  0  0  0  0  0  # atno 10765 bound_to 10752
  139.9505  134.9623  156.8847 H   0  0  0  0  0  0  0  0  0  0  0  0  # atno 11005 bound_to 11000
  144.8368  140.6794  143.6255 LP  0  0  0  0  0  0  0  0  0  0  0  0  # atno 17320 bound_to 7965
  145.3987  139.1602  143.4189 LP  0  0  0  0  0  0  0  0  0  0  0  0  # atno 17321 bound_to 7965
  140.3216  144.3422  150.6008 LP  0  0  0  0  0  0  0  0  0  0  0  0  # atno 17342 bound_to 10162
  140.5718  143.2180  151.7585 LP  0  0  0  0  0  0  0  0  0  0  0  0  # atno 17343 bound_to 10162
  157.5838  130.8395  149.8560 LP  0  0  0  0  0  0  0  0  0  0  0  0  # atno 17370 bound_to 10713
  156.0441  130.3732  150.1361 LP  0  0  0  0  0  0  0  0  0  0  0  0  # atno 17371 bound_to 10713
  140.5731  134.0424  155.7437 LP  0  0  0  0  0  0  0  0  0  0  0  0  # atno 17394 bound_to 11000
  141.1166  133.9529  157.2810 LP  0  0  0  0  0  0  0  0  0  0  0  0  # atno 17395 bound_to 11000

$$$$
