AV-unprocessed.smi:1285|AV-procd|sdf|5373|dock4
  -GOLD-   22720 4513D 1   1.00000     0.00000
 Structure written by MMmdl.
 47 48  0  0  0  0  0  0  0  0  2 V2000
  145.9542  139.2113  156.4751 C   0  0  0  0  0  0  0  0  0  0  0  0
  146.1257  140.3155  155.4163 C   0  0  0  0  0  0  0  0  0  0  0  0
  146.9614  139.9317  154.1571 C   0  0  1  0  0  0  0  0  0  0  0  0
  147.3237  141.2213  153.3751 C   0  0  0  0  0  0  0  0  0  0  0  0
  148.2976  139.2581  154.6032 C   0  0  0  0  0  0  0  0  0  0  0  0
  149.0809  140.0596  155.5445 N   0  0  0  0  0  0  0  0  0  0  0  0
  150.4171  140.1921  155.5397 C   0  0  0  0  0  0  0  0  0  0  0  0
  151.1460  139.6207  154.7286 O   0  0  0  0  0  0  0  0  0  0  0  0
  151.0125  141.1076  156.6209 C   0  0  1  0  0  0  0  0  0  0  0  0
  149.9523  142.0036  157.2921 C   0  0  0  0  0  0  0  0  0  0  0  0
  151.7617  140.3215  157.5929 N   0  0  0  0  0  0  0  0  0  0  0  0
  151.6505  140.2677  158.9219 C   0  0  0  0  0  0  0  0  0  0  0  0
  152.5311  139.4666  159.5045 N   0  0  0  0  0  0  0  0  0  0  0  0
  153.2100  139.0331  158.4011 C   0  0  0  0  0  0  0  0  0  0  0  0
  152.7957  139.5213  157.2321 N   0  0  0  0  0  0  0  0  0  0  0  0
  146.1880  138.9963  153.2589 N   0  3  0  0  0  0  0  0  0  0  0  0
  146.8141  138.7038  151.9387 C   0  0  0  0  0  0  0  0  0  0  0  0
  145.8320  137.9373  151.0387 C   0  0  0  0  0  0  0  0  0  0  0  0
  145.4457  136.7300  151.6803 O   0  0  0  0  0  0  0  0  0  0  0  0
  144.7784  136.9763  152.9101 C   0  0  0  0  0  0  0  0  0  0  0  0
  145.7148  137.7240  153.8749 C   0  0  0  0  0  0  0  0  0  0  0  0
  145.3457  139.5733  157.3039 H   0  0  0  0  0  0  0  0  0  0  0  0
  146.9091  138.8956  156.8947 H   0  0  0  0  0  0  0  0  0  0  0  0
  145.4528  138.3323  156.0710 H   0  0  0  0  0  0  0  0  0  0  0  0
  145.1260  140.6309  155.1186 H   0  0  0  0  0  0  0  0  0  0  0  0
  146.5736  141.1768  155.9109 H   0  0  0  0  0  0  0  0  0  0  0  0
  148.0863  141.8062  153.8898 H   0  0  0  0  0  0  0  0  0  0  0  0
  146.4643  141.8803  153.2496 H   0  0  0  0  0  0  0  0  0  0  0  0
  147.7153  140.9950  152.3830 H   0  0  0  0  0  0  0  0  0  0  0  0
  148.1145  138.2687  155.0252 H   0  0  0  0  0  0  0  0  0  0  0  0
  148.9341  139.0716  153.7382 H   0  0  0  0  0  0  0  0  0  0  0  0
  148.5619  140.5800  156.2367 H   0  0  0  0  0  0  0  0  0  0  0  0
  151.7260  141.7705  156.1282 H   0  0  0  0  0  0  0  0  0  0  0  0
  149.4318  142.6168  156.5555 H   0  0  0  0  0  0  0  0  0  0  0  0
  150.4150  142.6804  158.0107 H   0  0  0  0  0  0  0  0  0  0  0  0
  149.2010  141.4205  157.8262 H   0  0  0  0  0  0  0  0  0  0  0  0
  150.9124  140.8289  159.4759 H   0  0  0  0  0  0  0  0  0  0  0  0
  154.0384  138.3429  158.4619 H   0  0  0  0  0  0  0  0  0  0  0  0
  147.1097  139.6165  151.4244 H   0  0  0  0  0  0  0  0  0  0  0  0
  147.7149  138.1041  152.0716 H   0  0  0  0  0  0  0  0  0  0  0  0
  144.9542  138.5445  150.8116 H   0  0  0  0  0  0  0  0  0  0  0  0
  146.3060  137.6940  150.0875 H   0  0  0  0  0  0  0  0  0  0  0  0
  143.8653  137.5476  152.7343 H   0  0  0  0  0  0  0  0  0  0  0  0
  144.4770  136.0227  153.3442 H   0  0  0  0  0  0  0  0  0  0  0  0
  146.5631  137.0877  154.1278 H   0  0  0  0  0  0  0  0  0  0  0  0
  145.1592  137.9005  154.7938 H   0  0  0  0  0  0  0  0  0  0  0  0
  145.3431  139.5061  153.0437 H   0  0  0  0  0  0  0  0  0  0  0  0
  1  2  1  0  0  0  0
  1 22  1  0  0  0  0
  1 23  1  0  0  0  0
  1 24  1  0  0  0  0
  2  3  1  0  0  0  0
  2 25  1  0  0  0  0
  2 26  1  0  0  0  0
  3  4  1  0  0  0  0
  3  5  1  0  0  0  0
  3 16  1  0  0  0  0
  4 27  1  0  0  0  0
  4 28  1  0  0  0  0
  4 29  1  0  0  0  0
  5  6  1  0  0  0  0
  5 30  1  0  0  0  0
  5 31  1  0  0  0  0
  6  7  1  0  0  0  0
  6 32  1  0  0  0  0
  7  8  2  0  0  0  0
  7  9  1  0  0  0  0
  9 10  1  0  0  0  0
  9 11  1  0  0  0  0
  9 33  1  0  0  0  0
 10 34  1  0  0  0  0
 10 35  1  0  0  0  0
 10 36  1  0  0  0  0
 11 15  1  0  0  0  0
 11 12  1  0  0  0  0
 12 13  2  0  0  0  0
 12 37  1  0  0  0  0
 13 14  1  0  0  0  0
 14 15  2  0  0  0  0
 14 38  1  0  0  0  0
 16 21  1  0  0  0  0
 16 17  1  0  0  0  0
 16 47  1  0  0  0  0
 17 18  1  0  0  0  0
 17 39  1  0  0  0  0
 17 40  1  0  0  0  0
 18 19  1  0  0  0  0
 18 41  1  0  0  0  0
 18 42  1  0  0  0  0
 19 20  1  0  0  0  0
 20 21  1  0  0  0  0
 20 43  1  0  0  0  0
 20 44  1  0  0  0  0
 21 45  1  0  0  0  0
 21 46  1  0  0  0  0
M  CHG  1  16   1
M  END
> <s_m_source_file>
AV-unprocessed.smi

> <i_m_source_file_index>
1285

> <i_lp_mmshare_version>
43012

> <i_f3d_flags>
0

> <s_epik_input>
W0NIMl0xW0NIMl1PW0NIMl1bQ0gyXU4xW0NAQF0oW0NIM10pKFtDSDJdW0NIM10pW0NIMl1bTkhdQyg9TylbQ0BIXShbQ0gzXSluMltjSF1uW2NIXW4y

> <s_epik_cmdline>
J2VwaWtfcHl0aG9uJywgJy1waCcsICc3LjAnLCAnLXRuJywgJzgnLCAnLW1hJywgJzIwMCcsICctbWV0YWxfYmluZGluZycsICctaW1hZScsICc8aW5maWxlLm1hZT4nLCAnLW9tYWUnLCAnPG91dGZpbGUubWFlPic=

> <r_lp_tautomer_probability>
1

> <r_epik_Ionization_Penalty>
0.569304

> <r_epik_Ionization_Penalty_Charging>
0.569295

> <r_epik_Ionization_Penalty_Neutral>
8.22697e-06

> <r_epik_State_Penalty>
0.581114

> <r_epik_Charging_Adjusted_Penalty>
1.15041

> <i_epik_Tot_Q>
1

> <i_epik_Tot_abs_Q>
1

> <r_epik_Metal_State_Penalty>
0.581117

> <b_epik_Metal_Only>
0

> <s_lp_Force_Field>
OPLS_2005

> <r_lp_Energy>
40.9155

> <b_lp_Chiralities_Consistent>
1

> <s_lp_Variant>
AV-unprocessed.smi:1285-7

> <Gold.Version>
5.8.1

> <Gold.Id.Protein>
6NUR|6NUR_protein|mol2

> <Gold.PLP.Fitness>
36.7918

> <Gold.PLP.PLP>
-25.6521

> <Gold.PLP.part.hbond>
-3.0000

> <Gold.PLP.part.metal>
0.0000

> <Gold.PLP.part.buried>
0.7703

> <Gold.PLP.part.nonpolar>
-24.4675

> <Gold.PLP.part.repulsive>
0.6947

> <Gold.PLP.ligand.clash>
0.0000

> <Gold.PLP.ligand.torsion>
0.6187

> <Gold.PLP.Chemscore.Hbond>
4.0000

> <Gold.PLP.Chemscore.CHOScore>
0.0000

> <Gold.PLP.Chemscore.Metal>
0.0000

> <Gold.Chemscore.Hbonds>
donor molecule, donor type, donor heavy atom, donor atom, acceptor molecule, acceptor atom, score
      L1  H    16    47       P1 10175  2.00
      P1  H  7989  7998       L1     8  1.00
      P1  H  7997  8009       L1    15  1.00

> <Gold.PLP.Chemscore.Internal.Correction>
0.3770

> <Gold.Rescore>
     Score         DG    S(hbond)    S(metal)    S(lipo)     H(rot)  DE(clash)    DE(int)     intcor
      9.48     -13.19       2.51        0.00      54.49       2.76       1.66       2.05       ----

> <Gold.Chemscore.Fitness>
9.4800

> <Gold.Chemscore.DG>
-13.1910

> <Gold.Chemscore.ZeroCoef>
-5.4800

> <Gold.Chemscore.Hbond>
2.5145

> <Gold.Chemscore.Metal>
0.0000

> <Gold.Chemscore.Lipo>
54.4902

> <Gold.Chemscore.Internal_Hbond>
0.0000

> <Gold.Chemscore.DEClash>
1.6620

> <Gold.Chemscore.DEInternal>
2.0490

> <Gold.Chemscore.Rot>
2.7589

> <Gold.Chemscore.Internal.Correction>
   9.000000E+99

> <Gold.Chemscore.Hbonds>
donor molecule, donor type, donor heavy atom, donor atom, acceptor molecule, acceptor atom, score
      L1  H    16    47       P1 10175  0.96
      P1  H  7989  7998       L1     8  0.60
      P1  H  7997  8009       L1    15  0.34

> <Gold.Chemscore.Hbond.Weighted>
-8.3983

> <Gold.Chemscore.Metal.Weighted>
-0.0000

> <Gold.Chemscore.Lipo.Weighted>
-6.3754

> <Gold.Chemscore.Internal_Hbond.Weighted>
0.0000

> <Gold.Chemscore.DEClash.Weighted>
1.6620

> <Gold.Chemscore.DEInternal.Weighted>
2.0490

> <Gold.Chemscore.Rot.Weighted>
7.0627

> <Gold.Chemscore.Internal.Correction.Weighted>
   9.000000E+99

> <Gold.Protein.RotatedTorsions>
[ 6907 6896 6895 6894 ] final  100.23 input  -60.11 | X-H torsion
[ 7974 7965 7964 7962 ] final  159.83 input  175.53 | X-H torsion
[ 8008 7997 7996 7995 ] final -170.90 input   59.86 | X-H torsion
[ 10167 10162 10161 10158 ] final -165.36 input  -65.29 | X-H torsion
[ 10718 10713 10712 10709 ] final   37.77 input   66.30 | X-H torsion
[ 10763 10752 10751 10750 ] final   23.85 input  -60.55 | X-H torsion
[ 11005 11000 10999 10996 ] final  -32.22 input  -57.11 | X-H torsion

> <Gold.Protein.ActiveResidues>
 VAL166  LYS551  ARG553  GLY616  TRP617  ASP618  TYR619  PRO620  LYS621  CYS622 
 ASP623  PHE694  ASN695  SER759  ASP760  ASP761  ALA762  ILE779  LEU786  VAL792 
 PHE793  MET794  SER795  GLU796  ALA797  LYS798  CYS799  TRP800  GLU811  SER814 

> <Gold.Protein.RotatedAtoms>
  152.5376  134.0309  159.8023 H   0  0  0  0  0  0  0  0  0  0  0  0  # atno 6907 bound_to 6896
  151.0480  133.5641  159.2652 H   0  0  0  0  0  0  0  0  0  0  0  0  # atno 6908 bound_to 6896
  151.2586  135.0654  159.9143 H   0  0  0  0  0  0  0  0  0  0  0  0  # atno 6909 bound_to 6896
  144.7769  139.7672  143.6275 H   0  0  0  0  0  0  0  0  0  0  0  0  # atno 7974 bound_to 7965
  155.9245  140.1080  157.1181 H   0  0  0  0  0  0  0  0  0  0  0  0  # atno 8008 bound_to 7997
  154.4060  140.1249  156.4788 H   0  0  0  0  0  0  0  0  0  0  0  0  # atno 8009 bound_to 7997
  155.7155  140.3470  155.4995 H   0  0  0  0  0  0  0  0  0  0  0  0  # atno 8010 bound_to 7997
  139.6187  144.0667  152.1912 H   0  0  0  0  0  0  0  0  0  0  0  0  # atno 10167 bound_to 10162
  157.3509  130.7598  149.6978 H   0  0  0  0  0  0  0  0  0  0  0  0  # atno 10718 bound_to 10713
  153.0807  135.6618  154.0051 H   0  0  0  0  0  0  0  0  0  0  0  0  # atno 10763 bound_to 10752
  153.9673  135.2968  155.3431 H   0  0  0  0  0  0  0  0  0  0  0  0  # atno 10764 bound_to 10752
  154.7206  135.5166  153.8877 H   0  0  0  0  0  0  0  0  0  0  0  0  # atno 10765 bound_to 10752
  140.9534  133.7207  156.1255 H   0  0  0  0  0  0  0  0  0  0  0  0  # atno 11005 bound_to 11000
  146.1954  139.5217  142.9778 LP  0  0  0  0  0  0  0  0  0  0  0  0  # atno 17320 bound_to 7965
  145.6161  141.0331  143.1940 LP  0  0  0  0  0  0  0  0  0  0  0  0  # atno 17321 bound_to 7965
  140.0304  144.6085  150.7493 LP  0  0  0  0  0  0  0  0  0  0  0  0  # atno 17342 bound_to 10162
  140.7368  143.2757  151.3748 LP  0  0  0  0  0  0  0  0  0  0  0  0  # atno 17343 bound_to 10162
  155.9721  130.4141  150.4114 LP  0  0  0  0  0  0  0  0  0  0  0  0  # atno 17370 bound_to 10713
  157.2177  131.0475  151.2564 LP  0  0  0  0  0  0  0  0  0  0  0  0  # atno 17371 bound_to 10713
  140.7570  134.3981  157.5532 LP  0  0  0  0  0  0  0  0  0  0  0  0  # atno 17394 bound_to 11000
  139.8854  134.8937  156.2642 LP  0  0  0  0  0  0  0  0  0  0  0  0  # atno 17395 bound_to 11000

$$$$
