AV-unprocessed.smi:1005|AV-procd|sdf|4386|dock5
  -GOLD-   22720 2313D 1   1.00000     0.00000
 Structure written by MMmdl.
 55 57  0  0  0  0  0  0  0  0  1 V2000
  152.8227  143.3736  161.1935 C   0  0  0  0  0  0  0  0  0  0  0  0
  152.2463  142.8988  159.8710 C   0  0  0  0  0  0  0  0  0  0  0  0
  152.6797  141.6648  159.3359 C   0  0  0  0  0  0  0  0  0  0  0  0
  152.1695  141.1883  158.1086 C   0  0  0  0  0  0  0  0  0  0  0  0
  152.4471  140.0252  157.4109 N   0  0  0  0  0  0  0  0  0  0  0  0
  151.6581  140.1555  156.3486 C   0  0  0  0  0  0  0  0  0  0  0  0
  150.9068  141.2711  156.2708 N   0  0  0  0  0  0  0  0  0  0  0  0
  149.9781  141.6318  155.2139 C   0  0  0  0  0  0  0  0  0  0  0  0
  149.2250  140.4146  154.6396 C   0  0  2  0  0  0  0  0  0  0  0  0
  150.0702  139.8209  153.6750 O   0  0  0  0  0  0  0  0  0  0  0  0
  147.8744  140.7725  153.9762 C   0  0  0  0  0  0  0  0  0  0  0  0
  147.2783  142.0303  154.4243 N   0  0  0  0  0  0  0  0  0  0  0  0
  146.3927  142.5825  153.4056 C   0  0  0  0  0  0  0  0  0  0  0  0
  145.7632  143.9128  153.8513 C   0  0  0  0  0  0  0  0  0  0  0  0
  145.0567  143.7230  155.0728 O   0  0  0  0  0  0  0  0  0  0  0  0
  145.8766  143.2054  156.1182 C   0  0  1  0  0  0  0  0  0  0  0  0
  145.0736  143.0789  157.4304 C   0  0  0  0  0  0  0  0  0  0  0  0
  145.8135  142.6615  158.6258 N   0  0  0  0  0  0  0  0  0  0  0  0
  144.9868  142.6376  159.8264 C   0  0  0  0  0  0  0  0  0  0  0  0
  146.9716  143.5195  158.8339 C   0  0  0  0  0  0  0  0  0  0  0  0
  146.5328  141.8817  155.6717 C   0  0  0  0  0  0  0  0  0  0  0  0
  151.2069  141.9870  157.4247 C   0  0  0  0  0  0  0  0  0  0  0  0
  150.7657  143.2151  157.9483 C   0  0  0  0  0  0  0  0  0  0  0  0
  151.2860  143.6767  159.1755 C   0  0  0  0  0  0  0  0  0  0  0  0
  150.8059  145.0060  159.7308 C   0  0  0  0  0  0  0  0  0  0  0  0
  153.5339  142.6536  161.5993 H   0  0  0  0  0  0  0  0  0  0  0  0
  152.0298  143.5105  161.9289 H   0  0  0  0  0  0  0  0  0  0  0  0
  153.3438  144.3224  161.0640 H   0  0  0  0  0  0  0  0  0  0  0  0
  153.4105  141.0714  159.8658 H   0  0  0  0  0  0  0  0  0  0  0  0
  151.6291  139.3987  155.5783 H   0  0  0  0  0  0  0  0  0  0  0  0
  149.2726  142.3671  155.6039 H   0  0  0  0  0  0  0  0  0  0  0  0
  150.5457  142.1297  154.4263 H   0  0  0  0  0  0  0  0  0  0  0  0
  149.0648  139.6933  155.4419 H   0  0  0  0  0  0  0  0  0  0  0  0
  149.6832  139.9409  152.8213 H   0  0  0  0  0  0  0  0  0  0  0  0
  148.0352  140.8573  152.9021 H   0  0  0  0  0  0  0  0  0  0  0  0
  147.1641  139.9518  154.0899 H   0  0  0  0  0  0  0  0  0  0  0  0
  146.9467  142.7415  152.4797 H   0  0  0  0  0  0  0  0  0  0  0  0
  145.6008  141.8678  153.1764 H   0  0  0  0  0  0  0  0  0  0  0  0
  146.5298  144.6782  153.9812 H   0  0  0  0  0  0  0  0  0  0  0  0
  145.0714  144.2784  153.0924 H   0  0  0  0  0  0  0  0  0  0  0  0
  146.6670  143.9369  156.2970 H   0  0  0  0  0  0  0  0  0  0  0  0
  144.6379  144.0599  157.6258 H   0  0  0  0  0  0  0  0  0  0  0  0
  144.2265  142.4106  157.2697 H   0  0  0  0  0  0  0  0  0  0  0  0
  145.5862  142.3881  160.7024 H   0  0  0  0  0  0  0  0  0  0  0  0
  144.2061  141.8819  159.7549 H   0  0  0  0  0  0  0  0  0  0  0  0
  144.5172  143.6061  160.0024 H   0  0  0  0  0  0  0  0  0  0  0  0
  147.5540  143.1837  159.6924 H   0  0  0  0  0  0  0  0  0  0  0  0
  146.6696  144.5525  159.0109 H   0  0  0  0  0  0  0  0  0  0  0  0
  147.6292  143.5016  157.9643 H   0  0  0  0  0  0  0  0  0  0  0  0
  145.7670  141.1146  155.5481 H   0  0  0  0  0  0  0  0  0  0  0  0
  147.1952  141.5358  156.4650 H   0  0  0  0  0  0  0  0  0  0  0  0
  150.0339  143.7976  157.4083 H   0  0  0  0  0  0  0  0  0  0  0  0
  150.0558  145.4603  159.0827 H   0  0  0  0  0  0  0  0  0  0  0  0
  151.6380  145.7045  159.8209 H   0  0  0  0  0  0  0  0  0  0  0  0
  150.3582  144.8703  160.7155 H   0  0  0  0  0  0  0  0  0  0  0  0
  1  2  1  0  0  0  0
  1 26  1  0  0  0  0
  1 27  1  0  0  0  0
  1 28  1  0  0  0  0
  2 24  1  0  0  0  0
  2  3  2  0  0  0  0
  3  4  1  0  0  0  0
  3 29  1  0  0  0  0
  4 22  2  0  0  0  0
  4  5  1  0  0  0  0
  5  6  2  0  0  0  0
  6  7  1  0  0  0  0
  6 30  1  0  0  0  0
  7  8  1  0  0  0  0
  7 22  1  0  0  0  0
  8  9  1  0  0  0  0
  8 31  1  0  0  0  0
  8 32  1  0  0  0  0
  9 10  1  0  0  0  0
  9 11  1  0  0  0  0
  9 33  1  0  0  0  0
 10 34  1  0  0  0  0
 11 12  1  0  0  0  0
 11 35  1  0  0  0  0
 11 36  1  0  0  0  0
 12 21  1  0  0  0  0
 12 13  1  0  0  0  0
 13 14  1  0  0  0  0
 13 37  1  0  0  0  0
 13 38  1  0  0  0  0
 14 15  1  0  0  0  0
 14 39  1  0  0  0  0
 14 40  1  0  0  0  0
 15 16  1  0  0  0  0
 16 17  1  0  0  0  0
 16 21  1  0  0  0  0
 16 41  1  0  0  0  0
 17 18  1  0  0  0  0
 17 42  1  0  0  0  0
 17 43  1  0  0  0  0
 18 19  1  0  0  0  0
 18 20  1  0  0  0  0
 19 44  1  0  0  0  0
 19 45  1  0  0  0  0
 19 46  1  0  0  0  0
 20 47  1  0  0  0  0
 20 48  1  0  0  0  0
 20 49  1  0  0  0  0
 21 50  1  0  0  0  0
 21 51  1  0  0  0  0
 22 23  1  0  0  0  0
 23 24  2  0  0  0  0
 23 52  1  0  0  0  0
 24 25  1  0  0  0  0
 25 53  1  0  0  0  0
 25 54  1  0  0  0  0
 25 55  1  0  0  0  0
M  END
> <s_m_source_file>
AV-unprocessed.smi

> <i_m_source_file_index>
1005

> <i_lp_mmshare_version>
43012

> <i_f3d_flags>
0

> <s_epik_input>
W0NIM11jKFtjSF0xKWMoW0NIM10pW2NIXWMoYzEyKW4oW2NIXW4yKVtDSDJdW0NASF0oW09IXSlbQ0gyXU4zW0NIMl1bQ0gyXU9bQ0BIXShbQ0gyXTMpW0NIMl1OKFtDSDNdKVtDSDNd

> <s_epik_cmdline>
J2VwaWtfcHl0aG9uJywgJy1waCcsICc3LjAnLCAnLXRuJywgJzgnLCAnLW1hJywgJzIwMCcsICctbWV0YWxfYmluZGluZycsICctaW1hZScsICc8aW5maWxlLm1hZT4nLCAnLW9tYWUnLCAnPG91dGZpbGUubWFlPic=

> <r_epik_Ionization_Penalty>
2.78613

> <r_epik_Ionization_Penalty_Charging>
0

> <r_epik_Ionization_Penalty_Neutral>
2.78613

> <r_epik_State_Penalty>
2.57336

> <r_epik_Charging_Adjusted_Penalty>
2.57336

> <i_epik_Tot_Q>
0

> <i_epik_Tot_abs_Q>
0

> <r_epik_Metal_State_Penalty>
2.49087

> <b_epik_Metal_Only>
0

> <s_lp_Force_Field>
OPLS_2005

> <r_lp_Energy>
41.5619

> <b_lp_Chiralities_Consistent>
1

> <s_lp_Variant>
AV-unprocessed.smi:1005-25

> <Gold.Version>
5.8.1

> <Gold.Id.Protein>
6NUR|6NUR_protein|mol2

> <Gold.PLP.Fitness>
53.4317

> <Gold.PLP.PLP>
-47.6041

> <Gold.PLP.part.hbond>
-3.0000

> <Gold.PLP.part.metal>
0.0000

> <Gold.PLP.part.buried>
-7.8949

> <Gold.PLP.part.nonpolar>
-37.3699

> <Gold.PLP.part.repulsive>
0.3459

> <Gold.PLP.ligand.clash>
0.0000

> <Gold.PLP.ligand.torsion>
1.3818

> <Gold.PLP.Chemscore.Hbond>
2.8160

> <Gold.PLP.Chemscore.CHOScore>
0.0000

> <Gold.PLP.Chemscore.Metal>
0.0000

> <Gold.Chemscore.Hbonds>
donor molecule, donor type, donor heavy atom, donor atom, acceptor molecule, acceptor atom, score
      L1  H    10    34       P1  7957  1.00
      P1  H  7989  7998       L1    10  0.78
      P1  H  7997  8008       L1     5  0.84

> <Gold.PLP.Chemscore.Internal.Correction>
0.1432

> <Gold.Rescore>
     Score         DG    S(hbond)    S(metal)    S(lipo)     H(rot)  DE(clash)    DE(int)     intcor
     19.26     -21.10       2.07        0.00     124.39       2.29       0.50       1.34       ----

> <Gold.Chemscore.Fitness>
19.2550

> <Gold.Chemscore.DG>
-21.0978

> <Gold.Chemscore.ZeroCoef>
-5.4800

> <Gold.Chemscore.Hbond>
2.0735

> <Gold.Chemscore.Metal>
0.0000

> <Gold.Chemscore.Lipo>
124.3879

> <Gold.Chemscore.Internal_Hbond>
0.0000

> <Gold.Chemscore.DEClash>
0.5012

> <Gold.Chemscore.DEInternal>
1.3415

> <Gold.Chemscore.Rot>
2.2895

> <Gold.Chemscore.Internal.Correction>
   9.000000E+99

> <Gold.Chemscore.Hbonds>
donor molecule, donor type, donor heavy atom, donor atom, acceptor molecule, acceptor atom, score
      L1  H    10    34       P1  7957  0.99
      P1  H  7989  7998       L1    10  0.13
      P1  H  7997  8008       L1     5  0.22

> <Gold.Chemscore.Hbond.Weighted>
-6.9255

> <Gold.Chemscore.Metal.Weighted>
-0.0000

> <Gold.Chemscore.Lipo.Weighted>
-14.5534

> <Gold.Chemscore.Internal_Hbond.Weighted>
0.0000

> <Gold.Chemscore.DEClash.Weighted>
0.5012

> <Gold.Chemscore.DEInternal.Weighted>
1.3415

> <Gold.Chemscore.Rot.Weighted>
5.8612

> <Gold.Chemscore.Internal.Correction.Weighted>
   9.000000E+99

> <Gold.Protein.RotatedTorsions>
[ 6907 6896 6895 6894 ] final   17.47 input  -60.11 | X-H torsion
[ 7974 7965 7964 7962 ] final  -78.78 input  175.53 | X-H torsion
[ 8008 7997 7996 7995 ] final  -53.60 input   59.86 | X-H torsion
[ 10167 10162 10161 10158 ] final  -94.50 input  -65.29 | X-H torsion
[ 10718 10713 10712 10709 ] final   55.73 input   66.30 | X-H torsion
[ 10763 10752 10751 10750 ] final  -35.90 input  -60.55 | X-H torsion
[ 11005 11000 10999 10996 ] final -151.24 input  -57.11 | X-H torsion

> <Gold.Protein.ActiveResidues>
 VAL166  LYS551  ARG553  GLY616  TRP617  ASP618  TYR619  PRO620  LYS621  CYS622 
 ASP623  PHE694  ASN695  SER759  ASP760  ASP761  ALA762  ILE779  LEU786  VAL792 
 PHE793  MET794  SER795  GLU796  ALA797  LYS798  CYS799  TRP800  GLU811  SER814 

> <Gold.Protein.RotatedAtoms>
  151.8501  135.0560  160.0457 H   0  0  0  0  0  0  0  0  0  0  0  0  # atno 6907 bound_to 6896
  152.2743  133.5406  159.5466 H   0  0  0  0  0  0  0  0  0  0  0  0  # atno 6908 bound_to 6896
  150.7164  134.0570  159.3860 H   0  0  0  0  0  0  0  0  0  0  0  0  # atno 6909 bound_to 6896
  145.5819  140.9446  143.1339 H   0  0  0  0  0  0  0  0  0  0  0  0  # atno 7974 bound_to 7965
  154.4138  140.1196  156.5180 H   0  0  0  0  0  0  0  0  0  0  0  0  # atno 8008 bound_to 7997
  155.6732  140.3496  155.4807 H   0  0  0  0  0  0  0  0  0  0  0  0  # atno 8009 bound_to 7997
  155.9615  140.1124  157.0881 H   0  0  0  0  0  0  0  0  0  0  0  0  # atno 8010 bound_to 7997
  140.3138  143.3089  152.0120 H   0  0  0  0  0  0  0  0  0  0  0  0  # atno 10167 bound_to 10162
  157.5370  130.8670  149.8767 H   0  0  0  0  0  0  0  0  0  0  0  0  # atno 10718 bound_to 10713
  153.8708  135.6831  153.4774 H   0  0  0  0  0  0  0  0  0  0  0  0  # atno 10763 bound_to 10752
  153.1288  135.4707  154.9313 H   0  0  0  0  0  0  0  0  0  0  0  0  # atno 10764 bound_to 10752
  154.7715  135.3240  154.8131 H   0  0  0  0  0  0  0  0  0  0  0  0  # atno 10765 bound_to 10752
  140.7316  134.3614  157.5165 H   0  0  0  0  0  0  0  0  0  0  0  0  # atno 11005 bound_to 11000
  144.7390  139.7503  143.7318 LP  0  0  0  0  0  0  0  0  0  0  0  0  # atno 17320 bound_to 7965
  146.1710  139.4860  142.9928 LP  0  0  0  0  0  0  0  0  0  0  0  0  # atno 17321 bound_to 7965
  139.4888  144.6364  151.6966 LP  0  0  0  0  0  0  0  0  0  0  0  0  # atno 17342 bound_to 10162
  140.5545  144.0371  150.6141 LP  0  0  0  0  0  0  0  0  0  0  0  0  # atno 17343 bound_to 10162
  156.0466  130.3726  150.1302 LP  0  0  0  0  0  0  0  0  0  0  0  0  # atno 17370 bound_to 10713
  156.9484  130.9767  151.3503 LP  0  0  0  0  0  0  0  0  0  0  0  0  # atno 17371 bound_to 10713
  139.8825  134.9022  156.2828 LP  0  0  0  0  0  0  0  0  0  0  0  0  # atno 17394 bound_to 11000
  140.9915  133.7205  156.0822 LP  0  0  0  0  0  0  0  0  0  0  0  0  # atno 17395 bound_to 11000

$$$$
