AV-unprocessed.smi:1672|AV-procd|sdf|6704|dock10
  -GOLD-   22720 7443D 1   1.00000     0.00000
 Structure written by MMmdl.
 48 50  0  0  0  0  0  0  0  0  2 V2000
  147.3439  139.5364  153.1935 C   0  0  0  0  0  0  0  0  0  0  0  0
  147.0367  140.5803  154.2815 C   0  0  2  0  0  0  0  0  0  0  0  0
  147.6918  141.9445  153.9999 C   0  0  0  0  0  0  0  0  0  0  0  0
  149.2101  141.9243  154.2515 C   0  0  0  0  0  0  0  0  0  0  0  0
  149.5179  141.4775  155.6359 N   0  3  2  0  0  0  0  0  0  0  0  0
  150.9614  141.5651  155.9773 C   0  0  0  0  0  0  0  0  0  0  0  0
  151.2088  141.6942  157.4935 C   0  0  1  0  0  0  0  0  0  0  0  0
  151.7718  140.4859  157.9663 O   0  0  0  0  0  0  0  0  0  0  0  0
  152.1587  142.8646  157.8165 C   0  0  0  0  0  0  0  0  0  0  0  0
  152.1257  143.2391  159.2244 N   0  0  0  0  0  0  0  0  0  0  0  0
  151.4770  144.2772  159.8119 C   0  0  0  0  0  0  0  0  0  0  0  0
  150.6411  145.2461  159.0329 C   0  0  0  0  0  0  0  0  0  0  0  0
  149.2786  145.2020  159.3974 O   0  0  0  0  0  0  0  0  0  0  0  0
  151.6263  144.3806  161.1327 N   0  0  0  0  0  0  0  0  0  0  0  0
  152.4408  143.3066  161.4332 C   0  0  0  0  0  0  0  0  0  0  0  0
  152.9607  142.8649  162.6707 C   0  0  0  0  0  0  0  0  0  0  0  0
  153.7836  141.7211  162.7319 C   0  0  0  0  0  0  0  0  0  0  0  0
  154.0978  141.0041  161.5593 C   0  0  0  0  0  0  0  0  0  0  0  0
  153.5906  141.4273  160.3155 C   0  0  0  0  0  0  0  0  0  0  0  0
  152.7702  142.5701  160.2604 C   0  0  0  0  0  0  0  0  0  0  0  0
  148.9547  140.1309  155.9128 C   0  0  0  0  0  0  0  0  0  0  0  0
  147.4313  140.1052  155.6918 C   0  0  0  0  0  0  0  0  0  0  0  0
  148.4080  139.3113  153.1265 H   0  0  0  0  0  0  0  0  0  0  0  0
  147.0194  139.8877  152.2136 H   0  0  0  0  0  0  0  0  0  0  0  0
  146.8216  138.6002  153.3931 H   0  0  0  0  0  0  0  0  0  0  0  0
  145.9555  140.7254  154.2728 H   0  0  0  0  0  0  0  0  0  0  0  0
  147.4848  142.2592  152.9764 H   0  0  0  0  0  0  0  0  0  0  0  0
  147.2378  142.6988  154.6444 H   0  0  0  0  0  0  0  0  0  0  0  0
  149.7066  141.2687  153.5349 H   0  0  0  0  0  0  0  0  0  0  0  0
  149.6035  142.9250  154.0785 H   0  0  0  0  0  0  0  0  0  0  0  0
  151.4785  140.6723  155.6214 H   0  0  0  0  0  0  0  0  0  0  0  0
  151.4061  142.4059  155.4428 H   0  0  0  0  0  0  0  0  0  0  0  0
  150.2692  141.8563  158.0204 H   0  0  0  0  0  0  0  0  0  0  0  0
  151.0689  139.8884  158.1747 H   0  0  0  0  0  0  0  0  0  0  0  0
  153.1801  142.6239  157.5220 H   0  0  0  0  0  0  0  0  0  0  0  0
  151.8776  143.7414  157.2317 H   0  0  0  0  0  0  0  0  0  0  0  0
  151.0124  146.2576  159.2011 H   0  0  0  0  0  0  0  0  0  0  0  0
  150.7404  145.0515  157.9653 H   0  0  0  0  0  0  0  0  0  0  0  0
  148.7958  145.7811  158.8282 H   0  0  0  0  0  0  0  0  0  0  0  0
  152.7252  143.4064  163.5750 H   0  0  0  0  0  0  0  0  0  0  0  0
  154.1744  141.3920  163.6836 H   0  0  0  0  0  0  0  0  0  0  0  0
  154.7277  140.1283  161.6159 H   0  0  0  0  0  0  0  0  0  0  0  0
  153.8286  140.8789  159.4163 H   0  0  0  0  0  0  0  0  0  0  0  0
  149.4480  139.3896  155.2827 H   0  0  0  0  0  0  0  0  0  0  0  0
  149.1638  139.8519  156.9463 H   0  0  0  0  0  0  0  0  0  0  0  0
  146.9569  140.7516  156.4314 H   0  0  0  0  0  0  0  0  0  0  0  0
  147.0430  139.1026  155.8750 H   0  0  0  0  0  0  0  0  0  0  0  0
  149.0446  142.1123  156.2636 H   0  0  0  0  0  0  0  0  0  0  0  0
  1  2  1  0  0  0  0
  1 23  1  0  0  0  0
  1 24  1  0  0  0  0
  1 25  1  0  0  0  0
  2 22  1  0  0  0  0
  2  3  1  0  0  0  0
  2 26  1  0  0  0  0
  3  4  1  0  0  0  0
  3 27  1  0  0  0  0
  3 28  1  0  0  0  0
  4  5  1  0  0  0  0
  4 29  1  0  0  0  0
  4 30  1  0  0  0  0
  5  6  1  0  0  0  0
  5 21  1  0  0  0  0
  5 48  1  0  0  0  0
  6  7  1  0  0  0  0
  6 31  1  0  0  0  0
  6 32  1  0  0  0  0
  7  8  1  0  0  0  0
  7  9  1  0  0  0  0
  7 33  1  0  0  0  0
  8 34  1  0  0  0  0
  9 10  1  0  0  0  0
  9 35  1  0  0  0  0
  9 36  1  0  0  0  0
 10 20  1  0  0  0  0
 10 11  1  0  0  0  0
 11 12  1  0  0  0  0
 11 14  2  0  0  0  0
 12 13  1  0  0  0  0
 12 37  1  0  0  0  0
 12 38  1  0  0  0  0
 13 39  1  0  0  0  0
 14 15  1  0  0  0  0
 15 20  2  0  0  0  0
 15 16  1  0  0  0  0
 16 17  2  0  0  0  0
 16 40  1  0  0  0  0
 17 18  1  0  0  0  0
 17 41  1  0  0  0  0
 18 19  2  0  0  0  0
 18 42  1  0  0  0  0
 19 20  1  0  0  0  0
 19 43  1  0  0  0  0
 21 22  1  0  0  0  0
 21 44  1  0  0  0  0
 21 45  1  0  0  0  0
 22 46  1  0  0  0  0
 22 47  1  0  0  0  0
M  CHG  1   5   1
M  END
> <s_m_source_file>
AV-unprocessed.smi

> <i_m_source_file_index>
1672

> <i_lp_mmshare_version>
43012

> <i_f3d_flags>
0

> <s_epik_input>
W0NIM11bQ0hdMVtDSDJdW0NIMl1OKFtDSDJdW0NIMl0xKVtDSDJdW0NASF0oW09IXSlbQ0gyXW4oYyhuMilbQ0gyXVtPSF0pYyhjMjMpW2NIXVtjSF1bY0hdW2NIXTM=

> <s_epik_cmdline>
J2VwaWtfcHl0aG9uJywgJy1waCcsICc3LjAnLCAnLXRuJywgJzgnLCAnLW1hJywgJzIwMCcsICctbWV0YWxfYmluZGluZycsICctaW1hZScsICc8aW5maWxlLm1hZT4nLCAnLW9tYWUnLCAnPG91dGZpbGUubWFlPic=

> <r_epik_Ionization_Penalty>
0.0498263

> <r_epik_Ionization_Penalty_Charging>
0.00181365

> <r_epik_Ionization_Penalty_Neutral>
0.0480127

> <r_epik_State_Penalty>
0.0408546

> <r_epik_Charging_Adjusted_Penalty>
0.0426682

> <i_epik_Tot_Q>
1

> <i_epik_Tot_abs_Q>
1

> <r_epik_Metal_State_Penalty>
4.22946e-05

> <b_epik_Metal_Only>
0

> <s_lp_Force_Field>
OPLS_2005

> <r_lp_Energy>
24.4653

> <b_lp_Chiralities_Consistent>
1

> <s_lp_Variant>
AV-unprocessed.smi:1672-4

> <Gold.Version>
5.8.1

> <Gold.Id.Protein>
6NUR|6NUR_protein|mol2

> <Gold.PLP.Fitness>
49.1004

> <Gold.PLP.PLP>
-48.6116

> <Gold.PLP.part.hbond>
-1.2295

> <Gold.PLP.part.metal>
0.0000

> <Gold.PLP.part.buried>
-4.8393

> <Gold.PLP.part.nonpolar>
-41.8935

> <Gold.PLP.part.repulsive>
0.2727

> <Gold.PLP.ligand.clash>
0.0000

> <Gold.PLP.ligand.torsion>
1.2925

> <Gold.PLP.Chemscore.Hbond>
1.0000

> <Gold.PLP.Chemscore.CHOScore>
0.0000

> <Gold.PLP.Chemscore.Metal>
0.0000

> <Gold.Chemscore.Hbonds>
donor molecule, donor type, donor heavy atom, donor atom, acceptor molecule, acceptor atom, score
      L1  H    13    39       P1  8029  0.94

> <Gold.PLP.Chemscore.Internal.Correction>
0.0738

> <Gold.Rescore>
     Score         DG    S(hbond)    S(metal)    S(lipo)     H(rot)  DE(clash)    DE(int)     intcor
     14.17     -16.75       1.00        0.00     130.79       2.88       1.12       1.46       ----

> <Gold.Chemscore.Fitness>
14.1703

> <Gold.Chemscore.DG>
-16.7539

> <Gold.Chemscore.ZeroCoef>
-5.4800

> <Gold.Chemscore.Hbond>
0.9994

> <Gold.Chemscore.Metal>
0.0000

> <Gold.Chemscore.Lipo>
130.7938

> <Gold.Chemscore.Internal_Hbond>
0.0000

> <Gold.Chemscore.DEClash>
1.1212

> <Gold.Chemscore.DEInternal>
1.4624

> <Gold.Chemscore.Rot>
2.8778

> <Gold.Chemscore.Internal.Correction>
   9.000000E+99

> <Gold.Chemscore.Hbonds>
donor molecule, donor type, donor heavy atom, donor atom, acceptor molecule, acceptor atom, score
      L1  H    13    39       P1  8029  0.91

> <Gold.Chemscore.Hbond.Weighted>
-3.3381

> <Gold.Chemscore.Metal.Weighted>
-0.0000

> <Gold.Chemscore.Lipo.Weighted>
-15.3029

> <Gold.Chemscore.Internal_Hbond.Weighted>
0.0000

> <Gold.Chemscore.DEClash.Weighted>
1.1212

> <Gold.Chemscore.DEInternal.Weighted>
1.4624

> <Gold.Chemscore.Rot.Weighted>
7.3671

> <Gold.Chemscore.Internal.Correction.Weighted>
   9.000000E+99

> <Gold.Protein.RotatedTorsions>
[ 6907 6896 6895 6894 ] final -148.72 input  -60.11 | X-H torsion
[ 7974 7965 7964 7962 ] final -145.60 input  175.53 | X-H torsion
[ 8008 7997 7996 7995 ] final  121.96 input   59.86 | X-H torsion
[ 10167 10162 10161 10158 ] final  143.17 input  -65.29 | X-H torsion
[ 10718 10713 10712 10709 ] final   40.98 input   66.30 | X-H torsion
[ 10763 10752 10751 10750 ] final    0.29 input  -60.55 | X-H torsion
[ 11005 11000 10999 10996 ] final  -77.26 input  -57.11 | X-H torsion

> <Gold.Protein.ActiveResidues>
 VAL166  LYS551  ARG553  GLY616  TRP617  ASP618  TYR619  PRO620  LYS621  CYS622 
 ASP623  PHE694  ASN695  SER759  ASP760  ASP761  ALA762  ILE779  LEU786  VAL792 
 PHE793  MET794  SER795  GLU796  ALA797  LYS798  CYS799  TRP800  GLU811  SER814 

> <Gold.Protein.RotatedAtoms>
  151.1739  133.4767  159.2593 H   0  0  0  0  0  0  0  0  0  0  0  0  # atno 6907 bound_to 6896
  151.1328  135.0139  159.8600 H   0  0  0  0  0  0  0  0  0  0  0  0  # atno 6908 bound_to 6896
  152.5460  134.1640  159.8622 H   0  0  0  0  0  0  0  0  0  0  0  0  # atno 6909 bound_to 6896
  144.8216  140.5563  143.5574 H   0  0  0  0  0  0  0  0  0  0  0  0  # atno 7974 bound_to 7965
  156.2708  140.2796  156.1392 H   0  0  0  0  0  0  0  0  0  0  0  0  # atno 8008 bound_to 7997
  155.0972  140.0389  157.2704 H   0  0  0  0  0  0  0  0  0  0  0  0  # atno 8009 bound_to 7997
  154.6843  140.2615  155.6882 H   0  0  0  0  0  0  0  0  0  0  0  0  # atno 8010 bound_to 7997
  139.4976  144.6058  151.6381 H   0  0  0  0  0  0  0  0  0  0  0  0  # atno 10167 bound_to 10162
  157.3884  130.7792  149.7249 H   0  0  0  0  0  0  0  0  0  0  0  0  # atno 10718 bound_to 10713
  153.3226  135.6970  153.7017 H   0  0  0  0  0  0  0  0  0  0  0  0  # atno 10763 bound_to 10752
  153.5851  135.3490  155.2890 H   0  0  0  0  0  0  0  0  0  0  0  0  # atno 10764 bound_to 10752
  154.8601  135.4304  154.2394 H   0  0  0  0  0  0  0  0  0  0  0  0  # atno 10765 bound_to 10752
  141.1659  133.7015  156.7793 H   0  0  0  0  0  0  0  0  0  0  0  0  # atno 11005 bound_to 11000
  145.5092  139.1480  143.3614 LP  0  0  0  0  0  0  0  0  0  0  0  0  # atno 17320 bound_to 7965
  146.2522  140.5232  142.8889 LP  0  0  0  0  0  0  0  0  0  0  0  0  # atno 17321 bound_to 7965
  140.5720  144.0093  150.6221 LP  0  0  0  0  0  0  0  0  0  0  0  0  # atno 17342 bound_to 10162
  140.3214  143.3135  152.0780 LP  0  0  0  0  0  0  0  0  0  0  0  0  # atno 17343 bound_to 10162
  155.9792  130.4042  150.3601 LP  0  0  0  0  0  0  0  0  0  0  0  0  # atno 17370 bound_to 10713
  157.1714  131.0369  151.2793 LP  0  0  0  0  0  0  0  0  0  0  0  0  # atno 17371 bound_to 10713
  140.2406  134.8616  157.3570 LP  0  0  0  0  0  0  0  0  0  0  0  0  # atno 17394 bound_to 11000
  140.1799  134.4502  155.7778 LP  0  0  0  0  0  0  0  0  0  0  0  0  # atno 17395 bound_to 11000

$$$$
