AV-unprocessed.smi:2535|AV-procd|sdf|9977|dock2
  -GOLD-   2272014 23D 1   1.00000     0.00000
 Structure written by MMmdl.
 26 27  0  0  0  0  0  0  0  0  2 V2000
  155.5382  140.1882  162.3797 C   0  0  0  0  0  0  0  0  0  0  0  0
  154.9875  140.2874  161.0422 N   0  0  0  0  0  0  0  0  0  0  0  0
  155.3750  139.4318  160.0655 N   0  0  0  0  0  0  0  0  0  0  0  0
  154.7230  139.7702  158.9905 N   0  0  0  0  0  0  0  0  0  0  0  0
  153.8932  140.8499  159.2254 N   0  0  0  0  0  0  0  0  0  0  0  0
  154.0914  141.1284  160.5072 C   0  0  0  0  0  0  0  0  0  0  0  0
  153.4094  142.2292  161.2593 C   0  0  0  0  0  0  0  0  0  0  0  0
  152.4309  143.0338  160.3865 C   0  0  1  0  0  0  0  0  0  0  0  0
  151.9877  144.3735  160.9822 C   0  0  0  0  0  0  0  0  0  0  0  0
  151.5492  145.1589  159.7525 C   0  0  0  0  0  0  0  0  0  0  0  0
  152.5414  144.7121  158.6758 C   0  0  0  0  0  0  0  0  0  0  0  0
  153.0082  143.3668  159.0686 N   0  3  0  0  0  0  0  0  0  0  0  0
  156.0482  141.1165  162.6363 H   0  0  0  0  0  0  0  0  0  0  0  0
  156.2530  139.3665  162.4394 H   0  0  0  0  0  0  0  0  0  0  0  0
  154.7378  140.0088  163.0965 H   0  0  0  0  0  0  0  0  0  0  0  0
  152.8899  141.8143  162.1236 H   0  0  0  0  0  0  0  0  0  0  0  0
  154.1785  142.8923  161.6568 H   0  0  0  0  0  0  0  0  0  0  0  0
  151.5406  142.4326  160.1944 H   0  0  0  0  0  0  0  0  0  0  0  0
  151.1952  144.2681  161.7241 H   0  0  0  0  0  0  0  0  0  0  0  0
  152.8302  144.8791  161.4555 H   0  0  0  0  0  0  0  0  0  0  0  0
  150.5370  144.8655  159.4701 H   0  0  0  0  0  0  0  0  0  0  0  0
  151.5541  146.2376  159.9122 H   0  0  0  0  0  0  0  0  0  0  0  0
  152.0939  144.7035  157.6816 H   0  0  0  0  0  0  0  0  0  0  0  0
  153.4026  145.3808  158.6519 H   0  0  0  0  0  0  0  0  0  0  0  0
  154.0157  143.3842  159.1362 H   0  0  0  0  0  0  0  0  0  0  0  0
  152.7268  142.6774  158.3857 H   0  0  0  0  0  0  0  0  0  0  0  0
  1  2  1  0  0  0  0
  1 13  1  0  0  0  0
  1 14  1  0  0  0  0
  1 15  1  0  0  0  0
  2  6  1  0  0  0  0
  2  3  1  0  0  0  0
  3  4  2  0  0  0  0
  4  5  1  0  0  0  0
  5  6  2  0  0  0  0
  6  7  1  0  0  0  0
  7  8  1  0  0  0  0
  7 16  1  0  0  0  0
  7 17  1  0  0  0  0
  8 12  1  0  0  0  0
  8  9  1  0  0  0  0
  8 18  1  0  0  0  0
  9 10  1  0  0  0  0
  9 19  1  0  0  0  0
  9 20  1  0  0  0  0
 10 11  1  0  0  0  0
 10 21  1  0  0  0  0
 10 22  1  0  0  0  0
 11 12  1  0  0  0  0
 11 23  1  0  0  0  0
 11 24  1  0  0  0  0
 12 25  1  0  0  0  0
 12 26  1  0  0  0  0
M  CHG  1  12   1
M  END
> <s_m_source_file>
AV-unprocessed.smi

> <i_m_source_file_index>
2535

> <i_lp_mmshare_version>
43012

> <i_f3d_flags>
0

> <s_epik_input>
W0NIM11uMW5ubmMxW0NIMl1bQ0BASF0yW0NIMl1bQ0gyXVtDSDJdW05IXTI=

> <s_epik_cmdline>
J2VwaWtfcHl0aG9uJywgJy1waCcsICc3LjAnLCAnLXRuJywgJzgnLCAnLW1hJywgJzIwMCcsICctbWV0YWxfYmluZGluZycsICctaW1hZScsICc8aW5maWxlLm1hZT4nLCAnLW9tYWUnLCAnPG91dGZpbGUubWFlPic=

> <r_lp_tautomer_probability>
1

> <r_epik_Ionization_Penalty>
0.000863359

> <r_epik_Ionization_Penalty_Charging>
0.000863359

> <r_epik_Ionization_Penalty_Neutral>
1.80841e-10

> <r_epik_State_Penalty>
0.000557253

> <r_epik_Charging_Adjusted_Penalty>
0.00142061

> <i_epik_Tot_Q>
1

> <i_epik_Tot_abs_Q>
1

> <r_epik_Metal_State_Penalty>
-0

> <b_epik_Metal_Only>
0

> <s_lp_Force_Field>
OPLS_2005

> <r_lp_Energy>
24.3547

> <b_lp_Chiralities_Consistent>
1

> <s_lp_Variant>
AV-unprocessed.smi:2535-2

> <Gold.Version>
5.8.1

> <Gold.Id.Protein>
6NUR|6NUR_protein|mol2

> <Gold.PLP.Fitness>
34.3756

> <Gold.PLP.PLP>
-31.6013

> <Gold.PLP.part.hbond>
-1.4026

> <Gold.PLP.part.metal>
0.0000

> <Gold.PLP.part.buried>
-3.9010

> <Gold.PLP.part.nonpolar>
-26.6016

> <Gold.PLP.part.repulsive>
0.0255

> <Gold.PLP.ligand.clash>
0.0000

> <Gold.PLP.ligand.torsion>
0.1129

> <Gold.PLP.Chemscore.Hbond>
1.0000

> <Gold.PLP.Chemscore.CHOScore>
0.0000

> <Gold.PLP.Chemscore.Metal>
0.0000

> <Gold.Chemscore.Hbonds>
donor molecule, donor type, donor heavy atom, donor atom, acceptor molecule, acceptor atom, score
      P1  H  7997  8010       L1     4  1.00

> <Gold.PLP.Chemscore.Internal.Correction>
0.0002

> <Gold.Rescore>
     Score         DG    S(hbond)    S(metal)    S(lipo)     H(rot)  DE(clash)    DE(int)     intcor
     12.34     -12.60       0.80        0.00      67.41       1.34       0.18       0.09       ----

> <Gold.Chemscore.Fitness>
12.3352

> <Gold.Chemscore.DG>
-12.5993

> <Gold.Chemscore.ZeroCoef>
-5.4800

> <Gold.Chemscore.Hbond>
0.7977

> <Gold.Chemscore.Metal>
0.0000

> <Gold.Chemscore.Lipo>
67.4134

> <Gold.Chemscore.Internal_Hbond>
0.0000

> <Gold.Chemscore.DEClash>
0.1760

> <Gold.Chemscore.DEInternal>
0.0882

> <Gold.Chemscore.Rot>
1.3407

> <Gold.Chemscore.Internal.Correction>
   9.000000E+99

> <Gold.Chemscore.Hbonds>
donor molecule, donor type, donor heavy atom, donor atom, acceptor molecule, acceptor atom, score
      P1  H  7997  8010       L1     4  0.25

> <Gold.Chemscore.Hbond.Weighted>
-2.6643

> <Gold.Chemscore.Metal.Weighted>
-0.0000

> <Gold.Chemscore.Lipo.Weighted>
-7.8874

> <Gold.Chemscore.Internal_Hbond.Weighted>
0.0000

> <Gold.Chemscore.DEClash.Weighted>
0.1760

> <Gold.Chemscore.DEInternal.Weighted>
0.0882

> <Gold.Chemscore.Rot.Weighted>
3.4323

> <Gold.Chemscore.Internal.Correction.Weighted>
   9.000000E+99

> <Gold.Protein.RotatedTorsions>
[ 6907 6896 6895 6894 ] final  -29.23 input  -60.11 | X-H torsion
[ 7974 7965 7964 7962 ] final -104.09 input  175.53 | X-H torsion
[ 8008 7997 7996 7995 ] final    1.49 input   59.86 | X-H torsion
[ 10167 10162 10161 10158 ] final  147.94 input  -65.29 | X-H torsion
[ 10718 10713 10712 10709 ] final  120.06 input   66.30 | X-H torsion
[ 10763 10752 10751 10750 ] final  169.61 input  -60.55 | X-H torsion
[ 11005 11000 10999 10996 ] final   22.09 input  -57.11 | X-H torsion

> <Gold.Protein.ActiveResidues>
 VAL166  LYS551  ARG553  GLY616  TRP617  ASP618  TYR619  PRO620  LYS621  CYS622 
 ASP623  PHE694  ASN695  SER759  ASP760  ASP761  ALA762  ILE779  LEU786  VAL792 
 PHE793  MET794  SER795  GLU796  ALA797  LYS798  CYS799  TRP800  GLU811  SER814 

> <Gold.Protein.RotatedAtoms>
  151.1221  135.0085  159.8542 H   0  0  0  0  0  0  0  0  0  0  0  0  # atno 6907 bound_to 6896
  152.5448  134.1710  159.8607 H   0  0  0  0  0  0  0  0  0  0  0  0  # atno 6908 bound_to 6896
  151.1770  133.4704  159.2627 H   0  0  0  0  0  0  0  0  0  0  0  0  # atno 6909 bound_to 6896
  145.2475  140.9226  143.3114 H   0  0  0  0  0  0  0  0  0  0  0  0  # atno 7974 bound_to 7965
  154.6803  140.2631  155.6915 H   0  0  0  0  0  0  0  0  0  0  0  0  # atno 8008 bound_to 7997
  156.2694  140.2811  156.1268 H   0  0  0  0  0  0  0  0  0  0  0  0  # atno 8009 bound_to 7997
  155.1041  140.0375  157.2695 H   0  0  0  0  0  0  0  0  0  0  0  0  # atno 8010 bound_to 7997
  139.4882  144.5718  151.7041 H   0  0  0  0  0  0  0  0  0  0  0  0  # atno 10167 bound_to 10162
  157.5918  131.1063  150.7983 H   0  0  0  0  0  0  0  0  0  0  0  0  # atno 10718 bound_to 10713
  154.3856  135.2753  155.2185 H   0  0  0  0  0  0  0  0  0  0  0  0  # atno 10763 bound_to 10752
  154.4273  135.5985  153.6050 H   0  0  0  0  0  0  0  0  0  0  0  0  # atno 10764 bound_to 10752
  152.9833  135.5987  154.4104 H   0  0  0  0  0  0  0  0  0  0  0  0  # atno 10765 bound_to 10752
  140.3844  134.1886  155.7663 H   0  0  0  0  0  0  0  0  0  0  0  0  # atno 11005 bound_to 11000
  144.9533  139.4059  143.6392 LP  0  0  0  0  0  0  0  0  0  0  0  0  # atno 17320 bound_to 7965
  146.3312  139.8550  142.8866 LP  0  0  0  0  0  0  0  0  0  0  0  0  # atno 17321 bound_to 7965
  140.5306  144.0736  150.6052 LP  0  0  0  0  0  0  0  0  0  0  0  0  # atno 17342 bound_to 10162
  140.3725  143.2847  152.0262 LP  0  0  0  0  0  0  0  0  0  0  0  0  # atno 17343 bound_to 10162
  156.8403  130.5045  149.5322 LP  0  0  0  0  0  0  0  0  0  0  0  0  # atno 17370 bound_to 10713
  156.0974  130.5942  150.9836 LP  0  0  0  0  0  0  0  0  0  0  0  0  # atno 17371 bound_to 10713
  141.1912  133.8199  157.0887 LP  0  0  0  0  0  0  0  0  0  0  0  0  # atno 17394 bound_to 11000
  140.0454  134.9833  157.1039 LP  0  0  0  0  0  0  0  0  0  0  0  0  # atno 17395 bound_to 11000

$$$$
