AV-unprocessed.smi:2657|AV-procd|sdf|10307|dock8
  -GOLD-   2272014323D 1   1.00000     0.00000
 Structure written by MMmdl.
 46 48  0  0  0  0  0  0  0  0  1 V2000
  149.2552  135.3827  156.3428 O   0  0  0  0  0  0  0  0  0  0  0  0
  149.2744  135.7004  155.1541 C   0  0  0  0  0  0  0  0  0  0  0  0
  148.7895  134.9217  154.1768 N   0  0  0  0  0  0  0  0  0  0  0  0
  148.1463  133.6295  154.3836 C   0  0  0  0  0  0  0  0  0  0  0  0
  148.3989  132.6725  153.2002 C   0  0  0  0  0  0  0  0  0  0  0  0
  147.1507  132.2105  152.5821 N   0  0  0  0  0  0  0  0  0  0  0  0
  146.7205  130.9412  152.6175 C   0  0  0  0  0  0  0  0  0  0  0  0
  147.2807  129.9961  153.1720 O   0  0  0  0  0  0  0  0  0  0  0  0
  145.4103  130.7862  151.8578 C   0  0  0  0  0  0  0  0  0  0  0  0
  145.1261  132.2081  151.3643 C   0  0  0  0  0  0  0  0  0  0  0  0
  146.3140  132.9997  151.8936 C   0  0  0  0  0  0  0  0  0  0  0  0
  146.4534  134.2051  151.6890 O   0  0  0  0  0  0  0  0  0  0  0  0
  149.7589  136.8517  154.6575 N   0  0  0  0  0  0  0  0  0  0  0  0
  150.3101  137.9713  155.3406 C   0  0  0  0  0  0  0  0  0  0  0  0
  150.7353  139.1725  154.7253 C   0  0  0  0  0  0  0  0  0  0  0  0
  151.2619  140.2017  155.5288 C   0  0  0  0  0  0  0  0  0  0  0  0
  151.3489  140.0156  156.9286 C   0  0  0  0  0  0  0  0  0  0  0  0
  151.8735  141.0360  157.7518 N   0  0  0  0  0  0  0  0  0  0  0  0
  152.1708  140.7094  159.1455 C   0  0  0  0  0  0  0  0  0  0  0  0
  152.9964  141.8322  159.7959 C   0  0  0  0  0  0  0  0  0  0  0  0
  152.3125  143.0728  159.6560 O   0  0  0  0  0  0  0  0  0  0  0  0
  152.1328  143.4260  158.2886 C   0  0  0  0  0  0  0  0  0  0  0  0
  151.2786  142.3595  157.5816 C   0  0  0  0  0  0  0  0  0  0  0  0
  150.9418  138.8632  157.5142 N   0  0  0  0  0  0  0  0  0  0  0  0
  150.4377  137.8793  156.7410 C   0  0  0  0  0  0  0  0  0  0  0  0
  148.8453  135.2569  153.2261 H   0  0  0  0  0  0  0  0  0  0  0  0
  148.5986  133.2035  155.2794 H   0  0  0  0  0  0  0  0  0  0  0  0
  147.0840  133.7360  154.6106 H   0  0  0  0  0  0  0  0  0  0  0  0
  149.0682  133.1259  152.4665 H   0  0  0  0  0  0  0  0  0  0  0  0
  148.9361  131.7961  153.5667 H   0  0  0  0  0  0  0  0  0  0  0  0
  145.5314  130.0863  151.0304 H   0  0  0  0  0  0  0  0  0  0  0  0
  144.6248  130.4192  152.5190 H   0  0  0  0  0  0  0  0  0  0  0  0
  145.0860  132.2611  150.2761 H   0  0  0  0  0  0  0  0  0  0  0  0
  144.1937  132.6009  151.7712 H   0  0  0  0  0  0  0  0  0  0  0  0
  149.6855  136.9592  153.6563 H   0  0  0  0  0  0  0  0  0  0  0  0
  150.6723  139.3371  153.6622 H   0  0  0  0  0  0  0  0  0  0  0  0
  151.6036  141.1124  155.0603 H   0  0  0  0  0  0  0  0  0  0  0  0
  151.2364  140.5694  159.6910 H   0  0  0  0  0  0  0  0  0  0  0  0
  152.7272  139.7730  159.2042 H   0  0  0  0  0  0  0  0  0  0  0  0
  153.1426  141.6245  160.8560 H   0  0  0  0  0  0  0  0  0  0  0  0
  153.9878  141.8974  159.3446 H   0  0  0  0  0  0  0  0  0  0  0  0
  151.6398  144.3966  158.2350 H   0  0  0  0  0  0  0  0  0  0  0  0
  153.1023  143.5340  157.7998 H   0  0  0  0  0  0  0  0  0  0  0  0
  151.1785  142.6272  156.5308 H   0  0  0  0  0  0  0  0  0  0  0  0
  150.2725  142.3489  158.0029 H   0  0  0  0  0  0  0  0  0  0  0  0
  150.1276  136.9852  157.2618 H   0  0  0  0  0  0  0  0  0  0  0  0
  1  2  2  0  0  0  0
  2  3  1  0  0  0  0
  2 13  1  0  0  0  0
  3  4  1  0  0  0  0
  3 26  1  0  0  0  0
  4  5  1  0  0  0  0
  4 27  1  0  0  0  0
  4 28  1  0  0  0  0
  5  6  1  0  0  0  0
  5 29  1  0  0  0  0
  5 30  1  0  0  0  0
  6 11  1  0  0  0  0
  6  7  1  0  0  0  0
  7  8  2  0  0  0  0
  7  9  1  0  0  0  0
  9 10  1  0  0  0  0
  9 31  1  0  0  0  0
  9 32  1  0  0  0  0
 10 11  1  0  0  0  0
 10 33  1  0  0  0  0
 10 34  1  0  0  0  0
 11 12  2  0  0  0  0
 13 14  1  0  0  0  0
 13 35  1  0  0  0  0
 14 25  1  0  0  0  0
 14 15  2  0  0  0  0
 15 16  1  0  0  0  0
 15 36  1  0  0  0  0
 16 17  2  0  0  0  0
 16 37  1  0  0  0  0
 17 18  1  0  0  0  0
 17 24  1  0  0  0  0
 18 23  1  0  0  0  0
 18 19  1  0  0  0  0
 19 20  1  0  0  0  0
 19 38  1  0  0  0  0
 19 39  1  0  0  0  0
 20 21  1  0  0  0  0
 20 40  1  0  0  0  0
 20 41  1  0  0  0  0
 21 22  1  0  0  0  0
 22 23  1  0  0  0  0
 22 42  1  0  0  0  0
 22 43  1  0  0  0  0
 23 44  1  0  0  0  0
 23 45  1  0  0  0  0
 24 25  2  0  0  0  0
 25 46  1  0  0  0  0
M  END
> <s_m_source_file>
AV-unprocessed.smi

> <i_m_source_file_index>
2657

> <i_lp_mmshare_version>
43012

> <i_f3d_flags>
0

> <s_epik_input>
Tz1DMVtDSDJdW0NIMl1DKD1PKU4xW0NIMl1bQ0gyXVtOSF1DKD1PKVtOSF1jMltjSF1bY0hdYyhuW2NIXTIpTjNbQ0gyXVtDSDJdT1tDSDJdW0NIMl0z

> <s_epik_cmdline>
J2VwaWtfcHl0aG9uJywgJy1waCcsICc3LjAnLCAnLXRuJywgJzgnLCAnLW1hJywgJzIwMCcsICctbWV0YWxfYmluZGluZycsICctaW1hZScsICc8aW5maWxlLm1hZT4nLCAnLW9tYWUnLCAnPG91dGZpbGUubWFlPic=

> <r_lp_tautomer_probability>
1

> <r_epik_Ionization_Penalty>
0.00195667

> <r_epik_Ionization_Penalty_Charging>
0

> <r_epik_Ionization_Penalty_Neutral>
0.00195667

> <r_epik_State_Penalty>
0.0013118

> <r_epik_Charging_Adjusted_Penalty>
0.0013118

> <i_epik_Tot_Q>
0

> <i_epik_Tot_abs_Q>
0

> <r_epik_Metal_State_Penalty>
-0

> <b_epik_Metal_Only>
0

> <s_lp_Force_Field>
OPLS_2005

> <r_lp_Energy>
27.686

> <b_lp_Chiralities_Consistent>
1

> <s_lp_Variant>
AV-unprocessed.smi:2657-1

> <Gold.Version>
5.8.1

> <Gold.Id.Protein>
6NUR|6NUR_protein|mol2

> <Gold.PLP.Fitness>
44.5818

> <Gold.PLP.PLP>
-39.9093

> <Gold.PLP.part.hbond>
-2.0000

> <Gold.PLP.part.metal>
0.0000

> <Gold.PLP.part.buried>
-4.7890

> <Gold.PLP.part.nonpolar>
-33.1453

> <Gold.PLP.part.repulsive>
0.3395

> <Gold.PLP.ligand.clash>
0.0000

> <Gold.PLP.ligand.torsion>
0.7907

> <Gold.PLP.Chemscore.Hbond>
1.9675

> <Gold.PLP.Chemscore.CHOScore>
0.0000

> <Gold.PLP.Chemscore.Metal>
0.0000

> <Gold.Chemscore.Hbonds>
donor molecule, donor type, donor heavy atom, donor atom, acceptor molecule, acceptor atom, score
      L1  H     3    26       P1  7948  1.00
      L1  H    13    35       P1  7948  0.95

> <Gold.PLP.Chemscore.Internal.Correction>
0.3515

> <Gold.Rescore>
     Score         DG    S(hbond)    S(metal)    S(lipo)     H(rot)  DE(clash)    DE(int)     intcor
     14.07     -16.33       1.76        0.00      85.70       1.97       0.03       2.23       ----

> <Gold.Chemscore.Fitness>
14.0704

> <Gold.Chemscore.DG>
-16.3268

> <Gold.Chemscore.ZeroCoef>
-5.4800

> <Gold.Chemscore.Hbond>
1.7588

> <Gold.Chemscore.Metal>
0.0000

> <Gold.Chemscore.Lipo>
85.6964

> <Gold.Chemscore.Internal_Hbond>
0.0000

> <Gold.Chemscore.DEClash>
0.0279

> <Gold.Chemscore.DEInternal>
2.2285

> <Gold.Chemscore.Rot>
1.9742

> <Gold.Chemscore.Internal.Correction>
   9.000000E+99

> <Gold.Chemscore.Hbonds>
donor molecule, donor type, donor heavy atom, donor atom, acceptor molecule, acceptor atom, score
      L1  H     3    26       P1  7948  0.60
      L1  H    13    35       P1  7948  0.60

> <Gold.Chemscore.Hbond.Weighted>
-5.8744

> <Gold.Chemscore.Metal.Weighted>
-0.0000

> <Gold.Chemscore.Lipo.Weighted>
-10.0265

> <Gold.Chemscore.Internal_Hbond.Weighted>
0.0000

> <Gold.Chemscore.DEClash.Weighted>
0.0279

> <Gold.Chemscore.DEInternal.Weighted>
2.2285

> <Gold.Chemscore.Rot.Weighted>
5.0540

> <Gold.Chemscore.Internal.Correction.Weighted>
   9.000000E+99

> <Gold.Protein.RotatedTorsions>
[ 6907 6896 6895 6894 ] final  155.81 input  -60.11 | X-H torsion
[ 7974 7965 7964 7962 ] final  -19.95 input  175.53 | X-H torsion
[ 8008 7997 7996 7995 ] final -119.52 input   59.86 | X-H torsion
[ 10167 10162 10161 10158 ] final  -16.13 input  -65.29 | X-H torsion
[ 10718 10713 10712 10709 ] final   11.90 input   66.30 | X-H torsion
[ 10763 10752 10751 10750 ] final  -91.34 input  -60.55 | X-H torsion
[ 11005 11000 10999 10996 ] final  -90.92 input  -57.11 | X-H torsion

> <Gold.Protein.ActiveResidues>
 VAL166  LYS551  ARG553  GLY616  TRP617  ASP618  TYR619  PRO620  LYS621  CYS622 
 ASP623  PHE694  ASN695  SER759  ASP760  ASP761  ALA762  ILE779  LEU786  VAL792 
 PHE793  MET794  SER795  GLU796  ALA797  LYS798  CYS799  TRP800  GLU811  SER814 

> <Gold.Protein.RotatedAtoms>
  152.0387  133.3968  159.4327 H   0  0  0  0  0  0  0  0  0  0  0  0  # atno 6907 bound_to 6896
  150.6877  134.3439  159.4889 H   0  0  0  0  0  0  0  0  0  0  0  0  # atno 6908 bound_to 6896
  152.1235  134.9188  160.0612 H   0  0  0  0  0  0  0  0  0  0  0  0  # atno 6909 bound_to 6896
  146.1814  140.4134  142.8493 H   0  0  0  0  0  0  0  0  0  0  0  0  # atno 7974 bound_to 7965
  155.1171  140.0398  157.2740 H   0  0  0  0  0  0  0  0  0  0  0  0  # atno 8008 bound_to 7997
  154.6641  140.2597  155.7051 H   0  0  0  0  0  0  0  0  0  0  0  0  # atno 8009 bound_to 7997
  156.2631  140.2811  156.1125 H   0  0  0  0  0  0  0  0  0  0  0  0  # atno 8010 bound_to 7997
  140.7229  143.5148  150.9706 H   0  0  0  0  0  0  0  0  0  0  0  0  # atno 10167 bound_to 10162
  157.0023  130.6084  149.5698 H   0  0  0  0  0  0  0  0  0  0  0  0  # atno 10718 bound_to 10713
  154.6750  135.5271  153.8188 H   0  0  0  0  0  0  0  0  0  0  0  0  # atno 10763 bound_to 10752
  153.0526  135.6538  154.0665 H   0  0  0  0  0  0  0  0  0  0  0  0  # atno 10764 bound_to 10752
  154.0559  135.2965  155.3312 H   0  0  0  0  0  0  0  0  0  0  0  0  # atno 10765 bound_to 10752
  141.1556  133.7722  156.9806 H   0  0  0  0  0  0  0  0  0  0  0  0  # atno 11005 bound_to 11000
  144.8322  140.6725  143.6283 LP  0  0  0  0  0  0  0  0  0  0  0  0  # atno 17320 bound_to 7965
  145.4064  139.1588  143.4149 LP  0  0  0  0  0  0  0  0  0  0  0  0  # atno 17321 bound_to 7965
  139.8863  143.7009  152.3151 LP  0  0  0  0  0  0  0  0  0  0  0  0  # atno 17342 bound_to 10162
  139.7309  144.7582  151.0803 LP  0  0  0  0  0  0  0  0  0  0  0  0  # atno 17343 bound_to 10162
  156.0166  130.5261  150.8154 LP  0  0  0  0  0  0  0  0  0  0  0  0  # atno 17370 bound_to 10713
  157.5381  131.0939  150.9864 LP  0  0  0  0  0  0  0  0  0  0  0  0  # atno 17371 bound_to 10713
  140.1068  134.9501  157.2007 LP  0  0  0  0  0  0  0  0  0  0  0  0  # atno 17394 bound_to 11000
  140.3245  134.2879  155.7239 LP  0  0  0  0  0  0  0  0  0  0  0  0  # atno 17395 bound_to 11000

$$$$
