AV-unprocessed.smi:101|AV-procd|sdf|937|dock2
  -GOLD-   2262017453D 1   1.00000     0.00000
 Structure written by MMmdl.
 43 45  0  0  0  0  0  0  0  0  2 V2000
  151.4665  137.1396  154.7005 C   0  0  0  0  0  0  0  0  0  0  0  0
  150.5677  138.3576  154.5761 C   0  0  0  0  0  0  0  0  0  0  0  0
  149.2480  138.2537  154.3035 C   0  0  0  0  0  0  0  0  0  0  0  0
  148.4297  139.3664  154.1950 N   0  0  0  0  0  0  0  0  0  0  0  0
  146.9428  139.2413  153.9083 C   0  0  2  0  0  0  0  0  0  0  0  0
  146.3841  138.2689  154.7426 O   0  0  0  0  0  0  0  0  0  0  0  0
  146.1361  137.0826  153.9975 C   0  0  1  0  0  0  0  0  0  0  0  0
  145.1303  136.1761  154.7190 C   0  0  0  0  0  0  0  0  0  0  0  0
  145.0671  134.9429  154.0226 O   0  0  0  0  0  0  0  0  0  0  0  0
  144.0932  134.7170  153.1221 C   0  0  0  0  0  0  0  0  0  0  0  0
  143.0414  135.3584  153.0772 O   0  0  0  0  0  0  0  0  0  0  0  0
  144.4231  133.6046  152.1848 C   0  0  0  0  0  0  0  0  0  0  0  0
  145.6567  132.9257  152.3198 C   0  0  0  0  0  0  0  0  0  0  0  0
  145.9947  131.8720  151.4484 C   0  0  0  0  0  0  0  0  0  0  0  0
  145.1029  131.4835  150.4319 C   0  0  0  0  0  0  0  0  0  0  0  0
  143.8726  132.1508  150.2868 C   0  0  0  0  0  0  0  0  0  0  0  0
  143.5333  133.2056  151.1563 C   0  0  0  0  0  0  0  0  0  0  0  0
  145.7001  137.6263  152.6354 C   0  0  1  0  0  0  0  0  0  0  0  0
  144.3460  138.0383  152.6703 O   0  0  0  0  0  0  0  0  0  0  0  0
  146.6253  138.8236  152.4477 C   0  0  2  0  0  0  0  0  0  0  0  0
  147.7626  138.4249  151.7021 O   0  0  0  0  0  0  0  0  0  0  0  0
  148.9811  140.6603  154.3858 C   0  0  0  0  0  0  0  0  0  0  0  0
  148.2261  141.6278  154.2847 O   0  0  0  0  0  0  0  0  0  0  0  0
  150.3114  140.7753  154.6592 N   0  5  0  0  0  0  0  0  0  0  0  0
  151.1394  139.6964  154.7634 C   0  0  0  0  0  0  0  0  0  0  0  0
  152.3397  139.8147  155.0078 O   0  0  0  0  0  0  0  0  0  0  0  0
  150.9132  136.2178  154.5190 H   0  0  0  0  0  0  0  0  0  0  0  0
  151.8959  137.0845  155.7013 H   0  0  0  0  0  0  0  0  0  0  0  0
  152.2813  137.1915  153.9776 H   0  0  0  0  0  0  0  0  0  0  0  0
  148.8340  137.2660  154.1735 H   0  0  0  0  0  0  0  0  0  0  0  0
  146.5141  140.2056  154.1864 H   0  0  0  0  0  0  0  0  0  0  0  0
  147.0754  136.5440  153.8609 H   0  0  0  0  0  0  0  0  0  0  0  0
  145.4247  136.0233  155.7583 H   0  0  0  0  0  0  0  0  0  0  0  0
  144.1408  136.6349  154.7160 H   0  0  0  0  0  0  0  0  0  0  0  0
  146.3574  133.2066  153.0931 H   0  0  0  0  0  0  0  0  0  0  0  0
  146.9400  131.3617  151.5605 H   0  0  0  0  0  0  0  0  0  0  0  0
  145.3619  130.6752  149.7641 H   0  0  0  0  0  0  0  0  0  0  0  0
  143.1867  131.8542  149.5069 H   0  0  0  0  0  0  0  0  0  0  0  0
  142.5810  133.6964  151.0159 H   0  0  0  0  0  0  0  0  0  0  0  0
  145.8066  136.8813  151.8455 H   0  0  0  0  0  0  0  0  0  0  0  0
  144.3245  138.9811  152.7325 H   0  0  0  0  0  0  0  0  0  0  0  0
  146.1405  139.6488  151.9243 H   0  0  0  0  0  0  0  0  0  0  0  0
  148.4027  139.1198  151.7468 H   0  0  0  0  0  0  0  0  0  0  0  0
  1  2  1  0  0  0  0
  1 27  1  0  0  0  0
  1 28  1  0  0  0  0
  1 29  1  0  0  0  0
  2 25  1  0  0  0  0
  2  3  2  0  0  0  0
  3  4  1  0  0  0  0
  3 30  1  0  0  0  0
  4  5  1  0  0  0  0
  4 22  1  0  0  0  0
  5 20  1  0  0  0  0
  5  6  1  0  0  0  0
  5 31  1  0  0  0  0
  6  7  1  0  0  0  0
  7  8  1  0  0  0  0
  7 18  1  0  0  0  0
  7 32  1  0  0  0  0
  8  9  1  0  0  0  0
  8 33  1  0  0  0  0
  8 34  1  0  0  0  0
  9 10  1  0  0  0  0
 10 11  2  0  0  0  0
 10 12  1  0  0  0  0
 12 17  1  0  0  0  0
 12 13  2  0  0  0  0
 13 14  1  0  0  0  0
 13 35  1  0  0  0  0
 14 15  2  0  0  0  0
 14 36  1  0  0  0  0
 15 16  1  0  0  0  0
 15 37  1  0  0  0  0
 16 17  2  0  0  0  0
 16 38  1  0  0  0  0
 17 39  1  0  0  0  0
 18 19  1  0  0  0  0
 18 20  1  0  0  0  0
 18 40  1  0  0  0  0
 19 41  1  0  0  0  0
 20 21  1  0  0  0  0
 20 42  1  0  0  0  0
 21 43  1  0  0  0  0
 22 23  2  0  0  0  0
 22 24  1  0  0  0  0
 24 25  1  0  0  0  0
 25 26  2  0  0  0  0
M  CHG  1  24  -1
M  END
> <s_m_source_file>
AV-unprocessed.smi

> <i_m_source_file_index>
101

> <i_lp_mmshare_version>
43012

> <i_f3d_flags>
0

> <s_epik_input>
Tz1jMVtuSF1jKD1PKW4oW2NIXWMxW0NIM10pW0NAQEhdMk9bQ0BIXShbQ0BASF0oW09IXSlbQ0BIXTJbT0hdKVtDSDJdT0MoPU8pYzNbY0hdW2NIXVtjSF1bY0hdW2NIXTM=

> <s_epik_cmdline>
J2VwaWtfcHl0aG9uJywgJy1waCcsICc3LjAnLCAnLXRuJywgJzgnLCAnLW1hJywgJzIwMCcsICctbWV0YWxfYmluZGluZycsICctaW1hZScsICc8aW5maWxlLm1hZT4nLCAnLW9tYWUnLCAnPG91dGZpbGUubWFlPic=

> <r_lp_tautomer_probability>
0.999537

> <r_epik_Ionization_Penalty>
3.21006

> <r_epik_Ionization_Penalty_Charging>
5.75142e-08

> <r_epik_Ionization_Penalty_Neutral>
3.21006

> <r_epik_State_Penalty>
3.20925

> <r_epik_Charging_Adjusted_Penalty>
3.20925

> <i_epik_Tot_Q>
-1

> <i_epik_Tot_abs_Q>
1

> <r_epik_Metal_State_Penalty>
0.119957

> <b_epik_Metal_Only>
1

> <s_epik_Chemistry_Notes>
This compound has an ester and may undergo hydrolysis at high or low pH. This compound contains an acetal/aminal-like group ( X-CH(R)-Y where X, Y are N, S, or O) that may be acid/base labile, releasing an aldehyde.

> <s_lp_Force_Field>
OPLS_2005

> <r_lp_Energy>
45.504

> <b_lp_Chiralities_Consistent>
1

> <s_lp_Variant>
AV-unprocessed.smi:101-25

> <Gold.Version>
5.8.1

> <Gold.Id.Protein>
6NUR|6NUR_protein|mol2

> <Gold.PLP.Fitness>
51.8892

> <Gold.PLP.PLP>
-41.1698

> <Gold.PLP.part.hbond>
-6.4889

> <Gold.PLP.part.metal>
0.0000

> <Gold.PLP.part.buried>
-1.2359

> <Gold.PLP.part.nonpolar>
-34.0135

> <Gold.PLP.part.repulsive>
0.5678

> <Gold.PLP.ligand.clash>
0.0000

> <Gold.PLP.ligand.torsion>
0.8286

> <Gold.PLP.Chemscore.Hbond>
3.2853

> <Gold.PLP.Chemscore.CHOScore>
0.7211

> <Gold.PLP.Chemscore.Metal>
0.0000

> <Gold.Chemscore.Hbonds>
donor molecule, donor type, donor heavy atom, donor atom, acceptor molecule, acceptor atom, score
      L1  H    19    41       P1 10175  1.00
      L1  H    21    43       P1  7957  1.00
      P1  H  7954  7966       L1    21  0.78
      P1  H  7997  8008       L1    26  0.26
      L1  C     3    30       P1  7948  0.74

> <Gold.PLP.Chemscore.Internal.Correction>
0.3574

> <Gold.Rescore>
     Score         DG    S(hbond)    S(metal)    S(lipo)     H(rot)  DE(clash)    DE(int)     intcor
     13.80     -15.66       2.72        0.00      80.78       3.27       0.78       1.08       ----

> <Gold.Chemscore.Fitness>
13.8033

> <Gold.Chemscore.DG>
-15.6619

> <Gold.Chemscore.ZeroCoef>
-5.4800

> <Gold.Chemscore.Hbond>
2.7215

> <Gold.Chemscore.Metal>
0.0000

> <Gold.Chemscore.Lipo>
80.7844

> <Gold.Chemscore.Internal_Hbond>
0.0000

> <Gold.Chemscore.DEClash>
0.7835

> <Gold.Chemscore.DEInternal>
1.0751

> <Gold.Chemscore.Rot>
3.2656

> <Gold.Chemscore.Internal.Correction>
   9.000000E+99

> <Gold.Chemscore.Hbonds>
donor molecule, donor type, donor heavy atom, donor atom, acceptor molecule, acceptor atom, score
      L1  H    19    41       P1 10175  0.96
      L1  H    21    43       P1  7957  0.89
      P1  H  7954  7966       L1    21  0.11
      P1  H  7997  8008       L1    26  0.27

> <Gold.Chemscore.Hbond.Weighted>
-9.0900

> <Gold.Chemscore.Metal.Weighted>
-0.0000

> <Gold.Chemscore.Lipo.Weighted>
-9.4518

> <Gold.Chemscore.Internal_Hbond.Weighted>
0.0000

> <Gold.Chemscore.DEClash.Weighted>
0.7835

> <Gold.Chemscore.DEInternal.Weighted>
1.0751

> <Gold.Chemscore.Rot.Weighted>
8.3598

> <Gold.Chemscore.Internal.Correction.Weighted>
   9.000000E+99

> <Gold.Protein.RotatedTorsions>
[ 6907 6896 6895 6894 ] final  170.16 input  -60.11 | X-H torsion
[ 7974 7965 7964 7962 ] final -108.00 input  175.53 | X-H torsion
[ 8008 7997 7996 7995 ] final  -28.17 input   59.86 | X-H torsion
[ 10167 10162 10161 10158 ] final  -78.17 input  -65.29 | X-H torsion
[ 10718 10713 10712 10709 ] final   30.46 input   66.30 | X-H torsion
[ 10763 10752 10751 10750 ] final    3.33 input  -60.55 | X-H torsion
[ 11005 11000 10999 10996 ] final -110.38 input  -57.11 | X-H torsion

> <Gold.Protein.ActiveResidues>
 VAL166  LYS551  ARG553  GLY616  TRP617  ASP618  TYR619  PRO620  LYS621  CYS622 
 ASP623  PHE694  ASN695  SER759  ASP760  ASP761  ALA762  ILE779  LEU786  VAL792 
 PHE793  MET794  SER795  GLU796  ALA797  LYS798  CYS799  TRP800  GLU811  SER814 

> <Gold.Protein.RotatedAtoms>
  151.8205  133.3394  159.3582 H   0  0  0  0  0  0  0  0  0  0  0  0  # atno 6907 bound_to 6896
  150.7296  134.5578  159.5836 H   0  0  0  0  0  0  0  0  0  0  0  0  # atno 6908 bound_to 6896
  152.3010  134.7612  160.0409 H   0  0  0  0  0  0  0  0  0  0  0  0  # atno 6909 bound_to 6896
  145.1983  140.9045  143.3384 H   0  0  0  0  0  0  0  0  0  0  0  0  # atno 7974 bound_to 7965
  154.4344  140.1852  156.1047 H   0  0  0  0  0  0  0  0  0  0  0  0  # atno 8008 bound_to 7997
  156.0265  140.3335  155.7068 H   0  0  0  0  0  0  0  0  0  0  0  0  # atno 8009 bound_to 7997
  155.5902  140.0630  157.2751 H   0  0  0  0  0  0  0  0  0  0  0  0  # atno 8010 bound_to 7997
  140.4705  143.2428  151.8212 H   0  0  0  0  0  0  0  0  0  0  0  0  # atno 10167 bound_to 10162
  157.2598  130.7156  149.6448 H   0  0  0  0  0  0  0  0  0  0  0  0  # atno 10718 bound_to 10713
  153.2847  135.6943  153.7351 H   0  0  0  0  0  0  0  0  0  0  0  0  # atno 10763 bound_to 10752
  153.6325  135.3407  155.3047 H   0  0  0  0  0  0  0  0  0  0  0  0  # atno 10764 bound_to 10752
  154.8506  135.4412  154.1911 H   0  0  0  0  0  0  0  0  0  0  0  0  # atno 10765 bound_to 10752
  141.0795  133.9244  157.2319 H   0  0  0  0  0  0  0  0  0  0  0  0  # atno 11005 bound_to 11000
  144.9973  139.3632  143.6185 LP  0  0  0  0  0  0  0  0  0  0  0  0  # atno 17320 bound_to 7965
  146.3423  139.9181  142.8770 LP  0  0  0  0  0  0  0  0  0  0  0  0  # atno 17321 bound_to 7965
  139.4818  144.4897  151.9201 LP  0  0  0  0  0  0  0  0  0  0  0  0  # atno 17342 bound_to 10162
  140.3982  144.2527  150.5894 LP  0  0  0  0  0  0  0  0  0  0  0  0  # atno 17343 bound_to 10162
  155.9664  130.4401  150.5286 LP  0  0  0  0  0  0  0  0  0  0  0  0  # atno 17370 bound_to 10713
  157.3188  131.0678  151.1947 LP  0  0  0  0  0  0  0  0  0  0  0  0  # atno 17371 bound_to 10713
  139.9608  135.0154  156.9255 LP  0  0  0  0  0  0  0  0  0  0  0  0  # atno 17394 bound_to 11000
  140.5500  134.0636  155.7366 LP  0  0  0  0  0  0  0  0  0  0  0  0  # atno 17395 bound_to 11000

$$$$
