AV-unprocessed.smi:541|AV-procd|sdf|2871|dock4
  -GOLD-   2262023363D 1   1.00000     0.00000
 Structure written by MMmdl.
 43 45  0  0  0  0  0  0  0  0  1 V2000
  146.8610  142.2798  154.1815 C   0  0  0  0  0  0  0  0  0  0  0  0
  147.8759  141.2322  153.7184 C   0  0  0  0  0  0  0  0  0  0  0  0
  149.1707  141.6296  154.1371 O   0  0  0  0  0  0  0  0  0  0  0  0
  149.3574  141.4972  155.5357 C   0  0  0  0  0  0  0  0  0  0  0  0
  150.7319  142.0705  155.9078 C   0  0  0  0  0  0  0  0  0  0  0  0
  151.4478  141.2037  156.8391 N   0  0  0  0  0  0  0  0  0  0  0  0
  152.0118  141.4827  158.0541 C   0  0  0  0  0  0  0  0  0  0  0  0
  152.0291  142.7497  158.6604 N   0  0  0  0  0  0  0  0  0  0  0  0
  152.1312  143.1499  160.0647 C   0  0  0  0  0  0  0  0  0  0  0  0
  151.7018  144.6089  160.1800 C   0  0  0  0  0  0  0  0  0  0  0  0
  152.1541  145.1686  158.8503 C   0  0  0  0  0  0  0  0  0  0  0  0
  151.8795  143.9984  157.9110 C   0  0  0  0  0  0  0  0  0  0  0  0
  152.5707  140.4204  158.6454 N   0  0  0  0  0  0  0  0  0  0  0  0
  152.3686  139.3931  157.7414 C   0  0  0  0  0  0  0  0  0  0  0  0
  151.7065  139.8428  156.6476 C   0  0  0  0  0  0  0  0  0  0  0  0
  151.3757  138.9626  155.5160 C   0  0  0  0  0  0  0  0  0  0  0  0
  150.7861  139.3431  154.5071 O   0  0  0  0  0  0  0  0  0  0  0  0
  151.7959  137.6863  155.6925 N   0  0  0  0  0  0  0  0  0  0  0  0
  152.4649  137.1724  156.7686 C   0  0  0  0  0  0  0  0  0  0  0  0
  152.7913  135.9855  156.7806 O   0  0  0  0  0  0  0  0  0  0  0  0
  152.7501  138.0226  157.8059 N   0  0  0  0  0  0  0  0  0  0  0  0
  153.4675  137.5306  158.9837 C   0  0  0  0  0  0  0  0  0  0  0  0
  151.5963  137.0420  154.9413 H   0  0  0  0  0  0  0  0  0  0  0  0
  145.8509  142.0040  153.8784 H   0  0  0  0  0  0  0  0  0  0  0  0
  147.0840  143.2573  153.7531 H   0  0  0  0  0  0  0  0  0  0  0  0
  146.8689  142.3792  155.2671 H   0  0  0  0  0  0  0  0  0  0  0  0
  147.6254  140.2593  154.1434 H   0  0  0  0  0  0  0  0  0  0  0  0
  147.8433  141.1374  152.6320 H   0  0  0  0  0  0  0  0  0  0  0  0
  148.5707  142.0323  156.0693 H   0  0  0  0  0  0  0  0  0  0  0  0
  149.2857  140.4481  155.8245 H   0  0  0  0  0  0  0  0  0  0  0  0
  151.3363  142.2615  155.0269 H   0  0  0  0  0  0  0  0  0  0  0  0
  150.6142  143.0540  156.3605 H   0  0  0  0  0  0  0  0  0  0  0  0
  151.5168  142.5267  160.7115 H   0  0  0  0  0  0  0  0  0  0  0  0
  153.1704  143.0533  160.3797 H   0  0  0  0  0  0  0  0  0  0  0  0
  150.6164  144.6765  160.2658 H   0  0  0  0  0  0  0  0  0  0  0  0
  152.1464  145.1183  161.0352 H   0  0  0  0  0  0  0  0  0  0  0  0
  151.6260  146.0787  158.5639 H   0  0  0  0  0  0  0  0  0  0  0  0
  153.2229  145.3857  158.8792 H   0  0  0  0  0  0  0  0  0  0  0  0
  152.5486  144.0225  157.0505 H   0  0  0  0  0  0  0  0  0  0  0  0
  150.8572  144.0512  157.5346 H   0  0  0  0  0  0  0  0  0  0  0  0
  153.0064  136.6209  159.3711 H   0  0  0  0  0  0  0  0  0  0  0  0
  153.4771  138.2545  159.7982 H   0  0  0  0  0  0  0  0  0  0  0  0
  154.5036  137.3058  158.7284 H   0  0  0  0  0  0  0  0  0  0  0  0
  1  2  1  0  0  0  0
  1 24  1  0  0  0  0
  1 25  1  0  0  0  0
  1 26  1  0  0  0  0
  2  3  1  0  0  0  0
  2 27  1  0  0  0  0
  2 28  1  0  0  0  0
  3  4  1  0  0  0  0
  4  5  1  0  0  0  0
  4 29  1  0  0  0  0
  4 30  1  0  0  0  0
  5  6  1  0  0  0  0
  5 31  1  0  0  0  0
  5 32  1  0  0  0  0
  6 15  1  0  0  0  0
  6  7  1  0  0  0  0
  7  8  1  0  0  0  0
  7 13  2  0  0  0  0
  8 12  1  0  0  0  0
  8  9  1  0  0  0  0
  9 10  1  0  0  0  0
  9 33  1  0  0  0  0
  9 34  1  0  0  0  0
 10 11  1  0  0  0  0
 10 35  1  0  0  0  0
 10 36  1  0  0  0  0
 11 12  1  0  0  0  0
 11 37  1  0  0  0  0
 11 38  1  0  0  0  0
 12 39  1  0  0  0  0
 12 40  1  0  0  0  0
 13 14  1  0  0  0  0
 14 21  1  0  0  0  0
 14 15  2  0  0  0  0
 15 16  1  0  0  0  0
 16 17  2  0  0  0  0
 16 18  1  0  0  0  0
 18 23  1  0  0  0  0
 18 19  1  0  0  0  0
 19 20  2  0  0  0  0
 19 21  1  0  0  0  0
 21 22  1  0  0  0  0
 22 41  1  0  0  0  0
 22 42  1  0  0  0  0
 22 43  1  0  0  0  0
M  END
> <s_m_source_file>
AV-unprocessed.smi

> <i_m_source_file_index>
541

> <i_lp_mmshare_version>
43012

> <i_f3d_flags>
0

> <s_epik_input>
W0NIM11uMWMoPU8pW25IXWMoPU8pYyhjMTIpbihbQ0gyXVtDSDJdT1tDSDJdW0NIM10pYyhuMilOM1tDSDJdW0NIMl1bQ0gyXVtDSDJdMw==

> <s_epik_cmdline>
J2VwaWtfcHl0aG9uJywgJy1waCcsICc3LjAnLCAnLXRuJywgJzgnLCAnLW1hJywgJzIwMCcsICctbWV0YWxfYmluZGluZycsICctaW1hZScsICc8aW5maWxlLm1hZT4nLCAnLW9tYWUnLCAnPG91dGZpbGUubWFlPic=

> <r_lp_tautomer_probability>
1

> <r_epik_Ionization_Penalty>
0.00016913

> <r_epik_Ionization_Penalty_Charging>
2.12732e-05

> <r_epik_Ionization_Penalty_Neutral>
0.000147857

> <r_epik_State_Penalty>
-0

> <r_epik_Charging_Adjusted_Penalty>
2.12732e-05

> <i_epik_Tot_Q>
0

> <i_epik_Tot_abs_Q>
0

> <r_epik_Metal_State_Penalty>
0.0201837

> <b_epik_Metal_Only>
0

> <s_lp_Force_Field>
OPLS_2005

> <r_lp_Energy>
45.5158

> <b_lp_Chiralities_Consistent>
1

> <s_lp_Variant>
AV-unprocessed.smi:541-1

> <Gold.Version>
5.8.1

> <Gold.Id.Protein>
6NUR|6NUR_protein|mol2

> <Gold.PLP.Fitness>
51.4117

> <Gold.PLP.PLP>
-45.1342

> <Gold.PLP.part.hbond>
-3.8169

> <Gold.PLP.part.metal>
0.0000

> <Gold.PLP.part.buried>
-6.6536

> <Gold.PLP.part.nonpolar>
-35.6779

> <Gold.PLP.part.repulsive>
0.4289

> <Gold.PLP.ligand.clash>
0.0000

> <Gold.PLP.ligand.torsion>
0.6383

> <Gold.PLP.Chemscore.Hbond>
2.5123

> <Gold.PLP.Chemscore.CHOScore>
0.0000

> <Gold.PLP.Chemscore.Metal>
0.0000

> <Gold.Chemscore.Hbonds>
donor molecule, donor type, donor heavy atom, donor atom, acceptor molecule, acceptor atom, score
      P1  H  7989  7998       L1    17  1.00
      P1  H  8011  8017       L1     3  0.47
      P1  H 10752 10763       L1    20  1.00

> <Gold.PLP.Chemscore.Internal.Correction>
0.0173

> <Gold.Rescore>
     Score         DG    S(hbond)    S(metal)    S(lipo)     H(rot)  DE(clash)    DE(int)     intcor
     15.04     -17.93       1.93        0.00      87.92       1.67       0.15       2.74       ----

> <Gold.Chemscore.Fitness>
15.0407

> <Gold.Chemscore.DG>
-17.9326

> <Gold.Chemscore.ZeroCoef>
-5.4800

> <Gold.Chemscore.Hbond>
1.9266

> <Gold.Chemscore.Metal>
0.0000

> <Gold.Chemscore.Lipo>
87.9192

> <Gold.Chemscore.Internal_Hbond>
0.0000

> <Gold.Chemscore.DEClash>
0.1486

> <Gold.Chemscore.DEInternal>
2.7434

> <Gold.Chemscore.Rot>
1.6675

> <Gold.Chemscore.Internal.Correction>
   9.000000E+99

> <Gold.Chemscore.Hbonds>
donor molecule, donor type, donor heavy atom, donor atom, acceptor molecule, acceptor atom, score
      P1  H  7989  7998       L1    17  0.90
      P1  H  8011  8017       L1     3  0.08
      P1  H 10752 10763       L1    20  0.72

> <Gold.Chemscore.Hbond.Weighted>
-6.4350

> <Gold.Chemscore.Metal.Weighted>
-0.0000

> <Gold.Chemscore.Lipo.Weighted>
-10.2866

> <Gold.Chemscore.Internal_Hbond.Weighted>
0.0000

> <Gold.Chemscore.DEClash.Weighted>
0.1486

> <Gold.Chemscore.DEInternal.Weighted>
2.7434

> <Gold.Chemscore.Rot.Weighted>
4.2689

> <Gold.Chemscore.Internal.Correction.Weighted>
   9.000000E+99

> <Gold.Protein.RotatedTorsions>
[ 6907 6896 6895 6894 ] final   28.13 input  -60.11 | X-H torsion
[ 7974 7965 7964 7962 ] final  -55.79 input  175.53 | X-H torsion
[ 8008 7997 7996 7995 ] final   23.33 input   59.86 | X-H torsion
[ 10167 10162 10161 10158 ] final   74.83 input  -65.29 | X-H torsion
[ 10718 10713 10712 10709 ] final  -50.77 input   66.30 | X-H torsion
[ 10763 10752 10751 10750 ] final   93.29 input  -60.55 | X-H torsion
[ 11005 11000 10999 10996 ] final  144.37 input  -57.11 | X-H torsion

> <Gold.Protein.ActiveResidues>
 VAL166  LYS551  ARG553  GLY616  TRP617  ASP618  TYR619  PRO620  LYS621  CYS622 
 ASP623  PHE694  ASN695  SER759  ASP760  ASP761  ALA762  ILE779  LEU786  VAL792 
 PHE793  MET794  SER795  GLU796  ALA797  LYS798  CYS799  TRP800  GLU811  SER814 

> <Gold.Protein.RotatedAtoms>
  152.0124  134.9869  160.0568 H   0  0  0  0  0  0  0  0  0  0  0  0  # atno 6907 bound_to 6896
  152.1416  133.4462  159.4778 H   0  0  0  0  0  0  0  0  0  0  0  0  # atno 6908 bound_to 6896
  150.6865  134.2217  159.4442 H   0  0  0  0  0  0  0  0  0  0  0  0  # atno 6909 bound_to 6896
  145.8702  140.8222  142.9892 H   0  0  0  0  0  0  0  0  0  0  0  0  # atno 7974 bound_to 7965
  154.9793  140.3100  155.4953 H   0  0  0  0  0  0  0  0  0  0  0  0  # atno 8008 bound_to 7997
  156.2955  140.2269  156.4831 H   0  0  0  0  0  0  0  0  0  0  0  0  # atno 8009 bound_to 7997
  154.7804  140.0446  157.1111 H   0  0  0  0  0  0  0  0  0  0  0  0  # atno 8010 bound_to 7997
  140.0095  144.5625  150.7670 H   0  0  0  0  0  0  0  0  0  0  0  0  # atno 10167 bound_to 10162
  156.1771  130.4150  149.9562 H   0  0  0  0  0  0  0  0  0  0  0  0  # atno 10718 bound_to 10713
  153.2286  135.4331  155.0570 H   0  0  0  0  0  0  0  0  0  0  0  0  # atno 10763 bound_to 10752
  154.8286  135.3374  154.6821 H   0  0  0  0  0  0  0  0  0  0  0  0  # atno 10764 bound_to 10752
  153.7249  135.7014  153.5060 H   0  0  0  0  0  0  0  0  0  0  0  0  # atno 10765 bound_to 10752
  140.0627  134.9196  157.1211 H   0  0  0  0  0  0  0  0  0  0  0  0  # atno 11005 bound_to 11000
  144.6726  140.1227  143.7449 LP  0  0  0  0  0  0  0  0  0  0  0  0  # atno 17320 bound_to 7965
  145.9146  139.2508  143.1417 LP  0  0  0  0  0  0  0  0  0  0  0  0  # atno 17321 bound_to 7965
  140.7387  143.2781  151.3679 LP  0  0  0  0  0  0  0  0  0  0  0  0  # atno 17342 bound_to 10162
  139.6215  144.0898  152.2395 LP  0  0  0  0  0  0  0  0  0  0  0  0  # atno 17343 bound_to 10162
  156.7344  130.9055  151.3628 LP  0  0  0  0  0  0  0  0  0  0  0  0  # atno 17370 bound_to 10713
  157.6843  130.9170  150.0345 LP  0  0  0  0  0  0  0  0  0  0  0  0  # atno 17371 bound_to 10713
  140.3746  134.2353  155.7175 LP  0  0  0  0  0  0  0  0  0  0  0  0  # atno 17394 bound_to 11000
  141.1980  133.8046  157.0604 LP  0  0  0  0  0  0  0  0  0  0  0  0  # atno 17395 bound_to 11000

$$$$
