AV-unprocessed.smi:3034|AV-procd|sdf|11580|dock6
  -GOLD-   2272016553D 1   1.00000     0.00000
 Structure written by MMmdl.
 31 31  0  0  0  0  0  0  0  0  2 V2000
  148.8799  137.9036  154.8329 C   0  0  0  0  0  0  0  0  0  0  0  0
  150.0511  137.0270  155.2888 C   0  0  0  0  0  0  0  0  0  0  0  0
  151.4039  137.5481  154.7869 C   0  0  0  0  0  0  0  0  0  0  0  0
  151.5935  139.3554  155.1324 S   0  0  0  0  0  0  0  0  0  0  0  0
  152.9942  139.6902  154.8240 O   0  0  0  0  0  0  0  0  0  0  0  0
  150.5672  140.0121  154.3086 O   0  0  0  0  0  0  0  0  0  0  0  0
  151.2221  139.4460  156.7122 N   0  5  0  0  0  0  0  0  0  0  0  0
  150.1096  140.2623  157.1826 C   0  0  0  0  0  0  0  0  0  0  0  0
  150.3965  141.7656  156.9359 C   0  0  1  0  0  0  0  0  0  0  0  0
  149.1594  142.4531  156.9209 O   0  0  0  0  0  0  0  0  0  0  0  0
  151.3924  142.3950  157.9168 C   0  0  0  0  0  0  0  0  0  0  0  0
  151.6944  143.7741  157.8370 C   0  0  0  0  0  0  0  0  0  0  0  0
  152.6068  144.3241  158.7573 C   0  0  0  0  0  0  0  0  0  0  0  0
  153.1787  143.4832  159.7304 C   0  0  0  0  0  0  0  0  0  0  0  0
  152.8116  142.1235  159.7383 C   0  0  0  0  0  0  0  0  0  0  0  0
  151.9382  141.5860  158.8604 N   0  0  0  0  0  0  0  0  0  0  0  0
  147.9341  137.5139  155.2096 H   0  0  0  0  0  0  0  0  0  0  0  0
  148.8160  137.9397  153.7450 H   0  0  0  0  0  0  0  0  0  0  0  0
  148.9880  138.9254  155.1974 H   0  0  0  0  0  0  0  0  0  0  0  0
  150.0616  136.9768  156.3779 H   0  0  0  0  0  0  0  0  0  0  0  0
  149.8960  136.0077  154.9342 H   0  0  0  0  0  0  0  0  0  0  0  0
  152.2241  137.0238  155.2771 H   0  0  0  0  0  0  0  0  0  0  0  0
  151.4972  137.3869  153.7133 H   0  0  0  0  0  0  0  0  0  0  0  0
  149.1894  139.9968  156.6602 H   0  0  0  0  0  0  0  0  0  0  0  0
  149.9048  140.0964  158.2410 H   0  0  0  0  0  0  0  0  0  0  0  0
  150.8060  141.8776  155.9307 H   0  0  0  0  0  0  0  0  0  0  0  0
  149.2524  143.2164  156.3726 H   0  0  0  0  0  0  0  0  0  0  0  0
  151.2435  144.3954  157.0772 H   0  0  0  0  0  0  0  0  0  0  0  0
  152.8630  145.3725  158.7170 H   0  0  0  0  0  0  0  0  0  0  0  0
  153.8820  143.8702  160.4526 H   0  0  0  0  0  0  0  0  0  0  0  0
  153.2294  141.4495  160.4713 H   0  0  0  0  0  0  0  0  0  0  0  0
  1  2  1  0  0  0  0
  1 17  1  0  0  0  0
  1 18  1  0  0  0  0
  1 19  1  0  0  0  0
  2  3  1  0  0  0  0
  2 20  1  0  0  0  0
  2 21  1  0  0  0  0
  3  4  1  0  0  0  0
  3 22  1  0  0  0  0
  3 23  1  0  0  0  0
  4  5  2  0  0  0  0
  4  6  2  0  0  0  0
  4  7  1  0  0  0  0
  7  8  1  0  0  0  0
  8  9  1  0  0  0  0
  8 24  1  0  0  0  0
  8 25  1  0  0  0  0
  9 10  1  0  0  0  0
  9 11  1  0  0  0  0
  9 26  1  0  0  0  0
 10 27  1  0  0  0  0
 11 16  1  0  0  0  0
 11 12  2  0  0  0  0
 12 13  1  0  0  0  0
 12 28  1  0  0  0  0
 13 14  2  0  0  0  0
 13 29  1  0  0  0  0
 14 15  1  0  0  0  0
 14 30  1  0  0  0  0
 15 16  2  0  0  0  0
 15 31  1  0  0  0  0
M  CHG  1   7  -1
M  END
> <s_m_source_file>
AV-unprocessed.smi

> <i_m_source_file_index>
3034

> <i_lp_mmshare_version>
43012

> <i_f3d_flags>
0

> <s_epik_input>
W0NIM11bQ0gyXVtDSDJdUyg9TykoPU8pW05IXVtDSDJdW0NASF0oW09IXSljMVtjSF1bY0hdW2NIXVtjSF1uMQ==

> <s_epik_cmdline>
J2VwaWtfcHl0aG9uJywgJy1waCcsICc3LjAnLCAnLXRuJywgJzgnLCAnLW1hJywgJzIwMCcsICctbWV0YWxfYmluZGluZycsICctaW1hZScsICc8aW5maWxlLm1hZT4nLCAnLW9tYWUnLCAnPG91dGZpbGUubWFlPic=

> <r_epik_Ionization_Penalty>
6.18156

> <r_epik_Ionization_Penalty_Charging>
6.17474

> <r_epik_Ionization_Penalty_Neutral>
0.0068235

> <r_epik_State_Penalty>
6.17598

> <r_epik_Charging_Adjusted_Penalty>
12.3507

> <i_epik_Tot_Q>
-1

> <i_epik_Tot_abs_Q>
1

> <r_epik_Metal_State_Penalty>
2.11803

> <b_epik_Metal_Only>
1

> <s_lp_Force_Field>
OPLS_2005

> <r_lp_Energy>
1.09161

> <b_lp_Chiralities_Consistent>
1

> <s_lp_Variant>
AV-unprocessed.smi:3034-4

> <Gold.Version>
5.8.1

> <Gold.Id.Protein>
6NUR|6NUR_protein|mol2

> <Gold.PLP.Fitness>
42.4954

> <Gold.PLP.PLP>
-34.2205

> <Gold.PLP.part.hbond>
-3.8334

> <Gold.PLP.part.metal>
0.0000

> <Gold.PLP.part.buried>
-5.2016

> <Gold.PLP.part.nonpolar>
-26.5525

> <Gold.PLP.part.repulsive>
0.1320

> <Gold.PLP.ligand.clash>
0.0000

> <Gold.PLP.ligand.torsion>
0.8928

> <Gold.PLP.Chemscore.Hbond>
3.0000

> <Gold.PLP.Chemscore.CHOScore>
0.0000

> <Gold.PLP.Chemscore.Metal>
0.0000

> <Gold.Chemscore.Hbonds>
donor molecule, donor type, donor heavy atom, donor atom, acceptor molecule, acceptor atom, score
      L1  H    10    27       P1  8028  1.00
      P1  H  7989  7998       L1     6  0.70
      P1  H  7997  8010       L1     5  0.94

> <Gold.PLP.Chemscore.Internal.Correction>
1.0604

> <Gold.Rescore>
     Score         DG    S(hbond)    S(metal)    S(lipo)     H(rot)  DE(clash)    DE(int)     intcor
     15.79     -18.21       2.83        0.00      78.17       2.29       0.00       2.42       ----

> <Gold.Chemscore.Fitness>
15.7937

> <Gold.Chemscore.DG>
-18.2142

> <Gold.Chemscore.ZeroCoef>
-5.4800

> <Gold.Chemscore.Hbond>
2.8292

> <Gold.Chemscore.Metal>
0.0000

> <Gold.Chemscore.Lipo>
78.1698

> <Gold.Chemscore.Internal_Hbond>
0.0000

> <Gold.Chemscore.DEClash>
0.0000

> <Gold.Chemscore.DEInternal>
2.4206

> <Gold.Chemscore.Rot>
2.2895

> <Gold.Chemscore.Internal.Correction>
   9.000000E+99

> <Gold.Chemscore.Hbonds>
donor molecule, donor type, donor heavy atom, donor atom, acceptor molecule, acceptor atom, score
      L1  H    10    27       P1  8028  0.99
      P1  H  7989  7998       L1     6  0.07
      P1  H  7997  8010       L1     5  0.88

> <Gold.Chemscore.Hbond.Weighted>
-9.4496

> <Gold.Chemscore.Metal.Weighted>
-0.0000

> <Gold.Chemscore.Lipo.Weighted>
-9.1459

> <Gold.Chemscore.Internal_Hbond.Weighted>
0.0000

> <Gold.Chemscore.DEClash.Weighted>
0.0000

> <Gold.Chemscore.DEInternal.Weighted>
2.4206

> <Gold.Chemscore.Rot.Weighted>
5.8612

> <Gold.Chemscore.Internal.Correction.Weighted>
   9.000000E+99

> <Gold.Protein.RotatedTorsions>
[ 6907 6896 6895 6894 ] final  173.95 input  -60.11 | X-H torsion
[ 7974 7965 7964 7962 ] final -171.83 input  175.53 | X-H torsion
[ 8008 7997 7996 7995 ] final   83.98 input   59.86 | X-H torsion
[ 10167 10162 10161 10158 ] final  -71.78 input  -65.29 | X-H torsion
[ 10718 10713 10712 10709 ] final -133.15 input   66.30 | X-H torsion
[ 10763 10752 10751 10750 ] final   15.14 input  -60.55 | X-H torsion
[ 11005 11000 10999 10996 ] final -112.99 input  -57.11 | X-H torsion

> <Gold.Protein.ActiveResidues>
 VAL166  LYS551  ARG553  GLY616  TRP617  ASP618  TYR619  PRO620  LYS621  CYS622 
 ASP623  PHE694  ASN695  SER759  ASP760  ASP761  ALA762  ILE779  LEU786  VAL792 
 PHE793  MET794  SER795  GLU796  ALA797  LYS798  CYS799  TRP800  GLU811  SER814 

> <Gold.Protein.RotatedAtoms>
  151.7601  133.3333  159.3415 H   0  0  0  0  0  0  0  0  0  0  0  0  # atno 6907 bound_to 6896
  150.7501  134.6114  159.6097 H   0  0  0  0  0  0  0  0  0  0  0  0  # atno 6908 bound_to 6896
  152.3411  134.7135  160.0315 H   0  0  0  0  0  0  0  0  0  0  0  0  # atno 6909 bound_to 6896
  144.7152  140.1863  143.6353 H   0  0  0  0  0  0  0  0  0  0  0  0  # atno 7974 bound_to 7965
  155.9311  140.3415  155.6250 H   0  0  0  0  0  0  0  0  0  0  0  0  # atno 8008 bound_to 7997
  155.7156  140.0777  157.2371 H   0  0  0  0  0  0  0  0  0  0  0  0  # atno 8009 bound_to 7997
  154.4085  140.1615  156.2332 H   0  0  0  0  0  0  0  0  0  0  0  0  # atno 8010 bound_to 7997
  140.5245  143.2328  151.7372 H   0  0  0  0  0  0  0  0  0  0  0  0  # atno 10167 bound_to 10162
  156.2419  130.7101  151.0965 H   0  0  0  0  0  0  0  0  0  0  0  0  # atno 10718 bound_to 10713
  153.1554  135.6786  153.8820 H   0  0  0  0  0  0  0  0  0  0  0  0  # atno 10763 bound_to 10752
  153.8233  135.3127  155.3413 H   0  0  0  0  0  0  0  0  0  0  0  0  # atno 10764 bound_to 10752
  154.7893  135.4844  154.0105 H   0  0  0  0  0  0  0  0  0  0  0  0  # atno 10765 bound_to 10752
  141.0641  133.9487  157.2611 H   0  0  0  0  0  0  0  0  0  0  0  0  # atno 11005 bound_to 11000
  145.8809  139.2323  143.1605 LP  0  0  0  0  0  0  0  0  0  0  0  0  # atno 17320 bound_to 7965
  145.9995  140.8532  143.0025 LP  0  0  0  0  0  0  0  0  0  0  0  0  # atno 17321 bound_to 7965
  139.4934  144.4206  151.9982 LP  0  0  0  0  0  0  0  0  0  0  0  0  # atno 17342 bound_to 10162
  140.3304  144.3322  150.5988 LP  0  0  0  0  0  0  0  0  0  0  0  0  # atno 17343 bound_to 10162
  157.7179  131.0699  150.6255 LP  0  0  0  0  0  0  0  0  0  0  0  0  # atno 17370 bound_to 10713
  156.6329  130.4437  149.5780 LP  0  0  0  0  0  0  0  0  0  0  0  0  # atno 17371 bound_to 10713
  139.9460  135.0184  156.8853 LP  0  0  0  0  0  0  0  0  0  0  0  0  # atno 17394 bound_to 11000
  140.5808  134.0354  155.7463 LP  0  0  0  0  0  0  0  0  0  0  0  0  # atno 17395 bound_to 11000

$$$$
