AV-unprocessed.smi:167|AV-procd|sdf|1394|dock2
  -GOLD-   2262019133D 1   1.00000     0.00000
 Structure written by MMmdl.
 51 55  0  0  0  0  0  0  0  0  1 V2000
  144.1001  142.3689  154.8362 O   0  0  0  0  0  0  0  0  0  0  0  0
  145.0833  142.1196  155.8180 C   0  0  0  0  0  0  0  0  0  0  0  0
  145.8202  140.8031  155.5100 C   0  0  2  0  0  0  0  0  0  0  0  0
  146.8413  140.3686  156.5775 C   0  0  0  0  0  0  0  0  0  0  0  0
  148.0853  140.0740  155.7108 C   0  0  2  0  0  0  0  0  0  0  0  0
  148.7280  141.4090  155.3014 C   0  0  0  0  0  0  0  0  0  0  0  0
  147.7468  141.8920  154.2237 C   0  0  0  0  0  0  0  0  0  0  0  0
  146.6989  140.7618  154.2333 C   0  0  1  0  0  0  0  0  0  0  0  0
  147.5384  139.5918  154.4484 N   0  0  0  0  0  0  0  0  0  0  0  0
  147.0238  138.3338  154.3539 C   0  0  0  0  0  0  0  0  0  0  0  0
  147.0396  137.5382  155.4567 N   0  0  0  0  0  0  0  0  0  0  0  0
  146.5417  136.2999  155.4097 C   0  0  0  0  0  0  0  0  0  0  0  0
  145.9962  135.6597  154.3752 N   0  0  0  0  0  0  0  0  0  0  0  0
  145.9945  136.4407  153.2579 C   0  0  0  0  0  0  0  0  0  0  0  0
  146.4821  137.7761  153.1580 C   0  0  0  0  0  0  0  0  0  0  0  0
  146.3060  138.2370  151.8581 N   0  0  0  0  0  0  0  0  0  0  0  0
  145.7328  137.2445  151.2350 C   0  0  0  0  0  0  0  0  0  0  0  0
  145.5316  136.1156  151.9953 N   0  0  0  0  0  0  0  0  0  0  0  0
  144.9010  134.8949  151.5855 C   0  0  0  0  0  0  0  0  0  0  0  0
  145.6126  133.5502  151.7594 C   0  0  0  0  0  0  0  0  0  0  0  0
  144.9074  133.0266  150.4860 C   0  0  0  0  0  0  0  0  0  0  0  0
  145.7367  132.1494  149.5272 C   0  0  0  0  0  0  0  0  0  0  0  0
  147.0860  132.5618  149.4418 O   0  0  0  0  0  0  0  0  0  0  0  0
  143.5691  132.3007  150.7218 C   0  0  0  0  0  0  0  0  0  0  0  0
  142.8711  132.0928  149.5108 O   0  0  0  0  0  0  0  0  0  0  0  0
  144.7587  134.5184  150.1064 C   0  0  0  0  0  0  0  0  0  0  0  0
  143.9573  141.5742  154.3450 H   0  0  0  0  0  0  0  0  0  0  0  0
  145.7646  142.9672  155.8802 H   0  0  0  0  0  0  0  0  0  0  0  0
  144.5892  142.0482  156.7872 H   0  0  0  0  0  0  0  0  0  0  0  0
  145.0653  140.0192  155.4255 H   0  0  0  0  0  0  0  0  0  0  0  0
  147.0332  141.1345  157.3301 H   0  0  0  0  0  0  0  0  0  0  0  0
  146.4963  139.4724  157.0947 H   0  0  0  0  0  0  0  0  0  0  0  0
  148.7987  139.4033  156.1912 H   0  0  0  0  0  0  0  0  0  0  0  0
  148.8228  142.1062  156.1346 H   0  0  0  0  0  0  0  0  0  0  0  0
  149.7193  141.2518  154.8744 H   0  0  0  0  0  0  0  0  0  0  0  0
  147.3375  142.8814  154.4214 H   0  0  0  0  0  0  0  0  0  0  0  0
  148.2468  141.9354  153.2552 H   0  0  0  0  0  0  0  0  0  0  0  0
  146.1150  140.7544  153.3151 H   0  0  0  0  0  0  0  0  0  0  0  0
  146.5892  135.7412  156.3330 H   0  0  0  0  0  0  0  0  0  0  0  0
  145.4477  137.3110  150.1951 H   0  0  0  0  0  0  0  0  0  0  0  0
  143.9292  134.8805  152.0815 H   0  0  0  0  0  0  0  0  0  0  0  0
  146.6950  133.6416  151.6544 H   0  0  0  0  0  0  0  0  0  0  0  0
  145.3585  133.0255  152.6807 H   0  0  0  0  0  0  0  0  0  0  0  0
  145.7336  131.1071  149.8468 H   0  0  0  0  0  0  0  0  0  0  0  0
  145.3171  132.1707  148.5209 H   0  0  0  0  0  0  0  0  0  0  0  0
  147.6378  131.7964  149.4971 H   0  0  0  0  0  0  0  0  0  0  0  0
  143.7209  131.3277  151.1895 H   0  0  0  0  0  0  0  0  0  0  0  0
  142.9303  132.8674  151.4000 H   0  0  0  0  0  0  0  0  0  0  0  0
  142.2493  132.7959  149.3988 H   0  0  0  0  0  0  0  0  0  0  0  0
  143.7974  134.7857  149.6664 H   0  0  0  0  0  0  0  0  0  0  0  0
  145.5807  134.9004  149.4992 H   0  0  0  0  0  0  0  0  0  0  0  0
  1  2  1  0  0  0  0
  1 27  1  0  0  0  0
  2  3  1  0  0  0  0
  2 28  1  0  0  0  0
  2 29  1  0  0  0  0
  3  8  1  0  0  0  0
  3  4  1  0  0  0  0
  3 30  1  0  0  0  0
  4  5  1  0  0  0  0
  4 31  1  0  0  0  0
  4 32  1  0  0  0  0
  5  9  1  0  0  0  0
  5  6  1  0  0  0  0
  5 33  1  0  0  0  0
  6  7  1  0  0  0  0
  6 34  1  0  0  0  0
  6 35  1  0  0  0  0
  7  8  1  0  0  0  0
  7 36  1  0  0  0  0
  7 37  1  0  0  0  0
  8  9  1  0  0  0  0
  8 38  1  0  0  0  0
  9 10  1  0  0  0  0
 10 15  1  0  0  0  0
 10 11  2  0  0  0  0
 11 12  1  0  0  0  0
 12 13  2  0  0  0  0
 12 39  1  0  0  0  0
 13 14  1  0  0  0  0
 14 18  1  0  0  0  0
 14 15  2  0  0  0  0
 15 16  1  0  0  0  0
 16 17  2  0  0  0  0
 17 18  1  0  0  0  0
 17 40  1  0  0  0  0
 18 19  1  0  0  0  0
 19 26  1  0  0  0  0
 19 20  1  0  0  0  0
 19 41  1  0  0  0  0
 20 21  1  0  0  0  0
 20 42  1  0  0  0  0
 20 43  1  0  0  0  0
 21 22  1  0  0  0  0
 21 24  1  0  0  0  0
 21 26  1  0  0  0  0
 22 23  1  0  0  0  0
 22 44  1  0  0  0  0
 22 45  1  0  0  0  0
 23 46  1  0  0  0  0
 24 25  1  0  0  0  0
 24 47  1  0  0  0  0
 24 48  1  0  0  0  0
 25 49  1  0  0  0  0
 26 50  1  0  0  0  0
 26 51  1  0  0  0  0
M  END
> <s_m_source_file>
AV-unprocessed.smi

> <i_m_source_file_index>
167

> <i_lp_mmshare_version>
43012

> <i_f3d_flags>
0

> <s_epik_input>
W09IXVtDSDJdW0NASF0oW0NIMl1bQ0BASF0xMilbQ0BIXShbQ0gyXVtDSDJdMSlOMmMobltjSF1uMyljKGMzNCluW2NIXW40W0NIXShbQ0gyXTUpW0NIMl1DNShbQ0gyXVtPSF0pW0NIMl1bT0hd

> <s_epik_cmdline>
J2VwaWtfcHl0aG9uJywgJy1waCcsICc3LjAnLCAnLXRuJywgJzgnLCAnLW1hJywgJzIwMCcsICctbWV0YWxfYmluZGluZycsICctaW1hZScsICc8aW5maWxlLm1hZT4nLCAnLW9tYWUnLCAnPG91dGZpbGUubWFlPic=

> <r_lp_tautomer_probability>
1

> <r_epik_Ionization_Penalty>
0.0047903

> <r_epik_Ionization_Penalty_Charging>
0

> <r_epik_Ionization_Penalty_Neutral>
0.0047903

> <r_epik_State_Penalty>
0.00341021

> <r_epik_Charging_Adjusted_Penalty>
0.00341021

> <i_epik_Tot_Q>
0

> <i_epik_Tot_abs_Q>
0

> <r_epik_Metal_State_Penalty>
-0

> <b_epik_Metal_Only>
0

> <s_lp_Force_Field>
OPLS_2005

> <r_lp_Energy>
89.3367

> <b_lp_Chiralities_Consistent>
1

> <s_lp_Variant>
AV-unprocessed.smi:167-3

> <Gold.Version>
5.8.1

> <Gold.Id.Protein>
6NUR|6NUR_protein|mol2

> <Gold.PLP.Fitness>
46.7552

> <Gold.PLP.PLP>
-34.7112

> <Gold.PLP.part.hbond>
-7.4349

> <Gold.PLP.part.metal>
0.0000

> <Gold.PLP.part.buried>
0.4937

> <Gold.PLP.part.nonpolar>
-29.8501

> <Gold.PLP.part.repulsive>
0.5315

> <Gold.PLP.ligand.clash>
0.0000

> <Gold.PLP.ligand.torsion>
0.5247

> <Gold.PLP.Chemscore.Hbond>
3.5285

> <Gold.PLP.Chemscore.CHOScore>
0.6642

> <Gold.PLP.Chemscore.Metal>
0.0000

> <Gold.Chemscore.Hbonds>
donor molecule, donor type, donor heavy atom, donor atom, acceptor molecule, acceptor atom, score
      L1  H     1    27       P1 10175  0.69
      L1  H    23    46       P1 10747  1.00
      L1  H    25    49       P1 10186  0.98
      P1  H 10785 10796       L1    25  0.78
      L1  C    17    40       P1 10171  0.72

> <Gold.PLP.Chemscore.Internal.Correction>
0.5151

> <Gold.Rescore>
     Score         DG    S(hbond)    S(metal)    S(lipo)     H(rot)  DE(clash)    DE(int)     intcor
      9.45     -12.11       2.64        0.00      73.25       4.20       1.38       1.28       ----

> <Gold.Chemscore.Fitness>
9.4549

> <Gold.Chemscore.DG>
-12.1124

> <Gold.Chemscore.ZeroCoef>
-5.4800

> <Gold.Chemscore.Hbond>
2.6419

> <Gold.Chemscore.Metal>
0.0000

> <Gold.Chemscore.Lipo>
73.2487

> <Gold.Chemscore.Internal_Hbond>
0.0000

> <Gold.Chemscore.DEClash>
1.3790

> <Gold.Chemscore.DEInternal>
1.2785

> <Gold.Chemscore.Rot>
4.2038

> <Gold.Chemscore.Internal.Correction>
   9.000000E+99

> <Gold.Chemscore.Hbonds>
donor molecule, donor type, donor heavy atom, donor atom, acceptor molecule, acceptor atom, score
      L1  H     1    27       P1 10175  0.15
      L1  H    23    46       P1 10747  0.96
      L1  H    25    49       P1 10186  0.91
      P1  H 10785 10796       L1    25  0.63

> <Gold.Chemscore.Hbond.Weighted>
-8.8239

> <Gold.Chemscore.Metal.Weighted>
-0.0000

> <Gold.Chemscore.Lipo.Weighted>
-8.5701

> <Gold.Chemscore.Internal_Hbond.Weighted>
0.0000

> <Gold.Chemscore.DEClash.Weighted>
1.3790

> <Gold.Chemscore.DEInternal.Weighted>
1.2785

> <Gold.Chemscore.Rot.Weighted>
10.7617

> <Gold.Chemscore.Internal.Correction.Weighted>
   9.000000E+99

> <Gold.Protein.RotatedTorsions>
[ 6907 6896 6895 6894 ] final -110.23 input  -60.11 | X-H torsion
[ 7974 7965 7964 7962 ] final   89.96 input  175.53 | X-H torsion
[ 8008 7997 7996 7995 ] final   18.40 input   59.86 | X-H torsion
[ 10167 10162 10161 10158 ] final -136.76 input  -65.29 | X-H torsion
[ 10718 10713 10712 10709 ] final  156.84 input   66.30 | X-H torsion
[ 10763 10752 10751 10750 ] final -159.90 input  -60.55 | X-H torsion
[ 11005 11000 10999 10996 ] final  135.22 input  -57.11 | X-H torsion

> <Gold.Protein.ActiveResidues>
 VAL166  LYS551  ARG553  GLY616  TRP617  ASP618  TYR619  PRO620  LYS621  CYS622 
 ASP623  PHE694  ASN695  SER759  ASP760  ASP761  ALA762  ILE779  LEU786  VAL792 
 PHE793  MET794  SER795  GLU796  ALA797  LYS798  CYS799  TRP800  GLU811  SER814 

> <Gold.Protein.RotatedAtoms>
  150.7612  133.9412  159.3456 H   0  0  0  0  0  0  0  0  0  0  0  0  # atno 6907 bound_to 6896
  151.7320  135.0871  160.0311 H   0  0  0  0  0  0  0  0  0  0  0  0  # atno 6908 bound_to 6896
  152.3583  133.6228  159.6032 H   0  0  0  0  0  0  0  0  0  0  0  0  # atno 6909 bound_to 6896
  145.5253  139.2281  143.2649 H   0  0  0  0  0  0  0  0  0  0  0  0  # atno 7974 bound_to 7965
  154.9055  140.3006  155.5294 H   0  0  0  0  0  0  0  0  0  0  0  0  # atno 8008 bound_to 7997
  156.3017  140.2399  156.4023 H   0  0  0  0  0  0  0  0  0  0  0  0  # atno 8009 bound_to 7997
  154.8478  140.0411  157.1573 H   0  0  0  0  0  0  0  0  0  0  0  0  # atno 8010 bound_to 7997
  139.8645  143.7034  152.2646 H   0  0  0  0  0  0  0  0  0  0  0  0  # atno 10167 bound_to 10162
  157.1995  131.0673  151.2033 H   0  0  0  0  0  0  0  0  0  0  0  0  # atno 10718 bound_to 10713
  154.7436  135.3074  154.8685 H   0  0  0  0  0  0  0  0  0  0  0  0  # atno 10763 bound_to 10752
  153.9492  135.6766  153.4748 H   0  0  0  0  0  0  0  0  0  0  0  0  # atno 10764 bound_to 10752
  153.1033  135.4901  154.8832 H   0  0  0  0  0  0  0  0  0  0  0  0  # atno 10765 bound_to 10752
  139.9966  134.9495  156.9977 H   0  0  0  0  0  0  0  0  0  0  0  0  # atno 11005 bound_to 11000
  146.2079  140.6067  142.9073 LP  0  0  0  0  0  0  0  0  0  0  0  0  # atno 17320 bound_to 7965
  144.7654  140.5518  143.6707 LP  0  0  0  0  0  0  0  0  0  0  0  0  # atno 17321 bound_to 7965
  139.7342  144.7575  151.0754 LP  0  0  0  0  0  0  0  0  0  0  0  0  # atno 17342 bound_to 10162
  140.7770  143.5051  150.9722 LP  0  0  0  0  0  0  0  0  0  0  0  0  # atno 17343 bound_to 10162
  157.3781  130.7217  149.6611 LP  0  0  0  0  0  0  0  0  0  0  0  0  # atno 17370 bound_to 10713
  155.9702  130.4180  150.4306 LP  0  0  0  0  0  0  0  0  0  0  0  0  # atno 17371 bound_to 10713
  140.4807  134.1292  155.7216 LP  0  0  0  0  0  0  0  0  0  0  0  0  # atno 17394 bound_to 11000
  141.1609  133.8795  157.1851 LP  0  0  0  0  0  0  0  0  0  0  0  0  # atno 17395 bound_to 11000

$$$$
