AV-unprocessed.smi:919|AV-procd|sdf|4166|dock6
  -GOLD-   22720 2 73D 1   1.00000     0.00000
 Structure written by MMmdl.
 43 45  0  0  0  0  0  0  0  0  1 V2000
  145.5252  140.8124  156.4013 C   0  0  0  0  0  0  0  0  0  0  0  0
  145.2283  142.0195  155.5584 C   0  0  0  0  0  0  0  0  0  0  0  0
  144.1971  142.7907  155.8597 N   0  0  0  0  0  0  0  0  0  0  0  0
  144.1895  143.8102  154.9025 O   0  0  0  0  0  0  0  0  0  0  0  0
  145.2294  143.6107  154.0531 C   0  0  0  0  0  0  0  0  0  0  0  0
  145.3878  144.6015  152.9503 C   0  0  0  0  0  0  0  0  0  0  0  0
  145.9315  142.4941  154.4148 C   0  0  0  0  0  0  0  0  0  0  0  0
  147.1508  141.8936  153.7708 C   0  0  0  0  0  0  0  0  0  0  0  0
  148.0390  141.1845  154.8049 C   0  0  0  0  0  0  0  0  0  0  0  0
  148.9375  142.1227  155.4647 N   0  0  0  0  0  0  0  0  0  0  0  0
  149.9953  141.7757  156.2171 C   0  0  0  0  0  0  0  0  0  0  0  0
  150.3383  140.6104  156.4083 O   0  0  0  0  0  0  0  0  0  0  0  0
  150.6628  142.8102  156.7572 N   0  0  0  0  0  0  0  0  0  0  0  0
  151.8478  142.7631  157.6178 C   0  0  2  0  0  0  0  0  0  0  0  0
  151.5214  142.1133  158.9807 C   0  0  0  0  0  0  0  0  0  0  0  0
  151.9078  143.2080  159.9921 C   0  0  2  0  0  0  0  0  0  0  0  0
  150.8871  144.3599  159.9216 C   0  0  0  0  0  0  0  0  0  0  0  0
  151.2419  145.0485  158.5903 C   0  0  0  0  0  0  0  0  0  0  0  0
  152.3781  144.1579  158.0426 C   0  0  1  0  0  0  0  0  0  0  0  0
  153.1303  143.8257  159.3269 C   0  0  0  0  0  0  0  0  0  0  0  0
  145.8911  139.9873  155.7897 H   0  0  0  0  0  0  0  0  0  0  0  0
  144.6373  140.4618  156.9290 H   0  0  0  0  0  0  0  0  0  0  0  0
  146.2893  141.0371  157.1458 H   0  0  0  0  0  0  0  0  0  0  0  0
  146.0560  144.2230  152.1766 H   0  0  0  0  0  0  0  0  0  0  0  0
  145.8020  145.5361  153.3283 H   0  0  0  0  0  0  0  0  0  0  0  0
  144.4264  144.8205  152.4853 H   0  0  0  0  0  0  0  0  0  0  0  0
  146.8660  141.1842  152.9930 H   0  0  0  0  0  0  0  0  0  0  0  0
  147.7282  142.6669  153.2629 H   0  0  0  0  0  0  0  0  0  0  0  0
  147.4276  140.6693  155.5480 H   0  0  0  0  0  0  0  0  0  0  0  0
  148.6431  140.4196  154.3158 H   0  0  0  0  0  0  0  0  0  0  0  0
  148.7329  143.1055  155.3572 H   0  0  0  0  0  0  0  0  0  0  0  0
  150.3251  143.7334  156.5260 H   0  0  0  0  0  0  0  0  0  0  0  0
  152.6386  142.1889  157.1313 H   0  0  0  0  0  0  0  0  0  0  0  0
  150.4758  141.8175  159.0811 H   0  0  0  0  0  0  0  0  0  0  0  0
  152.1295  141.2203  159.1301 H   0  0  0  0  0  0  0  0  0  0  0  0
  152.0725  142.8305  161.0015 H   0  0  0  0  0  0  0  0  0  0  0  0
  149.8580  143.9992  159.9415 H   0  0  0  0  0  0  0  0  0  0  0  0
  151.0170  145.0498  160.7562 H   0  0  0  0  0  0  0  0  0  0  0  0
  150.3884  145.1330  157.9177 H   0  0  0  0  0  0  0  0  0  0  0  0
  151.6084  146.0593  158.7748 H   0  0  0  0  0  0  0  0  0  0  0  0
  152.9815  144.6484  157.2781 H   0  0  0  0  0  0  0  0  0  0  0  0
  153.5096  144.7060  159.8493 H   0  0  0  0  0  0  0  0  0  0  0  0
  153.9476  143.1176  159.1795 H   0  0  0  0  0  0  0  0  0  0  0  0
  1  2  1  0  0  0  0
  1 21  1  0  0  0  0
  1 22  1  0  0  0  0
  1 23  1  0  0  0  0
  2  7  1  0  0  0  0
  2  3  2  0  0  0  0
  3  4  1  0  0  0  0
  4  5  1  0  0  0  0
  5  6  1  0  0  0  0
  5  7  2  0  0  0  0
  6 24  1  0  0  0  0
  6 25  1  0  0  0  0
  6 26  1  0  0  0  0
  7  8  1  0  0  0  0
  8  9  1  0  0  0  0
  8 27  1  0  0  0  0
  8 28  1  0  0  0  0
  9 10  1  0  0  0  0
  9 29  1  0  0  0  0
  9 30  1  0  0  0  0
 10 11  1  0  0  0  0
 10 31  1  0  0  0  0
 11 12  2  0  0  0  0
 11 13  1  0  0  0  0
 13 14  1  0  0  0  0
 13 32  1  0  0  0  0
 14 19  1  0  0  0  0
 14 15  1  0  0  0  0
 14 33  1  0  0  0  0
 15 16  1  0  0  0  0
 15 34  1  0  0  0  0
 15 35  1  0  0  0  0
 16 20  1  0  0  0  0
 16 17  1  0  0  0  0
 16 36  1  0  0  0  0
 17 18  1  0  0  0  0
 17 37  1  0  0  0  0
 17 38  1  0  0  0  0
 18 19  1  0  0  0  0
 18 39  1  0  0  0  0
 18 40  1  0  0  0  0
 19 20  1  0  0  0  0
 19 41  1  0  0  0  0
 20 42  1  0  0  0  0
 20 43  1  0  0  0  0
M  END
> <s_m_source_file>
AV-unprocessed.smi

> <i_m_source_file_index>
919

> <i_lp_mmshare_version>
43012

> <i_f3d_flags>
0

> <s_epik_input>
W0NIM11jMW5vYyhbQ0gzXSljMVtDSDJdW0NIMl1bTkhdQyg9TylbTkhdW0NASF0oW0NIMl1bQ0BASF0yMylbQ0BASF0oW0NIMl0zKVtDSDJdW0NIMl0y

> <s_epik_cmdline>
J2VwaWtfcHl0aG9uJywgJy1waCcsICc3LjAnLCAnLXRuJywgJzgnLCAnLW1hJywgJzIwMCcsICctbWV0YWxfYmluZGluZycsICctaW1hZScsICc8aW5maWxlLm1hZT4nLCAnLW9tYWUnLCAnPG91dGZpbGUubWFlPic=

> <r_lp_tautomer_probability>
1

> <r_epik_Ionization_Penalty>
6.40771e-05

> <r_epik_Ionization_Penalty_Charging>
0

> <r_epik_Ionization_Penalty_Neutral>
6.40771e-05

> <r_epik_State_Penalty>
-0

> <r_epik_Charging_Adjusted_Penalty>
0

> <i_epik_Tot_Q>
0

> <i_epik_Tot_abs_Q>
0

> <r_epik_Metal_State_Penalty>
-0

> <b_epik_Metal_Only>
0

> <s_lp_Force_Field>
OPLS_2005

> <r_lp_Energy>
47.1923

> <b_lp_Chiralities_Consistent>
1

> <s_lp_Variant>
AV-unprocessed.smi:919-3

> <Gold.Version>
5.8.1

> <Gold.Id.Protein>
6NUR|6NUR_protein|mol2

> <Gold.PLP.Fitness>
46.3249

> <Gold.PLP.PLP>
-41.7408

> <Gold.PLP.part.hbond>
-2.0000

> <Gold.PLP.part.metal>
0.0000

> <Gold.PLP.part.buried>
-7.1942

> <Gold.PLP.part.nonpolar>
-32.9862

> <Gold.PLP.part.repulsive>
0.4609

> <Gold.PLP.ligand.clash>
0.0000

> <Gold.PLP.ligand.torsion>
0.6076

> <Gold.PLP.Chemscore.Hbond>
1.9280

> <Gold.PLP.Chemscore.CHOScore>
0.0000

> <Gold.PLP.Chemscore.Metal>
0.0000

> <Gold.Chemscore.Hbonds>
donor molecule, donor type, donor heavy atom, donor atom, acceptor molecule, acceptor atom, score
      L1  H    10    31       P1  8028  1.00
      L1  H    13    32       P1  8028  0.91

> <Gold.PLP.Chemscore.Internal.Correction>
0.0153

> <Gold.Rescore>
     Score         DG    S(hbond)    S(metal)    S(lipo)     H(rot)  DE(clash)    DE(int)     intcor
     20.10     -21.56       1.90        0.00     116.30       1.52       0.89       0.57       ----

> <Gold.Chemscore.Fitness>
20.1023

> <Gold.Chemscore.DG>
-21.5574

> <Gold.Chemscore.ZeroCoef>
-5.4800

> <Gold.Chemscore.Hbond>
1.9017

> <Gold.Chemscore.Metal>
0.0000

> <Gold.Chemscore.Lipo>
116.2979

> <Gold.Chemscore.Internal_Hbond>
0.0000

> <Gold.Chemscore.DEClash>
0.8869

> <Gold.Chemscore.DEInternal>
0.5682

> <Gold.Chemscore.Rot>
1.5161

> <Gold.Chemscore.Internal.Correction>
   9.000000E+99

> <Gold.Chemscore.Hbonds>
donor molecule, donor type, donor heavy atom, donor atom, acceptor molecule, acceptor atom, score
      L1  H    10    31       P1  8028  0.98
      L1  H    13    32       P1  8028  0.88

> <Gold.Chemscore.Hbond.Weighted>
-6.3518

> <Gold.Chemscore.Metal.Weighted>
-0.0000

> <Gold.Chemscore.Lipo.Weighted>
-13.6069

> <Gold.Chemscore.Internal_Hbond.Weighted>
0.0000

> <Gold.Chemscore.DEClash.Weighted>
0.8869

> <Gold.Chemscore.DEInternal.Weighted>
0.5682

> <Gold.Chemscore.Rot.Weighted>
3.8813

> <Gold.Chemscore.Internal.Correction.Weighted>
   9.000000E+99

> <Gold.Protein.RotatedTorsions>
[ 6907 6896 6895 6894 ] final  168.84 input  -60.11 | X-H torsion
[ 7974 7965 7964 7962 ] final   66.99 input  175.53 | X-H torsion
[ 8008 7997 7996 7995 ] final   29.50 input   59.86 | X-H torsion
[ 10167 10162 10161 10158 ] final  -19.63 input  -65.29 | X-H torsion
[ 10718 10713 10712 10709 ] final   70.97 input   66.30 | X-H torsion
[ 10763 10752 10751 10750 ] final  -17.04 input  -60.55 | X-H torsion
[ 11005 11000 10999 10996 ] final -134.86 input  -57.11 | X-H torsion

> <Gold.Protein.ActiveResidues>
 VAL166  LYS551  ARG553  GLY616  TRP617  ASP618  TYR619  PRO620  LYS621  CYS622 
 ASP623  PHE694  ASN695  SER759  ASP760  ASP761  ALA762  ILE779  LEU786  VAL792 
 PHE793  MET794  SER795  GLU796  ALA797  LYS798  CYS799  TRP800  GLU811  SER814 

> <Gold.Protein.RotatedAtoms>
  151.8413  133.3424  159.3643 H   0  0  0  0  0  0  0  0  0  0  0  0  # atno 6907 bound_to 6896
  150.7234  134.5389  159.5746 H   0  0  0  0  0  0  0  0  0  0  0  0  # atno 6908 bound_to 6896
  152.2863  134.7773  160.0438 H   0  0  0  0  0  0  0  0  0  0  0  0  # atno 6909 bound_to 6896
  145.8200  139.3079  143.1049 H   0  0  0  0  0  0  0  0  0  0  0  0  # atno 7974 bound_to 7965
  155.0755  140.3205  155.4617 H   0  0  0  0  0  0  0  0  0  0  0  0  # atno 8008 bound_to 7997
  156.2780  140.2104  156.5828 H   0  0  0  0  0  0  0  0  0  0  0  0  # atno 8009 bound_to 7997
  154.7020  140.0506  157.0455 H   0  0  0  0  0  0  0  0  0  0  0  0  # atno 8010 bound_to 7997
  140.7270  143.4800  151.0130 H   0  0  0  0  0  0  0  0  0  0  0  0  # atno 10167 bound_to 10162
  157.6428  130.9504  150.0724 H   0  0  0  0  0  0  0  0  0  0  0  0  # atno 10718 bound_to 10713
  153.5678  135.7008  153.5518 H   0  0  0  0  0  0  0  0  0  0  0  0  # atno 10763 bound_to 10752
  153.3371  135.4031  155.1542 H   0  0  0  0  0  0  0  0  0  0  0  0  # atno 10764 bound_to 10752
  154.8638  135.3733  154.5199 H   0  0  0  0  0  0  0  0  0  0  0  0  # atno 10765 bound_to 10752
  140.8951  134.1762  157.4500 H   0  0  0  0  0  0  0  0  0  0  0  0  # atno 11005 bound_to 11000
  145.9685  140.8779  143.0174 LP  0  0  0  0  0  0  0  0  0  0  0  0  # atno 17320 bound_to 7965
  144.6748  140.1912  143.7396 LP  0  0  0  0  0  0  0  0  0  0  0  0  # atno 17321 bound_to 7965
  139.8498  143.7453  152.3178 LP  0  0  0  0  0  0  0  0  0  0  0  0  # atno 17342 bound_to 10162
  139.7631  144.7500  151.0334 LP  0  0  0  0  0  0  0  0  0  0  0  0  # atno 17343 bound_to 10162
  156.1725  130.3647  149.9146 LP  0  0  0  0  0  0  0  0  0  0  0  0  # atno 17370 bound_to 10713
  156.7118  130.8973  151.3610 LP  0  0  0  0  0  0  0  0  0  0  0  0  # atno 17371 bound_to 10713
  139.8734  134.9875  156.5369 LP  0  0  0  0  0  0  0  0  0  0  0  0  # atno 17394 bound_to 11000
  140.8299  133.8287  155.8974 LP  0  0  0  0  0  0  0  0  0  0  0  0  # atno 17395 bound_to 11000

$$$$
