AV-unprocessed.smi:2079|AV-procd|sdf|8475|dock9
  -GOLD-   2272011183D 1   1.00000     0.00000
 Structure written by MMmdl.
 42 43  0  0  0  0  0  0  0  0  2 V2000
  151.7457  141.1220  156.2660 C   0  0  0  0  0  0  0  0  0  0  0  0
  151.5887  139.7062  155.8281 C   0  0  0  0  0  0  0  0  0  0  0  0
  150.5892  139.0386  155.1778 C   0  0  0  0  0  0  0  0  0  0  0  0
  151.1015  137.7178  155.0752 C   0  0  0  0  0  0  0  0  0  0  0  0
  150.3534  136.6924  154.4422 N   0  0  0  0  0  0  0  0  0  0  0  0
  150.1453  135.4413  154.8865 C   0  0  0  0  0  0  0  0  0  0  0  0
  150.5629  134.9873  155.9523 O   0  0  0  0  0  0  0  0  0  0  0  0
  149.4130  134.7265  154.0196 N   0  0  0  0  0  0  0  0  0  0  0  0
  149.0449  133.3269  154.2034 C   0  0  0  0  0  0  0  0  0  0  0  0
  147.8546  132.9301  153.3040 C   0  0  0  0  0  0  0  0  0  0  0  0
  147.1977  134.0917  152.6366 N   0  3  2  0  0  0  0  0  0  0  0  0
  146.4483  134.9437  153.6060 C   0  0  0  0  0  0  0  0  0  0  0  0
  145.8774  136.2068  152.9461 C   0  0  0  0  0  0  0  0  0  0  0  0
  144.9702  135.8378  151.7734 C   0  0  0  0  0  0  0  0  0  0  0  0
  145.7529  134.9710  150.7851 C   0  0  0  0  0  0  0  0  0  0  0  0
  146.3435  133.7137  151.4611 C   0  0  1  0  0  0  0  0  0  0  0  0
  147.0959  132.8909  150.3939 C   0  0  0  0  0  0  0  0  0  0  0  0
  152.3027  137.5899  155.6175 N   0  0  0  0  0  0  0  0  0  0  0  0
  152.6215  138.8638  156.1022 O   0  0  0  0  0  0  0  0  0  0  0  0
  150.8013  141.6610  156.1885 H   0  0  0  0  0  0  0  0  0  0  0  0
  152.4810  141.6367  155.6477 H   0  0  0  0  0  0  0  0  0  0  0  0
  152.0796  141.1726  157.3025 H   0  0  0  0  0  0  0  0  0  0  0  0
  149.6467  139.4354  154.8303 H   0  0  0  0  0  0  0  0  0  0  0  0
  149.9479  136.9336  153.5501 H   0  0  0  0  0  0  0  0  0  0  0  0
  149.1081  135.1734  153.1669 H   0  0  0  0  0  0  0  0  0  0  0  0
  149.9325  132.7426  153.9657 H   0  0  0  0  0  0  0  0  0  0  0  0
  148.8140  133.1377  155.2534 H   0  0  0  0  0  0  0  0  0  0  0  0
  148.2465  132.2465  152.5554 H   0  0  0  0  0  0  0  0  0  0  0  0
  147.1143  132.3696  153.8768 H   0  0  0  0  0  0  0  0  0  0  0  0
  145.6431  134.3606  154.0560 H   0  0  0  0  0  0  0  0  0  0  0  0
  147.0947  135.2677  154.4192 H   0  0  0  0  0  0  0  0  0  0  0  0
  145.3192  136.7905  153.6787 H   0  0  0  0  0  0  0  0  0  0  0  0
  146.6927  136.8428  152.5985 H   0  0  0  0  0  0  0  0  0  0  0  0
  144.0947  135.2957  152.1335 H   0  0  0  0  0  0  0  0  0  0  0  0
  144.6034  136.7386  151.2805 H   0  0  0  0  0  0  0  0  0  0  0  0
  145.0949  134.6820  149.9647 H   0  0  0  0  0  0  0  0  0  0  0  0
  146.5551  135.5620  150.3405 H   0  0  0  0  0  0  0  0  0  0  0  0
  145.5154  133.1067  151.8313 H   0  0  0  0  0  0  0  0  0  0  0  0
  146.4955  132.7853  149.4899 H   0  0  0  0  0  0  0  0  0  0  0  0
  147.3132  131.8763  150.7262 H   0  0  0  0  0  0  0  0  0  0  0  0
  148.0341  133.3687  150.1095 H   0  0  0  0  0  0  0  0  0  0  0  0
  147.9442  134.6627  152.2663 H   0  0  0  0  0  0  0  0  0  0  0  0
  1  2  1  0  0  0  0
  1 20  1  0  0  0  0
  1 21  1  0  0  0  0
  1 22  1  0  0  0  0
  2 19  1  0  0  0  0
  2  3  2  0  0  0  0
  3  4  1  0  0  0  0
  3 23  1  0  0  0  0
  4  5  1  0  0  0  0
  4 18  2  0  0  0  0
  5  6  1  0  0  0  0
  5 24  1  0  0  0  0
  6  7  2  0  0  0  0
  6  8  1  0  0  0  0
  8  9  1  0  0  0  0
  8 25  1  0  0  0  0
  9 10  1  0  0  0  0
  9 26  1  0  0  0  0
  9 27  1  0  0  0  0
 10 11  1  0  0  0  0
 10 28  1  0  0  0  0
 10 29  1  0  0  0  0
 11 16  1  0  0  0  0
 11 12  1  0  0  0  0
 11 42  1  0  0  0  0
 12 13  1  0  0  0  0
 12 30  1  0  0  0  0
 12 31  1  0  0  0  0
 13 14  1  0  0  0  0
 13 32  1  0  0  0  0
 13 33  1  0  0  0  0
 14 15  1  0  0  0  0
 14 34  1  0  0  0  0
 14 35  1  0  0  0  0
 15 16  1  0  0  0  0
 15 36  1  0  0  0  0
 15 37  1  0  0  0  0
 16 17  1  0  0  0  0
 16 38  1  0  0  0  0
 17 39  1  0  0  0  0
 17 40  1  0  0  0  0
 17 41  1  0  0  0  0
 18 19  1  0  0  0  0
M  CHG  1  11   1
M  END
> <s_m_source_file>
AV-unprocessed.smi

> <i_m_source_file_index>
2079

> <i_lp_mmshare_version>
43012

> <i_f3d_flags>
0

> <s_epik_input>
W0NIM11jMVtjSF1jKG5vMSlbTkhdQyg9TylbTkhdW0NIMl1bQ0gyXU4yW0NIMl1bQ0gyXVtDSDJdW0NIMl1bQ0BIXTJbQ0gzXQ==

> <s_epik_cmdline>
J2VwaWtfcHl0aG9uJywgJy1waCcsICc3LjAnLCAnLXRuJywgJzgnLCAnLW1hJywgJzIwMCcsICctbWV0YWxfYmluZGluZycsICctaW1hZScsICc8aW5maWxlLm1hZT4nLCAnLW9tYWUnLCAnPG91dGZpbGUubWFlPic=

> <r_epik_Ionization_Penalty>
0.00265971

> <r_epik_Ionization_Penalty_Charging>
0.00262393

> <r_epik_Ionization_Penalty_Neutral>
3.57846e-05

> <r_epik_State_Penalty>
0.00182566

> <r_epik_Charging_Adjusted_Penalty>
0.00444959

> <i_epik_Tot_Q>
1

> <i_epik_Tot_abs_Q>
1

> <r_epik_Metal_State_Penalty>
0.0216344

> <b_epik_Metal_Only>
0

> <s_lp_Force_Field>
OPLS_2005

> <r_lp_Energy>
17.1717

> <b_lp_Chiralities_Consistent>
1

> <s_lp_Variant>
AV-unprocessed.smi:2079-1

> <Gold.Version>
5.8.1

> <Gold.Id.Protein>
6NUR|6NUR_protein|mol2

> <Gold.PLP.Fitness>
43.6072

> <Gold.PLP.PLP>
-29.7681

> <Gold.PLP.part.hbond>
-6.3838

> <Gold.PLP.part.metal>
0.0000

> <Gold.PLP.part.buried>
-2.1143

> <Gold.PLP.part.nonpolar>
-21.7410

> <Gold.PLP.part.repulsive>
0.1833

> <Gold.PLP.ligand.clash>
0.0000

> <Gold.PLP.ligand.torsion>
0.9690

> <Gold.PLP.Chemscore.Hbond>
5.2527

> <Gold.PLP.Chemscore.CHOScore>
0.0000

> <Gold.PLP.Chemscore.Metal>
0.0000

> <Gold.Chemscore.Hbonds>
donor molecule, donor type, donor heavy atom, donor atom, acceptor molecule, acceptor atom, score
      L1  H     5    24       P1  7948  0.90
      L1  H     8    25       P1  7948  0.90
      L1  H    11    42       P1  7948  2.00
      P1  H  7997  8008       L1    19  0.73
      P1  H 10752 10764       L1    18  0.23

> <Gold.PLP.Chemscore.Internal.Correction>
0.0191

> <Gold.Rescore>
     Score         DG    S(hbond)    S(metal)    S(lipo)     H(rot)  DE(clash)    DE(int)     intcor
     16.12     -17.85       2.95        0.00      55.94       1.57       0.62       1.11       ----

> <Gold.Chemscore.Fitness>
16.1180

> <Gold.Chemscore.DG>
-17.8497

> <Gold.Chemscore.ZeroCoef>
-5.4800

> <Gold.Chemscore.Hbond>
2.9470

> <Gold.Chemscore.Metal>
0.0000

> <Gold.Chemscore.Lipo>
55.9417

> <Gold.Chemscore.Internal_Hbond>
0.0000

> <Gold.Chemscore.DEClash>
0.6212

> <Gold.Chemscore.DEInternal>
1.1105

> <Gold.Chemscore.Rot>
1.5697

> <Gold.Chemscore.Internal.Correction>
   9.000000E+99

> <Gold.Chemscore.Hbonds>
donor molecule, donor type, donor heavy atom, donor atom, acceptor molecule, acceptor atom, score
      L1  H     5    24       P1  7948  0.28
      L1  H     8    25       P1  7948  0.18
      L1  H    11    42       P1  7948  0.50
      P1  H  7997  8008       L1    19  0.40
      P1  H 10752 10764       L1    18  0.08

> <Gold.Chemscore.Hbond.Weighted>
-9.8430

> <Gold.Chemscore.Metal.Weighted>
-0.0000

> <Gold.Chemscore.Lipo.Weighted>
-6.5452

> <Gold.Chemscore.Internal_Hbond.Weighted>
0.0000

> <Gold.Chemscore.DEClash.Weighted>
0.6212

> <Gold.Chemscore.DEInternal.Weighted>
1.1105

> <Gold.Chemscore.Rot.Weighted>
4.0185

> <Gold.Chemscore.Internal.Correction.Weighted>
   9.000000E+99

> <Gold.Protein.RotatedTorsions>
[ 6907 6896 6895 6894 ] final  -11.04 input  -60.11 | X-H torsion
[ 7974 7965 7964 7962 ] final -123.04 input  175.53 | X-H torsion
[ 8008 7997 7996 7995 ] final  -41.34 input   59.86 | X-H torsion
[ 10167 10162 10161 10158 ] final   48.71 input  -65.29 | X-H torsion
[ 10718 10713 10712 10709 ] final   42.54 input   66.30 | X-H torsion
[ 10763 10752 10751 10750 ] final  -51.80 input  -60.55 | X-H torsion
[ 11005 11000 10999 10996 ] final   52.10 input  -57.11 | X-H torsion

> <Gold.Protein.ActiveResidues>
 VAL166  LYS551  ARG553  GLY616  TRP617  ASP618  TYR619  PRO620  LYS621  CYS622 
 ASP623  PHE694  ASN695  SER759  ASP760  ASP761  ALA762  ILE779  LEU786  VAL792 
 PHE793  MET794  SER795  GLU796  ALA797  LYS798  CYS799  TRP800  GLU811  SER814 

> <Gold.Protein.RotatedAtoms>
  151.3925  135.0958  159.9530 H   0  0  0  0  0  0  0  0  0  0  0  0  # atno 6907 bound_to 6896
  152.5075  133.8966  159.7431 H   0  0  0  0  0  0  0  0  0  0  0  0  # atno 6908 bound_to 6896
  150.9423  133.6587  159.2817 H   0  0  0  0  0  0  0  0  0  0  0  0  # atno 6909 bound_to 6896
  145.0229  140.8004  143.4370 H   0  0  0  0  0  0  0  0  0  0  0  0  # atno 7974 bound_to 7965
  154.4005  140.1502  156.3174 H   0  0  0  0  0  0  0  0  0  0  0  0  # atno 8008 bound_to 7997
  155.8560  140.3455  155.5703 H   0  0  0  0  0  0  0  0  0  0  0  0  # atno 8009 bound_to 7997
  155.7932  140.0859  157.1988 H   0  0  0  0  0  0  0  0  0  0  0  0  # atno 8010 bound_to 7997
  140.2904  144.3052  150.6242 H   0  0  0  0  0  0  0  0  0  0  0  0  # atno 10167 bound_to 10162
  157.4060  130.7887  149.7389 H   0  0  0  0  0  0  0  0  0  0  0  0  # atno 10718 bound_to 10713
  154.1324  135.6518  153.4925 H   0  0  0  0  0  0  0  0  0  0  0  0  # atno 10763 bound_to 10752
  153.0191  135.5296  154.6988 H   0  0  0  0  0  0  0  0  0  0  0  0  # atno 10764 bound_to 10752
  154.6226  135.2966  155.0279 H   0  0  0  0  0  0  0  0  0  0  0  0  # atno 10765 bound_to 10752
  140.0878  134.5251  155.8882 H   0  0  0  0  0  0  0  0  0  0  0  0  # atno 11005 bound_to 11000
  145.1871  139.2320  143.5262 LP  0  0  0  0  0  0  0  0  0  0  0  0  # atno 17320 bound_to 7965
  146.3488  140.1658  142.8590 LP  0  0  0  0  0  0  0  0  0  0  0  0  # atno 17321 bound_to 7965
  140.5737  143.2178  151.7554 LP  0  0  0  0  0  0  0  0  0  0  0  0  # atno 17342 bound_to 10162
  139.4939  144.4180  152.0008 LP  0  0  0  0  0  0  0  0  0  0  0  0  # atno 17343 bound_to 10162
  155.9836  130.3998  150.3352 LP  0  0  0  0  0  0  0  0  0  0  0  0  # atno 17370 bound_to 10713
  157.1485  131.0315  151.2896 LP  0  0  0  0  0  0  0  0  0  0  0  0  # atno 17371 bound_to 10713
  141.2068  133.6658  156.6265 LP  0  0  0  0  0  0  0  0  0  0  0  0  # atno 17394 bound_to 11000
  140.3396  134.7860  157.4387 LP  0  0  0  0  0  0  0  0  0  0  0  0  # atno 17395 bound_to 11000

$$$$
