AV-unprocessed.smi:2636|AV-procd|sdf|10260|dock1
  -GOLD-   2272014273D 1   1.00000     0.00000
 Structure written by MMmdl.
 35 36  0  0  0  0  0  0  0  0  2 V2000
  149.2709  136.3690  157.1822 C   0  0  0  0  0  0  0  0  0  0  0  0
  150.2400  137.3243  156.5108 C   0  0  0  0  0  0  0  0  0  0  0  0
  149.9181  138.5994  156.2111 C   0  0  0  0  0  0  0  0  0  0  0  0
  150.8209  139.4714  155.5794 N   0  0  0  0  0  0  0  0  0  0  0  0
  150.4096  140.8471  155.3239 C   0  0  0  0  0  0  0  0  0  0  0  0
  149.7843  141.4179  156.4394 O   0  0  0  0  0  0  0  0  0  0  0  0
  150.6011  141.6747  157.5783 C   0  0  0  0  0  0  0  0  0  0  0  0
  151.3193  143.0105  157.4740 C   0  0  0  0  0  0  0  0  0  0  0  0
  152.1394  143.5891  158.3737 C   0  0  0  0  0  0  0  0  0  0  0  0
  152.6245  143.0597  159.6601 C   0  0  0  0  0  0  0  0  0  0  0  0
  152.2995  143.6523  160.9015 C   0  0  0  0  0  0  0  0  0  0  0  0
  152.8072  143.1220  162.1035 C   0  0  0  0  0  0  0  0  0  0  0  0
  153.6400  141.9880  162.0775 C   0  0  0  0  0  0  0  0  0  0  0  0
  153.9622  141.3849  160.8477 C   0  0  0  0  0  0  0  0  0  0  0  0
  153.4584  141.9209  159.6468 C   0  0  0  0  0  0  0  0  0  0  0  0
  152.0789  139.0465  155.2587 C   0  0  0  0  0  0  0  0  0  0  0  0
  152.8580  139.8298  154.7143 O   0  0  0  0  0  0  0  0  0  0  0  0
  152.4278  137.7575  155.5556 N   0  5  0  0  0  0  0  0  0  0  0  0
  151.5877  136.8684  156.1620 C   0  0  0  0  0  0  0  0  0  0  0  0
  151.9261  135.7135  156.4198 O   0  0  0  0  0  0  0  0  0  0  0  0
  148.3096  136.8494  157.3655 H   0  0  0  0  0  0  0  0  0  0  0  0
  149.6704  136.0297  158.1382 H   0  0  0  0  0  0  0  0  0  0  0  0
  149.0978  135.4968  156.5515 H   0  0  0  0  0  0  0  0  0  0  0  0
  148.9522  139.0268  156.4367 H   0  0  0  0  0  0  0  0  0  0  0  0
  151.2981  141.4320  155.0805 H   0  0  0  0  0  0  0  0  0  0  0  0
  149.7503  140.8842  154.4559 H   0  0  0  0  0  0  0  0  0  0  0  0
  150.0098  141.5854  158.4861 H   0  0  0  0  0  0  0  0  0  0  0  0
  151.3584  140.8925  157.6253 H   0  0  0  0  0  0  0  0  0  0  0  0
  151.1178  143.5529  156.5620 H   0  0  0  0  0  0  0  0  0  0  0  0
  152.5246  144.5653  158.1170 H   0  0  0  0  0  0  0  0  0  0  0  0
  151.6426  144.5077  160.9474 H   0  0  0  0  0  0  0  0  0  0  0  0
  152.5532  143.5838  163.0461 H   0  0  0  0  0  0  0  0  0  0  0  0
  154.0300  141.5817  162.9990 H   0  0  0  0  0  0  0  0  0  0  0  0
  154.6026  140.5157  160.8239 H   0  0  0  0  0  0  0  0  0  0  0  0
  153.7217  141.4549  158.7084 H   0  0  0  0  0  0  0  0  0  0  0  0
  1  2  1  0  0  0  0
  1 21  1  0  0  0  0
  1 22  1  0  0  0  0
  1 23  1  0  0  0  0
  2 19  1  0  0  0  0
  2  3  2  0  0  0  0
  3  4  1  0  0  0  0
  3 24  1  0  0  0  0
  4  5  1  0  0  0  0
  4 16  1  0  0  0  0
  5  6  1  0  0  0  0
  5 25  1  0  0  0  0
  5 26  1  0  0  0  0
  6  7  1  0  0  0  0
  7  8  1  0  0  0  0
  7 27  1  0  0  0  0
  7 28  1  0  0  0  0
  8  9  2  0  0  0  0
  8 29  1  0  0  0  0
  9 10  1  0  0  0  0
  9 30  1  0  0  0  0
 10 15  1  0  0  0  0
 10 11  2  0  0  0  0
 11 12  1  0  0  0  0
 11 31  1  0  0  0  0
 12 13  2  0  0  0  0
 12 32  1  0  0  0  0
 13 14  1  0  0  0  0
 13 33  1  0  0  0  0
 14 15  2  0  0  0  0
 14 34  1  0  0  0  0
 15 35  1  0  0  0  0
 16 17  2  0  0  0  0
 16 18  1  0  0  0  0
 18 19  1  0  0  0  0
 19 20  2  0  0  0  0
M  CHG  1  18  -1
M  END
> <s_m_source_file>
AV-unprocessed.smi

> <i_m_source_file_index>
2636

> <i_lp_mmshare_version>
43012

> <i_f3d_flags>
0

> <s_epik_input>
Tz1jMVtuSF1jKD1PKW4oW2NIXWMxW0NIM10pW0NIMl1PW0NIMl0vW0NIXT1bQ0hdL2MyW2NIXVtjSF1bY0hdW2NIXVtjSF0y

> <s_epik_cmdline>
J2VwaWtfcHl0aG9uJywgJy1waCcsICc3LjAnLCAnLXRuJywgJzgnLCAnLW1hJywgJzIwMCcsICctbWV0YWxfYmluZGluZycsICctaW1hZScsICc8aW5maWxlLm1hZT4nLCAnLW9tYWUnLCAnPG91dGZpbGUubWFlPic=

> <r_lp_tautomer_probability>
0.999537

> <r_epik_Ionization_Penalty>
3.43625

> <r_epik_Ionization_Penalty_Charging>
7.29021e-08

> <r_epik_Ionization_Penalty_Neutral>
3.43625

> <r_epik_State_Penalty>
3.43567

> <r_epik_Charging_Adjusted_Penalty>
3.43567

> <i_epik_Tot_Q>
-1

> <i_epik_Tot_abs_Q>
1

> <r_epik_Metal_State_Penalty>
0.168611

> <b_epik_Metal_Only>
1

> <s_epik_Chemistry_Notes>
This compound contains an acetal/aminal-like group ( X-CH(R)-Y where X, Y are N, S, or O) that may be acid/base labile, releasing an aldehyde.

> <s_lp_Force_Field>
OPLS_2005

> <r_lp_Energy>
10.6813

> <b_lp_Chiralities_Consistent>
1

> <s_lp_Variant>
AV-unprocessed.smi:2636-4

> <Gold.Version>
5.8.1

> <Gold.Id.Protein>
6NUR|6NUR_protein|mol2

> <Gold.PLP.Fitness>
49.9451

> <Gold.PLP.PLP>
-44.5290

> <Gold.PLP.part.hbond>
-3.5593

> <Gold.PLP.part.metal>
0.0000

> <Gold.PLP.part.buried>
-2.8131

> <Gold.PLP.part.nonpolar>
-37.3448

> <Gold.PLP.part.repulsive>
0.1288

> <Gold.PLP.ligand.clash>
0.0000

> <Gold.PLP.ligand.torsion>
0.9180

> <Gold.PLP.Chemscore.Hbond>
2.3750

> <Gold.PLP.Chemscore.CHOScore>
0.0000

> <Gold.PLP.Chemscore.Metal>
0.0000

> <Gold.Chemscore.Hbonds>
donor molecule, donor type, donor heavy atom, donor atom, acceptor molecule, acceptor atom, score
      P1  H  7989  7998       L1    17  0.40
      P1  H  7997  8010       L1    17  0.84
      P1  H 10752 10763       L1    20  1.00

> <Gold.PLP.Chemscore.Internal.Correction>
0.1272

> <Gold.Rescore>
     Score         DG    S(hbond)    S(metal)    S(lipo)     H(rot)  DE(clash)    DE(int)     intcor
     16.18     -17.24       1.34        0.00     103.31       1.88       0.14       0.93       ----

> <Gold.Chemscore.Fitness>
16.1782

> <Gold.Chemscore.DG>
-17.2409

> <Gold.Chemscore.ZeroCoef>
-5.4800

> <Gold.Chemscore.Hbond>
1.3432

> <Gold.Chemscore.Metal>
0.0000

> <Gold.Chemscore.Lipo>
103.3124

> <Gold.Chemscore.Internal_Hbond>
0.0000

> <Gold.Chemscore.DEClash>
0.1363

> <Gold.Chemscore.DEInternal>
0.9264

> <Gold.Chemscore.Rot>
1.8800

> <Gold.Chemscore.Internal.Correction>
   9.000000E+99

> <Gold.Chemscore.Hbonds>
donor molecule, donor type, donor heavy atom, donor atom, acceptor molecule, acceptor atom, score
      P1  H  7989  7998       L1    17  0.18
      P1  H  7997  8010       L1    17  0.40
      P1  H 10752 10763       L1    20  0.26

> <Gold.Chemscore.Hbond.Weighted>
-4.4862

> <Gold.Chemscore.Metal.Weighted>
-0.0000

> <Gold.Chemscore.Lipo.Weighted>
-12.0875

> <Gold.Chemscore.Internal_Hbond.Weighted>
0.0000

> <Gold.Chemscore.DEClash.Weighted>
0.1363

> <Gold.Chemscore.DEInternal.Weighted>
0.9264

> <Gold.Chemscore.Rot.Weighted>
4.8129

> <Gold.Chemscore.Internal.Correction.Weighted>
   9.000000E+99

> <Gold.Protein.RotatedTorsions>
[ 6907 6896 6895 6894 ] final    8.69 input  -60.11 | X-H torsion
[ 7974 7965 7964 7962 ] final -157.21 input  175.53 | X-H torsion
[ 8008 7997 7996 7995 ] final   88.18 input   59.86 | X-H torsion
[ 10167 10162 10161 10158 ] final  -28.13 input  -65.29 | X-H torsion
[ 10718 10713 10712 10709 ] final  117.01 input   66.30 | X-H torsion
[ 10763 10752 10751 10750 ] final   94.11 input  -60.55 | X-H torsion
[ 11005 11000 10999 10996 ] final -168.31 input  -57.11 | X-H torsion

> <Gold.Protein.ActiveResidues>
 VAL166  LYS551  ARG553  GLY616  TRP617  ASP618  TYR619  PRO620  LYS621  CYS622 
 ASP623  PHE694  ASN695  SER759  ASP760  ASP761  ALA762  ILE779  LEU786  VAL792 
 PHE793  MET794  SER795  GLU796  ALA797  LYS798  CYS799  TRP800  GLU811  SER814 

> <Gold.Protein.RotatedAtoms>
  151.7101  135.0914  160.0265 H   0  0  0  0  0  0  0  0  0  0  0  0  # atno 6907 bound_to 6896
  152.3667  133.6361  159.6064 H   0  0  0  0  0  0  0  0  0  0  0  0  # atno 6908 bound_to 6896
  150.7643  133.9253  159.3452 H   0  0  0  0  0  0  0  0  0  0  0  0  # atno 6909 bound_to 6896
  144.7558  140.4002  143.6013 H   0  0  0  0  0  0  0  0  0  0  0  0  # atno 7974 bound_to 7965
  155.9846  140.3374  155.6695 H   0  0  0  0  0  0  0  0  0  0  0  0  # atno 8008 bound_to 7997
  155.6502  140.0705  157.2607 H   0  0  0  0  0  0  0  0  0  0  0  0  # atno 8009 bound_to 7997
  154.4201  140.1727  156.1654 H   0  0  0  0  0  0  0  0  0  0  0  0  # atno 8010 bound_to 7997
  140.7272  143.4035  151.1224 H   0  0  0  0  0  0  0  0  0  0  0  0  # atno 10167 bound_to 10162
  157.6124  131.1032  150.7554 H   0  0  0  0  0  0  0  0  0  0  0  0  # atno 10718 bound_to 10713
  153.2379  135.4301  155.0667 H   0  0  0  0  0  0  0  0  0  0  0  0  # atno 10763 bound_to 10752
  154.8327  135.3395  154.6691 H   0  0  0  0  0  0  0  0  0  0  0  0  # atno 10764 bound_to 10752
  153.7116  135.7022  153.5092 H   0  0  0  0  0  0  0  0  0  0  0  0  # atno 10765 bound_to 10752
  140.5435  134.5499  157.5105 H   0  0  0  0  0  0  0  0  0  0  0  0  # atno 11005 bound_to 11000
  145.6783  139.1613  143.2715 LP  0  0  0  0  0  0  0  0  0  0  0  0  # atno 17320 bound_to 7965
  146.1567  140.6847  142.9296 LP  0  0  0  0  0  0  0  0  0  0  0  0  # atno 17321 bound_to 7965
  139.7658  143.8567  152.3110 LP  0  0  0  0  0  0  0  0  0  0  0  0  # atno 17342 bound_to 10162
  139.8468  144.7183  150.9262 LP  0  0  0  0  0  0  0  0  0  0  0  0  # atno 17343 bound_to 10162
  156.7929  130.4896  149.5382 LP  0  0  0  0  0  0  0  0  0  0  0  0  # atno 17370 bound_to 10713
  156.1232  130.6125  151.0225 LP  0  0  0  0  0  0  0  0  0  0  0  0  # atno 17371 bound_to 10713
  139.9492  134.7648  156.0489 LP  0  0  0  0  0  0  0  0  0  0  0  0  # atno 17394 bound_to 11000
  141.1213  133.6612  156.3223 LP  0  0  0  0  0  0  0  0  0  0  0  0  # atno 17395 bound_to 11000

$$$$
