AV-unprocessed.smi:12|AV-procd|sdf|62|dock2
  -GOLD-   2262015183D 1   1.00000     0.00000
 Structure written by MMmdl.
 41 44  0  0  0  0  0  0  0  0  1 V2000
  144.7004  142.5439  156.1685 C   0  0  0  0  0  0  0  0  0  0  0  0
  145.4780  141.2532  155.9837 C   0  0  0  0  0  0  0  0  0  0  0  0
  146.6550  141.2201  155.3150 C   0  0  0  0  0  0  0  0  0  0  0  0
  147.3178  140.0320  155.1822 N   0  0  0  0  0  0  0  0  0  0  0  0
  146.7644  138.8578  155.7309 C   0  0  0  0  0  0  0  0  0  0  0  0
  145.6456  138.8056  156.3847 N   0  0  0  0  0  0  0  0  0  0  0  0
  144.9237  140.0019  156.5592 C   0  0  0  0  0  0  0  0  0  0  0  0
  143.8578  140.0040  157.1735 O   0  0  0  0  0  0  0  0  0  0  0  0
  147.5912  137.8146  155.4519 O   0  0  0  0  0  0  0  0  0  0  0  0
  148.6937  138.2540  154.6390 C   0  0  2  0  0  0  0  0  0  0  0  0
  150.0332  138.0969  155.3458 C   0  0  2  0  0  0  0  0  0  0  0  0
  150.1150  136.8849  156.0684 O   0  0  0  0  0  0  0  0  0  0  0  0
  150.1193  139.3654  156.1941 C   0  0  1  0  0  0  0  0  0  0  0  0
  151.5398  139.7481  156.6288 C   0  0  0  0  0  0  0  0  0  0  0  0
  151.4733  140.7001  157.6782 O   0  0  0  0  0  0  0  0  0  0  0  0
  152.5457  140.9165  158.4641 C   0  0  0  0  0  0  0  0  0  0  0  0
  153.5200  140.1630  158.5116 O   0  0  0  0  0  0  0  0  0  0  0  0
  152.4295  142.1653  159.2718 C   0  0  0  0  0  0  0  0  0  0  0  0
  151.8318  143.3104  158.6950 C   0  0  0  0  0  0  0  0  0  0  0  0
  151.7081  144.5038  159.4327 C   0  0  0  0  0  0  0  0  0  0  0  0
  152.1814  144.5670  160.7561 C   0  0  0  0  0  0  0  0  0  0  0  0
  152.7783  143.4352  161.3413 C   0  0  0  0  0  0  0  0  0  0  0  0
  152.9025  142.2405  160.6055 C   0  0  0  0  0  0  0  0  0  0  0  0
  149.6165  140.3429  155.2873 O   0  0  0  0  0  0  0  0  0  0  0  0
  148.5947  139.7901  154.5060 C   0  0  2  0  0  0  0  0  0  0  0  0
  145.2107  143.3857  155.6995 H   0  0  0  0  0  0  0  0  0  0  0  0
  144.5832  142.7685  157.2292 H   0  0  0  0  0  0  0  0  0  0  0  0
  143.7094  142.4595  155.7219 H   0  0  0  0  0  0  0  0  0  0  0  0
  147.0799  142.1178  154.8901 H   0  0  0  0  0  0  0  0  0  0  0  0
  148.6687  137.7738  153.6601 H   0  0  0  0  0  0  0  0  0  0  0  0
  150.8302  138.1092  154.6006 H   0  0  0  0  0  0  0  0  0  0  0  0
  150.9371  136.4666  155.8618 H   0  0  0  0  0  0  0  0  0  0  0  0
  149.4543  139.3067  157.0577 H   0  0  0  0  0  0  0  0  0  0  0  0
  152.0897  138.8633  156.9525 H   0  0  0  0  0  0  0  0  0  0  0  0
  152.0808  140.1807  155.7860 H   0  0  0  0  0  0  0  0  0  0  0  0
  151.4608  143.2860  157.6805 H   0  0  0  0  0  0  0  0  0  0  0  0
  151.2494  145.3715  158.9820 H   0  0  0  0  0  0  0  0  0  0  0  0
  152.0867  145.4825  161.3213 H   0  0  0  0  0  0  0  0  0  0  0  0
  153.1419  143.4827  162.3571 H   0  0  0  0  0  0  0  0  0  0  0  0
  153.3659  141.3909  161.0857 H   0  0  0  0  0  0  0  0  0  0  0  0
  148.4943  140.1941  153.4982 H   0  0  0  0  0  0  0  0  0  0  0  0
  1  2  1  0  0  0  0
  1 26  1  0  0  0  0
  1 27  1  0  0  0  0
  1 28  1  0  0  0  0
  2  7  1  0  0  0  0
  2  3  2  0  0  0  0
  3  4  1  0  0  0  0
  3 29  1  0  0  0  0
  4 25  1  0  0  0  0
  4  5  1  0  0  0  0
  5  6  2  0  0  0  0
  5  9  1  0  0  0  0
  6  7  1  0  0  0  0
  7  8  2  0  0  0  0
  9 10  1  0  0  0  0
 10 25  1  0  0  0  0
 10 11  1  0  0  0  0
 10 30  1  0  0  0  0
 11 12  1  0  0  0  0
 11 13  1  0  0  0  0
 11 31  1  0  0  0  0
 12 32  1  0  0  0  0
 13 14  1  0  0  0  0
 13 24  1  0  0  0  0
 13 33  1  0  0  0  0
 14 15  1  0  0  0  0
 14 34  1  0  0  0  0
 14 35  1  0  0  0  0
 15 16  1  0  0  0  0
 16 17  2  0  0  0  0
 16 18  1  0  0  0  0
 18 23  1  0  0  0  0
 18 19  2  0  0  0  0
 19 20  1  0  0  0  0
 19 36  1  0  0  0  0
 20 21  2  0  0  0  0
 20 37  1  0  0  0  0
 21 22  1  0  0  0  0
 21 38  1  0  0  0  0
 22 23  2  0  0  0  0
 22 39  1  0  0  0  0
 23 40  1  0  0  0  0
 24 25  1  0  0  0  0
 25 41  1  0  0  0  0
M  END
> <s_m_source_file>
AV-unprocessed.smi

> <i_m_source_file_index>
12

> <i_lp_mmshare_version>
43012

> <i_f3d_flags>
0

> <s_epik_input>
W0NIM11jKFtjSF0xKWMoPU8pbmMobjEyKU9bQ0BIXTNbQ0BASF0yT1tDQEBIXShbQ0BASF0zW09IXSlbQ0gyXU9DKD1PKWM0W2NIXVtjSF1bY0hdW2NIXVtjSF00

> <s_epik_cmdline>
J2VwaWtfcHl0aG9uJywgJy1waCcsICc3LjAnLCAnLXRuJywgJzgnLCAnLW1hJywgJzIwMCcsICctbWV0YWxfYmluZGluZycsICctaW1hZScsICc8aW5maWxlLm1hZT4nLCAnLW9tYWUnLCAnPG91dGZpbGUubWFlPic=

> <r_lp_tautomer_probability>
0.933681

> <r_epik_Ionization_Penalty>
0.00399549

> <r_epik_Ionization_Penalty_Charging>
3.09373e-09

> <r_epik_Ionization_Penalty_Neutral>
0.00399549

> <r_epik_State_Penalty>
0.00284953

> <r_epik_Charging_Adjusted_Penalty>
0.00284953

> <i_epik_Tot_Q>
0

> <i_epik_Tot_abs_Q>
0

> <r_epik_Metal_State_Penalty>
-0

> <b_epik_Metal_Only>
0

> <s_epik_Chemistry_Notes>
This compound has an ester and may undergo hydrolysis at high or low pH. This compound contains an acetal/aminal-like group ( X-CH(R)-Y where X, Y are N, S, or O) that may be acid/base labile, releasing an aldehyde.

> <s_lp_Force_Field>
OPLS_2005

> <r_lp_Energy>
46.3609

> <b_lp_Chiralities_Consistent>
1

> <s_lp_Variant>
AV-unprocessed.smi:12-2

> <Gold.Version>
5.8.1

> <Gold.Id.Protein>
6NUR|6NUR_protein|mol2

> <Gold.PLP.Fitness>
49.9701

> <Gold.PLP.PLP>
-44.4474

> <Gold.PLP.part.hbond>
-2.0000

> <Gold.PLP.part.metal>
0.0000

> <Gold.PLP.part.buried>
-1.3196

> <Gold.PLP.part.nonpolar>
-41.2137

> <Gold.PLP.part.repulsive>
0.4258

> <Gold.PLP.ligand.clash>
0.0000

> <Gold.PLP.ligand.torsion>
0.9961

> <Gold.PLP.Chemscore.Hbond>
1.4992

> <Gold.PLP.Chemscore.CHOScore>
0.9957

> <Gold.PLP.Chemscore.Metal>
0.0000

> <Gold.Chemscore.Hbonds>
donor molecule, donor type, donor heavy atom, donor atom, acceptor molecule, acceptor atom, score
      P1  H  7997  8009       L1    17  0.94

> <Gold.PLP.Chemscore.Internal.Correction>
0.0302

> <Gold.Rescore>
     Score         DG    S(hbond)    S(metal)    S(lipo)     H(rot)  DE(clash)    DE(int)     intcor
     13.59     -15.47       0.93        0.00     106.54       2.18       1.26       0.62       ----

> <Gold.Chemscore.Fitness>
13.5888

> <Gold.Chemscore.DG>
-15.4737

> <Gold.Chemscore.ZeroCoef>
-5.4800

> <Gold.Chemscore.Hbond>
0.9309

> <Gold.Chemscore.Metal>
0.0000

> <Gold.Chemscore.Lipo>
106.5394

> <Gold.Chemscore.Internal_Hbond>
0.0000

> <Gold.Chemscore.DEClash>
1.2627

> <Gold.Chemscore.DEInternal>
0.6222

> <Gold.Chemscore.Rot>
2.1800

> <Gold.Chemscore.Internal.Correction>
   9.000000E+99

> <Gold.Chemscore.Hbonds>
donor molecule, donor type, donor heavy atom, donor atom, acceptor molecule, acceptor atom, score
      P1  H  7997  8009       L1    17  0.90

> <Gold.Chemscore.Hbond.Weighted>
-3.1093

> <Gold.Chemscore.Metal.Weighted>
-0.0000

> <Gold.Chemscore.Lipo.Weighted>
-12.4651

> <Gold.Chemscore.Internal_Hbond.Weighted>
0.0000

> <Gold.Chemscore.DEClash.Weighted>
1.2627

> <Gold.Chemscore.DEInternal.Weighted>
0.6222

> <Gold.Chemscore.Rot.Weighted>
5.5807

> <Gold.Chemscore.Internal.Correction.Weighted>
   9.000000E+99

> <Gold.Protein.RotatedTorsions>
[ 6907 6896 6895 6894 ] final  163.89 input  -60.11 | X-H torsion
[ 7974 7965 7964 7962 ] final  125.30 input  175.53 | X-H torsion
[ 8008 7997 7996 7995 ] final  140.80 input   59.86 | X-H torsion
[ 10167 10162 10161 10158 ] final   79.48 input  -65.29 | X-H torsion
[ 10718 10713 10712 10709 ] final   91.73 input   66.30 | X-H torsion
[ 10763 10752 10751 10750 ] final  -19.46 input  -60.55 | X-H torsion
[ 11005 11000 10999 10996 ] final  -12.07 input  -57.11 | X-H torsion

> <Gold.Protein.ActiveResidues>
 VAL166  LYS551  ARG553  GLY616  TRP617  ASP618  TYR619  PRO620  LYS621  CYS622 
 ASP623  PHE694  ASN695  SER759  ASP760  ASP761  ALA762  ILE779  LEU786  VAL792 
 PHE793  MET794  SER795  GLU796  ALA797  LYS798  CYS799  TRP800  GLU811  SER814 

> <Gold.Protein.RotatedAtoms>
  151.9182  133.3578  159.3887 H   0  0  0  0  0  0  0  0  0  0  0  0  # atno 6907 bound_to 6896
  150.7043  134.4662  159.5413 H   0  0  0  0  0  0  0  0  0  0  0  0  # atno 6908 bound_to 6896
  152.2281  134.8349  160.0528 H   0  0  0  0  0  0  0  0  0  0  0  0  # atno 6909 bound_to 6896
  145.0746  139.3703  143.4940 H   0  0  0  0  0  0  0  0  0  0  0  0  # atno 7974 bound_to 7965
  156.2974  140.2332  156.4460 H   0  0  0  0  0  0  0  0  0  0  0  0  # atno 8008 bound_to 7997
  154.8144  140.0441  157.1386 H   0  0  0  0  0  0  0  0  0  0  0  0  # atno 8009 bound_to 7997
  154.9387  140.3026  155.5135 H   0  0  0  0  0  0  0  0  0  0  0  0  # atno 8010 bound_to 7997
  139.9599  144.5968  150.8081 H   0  0  0  0  0  0  0  0  0  0  0  0  # atno 10167 bound_to 10162
  157.6960  131.0418  150.3773 H   0  0  0  0  0  0  0  0  0  0  0  0  # atno 10718 bound_to 10713
  153.6052  135.6998  153.5368 H   0  0  0  0  0  0  0  0  0  0  0  0  # atno 10763 bound_to 10752
  153.3063  135.4114  155.1296 H   0  0  0  0  0  0  0  0  0  0  0  0  # atno 10764 bound_to 10752
  154.8574  135.3661  154.5589 H   0  0  0  0  0  0  0  0  0  0  0  0  # atno 10765 bound_to 10752
  140.7619  133.8508  155.9132 H   0  0  0  0  0  0  0  0  0  0  0  0  # atno 11005 bound_to 11000
  146.3529  140.0507  142.8636 LP  0  0  0  0  0  0  0  0  0  0  0  0  # atno 17320 bound_to 7965
  145.1251  140.9485  143.4577 LP  0  0  0  0  0  0  0  0  0  0  0  0  # atno 17321 bound_to 7965
  140.7556  143.3050  151.2985 LP  0  0  0  0  0  0  0  0  0  0  0  0  # atno 17342 bound_to 10162
  139.6562  144.0272  152.2661 LP  0  0  0  0  0  0  0  0  0  0  0  0  # atno 17343 bound_to 10162
  156.4191  130.3949  149.6837 LP  0  0  0  0  0  0  0  0  0  0  0  0  # atno 17370 bound_to 10713
  156.4094  130.7714  151.2727 LP  0  0  0  0  0  0  0  0  0  0  0  0  # atno 17371 bound_to 10713
  140.9655  134.1600  157.4619 LP  0  0  0  0  0  0  0  0  0  0  0  0  # atno 17394 bound_to 11000
  139.8769  134.9960  156.5772 LP  0  0  0  0  0  0  0  0  0  0  0  0  # atno 17395 bound_to 11000

$$$$
