AV-unprocessed.smi:3082|AV-procd|sdf|11742|dock1
  -GOLD-   2272017133D 1   1.00000     0.00000
 Structure written by MMmdl.
 28 29  0  0  0  0  0  0  0  0  2 V2000
  152.0258  142.7029  158.5237 C   0  0  0  0  0  0  0  0  0  0  0  0
  151.3743  141.7354  157.5781 C   0  0  0  0  0  0  0  0  0  0  0  0
  151.3303  140.3156  157.6717 C   0  0  0  0  0  0  0  0  0  0  0  0
  150.6760  139.7553  156.6680 N   0  0  0  0  0  0  0  0  0  0  0  0
  150.2775  140.7929  155.8991 N   0  0  0  0  0  0  0  0  0  0  0  0
  149.5158  140.5555  154.6819 C   0  0  2  0  0  0  0  0  0  0  0  0
  148.1239  141.2164  154.7449 C   0  0  0  0  0  0  0  0  0  0  0  0
  147.3385  140.9289  153.4561 C   0  0  0  0  0  0  0  0  0  0  0  0
  147.2595  139.4167  153.1872 C   0  0  0  0  0  0  0  0  0  0  0  0
  148.6130  138.8214  153.1401 N   0  3  0  0  0  0  0  0  0  0  0  0
  149.3863  139.0468  154.3810 C   0  0  0  0  0  0  0  0  0  0  0  0
  150.6854  141.9996  156.4284 C   0  0  0  0  0  0  0  0  0  0  0  0
  152.4856  142.1947  159.3718 H   0  0  0  0  0  0  0  0  0  0  0  0
  151.3068  143.4154  158.9283 H   0  0  0  0  0  0  0  0  0  0  0  0
  152.8099  143.2790  158.0319 H   0  0  0  0  0  0  0  0  0  0  0  0
  151.7535  139.6791  158.4348 H   0  0  0  0  0  0  0  0  0  0  0  0
  150.0710  141.0163  153.8628 H   0  0  0  0  0  0  0  0  0  0  0  0
  147.5623  140.8377  155.6001 H   0  0  0  0  0  0  0  0  0  0  0  0
  148.2225  142.2929  154.8894 H   0  0  0  0  0  0  0  0  0  0  0  0
  146.3346  141.3479  153.5301 H   0  0  0  0  0  0  0  0  0  0  0  0
  147.8208  141.4272  152.6140 H   0  0  0  0  0  0  0  0  0  0  0  0
  146.6766  138.9223  153.9655 H   0  0  0  0  0  0  0  0  0  0  0  0
  146.7541  139.2265  152.2401 H   0  0  0  0  0  0  0  0  0  0  0  0
  148.5286  137.8271  152.9833 H   0  0  0  0  0  0  0  0  0  0  0  0
  150.3725  138.5956  154.2682 H   0  0  0  0  0  0  0  0  0  0  0  0
  148.8900  138.5264  155.2016 H   0  0  0  0  0  0  0  0  0  0  0  0
  150.4556  142.9395  155.9482 H   0  0  0  0  0  0  0  0  0  0  0  0
  149.1180  139.2317  152.3678 H   0  0  0  0  0  0  0  0  0  0  0  0
  1  2  1  0  0  0  0
  1 13  1  0  0  0  0
  1 14  1  0  0  0  0
  1 15  1  0  0  0  0
  2 12  2  0  0  0  0
  2  3  1  0  0  0  0
  3  4  2  0  0  0  0
  3 16  1  0  0  0  0
  4  5  1  0  0  0  0
  5  6  1  0  0  0  0
  5 12  1  0  0  0  0
  6 11  1  0  0  0  0
  6  7  1  0  0  0  0
  6 17  1  0  0  0  0
  7  8  1  0  0  0  0
  7 18  1  0  0  0  0
  7 19  1  0  0  0  0
  8  9  1  0  0  0  0
  8 20  1  0  0  0  0
  8 21  1  0  0  0  0
  9 10  1  0  0  0  0
  9 22  1  0  0  0  0
  9 23  1  0  0  0  0
 10 11  1  0  0  0  0
 10 24  1  0  0  0  0
 10 28  1  0  0  0  0
 11 25  1  0  0  0  0
 11 26  1  0  0  0  0
 12 27  1  0  0  0  0
M  CHG  1  10   1
M  END
> <s_m_source_file>
AV-unprocessed.smi

> <i_m_source_file_index>
3082

> <i_lp_mmshare_version>
43012

> <i_f3d_flags>
0

> <s_epik_input>
W0NIM11jMVtjSF1ubihbY0hdMSlbQ0BASF0yW0NIMl1bQ0gyXVtDSDJdW05IXVtDSDJdMg==

> <s_epik_cmdline>
J2VwaWtfcHl0aG9uJywgJy1waCcsICc3LjAnLCAnLXRuJywgJzgnLCAnLW1hJywgJzIwMCcsICctbWV0YWxfYmluZGluZycsICctaW1hZScsICc8aW5maWxlLm1hZT4nLCAnLW9tYWUnLCAnPG91dGZpbGUubWFlPic=

> <r_lp_tautomer_probability>
1

> <r_epik_Ionization_Penalty>
0.000667973

> <r_epik_Ionization_Penalty_Charging>
0.000651447

> <r_epik_Ionization_Penalty_Neutral>
1.65255e-05

> <r_epik_State_Penalty>
-0

> <r_epik_Charging_Adjusted_Penalty>
0.000651447

> <i_epik_Tot_Q>
1

> <i_epik_Tot_abs_Q>
1

> <r_epik_Metal_State_Penalty>
-0

> <b_epik_Metal_Only>
0

> <s_lp_Force_Field>
OPLS_2005

> <r_lp_Energy>
15.6496

> <b_lp_Chiralities_Consistent>
1

> <s_lp_Variant>
AV-unprocessed.smi:3082-1

> <Gold.Version>
5.8.1

> <Gold.Id.Protein>
6NUR|6NUR_protein|mol2

> <Gold.PLP.Fitness>
37.4848

> <Gold.PLP.PLP>
-25.7929

> <Gold.PLP.part.hbond>
-1.9638

> <Gold.PLP.part.metal>
0.0000

> <Gold.PLP.part.buried>
-3.2690

> <Gold.PLP.part.nonpolar>
-21.9499

> <Gold.PLP.part.repulsive>
0.0795

> <Gold.PLP.ligand.clash>
0.0000

> <Gold.PLP.ligand.torsion>
0.0299

> <Gold.PLP.Chemscore.Hbond>
2.9113

> <Gold.PLP.Chemscore.CHOScore>
1.0000

> <Gold.PLP.Chemscore.Metal>
0.0000

> <Gold.Chemscore.Hbonds>
donor molecule, donor type, donor heavy atom, donor atom, acceptor molecule, acceptor atom, score
      L1  H    10    24       P1  7948  1.92
      L1  H    10    28       P1  7957  0.98
      L1  C    12    27       P1  8028  1.00

> <Gold.PLP.Chemscore.Internal.Correction>
0.0179

> <Gold.Rescore>
     Score         DG    S(hbond)    S(metal)    S(lipo)     H(rot)  DE(clash)    DE(int)     intcor
     16.74     -16.76       1.88        0.00      64.55       1.00       0.00       0.01       ----

> <Gold.Chemscore.Fitness>
16.7382

> <Gold.Chemscore.DG>
-16.7557

> <Gold.Chemscore.ZeroCoef>
-5.4800

> <Gold.Chemscore.Hbond>
1.8811

> <Gold.Chemscore.Metal>
0.0000

> <Gold.Chemscore.Lipo>
64.5535

> <Gold.Chemscore.Internal_Hbond>
0.0000

> <Gold.Chemscore.DEClash>
0.0038

> <Gold.Chemscore.DEInternal>
0.0137

> <Gold.Chemscore.Rot>
1.0000

> <Gold.Chemscore.Internal.Correction>
   9.000000E+99

> <Gold.Chemscore.Hbonds>
donor molecule, donor type, donor heavy atom, donor atom, acceptor molecule, acceptor atom, score
      L1  H    10    24       P1  7948  0.90
      L1  H    10    28       P1  7957  0.92

> <Gold.Chemscore.Hbond.Weighted>
-6.2829

> <Gold.Chemscore.Metal.Weighted>
-0.0000

> <Gold.Chemscore.Lipo.Weighted>
-7.5528

> <Gold.Chemscore.Internal_Hbond.Weighted>
0.0000

> <Gold.Chemscore.DEClash.Weighted>
0.0038

> <Gold.Chemscore.DEInternal.Weighted>
0.0137

> <Gold.Chemscore.Rot.Weighted>
2.5600

> <Gold.Chemscore.Internal.Correction.Weighted>
   9.000000E+99

> <Gold.Protein.RotatedTorsions>
[ 6907 6896 6895 6894 ] final  142.01 input  -60.11 | X-H torsion
[ 7974 7965 7964 7962 ] final  -43.84 input  175.53 | X-H torsion
[ 8008 7997 7996 7995 ] final  114.73 input   59.86 | X-H torsion
[ 10167 10162 10161 10158 ] final   28.77 input  -65.29 | X-H torsion
[ 10718 10713 10712 10709 ] final  105.31 input   66.30 | X-H torsion
[ 10763 10752 10751 10750 ] final   58.47 input  -60.55 | X-H torsion
[ 11005 11000 10999 10996 ] final -178.88 input  -57.11 | X-H torsion

> <Gold.Protein.ActiveResidues>
 VAL166  LYS551  ARG553  GLY616  TRP617  ASP618  TYR619  PRO620  LYS621  CYS622 
 ASP623  PHE694  ASN695  SER759  ASP760  ASP761  ALA762  ILE779  LEU786  VAL792 
 PHE793  MET794  SER795  GLU796  ALA797  LYS798  CYS799  TRP800  GLU811  SER814 

> <Gold.Protein.RotatedAtoms>
  152.2240  133.5006  159.5178 H   0  0  0  0  0  0  0  0  0  0  0  0  # atno 6907 bound_to 6896
  150.7020  134.1304  159.4077 H   0  0  0  0  0  0  0  0  0  0  0  0  # atno 6908 bound_to 6896
  151.9225  135.0292  160.0574 H   0  0  0  0  0  0  0  0  0  0  0  0  # atno 6909 bound_to 6896
  145.9980  140.7107  142.9284 H   0  0  0  0  0  0  0  0  0  0  0  0  # atno 7974 bound_to 7965
  156.2339  140.2953  156.0259 H   0  0  0  0  0  0  0  0  0  0  0  0  # atno 8008 bound_to 7997
  155.2148  140.0413  157.2956 H   0  0  0  0  0  0  0  0  0  0  0  0  # atno 8009 bound_to 7997
  154.6043  140.2435  155.7759 H   0  0  0  0  0  0  0  0  0  0  0  0  # atno 8010 bound_to 7997
  140.4824  144.0595  150.6269 H   0  0  0  0  0  0  0  0  0  0  0  0  # atno 10167 bound_to 10162
  157.6710  131.0824  150.5837 H   0  0  0  0  0  0  0  0  0  0  0  0  # atno 10718 bound_to 10713
  152.9872  135.5605  154.5558 H   0  0  0  0  0  0  0  0  0  0  0  0  # atno 10763 bound_to 10752
  154.4986  135.2796  155.1441 H   0  0  0  0  0  0  0  0  0  0  0  0  # atno 10764 bound_to 10752
  154.2880  135.6331  153.5427 H   0  0  0  0  0  0  0  0  0  0  0  0  # atno 10765 bound_to 10752
  140.4249  134.6572  157.4683 H   0  0  0  0  0  0  0  0  0  0  0  0  # atno 11005 bound_to 11000
  144.6910  140.3184  143.7236 LP  0  0  0  0  0  0  0  0  0  0  0  0  # atno 17320 bound_to 7965
  145.7531  139.1800  143.2310 LP  0  0  0  0  0  0  0  0  0  0  0  0  # atno 17321 bound_to 7965
  140.3841  143.2787  152.0137 LP  0  0  0  0  0  0  0  0  0  0  0  0  # atno 17342 bound_to 10162
  139.4836  144.6131  151.7397 LP  0  0  0  0  0  0  0  0  0  0  0  0  # atno 17343 bound_to 10162
  156.6138  130.4387  149.5848 LP  0  0  0  0  0  0  0  0  0  0  0  0  # atno 17370 bound_to 10713
  156.2409  130.6851  151.1555 LP  0  0  0  0  0  0  0  0  0  0  0  0  # atno 17371 bound_to 10713
  140.0174  134.6598  155.9289 LP  0  0  0  0  0  0  0  0  0  0  0  0  # atno 17394 bound_to 11000
  141.1769  133.6541  156.4864 LP  0  0  0  0  0  0  0  0  0  0  0  0  # atno 17395 bound_to 11000

$$$$
