AV-unprocessed.smi:1224|AV-procd|sdf|5129|dock8
  -GOLD-   22720 4183D 1   1.00000     0.00000
 Structure written by MMmdl.
 44 46  0  0  0  0  0  0  0  0  2 V2000
  151.1608  141.5114  157.8948 C   0  0  0  0  0  0  0  0  0  0  0  0
  150.3518  141.1065  156.6752 C   0  0  0  0  0  0  0  0  0  0  0  0
  149.0655  141.6612  156.4887 C   0  0  0  0  0  0  0  0  0  0  0  0
  148.2830  141.3138  155.3658 C   0  0  0  0  0  0  0  0  0  0  0  0
  147.0178  141.7296  154.9876 N   0  0  0  0  0  0  0  0  0  0  0  0
  146.8411  141.0556  153.8549 C   0  0  0  0  0  0  0  0  0  0  0  0
  147.8433  140.2492  153.4549 N   0  0  0  0  0  0  0  0  0  0  0  0
  147.8835  139.4195  152.2643 C   0  0  0  0  0  0  0  0  0  0  0  0
  146.4866  138.9183  151.8512 C   0  0  1  0  0  0  0  0  0  0  0  0
  146.4507  138.7364  150.4483 O   0  0  0  0  0  0  0  0  0  0  0  0
  146.1245  137.5911  152.5363 C   0  0  0  0  0  0  0  0  0  0  0  0
  146.1102  136.4749  151.5665 N   0  3  0  0  0  0  0  0  0  0  0  0
  145.1304  135.4072  151.8562 C   0  0  0  0  0  0  0  0  0  0  0  0
  145.3135  134.2058  150.9863 C   0  0  0  0  0  0  0  0  0  0  0  0
  144.3934  133.6282  150.1484 C   0  0  0  0  0  0  0  0  0  0  0  0
  144.8980  132.4831  149.4658 C   0  0  0  0  0  0  0  0  0  0  0  0
  146.1978  132.2015  149.7918 C   0  0  0  0  0  0  0  0  0  0  0  0
  146.8292  133.3409  150.9488 S   0  0  0  0  0  0  0  0  0  0  0  0
  148.8267  140.3883  154.4279 C   0  0  0  0  0  0  0  0  0  0  0  0
  150.1044  139.8284  154.6029 C   0  0  0  0  0  0  0  0  0  0  0  0
  150.8732  140.1870  155.7298 C   0  0  0  0  0  0  0  0  0  0  0  0
  152.2531  139.5791  155.9094 C   0  0  0  0  0  0  0  0  0  0  0  0
  150.6043  142.1989  158.5323 H   0  0  0  0  0  0  0  0  0  0  0  0
  152.0830  142.0076  157.5919 H   0  0  0  0  0  0  0  0  0  0  0  0
  151.4175  140.6365  158.4923 H   0  0  0  0  0  0  0  0  0  0  0  0
  148.6684  142.3620  157.2083 H   0  0  0  0  0  0  0  0  0  0  0  0
  145.9290  141.1516  153.2842 H   0  0  0  0  0  0  0  0  0  0  0  0
  148.3439  139.9882  151.4548 H   0  0  0  0  0  0  0  0  0  0  0  0
  148.5434  138.5748  152.4653 H   0  0  0  0  0  0  0  0  0  0  0  0
  145.7452  139.6735  152.1170 H   0  0  0  0  0  0  0  0  0  0  0  0
  145.5482  138.7059  150.1684 H   0  0  0  0  0  0  0  0  0  0  0  0
  146.8234  137.3814  153.3472 H   0  0  0  0  0  0  0  0  0  0  0  0
  145.1320  137.6690  152.9825 H   0  0  0  0  0  0  0  0  0  0  0  0
  145.8971  136.8567  150.6561 H   0  0  0  0  0  0  0  0  0  0  0  0
  145.1967  135.1289  152.9087 H   0  0  0  0  0  0  0  0  0  0  0  0
  144.1299  135.8143  151.7070 H   0  0  0  0  0  0  0  0  0  0  0  0
  143.3838  133.9833  150.0029 H   0  0  0  0  0  0  0  0  0  0  0  0
  144.2992  131.9144  148.7696 H   0  0  0  0  0  0  0  0  0  0  0  0
  146.8202  131.3989  149.4240 H   0  0  0  0  0  0  0  0  0  0  0  0
  150.4897  139.1299  153.8751 H   0  0  0  0  0  0  0  0  0  0  0  0
  152.5040  138.9117  155.0845 H   0  0  0  0  0  0  0  0  0  0  0  0
  152.2985  139.0016  156.8329 H   0  0  0  0  0  0  0  0  0  0  0  0
  153.0128  140.3598  155.9508 H   0  0  0  0  0  0  0  0  0  0  0  0
  147.0337  136.0669  151.5325 H   0  0  0  0  0  0  0  0  0  0  0  0
  1  2  1  0  0  0  0
  1 23  1  0  0  0  0
  1 24  1  0  0  0  0
  1 25  1  0  0  0  0
  2 21  1  0  0  0  0
  2  3  2  0  0  0  0
  3  4  1  0  0  0  0
  3 26  1  0  0  0  0
  4 19  2  0  0  0  0
  4  5  1  0  0  0  0
  5  6  2  0  0  0  0
  6  7  1  0  0  0  0
  6 27  1  0  0  0  0
  7  8  1  0  0  0  0
  7 19  1  0  0  0  0
  8  9  1  0  0  0  0
  8 28  1  0  0  0  0
  8 29  1  0  0  0  0
  9 10  1  0  0  0  0
  9 11  1  0  0  0  0
  9 30  1  0  0  0  0
 10 31  1  0  0  0  0
 11 12  1  0  0  0  0
 11 32  1  0  0  0  0
 11 33  1  0  0  0  0
 12 13  1  0  0  0  0
 12 34  1  0  0  0  0
 12 44  1  0  0  0  0
 13 14  1  0  0  0  0
 13 35  1  0  0  0  0
 13 36  1  0  0  0  0
 14 18  1  0  0  0  0
 14 15  2  0  0  0  0
 15 16  1  0  0  0  0
 15 37  1  0  0  0  0
 16 17  2  0  0  0  0
 16 38  1  0  0  0  0
 17 18  1  0  0  0  0
 17 39  1  0  0  0  0
 19 20  1  0  0  0  0
 20 21  2  0  0  0  0
 20 40  1  0  0  0  0
 21 22  1  0  0  0  0
 22 41  1  0  0  0  0
 22 42  1  0  0  0  0
 22 43  1  0  0  0  0
M  CHG  1  12   1
M  END
> <s_m_source_file>
AV-unprocessed.smi

> <i_m_source_file_index>
1224

> <i_lp_mmshare_version>
43012

> <i_f3d_flags>
0

> <s_epik_input>
W0NIM11jKFtjSF0xKWMoW0NIM10pW2NIXWMoYzEyKW4oW2NIXW4yKVtDSDJdW0NASF0oW09IXSlbQ0gyXVtOSF1bQ0gyXWMzW2NIXVtjSF1bY0hdczM=

> <s_epik_cmdline>
J2VwaWtfcHl0aG9uJywgJy1waCcsICc3LjAnLCAnLXRuJywgJzgnLCAnLW1hJywgJzIwMCcsICctbWV0YWxfYmluZGluZycsICctaW1hZScsICc8aW5maWxlLm1hZT4nLCAnLW9tYWUnLCAnPG91dGZpbGUubWFlPic=

> <r_epik_Ionization_Penalty>
0.145091

> <r_epik_Ionization_Penalty_Charging>
0.0551904

> <r_epik_Ionization_Penalty_Neutral>
0.0899003

> <r_epik_State_Penalty>
0.131364

> <r_epik_Charging_Adjusted_Penalty>
0.186554

> <i_epik_Tot_Q>
1

> <i_epik_Tot_abs_Q>
1

> <r_epik_Metal_State_Penalty>
0.0472291

> <b_epik_Metal_Only>
0

> <s_lp_Force_Field>
OPLS_2005

> <r_lp_Energy>
7.75101

> <b_lp_Chiralities_Consistent>
1

> <s_lp_Variant>
AV-unprocessed.smi:1224-2

> <Gold.Version>
5.8.1

> <Gold.Id.Protein>
6NUR|6NUR_protein|mol2

> <Gold.PLP.Fitness>
54.8894

> <Gold.PLP.PLP>
-41.1900

> <Gold.PLP.part.hbond>
-3.0000

> <Gold.PLP.part.metal>
0.0000

> <Gold.PLP.part.buried>
5.1128

> <Gold.PLP.part.nonpolar>
-44.5188

> <Gold.PLP.part.repulsive>
0.1797

> <Gold.PLP.ligand.clash>
0.0000

> <Gold.PLP.ligand.torsion>
1.6646

> <Gold.PLP.Chemscore.Hbond>
3.7040

> <Gold.PLP.Chemscore.CHOScore>
1.9460

> <Gold.PLP.Chemscore.Metal>
0.0000

> <Gold.Chemscore.Hbonds>
donor molecule, donor type, donor heavy atom, donor atom, acceptor molecule, acceptor atom, score
      L1  H    10    31       P1 10171  1.00
      L1  H    12    44       P1  7948  2.00
      P1  H  7954  7966       L1    10  0.69
      L1  C     6    27       P1 10175  1.00
      L1  C    17    39       P1 10747  0.92

> <Gold.PLP.Chemscore.Internal.Correction>
0.0786

> <Gold.Rescore>
     Score         DG    S(hbond)    S(metal)    S(lipo)     H(rot)  DE(clash)    DE(int)     intcor
     17.90     -21.81       2.71        0.00     115.34       2.42       2.28       1.63       ----

> <Gold.Chemscore.Fitness>
17.8957

> <Gold.Chemscore.DG>
-21.8076

> <Gold.Chemscore.ZeroCoef>
-5.4800

> <Gold.Chemscore.Hbond>
2.7060

> <Gold.Chemscore.Metal>
0.0000

> <Gold.Chemscore.Lipo>
115.3426

> <Gold.Chemscore.Internal_Hbond>
0.0000

> <Gold.Chemscore.DEClash>
2.2802

> <Gold.Chemscore.DEInternal>
1.6316

> <Gold.Chemscore.Rot>
2.4240

> <Gold.Chemscore.Internal.Correction>
   9.000000E+99

> <Gold.Chemscore.Hbonds>
donor molecule, donor type, donor heavy atom, donor atom, acceptor molecule, acceptor atom, score
      L1  H    10    31       P1 10171  1.00
      L1  H    12    44       P1  7948  0.94
      P1  H  7954  7966       L1    10  0.48

> <Gold.Chemscore.Hbond.Weighted>
-9.0380

> <Gold.Chemscore.Metal.Weighted>
-0.0000

> <Gold.Chemscore.Lipo.Weighted>
-13.4951

> <Gold.Chemscore.Internal_Hbond.Weighted>
0.0000

> <Gold.Chemscore.DEClash.Weighted>
2.2802

> <Gold.Chemscore.DEInternal.Weighted>
1.6316

> <Gold.Chemscore.Rot.Weighted>
6.2055

> <Gold.Chemscore.Internal.Correction.Weighted>
   9.000000E+99

> <Gold.Protein.RotatedTorsions>
[ 6907 6896 6895 6894 ] final    8.05 input  -60.11 | X-H torsion
[ 7974 7965 7964 7962 ] final   10.07 input  175.53 | X-H torsion
[ 8008 7997 7996 7995 ] final -170.65 input   59.86 | X-H torsion
[ 10167 10162 10161 10158 ] final -109.94 input  -65.29 | X-H torsion
[ 10718 10713 10712 10709 ] final   91.93 input   66.30 | X-H torsion
[ 10763 10752 10751 10750 ] final   78.96 input  -60.55 | X-H torsion
[ 11005 11000 10999 10996 ] final  131.59 input  -57.11 | X-H torsion

> <Gold.Protein.ActiveResidues>
 VAL166  LYS551  ARG553  GLY616  TRP617  ASP618  TYR619  PRO620  LYS621  CYS622 
 ASP623  PHE694  ASN695  SER759  ASP760  ASP761  ALA762  ILE779  LEU786  VAL792 
 PHE793  MET794  SER795  GLU796  ALA797  LYS798  CYS799  TRP800  GLU811  SER814 

> <Gold.Protein.RotatedAtoms>
  151.6997  135.0932  160.0248 H   0  0  0  0  0  0  0  0  0  0  0  0  # atno 6907 bound_to 6896
  152.3728  133.6437  159.6108 H   0  0  0  0  0  0  0  0  0  0  0  0  # atno 6908 bound_to 6896
  150.7686  133.9159  159.3425 H   0  0  0  0  0  0  0  0  0  0  0  0  # atno 6909 bound_to 6896
  146.2394  139.9689  142.8449 H   0  0  0  0  0  0  0  0  0  0  0  0  # atno 7974 bound_to 7965
  155.9211  140.1074  157.1206 H   0  0  0  0  0  0  0  0  0  0  0  0  # atno 8008 bound_to 7997
  154.4054  140.1255  156.4746 H   0  0  0  0  0  0  0  0  0  0  0  0  # atno 8009 bound_to 7997
  155.7194  140.3470  155.5011 H   0  0  0  0  0  0  0  0  0  0  0  0  # atno 8010 bound_to 7997
  140.1498  143.4208  152.1503 H   0  0  0  0  0  0  0  0  0  0  0  0  # atno 10167 bound_to 10162
  157.6959  131.0425  150.3805 H   0  0  0  0  0  0  0  0  0  0  0  0  # atno 10718 bound_to 10713
  153.0915  135.4858  154.8698 H   0  0  0  0  0  0  0  0  0  0  0  0  # atno 10763 bound_to 10752
  154.7274  135.3052  154.8950 H   0  0  0  0  0  0  0  0  0  0  0  0  # atno 10764 bound_to 10752
  153.9596  135.6814  153.4798 H   0  0  0  0  0  0  0  0  0  0  0  0  # atno 10765 bound_to 10752
  139.9739  134.9569  156.9460 H   0  0  0  0  0  0  0  0  0  0  0  0  # atno 11005 bound_to 11000
  145.1700  140.9716  143.4327 LP  0  0  0  0  0  0  0  0  0  0  0  0  # atno 17320 bound_to 7965
  145.0037  139.3574  143.6154 LP  0  0  0  0  0  0  0  0  0  0  0  0  # atno 17321 bound_to 7965
  139.5431  144.7275  151.4669 LP  0  0  0  0  0  0  0  0  0  0  0  0  # atno 17342 bound_to 10162
  140.6709  143.8295  150.6999 LP  0  0  0  0  0  0  0  0  0  0  0  0  # atno 17343 bound_to 10162
  156.4219  130.3954  149.6819 LP  0  0  0  0  0  0  0  0  0  0  0  0  # atno 17370 bound_to 10713
  156.4066  130.7701  151.2712 LP  0  0  0  0  0  0  0  0  0  0  0  0  # atno 17371 bound_to 10713
  140.5235  134.0884  155.7298 LP  0  0  0  0  0  0  0  0  0  0  0  0  # atno 17394 bound_to 11000
  141.1417  133.9126  157.2309 LP  0  0  0  0  0  0  0  0  0  0  0  0  # atno 17395 bound_to 11000

$$$$
