AV-unprocessed.smi:2106|AV-procd|sdf|8595|dock8
  -GOLD-   2272011333D 1   1.00000     0.00000
 Structure written by MMmdl.
 47 48  0  0  0  0  0  0  0  0  1 V2000
  150.8583  141.6676  157.0248 C   0  0  0  0  0  0  0  0  0  0  0  0
  150.7842  142.7880  158.0197 C   0  0  0  0  0  0  0  0  0  0  0  0
  151.8459  143.5880  158.5268 C   0  0  0  0  0  0  0  0  0  0  0  0
  151.2358  144.4470  159.3970 C   0  0  0  0  0  0  0  0  0  0  0  0
  151.8176  145.5288  160.2465 C   0  0  0  0  0  0  0  0  0  0  0  0
  149.8854  144.1440  159.3794 N   0  0  0  0  0  0  0  0  0  0  0  0
  148.7969  144.7504  160.1292 C   0  0  0  0  0  0  0  0  0  0  0  0
  147.4784  144.0203  159.8725 C   0  0  0  0  0  0  0  0  0  0  0  0
  146.9251  143.4122  160.7885 O   0  0  0  0  0  0  0  0  0  0  0  0
  146.9904  144.0895  158.6242 N   0  0  0  0  0  0  0  0  0  0  0  0
  145.7409  143.4896  158.1683 C   0  0  0  0  0  0  0  0  0  0  0  0
  145.7677  143.2021  156.6540 C   0  0  0  0  0  0  0  0  0  0  0  0
  146.6689  142.1306  156.2297 N   0  0  0  0  0  0  0  0  0  0  0  0
  146.2492  140.8427  156.7651 C   0  0  0  0  0  0  0  0  0  0  0  0
  147.2238  139.7162  156.3765 C   0  0  1  0  0  0  0  0  0  0  0  0
  146.7435  138.3447  156.8623 C   0  0  0  0  0  0  0  0  0  0  0  0
  147.3479  139.6642  154.9563 O   0  0  0  0  0  0  0  0  0  0  0  0
  147.7207  140.8936  154.3313 C   0  0  2  0  0  0  0  0  0  0  0  0
  149.2072  141.2206  154.5539 C   0  0  0  0  0  0  0  0  0  0  0  0
  146.7749  142.0267  154.7761 C   0  0  0  0  0  0  0  0  0  0  0  0
  149.6128  143.1267  158.5325 N   0  0  0  0  0  0  0  0  0  0  0  0
  151.8791  141.5228  156.6702 H   0  0  0  0  0  0  0  0  0  0  0  0
  150.2316  141.8708  156.1563 H   0  0  0  0  0  0  0  0  0  0  0  0
  150.5244  140.7284  157.4666 H   0  0  0  0  0  0  0  0  0  0  0  0
  152.8982  143.5372  158.2892 H   0  0  0  0  0  0  0  0  0  0  0  0
  152.8895  145.6256  160.0731 H   0  0  0  0  0  0  0  0  0  0  0  0
  151.6679  145.3153  161.3047 H   0  0  0  0  0  0  0  0  0  0  0  0
  151.3561  146.4910  160.0241 H   0  0  0  0  0  0  0  0  0  0  0  0
  149.0324  144.7243  161.1934 H   0  0  0  0  0  0  0  0  0  0  0  0
  148.7097  145.8026  159.8527 H   0  0  0  0  0  0  0  0  0  0  0  0
  147.5227  144.6062  157.9394 H   0  0  0  0  0  0  0  0  0  0  0  0
  145.6254  142.5463  158.7021 H   0  0  0  0  0  0  0  0  0  0  0  0
  144.8799  144.0946  158.4543 H   0  0  0  0  0  0  0  0  0  0  0  0
  144.7504  142.9552  156.3466 H   0  0  0  0  0  0  0  0  0  0  0  0
  146.0215  144.1195  156.1210 H   0  0  0  0  0  0  0  0  0  0  0  0
  146.1843  140.8993  157.8524 H   0  0  0  0  0  0  0  0  0  0  0  0
  145.2474  140.6020  156.4055 H   0  0  0  0  0  0  0  0  0  0  0  0
  148.2014  139.9128  156.8179 H   0  0  0  0  0  0  0  0  0  0  0  0
  146.6419  138.3258  157.9478 H   0  0  0  0  0  0  0  0  0  0  0  0
  147.4501  137.5635  156.5810 H   0  0  0  0  0  0  0  0  0  0  0  0
  145.7754  138.0897  156.4305 H   0  0  0  0  0  0  0  0  0  0  0  0
  147.5847  140.7458  153.2597 H   0  0  0  0  0  0  0  0  0  0  0  0
  149.4997  142.0996  153.9793 H   0  0  0  0  0  0  0  0  0  0  0  0
  149.8404  140.3926  154.2352 H   0  0  0  0  0  0  0  0  0  0  0  0
  149.4294  141.4290  155.6002 H   0  0  0  0  0  0  0  0  0  0  0  0
  145.7853  141.8455  154.3538 H   0  0  0  0  0  0  0  0  0  0  0  0
  147.1230  142.9650  154.3467 H   0  0  0  0  0  0  0  0  0  0  0  0
  1  2  1  0  0  0  0
  1 22  1  0  0  0  0
  1 23  1  0  0  0  0
  1 24  1  0  0  0  0
  2 21  2  0  0  0  0
  2  3  1  0  0  0  0
  3  4  2  0  0  0  0
  3 25  1  0  0  0  0
  4  5  1  0  0  0  0
  4  6  1  0  0  0  0
  5 26  1  0  0  0  0
  5 27  1  0  0  0  0
  5 28  1  0  0  0  0
  6  7  1  0  0  0  0
  6 21  1  0  0  0  0
  7  8  1  0  0  0  0
  7 29  1  0  0  0  0
  7 30  1  0  0  0  0
  8  9  2  0  0  0  0
  8 10  1  0  0  0  0
 10 11  1  0  0  0  0
 10 31  1  0  0  0  0
 11 12  1  0  0  0  0
 11 32  1  0  0  0  0
 11 33  1  0  0  0  0
 12 13  1  0  0  0  0
 12 34  1  0  0  0  0
 12 35  1  0  0  0  0
 13 20  1  0  0  0  0
 13 14  1  0  0  0  0
 14 15  1  0  0  0  0
 14 36  1  0  0  0  0
 14 37  1  0  0  0  0
 15 16  1  0  0  0  0
 15 17  1  0  0  0  0
 15 38  1  0  0  0  0
 16 39  1  0  0  0  0
 16 40  1  0  0  0  0
 16 41  1  0  0  0  0
 17 18  1  0  0  0  0
 18 19  1  0  0  0  0
 18 20  1  0  0  0  0
 18 42  1  0  0  0  0
 19 43  1  0  0  0  0
 19 44  1  0  0  0  0
 19 45  1  0  0  0  0
 20 46  1  0  0  0  0
 20 47  1  0  0  0  0
M  END
> <s_m_source_file>
AV-unprocessed.smi

> <i_m_source_file_index>
2106

> <i_lp_mmshare_version>
43012

> <i_f3d_flags>
0

> <s_epik_input>
W0NIM11jMVtjSF1jKFtDSDNdKW4objEpW0NIMl1DKD1PKVtOSF1bQ0gyXVtDSDJdTjJbQ0gyXVtDQEBIXShbQ0gzXSlPW0NAQEhdKFtDSDNdKVtDSDJdMg==

> <s_epik_cmdline>
J2VwaWtfcHl0aG9uJywgJy1waCcsICc3LjAnLCAnLXRuJywgJzgnLCAnLW1hJywgJzIwMCcsICctbWV0YWxfYmluZGluZycsICctaW1hZScsICc8aW5maWxlLm1hZT4nLCAnLW9tYWUnLCAnPG91dGZpbGUubWFlPic=

> <r_lp_tautomer_probability>
1

> <r_epik_Ionization_Penalty>
0.197284

> <r_epik_Ionization_Penalty_Charging>
0

> <r_epik_Ionization_Penalty_Neutral>
0.197284

> <r_epik_State_Penalty>
0.186684

> <r_epik_Charging_Adjusted_Penalty>
0.186684

> <i_epik_Tot_Q>
0

> <i_epik_Tot_abs_Q>
0

> <r_epik_Metal_State_Penalty>
0.186634

> <b_epik_Metal_Only>
0

> <s_lp_Force_Field>
OPLS_2005

> <r_lp_Energy>
25.1516

> <b_lp_Chiralities_Consistent>
1

> <s_lp_Variant>
AV-unprocessed.smi:2106-3

> <Gold.Version>
5.8.1

> <Gold.Id.Protein>
6NUR|6NUR_protein|mol2

> <Gold.PLP.Fitness>
41.3800

> <Gold.PLP.PLP>
-35.3830

> <Gold.PLP.part.hbond>
-2.6559

> <Gold.PLP.part.metal>
0.0000

> <Gold.PLP.part.buried>
-4.2164

> <Gold.PLP.part.nonpolar>
-29.0352

> <Gold.PLP.part.repulsive>
0.4614

> <Gold.PLP.ligand.clash>
0.0000

> <Gold.PLP.ligand.torsion>
0.2674

> <Gold.PLP.Chemscore.Hbond>
2.1716

> <Gold.PLP.Chemscore.CHOScore>
0.0000

> <Gold.PLP.Chemscore.Metal>
0.0000

> <Gold.Chemscore.Hbonds>
donor molecule, donor type, donor heavy atom, donor atom, acceptor molecule, acceptor atom, score
      L1  H    10    31       P1  8029  0.98
      P1  H  6933  6944       L1     9  0.95

> <Gold.PLP.Chemscore.Internal.Correction>
0.0169

> <Gold.Rescore>
     Score         DG    S(hbond)    S(metal)    S(lipo)     H(rot)  DE(clash)    DE(int)     intcor
     15.51     -17.15       1.94        0.00      80.66       1.67       0.05       1.59       ----

> <Gold.Chemscore.Fitness>
15.5063

> <Gold.Chemscore.DG>
-17.1468

> <Gold.Chemscore.ZeroCoef>
-5.4800

> <Gold.Chemscore.Hbond>
1.9443

> <Gold.Chemscore.Metal>
0.0000

> <Gold.Chemscore.Lipo>
80.6558

> <Gold.Chemscore.Internal_Hbond>
0.0000

> <Gold.Chemscore.DEClash>
0.0462

> <Gold.Chemscore.DEInternal>
1.5942

> <Gold.Chemscore.Rot>
1.6657

> <Gold.Chemscore.Internal.Correction>
   9.000000E+99

> <Gold.Chemscore.Hbonds>
donor molecule, donor type, donor heavy atom, donor atom, acceptor molecule, acceptor atom, score
      L1  H    10    31       P1  8029  0.39
      P1  H  6933  6944       L1     9  0.21

> <Gold.Chemscore.Hbond.Weighted>
-6.4941

> <Gold.Chemscore.Metal.Weighted>
-0.0000

> <Gold.Chemscore.Lipo.Weighted>
-9.4367

> <Gold.Chemscore.Internal_Hbond.Weighted>
0.0000

> <Gold.Chemscore.DEClash.Weighted>
0.0462

> <Gold.Chemscore.DEInternal.Weighted>
1.5942

> <Gold.Chemscore.Rot.Weighted>
4.2641

> <Gold.Chemscore.Internal.Correction.Weighted>
   9.000000E+99

> <Gold.Protein.RotatedTorsions>
[ 6907 6896 6895 6894 ] final -107.57 input  -60.11 | X-H torsion
[ 7974 7965 7964 7962 ] final  -76.86 input  175.53 | X-H torsion
[ 8008 7997 7996 7995 ] final  -89.59 input   59.86 | X-H torsion
[ 10167 10162 10161 10158 ] final  -81.36 input  -65.29 | X-H torsion
[ 10718 10713 10712 10709 ] final -120.64 input   66.30 | X-H torsion
[ 10763 10752 10751 10750 ] final -170.64 input  -60.55 | X-H torsion
[ 11005 11000 10999 10996 ] final  177.58 input  -57.11 | X-H torsion

> <Gold.Protein.ActiveResidues>
 VAL166  LYS551  ARG553  GLY616  TRP617  ASP618  TYR619  PRO620  LYS621  CYS622 
 ASP623  PHE694  ASN695  SER759  ASP760  ASP761  ALA762  ILE779  LEU786  VAL792 
 PHE793  MET794  SER795  GLU796  ALA797  LYS798  CYS799  TRP800  GLU811  SER814 

> <Gold.Protein.RotatedAtoms>
  150.7451  133.9807  159.3574 H   0  0  0  0  0  0  0  0  0  0  0  0  # atno 6907 bound_to 6896
  151.7747  135.0775  160.0374 H   0  0  0  0  0  0  0  0  0  0  0  0  # atno 6908 bound_to 6896
  152.3315  133.5926  159.5849 H   0  0  0  0  0  0  0  0  0  0  0  0  # atno 6909 bound_to 6896
  145.6073  140.9395  143.1208 H   0  0  0  0  0  0  0  0  0  0  0  0  # atno 7974 bound_to 7965
  154.6884  140.0540  157.0338 H   0  0  0  0  0  0  0  0  0  0  0  0  # atno 8008 bound_to 7997
  155.0852  140.3213  155.4571 H   0  0  0  0  0  0  0  0  0  0  0  0  # atno 8009 bound_to 7997
  156.2719  140.2058  156.5979 H   0  0  0  0  0  0  0  0  0  0  0  0  # atno 8010 bound_to 7997
  140.4419  143.2512  151.8614 H   0  0  0  0  0  0  0  0  0  0  0  0  # atno 10167 bound_to 10162
  156.1274  130.6370  150.9566 H   0  0  0  0  0  0  0  0  0  0  0  0  # atno 10718 bound_to 10713
  154.6393  135.2896  155.0123 H   0  0  0  0  0  0  0  0  0  0  0  0  # atno 10763 bound_to 10752
  154.1256  135.6541  153.4915 H   0  0  0  0  0  0  0  0  0  0  0  0  # atno 10764 bound_to 10752
  153.0318  135.5298  154.7252 H   0  0  0  0  0  0  0  0  0  0  0  0  # atno 10765 bound_to 10752
  140.3857  134.6907  157.4478 H   0  0  0  0  0  0  0  0  0  0  0  0  # atno 11005 bound_to 11000
  144.7285  139.7801  143.7356 LP  0  0  0  0  0  0  0  0  0  0  0  0  # atno 17320 bound_to 7965
  146.1531  139.4620  143.0036 LP  0  0  0  0  0  0  0  0  0  0  0  0  # atno 17321 bound_to 7965
  139.4790  144.5220  151.8788 LP  0  0  0  0  0  0  0  0  0  0  0  0  # atno 17342 bound_to 10162
  140.4309  144.2117  150.5888 LP  0  0  0  0  0  0  0  0  0  0  0  0  # atno 17343 bound_to 10162
  157.6455  131.0904  150.8162 LP  0  0  0  0  0  0  0  0  0  0  0  0  # atno 17370 bound_to 10713
  156.8251  130.4997  149.5338 LP  0  0  0  0  0  0  0  0  0  0  0  0  # atno 17371 bound_to 10713
  140.0444  134.6220  155.8939 LP  0  0  0  0  0  0  0  0  0  0  0  0  # atno 17394 bound_to 11000
  141.1908  133.6569  156.5429 LP  0  0  0  0  0  0  0  0  0  0  0  0  # atno 17395 bound_to 11000

$$$$
