AV-unprocessed.smi:254|AV-procd|sdf|1946|dock10
  -GOLD-   2262021 83D 1   1.00000     0.00000
 Structure written by MMmdl.
 50 53  0  0  0  0  0  0  0  0  1 V2000
  152.6486  141.1739  159.7621 O   0  0  0  0  0  0  0  0  0  0  0  0
  151.7801  141.1195  158.8928 C   0  0  0  0  0  0  0  0  0  0  0  0
  151.5684  139.9048  158.0077 C   0  0  0  0  0  0  0  0  0  0  0  0
  150.4459  140.3399  157.1856 N   0  0  0  0  0  0  0  0  0  0  0  0
  149.8549  139.5464  156.2552 C   0  0  0  0  0  0  0  0  0  0  0  0
  149.4667  140.1142  155.0831 N   0  0  0  0  0  0  0  0  0  0  0  0
  148.8787  139.3812  154.1342 C   0  0  0  0  0  0  0  0  0  0  0  0
  148.5879  138.0802  154.1474 N   0  0  0  0  0  0  0  0  0  0  0  0
  148.9757  137.4980  155.3176 C   0  0  0  0  0  0  0  0  0  0  0  0
  149.6060  138.1504  156.4170 C   0  0  0  0  0  0  0  0  0  0  0  0
  149.8350  137.2277  157.4319 N   0  0  0  0  0  0  0  0  0  0  0  0
  149.3694  136.1036  156.9621 C   0  0  0  0  0  0  0  0  0  0  0  0
  148.8489  136.1699  155.6900 N   0  0  0  0  0  0  0  0  0  0  0  0
  148.2663  135.0772  154.9234 C   0  0  0  0  0  0  0  0  0  0  0  0
  149.2589  133.9324  154.5804 C   0  0  1  0  0  0  0  0  0  0  0  0
  149.9490  133.3566  155.8394 C   0  0  0  0  0  0  0  0  0  0  0  0
  150.8691  132.3427  155.4945 O   0  0  0  0  0  0  0  0  0  0  0  0
  148.5981  132.8099  153.7371 C   0  0  2  0  0  0  0  0  0  0  0  0
  147.7139  133.2947  152.6001 C   0  0  0  0  0  0  0  0  0  0  0  0
  146.8664  132.0641  152.2940 C   0  0  0  0  0  0  0  0  0  0  0  0
  146.7373  131.3655  153.5267 O   0  0  0  0  0  0  0  0  0  0  0  0
  147.5899  131.9483  154.5059 C   0  0  0  0  0  0  0  0  0  0  0  0
  149.9853  141.6773  157.5317 C   0  0  0  0  0  0  0  0  0  0  0  0
  150.8984  142.0788  158.5892 N   0  0  0  0  0  0  0  0  0  0  0  0
  150.7730  143.3860  159.2299 C   0  0  0  0  0  0  0  0  0  0  0  0
  151.9930  144.2870  158.9691 C   0  0  0  0  0  0  0  0  0  0  0  0
  151.7684  145.4859  159.5051 F   0  0  0  0  0  0  0  0  0  0  0  0
  153.0954  143.7786  159.5193 F   0  0  0  0  0  0  0  0  0  0  0  0
  152.1863  144.4372  157.6588 F   0  0  0  0  0  0  0  0  0  0  0  0
  152.4544  139.7024  157.4051 H   0  0  0  0  0  0  0  0  0  0  0  0
  151.3168  139.0280  158.6058 H   0  0  0  0  0  0  0  0  0  0  0  0
  148.6027  139.9135  153.2358 H   0  0  0  0  0  0  0  0  0  0  0  0
  149.3989  135.1901  157.5368 H   0  0  0  0  0  0  0  0  0  0  0  0
  147.4113  134.6907  155.4780 H   0  0  0  0  0  0  0  0  0  0  0  0
  147.8469  135.4921  154.0064 H   0  0  0  0  0  0  0  0  0  0  0  0
  150.0424  134.3728  153.9616 H   0  0  0  0  0  0  0  0  0  0  0  0
  150.4578  134.1350  156.4081 H   0  0  0  0  0  0  0  0  0  0  0  0
  149.2202  132.9034  156.5101 H   0  0  0  0  0  0  0  0  0  0  0  0
  151.7416  132.6512  155.6890 H   0  0  0  0  0  0  0  0  0  0  0  0
  149.3662  132.1627  153.3118 H   0  0  0  0  0  0  0  0  0  0  0  0
  147.0753  134.1134  152.9358 H   0  0  0  0  0  0  0  0  0  0  0  0
  148.2748  133.6339  151.7290 H   0  0  0  0  0  0  0  0  0  0  0  0
  145.8929  132.3231  151.8773 H   0  0  0  0  0  0  0  0  0  0  0  0
  147.3788  131.4164  151.5817 H   0  0  0  0  0  0  0  0  0  0  0  0
  148.0643  131.1786  155.1137 H   0  0  0  0  0  0  0  0  0  0  0  0
  146.9790  132.5661  155.1658 H   0  0  0  0  0  0  0  0  0  0  0  0
  150.0617  142.3554  156.6807 H   0  0  0  0  0  0  0  0  0  0  0  0
  148.9574  141.6601  157.8973 H   0  0  0  0  0  0  0  0  0  0  0  0
  149.8708  143.8754  158.8607 H   0  0  0  0  0  0  0  0  0  0  0  0
  150.6285  143.2533  160.3033 H   0  0  0  0  0  0  0  0  0  0  0  0
  1  2  2  0  0  0  0
  2 24  1  0  0  0  0
  2  3  1  0  0  0  0
  3  4  1  0  0  0  0
  3 30  1  0  0  0  0
  3 31  1  0  0  0  0
  4  5  1  0  0  0  0
  4 23  1  0  0  0  0
  5 10  1  0  0  0  0
  5  6  2  0  0  0  0
  6  7  1  0  0  0  0
  7  8  2  0  0  0  0
  7 32  1  0  0  0  0
  8  9  1  0  0  0  0
  9 13  1  0  0  0  0
  9 10  2  0  0  0  0
 10 11  1  0  0  0  0
 11 12  2  0  0  0  0
 12 13  1  0  0  0  0
 12 33  1  0  0  0  0
 13 14  1  0  0  0  0
 14 15  1  0  0  0  0
 14 34  1  0  0  0  0
 14 35  1  0  0  0  0
 15 16  1  0  0  0  0
 15 18  1  0  0  0  0
 15 36  1  0  0  0  0
 16 17  1  0  0  0  0
 16 37  1  0  0  0  0
 16 38  1  0  0  0  0
 17 39  1  0  0  0  0
 18 22  1  0  0  0  0
 18 19  1  0  0  0  0
 18 40  1  0  0  0  0
 19 20  1  0  0  0  0
 19 41  1  0  0  0  0
 19 42  1  0  0  0  0
 20 21  1  0  0  0  0
 20 43  1  0  0  0  0
 20 44  1  0  0  0  0
 21 22  1  0  0  0  0
 22 45  1  0  0  0  0
 22 46  1  0  0  0  0
 23 24  1  0  0  0  0
 23 47  1  0  0  0  0
 23 48  1  0  0  0  0
 24 25  1  0  0  0  0
 25 26  1  0  0  0  0
 25 49  1  0  0  0  0
 25 50  1  0  0  0  0
 26 27  1  0  0  0  0
 26 28  1  0  0  0  0
 26 29  1  0  0  0  0
M  END
> <s_m_source_file>
AV-unprocessed.smi

> <i_m_source_file_index>
254

> <i_lp_mmshare_version>
43012

> <i_f3d_flags>
0

> <s_epik_input>
RkMoRikoRilbQ0gyXU4xW0NIMl1OKFtDSDJdQzE9TyljKG5bY0hdbjIpYyhjMjMpbltjSF1uM1tDSDJdW0NASF0oW0NIMl1bT0hdKVtDQEBIXTRbQ0gyXVtDSDJdT1tDSDJdNA==

> <s_epik_cmdline>
J2VwaWtfcHl0aG9uJywgJy1waCcsICc3LjAnLCAnLXRuJywgJzgnLCAnLW1hJywgJzIwMCcsICctbWV0YWxfYmluZGluZycsICctaW1hZScsICc8aW5maWxlLm1hZT4nLCAnLW9tYWUnLCAnPG91dGZpbGUubWFlPic=

> <r_lp_tautomer_probability>
1

> <r_epik_Ionization_Penalty>
0.000292924

> <r_epik_Ionization_Penalty_Charging>
0

> <r_epik_Ionization_Penalty_Neutral>
0.000292924

> <r_epik_State_Penalty>
-0

> <r_epik_Charging_Adjusted_Penalty>
0

> <i_epik_Tot_Q>
0

> <i_epik_Tot_abs_Q>
0

> <r_epik_Metal_State_Penalty>
-0

> <b_epik_Metal_Only>
0

> <s_epik_Chemistry_Notes>
This compound contains an acetal/aminal-like group ( X-CH(R)-Y where X, Y are N, S, or O) that may be acid/base labile, releasing an aldehyde.

> <s_lp_Force_Field>
OPLS_2005

> <r_lp_Energy>
38.5559

> <b_lp_Chiralities_Consistent>
1

> <s_lp_Variant>
AV-unprocessed.smi:254-2

> <Gold.Version>
5.8.1

> <Gold.Id.Protein>
6NUR|6NUR_protein|mol2

> <Gold.PLP.Fitness>
44.4631

> <Gold.PLP.PLP>
-42.7290

> <Gold.PLP.part.hbond>
0.0000

> <Gold.PLP.part.metal>
0.0000

> <Gold.PLP.part.buried>
-5.4040

> <Gold.PLP.part.nonpolar>
-38.2775

> <Gold.PLP.part.repulsive>
1.5303

> <Gold.PLP.ligand.clash>
0.0000

> <Gold.PLP.ligand.torsion>
0.8391

> <Gold.PLP.Chemscore.Hbond>
0.0000

> <Gold.PLP.Chemscore.CHOScore>
1.0000

> <Gold.PLP.Chemscore.Metal>
0.0000

> <Gold.Chemscore.Hbonds>
donor molecule, donor type, donor heavy atom, donor atom, acceptor molecule, acceptor atom, score
      L1  C     7    32       P1  7957  1.00

> <Gold.PLP.Chemscore.Internal.Correction>
0.4122

> <Gold.Rescore>
     Score         DG    S(hbond)    S(metal)    S(lipo)     H(rot)  DE(clash)    DE(int)     intcor
      1.37      -4.42       0.00        0.00      63.07       3.30       0.07       2.98       ----

> <Gold.Chemscore.Fitness>
1.3672

> <Gold.Chemscore.DG>
-4.4176

> <Gold.Chemscore.ZeroCoef>
-5.4800

> <Gold.Chemscore.Hbond>
0.0000

> <Gold.Chemscore.Metal>
0.0000

> <Gold.Chemscore.Lipo>
63.0683

> <Gold.Chemscore.Internal_Hbond>
0.0000

> <Gold.Chemscore.DEClash>
0.0714

> <Gold.Chemscore.DEInternal>
2.9789

> <Gold.Chemscore.Rot>
3.2974

> <Gold.Chemscore.Internal.Correction>
   9.000000E+99

> <Gold.Chemscore.Hbond.Weighted>
-0.0000

> <Gold.Chemscore.Metal.Weighted>
-0.0000

> <Gold.Chemscore.Lipo.Weighted>
-7.3790

> <Gold.Chemscore.Internal_Hbond.Weighted>
0.0000

> <Gold.Chemscore.DEClash.Weighted>
0.0714

> <Gold.Chemscore.DEInternal.Weighted>
2.9789

> <Gold.Chemscore.Rot.Weighted>
8.4414

> <Gold.Chemscore.Internal.Correction.Weighted>
   9.000000E+99

> <Gold.Protein.RotatedTorsions>
[ 6907 6896 6895 6894 ] final -159.08 input  -60.11 | X-H torsion
[ 7974 7965 7964 7962 ] final   49.69 input  175.53 | X-H torsion
[ 8008 7997 7996 7995 ] final   51.36 input   59.86 | X-H torsion
[ 10167 10162 10161 10158 ] final  145.34 input  -65.29 | X-H torsion
[ 10718 10713 10712 10709 ] final  164.50 input   66.30 | X-H torsion
[ 10763 10752 10751 10750 ] final  -69.11 input  -60.55 | X-H torsion
[ 11005 11000 10999 10996 ] final  106.15 input  -57.11 | X-H torsion

> <Gold.Protein.ActiveResidues>
 VAL166  LYS551  ARG553  GLY616  TRP617  ASP618  TYR619  PRO620  LYS621  CYS622 
 ASP623  PHE694  ASN695  SER759  ASP760  ASP761  ALA762  ILE779  LEU786  VAL792 
 PHE793  MET794  SER795  GLU796  ALA797  LYS798  CYS799  TRP800  GLU811  SER814 

> <Gold.Protein.RotatedAtoms>
  151.3281  133.4012  159.2659 H   0  0  0  0  0  0  0  0  0  0  0  0  # atno 6907 bound_to 6896
  150.9978  134.9298  159.7947 H   0  0  0  0  0  0  0  0  0  0  0  0  # atno 6908 bound_to 6896
  152.5266  134.3246  159.9213 H   0  0  0  0  0  0  0  0  0  0  0  0  # atno 6909 bound_to 6896
  146.0084  139.4516  142.9971 H   0  0  0  0  0  0  0  0  0  0  0  0  # atno 7974 bound_to 7965
  155.4340  140.3452  155.4283 H   0  0  0  0  0  0  0  0  0  0  0  0  # atno 8008 bound_to 7997
  156.1319  140.1516  156.9083 H   0  0  0  0  0  0  0  0  0  0  0  0  # atno 8009 bound_to 7997
  154.4901  140.0843  156.7556 H   0  0  0  0  0  0  0  0  0  0  0  0  # atno 8010 bound_to 7997
  139.4928  144.5908  151.6684 H   0  0  0  0  0  0  0  0  0  0  0  0  # atno 10167 bound_to 10162
  157.0934  131.0424  151.2528 H   0  0  0  0  0  0  0  0  0  0  0  0  # atno 10718 bound_to 10713
  154.3986  135.6036  153.5884 H   0  0  0  0  0  0  0  0  0  0  0  0  # atno 10763 bound_to 10752
  152.9788  135.5901  154.4211 H   0  0  0  0  0  0  0  0  0  0  0  0  # atno 10764 bound_to 10752
  154.4006  135.2843  155.2077 H   0  0  0  0  0  0  0  0  0  0  0  0  # atno 10765 bound_to 10752
  139.8810  134.9359  156.5622 H   0  0  0  0  0  0  0  0  0  0  0  0  # atno 11005 bound_to 11000
  145.7380  141.0018  143.1316 LP  0  0  0  0  0  0  0  0  0  0  0  0  # atno 17320 bound_to 7965
  144.6944  139.9064  143.7461 LP  0  0  0  0  0  0  0  0  0  0  0  0  # atno 17321 bound_to 7965
  140.5535  144.0386  150.6137 LP  0  0  0  0  0  0  0  0  0  0  0  0  # atno 17342 bound_to 10162
  140.3448  143.2998  152.0550 LP  0  0  0  0  0  0  0  0  0  0  0  0  # atno 17343 bound_to 10162
  157.4702  130.7704  149.7316 LP  0  0  0  0  0  0  0  0  0  0  0  0  # atno 17370 bound_to 10713
  155.9892  130.3953  150.3084 LP  0  0  0  0  0  0  0  0  0  0  0  0  # atno 17371 bound_to 10713
  140.8160  133.8391  155.8853 LP  0  0  0  0  0  0  0  0  0  0  0  0  # atno 17394 bound_to 11000
  140.9462  134.1838  157.4762 LP  0  0  0  0  0  0  0  0  0  0  0  0  # atno 17395 bound_to 11000

$$$$
