AV-unprocessed.smi:2531|AV-procd|sdf|9966|dock7
  -GOLD-   2272014 13D 1   1.00000     0.00000
 Structure written by MMmdl.
 45 47  0  0  0  0  0  0  0  0  2 V2000
  153.3112  141.8443  159.4403 O   0  0  0  0  0  0  0  0  0  0  0  0
  152.2662  141.6711  158.8113 C   0  0  0  0  0  0  0  0  0  0  0  0
  151.2953  142.8440  158.5622 C   0  0  0  0  0  0  0  0  0  0  0  0
  151.9391  143.9832  157.7394 C   0  0  0  0  0  0  0  0  0  0  0  0
  152.1389  145.1746  158.6895 C   0  0  0  0  0  0  0  0  0  0  0  0
  151.8559  144.6486  160.0965 C   0  0  0  0  0  0  0  0  0  0  0  0
  150.8635  143.5074  159.8807 C   0  0  0  0  0  0  0  0  0  0  0  0
  151.8781  140.3991  158.3807 N   0  0  0  0  0  0  0  0  0  0  0  0
  150.9688  140.2389  157.2555 C   0  0  0  0  0  0  0  0  0  0  0  0
  151.6835  138.9067  157.0064 C   0  0  0  0  0  0  0  0  0  0  0  0
  152.0918  138.6372  155.2227 S   0  0  0  0  0  0  0  0  0  0  0  0
  151.7810  137.2227  154.9594 O   0  0  0  0  0  0  0  0  0  0  0  0
  151.3350  139.6349  154.4488 O   0  0  0  0  0  0  0  0  0  0  0  0
  153.6847  138.9462  155.2370 N   0  5  0  0  0  0  0  0  0  0  0  0
  154.6269  137.8940  154.8853 C   0  0  0  0  0  0  0  0  0  0  0  0
  155.6830  138.4087  153.8769 C   0  0  0  0  0  0  0  0  0  0  0  0
  156.3617  137.3392  153.0249 C   0  0  0  0  0  0  0  0  0  0  0  0
  157.7715  137.2446  152.9827 C   0  0  0  0  0  0  0  0  0  0  0  0
  158.3569  136.2388  152.1909 C   0  0  0  0  0  0  0  0  0  0  0  0
  157.5178  135.3754  151.4614 C   0  0  0  0  0  0  0  0  0  0  0  0
  156.1241  135.5580  151.5565 C   0  0  0  0  0  0  0  0  0  0  0  0
  155.5513  136.5193  152.3121 N   0  0  0  0  0  0  0  0  0  0  0  0
  152.8399  139.4333  157.8675 C   0  0  0  0  0  0  0  0  0  0  0  0
  150.4199  142.4711  158.0292 H   0  0  0  0  0  0  0  0  0  0  0  0
  152.8890  143.6871  157.2916 H   0  0  0  0  0  0  0  0  0  0  0  0
  151.2885  144.2709  156.9129 H   0  0  0  0  0  0  0  0  0  0  0  0
  153.1367  145.6070  158.6088 H   0  0  0  0  0  0  0  0  0  0  0  0
  151.4226  145.9593  158.4428 H   0  0  0  0  0  0  0  0  0  0  0  0
  152.7750  144.2605  160.5373 H   0  0  0  0  0  0  0  0  0  0  0  0
  151.4690  145.4199  160.7628 H   0  0  0  0  0  0  0  0  0  0  0  0
  149.8555  143.9098  159.7723 H   0  0  0  0  0  0  0  0  0  0  0  0
  150.8464  142.8208  160.7285 H   0  0  0  0  0  0  0  0  0  0  0  0
  149.9209  140.1447  157.5404 H   0  0  0  0  0  0  0  0  0  0  0  0
  151.1246  140.9723  156.4613 H   0  0  0  0  0  0  0  0  0  0  0  0
  151.1527  138.0543  157.4331 H   0  0  0  0  0  0  0  0  0  0  0  0
  155.1302  137.4730  155.7564 H   0  0  0  0  0  0  0  0  0  0  0  0
  154.1025  137.0560  154.4257 H   0  0  0  0  0  0  0  0  0  0  0  0
  155.2060  139.1213  153.2032 H   0  0  0  0  0  0  0  0  0  0  0  0
  156.4489  138.9772  154.4062 H   0  0  0  0  0  0  0  0  0  0  0  0
  158.3890  137.9165  153.5606 H   0  0  0  0  0  0  0  0  0  0  0  0
  159.4303  136.1306  152.1459 H   0  0  0  0  0  0  0  0  0  0  0  0
  157.9316  134.5914  150.8450 H   0  0  0  0  0  0  0  0  0  0  0  0
  155.4507  134.9159  151.0083 H   0  0  0  0  0  0  0  0  0  0  0  0
  153.6556  139.8884  157.3054 H   0  0  0  0  0  0  0  0  0  0  0  0
  153.1966  138.7260  158.6164 H   0  0  0  0  0  0  0  0  0  0  0  0
  1  2  2  0  0  0  0
  2  3  1  0  0  0  0
  2  8  1  0  0  0  0
  3  7  1  0  0  0  0
  3  4  1  0  0  0  0
  3 24  1  0  0  0  0
  4  5  1  0  0  0  0
  4 25  1  0  0  0  0
  4 26  1  0  0  0  0
  5  6  1  0  0  0  0
  5 27  1  0  0  0  0
  5 28  1  0  0  0  0
  6  7  1  0  0  0  0
  6 29  1  0  0  0  0
  6 30  1  0  0  0  0
  7 31  1  0  0  0  0
  7 32  1  0  0  0  0
  8 23  1  0  0  0  0
  8  9  1  0  0  0  0
  9 10  1  0  0  0  0
  9 33  1  0  0  0  0
  9 34  1  0  0  0  0
 10 11  1  0  0  0  0
 10 23  1  0  0  0  0
 10 35  1  0  0  0  0
 11 12  2  0  0  0  0
 11 13  2  0  0  0  0
 11 14  1  0  0  0  0
 14 15  1  0  0  0  0
 15 16  1  0  0  0  0
 15 36  1  0  0  0  0
 15 37  1  0  0  0  0
 16 17  1  0  0  0  0
 16 38  1  0  0  0  0
 16 39  1  0  0  0  0
 17 22  1  0  0  0  0
 17 18  2  0  0  0  0
 18 19  1  0  0  0  0
 18 40  1  0  0  0  0
 19 20  2  0  0  0  0
 19 41  1  0  0  0  0
 20 21  1  0  0  0  0
 20 42  1  0  0  0  0
 21 22  2  0  0  0  0
 21 43  1  0  0  0  0
 23 44  1  0  0  0  0
 23 45  1  0  0  0  0
M  CHG  1  14  -1
M  END
> <s_m_source_file>
AV-unprocessed.smi

> <i_m_source_file_index>
2531

> <i_lp_mmshare_version>
43012

> <i_f3d_flags>
0

> <s_epik_input>
W0NIMl0xW0NIMl1bQ0gyXVtDSDJdW0NIXTFDKD1PKU4yW0NIMl1bQ0hdKFtDSDJdMilTKD1PKSg9TylbTkhdW0NIMl1bQ0gyXWMzW2NIXVtjSF1bY0hdW2NIXW4z

> <s_epik_cmdline>
J2VwaWtfcHl0aG9uJywgJy1waCcsICc3LjAnLCAnLXRuJywgJzgnLCAnLW1hJywgJzIwMCcsICctbWV0YWxfYmluZGluZycsICctaW1hZScsICc8aW5maWxlLm1hZT4nLCAnLW9tYWUnLCAnPG91dGZpbGUubWFlPic=

> <r_epik_Ionization_Penalty>
5.87379

> <r_epik_Ionization_Penalty_Charging>
5.8024

> <r_epik_Ionization_Penalty_Neutral>
0.0713848

> <r_epik_State_Penalty>
5.81862

> <r_epik_Charging_Adjusted_Penalty>
11.621

> <i_epik_Tot_Q>
-1

> <i_epik_Tot_abs_Q>
1

> <r_epik_Metal_State_Penalty>
1.80653

> <b_epik_Metal_Only>
1

> <s_lp_Force_Field>
OPLS_2005

> <r_lp_Energy>
33.3625

> <b_lp_Chiralities_Consistent>
1

> <s_lp_Variant>
AV-unprocessed.smi:2531-3

> <Gold.Version>
5.8.1

> <Gold.Id.Protein>
6NUR|6NUR_protein|mol2

> <Gold.PLP.Fitness>
58.7159

> <Gold.PLP.PLP>
-44.7443

> <Gold.PLP.part.hbond>
-3.7064

> <Gold.PLP.part.metal>
0.0000

> <Gold.PLP.part.buried>
2.3210

> <Gold.PLP.part.nonpolar>
-43.8267

> <Gold.PLP.part.repulsive>
0.2895

> <Gold.PLP.ligand.clash>
0.0000

> <Gold.PLP.ligand.torsion>
1.5281

> <Gold.PLP.Chemscore.Hbond>
4.8320

> <Gold.PLP.Chemscore.CHOScore>
0.0000

> <Gold.PLP.Chemscore.Metal>
0.0000

> <Gold.Chemscore.Hbonds>
donor molecule, donor type, donor heavy atom, donor atom, acceptor molecule, acceptor atom, score
      P1  H  7989  7998       L1    13  1.00
      P1  H  7997  8009       L1    14  1.82
      P1  H 10752 10763       L1    22  1.00
      P1  H 10752 10764       L1    12  1.00

> <Gold.PLP.Chemscore.Internal.Correction>
2.5317

> <Gold.Rescore>
     Score         DG    S(hbond)    S(metal)    S(lipo)     H(rot)  DE(clash)    DE(int)     intcor
     26.07     -30.39       3.27        0.00     154.76       1.61       2.75       1.57       ----

> <Gold.Chemscore.Fitness>
26.0742

> <Gold.Chemscore.DG>
-30.3936

> <Gold.Chemscore.ZeroCoef>
-5.4800

> <Gold.Chemscore.Hbond>
3.2729

> <Gold.Chemscore.Metal>
0.0000

> <Gold.Chemscore.Lipo>
154.7563

> <Gold.Chemscore.Internal_Hbond>
0.0000

> <Gold.Chemscore.DEClash>
2.7521

> <Gold.Chemscore.DEInternal>
1.5673

> <Gold.Chemscore.Rot>
1.6110

> <Gold.Chemscore.Internal.Correction>
   9.000000E+99

> <Gold.Chemscore.Hbonds>
donor molecule, donor type, donor heavy atom, donor atom, acceptor molecule, acceptor atom, score
      P1  H  7989  7998       L1    13  0.97
      P1  H  7997  8009       L1    14  0.58
      P1  H 10752 10763       L1    22  0.42
      P1  H 10752 10764       L1    12  0.90

> <Gold.Chemscore.Hbond.Weighted>
-10.9314

> <Gold.Chemscore.Metal.Weighted>
-0.0000

> <Gold.Chemscore.Lipo.Weighted>
-18.1065

> <Gold.Chemscore.Internal_Hbond.Weighted>
0.0000

> <Gold.Chemscore.DEClash.Weighted>
2.7521

> <Gold.Chemscore.DEInternal.Weighted>
1.5673

> <Gold.Chemscore.Rot.Weighted>
4.1243

> <Gold.Chemscore.Internal.Correction.Weighted>
   9.000000E+99

> <Gold.Protein.RotatedTorsions>
[ 6907 6896 6895 6894 ] final  -28.15 input  -60.11 | X-H torsion
[ 7974 7965 7964 7962 ] final -140.22 input  175.53 | X-H torsion
[ 8008 7997 7996 7995 ] final -129.14 input   59.86 | X-H torsion
[ 10167 10162 10161 10158 ] final  104.26 input  -65.29 | X-H torsion
[ 10718 10713 10712 10709 ] final  -42.32 input   66.30 | X-H torsion
[ 10763 10752 10751 10750 ] final  -62.99 input  -60.55 | X-H torsion
[ 11005 11000 10999 10996 ] final   15.73 input  -57.11 | X-H torsion

> <Gold.Protein.ActiveResidues>
 VAL166  LYS551  ARG553  GLY616  TRP617  ASP618  TYR619  PRO620  LYS621  CYS622 
 ASP623  PHE694  ASN695  SER759  ASP760  ASP761  ALA762  ILE779  LEU786  VAL792 
 PHE793  MET794  SER795  GLU796  ALA797  LYS798  CYS799  TRP800  GLU811  SER814 

> <Gold.Protein.RotatedAtoms>
  151.1370  135.0160  159.8607 H   0  0  0  0  0  0  0  0  0  0  0  0  # atno 6907 bound_to 6896
  152.5452  134.1544  159.8542 H   0  0  0  0  0  0  0  0  0  0  0  0  # atno 6908 bound_to 6896
  151.1616  133.4796  159.2627 H   0  0  0  0  0  0  0  0  0  0  0  0  # atno 6909 bound_to 6896
  144.8615  140.6226  143.5325 H   0  0  0  0  0  0  0  0  0  0  0  0  # atno 7974 bound_to 7965
  155.2742  140.0441  157.3010 H   0  0  0  0  0  0  0  0  0  0  0  0  # atno 8008 bound_to 7997
  154.5635  140.2353  155.8268 H   0  0  0  0  0  0  0  0  0  0  0  0  # atno 8009 bound_to 7997
  156.2066  140.3011  155.9648 H   0  0  0  0  0  0  0  0  0  0  0  0  # atno 8010 bound_to 7997
  139.7192  144.7061  151.0899 H   0  0  0  0  0  0  0  0  0  0  0  0  # atno 10167 bound_to 10162
  156.2608  130.4197  149.8544 H   0  0  0  0  0  0  0  0  0  0  0  0  # atno 10718 bound_to 10713
  154.3083  135.6221  153.5454 H   0  0  0  0  0  0  0  0  0  0  0  0  # atno 10763 bound_to 10752
  152.9832  135.5695  154.5206 H   0  0  0  0  0  0  0  0  0  0  0  0  # atno 10764 bound_to 10752
  154.4851  135.2865  155.1517 H   0  0  0  0  0  0  0  0  0  0  0  0  # atno 10765 bound_to 10752
  140.4550  134.1185  155.7708 H   0  0  0  0  0  0  0  0  0  0  0  0  # atno 11005 bound_to 11000
  145.4304  139.1550  143.4025 LP  0  0  0  0  0  0  0  0  0  0  0  0  # atno 17320 bound_to 7965
  146.2864  140.4420  142.8756 LP  0  0  0  0  0  0  0  0  0  0  0  0  # atno 17321 bound_to 7965
  140.7750  143.5188  150.9562 LP  0  0  0  0  0  0  0  0  0  0  0  0  # atno 17342 bound_to 10162
  139.8875  143.6995  152.3149 LP  0  0  0  0  0  0  0  0  0  0  0  0  # atno 17343 bound_to 10162
  156.6060  130.8567  151.3443 LP  0  0  0  0  0  0  0  0  0  0  0  0  # atno 17370 bound_to 10713
  157.7250  130.9610  150.1595 LP  0  0  0  0  0  0  0  0  0  0  0  0  # atno 17371 bound_to 10713
  141.1647  133.8726  157.1749 LP  0  0  0  0  0  0  0  0  0  0  0  0  # atno 17394 bound_to 11000
  139.9982  135.0038  157.0130 LP  0  0  0  0  0  0  0  0  0  0  0  0  # atno 17395 bound_to 11000

$$$$
