AV-unprocessed.smi:3140|AV-procd|sdf|11960|dock5
  -GOLD-   2272017363D 1   1.00000     0.00000
 Structure written by MMmdl.
 37 38  0  0  0  0  0  0  0  0  1 V2000
  151.4015  139.3023  154.9781 C   0  0  0  0  0  0  0  0  0  0  0  0
  151.0279  140.2602  156.1209 C   0  0  2  0  0  0  0  0  0  0  0  0
  150.3915  141.5804  155.6136 C   0  0  0  0  0  0  0  0  0  0  0  0
  149.1737  141.3932  154.8399 N   0  0  0  0  0  0  0  0  0  0  0  0
  148.0080  142.1293  154.8807 C   0  0  0  0  0  0  0  0  0  0  0  0
  147.1483  141.5820  153.9721 C   0  0  0  0  0  0  0  0  0  0  0  0
  147.8900  140.5050  153.4114 C   0  0  0  0  0  0  0  0  0  0  0  0
  149.1024  140.3981  153.9288 N   0  0  0  0  0  0  0  0  0  0  0  0
  152.2349  140.4993  156.9036 N   0  0  0  0  0  0  0  0  0  0  0  0
  151.9490  140.9769  158.2492 C   0  0  0  0  0  0  0  0  0  0  0  0
  153.2592  141.3929  158.9394 C   0  0  0  0  0  0  0  0  0  0  0  0
  153.0145  142.2406  160.1059 N   0  0  0  0  0  0  0  0  0  0  0  0
  153.5080  141.8548  161.4174 C   0  0  0  0  0  0  0  0  0  0  0  0
  153.0638  142.9749  162.3703 C   0  0  0  0  0  0  0  0  0  0  0  0
  152.3177  144.0021  161.5112 C   0  0  0  0  0  0  0  0  0  0  0  0
  152.3512  143.4026  160.1165 C   0  0  0  0  0  0  0  0  0  0  0  0
  151.8278  143.9470  159.1454 O   0  0  0  0  0  0  0  0  0  0  0  0
  150.5375  139.0924  154.3470 H   0  0  0  0  0  0  0  0  0  0  0  0
  151.7607  138.3492  155.3672 H   0  0  0  0  0  0  0  0  0  0  0  0
  152.1864  139.7132  154.3420 H   0  0  0  0  0  0  0  0  0  0  0  0
  150.3047  139.7463  156.7555 H   0  0  0  0  0  0  0  0  0  0  0  0
  150.1455  142.2101  156.4694 H   0  0  0  0  0  0  0  0  0  0  0  0
  151.0965  142.1629  155.0205 H   0  0  0  0  0  0  0  0  0  0  0  0
  147.8881  142.9696  155.5486 H   0  0  0  0  0  0  0  0  0  0  0  0
  146.1433  141.9028  153.7415 H   0  0  0  0  0  0  0  0  0  0  0  0
  147.5870  139.8043  152.6474 H   0  0  0  0  0  0  0  0  0  0  0  0
  152.7752  139.6482  156.9648 H   0  0  0  0  0  0  0  0  0  0  0  0
  151.2547  141.8158  158.2361 H   0  0  0  0  0  0  0  0  0  0  0  0
  151.4709  140.1750  158.8124 H   0  0  0  0  0  0  0  0  0  0  0  0
  153.7962  140.5006  159.2643 H   0  0  0  0  0  0  0  0  0  0  0  0
  153.9191  141.9026  158.2359 H   0  0  0  0  0  0  0  0  0  0  0  0
  153.0884  140.8925  161.7127 H   0  0  0  0  0  0  0  0  0  0  0  0
  154.5947  141.7622  161.3981 H   0  0  0  0  0  0  0  0  0  0  0  0
  152.4140  142.5811  163.1527 H   0  0  0  0  0  0  0  0  0  0  0  0
  153.9251  143.4300  162.8609 H   0  0  0  0  0  0  0  0  0  0  0  0
  151.2880  144.1367  161.8437 H   0  0  0  0  0  0  0  0  0  0  0  0
  152.8177  144.9714  161.5161 H   0  0  0  0  0  0  0  0  0  0  0  0
  1  2  1  0  0  0  0
  1 18  1  0  0  0  0
  1 19  1  0  0  0  0
  1 20  1  0  0  0  0
  2  3  1  0  0  0  0
  2  9  1  0  0  0  0
  2 21  1  0  0  0  0
  3  4  1  0  0  0  0
  3 22  1  0  0  0  0
  3 23  1  0  0  0  0
  4  8  1  0  0  0  0
  4  5  1  0  0  0  0
  5  6  2  0  0  0  0
  5 24  1  0  0  0  0
  6  7  1  0  0  0  0
  6 25  1  0  0  0  0
  7  8  2  0  0  0  0
  7 26  1  0  0  0  0
  9 10  1  0  0  0  0
  9 27  1  0  0  0  0
 10 11  1  0  0  0  0
 10 28  1  0  0  0  0
 10 29  1  0  0  0  0
 11 12  1  0  0  0  0
 11 30  1  0  0  0  0
 11 31  1  0  0  0  0
 12 16  1  0  0  0  0
 12 13  1  0  0  0  0
 13 14  1  0  0  0  0
 13 32  1  0  0  0  0
 13 33  1  0  0  0  0
 14 15  1  0  0  0  0
 14 34  1  0  0  0  0
 14 35  1  0  0  0  0
 15 16  1  0  0  0  0
 15 36  1  0  0  0  0
 15 37  1  0  0  0  0
 16 17  2  0  0  0  0
M  END
> <s_m_source_file>
AV-unprocessed.smi

> <i_m_source_file_index>
3140

> <i_lp_mmshare_version>
43012

> <i_f3d_flags>
0

> <s_epik_input>
bjFbY0hdW2NIXVtjSF1uMVtDSDJdW0NAQEhdKFtDSDNdKVtOSF1bQ0gyXVtDSDJdTjJbQ0gyXVtDSDJdW0NIMl1DMj1P

> <s_epik_cmdline>
J2VwaWtfcHl0aG9uJywgJy1waCcsICc3LjAnLCAnLXRuJywgJzgnLCAnLW1hJywgJzIwMCcsICctbWV0YWxfYmluZGluZycsICctaW1hZScsICc8aW5maWxlLm1hZT4nLCAnLW9tYWUnLCAnPG91dGZpbGUubWFlPic=

> <r_lp_tautomer_probability>
1

> <r_epik_Ionization_Penalty>
2.53587

> <r_epik_Ionization_Penalty_Charging>
0

> <r_epik_Ionization_Penalty_Neutral>
2.53587

> <r_epik_State_Penalty>
2.70334

> <r_epik_Charging_Adjusted_Penalty>
2.70334

> <i_epik_Tot_Q>
0

> <i_epik_Tot_abs_Q>
0

> <r_epik_Metal_State_Penalty>
2.7033

> <b_epik_Metal_Only>
0

> <s_lp_Force_Field>
OPLS_2005

> <r_lp_Energy>
23.3858

> <b_lp_Chiralities_Consistent>
1

> <s_lp_Variant>
AV-unprocessed.smi:3140-3

> <Gold.Version>
5.8.1

> <Gold.Id.Protein>
6NUR|6NUR_protein|mol2

> <Gold.PLP.Fitness>
44.7173

> <Gold.PLP.PLP>
-41.5426

> <Gold.PLP.part.hbond>
-0.6828

> <Gold.PLP.part.metal>
0.0000

> <Gold.PLP.part.buried>
0.0565

> <Gold.PLP.part.nonpolar>
-40.7168

> <Gold.PLP.part.repulsive>
1.6048

> <Gold.PLP.ligand.clash>
0.0000

> <Gold.PLP.ligand.torsion>
0.5090

> <Gold.PLP.Chemscore.Hbond>
0.0000

> <Gold.PLP.Chemscore.CHOScore>
1.3752

> <Gold.PLP.Chemscore.Metal>
0.0000

> <Gold.Chemscore.Hbonds>
donor molecule, donor type, donor heavy atom, donor atom, acceptor molecule, acceptor atom, score
      L1  C     5    24       P1  8028  0.90
      L1  C     7    26       P1  7957  0.37

> <Gold.PLP.Chemscore.Internal.Correction>
0.0672

> <Gold.Rescore>
     Score         DG    S(hbond)    S(metal)    S(lipo)     H(rot)  DE(clash)    DE(int)     intcor
      9.11     -11.07       0.00        0.00      90.97       1.97       0.08       1.88       ----

> <Gold.Chemscore.Fitness>
9.1073

> <Gold.Chemscore.DG>
-11.0745

> <Gold.Chemscore.ZeroCoef>
-5.4800

> <Gold.Chemscore.Hbond>
0.0000

> <Gold.Chemscore.Metal>
0.0000

> <Gold.Chemscore.Lipo>
90.9680

> <Gold.Chemscore.Internal_Hbond>
0.0000

> <Gold.Chemscore.DEClash>
0.0848

> <Gold.Chemscore.DEInternal>
1.8825

> <Gold.Chemscore.Rot>
1.9722

> <Gold.Chemscore.Internal.Correction>
   9.000000E+99

> <Gold.Chemscore.Hbond.Weighted>
-0.0000

> <Gold.Chemscore.Metal.Weighted>
-0.0000

> <Gold.Chemscore.Lipo.Weighted>
-10.6433

> <Gold.Chemscore.Internal_Hbond.Weighted>
0.0000

> <Gold.Chemscore.DEClash.Weighted>
0.0848

> <Gold.Chemscore.DEInternal.Weighted>
1.8825

> <Gold.Chemscore.Rot.Weighted>
5.0487

> <Gold.Chemscore.Internal.Correction.Weighted>
   9.000000E+99

> <Gold.Protein.RotatedTorsions>
[ 6907 6896 6895 6894 ] final    9.33 input  -60.11 | X-H torsion
[ 7974 7965 7964 7962 ] final  154.46 input  175.53 | X-H torsion
[ 8008 7997 7996 7995 ] final   73.80 input   59.86 | X-H torsion
[ 10167 10162 10161 10158 ] final   81.66 input  -65.29 | X-H torsion
[ 10718 10713 10712 10709 ] final   50.42 input   66.30 | X-H torsion
[ 10763 10752 10751 10750 ] final   98.82 input  -60.55 | X-H torsion
[ 11005 11000 10999 10996 ] final  164.88 input  -57.11 | X-H torsion

> <Gold.Protein.ActiveResidues>
 VAL166  LYS551  ARG553  GLY616  TRP617  ASP618  TYR619  PRO620  LYS621  CYS622 
 ASP623  PHE694  ASN695  SER759  ASP760  ASP761  ALA762  ILE779  LEU786  VAL792 
 PHE793  MET794  SER795  GLU796  ALA797  LYS798  CYS799  TRP800  GLU811  SER814 

> <Gold.Protein.RotatedAtoms>
  151.7205  135.0895  160.0282 H   0  0  0  0  0  0  0  0  0  0  0  0  # atno 6907 bound_to 6896
  152.3605  133.6286  159.6020 H   0  0  0  0  0  0  0  0  0  0  0  0  # atno 6908 bound_to 6896
  150.7601  133.9348  159.3479 H   0  0  0  0  0  0  0  0  0  0  0  0  # atno 6909 bound_to 6896
  144.8087  139.6937  143.6151 H   0  0  0  0  0  0  0  0  0  0  0  0  # atno 7974 bound_to 7965
  155.7890  140.3480  155.5339 H   0  0  0  0  0  0  0  0  0  0  0  0  # atno 8008 bound_to 7997
  155.8653  140.0978  157.1607 H   0  0  0  0  0  0  0  0  0  0  0  0  # atno 8009 bound_to 7997
  154.4014  140.1351  156.3998 H   0  0  0  0  0  0  0  0  0  0  0  0  # atno 8010 bound_to 7997
  139.9369  144.6115  150.8290 H   0  0  0  0  0  0  0  0  0  0  0  0  # atno 10167 bound_to 10162
  157.4883  130.8359  149.8172 H   0  0  0  0  0  0  0  0  0  0  0  0  # atno 10718 bound_to 10713
  153.2937  135.4135  155.1190 H   0  0  0  0  0  0  0  0  0  0  0  0  # atno 10763 bound_to 10752
  154.8528  135.3524  154.5946 H   0  0  0  0  0  0  0  0  0  0  0  0  # atno 10764 bound_to 10752
  153.6369  135.7058  153.5313 H   0  0  0  0  0  0  0  0  0  0  0  0  # atno 10765 bound_to 10752
  140.2504  134.7981  157.3496 H   0  0  0  0  0  0  0  0  0  0  0  0  # atno 11005 bound_to 11000
  146.2382  139.5949  142.9509 LP  0  0  0  0  0  0  0  0  0  0  0  0  # atno 17320 bound_to 7965
  145.5376  141.0423  143.2348 LP  0  0  0  0  0  0  0  0  0  0  0  0  # atno 17321 bound_to 7965
  140.7622  143.3192  151.2661 LP  0  0  0  0  0  0  0  0  0  0  0  0  # atno 17342 bound_to 10162
  139.6736  143.9976  152.2768 LP  0  0  0  0  0  0  0  0  0  0  0  0  # atno 17343 bound_to 10162
  156.0159  130.3814  150.2113 LP  0  0  0  0  0  0  0  0  0  0  0  0  # atno 17370 bound_to 10713
  157.0301  131.0005  151.3314 LP  0  0  0  0  0  0  0  0  0  0  0  0  # atno 17371 bound_to 10713
  140.1564  134.4784  155.7925 LP  0  0  0  0  0  0  0  0  0  0  0  0  # atno 17394 bound_to 11000
  141.2202  133.6883  156.7468 LP  0  0  0  0  0  0  0  0  0  0  0  0  # atno 17395 bound_to 11000

$$$$
