AV-unprocessed.smi:2717|AV-procd|sdf|10485|dock2
  -GOLD-   2272014533D 1   1.00000     0.00000
 Structure written by MMmdl.
 43 44  0  0  0  0  0  0  0  0  1 V2000
  151.3771  144.5514  157.9036 C   0  0  0  0  0  0  0  0  0  0  0  0
  152.8179  144.4517  158.4163 C   0  0  0  0  0  0  0  0  0  0  0  0
  152.9207  143.6871  159.6934 C   0  0  0  0  0  0  0  0  0  0  0  0
  153.6606  142.5838  159.8339 N   0  0  0  0  0  0  0  0  0  0  0  0
  153.6166  142.0687  161.1329 C   0  0  0  0  0  0  0  0  0  0  0  0
  154.3691  140.8141  161.4694 C   0  0  0  0  0  0  0  0  0  0  0  0
  154.2893  139.7349  160.3703 C   0  0  0  0  0  0  0  0  0  0  0  0
  152.9437  139.5728  159.8271 N   0  0  0  0  0  0  0  0  0  0  0  0
  152.6589  139.3036  158.5459 C   0  0  0  0  0  0  0  0  0  0  0  0
  153.5057  139.1955  157.6585 O   0  0  0  0  0  0  0  0  0  0  0  0
  151.3423  139.1439  158.3539 N   0  0  0  0  0  0  0  0  0  0  0  0
  150.7154  138.7838  157.0863 C   0  0  2  0  0  0  0  0  0  0  0  0
  150.8498  137.2676  156.8570 C   0  0  0  0  0  0  0  0  0  0  0  0
  150.2522  136.8453  155.5033 C   0  0  0  0  0  0  0  0  0  0  0  0
  150.8512  137.6402  154.3277 C   0  0  2  0  0  0  0  0  0  0  0  0
  152.1977  137.2613  154.1211 O   0  0  0  0  0  0  0  0  0  0  0  0
  150.7631  139.1590  154.5672 C   0  0  0  0  0  0  0  0  0  0  0  0
  151.3569  139.5710  155.9256 C   0  0  0  0  0  0  0  0  0  0  0  0
  152.8391  142.8133  161.9849 C   0  0  0  0  0  0  0  0  0  0  0  0
  152.1297  144.1873  161.1840 S   0  0  0  0  0  0  0  0  0  0  0  0
  151.3346  145.1133  156.9703 H   0  0  0  0  0  0  0  0  0  0  0  0
  150.7362  145.0570  158.6265 H   0  0  0  0  0  0  0  0  0  0  0  0
  150.9575  143.5624  157.7168 H   0  0  0  0  0  0  0  0  0  0  0  0
  153.4460  143.9670  157.6683 H   0  0  0  0  0  0  0  0  0  0  0  0
  153.2283  145.4509  158.5692 H   0  0  0  0  0  0  0  0  0  0  0  0
  155.4164  141.0484  161.6625 H   0  0  0  0  0  0  0  0  0  0  0  0
  153.9890  140.4009  162.4043 H   0  0  0  0  0  0  0  0  0  0  0  0
  154.9399  140.0151  159.5416 H   0  0  0  0  0  0  0  0  0  0  0  0
  154.6608  138.7801  160.7452 H   0  0  0  0  0  0  0  0  0  0  0  0
  152.1781  139.6380  160.4820 H   0  0  0  0  0  0  0  0  0  0  0  0
  150.7295  139.2519  159.1489 H   0  0  0  0  0  0  0  0  0  0  0  0
  149.6517  139.0265  157.1329 H   0  0  0  0  0  0  0  0  0  0  0  0
  151.9013  136.9789  156.8961 H   0  0  0  0  0  0  0  0  0  0  0  0
  150.3522  136.7232  157.6606 H   0  0  0  0  0  0  0  0  0  0  0  0
  150.3936  135.7750  155.3481 H   0  0  0  0  0  0  0  0  0  0  0  0
  149.1739  137.0076  155.5282 H   0  0  0  0  0  0  0  0  0  0  0  0
  150.3077  137.3916  153.4156 H   0  0  0  0  0  0  0  0  0  0  0  0
  152.7260  138.0431  154.0726 H   0  0  0  0  0  0  0  0  0  0  0  0
  151.2616  139.6991  153.7614 H   0  0  0  0  0  0  0  0  0  0  0  0
  149.7163  139.4635  154.5333 H   0  0  0  0  0  0  0  0  0  0  0  0
  151.2150  140.6423  156.0732 H   0  0  0  0  0  0  0  0  0  0  0  0
  152.4351  139.4040  155.9172 H   0  0  0  0  0  0  0  0  0  0  0  0
  152.6384  142.6330  163.0308 H   0  0  0  0  0  0  0  0  0  0  0  0
  1  2  1  0  0  0  0
  1 21  1  0  0  0  0
  1 22  1  0  0  0  0
  1 23  1  0  0  0  0
  2  3  1  0  0  0  0
  2 24  1  0  0  0  0
  2 25  1  0  0  0  0
  3 20  1  0  0  0  0
  3  4  2  0  0  0  0
  4  5  1  0  0  0  0
  5  6  1  0  0  0  0
  5 19  2  0  0  0  0
  6  7  1  0  0  0  0
  6 26  1  0  0  0  0
  6 27  1  0  0  0  0
  7  8  1  0  0  0  0
  7 28  1  0  0  0  0
  7 29  1  0  0  0  0
  8  9  1  0  0  0  0
  8 30  1  0  0  0  0
  9 10  2  0  0  0  0
  9 11  1  0  0  0  0
 11 12  1  0  0  0  0
 11 31  1  0  0  0  0
 12 18  1  0  0  0  0
 12 13  1  0  0  0  0
 12 32  1  0  0  0  0
 13 14  1  0  0  0  0
 13 33  1  0  0  0  0
 13 34  1  0  0  0  0
 14 15  1  0  0  0  0
 14 35  1  0  0  0  0
 14 36  1  0  0  0  0
 15 16  1  0  0  0  0
 15 17  1  0  0  0  0
 15 37  1  0  0  0  0
 16 38  1  0  0  0  0
 17 18  1  0  0  0  0
 17 39  1  0  0  0  0
 17 40  1  0  0  0  0
 18 41  1  0  0  0  0
 18 42  1  0  0  0  0
 19 20  1  0  0  0  0
 19 43  1  0  0  0  0
M  END
> <s_m_source_file>
AV-unprocessed.smi

> <i_m_source_file_index>
2717

> <i_lp_mmshare_version>
43012

> <i_f3d_flags>
0

> <s_epik_input>
W0NIM11bQ0gyXWMxbmMoW2NIXXMxKVtDSDJdW0NIMl1bTkhdQyg9TylbTkhdW0NAQEhdMltDSDJdW0NIMl1bQ0BASF0oW09IXSlbQ0gyXVtDSDJdMg==

> <s_epik_cmdline>
J2VwaWtfcHl0aG9uJywgJy1waCcsICc3LjAnLCAnLXRuJywgJzgnLCAnLW1hJywgJzIwMCcsICctbWV0YWxfYmluZGluZycsICctaW1hZScsICc8aW5maWxlLm1hZT4nLCAnLW9tYWUnLCAnPG91dGZpbGUubWFlPic=

> <r_epik_Ionization_Penalty>
0.00202099

> <r_epik_Ionization_Penalty_Charging>
0

> <r_epik_Ionization_Penalty_Neutral>
0.00202099

> <r_epik_State_Penalty>
0.00133629

> <r_epik_Charging_Adjusted_Penalty>
0.00133629

> <i_epik_Tot_Q>
0

> <i_epik_Tot_abs_Q>
0

> <r_epik_Metal_State_Penalty>
-0

> <b_epik_Metal_Only>
0

> <s_lp_Force_Field>
OPLS_2005

> <r_lp_Energy>
0.0101123

> <b_lp_Chiralities_Consistent>
1

> <s_lp_Variant>
AV-unprocessed.smi:2717-2

> <Gold.Version>
5.8.1

> <Gold.Id.Protein>
6NUR|6NUR_protein|mol2

> <Gold.PLP.Fitness>
49.1260

> <Gold.PLP.PLP>
-44.8711

> <Gold.PLP.part.hbond>
-2.8137

> <Gold.PLP.part.metal>
0.0000

> <Gold.PLP.part.buried>
-5.8198

> <Gold.PLP.part.nonpolar>
-38.0425

> <Gold.PLP.part.repulsive>
0.1932

> <Gold.PLP.ligand.clash>
0.0000

> <Gold.PLP.ligand.torsion>
0.7536

> <Gold.PLP.Chemscore.Hbond>
1.9120

> <Gold.PLP.Chemscore.CHOScore>
0.0000

> <Gold.PLP.Chemscore.Metal>
0.0000

> <Gold.Chemscore.Hbonds>
donor molecule, donor type, donor heavy atom, donor atom, acceptor molecule, acceptor atom, score
      P1  H  7997  8010       L1    10  0.98
      P1  H 10752 10765       L1    16  0.90

> <Gold.PLP.Chemscore.Internal.Correction>
0.0261

> <Gold.Rescore>
     Score         DG    S(hbond)    S(metal)    S(lipo)     H(rot)  DE(clash)    DE(int)     intcor
     18.71     -20.84       1.88        0.00     125.91       2.21       0.04       2.09       ----

> <Gold.Chemscore.Fitness>
18.7112

> <Gold.Chemscore.DG>
-20.8377

> <Gold.Chemscore.ZeroCoef>
-5.4800

> <Gold.Chemscore.Hbond>
1.8801

> <Gold.Chemscore.Metal>
0.0000

> <Gold.Chemscore.Lipo>
125.9106

> <Gold.Chemscore.Internal_Hbond>
0.0000

> <Gold.Chemscore.DEClash>
0.0376

> <Gold.Chemscore.DEInternal>
2.0888

> <Gold.Chemscore.Rot>
2.2084

> <Gold.Chemscore.Internal.Correction>
   9.000000E+99

> <Gold.Chemscore.Hbonds>
donor molecule, donor type, donor heavy atom, donor atom, acceptor molecule, acceptor atom, score
      P1  H  7997  8010       L1    10  0.92
      P1  H 10752 10765       L1    16  0.84

> <Gold.Chemscore.Hbond.Weighted>
-6.2797

> <Gold.Chemscore.Metal.Weighted>
-0.0000

> <Gold.Chemscore.Lipo.Weighted>
-14.7315

> <Gold.Chemscore.Internal_Hbond.Weighted>
0.0000

> <Gold.Chemscore.DEClash.Weighted>
0.0376

> <Gold.Chemscore.DEInternal.Weighted>
2.0888

> <Gold.Chemscore.Rot.Weighted>
5.6535

> <Gold.Chemscore.Internal.Correction.Weighted>
   9.000000E+99

> <Gold.Protein.RotatedTorsions>
[ 6907 6896 6895 6894 ] final  -57.55 input  -60.11 | X-H torsion
[ 7974 7965 7964 7962 ] final   32.49 input  175.53 | X-H torsion
[ 8008 7997 7996 7995 ] final   29.73 input   59.86 | X-H torsion
[ 10167 10162 10161 10158 ] final  164.16 input  -65.29 | X-H torsion
[ 10718 10713 10712 10709 ] final  121.24 input   66.30 | X-H torsion
[ 10763 10752 10751 10750 ] final  151.99 input  -60.55 | X-H torsion
[ 11005 11000 10999 10996 ] final  112.39 input  -57.11 | X-H torsion

> <Gold.Protein.ActiveResidues>
 VAL166  LYS551  ARG553  GLY616  TRP617  ASP618  TYR619  PRO620  LYS621  CYS622 
 ASP623  PHE694  ASN695  SER759  ASP760  ASP761  ALA762  ILE779  LEU786  VAL792 
 PHE793  MET794  SER795  GLU796  ALA797  LYS798  CYS799  TRP800  GLU811  SER814 

> <Gold.Protein.RotatedAtoms>
  150.8077  134.7212  159.6658 H   0  0  0  0  0  0  0  0  0  0  0  0  # atno 6907 bound_to 6896
  152.4197  134.5975  160.0000 H   0  0  0  0  0  0  0  0  0  0  0  0  # atno 6908 bound_to 6896
  151.6194  133.3303  159.3120 H   0  0  0  0  0  0  0  0  0  0  0  0  # atno 6909 bound_to 6896
  146.1483  139.6519  142.9116 H   0  0  0  0  0  0  0  0  0  0  0  0  # atno 7974 bound_to 7965
  155.0791  140.3208  155.4607 H   0  0  0  0  0  0  0  0  0  0  0  0  # atno 8008 bound_to 7997
  156.2771  140.2098  156.5865 H   0  0  0  0  0  0  0  0  0  0  0  0  # atno 8009 bound_to 7997
  154.6993  140.0508  157.0429 H   0  0  0  0  0  0  0  0  0  0  0  0  # atno 8010 bound_to 7997
  139.4884  144.4264  151.9125 H   0  0  0  0  0  0  0  0  0  0  0  0  # atno 10167 bound_to 10162
  157.5832  131.1072  150.8146 H   0  0  0  0  0  0  0  0  0  0  0  0  # atno 10718 bound_to 10713
  154.1128  135.2838  155.3226 H   0  0  0  0  0  0  0  0  0  0  0  0  # atno 10763 bound_to 10752
  154.6478  135.5380  153.7868 H   0  0  0  0  0  0  0  0  0  0  0  0  # atno 10764 bound_to 10752
  153.0339  135.6502  154.1286 H   0  0  0  0  0  0  0  0  0  0  0  0  # atno 10765 bound_to 10752
  139.8926  134.9529  156.6579 H   0  0  0  0  0  0  0  0  0  0  0  0  # atno 11005 bound_to 11000
  145.4885  141.0438  143.2606 LP  0  0  0  0  0  0  0  0  0  0  0  0  # atno 17320 bound_to 7965
  144.7873  139.6401  143.7129 LP  0  0  0  0  0  0  0  0  0  0  0  0  # atno 17321 bound_to 7965
  140.3710  144.2856  150.5920 LP  0  0  0  0  0  0  0  0  0  0  0  0  # atno 17342 bound_to 10162
  140.5319  143.2241  151.8224 LP  0  0  0  0  0  0  0  0  0  0  0  0  # atno 17343 bound_to 10162
  156.8587  130.5105  149.5305 LP  0  0  0  0  0  0  0  0  0  0  0  0  # atno 17370 bound_to 10713
  156.0879  130.5873  150.9681 LP  0  0  0  0  0  0  0  0  0  0  0  0  # atno 17371 bound_to 10713
  140.7470  133.8930  155.8319 LP  0  0  0  0  0  0  0  0  0  0  0  0  # atno 17394 bound_to 11000
  141.0032  134.1122  157.4297 LP  0  0  0  0  0  0  0  0  0  0  0  0  # atno 17395 bound_to 11000

$$$$
