AV-unprocessed.smi:3046|AV-procd|sdf|11620|dock6
  -GOLD-   2272017 03D 1   1.00000     0.00000
 Structure written by MMmdl.
 37 37  0  0  0  0  0  0  0  0  1 V2000
  152.2717  139.0627  154.4968 C   0  0  0  0  0  0  0  0  0  0  0  0
  151.1028  138.4423  154.2777 C   0  0  0  0  0  0  0  0  0  0  0  0
  150.6138  137.2361  155.0548 C   0  0  0  0  0  0  0  0  0  0  0  0
  149.2797  136.8337  154.6287 N   0  0  0  0  0  0  0  0  0  0  0  0
  148.1392  137.1309  155.2727 C   0  0  0  0  0  0  0  0  0  0  0  0
  148.1118  137.7760  156.3218 O   0  0  0  0  0  0  0  0  0  0  0  0
  146.8449  136.6165  154.6227 C   0  0  1  0  0  0  0  0  0  0  0  0
  145.8866  137.7673  154.2538 C   0  0  0  0  0  0  0  0  0  0  0  0
  147.1683  135.8135  153.4316 N   0  0  0  0  0  0  0  0  0  0  0  0
  146.0305  135.1709  152.7768 C   0  0  1  0  0  0  0  0  0  0  0  0
  145.3315  136.1234  151.7871 C   0  0  0  0  0  0  0  0  0  0  0  0
  146.5212  133.8642  152.1110 C   0  0  0  0  0  0  0  0  0  0  0  0
  145.4613  133.0715  151.5066 N   0  0  0  0  0  0  0  0  0  0  0  0
  145.1882  131.7306  151.6822 C   0  0  0  0  0  0  0  0  0  0  0  0
  144.1021  131.4314  150.9108 C   0  0  0  0  0  0  0  0  0  0  0  0
  143.7795  132.6692  150.2875 C   0  0  0  0  0  0  0  0  0  0  0  0
  144.5959  133.6476  150.6437 N   0  0  0  0  0  0  0  0  0  0  0  0
  152.9495  138.7264  155.2677 H   0  0  0  0  0  0  0  0  0  0  0  0
  152.5649  139.9182  153.9062 H   0  0  0  0  0  0  0  0  0  0  0  0
  150.4510  138.8067  153.4969 H   0  0  0  0  0  0  0  0  0  0  0  0
  151.2973  136.4064  154.8747 H   0  0  0  0  0  0  0  0  0  0  0  0
  150.6316  137.4345  156.1280 H   0  0  0  0  0  0  0  0  0  0  0  0
  149.2129  136.3053  153.7711 H   0  0  0  0  0  0  0  0  0  0  0  0
  146.3588  135.9905  155.3729 H   0  0  0  0  0  0  0  0  0  0  0  0
  145.6427  138.3743  155.1265 H   0  0  0  0  0  0  0  0  0  0  0  0
  144.9450  137.3956  153.8520 H   0  0  0  0  0  0  0  0  0  0  0  0
  146.3228  138.4260  153.5016 H   0  0  0  0  0  0  0  0  0  0  0  0
  147.7351  136.3199  152.7657 H   0  0  0  0  0  0  0  0  0  0  0  0
  145.3170  134.8851  153.5510 H   0  0  0  0  0  0  0  0  0  0  0  0
  144.5603  135.5970  151.2244 H   0  0  0  0  0  0  0  0  0  0  0  0
  146.0333  136.5495  151.0692 H   0  0  0  0  0  0  0  0  0  0  0  0
  144.8397  136.9477  152.3032 H   0  0  0  0  0  0  0  0  0  0  0  0
  147.2803  134.0750  151.3558 H   0  0  0  0  0  0  0  0  0  0  0  0
  147.0104  133.2418  152.8613 H   0  0  0  0  0  0  0  0  0  0  0  0
  145.7810  131.1091  152.3371 H   0  0  0  0  0  0  0  0  0  0  0  0
  143.6130  130.4744  150.8069 H   0  0  0  0  0  0  0  0  0  0  0  0
  142.9826  132.8846  149.5911 H   0  0  0  0  0  0  0  0  0  0  0  0
  1  2  2  0  0  0  0
  1 18  1  0  0  0  0
  1 19  1  0  0  0  0
  2  3  1  0  0  0  0
  2 20  1  0  0  0  0
  3  4  1  0  0  0  0
  3 21  1  0  0  0  0
  3 22  1  0  0  0  0
  4  5  1  0  0  0  0
  4 23  1  0  0  0  0
  5  6  2  0  0  0  0
  5  7  1  0  0  0  0
  7  8  1  0  0  0  0
  7  9  1  0  0  0  0
  7 24  1  0  0  0  0
  8 25  1  0  0  0  0
  8 26  1  0  0  0  0
  8 27  1  0  0  0  0
  9 10  1  0  0  0  0
  9 28  1  0  0  0  0
 10 11  1  0  0  0  0
 10 12  1  0  0  0  0
 10 29  1  0  0  0  0
 11 30  1  0  0  0  0
 11 31  1  0  0  0  0
 11 32  1  0  0  0  0
 12 13  1  0  0  0  0
 12 33  1  0  0  0  0
 12 34  1  0  0  0  0
 13 17  1  0  0  0  0
 13 14  1  0  0  0  0
 14 15  2  0  0  0  0
 14 35  1  0  0  0  0
 15 16  1  0  0  0  0
 15 36  1  0  0  0  0
 16 17  2  0  0  0  0
 16 37  1  0  0  0  0
M  END
> <s_m_source_file>
AV-unprocessed.smi

> <i_m_source_file_index>
3046

> <i_lp_mmshare_version>
43012

> <i_f3d_flags>
0

> <s_epik_input>
W0NIMl09W0NIXVtDSDJdW05IXUMoPU8pW0NASF0oW0NIM10pW05IXVtDQEhdKFtDSDNdKVtDSDJdbjFbY0hdW2NIXVtjSF1uMQ==

> <s_epik_cmdline>
J2VwaWtfcHl0aG9uJywgJy1waCcsICc3LjAnLCAnLXRuJywgJzgnLCAnLW1hJywgJzIwMCcsICctbWV0YWxfYmluZGluZycsICctaW1hZScsICc8aW5maWxlLm1hZT4nLCAnLW9tYWUnLCAnPG91dGZpbGUubWFlPic=

> <r_lp_tautomer_probability>
1

> <r_epik_Ionization_Penalty>
0.950627

> <r_epik_Ionization_Penalty_Charging>
0

> <r_epik_Ionization_Penalty_Neutral>
0.950627

> <r_epik_State_Penalty>
0.994814

> <r_epik_Charging_Adjusted_Penalty>
0.994814

> <i_epik_Tot_Q>
0

> <i_epik_Tot_abs_Q>
0

> <r_epik_Metal_State_Penalty>
0.994788

> <b_epik_Metal_Only>
0

> <s_lp_Force_Field>
OPLS_2005

> <r_lp_Energy>
8.07161

> <b_lp_Chiralities_Consistent>
1

> <s_lp_Variant>
AV-unprocessed.smi:3046-8

> <Gold.Version>
5.8.1

> <Gold.Id.Protein>
6NUR|6NUR_protein|mol2

> <Gold.PLP.Fitness>
35.3975

> <Gold.PLP.PLP>
-27.6430

> <Gold.PLP.part.hbond>
-1.6376

> <Gold.PLP.part.metal>
0.0000

> <Gold.PLP.part.buried>
-4.3272

> <Gold.PLP.part.nonpolar>
-21.8678

> <Gold.PLP.part.repulsive>
0.1549

> <Gold.PLP.ligand.clash>
0.0000

> <Gold.PLP.ligand.torsion>
0.5648

> <Gold.PLP.Chemscore.Hbond>
1.8971

> <Gold.PLP.Chemscore.CHOScore>
1.0000

> <Gold.PLP.Chemscore.Metal>
0.0000

> <Gold.Chemscore.Hbonds>
donor molecule, donor type, donor heavy atom, donor atom, acceptor molecule, acceptor atom, score
      L1  H     4    23       P1  7948  1.00
      L1  H     9    28       P1  7948  0.84
      L1  C    16    37       P1 10186  1.00

> <Gold.PLP.Chemscore.Internal.Correction>
0.1928

> <Gold.Rescore>
     Score         DG    S(hbond)    S(metal)    S(lipo)     H(rot)  DE(clash)    DE(int)     intcor
     11.45     -13.26       1.77        0.00      63.39       2.17       0.01       1.79       ----

> <Gold.Chemscore.Fitness>
11.4542

> <Gold.Chemscore.DG>
-13.2568

> <Gold.Chemscore.ZeroCoef>
-5.4800

> <Gold.Chemscore.Hbond>
1.7742

> <Gold.Chemscore.Metal>
0.0000

> <Gold.Chemscore.Lipo>
63.3871

> <Gold.Chemscore.Internal_Hbond>
0.0000

> <Gold.Chemscore.DEClash>
0.0089

> <Gold.Chemscore.DEInternal>
1.7937

> <Gold.Chemscore.Rot>
2.1739

> <Gold.Chemscore.Internal.Correction>
   9.000000E+99

> <Gold.Chemscore.Hbonds>
donor molecule, donor type, donor heavy atom, donor atom, acceptor molecule, acceptor atom, score
      L1  H     4    23       P1  7948  0.90
      L1  H     9    28       P1  7948  0.79

> <Gold.Chemscore.Hbond.Weighted>
-5.9257

> <Gold.Chemscore.Metal.Weighted>
-0.0000

> <Gold.Chemscore.Lipo.Weighted>
-7.4163

> <Gold.Chemscore.Internal_Hbond.Weighted>
0.0000

> <Gold.Chemscore.DEClash.Weighted>
0.0089

> <Gold.Chemscore.DEInternal.Weighted>
1.7937

> <Gold.Chemscore.Rot.Weighted>
5.5652

> <Gold.Chemscore.Internal.Correction.Weighted>
   9.000000E+99

> <Gold.Protein.RotatedTorsions>
[ 6907 6896 6895 6894 ] final   70.43 input  -60.11 | X-H torsion
[ 7974 7965 7964 7962 ] final -129.02 input  175.53 | X-H torsion
[ 8008 7997 7996 7995 ] final   75.36 input   59.86 | X-H torsion
[ 10167 10162 10161 10158 ] final -105.65 input  -65.29 | X-H torsion
[ 10718 10713 10712 10709 ] final  -88.36 input   66.30 | X-H torsion
[ 10763 10752 10751 10750 ] final  -91.66 input  -60.55 | X-H torsion
[ 11005 11000 10999 10996 ] final  106.68 input  -57.11 | X-H torsion

> <Gold.Protein.ActiveResidues>
 VAL166  LYS551  ARG553  GLY616  TRP617  ASP618  TYR619  PRO620  LYS621  CYS622 
 ASP623  PHE694  ASN695  SER759  ASP760  ASP761  ALA762  ILE779  LEU786  VAL792 
 PHE793  MET794  SER795  GLU796  ALA797  LYS798  CYS799  TRP800  GLU811  SER814 

> <Gold.Protein.RotatedAtoms>
  152.4749  134.4869  159.9683 H   0  0  0  0  0  0  0  0  0  0  0  0  # atno 6907 bound_to 6896
  151.4888  133.3523  159.2858 H   0  0  0  0  0  0  0  0  0  0  0  0  # atno 6908 bound_to 6896
  150.8781  134.8194  159.7266 H   0  0  0  0  0  0  0  0  0  0  0  0  # atno 6909 bound_to 6896
  144.9612  140.7449  143.4727 H   0  0  0  0  0  0  0  0  0  0  0  0  # atno 7974 bound_to 7965
  155.8117  140.3473  155.5461 H   0  0  0  0  0  0  0  0  0  0  0  0  # atno 8008 bound_to 7997
  155.8434  140.0945  157.1740 H   0  0  0  0  0  0  0  0  0  0  0  0  # atno 8009 bound_to 7997
  154.4005  140.1390  156.3743 H   0  0  0  0  0  0  0  0  0  0  0  0  # atno 8010 bound_to 7997
  140.1963  143.3853  152.1166 H   0  0  0  0  0  0  0  0  0  0  0  0  # atno 10167 bound_to 10162
  155.9984  130.4833  150.5007 H   0  0  0  0  0  0  0  0  0  0  0  0  # atno 10718 bound_to 10713
  154.6782  135.5260  153.8228 H   0  0  0  0  0  0  0  0  0  0  0  0  # atno 10763 bound_to 10752
  153.0547  135.6546  154.0617 H   0  0  0  0  0  0  0  0  0  0  0  0  # atno 10764 bound_to 10752
  154.0507  135.2969  155.3320 H   0  0  0  0  0  0  0  0  0  0  0  0  # atno 10765 bound_to 10752
  139.8817  134.9377  156.5704 H   0  0  0  0  0  0  0  0  0  0  0  0  # atno 11005 bound_to 11000
  145.2696  139.1960  143.4848 LP  0  0  0  0  0  0  0  0  0  0  0  0  # atno 17320 bound_to 7965
  146.3354  140.2640  142.8603 LP  0  0  0  0  0  0  0  0  0  0  0  0  # atno 17321 bound_to 7965
  139.5235  144.7072  151.5316 LP  0  0  0  0  0  0  0  0  0  0  0  0  # atno 17342 bound_to 10162
  140.6421  143.8867  150.6702 LP  0  0  0  0  0  0  0  0  0  0  0  0  # atno 17343 bound_to 10162
  157.2991  131.0641  151.2080 LP  0  0  0  0  0  0  0  0  0  0  0  0  # atno 17370 bound_to 10713
  157.3066  130.6869  149.6193 LP  0  0  0  0  0  0  0  0  0  0  0  0  # atno 17371 bound_to 10713
  140.8102  133.8435  155.8803 LP  0  0  0  0  0  0  0  0  0  0  0  0  # atno 17394 bound_to 11000
  140.9513  134.1775  157.4726 LP  0  0  0  0  0  0  0  0  0  0  0  0  # atno 17395 bound_to 11000

$$$$
