AV-unprocessed.smi:1405|AV-procd|sdf|5708|dock9
  -GOLD-   22720 5343D 1   1.00000     0.00000
 Structure written by MMmdl.
 48 51  0  0  0  0  0  0  0  0  2 V2000
  152.4837  137.5194  159.1314 O   0  0  0  0  0  0  0  0  0  0  0  0
  151.6379  138.3562  158.8171 C   0  0  0  0  0  0  0  0  0  0  0  0
  152.0992  139.7483  158.3504 C   0  0  0  0  0  0  0  0  0  0  0  0
  151.3399  140.3037  157.2147 N   0  0  0  0  0  0  0  0  0  0  0  0
  150.2368  141.1231  157.5129 C   0  0  0  0  0  0  0  0  0  0  0  0
  149.4715  141.6648  156.5465 C   0  0  0  0  0  0  0  0  0  0  0  0
  149.8118  141.3829  155.1576 C   0  0  0  0  0  0  0  0  0  0  0  0
  149.1236  141.8684  154.2620 O   0  0  0  0  0  0  0  0  0  0  0  0
  150.8909  140.5815  154.9190 N   0  5  0  0  0  0  0  0  0  0  0  0
  151.6591  140.0356  155.9122 C   0  0  0  0  0  0  0  0  0  0  0  0
  152.6215  139.3055  155.6749 O   0  0  0  0  0  0  0  0  0  0  0  0
  150.3187  138.1133  158.8764 N   0  0  0  0  0  0  0  0  0  0  0  0
  149.7082  136.8667  159.3138 C   0  0  0  0  0  0  0  0  0  0  0  0
  148.1748  137.0092  159.3255 C   0  0  0  0  0  0  0  0  0  0  0  0
  147.3985  136.0227  160.2346 C   0  0  0  0  0  0  0  0  0  0  0  0
  147.7986  136.1913  161.7257 C   0  0  0  0  0  0  0  0  0  0  0  0
  146.9704  135.2407  162.6170 C   0  0  2  0  0  0  0  0  0  0  0  0
  147.2266  133.7801  162.1898 C   0  0  0  0  0  0  0  0  0  0  0  0
  146.8019  133.5979  160.7168 C   0  0  1  0  0  0  0  0  0  0  0  0
  145.3012  133.9209  160.5671 C   0  0  0  0  0  0  0  0  0  0  0  0
  145.0530  135.3806  160.9982 C   0  0  1  0  0  0  0  0  0  0  0  0
  145.4700  135.5669  162.4712 C   0  0  0  0  0  0  0  0  0  0  0  0
  145.8814  136.3281  160.1054 C   0  0  0  0  0  0  0  0  0  0  0  0
  147.6299  134.5442  159.8198 C   0  0  0  0  0  0  0  0  0  0  0  0
  152.0382  140.4271  159.2020 H   0  0  0  0  0  0  0  0  0  0  0  0
  153.1624  139.6972  158.1094 H   0  0  0  0  0  0  0  0  0  0  0  0
  150.0499  141.2759  158.5658 H   0  0  0  0  0  0  0  0  0  0  0  0
  148.6255  142.2894  156.7932 H   0  0  0  0  0  0  0  0  0  0  0  0
  149.6933  138.8544  158.5933 H   0  0  0  0  0  0  0  0  0  0  0  0
  150.0089  136.0573  158.6476 H   0  0  0  0  0  0  0  0  0  0  0  0
  150.0912  136.6337  160.3068 H   0  0  0  0  0  0  0  0  0  0  0  0
  147.9215  138.0288  159.6206 H   0  0  0  0  0  0  0  0  0  0  0  0
  147.8166  136.9036  158.3001 H   0  0  0  0  0  0  0  0  0  0  0  0
  148.8578  135.9778  161.8693 H   0  0  0  0  0  0  0  0  0  0  0  0
  147.6489  137.2239  162.0438 H   0  0  0  0  0  0  0  0  0  0  0  0
  147.2684  135.3710  163.6578 H   0  0  0  0  0  0  0  0  0  0  0  0
  148.2811  133.5299  162.3134 H   0  0  0  0  0  0  0  0  0  0  0  0
  146.6702  133.0959  162.8317 H   0  0  0  0  0  0  0  0  0  0  0  0
  146.9804  132.5655  160.4148 H   0  0  0  0  0  0  0  0  0  0  0  0
  144.9831  133.7718  159.5346 H   0  0  0  0  0  0  0  0  0  0  0  0
  144.7041  133.2401  161.1751 H   0  0  0  0  0  0  0  0  0  0  0  0
  143.9936  135.6147  160.8898 H   0  0  0  0  0  0  0  0  0  0  0  0
  144.8771  134.9183  163.1173 H   0  0  0  0  0  0  0  0  0  0  0  0
  145.2718  136.5895  162.7947 H   0  0  0  0  0  0  0  0  0  0  0  0
  145.6790  137.3638  160.3820 H   0  0  0  0  0  0  0  0  0  0  0  0
  145.5620  136.2243  159.0673 H   0  0  0  0  0  0  0  0  0  0  0  0
  147.3607  134.3970  158.7729 H   0  0  0  0  0  0  0  0  0  0  0  0
  148.6838  134.2789  159.9053 H   0  0  0  0  0  0  0  0  0  0  0  0
  1  2  2  0  0  0  0
  2  3  1  0  0  0  0
  2 12  1  0  0  0  0
  3  4  1  0  0  0  0
  3 25  1  0  0  0  0
  3 26  1  0  0  0  0
  4 10  1  0  0  0  0
  4  5  1  0  0  0  0
  5  6  2  0  0  0  0
  5 27  1  0  0  0  0
  6  7  1  0  0  0  0
  6 28  1  0  0  0  0
  7  8  2  0  0  0  0
  7  9  1  0  0  0  0
  9 10  1  0  0  0  0
 10 11  2  0  0  0  0
 12 13  1  0  0  0  0
 12 29  1  0  0  0  0
 13 14  1  0  0  0  0
 13 30  1  0  0  0  0
 13 31  1  0  0  0  0
 14 15  1  0  0  0  0
 14 32  1  0  0  0  0
 14 33  1  0  0  0  0
 15 23  1  0  0  0  0
 15 24  1  0  0  0  0
 15 16  1  0  0  0  0
 16 17  1  0  0  0  0
 16 34  1  0  0  0  0
 16 35  1  0  0  0  0
 17 22  1  0  0  0  0
 17 18  1  0  0  0  0
 17 36  1  0  0  0  0
 18 19  1  0  0  0  0
 18 37  1  0  0  0  0
 18 38  1  0  0  0  0
 19 20  1  0  0  0  0
 19 24  1  0  0  0  0
 19 39  1  0  0  0  0
 20 21  1  0  0  0  0
 20 40  1  0  0  0  0
 20 41  1  0  0  0  0
 21 22  1  0  0  0  0
 21 23  1  0  0  0  0
 21 42  1  0  0  0  0
 22 43  1  0  0  0  0
 22 44  1  0  0  0  0
 23 45  1  0  0  0  0
 23 46  1  0  0  0  0
 24 47  1  0  0  0  0
 24 48  1  0  0  0  0
M  CHG  1   9  -1
M  END
> <s_m_source_file>
AV-unprocessed.smi

> <i_m_source_file_index>
1405

> <i_lp_mmshare_version>
43012

> <i_f3d_flags>
0

> <s_epik_input>
Tz1jMVtuSF1jKD1PKVtjSF1bY0hdbjFbQ0gyXUMoPU8pW05IXVtDSDJdW0NIMl1DMjNbQ0gyXVtDQEBIXTRbQ0gyXVtDQEhdKFtDSDJdMylbQ0gyXVtDQEBIXShbQ0gyXTQpW0NIMl0y

> <s_epik_cmdline>
J2VwaWtfcHl0aG9uJywgJy1waCcsICc3LjAnLCAnLXRuJywgJzgnLCAnLW1hJywgJzIwMCcsICctbWV0YWxfYmluZGluZycsICctaW1hZScsICc8aW5maWxlLm1hZT4nLCAnLW9tYWUnLCAnPG91dGZpbGUubWFlPic=

> <r_lp_tautomer_probability>
0.999537

> <r_epik_Ionization_Penalty>
3.12935

> <r_epik_Ionization_Penalty_Charging>
2.8866e-08

> <r_epik_Ionization_Penalty_Neutral>
3.12935

> <r_epik_State_Penalty>
3.12845

> <r_epik_Charging_Adjusted_Penalty>
3.12845

> <i_epik_Tot_Q>
-1

> <i_epik_Tot_abs_Q>
1

> <r_epik_Metal_State_Penalty>
0.464346

> <b_epik_Metal_Only>
1

> <s_lp_Force_Field>
OPLS_2005

> <r_lp_Energy>
42.9683

> <b_lp_Chiralities_Consistent>
1

> <s_lp_Variant>
AV-unprocessed.smi:1405-2

> <Gold.Version>
5.8.1

> <Gold.Id.Protein>
6NUR|6NUR_protein|mol2

> <Gold.PLP.Fitness>
47.3459

> <Gold.PLP.PLP>
-40.6118

> <Gold.PLP.part.hbond>
-3.8629

> <Gold.PLP.part.metal>
0.0000

> <Gold.PLP.part.buried>
-4.1399

> <Gold.PLP.part.nonpolar>
-32.8569

> <Gold.PLP.part.repulsive>
0.4502

> <Gold.PLP.ligand.clash>
0.0000

> <Gold.PLP.ligand.torsion>
0.7512

> <Gold.PLP.Chemscore.Hbond>
2.7360

> <Gold.PLP.Chemscore.CHOScore>
0.0000

> <Gold.PLP.Chemscore.Metal>
0.0000

> <Gold.Chemscore.Hbonds>
donor molecule, donor type, donor heavy atom, donor atom, acceptor molecule, acceptor atom, score
      P1  H  7989  7998       L1     9  0.99
      P1  H  7997  8008       L1    11  1.00
      P1  H  8011  8017       L1     8  0.36

> <Gold.PLP.Chemscore.Internal.Correction>
0.0284

> <Gold.Rescore>
     Score         DG    S(hbond)    S(metal)    S(lipo)     H(rot)  DE(clash)    DE(int)     intcor
     17.19     -18.13       2.32        0.00      88.23       2.12       0.08       0.87       ----

> <Gold.Chemscore.Fitness>
17.1930

> <Gold.Chemscore.DG>
-18.1346

> <Gold.Chemscore.ZeroCoef>
-5.4800

> <Gold.Chemscore.Hbond>
2.3242

> <Gold.Chemscore.Metal>
0.0000

> <Gold.Chemscore.Lipo>
88.2335

> <Gold.Chemscore.Internal_Hbond>
0.0000

> <Gold.Chemscore.DEClash>
0.0757

> <Gold.Chemscore.DEInternal>
0.8659

> <Gold.Chemscore.Rot>
2.1216

> <Gold.Chemscore.Internal.Correction>
   9.000000E+99

> <Gold.Chemscore.Hbonds>
donor molecule, donor type, donor heavy atom, donor atom, acceptor molecule, acceptor atom, score
      P1  H  7989  7998       L1     9  0.77
      P1  H  7997  8008       L1    11  0.79
      P1  H  8011  8017       L1     8  0.35

> <Gold.Chemscore.Hbond.Weighted>
-7.7627

> <Gold.Chemscore.Metal.Weighted>
-0.0000

> <Gold.Chemscore.Lipo.Weighted>
-10.3233

> <Gold.Chemscore.Internal_Hbond.Weighted>
0.0000

> <Gold.Chemscore.DEClash.Weighted>
0.0757

> <Gold.Chemscore.DEInternal.Weighted>
0.8659

> <Gold.Chemscore.Rot.Weighted>
5.4314

> <Gold.Chemscore.Internal.Correction.Weighted>
   9.000000E+99

> <Gold.Protein.RotatedTorsions>
[ 6907 6896 6895 6894 ] final   55.60 input  -60.11 | X-H torsion
[ 7974 7965 7964 7962 ] final -169.57 input  175.53 | X-H torsion
[ 8008 7997 7996 7995 ] final  -39.68 input   59.86 | X-H torsion
[ 10167 10162 10161 10158 ] final  -19.22 input  -65.29 | X-H torsion
[ 10718 10713 10712 10709 ] final  -88.66 input   66.30 | X-H torsion
[ 10763 10752 10751 10750 ] final  134.02 input  -60.55 | X-H torsion
[ 11005 11000 10999 10996 ] final  -87.17 input  -57.11 | X-H torsion

> <Gold.Protein.ActiveResidues>
 VAL166  LYS551  ARG553  GLY616  TRP617  ASP618  TYR619  PRO620  LYS621  CYS622 
 ASP623  PHE694  ASN695  SER759  ASP760  ASP761  ALA762  ILE779  LEU786  VAL792 
 PHE793  MET794  SER795  GLU796  ALA797  LYS798  CYS799  TRP800  GLU811  SER814 

> <Gold.Protein.RotatedAtoms>
  152.3554  134.6947  160.0223 H   0  0  0  0  0  0  0  0  0  0  0  0  # atno 6907 bound_to 6896
  151.7287  133.3311  159.3342 H   0  0  0  0  0  0  0  0  0  0  0  0  # atno 6908 bound_to 6896
  150.7568  134.6316  159.6234 H   0  0  0  0  0  0  0  0  0  0  0  0  # atno 6909 bound_to 6896
  144.7183  140.2202  143.6317 H   0  0  0  0  0  0  0  0  0  0  0  0  # atno 7974 bound_to 7965
  154.4020  140.1545  156.2903 H   0  0  0  0  0  0  0  0  0  0  0  0  # atno 8008 bound_to 7997
  155.8791  140.3445  155.5853 H   0  0  0  0  0  0  0  0  0  0  0  0  # atno 8009 bound_to 7997
  155.7687  140.0827  157.2109 H   0  0  0  0  0  0  0  0  0  0  0  0  # atno 8010 bound_to 7997
  140.7266  143.4840  151.0079 H   0  0  0  0  0  0  0  0  0  0  0  0  # atno 10167 bound_to 10162
  155.9983  130.4844  150.5054 H   0  0  0  0  0  0  0  0  0  0  0  0  # atno 10718 bound_to 10713
  153.8167  135.3122  155.3406 H   0  0  0  0  0  0  0  0  0  0  0  0  # atno 10763 bound_to 10752
  154.8029  135.4715  154.0324 H   0  0  0  0  0  0  0  0  0  0  0  0  # atno 10764 bound_to 10752
  153.1719  135.6879  153.8685 H   0  0  0  0  0  0  0  0  0  0  0  0  # atno 10765 bound_to 10752
  141.1620  133.7496  156.9267 H   0  0  0  0  0  0  0  0  0  0  0  0  # atno 11005 bound_to 11000
  145.8508  139.2174  143.1773 LP  0  0  0  0  0  0  0  0  0  0  0  0  # atno 17320 bound_to 7965
  146.0262  140.8301  142.9898 LP  0  0  0  0  0  0  0  0  0  0  0  0  # atno 17321 bound_to 7965
  139.8541  143.7400  152.3177 LP  0  0  0  0  0  0  0  0  0  0  0  0  # atno 17342 bound_to 10162
  139.7592  144.7511  151.0389 LP  0  0  0  0  0  0  0  0  0  0  0  0  # atno 17343 bound_to 10162
  157.3033  131.0649  151.2053 LP  0  0  0  0  0  0  0  0  0  0  0  0  # atno 17370 bound_to 10713
  157.3024  130.6849  149.6171 LP  0  0  0  0  0  0  0  0  0  0  0  0  # atno 17371 bound_to 10713
  140.1414  134.9291  157.2472 LP  0  0  0  0  0  0  0  0  0  0  0  0  # atno 17394 bound_to 11000
  140.2832  134.3326  155.7337 LP  0  0  0  0  0  0  0  0  0  0  0  0  # atno 17395 bound_to 11000

$$$$
