AV-unprocessed.smi:581|AV-procd|sdf|2993|dock1
  -GOLD-   2262023493D 1   1.00000     0.00000
 Structure written by MMmdl.
 35 36  0  0  0  0  0  0  0  0  2 V2000
  151.0159  138.2929  157.7175 C   0  0  0  0  0  0  0  0  0  0  0  0
  150.8578  139.7539  157.3382 C   0  0  0  0  0  0  0  0  0  0  0  0
  151.2729  140.6498  158.2599 N   0  0  0  0  0  0  0  0  0  0  0  0
  151.1451  141.9509  157.9749 C   0  0  0  0  0  0  0  0  0  0  0  0
  151.5735  142.8712  158.9406 N   0  0  0  0  0  0  0  0  0  0  0  0
  151.4590  144.3185  158.7476 C   0  0  0  0  0  0  0  0  0  0  0  0
  151.1955  145.0268  160.0871 C   0  0  0  0  0  0  0  0  0  0  0  0
  152.2091  144.6816  161.0234 O   0  0  0  0  0  0  0  0  0  0  0  0
  152.2233  143.2844  161.2888 C   0  0  0  0  0  0  0  0  0  0  0  0
  152.5257  142.5115  159.9942 C   0  0  0  0  0  0  0  0  0  0  0  0
  150.6338  142.4369  156.8370 N   0  0  0  0  0  0  0  0  0  0  0  0
  150.2135  141.5616  155.8992 C   0  0  0  0  0  0  0  0  0  0  0  0
  149.6867  142.0655  154.7455 O   0  0  0  0  0  0  0  0  0  0  0  0
  150.3072  140.1647  156.1005 C   0  0  0  0  0  0  0  0  0  0  0  0
  149.8280  139.1703  155.0490 C   0  0  0  0  0  0  0  0  0  0  0  0
  150.9597  138.7551  154.0872 C   0  0  0  0  0  0  0  0  0  0  0  0
  152.2414  138.3208  154.8106 C   0  0  0  0  0  0  0  0  0  0  0  0
  153.2171  139.0974  154.7200 O   0  0  0  0  0  0  0  0  0  0  0  0
  152.2444  137.2342  155.4316 O   0  5  0  0  0  0  0  0  0  0  0  0
  149.4954  142.9883  154.8056 H   0  0  0  0  0  0  0  0  0  0  0  0
  150.0710  137.7619  157.6030 H   0  0  0  0  0  0  0  0  0  0  0  0
  151.3375  138.1832  158.7539 H   0  0  0  0  0  0  0  0  0  0  0  0
  151.7613  137.8152  157.0816 H   0  0  0  0  0  0  0  0  0  0  0  0
  150.6548  144.5796  158.0603 H   0  0  0  0  0  0  0  0  0  0  0  0
  152.3853  144.6860  158.3049 H   0  0  0  0  0  0  0  0  0  0  0  0
  151.1973  146.1076  159.9454 H   0  0  0  0  0  0  0  0  0  0  0  0
  150.2135  144.7597  160.4808 H   0  0  0  0  0  0  0  0  0  0  0  0
  152.9875  143.0741  162.0372 H   0  0  0  0  0  0  0  0  0  0  0  0
  151.2675  142.9727  161.7135 H   0  0  0  0  0  0  0  0  0  0  0  0
  153.5322  142.7456  159.6463 H   0  0  0  0  0  0  0  0  0  0  0  0
  152.5119  141.4459  160.2205 H   0  0  0  0  0  0  0  0  0  0  0  0
  148.9940  139.6000  154.4941 H   0  0  0  0  0  0  0  0  0  0  0  0
  149.4207  138.2912  155.5499 H   0  0  0  0  0  0  0  0  0  0  0  0
  150.6287  137.9311  153.4547 H   0  0  0  0  0  0  0  0  0  0  0  0
  151.2031  139.5845  153.4218 H   0  0  0  0  0  0  0  0  0  0  0  0
  1 21  1  0  0  0  0
  1 22  1  0  0  0  0
  1 23  1  0  0  0  0
  1  2  1  0  0  0  0
  2 14  2  0  0  0  0
  2  3  1  0  0  0  0
  3  4  2  0  0  0  0
  4  5  1  0  0  0  0
  4 11  1  0  0  0  0
  5 10  1  0  0  0  0
  5  6  1  0  0  0  0
  6  7  1  0  0  0  0
  6 24  1  0  0  0  0
  6 25  1  0  0  0  0
  7  8  1  0  0  0  0
  7 26  1  0  0  0  0
  7 27  1  0  0  0  0
  8  9  1  0  0  0  0
  9 10  1  0  0  0  0
  9 28  1  0  0  0  0
  9 29  1  0  0  0  0
 10 30  1  0  0  0  0
 10 31  1  0  0  0  0
 11 12  2  0  0  0  0
 12 13  1  0  0  0  0
 12 14  1  0  0  0  0
 13 20  1  0  0  0  0
 14 15  1  0  0  0  0
 15 16  1  0  0  0  0
 15 32  1  0  0  0  0
 15 33  1  0  0  0  0
 16 17  1  0  0  0  0
 16 34  1  0  0  0  0
 16 35  1  0  0  0  0
 17 18  2  0  0  0  0
 17 19  1  0  0  0  0
M  CHG  1  19  -1
M  END
> <s_m_source_file>
AV-unprocessed.smi

> <i_m_source_file_index>
581

> <i_lp_mmshare_version>
43012

> <i_f3d_flags>
0

> <s_epik_input>
W0NIMl0xW0NIMl1PW0NIMl1bQ0gyXU4xYyhuYzJbQ0gzXSlbbkhdYyg9TyljMltDSDJdW0NIMl1DKD1PKVtPSF0=

> <s_epik_cmdline>
J2VwaWtfcHl0aG9uJywgJy1waCcsICc3LjAnLCAnLXRuJywgJzgnLCAnLW1hJywgJzIwMCcsICctbWV0YWxfYmluZGluZycsICctaW1hZScsICc8aW5maWxlLm1hZT4nLCAnLW9tYWUnLCAnPG91dGZpbGUubWFlPic=

> <r_lp_tautomer_probability>
0.0131408

> <r_epik_Ionization_Penalty>
9.14148

> <r_epik_Ionization_Penalty_Charging>
0.00124504

> <r_epik_Ionization_Penalty_Neutral>
9.14023

> <r_epik_State_Penalty>
2.72329

> <r_epik_Charging_Adjusted_Penalty>
2.72453

> <i_epik_Tot_Q>
-1

> <i_epik_Tot_abs_Q>
1

> <r_epik_Metal_State_Penalty>
2.96989

> <b_epik_Metal_Only>
0

> <s_lp_Force_Field>
OPLS_2005

> <r_lp_Energy>
10.3836

> <b_lp_Chiralities_Consistent>
1

> <s_lp_Variant>
AV-unprocessed.smi:581-3

> <Gold.Version>
5.8.1

> <Gold.Id.Protein>
6NUR|6NUR_protein|mol2

> <Gold.PLP.Fitness>
50.7270

> <Gold.PLP.PLP>
-37.7191

> <Gold.PLP.part.hbond>
-5.0514

> <Gold.PLP.part.metal>
0.0000

> <Gold.PLP.part.buried>
-4.0614

> <Gold.PLP.part.nonpolar>
-29.1706

> <Gold.PLP.part.repulsive>
0.4994

> <Gold.PLP.ligand.clash>
0.0000

> <Gold.PLP.ligand.torsion>
0.5978

> <Gold.PLP.Chemscore.Hbond>
4.7002

> <Gold.PLP.Chemscore.CHOScore>
0.0000

> <Gold.PLP.Chemscore.Metal>
0.0000

> <Gold.Chemscore.Hbonds>
donor molecule, donor type, donor heavy atom, donor atom, acceptor molecule, acceptor atom, score
      L1  H    13    20       P1  8028  1.00
      P1  H  7997  8008       L1    18  2.00
      P1  H 10752 10764       L1    19  1.60

> <Gold.PLP.Chemscore.Internal.Correction>
0.1031

> <Gold.Rescore>
     Score         DG    S(hbond)    S(metal)    S(lipo)     H(rot)  DE(clash)    DE(int)     intcor
     16.21     -16.95       2.84        0.00      71.32       2.48       0.12       0.62       ----

> <Gold.Chemscore.Fitness>
16.2061

> <Gold.Chemscore.DG>
-16.9515

> <Gold.Chemscore.ZeroCoef>
-5.4800

> <Gold.Chemscore.Hbond>
2.8352

> <Gold.Chemscore.Metal>
0.0000

> <Gold.Chemscore.Lipo>
71.3168

> <Gold.Chemscore.Internal_Hbond>
0.0000

> <Gold.Chemscore.DEClash>
0.1242

> <Gold.Chemscore.DEInternal>
0.6211

> <Gold.Chemscore.Rot>
2.4774

> <Gold.Chemscore.Internal.Correction>
   9.000000E+99

> <Gold.Chemscore.Hbonds>
donor molecule, donor type, donor heavy atom, donor atom, acceptor molecule, acceptor atom, score
      L1  H    13    20       P1  8028  0.95
      P1  H  7997  8008       L1    18  0.94
      P1  H 10752 10764       L1    19  0.79

> <Gold.Chemscore.Hbond.Weighted>
-9.4695

> <Gold.Chemscore.Metal.Weighted>
-0.0000

> <Gold.Chemscore.Lipo.Weighted>
-8.3441

> <Gold.Chemscore.Internal_Hbond.Weighted>
0.0000

> <Gold.Chemscore.DEClash.Weighted>
0.1242

> <Gold.Chemscore.DEInternal.Weighted>
0.6211

> <Gold.Chemscore.Rot.Weighted>
6.3420

> <Gold.Chemscore.Internal.Correction.Weighted>
   9.000000E+99

> <Gold.Protein.RotatedTorsions>
[ 6907 6896 6895 6894 ] final  -34.57 input  -60.11 | X-H torsion
[ 7974 7965 7964 7962 ] final   71.86 input  175.53 | X-H torsion
[ 8008 7997 7996 7995 ] final  -14.07 input   59.86 | X-H torsion
[ 10167 10162 10161 10158 ] final  -41.84 input  -65.29 | X-H torsion
[ 10718 10713 10712 10709 ] final  123.65 input   66.30 | X-H torsion
[ 10763 10752 10751 10750 ] final  -48.93 input  -60.55 | X-H torsion
[ 11005 11000 10999 10996 ] final  103.47 input  -57.11 | X-H torsion

> <Gold.Protein.ActiveResidues>
 VAL166  LYS551  ARG553  GLY616  TRP617  ASP618  TYR619  PRO620  LYS621  CYS622 
 ASP623  PHE694  ASN695  SER759  ASP760  ASP761  ALA762  ILE779  LEU786  VAL792 
 PHE793  MET794  SER795  GLU796  ALA797  LYS798  CYS799  TRP800  GLU811  SER814 

> <Gold.Protein.RotatedAtoms>
  151.0509  134.9672  159.8210 H   0  0  0  0  0  0  0  0  0  0  0  0  # atno 6907 bound_to 6896
  152.5380  134.2539  159.8919 H   0  0  0  0  0  0  0  0  0  0  0  0  # atno 6908 bound_to 6896
  151.2554  133.4286  159.2647 H   0  0  0  0  0  0  0  0  0  0  0  0  # atno 6909 bound_to 6896
  145.7605  139.2798  143.1379 H   0  0  0  0  0  0  0  0  0  0  0  0  # atno 7974 bound_to 7965
  154.5240  140.2232  155.8924 H   0  0  0  0  0  0  0  0  0  0  0  0  # atno 8008 bound_to 7997
  156.1693  140.3125  155.8909 H   0  0  0  0  0  0  0  0  0  0  0  0  # atno 8009 bound_to 7997
  155.3592  140.0460  157.3037 H   0  0  0  0  0  0  0  0  0  0  0  0  # atno 8010 bound_to 7997
  140.6989  143.3071  151.3124 H   0  0  0  0  0  0  0  0  0  0  0  0  # atno 10167 bound_to 10162
  157.5648  131.1087  150.8474 H   0  0  0  0  0  0  0  0  0  0  0  0  # atno 10718 bound_to 10713
  154.0858  135.6584  153.4845 H   0  0  0  0  0  0  0  0  0  0  0  0  # atno 10763 bound_to 10752
  153.0339  135.5190  154.7429 H   0  0  0  0  0  0  0  0  0  0  0  0  # atno 10764 bound_to 10752
  154.6538  135.3005  154.9922 H   0  0  0  0  0  0  0  0  0  0  0  0  # atno 10765 bound_to 10752
  139.8784  134.9264  156.5215 H   0  0  0  0  0  0  0  0  0  0  0  0  # atno 11005 bound_to 11000
  146.0268  140.8295  142.9895 LP  0  0  0  0  0  0  0  0  0  0  0  0  # atno 17320 bound_to 7965
  144.6831  140.2710  143.7306 LP  0  0  0  0  0  0  0  0  0  0  0  0  # atno 17321 bound_to 7965
  139.6481  144.0413  152.2606 LP  0  0  0  0  0  0  0  0  0  0  0  0  # atno 17342 bound_to 10162
  139.9940  144.6341  150.7788 LP  0  0  0  0  0  0  0  0  0  0  0  0  # atno 17343 bound_to 10162
  156.8962  130.5230  149.5284 LP  0  0  0  0  0  0  0  0  0  0  0  0  # atno 17370 bound_to 10713
  156.0697  130.5733  150.9359 LP  0  0  0  0  0  0  0  0  0  0  0  0  # atno 17371 bound_to 10713
  140.8447  133.8178  155.9109 LP  0  0  0  0  0  0  0  0  0  0  0  0  # atno 17394 bound_to 11000
  140.9203  134.2150  157.4930 LP  0  0  0  0  0  0  0  0  0  0  0  0  # atno 17395 bound_to 11000

$$$$
