AV-unprocessed.smi:750|AV-procd|sdf|3591|dock1
  -GOLD-   22720 0583D 1   1.00000     0.00000
 Structure written by MMmdl.
 22 23  0  0  0  0  0  0  0  0  2 V2000
  150.2880  139.8733  158.6739 C   0  0  0  0  0  0  0  0  0  0  0  0
  151.1136  140.5907  157.5855 C   0  0  2  0  0  0  0  0  0  0  0  0
  151.7128  141.9159  158.0866 C   0  0  0  0  0  0  0  0  0  0  0  0
  152.5451  141.9850  159.2301 C   0  0  0  0  0  0  0  0  0  0  0  0
  153.0608  143.2313  159.6339 C   0  0  0  0  0  0  0  0  0  0  0  0
  152.7255  144.3718  158.8805 C   0  0  0  0  0  0  0  0  0  0  0  0
  151.9353  144.3297  157.7884 N   0  0  0  0  0  0  0  0  0  0  0  0
  151.4449  143.1299  157.4091 C   0  0  0  0  0  0  0  0  0  0  0  0
  150.3012  140.7350  156.3922 N   0  0  0  0  0  0  0  0  0  0  0  0
  150.8293  140.0865  155.3559 C   0  0  0  0  0  0  0  0  0  0  0  0
  150.2988  140.0990  154.2474 O   0  0  0  0  0  0  0  0  0  0  0  0
  151.9637  139.4637  155.7283 N   0  5  0  0  0  0  0  0  0  0  0  0
  152.2231  139.6808  157.0363 C   0  0  0  0  0  0  0  0  0  0  0  0
  153.1422  139.2600  157.7382 O   0  0  0  0  0  0  0  0  0  0  0  0
  150.8886  139.6340  159.5518 H   0  0  0  0  0  0  0  0  0  0  0  0
  149.8704  138.9349  158.3058 H   0  0  0  0  0  0  0  0  0  0  0  0
  149.4545  140.4937  159.0045 H   0  0  0  0  0  0  0  0  0  0  0  0
  152.7953  141.1053  159.8036 H   0  0  0  0  0  0  0  0  0  0  0  0
  153.6978  143.3104  160.5022 H   0  0  0  0  0  0  0  0  0  0  0  0
  153.1018  145.3438  159.1627 H   0  0  0  0  0  0  0  0  0  0  0  0
  150.8134  143.1454  156.5335 H   0  0  0  0  0  0  0  0  0  0  0  0
  149.4495  141.2754  156.3603 H   0  0  0  0  0  0  0  0  0  0  0  0
  1  2  1  0  0  0  0
  1 15  1  0  0  0  0
  1 16  1  0  0  0  0
  1 17  1  0  0  0  0
  2 13  1  0  0  0  0
  2  3  1  0  0  0  0
  2  9  1  0  0  0  0
  3  8  1  0  0  0  0
  3  4  2  0  0  0  0
  4  5  1  0  0  0  0
  4 18  1  0  0  0  0
  5  6  2  0  0  0  0
  5 19  1  0  0  0  0
  6  7  1  0  0  0  0
  6 20  1  0  0  0  0
  7  8  2  0  0  0  0
  8 21  1  0  0  0  0
  9 10  1  0  0  0  0
  9 22  1  0  0  0  0
 10 11  2  0  0  0  0
 10 12  1  0  0  0  0
 12 13  1  0  0  0  0
 13 14  2  0  0  0  0
M  CHG  1  12  -1
M  END
> <s_m_source_file>
AV-unprocessed.smi

> <i_m_source_file_index>
750

> <i_lp_mmshare_version>
43012

> <i_f3d_flags>
0

> <s_epik_input>
Tz1DMVtOSF1DKD1PKVtOSF1bQ0BAXTEoW0NIM10pYzJbY0hdW2NIXVtjSF1uW2NIXTI=

> <s_epik_cmdline>
J2VwaWtfcHl0aG9uJywgJy1waCcsICc3LjAnLCAnLXRuJywgJzgnLCAnLW1hJywgJzIwMCcsICctbWV0YWxfYmluZGluZycsICctaW1hZScsICc8aW5maWxlLm1hZT4nLCAnLW9tYWUnLCAnPG91dGZpbGUubWFlPic=

> <r_epik_Ionization_Penalty>
1.82311

> <r_epik_Ionization_Penalty_Charging>
1.82122

> <r_epik_Ionization_Penalty_Neutral>
0.00188516

> <r_epik_State_Penalty>
1.93645

> <r_epik_Charging_Adjusted_Penalty>
3.75767

> <i_epik_Tot_Q>
-1

> <i_epik_Tot_abs_Q>
1

> <r_epik_Metal_State_Penalty>
0.533589

> <b_epik_Metal_Only>
0

> <s_lp_Force_Field>
OPLS_2005

> <r_lp_Energy>
8.30846

> <b_lp_Chiralities_Consistent>
1

> <s_lp_Variant>
AV-unprocessed.smi:750-4

> <Gold.Version>
5.8.1

> <Gold.Id.Protein>
6NUR|6NUR_protein|mol2

> <Gold.PLP.Fitness>
33.6232

> <Gold.PLP.PLP>
-26.3916

> <Gold.PLP.part.hbond>
-2.0354

> <Gold.PLP.part.metal>
0.0000

> <Gold.PLP.part.buried>
-3.2913

> <Gold.PLP.part.nonpolar>
-21.5739

> <Gold.PLP.part.repulsive>
0.6203

> <Gold.PLP.ligand.clash>
0.0000

> <Gold.PLP.ligand.torsion>
0.0843

> <Gold.PLP.Chemscore.Hbond>
1.4392

> <Gold.PLP.Chemscore.CHOScore>
1.0000

> <Gold.PLP.Chemscore.Metal>
0.0000

> <Gold.Chemscore.Hbonds>
donor molecule, donor type, donor heavy atom, donor atom, acceptor molecule, acceptor atom, score
      P1  H  7989  7998       L1    11  0.75
      P1  H  7997  8009       L1    14  0.60
      L1  C     8    21       P1  8028  0.75

> <Gold.PLP.Chemscore.Internal.Correction>
0.0826

> <Gold.Rescore>
     Score         DG    S(hbond)    S(metal)    S(lipo)     H(rot)  DE(clash)    DE(int)     intcor
     17.05     -17.32       2.14        0.00      61.99       1.00       0.23       0.04       ----

> <Gold.Chemscore.Fitness>
17.0547

> <Gold.Chemscore.DG>
-17.3247

> <Gold.Chemscore.ZeroCoef>
-5.4800

> <Gold.Chemscore.Hbond>
2.1414

> <Gold.Chemscore.Metal>
0.0000

> <Gold.Chemscore.Lipo>
61.9875

> <Gold.Chemscore.Internal_Hbond>
0.0000

> <Gold.Chemscore.DEClash>
0.2286

> <Gold.Chemscore.DEInternal>
0.0414

> <Gold.Chemscore.Rot>
1.0000

> <Gold.Chemscore.Internal.Correction>
   9.000000E+99

> <Gold.Chemscore.Hbonds>
donor molecule, donor type, donor heavy atom, donor atom, acceptor molecule, acceptor atom, score
      P1  H  7989  7998       L1    11  0.09
      P1  H  7997  8009       L1    14  0.04

> <Gold.Chemscore.Hbond.Weighted>
-7.1521

> <Gold.Chemscore.Metal.Weighted>
-0.0000

> <Gold.Chemscore.Lipo.Weighted>
-7.2525

> <Gold.Chemscore.Internal_Hbond.Weighted>
0.0000

> <Gold.Chemscore.DEClash.Weighted>
0.2286

> <Gold.Chemscore.DEInternal.Weighted>
0.0414

> <Gold.Chemscore.Rot.Weighted>
2.5600

> <Gold.Chemscore.Internal.Correction.Weighted>
   9.000000E+99

> <Gold.Protein.RotatedTorsions>
[ 6907 6896 6895 6894 ] final -124.87 input  -60.11 | X-H torsion
[ 7974 7965 7964 7962 ] final -113.88 input  175.53 | X-H torsion
[ 8008 7997 7996 7995 ] final  179.50 input   59.86 | X-H torsion
[ 10167 10162 10161 10158 ] final  -68.05 input  -65.29 | X-H torsion
[ 10718 10713 10712 10709 ] final -119.46 input   66.30 | X-H torsion
[ 10763 10752 10751 10750 ] final  -74.55 input  -60.55 | X-H torsion
[ 11005 11000 10999 10996 ] final -134.33 input  -57.11 | X-H torsion

> <Gold.Protein.ActiveResidues>
 VAL166  LYS551  ARG553  GLY616  TRP617  ASP618  TYR619  PRO620  LYS621  CYS622 
 ASP623  PHE694  ASN695  SER759  ASP760  ASP761  ALA762  ILE779  LEU786  VAL792 
 PHE793  MET794  SER795  GLU796  ALA797  LYS798  CYS799  TRP800  GLU811  SER814 

> <Gold.Protein.RotatedAtoms>
  150.8811  133.7370  159.2931 H   0  0  0  0  0  0  0  0  0  0  0  0  # atno 6907 bound_to 6896
  151.4951  135.1058  159.9823 H   0  0  0  0  0  0  0  0  0  0  0  0  # atno 6908 bound_to 6896
  152.4760  133.8094  159.7051 H   0  0  0  0  0  0  0  0  0  0  0  0  # atno 6909 bound_to 6896
  145.1267  140.8701  143.3782 H   0  0  0  0  0  0  0  0  0  0  0  0  # atno 7974 bound_to 7965
  156.0427  140.1307  157.0138 H   0  0  0  0  0  0  0  0  0  0  0  0  # atno 8008 bound_to 7997
  154.4398  140.1027  156.6330 H   0  0  0  0  0  0  0  0  0  0  0  0  # atno 8009 bound_to 7997
  155.5643  140.3465  155.4501 H   0  0  0  0  0  0  0  0  0  0  0  0  # atno 8010 bound_to 7997
  140.5536  143.2312  151.6863 H   0  0  0  0  0  0  0  0  0  0  0  0  # atno 10167 bound_to 10162
  156.1183  130.6303  150.9419 H   0  0  0  0  0  0  0  0  0  0  0  0  # atno 10718 bound_to 10713
  154.4747  135.5860  153.6346 H   0  0  0  0  0  0  0  0  0  0  0  0  # atno 10763 bound_to 10752
  152.9839  135.6075  154.3323 H   0  0  0  0  0  0  0  0  0  0  0  0  # atno 10764 bound_to 10752
  154.3208  135.2843  155.2499 H   0  0  0  0  0  0  0  0  0  0  0  0  # atno 10765 bound_to 10752
  140.9000  134.1703  157.4467 H   0  0  0  0  0  0  0  0  0  0  0  0  # atno 11005 bound_to 11000
  145.0680  139.3053  143.5846 LP  0  0  0  0  0  0  0  0  0  0  0  0  # atno 17320 bound_to 7965
  146.3517  140.0145  142.8664 LP  0  0  0  0  0  0  0  0  0  0  0  0  # atno 17321 bound_to 7965
  139.5038  144.3777  152.0407 LP  0  0  0  0  0  0  0  0  0  0  0  0  # atno 17342 bound_to 10162
  140.2896  144.3768  150.6092 LP  0  0  0  0  0  0  0  0  0  0  0  0  # atno 17343 bound_to 10162
  157.6367  131.0915  150.8335 LP  0  0  0  0  0  0  0  0  0  0  0  0  # atno 17370 bound_to 10713
  156.8435  130.5056  149.5319 LP  0  0  0  0  0  0  0  0  0  0  0  0  # atno 17371 bound_to 10713
  139.8741  134.9894  156.5455 LP  0  0  0  0  0  0  0  0  0  0  0  0  # atno 17394 bound_to 11000
  140.8242  133.8330  155.8923 LP  0  0  0  0  0  0  0  0  0  0  0  0  # atno 17395 bound_to 11000

$$$$
