AV-unprocessed.smi:3140|AV-procd|sdf|11959|dock3
  -GOLD-   2272017363D 1   1.00000     0.00000
 Structure written by MMmdl.
 38 39  0  0  0  0  0  0  0  0  2 V2000
  149.9483  143.6866  158.9351 C   0  0  0  0  0  0  0  0  0  0  0  0
  151.2652  143.7172  158.1479 C   0  0  1  0  0  0  0  0  0  0  0  0
  152.2920  142.7418  158.7638 C   0  0  0  0  0  0  0  0  0  0  0  0
  152.5371  142.9917  160.1731 N   0  0  0  0  0  0  0  0  0  0  0  0
  152.2054  144.1040  160.9178 C   0  0  0  0  0  0  0  0  0  0  0  0
  152.6589  143.8908  162.1882 C   0  0  0  0  0  0  0  0  0  0  0  0
  153.2576  142.6015  162.1231 C   0  0  0  0  0  0  0  0  0  0  0  0
  153.1828  142.0658  160.9152 N   0  0  0  0  0  0  0  0  0  0  0  0
  150.9972  143.3892  156.7287 N   0  3  0  0  0  0  0  0  0  0  0  0
  150.4704  142.0289  156.4938 C   0  0  0  0  0  0  0  0  0  0  0  0
  151.6137  141.0111  156.3671 C   0  0  0  0  0  0  0  0  0  0  0  0
  151.1844  139.8096  155.6572 N   0  0  0  0  0  0  0  0  0  0  0  0
  149.8030  139.6436  155.2379 C   0  0  0  0  0  0  0  0  0  0  0  0
  149.8027  138.3802  154.3647 C   0  0  0  0  0  0  0  0  0  0  0  0
  151.1397  137.6837  154.6406 C   0  0  0  0  0  0  0  0  0  0  0  0
  151.9456  138.7477  155.3660 C   0  0  0  0  0  0  0  0  0  0  0  0
  153.1393  138.6171  155.6332 O   0  0  0  0  0  0  0  0  0  0  0  0
  150.1085  143.9590  159.9787 H   0  0  0  0  0  0  0  0  0  0  0  0
  149.4948  142.6950  158.9167 H   0  0  0  0  0  0  0  0  0  0  0  0
  149.2261  144.3910  158.5206 H   0  0  0  0  0  0  0  0  0  0  0  0
  151.6572  144.7338  158.2125 H   0  0  0  0  0  0  0  0  0  0  0  0
  151.9352  141.7156  158.6655 H   0  0  0  0  0  0  0  0  0  0  0  0
  153.2399  142.7909  158.2246 H   0  0  0  0  0  0  0  0  0  0  0  0
  151.6857  144.9469  160.4863 H   0  0  0  0  0  0  0  0  0  0  0  0
  152.5764  144.5548  163.0361 H   0  0  0  0  0  0  0  0  0  0  0  0
  153.7440  142.0448  162.9107 H   0  0  0  0  0  0  0  0  0  0  0  0
  150.3369  144.0642  156.3689 H   0  0  0  0  0  0  0  0  0  0  0  0
  149.8097  141.7557  157.3179 H   0  0  0  0  0  0  0  0  0  0  0  0
  149.8648  142.0208  155.5882 H   0  0  0  0  0  0  0  0  0  0  0  0
  152.4561  141.4570  155.8353 H   0  0  0  0  0  0  0  0  0  0  0  0
  151.9829  140.7369  157.3564 H   0  0  0  0  0  0  0  0  0  0  0  0
  149.1735  139.5095  156.1188 H   0  0  0  0  0  0  0  0  0  0  0  0
  149.4444  140.5153  154.6892 H   0  0  0  0  0  0  0  0  0  0  0  0
  148.9517  137.7353  154.5871 H   0  0  0  0  0  0  0  0  0  0  0  0
  149.7394  138.6532  153.3104 H   0  0  0  0  0  0  0  0  0  0  0  0
  151.0113  136.8190  155.2926 H   0  0  0  0  0  0  0  0  0  0  0  0
  151.6357  137.3624  153.7243 H   0  0  0  0  0  0  0  0  0  0  0  0
  151.8604  143.4773  156.2118 H   0  0  0  0  0  0  0  0  0  0  0  0
  1  2  1  0  0  0  0
  1 18  1  0  0  0  0
  1 19  1  0  0  0  0
  1 20  1  0  0  0  0
  2  3  1  0  0  0  0
  2  9  1  0  0  0  0
  2 21  1  0  0  0  0
  3  4  1  0  0  0  0
  3 22  1  0  0  0  0
  3 23  1  0  0  0  0
  4  8  1  0  0  0  0
  4  5  1  0  0  0  0
  5  6  2  0  0  0  0
  5 24  1  0  0  0  0
  6  7  1  0  0  0  0
  6 25  1  0  0  0  0
  7  8  2  0  0  0  0
  7 26  1  0  0  0  0
  9 10  1  0  0  0  0
  9 27  1  0  0  0  0
  9 38  1  0  0  0  0
 10 11  1  0  0  0  0
 10 28  1  0  0  0  0
 10 29  1  0  0  0  0
 11 12  1  0  0  0  0
 11 30  1  0  0  0  0
 11 31  1  0  0  0  0
 12 16  1  0  0  0  0
 12 13  1  0  0  0  0
 13 14  1  0  0  0  0
 13 32  1  0  0  0  0
 13 33  1  0  0  0  0
 14 15  1  0  0  0  0
 14 34  1  0  0  0  0
 14 35  1  0  0  0  0
 15 16  1  0  0  0  0
 15 36  1  0  0  0  0
 15 37  1  0  0  0  0
 16 17  2  0  0  0  0
M  CHG  1   9   1
M  END
> <s_m_source_file>
AV-unprocessed.smi

> <i_m_source_file_index>
3140

> <i_lp_mmshare_version>
43012

> <i_f3d_flags>
0

> <s_epik_input>
bjFbY0hdW2NIXVtjSF1uMVtDSDJdW0NAQEhdKFtDSDNdKVtOSF1bQ0gyXVtDSDJdTjJbQ0gyXVtDSDJdW0NIMl1DMj1P

> <s_epik_cmdline>
J2VwaWtfcHl0aG9uJywgJy1waCcsICc3LjAnLCAnLXRuJywgJzgnLCAnLW1hJywgJzIwMCcsICctbWV0YWxfYmluZGluZycsICctaW1hZScsICc8aW5maWxlLm1hZT4nLCAnLW9tYWUnLCAnPG91dGZpbGUubWFlPic=

> <r_lp_tautomer_probability>
1

> <r_epik_Ionization_Penalty>
0.00826299

> <r_epik_Ionization_Penalty_Charging>
0.00825899

> <r_epik_Ionization_Penalty_Neutral>
3.99893e-06

> <r_epik_State_Penalty>
0.00621436

> <r_epik_Charging_Adjusted_Penalty>
0.0144734

> <i_epik_Tot_Q>
1

> <i_epik_Tot_abs_Q>
1

> <r_epik_Metal_State_Penalty>
0.00621472

> <b_epik_Metal_Only>
0

> <s_lp_Force_Field>
OPLS_2005

> <r_lp_Energy>
19.0418

> <b_lp_Chiralities_Consistent>
1

> <s_lp_Variant>
AV-unprocessed.smi:3140-2

> <Gold.Version>
5.8.1

> <Gold.Id.Protein>
6NUR|6NUR_protein|mol2

> <Gold.PLP.Fitness>
52.6085

> <Gold.PLP.PLP>
-44.4605

> <Gold.PLP.part.hbond>
-2.0000

> <Gold.PLP.part.metal>
0.0000

> <Gold.PLP.part.buried>
-5.3461

> <Gold.PLP.part.nonpolar>
-37.7489

> <Gold.PLP.part.repulsive>
0.0506

> <Gold.PLP.ligand.clash>
0.0000

> <Gold.PLP.ligand.torsion>
0.4477

> <Gold.PLP.Chemscore.Hbond>
2.9760

> <Gold.PLP.Chemscore.CHOScore>
0.0000

> <Gold.PLP.Chemscore.Metal>
0.0000

> <Gold.Chemscore.Hbonds>
donor molecule, donor type, donor heavy atom, donor atom, acceptor molecule, acceptor atom, score
      L1  H     9    27       P1  8028  2.00
      P1  H  7997  8010       L1    17  0.99

> <Gold.PLP.Chemscore.Internal.Correction>
0.1154

> <Gold.Rescore>
     Score         DG    S(hbond)    S(metal)    S(lipo)     H(rot)  DE(clash)    DE(int)     intcor
     16.90     -18.16       1.95        0.00      97.68       2.06       0.64       0.61       ----

> <Gold.Chemscore.Fitness>
16.9040

> <Gold.Chemscore.DG>
-18.1609

> <Gold.Chemscore.ZeroCoef>
-5.4800

> <Gold.Chemscore.Hbond>
1.9507

> <Gold.Chemscore.Metal>
0.0000

> <Gold.Chemscore.Lipo>
97.6762

> <Gold.Chemscore.Internal_Hbond>
0.0000

> <Gold.Chemscore.DEClash>
0.6420

> <Gold.Chemscore.DEInternal>
0.6148

> <Gold.Chemscore.Rot>
2.0557

> <Gold.Chemscore.Internal.Correction>
   9.000000E+99

> <Gold.Chemscore.Hbonds>
donor molecule, donor type, donor heavy atom, donor atom, acceptor molecule, acceptor atom, score
      L1  H     9    27       P1  8028  1.00
      P1  H  7997  8010       L1    17  0.87

> <Gold.Chemscore.Hbond.Weighted>
-6.5154

> <Gold.Chemscore.Metal.Weighted>
-0.0000

> <Gold.Chemscore.Lipo.Weighted>
-11.4281

> <Gold.Chemscore.Internal_Hbond.Weighted>
0.0000

> <Gold.Chemscore.DEClash.Weighted>
0.6420

> <Gold.Chemscore.DEInternal.Weighted>
0.6148

> <Gold.Chemscore.Rot.Weighted>
5.2627

> <Gold.Chemscore.Internal.Correction.Weighted>
   9.000000E+99

> <Gold.Protein.RotatedTorsions>
[ 6907 6896 6895 6894 ] final    8.01 input  -60.11 | X-H torsion
[ 7974 7965 7964 7962 ] final  133.08 input  175.53 | X-H torsion
[ 8008 7997 7996 7995 ] final   97.56 input   59.86 | X-H torsion
[ 10167 10162 10161 10158 ] final  173.80 input  -65.29 | X-H torsion
[ 10718 10713 10712 10709 ] final   26.61 input   66.30 | X-H torsion
[ 10763 10752 10751 10750 ] final -113.82 input  -60.55 | X-H torsion
[ 11005 11000 10999 10996 ] final   41.79 input  -57.11 | X-H torsion

> <Gold.Protein.ActiveResidues>
 VAL166  LYS551  ARG553  GLY616  TRP617  ASP618  TYR619  PRO620  LYS621  CYS622 
 ASP623  PHE694  ASN695  SER759  ASP760  ASP761  ALA762  ILE779  LEU786  VAL792 
 PHE793  MET794  SER795  GLU796  ALA797  LYS798  CYS799  TRP800  GLU811  SER814 

> <Gold.Protein.RotatedAtoms>
  151.6991  135.0933  160.0247 H   0  0  0  0  0  0  0  0  0  0  0  0  # atno 6907 bound_to 6896
  152.3731  133.6441  159.6111 H   0  0  0  0  0  0  0  0  0  0  0  0  # atno 6908 bound_to 6896
  150.7688  133.9154  159.3423 H   0  0  0  0  0  0  0  0  0  0  0  0  # atno 6909 bound_to 6896
  144.9902  139.4414  143.5343 H   0  0  0  0  0  0  0  0  0  0  0  0  # atno 7974 bound_to 7965
  156.0914  140.3256  155.7821 H   0  0  0  0  0  0  0  0  0  0  0  0  # atno 8008 bound_to 7997
  155.4990  140.0567  157.2959 H   0  0  0  0  0  0  0  0  0  0  0  0  # atno 8009 bound_to 7997
  154.4640  140.1980  156.0184 H   0  0  0  0  0  0  0  0  0  0  0  0  # atno 8010 bound_to 7997
  139.5120  144.3219  152.0194 H   0  0  0  0  0  0  0  0  0  0  0  0  # atno 10167 bound_to 10162
  157.2091  130.6926  149.6221 H   0  0  0  0  0  0  0  0  0  0  0  0  # atno 10718 bound_to 10713
  154.8413  135.4440  154.1408 H   0  0  0  0  0  0  0  0  0  0  0  0  # atno 10763 bound_to 10752
  153.2594  135.6934  153.7601 H   0  0  0  0  0  0  0  0  0  0  0  0  # atno 10764 bound_to 10752
  153.6883  135.3391  155.3171 H   0  0  0  0  0  0  0  0  0  0  0  0  # atno 10765 bound_to 10752
  140.1801  134.4115  155.8205 H   0  0  0  0  0  0  0  0  0  0  0  0  # atno 11005 bound_to 11000
  146.3429  139.9229  142.8764 LP  0  0  0  0  0  0  0  0  0  0  0  0  # atno 17320 bound_to 7965
  145.2296  140.9968  143.3998 LP  0  0  0  0  0  0  0  0  0  0  0  0  # atno 17321 bound_to 7965
  140.2661  144.4015  150.6168 LP  0  0  0  0  0  0  0  0  0  0  0  0  # atno 17342 bound_to 10162
  140.6122  143.2170  151.6862 LP  0  0  0  0  0  0  0  0  0  0  0  0  # atno 17343 bound_to 10162
  155.9692  130.4557  150.5897 LP  0  0  0  0  0  0  0  0  0  0  0  0  # atno 17370 bound_to 10713
  157.3690  131.0762  151.1573 LP  0  0  0  0  0  0  0  0  0  0  0  0  # atno 17371 bound_to 10713
  141.2222  133.6996  156.7915 LP  0  0  0  0  0  0  0  0  0  0  0  0  # atno 17394 bound_to 11000
  140.2278  134.8709  157.3444 LP  0  0  0  0  0  0  0  0  0  0  0  0  # atno 17395 bound_to 11000

$$$$
