AV-unprocessed.smi:72|AV-procd|sdf|716|dock10
  -GOLD-   2262017 43D 1   1.00000     0.00000
 Structure written by MMmdl.
 28 29  0  0  0  0  0  0  0  0  2 V2000
  148.3199  136.4815  161.2570 N   0  0  0  0  0  0  0  0  0  0  0  0
  148.4411  136.7243  160.0262 C   0  0  0  0  0  0  0  0  0  0  0  0
  147.7846  137.8747  159.4447 N   0  0  0  0  0  0  0  0  0  0  0  0
  147.9410  138.0821  158.1735 C   0  0  0  0  0  0  0  0  0  0  0  0
  148.7501  137.1989  157.3426 N   0  0  0  0  0  0  0  0  0  0  0  0
  148.9370  137.4331  155.8519 C   0  0  1  0  0  0  0  0  0  0  0  0
  148.1731  138.5316  155.4393 O   0  0  0  0  0  0  0  0  0  0  0  0
  149.0238  139.6279  155.1236 C   0  0  2  0  0  0  0  0  0  0  0  0
  148.3117  140.6316  154.2001 C   0  0  0  0  0  0  0  0  0  0  0  0
  149.2022  141.1095  153.2142 O   0  0  0  0  0  0  0  0  0  0  0  0
  150.2901  138.9551  154.5799 C   0  0  2  0  0  0  0  0  0  0  0  0
  150.1369  138.5938  153.2195 O   0  0  0  0  0  0  0  0  0  0  0  0
  150.4087  137.7119  155.4523 C   0  0  1  0  0  0  0  0  0  0  0  0
  151.2622  137.9823  156.5512 O   0  0  0  0  0  0  0  0  0  0  0  0
  149.3830  136.0771  157.9422 C   0  0  0  0  0  0  0  0  0  0  0  0
  150.0672  135.3461  157.2255 O   0  0  0  0  0  0  0  0  0  0  0  0
  149.2107  135.8626  159.2768 N   0  5  0  0  0  0  0  0  0  0  0  0
  148.5200  136.5509  155.3634 H   0  0  0  0  0  0  0  0  0  0  0  0
  149.2755  140.1283  156.0602 H   0  0  0  0  0  0  0  0  0  0  0  0
  151.1613  139.6074  154.6557 H   0  0  0  0  0  0  0  0  0  0  0  0
  150.8123  136.8570  154.9077 H   0  0  0  0  0  0  0  0  0  0  0  0
  148.8258  135.6530  161.5347 H   0  0  0  0  0  0  0  0  0  0  0  0
  147.4790  138.9239  157.6589 H   0  0  0  0  0  0  0  0  0  0  0  0
  147.4368  140.1895  153.7232 H   0  0  0  0  0  0  0  0  0  0  0  0
  147.9575  141.4821  154.7828 H   0  0  0  0  0  0  0  0  0  0  0  0
  149.3749  140.4107  152.6018 H   0  0  0  0  0  0  0  0  0  0  0  0
  150.0288  139.3839  152.7123 H   0  0  0  0  0  0  0  0  0  0  0  0
  150.9714  138.7788  156.9678 H   0  0  0  0  0  0  0  0  0  0  0  0
  1  2  2  0  0  0  0
  1 22  1  0  0  0  0
  2 17  1  0  0  0  0
  2  3  1  0  0  0  0
  3  4  2  0  0  0  0
  4  5  1  0  0  0  0
  4 23  1  0  0  0  0
  5  6  1  0  0  0  0
  5 15  1  0  0  0  0
  6 18  1  0  0  0  0
  6 13  1  0  0  0  0
  6  7  1  0  0  0  0
  7  8  1  0  0  0  0
  8 19  1  0  0  0  0
  8  9  1  0  0  0  0
  8 11  1  0  0  0  0
  9 10  1  0  0  0  0
  9 24  1  0  0  0  0
  9 25  1  0  0  0  0
 10 26  1  0  0  0  0
 11 20  1  0  0  0  0
 11 12  1  0  0  0  0
 11 13  1  0  0  0  0
 12 27  1  0  0  0  0
 13 21  1  0  0  0  0
 13 14  1  0  0  0  0
 14 28  1  0  0  0  0
 15 16  2  0  0  0  0
 15 17  1  0  0  0  0
M  CHG  1  17  -1
M  END
> <s_m_source_file>
AV-unprocessed.smi

> <i_m_source_file_index>
72

> <i_lp_mmshare_version>
43012

> <i_f3d_flags>
0

> <s_epik_input>
W05IMl1jMW5bY0hdbihjKD1PKW4xKVtDQEBIXTJPW0NASF0oW0NIMl1bT0hdKVtDQEBIXShbT0hdKVtDQEhdMltPSF0=

> <s_epik_cmdline>
J2VwaWtfcHl0aG9uJywgJy1waCcsICc3LjAnLCAnLXRuJywgJzgnLCAnLW1hJywgJzIwMCcsICctbWV0YWxfYmluZGluZycsICctaW1hZScsICc8aW5maWxlLm1hZT4nLCAnLW9tYWUnLCAnPG91dGZpbGUubWFlPic=

> <r_lp_tautomer_probability>
7.17554e-07

> <r_epik_Ionization_Penalty>
12.8705

> <r_epik_Ionization_Penalty_Charging>
5.64144

> <r_epik_Ionization_Penalty_Neutral>
7.22905

> <r_epik_State_Penalty>
3.30104

> <r_epik_Charging_Adjusted_Penalty>
8.94249

> <i_epik_Tot_Q>
-1

> <i_epik_Tot_abs_Q>
1

> <r_epik_Metal_State_Penalty>
0.529074

> <b_epik_Metal_Only>
1

> <s_epik_Chemistry_Notes>
This compound contains an acetal/aminal-like group ( X-CH(R)-Y where X, Y are N, S, or O) that may be acid/base labile, releasing an aldehyde.

> <s_lp_Force_Field>
OPLS_2005

> <r_lp_Energy>
37.2706

> <b_lp_Chiralities_Consistent>
1

> <s_lp_Variant>
AV-unprocessed.smi:72-54

> <Gold.Version>
5.8.1

> <Gold.Id.Protein>
6NUR|6NUR_protein|mol2

> <Gold.PLP.Fitness>
36.4018

> <Gold.PLP.PLP>
-19.2088

> <Gold.PLP.part.hbond>
-7.7710

> <Gold.PLP.part.metal>
0.0000

> <Gold.PLP.part.buried>
-1.6682

> <Gold.PLP.part.nonpolar>
-9.3897

> <Gold.PLP.part.repulsive>
0.0434

> <Gold.PLP.ligand.clash>
0.0000

> <Gold.PLP.ligand.torsion>
0.5755

> <Gold.PLP.Chemscore.Hbond>
6.1031

> <Gold.PLP.Chemscore.CHOScore>
0.0000

> <Gold.PLP.Chemscore.Metal>
0.0000

> <Gold.Chemscore.Hbonds>
donor molecule, donor type, donor heavy atom, donor atom, acceptor molecule, acceptor atom, score
      L1  H    10    26       P1  7957  0.86
      L1  H    12    27       P1  7957  0.90
      P1  H  6896  6909       L1    17  1.90
      P1  H  6931  6943       L1     1  0.80
      P1  H  6934  6947       L1     3  0.50
      P1  H  8011  8017       L1    10  0.95

> <Gold.PLP.Chemscore.Internal.Correction>
0.0348

> <Gold.Rescore>
     Score         DG    S(hbond)    S(metal)    S(lipo)     H(rot)  DE(clash)    DE(int)     intcor
      6.92      -7.79       2.99        0.00      22.74       4.04       0.04       0.84       ----

> <Gold.Chemscore.Fitness>
6.9186

> <Gold.Chemscore.DG>
-7.7940

> <Gold.Chemscore.ZeroCoef>
-5.4800

> <Gold.Chemscore.Hbond>
2.9929

> <Gold.Chemscore.Metal>
0.0000

> <Gold.Chemscore.Lipo>
22.7407

> <Gold.Chemscore.Internal_Hbond>
0.0000

> <Gold.Chemscore.DEClash>
0.0392

> <Gold.Chemscore.DEInternal>
0.8362

> <Gold.Chemscore.Rot>
4.0403

> <Gold.Chemscore.Internal.Correction>
   9.000000E+99

> <Gold.Chemscore.Hbonds>
donor molecule, donor type, donor heavy atom, donor atom, acceptor molecule, acceptor atom, score
      L1  H    10    26       P1  7957  0.79
      L1  H    12    27       P1  7957  0.82
      P1  H  6896  6909       L1    17  0.21
      P1  H  6931  6943       L1     1  0.11
      P1  H  6934  6947       L1     3  0.35
      P1  H  8011  8017       L1    10  0.21

> <Gold.Chemscore.Hbond.Weighted>
-9.9964

> <Gold.Chemscore.Metal.Weighted>
-0.0000

> <Gold.Chemscore.Lipo.Weighted>
-2.6607

> <Gold.Chemscore.Internal_Hbond.Weighted>
0.0000

> <Gold.Chemscore.DEClash.Weighted>
0.0392

> <Gold.Chemscore.DEInternal.Weighted>
0.8362

> <Gold.Chemscore.Rot.Weighted>
10.3431

> <Gold.Chemscore.Internal.Correction.Weighted>
   9.000000E+99

> <Gold.Protein.RotatedTorsions>
[ 6907 6896 6895 6894 ] final   50.52 input  -60.11 | X-H torsion
[ 7974 7965 7964 7962 ] final  177.25 input  175.53 | X-H torsion
[ 8008 7997 7996 7995 ] final  -70.93 input   59.86 | X-H torsion
[ 10167 10162 10161 10158 ] final  147.46 input  -65.29 | X-H torsion
[ 10718 10713 10712 10709 ] final  -65.80 input   66.30 | X-H torsion
[ 10763 10752 10751 10750 ] final -145.25 input  -60.55 | X-H torsion
[ 11005 11000 10999 10996 ] final -133.44 input  -57.11 | X-H torsion

> <Gold.Protein.ActiveResidues>
 VAL166  LYS551  ARG553  GLY616  TRP617  ASP618  TYR619  PRO620  LYS621  CYS622 
 ASP623  PHE694  ASN695  SER759  ASP760  ASP761  ALA762  ILE779  LEU786  VAL792 
 PHE793  MET794  SER795  GLU796  ALA797  LYS798  CYS799  TRP800  GLU811  SER814 

> <Gold.Protein.RotatedAtoms>
  152.3027  134.7592  160.0353 H   0  0  0  0  0  0  0  0  0  0  0  0  # atno 6907 bound_to 6896
  151.8100  133.3375  159.3560 H   0  0  0  0  0  0  0  0  0  0  0  0  # atno 6908 bound_to 6896
  150.7281  134.5603  159.5883 H   0  0  0  0  0  0  0  0  0  0  0  0  # atno 6909 bound_to 6896
  144.7172  140.0219  143.6440 H   0  0  0  0  0  0  0  0  0  0  0  0  # atno 7974 bound_to 7965
  154.5049  140.0825  156.7874 H   0  0  0  0  0  0  0  0  0  0  0  0  # atno 8008 bound_to 7997
  155.3917  140.3433  155.4233 H   0  0  0  0  0  0  0  0  0  0  0  0  # atno 8009 bound_to 7997
  156.1503  140.1556  156.8768 H   0  0  0  0  0  0  0  0  0  0  0  0  # atno 8010 bound_to 7997
  139.4890  144.5754  151.6976 H   0  0  0  0  0  0  0  0  0  0  0  0  # atno 10167 bound_to 10162
  156.0649  130.4252  150.1616 H   0  0  0  0  0  0  0  0  0  0  0  0  # atno 10718 bound_to 10713
  154.8392  135.3418  154.6474 H   0  0  0  0  0  0  0  0  0  0  0  0  # atno 10763 bound_to 10752
  153.7086  135.6965  153.5048 H   0  0  0  0  0  0  0  0  0  0  0  0  # atno 10764 bound_to 10752
  153.2468  135.4366  155.0710 H   0  0  0  0  0  0  0  0  0  0  0  0  # atno 10765 bound_to 10752
  140.9080  134.1604  157.4410 H   0  0  0  0  0  0  0  0  0  0  0  0  # atno 11005 bound_to 11000
  146.0173  139.3221  143.0834 LP  0  0  0  0  0  0  0  0  0  0  0  0  # atno 17320 bound_to 7965
  145.8610  140.9475  143.0700 LP  0  0  0  0  0  0  0  0  0  0  0  0  # atno 17321 bound_to 7965
  140.5349  144.0672  150.6067 LP  0  0  0  0  0  0  0  0  0  0  0  0  # atno 17342 bound_to 10162
  140.3674  143.2873  152.0316 LP  0  0  0  0  0  0  0  0  0  0  0  0  # atno 17343 bound_to 10162
  156.9678  130.9825  151.3465 LP  0  0  0  0  0  0  0  0  0  0  0  0  # atno 17370 bound_to 10713
  157.5683  130.8293  149.8357 LP  0  0  0  0  0  0  0  0  0  0  0  0  # atno 17371 bound_to 10713
  139.8753  134.9925  156.5598 LP  0  0  0  0  0  0  0  0  0  0  0  0  # atno 17394 bound_to 11000
  140.8146  133.8402  155.8840 LP  0  0  0  0  0  0  0  0  0  0  0  0  # atno 17395 bound_to 11000

$$$$
