AV-unprocessed.smi:48|AV-procd|sdf|448|dock7
  -GOLD-   2262016313D 1   1.00000     0.00000
 Structure written by MMmdl.
 30 32  0  0  0  0  0  0  0  0  1 V2000
  148.3630  142.6162  154.3212 O   0  0  0  0  0  0  0  0  0  0  0  0
  148.2018  141.3234  153.7772 C   0  0  0  0  0  0  0  0  0  0  0  0
  149.0194  140.3050  154.5906 C   0  0  2  0  0  0  0  0  0  0  0  0
  150.3919  140.3187  154.2109 O   0  0  0  0  0  0  0  0  0  0  0  0
  151.0134  139.1540  154.6670 C   0  0  1  0  0  0  0  0  0  0  0  0
  151.6848  139.4577  155.9711 N   0  0  0  0  0  0  0  0  0  0  0  0
  152.6768  138.7933  156.6035 C   0  0  0  0  0  0  0  0  0  0  0  0
  153.0859  139.2754  157.7771 N   0  0  0  0  0  0  0  0  0  0  0  0
  152.2551  140.3729  157.9308 C   0  0  0  0  0  0  0  0  0  0  0  0
  152.1273  141.3489  158.9490 C   0  0  0  0  0  0  0  0  0  0  0  0
  153.1357  141.3109  160.3487 Cl  0  0  0  0  0  0  0  0  0  0  0  0
  151.1907  142.3166  158.8004 N   0  0  0  0  0  0  0  0  0  0  0  0
  150.4199  142.3215  157.7054 C   0  0  0  0  0  0  0  0  0  0  0  0
  150.4253  141.4747  156.6690 N   0  0  0  0  0  0  0  0  0  0  0  0
  151.3715  140.5019  156.8226 C   0  0  0  0  0  0  0  0  0  0  0  0
  149.9012  138.1093  154.8801 C   0  0  2  0  0  0  0  0  0  0  0  0
  150.1403  136.8900  154.2028 O   0  0  0  0  0  0  0  0  0  0  0  0
  148.6519  138.8321  154.3761 C   0  0  2  0  0  0  0  0  0  0  0  0
  148.3910  138.5799  153.0046 O   0  0  0  0  0  0  0  0  0  0  0  0
  148.9370  140.5265  155.6568 H   0  0  0  0  0  0  0  0  0  0  0  0
  151.8198  138.8435  154.0013 H   0  0  0  0  0  0  0  0  0  0  0  0
  149.7920  137.9044  155.9465 H   0  0  0  0  0  0  0  0  0  0  0  0
  147.7673  138.5485  154.9474 H   0  0  0  0  0  0  0  0  0  0  0  0
  148.8907  142.5487  155.1024 H   0  0  0  0  0  0  0  0  0  0  0  0
  147.1404  141.0785  153.8272 H   0  0  0  0  0  0  0  0  0  0  0  0
  148.4893  141.3178  152.7253 H   0  0  0  0  0  0  0  0  0  0  0  0
  153.1279  137.9063  156.1833 H   0  0  0  0  0  0  0  0  0  0  0  0
  149.6929  143.1184  157.6517 H   0  0  0  0  0  0  0  0  0  0  0  0
  149.9016  137.0016  153.2948 H   0  0  0  0  0  0  0  0  0  0  0  0
  148.9739  137.8951  152.7134 H   0  0  0  0  0  0  0  0  0  0  0  0
  1  2  1  0  0  0  0
  1 24  1  0  0  0  0
  2  3  1  0  0  0  0
  2 25  1  0  0  0  0
  2 26  1  0  0  0  0
  3 20  1  0  0  0  0
  3 18  1  0  0  0  0
  3  4  1  0  0  0  0
  4  5  1  0  0  0  0
  5 21  1  0  0  0  0
  5  6  1  0  0  0  0
  5 16  1  0  0  0  0
  6 15  1  0  0  0  0
  6  7  1  0  0  0  0
  7  8  2  0  0  0  0
  7 27  1  0  0  0  0
  8  9  1  0  0  0  0
  9 15  2  0  0  0  0
  9 10  1  0  0  0  0
 10 11  1  0  0  0  0
 10 12  2  0  0  0  0
 12 13  1  0  0  0  0
 13 14  2  0  0  0  0
 13 28  1  0  0  0  0
 14 15  1  0  0  0  0
 16 22  1  0  0  0  0
 16 17  1  0  0  0  0
 16 18  1  0  0  0  0
 17 29  1  0  0  0  0
 18 23  1  0  0  0  0
 18 19  1  0  0  0  0
 19 30  1  0  0  0  0
M  END
> <s_m_source_file>
AV-unprocessed.smi

> <i_m_source_file_index>
48

> <i_lp_mmshare_version>
43012

> <i_f3d_flags>
0

> <s_epik_input>
W09IXVtDSDJdW0NASF0xT1tDQEhdKFtDQEhdKFtPSF0pW0NAQEhdMVtPSF0pbihbY0hdbjIpYyhjMjMpbltjSF1uYzNDbA==

> <s_epik_cmdline>
J2VwaWtfcHl0aG9uJywgJy1waCcsICc3LjAnLCAnLXRuJywgJzgnLCAnLW1hJywgJzIwMCcsICctbWV0YWxfYmluZGluZycsICctaW1hZScsICc8aW5maWxlLm1hZT4nLCAnLW9tYWUnLCAnPG91dGZpbGUubWFlPic=

> <r_lp_tautomer_probability>
1

> <r_epik_Ionization_Penalty>
3.45505e-06

> <r_epik_Ionization_Penalty_Charging>
0

> <r_epik_Ionization_Penalty_Neutral>
3.45505e-06

> <r_epik_State_Penalty>
-0

> <r_epik_Charging_Adjusted_Penalty>
0

> <i_epik_Tot_Q>
0

> <i_epik_Tot_abs_Q>
0

> <r_epik_Metal_State_Penalty>
-0

> <b_epik_Metal_Only>
0

> <s_epik_Chemistry_Notes>
This compound contains an acetal/aminal-like group ( X-CH(R)-Y where X, Y are N, S, or O) that may be acid/base labile, releasing an aldehyde.

> <s_lp_Force_Field>
OPLS_2005

> <r_lp_Energy>
38.272

> <b_lp_Chiralities_Consistent>
1

> <s_lp_Variant>
AV-unprocessed.smi:48-2

> <Gold.Version>
5.8.1

> <Gold.Id.Protein>
6NUR|6NUR_protein|mol2

> <Gold.PLP.Fitness>
49.4411

> <Gold.PLP.PLP>
-34.3869

> <Gold.PLP.part.hbond>
-8.1005

> <Gold.PLP.part.metal>
0.0000

> <Gold.PLP.part.buried>
-1.7667

> <Gold.PLP.part.nonpolar>
-24.7352

> <Gold.PLP.part.repulsive>
0.7988

> <Gold.PLP.ligand.clash>
0.0000

> <Gold.PLP.ligand.torsion>
0.7953

> <Gold.PLP.Chemscore.Hbond>
4.5408

> <Gold.PLP.Chemscore.CHOScore>
1.0000

> <Gold.PLP.Chemscore.Metal>
0.0000

> <Gold.Chemscore.Hbonds>
donor molecule, donor type, donor heavy atom, donor atom, acceptor molecule, acceptor atom, score
      L1  H    17    29       P1  7948  0.90
      L1  H    19    30       P1  7948  0.85
      P1  H  7989  7998       L1     4  0.79
      P1  H  7997  8009       L1     8  0.65
      P1  H  8022  8030       L1     1  0.41
      L1  C    13    28       P1  8028  0.65

> <Gold.PLP.Chemscore.Internal.Correction>
0.0225

> <Gold.Rescore>
     Score         DG    S(hbond)    S(metal)    S(lipo)     H(rot)  DE(clash)    DE(int)     intcor
      8.36     -12.73       3.46        0.00      46.26       3.80       0.39       3.98       ----

> <Gold.Chemscore.Fitness>
8.3562

> <Gold.Chemscore.DG>
-12.7288

> <Gold.Chemscore.ZeroCoef>
-5.4800

> <Gold.Chemscore.Hbond>
3.4637

> <Gold.Chemscore.Metal>
0.0000

> <Gold.Chemscore.Lipo>
46.2589

> <Gold.Chemscore.Internal_Hbond>
0.0000

> <Gold.Chemscore.DEClash>
0.3914

> <Gold.Chemscore.DEInternal>
3.9811

> <Gold.Chemscore.Rot>
3.8017

> <Gold.Chemscore.Internal.Correction>
   9.000000E+99

> <Gold.Chemscore.Hbonds>
donor molecule, donor type, donor heavy atom, donor atom, acceptor molecule, acceptor atom, score
      L1  H     1    24       P1  8028  0.02
      L1  H    17    29       P1  7948  0.26
      L1  H    19    30       P1  7948  0.83
      P1  H  7989  7998       L1     4  0.10
      P1  H  7997  8009       L1     8  0.02
      P1  H  8022  8030       L1     1  0.22

> <Gold.Chemscore.Hbond.Weighted>
-11.5689

> <Gold.Chemscore.Metal.Weighted>
-0.0000

> <Gold.Chemscore.Lipo.Weighted>
-5.4123

> <Gold.Chemscore.Internal_Hbond.Weighted>
0.0000

> <Gold.Chemscore.DEClash.Weighted>
0.3914

> <Gold.Chemscore.DEInternal.Weighted>
3.9811

> <Gold.Chemscore.Rot.Weighted>
9.7324

> <Gold.Chemscore.Internal.Correction.Weighted>
   9.000000E+99

> <Gold.Protein.RotatedTorsions>
[ 6907 6896 6895 6894 ] final   21.67 input  -60.11 | X-H torsion
[ 7974 7965 7964 7962 ] final  134.97 input  175.53 | X-H torsion
[ 8008 7997 7996 7995 ] final  153.01 input   59.86 | X-H torsion
[ 10167 10162 10161 10158 ] final -113.58 input  -65.29 | X-H torsion
[ 10718 10713 10712 10709 ] final   71.72 input   66.30 | X-H torsion
[ 10763 10752 10751 10750 ] final  -80.02 input  -60.55 | X-H torsion
[ 11005 11000 10999 10996 ] final   77.94 input  -57.11 | X-H torsion

> <Gold.Protein.ActiveResidues>
 VAL166  LYS551  ARG553  GLY616  TRP617  ASP618  TYR619  PRO620  LYS621  CYS622 
 ASP623  PHE694  ASN695  SER759  ASP760  ASP761  ALA762  ILE779  LEU786  VAL792 
 PHE793  MET794  SER795  GLU796  ALA797  LYS798  CYS799  TRP800  GLU811  SER814 

> <Gold.Protein.RotatedAtoms>
  151.9153  135.0321  160.0517 H   0  0  0  0  0  0  0  0  0  0  0  0  # atno 6907 bound_to 6896
  152.2245  133.5005  159.5189 H   0  0  0  0  0  0  0  0  0  0  0  0  # atno 6908 bound_to 6896
  150.7008  134.1215  159.4079 H   0  0  0  0  0  0  0  0  0  0  0  0  # atno 6909 bound_to 6896
  144.9710  139.4606  143.5433 H   0  0  0  0  0  0  0  0  0  0  0  0  # atno 7974 bound_to 7965
  156.2602  140.2005  156.6423 H   0  0  0  0  0  0  0  0  0  0  0  0  # atno 8008 bound_to 7997
  154.6600  140.0562  157.0076 H   0  0  0  0  0  0  0  0  0  0  0  0  # atno 8009 bound_to 7997
  155.1290  140.3232  155.4481 H   0  0  0  0  0  0  0  0  0  0  0  0  # atno 8010 bound_to 7997
  140.1103  143.4533  152.1756 H   0  0  0  0  0  0  0  0  0  0  0  0  # atno 10167 bound_to 10162
  157.6465  130.9542  150.0828 H   0  0  0  0  0  0  0  0  0  0  0  0  # atno 10718 bound_to 10713
  154.5459  135.5675  153.6880 H   0  0  0  0  0  0  0  0  0  0  0  0  # atno 10763 bound_to 10752
  152.9976  135.6239  154.2439 H   0  0  0  0  0  0  0  0  0  0  0  0  # atno 10764 bound_to 10752
  154.2372  135.2863  155.2847 H   0  0  0  0  0  0  0  0  0  0  0  0  # atno 10765 bound_to 10752
  139.9233  134.7723  156.1586 H   0  0  0  0  0  0  0  0  0  0  0  0  # atno 11005 bound_to 11000
  146.3382  139.8922  142.8807 LP  0  0  0  0  0  0  0  0  0  0  0  0  # atno 17320 bound_to 7965
  145.2559  141.0060  143.3854 LP  0  0  0  0  0  0  0  0  0  0  0  0  # atno 17321 bound_to 7965
  139.5623  144.7413  151.4121 LP  0  0  0  0  0  0  0  0  0  0  0  0  # atno 17342 bound_to 10162
  140.6929  143.7818  150.7282 LP  0  0  0  0  0  0  0  0  0  0  0  0  # atno 17343 bound_to 10162
  156.1799  130.3649  149.9049 LP  0  0  0  0  0  0  0  0  0  0  0  0  # atno 17370 bound_to 10713
  156.7004  130.8931  151.3598 LP  0  0  0  0  0  0  0  0  0  0  0  0  # atno 17371 bound_to 10713
  141.0772  133.6770  156.2260 LP  0  0  0  0  0  0  0  0  0  0  0  0  # atno 17394 bound_to 11000
  140.6409  134.5167  157.5569 LP  0  0  0  0  0  0  0  0  0  0  0  0  # atno 17395 bound_to 11000

$$$$
