AV-unprocessed.smi:1761|AV-procd|sdf|7098|dock5
  -GOLD-   22720 8313D 1   1.00000     0.00000
 Structure written by MMmdl.
 34 35  0  0  0  0  0  0  0  0  1 V2000
  150.1028  140.9474  157.9668 O   0  0  0  0  0  0  0  0  0  0  0  0
  149.8873  141.9409  157.2719 C   0  0  0  0  0  0  0  0  0  0  0  0
  150.2768  143.1938  157.5653 N   0  0  0  0  0  0  0  0  0  0  0  0
  150.9790  143.6496  158.7129 C   0  0  0  0  0  0  0  0  0  0  0  0
  151.2034  145.0442  158.7612 C   0  0  0  0  0  0  0  0  0  0  0  0
  151.8889  145.5981  159.8596 C   0  0  0  0  0  0  0  0  0  0  0  0
  152.3321  144.7420  160.8834 C   0  0  0  0  0  0  0  0  0  0  0  0
  152.0676  143.3658  160.7583 C   0  0  0  0  0  0  0  0  0  0  0  0
  151.4111  142.8328  159.7063 N   0  0  0  0  0  0  0  0  0  0  0  0
  149.2264  141.9017  156.1057 N   0  0  0  0  0  0  0  0  0  0  0  0
  148.6742  140.7006  155.4820 C   0  0  1  0  0  0  0  0  0  0  0  0
  147.5832  140.1396  156.4177 C   0  0  0  0  0  0  0  0  0  0  0  0
  146.8320  138.9569  155.7897 C   0  0  0  0  0  0  0  0  0  0  0  0
  146.2255  139.3497  154.4362 C   0  0  0  0  0  0  0  0  0  0  0  0
  147.3137  139.8621  153.4832 C   0  0  0  0  0  0  0  0  0  0  0  0
  148.0932  141.0453  154.0890 C   0  0  2  0  0  0  0  0  0  0  0  0
  149.1414  141.3629  153.1951 O   0  0  0  0  0  0  0  0  0  0  0  0
  150.0400  143.9060  156.8907 H   0  0  0  0  0  0  0  0  0  0  0  0
  150.8555  145.6875  157.9658 H   0  0  0  0  0  0  0  0  0  0  0  0
  152.0709  146.6612  159.9140 H   0  0  0  0  0  0  0  0  0  0  0  0
  152.8605  145.1296  161.7418 H   0  0  0  0  0  0  0  0  0  0  0  0
  152.3907  142.6743  161.5223 H   0  0  0  0  0  0  0  0  0  0  0  0
  149.1018  142.7680  155.6030 H   0  0  0  0  0  0  0  0  0  0  0  0
  149.4419  139.9325  155.3686 H   0  0  0  0  0  0  0  0  0  0  0  0
  148.0283  139.8295  157.3638 H   0  0  0  0  0  0  0  0  0  0  0  0
  146.8653  140.9248  156.6602 H   0  0  0  0  0  0  0  0  0  0  0  0
  147.5148  138.1164  155.6586 H   0  0  0  0  0  0  0  0  0  0  0  0
  146.0464  138.6153  156.4642 H   0  0  0  0  0  0  0  0  0  0  0  0
  145.7160  138.4934  153.9933 H   0  0  0  0  0  0  0  0  0  0  0  0
  145.4689  140.1218  154.5805 H   0  0  0  0  0  0  0  0  0  0  0  0
  147.9997  139.0445  153.2561 H   0  0  0  0  0  0  0  0  0  0  0  0
  146.8626  140.1579  152.5353 H   0  0  0  0  0  0  0  0  0  0  0  0
  147.4297  141.9080  154.1667 H   0  0  0  0  0  0  0  0  0  0  0  0
  149.2720  140.6304  152.6122 H   0  0  0  0  0  0  0  0  0  0  0  0
  1  2  2  0  0  0  0
  2  3  1  0  0  0  0
  2 10  1  0  0  0  0
  3  4  1  0  0  0  0
  3 18  1  0  0  0  0
  4  9  1  0  0  0  0
  4  5  2  0  0  0  0
  5  6  1  0  0  0  0
  5 19  1  0  0  0  0
  6  7  2  0  0  0  0
  6 20  1  0  0  0  0
  7  8  1  0  0  0  0
  7 21  1  0  0  0  0
  8  9  2  0  0  0  0
  8 22  1  0  0  0  0
 10 11  1  0  0  0  0
 10 23  1  0  0  0  0
 11 16  1  0  0  0  0
 11 12  1  0  0  0  0
 11 24  1  0  0  0  0
 12 13  1  0  0  0  0
 12 25  1  0  0  0  0
 12 26  1  0  0  0  0
 13 14  1  0  0  0  0
 13 27  1  0  0  0  0
 13 28  1  0  0  0  0
 14 15  1  0  0  0  0
 14 29  1  0  0  0  0
 14 30  1  0  0  0  0
 15 16  1  0  0  0  0
 15 31  1  0  0  0  0
 15 32  1  0  0  0  0
 16 17  1  0  0  0  0
 16 33  1  0  0  0  0
 17 34  1  0  0  0  0
M  END
> <s_m_source_file>
AV-unprocessed.smi

> <i_m_source_file_index>
1761

> <i_lp_mmshare_version>
43012

> <i_f3d_flags>
0

> <s_epik_input>
bjFbY0hdW2NIXVtjSF1bY0hdYzFbTkhdQyg9TylbTkhdW0NAQEhdMltDSDJdW0NIMl1bQ0gyXVtDSDJdW0NASF0yW09IXQ==

> <s_epik_cmdline>
J2VwaWtfcHl0aG9uJywgJy1waCcsICc3LjAnLCAnLXRuJywgJzgnLCAnLW1hJywgJzIwMCcsICctbWV0YWxfYmluZGluZycsICctaW1hZScsICc8aW5maWxlLm1hZT4nLCAnLW9tYWUnLCAnPG91dGZpbGUubWFlPic=

> <r_lp_tautomer_probability>
1

> <r_epik_Ionization_Penalty>
4.92589e-05

> <r_epik_Ionization_Penalty_Charging>
0

> <r_epik_Ionization_Penalty_Neutral>
4.92589e-05

> <r_epik_State_Penalty>
-0

> <r_epik_Charging_Adjusted_Penalty>
0

> <i_epik_Tot_Q>
0

> <i_epik_Tot_abs_Q>
0

> <r_epik_Metal_State_Penalty>
-0

> <b_epik_Metal_Only>
0

> <s_lp_Force_Field>
OPLS_2005

> <r_lp_Energy>
12.6575

> <b_lp_Chiralities_Consistent>
1

> <s_lp_Variant>
AV-unprocessed.smi:1761-4

> <Gold.Version>
5.8.1

> <Gold.Id.Protein>
6NUR|6NUR_protein|mol2

> <Gold.PLP.Fitness>
43.4004

> <Gold.PLP.PLP>
-31.7740

> <Gold.PLP.part.hbond>
-5.0380

> <Gold.PLP.part.metal>
0.0000

> <Gold.PLP.part.buried>
-5.0206

> <Gold.PLP.part.nonpolar>
-21.7392

> <Gold.PLP.part.repulsive>
0.1170

> <Gold.PLP.ligand.clash>
0.0000

> <Gold.PLP.ligand.torsion>
0.0193

> <Gold.PLP.Chemscore.Hbond>
3.8880

> <Gold.PLP.Chemscore.CHOScore>
0.0000

> <Gold.PLP.Chemscore.Metal>
0.0000

> <Gold.Chemscore.Hbonds>
donor molecule, donor type, donor heavy atom, donor atom, acceptor molecule, acceptor atom, score
      L1  H     3    18       P1  8028  1.00
      L1  H    10    23       P1  8028  0.98
      L1  H    17    34       P1  7957  0.99
      P1  H  8011  8017       L1    17  0.80

> <Gold.PLP.Chemscore.Internal.Correction>
0.0011

> <Gold.Rescore>
     Score         DG    S(hbond)    S(metal)    S(lipo)     H(rot)  DE(clash)    DE(int)     intcor
     17.88     -19.75       2.88        0.00      71.79       1.47       0.53       1.34       ----

> <Gold.Chemscore.Fitness>
17.8779

> <Gold.Chemscore.DG>
-19.7537

> <Gold.Chemscore.ZeroCoef>
-5.4800

> <Gold.Chemscore.Hbond>
2.8819

> <Gold.Chemscore.Metal>
0.0000

> <Gold.Chemscore.Lipo>
71.7882

> <Gold.Chemscore.Internal_Hbond>
0.0000

> <Gold.Chemscore.DEClash>
0.5319

> <Gold.Chemscore.DEInternal>
1.3439

> <Gold.Chemscore.Rot>
1.4653

> <Gold.Chemscore.Internal.Correction>
   9.000000E+99

> <Gold.Chemscore.Hbonds>
donor molecule, donor type, donor heavy atom, donor atom, acceptor molecule, acceptor atom, score
      L1  H     3    18       P1  8028  0.96
      L1  H    10    23       P1  8028  0.92
      L1  H    17    34       P1  7957  0.93
      P1  H  8011  8017       L1    17  0.13

> <Gold.Chemscore.Hbond.Weighted>
-9.6256

> <Gold.Chemscore.Metal.Weighted>
-0.0000

> <Gold.Chemscore.Lipo.Weighted>
-8.3992

> <Gold.Chemscore.Internal_Hbond.Weighted>
0.0000

> <Gold.Chemscore.DEClash.Weighted>
0.5319

> <Gold.Chemscore.DEInternal.Weighted>
1.3439

> <Gold.Chemscore.Rot.Weighted>
3.7511

> <Gold.Chemscore.Internal.Correction.Weighted>
   9.000000E+99

> <Gold.Protein.RotatedTorsions>
[ 6907 6896 6895 6894 ] final  -81.13 input  -60.11 | X-H torsion
[ 7974 7965 7964 7962 ] final -160.75 input  175.53 | X-H torsion
[ 8008 7997 7996 7995 ] final  -91.60 input   59.86 | X-H torsion
[ 10167 10162 10161 10158 ] final   65.58 input  -65.29 | X-H torsion
[ 10718 10713 10712 10709 ] final  -63.50 input   66.30 | X-H torsion
[ 10763 10752 10751 10750 ] final   54.54 input  -60.55 | X-H torsion
[ 11005 11000 10999 10996 ] final  122.50 input  -57.11 | X-H torsion

> <Gold.Protein.ActiveResidues>
 VAL166  LYS551  ARG553  GLY616  TRP617  ASP618  TYR619  PRO620  LYS621  CYS622 
 ASP623  PHE694  ASN695  SER759  ASP760  ASP761  ALA762  ILE779  LEU786  VAL792 
 PHE793  MET794  SER795  GLU796  ALA797  LYS798  CYS799  TRP800  GLU811  SER814 

> <Gold.Protein.RotatedAtoms>
  150.6917  134.3864  159.5056 H   0  0  0  0  0  0  0  0  0  0  0  0  # atno 6907 bound_to 6896
  152.1659  134.8871  160.0547 H   0  0  0  0  0  0  0  0  0  0  0  0  # atno 6908 bound_to 6896
  151.9916  133.3758  159.4183 H   0  0  0  0  0  0  0  0  0  0  0  0  # atno 6909 bound_to 6896
  144.7415  140.3496  143.6118 H   0  0  0  0  0  0  0  0  0  0  0  0  # atno 7974 bound_to 7965
  154.7128  140.0518  157.0566 H   0  0  0  0  0  0  0  0  0  0  0  0  # atno 8008 bound_to 7997
  155.0532  140.3181  155.4666 H   0  0  0  0  0  0  0  0  0  0  0  0  # atno 8009 bound_to 7997
  156.2794  140.2112  156.5658 H   0  0  0  0  0  0  0  0  0  0  0  0  # atno 8010 bound_to 7997
  140.1097  144.4829  150.6985 H   0  0  0  0  0  0  0  0  0  0  0  0  # atno 10167 bound_to 10162
  156.0787  130.4221  150.1286 H   0  0  0  0  0  0  0  0  0  0  0  0  # atno 10718 bound_to 10713
  152.9806  135.5741  154.4921 H   0  0  0  0  0  0  0  0  0  0  0  0  # atno 10763 bound_to 10752
  154.4454  135.2777  155.1820 H   0  0  0  0  0  0  0  0  0  0  0  0  # atno 10764 bound_to 10752
  154.3471  135.6217  153.5678 H   0  0  0  0  0  0  0  0  0  0  0  0  # atno 10765 bound_to 10752
  139.9271  134.9641  156.8119 H   0  0  0  0  0  0  0  0  0  0  0  0  # atno 11005 bound_to 11000
  145.7290  139.1731  143.2441 LP  0  0  0  0  0  0  0  0  0  0  0  0  # atno 17320 bound_to 7965
  146.1220  140.7296  142.9453 LP  0  0  0  0  0  0  0  0  0  0  0  0  # atno 17321 bound_to 7965
  140.6932  143.2388  151.5073 LP  0  0  0  0  0  0  0  0  0  0  0  0  # atno 17342 bound_to 10162
  139.5626  144.2120  152.1715 LP  0  0  0  0  0  0  0  0  0  0  0  0  # atno 17343 bound_to 10162
  156.9322  130.9717  151.3531 LP  0  0  0  0  0  0  0  0  0  0  0  0  # atno 17370 bound_to 10713
  157.5894  130.8433  149.8637 LP  0  0  0  0  0  0  0  0  0  0  0  0  # atno 17371 bound_to 10713
  140.6305  133.9910  155.7660 LP  0  0  0  0  0  0  0  0  0  0  0  0  # atno 17394 bound_to 11000
  141.0836  134.0025  157.3348 LP  0  0  0  0  0  0  0  0  0  0  0  0  # atno 17395 bound_to 11000

$$$$
