AV-unprocessed.smi:924|AV-procd|sdf|4180|dock4
  -GOLD-   22720 2 83D 1   1.00000     0.00000
 Structure written by MMmdl.
 45 48  0  0  0  0  0  0  0  0  2 V2000
  152.1349  136.6738  155.7245 O   0  0  0  0  0  0  0  0  0  0  0  0
  151.3321  136.8336  154.8044 C   0  0  0  0  0  0  0  0  0  0  0  0
  151.2858  138.1515  154.0204 C   0  0  0  0  0  0  0  0  0  0  0  0
  151.0321  139.3126  154.8882 N   0  0  0  0  0  0  0  0  0  0  0  0
  149.8496  140.0381  154.6580 C   0  0  0  0  0  0  0  0  0  0  0  0
  149.5141  141.1070  155.4046 C   0  0  0  0  0  0  0  0  0  0  0  0
  150.4153  141.5092  156.4771 C   0  0  0  0  0  0  0  0  0  0  0  0
  150.1279  142.4862  157.1661 O   0  0  0  0  0  0  0  0  0  0  0  0
  151.5480  140.7705  156.6646 N   0  5  0  0  0  0  0  0  0  0  0  0
  151.8740  139.6817  155.9004 C   0  0  0  0  0  0  0  0  0  0  0  0
  152.8979  139.0255  156.0935 O   0  0  0  0  0  0  0  0  0  0  0  0
  150.4538  135.8932  154.4238 N   0  0  0  0  0  0  0  0  0  0  0  0
  150.2734  134.5901  155.0594 C   0  0  0  0  0  0  0  0  0  0  0  0
  148.9882  133.8546  154.5989 C   0  0  0  0  0  0  0  0  0  0  0  0
  148.6257  132.6766  155.5463 C   0  0  0  0  0  0  0  0  0  0  0  0
  147.3670  131.9420  155.0384 C   0  0  1  0  0  0  0  0  0  0  0  0
  146.1803  132.9271  154.9921 C   0  0  0  0  0  0  0  0  0  0  0  0
  146.5192  134.0870  154.0320 C   0  0  2  0  0  0  0  0  0  0  0  0
  146.7792  133.5285  152.6178 C   0  0  0  0  0  0  0  0  0  0  0  0
  147.9646  132.5427  152.6722 C   0  0  2  0  0  0  0  0  0  0  0  0
  147.6300  131.3786  153.6271 C   0  0  0  0  0  0  0  0  0  0  0  0
  149.2238  133.2780  153.1778 C   0  0  0  0  0  0  0  0  0  0  0  0
  147.7774  134.8260  154.5376 C   0  0  0  0  0  0  0  0  0  0  0  0
  152.2184  138.2593  153.4647 H   0  0  0  0  0  0  0  0  0  0  0  0
  150.5057  138.0960  153.2592 H   0  0  0  0  0  0  0  0  0  0  0  0
  149.2360  139.6684  153.8492 H   0  0  0  0  0  0  0  0  0  0  0  0
  148.5998  141.6505  155.2169 H   0  0  0  0  0  0  0  0  0  0  0  0
  149.8405  136.1086  153.6515 H   0  0  0  0  0  0  0  0  0  0  0  0
  151.1476  133.9876  154.8105 H   0  0  0  0  0  0  0  0  0  0  0  0
  150.2834  134.6897  156.1464 H   0  0  0  0  0  0  0  0  0  0  0  0
  149.4613  131.9794  155.6196 H   0  0  0  0  0  0  0  0  0  0  0  0
  148.4384  133.0360  156.5584 H   0  0  0  0  0  0  0  0  0  0  0  0
  147.1295  131.1219  155.7167 H   0  0  0  0  0  0  0  0  0  0  0  0
  145.2759  132.4147  154.6618 H   0  0  0  0  0  0  0  0  0  0  0  0
  145.9696  133.3120  155.9907 H   0  0  0  0  0  0  0  0  0  0  0  0
  145.6809  134.7834  153.9964 H   0  0  0  0  0  0  0  0  0  0  0  0
  145.8875  133.0277  152.2387 H   0  0  0  0  0  0  0  0  0  0  0  0
  146.9949  134.3417  151.9235 H   0  0  0  0  0  0  0  0  0  0  0  0
  148.1528  132.1480  151.6735 H   0  0  0  0  0  0  0  0  0  0  0  0
  148.4520  130.6621  153.6532 H   0  0  0  0  0  0  0  0  0  0  0  0
  146.7559  130.8337  153.2684 H   0  0  0  0  0  0  0  0  0  0  0  0
  149.4852  134.0781  152.4839 H   0  0  0  0  0  0  0  0  0  0  0  0
  150.0724  132.5923  153.1846 H   0  0  0  0  0  0  0  0  0  0  0  0
  147.5744  135.2517  155.5211 H   0  0  0  0  0  0  0  0  0  0  0  0
  148.0014  135.6679  153.8811 H   0  0  0  0  0  0  0  0  0  0  0  0
  1  2  2  0  0  0  0
  2  3  1  0  0  0  0
  2 12  1  0  0  0  0
  3  4  1  0  0  0  0
  3 24  1  0  0  0  0
  3 25  1  0  0  0  0
  4 10  1  0  0  0  0
  4  5  1  0  0  0  0
  5  6  2  0  0  0  0
  5 26  1  0  0  0  0
  6  7  1  0  0  0  0
  6 27  1  0  0  0  0
  7  8  2  0  0  0  0
  7  9  1  0  0  0  0
  9 10  1  0  0  0  0
 10 11  2  0  0  0  0
 12 13  1  0  0  0  0
 12 28  1  0  0  0  0
 13 14  1  0  0  0  0
 13 29  1  0  0  0  0
 13 30  1  0  0  0  0
 14 22  1  0  0  0  0
 14 23  1  0  0  0  0
 14 15  1  0  0  0  0
 15 16  1  0  0  0  0
 15 31  1  0  0  0  0
 15 32  1  0  0  0  0
 16 21  1  0  0  0  0
 16 17  1  0  0  0  0
 16 33  1  0  0  0  0
 17 18  1  0  0  0  0
 17 34  1  0  0  0  0
 17 35  1  0  0  0  0
 18 19  1  0  0  0  0
 18 23  1  0  0  0  0
 18 36  1  0  0  0  0
 19 20  1  0  0  0  0
 19 37  1  0  0  0  0
 19 38  1  0  0  0  0
 20 21  1  0  0  0  0
 20 22  1  0  0  0  0
 20 39  1  0  0  0  0
 21 40  1  0  0  0  0
 21 41  1  0  0  0  0
 22 42  1  0  0  0  0
 22 43  1  0  0  0  0
 23 44  1  0  0  0  0
 23 45  1  0  0  0  0
M  CHG  1   9  -1
M  END
> <s_m_source_file>
AV-unprocessed.smi

> <i_m_source_file_index>
924

> <i_lp_mmshare_version>
43012

> <i_f3d_flags>
0

> <s_epik_input>
Tz1jMVtuSF1jKD1PKVtjSF1bY0hdbjFbQ0gyXUMoPU8pW05IXVtDSDJdQzIzW0NIMl1bQ0BIXTRbQ0gyXVtDQEBIXShbQ0gyXTMpW0NIMl1bQ0BIXShbQ0gyXTQpW0NIMl0y

> <s_epik_cmdline>
J2VwaWtfcHl0aG9uJywgJy1waCcsICc3LjAnLCAnLXRuJywgJzgnLCAnLW1hJywgJzIwMCcsICctbWV0YWxfYmluZGluZycsICctaW1hZScsICc8aW5maWxlLm1hZT4nLCAnLW9tYWUnLCAnPG91dGZpbGUubWFlPic=

> <r_lp_tautomer_probability>
0.999537

> <r_epik_Ionization_Penalty>
3.12434

> <r_epik_Ionization_Penalty_Charging>
2.83226e-08

> <r_epik_Ionization_Penalty_Neutral>
3.12434

> <r_epik_State_Penalty>
3.12343

> <r_epik_Charging_Adjusted_Penalty>
3.12343

> <i_epik_Tot_Q>
-1

> <i_epik_Tot_abs_Q>
1

> <r_epik_Metal_State_Penalty>
0.463885

> <b_epik_Metal_Only>
1

> <s_lp_Force_Field>
OPLS_2005

> <r_lp_Energy>
43.5062

> <b_lp_Chiralities_Consistent>
1

> <s_lp_Variant>
AV-unprocessed.smi:924-2

> <Gold.Version>
5.8.1

> <Gold.Id.Protein>
6NUR|6NUR_protein|mol2

> <Gold.PLP.Fitness>
45.5384

> <Gold.PLP.PLP>
-34.8306

> <Gold.PLP.part.hbond>
-3.8690

> <Gold.PLP.part.metal>
0.0000

> <Gold.PLP.part.buried>
0.0881

> <Gold.PLP.part.nonpolar>
-30.9770

> <Gold.PLP.part.repulsive>
1.7092

> <Gold.PLP.ligand.clash>
0.0097

> <Gold.PLP.ligand.torsion>
0.2604

> <Gold.PLP.Chemscore.Hbond>
3.0000

> <Gold.PLP.Chemscore.CHOScore>
0.7425

> <Gold.PLP.Chemscore.Metal>
0.0000

> <Gold.Chemscore.Hbonds>
donor molecule, donor type, donor heavy atom, donor atom, acceptor molecule, acceptor atom, score
      L1  H    12    28       P1  7948  0.85
      P1  H  7997  8008       L1    11  1.00
      P1  H 10752 10765       L1     1  1.00
      L1  C     5    26       P1  7957  0.46

> <Gold.PLP.Chemscore.Internal.Correction>
0.0106

> <Gold.Rescore>
     Score         DG    S(hbond)    S(metal)    S(lipo)     H(rot)  DE(clash)    DE(int)     intcor
     14.63     -16.28       2.42        0.00      64.81       1.90       0.09       1.56       ----

> <Gold.Chemscore.Fitness>
14.6338

> <Gold.Chemscore.DG>
-16.2837

> <Gold.Chemscore.ZeroCoef>
-5.4800

> <Gold.Chemscore.Hbond>
2.4174

> <Gold.Chemscore.Metal>
0.0000

> <Gold.Chemscore.Lipo>
64.8115

> <Gold.Chemscore.Internal_Hbond>
0.0000

> <Gold.Chemscore.DEClash>
0.0856

> <Gold.Chemscore.DEInternal>
1.5644

> <Gold.Chemscore.Rot>
1.8959

> <Gold.Chemscore.Internal.Correction>
   9.000000E+99

> <Gold.Chemscore.Hbonds>
donor molecule, donor type, donor heavy atom, donor atom, acceptor molecule, acceptor atom, score
      L1  H    12    28       P1  7948  0.14
      P1  H  7997  8008       L1    11  0.74
      P1  H 10752 10765       L1     1  0.25

> <Gold.Chemscore.Hbond.Weighted>
-8.0743

> <Gold.Chemscore.Metal.Weighted>
-0.0000

> <Gold.Chemscore.Lipo.Weighted>
-7.5829

> <Gold.Chemscore.Internal_Hbond.Weighted>
0.0000

> <Gold.Chemscore.DEClash.Weighted>
0.0856

> <Gold.Chemscore.DEInternal.Weighted>
1.5644

> <Gold.Chemscore.Rot.Weighted>
4.8535

> <Gold.Chemscore.Internal.Correction.Weighted>
   9.000000E+99

> <Gold.Protein.RotatedTorsions>
[ 6907 6896 6895 6894 ] final  115.31 input  -60.11 | X-H torsion
[ 7974 7965 7964 7962 ] final -132.34 input  175.53 | X-H torsion
[ 8008 7997 7996 7995 ] final  -31.05 input   59.86 | X-H torsion
[ 10167 10162 10161 10158 ] final -162.31 input  -65.29 | X-H torsion
[ 10718 10713 10712 10709 ] final   -3.22 input   66.30 | X-H torsion
[ 10763 10752 10751 10750 ] final -149.81 input  -60.55 | X-H torsion
[ 11005 11000 10999 10996 ] final   38.72 input  -57.11 | X-H torsion

> <Gold.Protein.ActiveResidues>
 VAL166  LYS551  ARG553  GLY616  TRP617  ASP618  TYR619  PRO620  LYS621  CYS622 
 ASP623  PHE694  ASN695  SER759  ASP760  ASP761  ALA762  ILE779  LEU786  VAL792 
 PHE793  MET794  SER795  GLU796  ALA797  LYS798  CYS799  TRP800  GLU811  SER814 

> <Gold.Protein.RotatedAtoms>
  152.4749  133.8116  159.7006 H   0  0  0  0  0  0  0  0  0  0  0  0  # atno 6907 bound_to 6896
  150.8760  133.7428  159.2953 H   0  0  0  0  0  0  0  0  0  0  0  0  # atno 6908 bound_to 6896
  151.4947  135.1062  159.9865 H   0  0  0  0  0  0  0  0  0  0  0  0  # atno 6909 bound_to 6896
  144.9295  140.7111  143.4915 H   0  0  0  0  0  0  0  0  0  0  0  0  # atno 7974 bound_to 7965
  154.4228  140.1775  156.1504 H   0  0  0  0  0  0  0  0  0  0  0  0  # atno 8008 bound_to 7997
  155.9920  140.3368  155.6737 H   0  0  0  0  0  0  0  0  0  0  0  0  # atno 8009 bound_to 7997
  155.6360  140.0675  157.2624 H   0  0  0  0  0  0  0  0  0  0  0  0  # atno 8010 bound_to 7997
  139.6401  144.0275  152.2085 H   0  0  0  0  0  0  0  0  0  0  0  0  # atno 10167 bound_to 10162
  156.7793  130.5325  149.5753 H   0  0  0  0  0  0  0  0  0  0  0  0  # atno 10718 bound_to 10713
  154.8156  135.3300  154.7186 H   0  0  0  0  0  0  0  0  0  0  0  0  # atno 10763 bound_to 10752
  153.7827  135.6917  153.4890 H   0  0  0  0  0  0  0  0  0  0  0  0  # atno 10764 bound_to 10752
  153.1969  135.4530  155.0166 H   0  0  0  0  0  0  0  0  0  0  0  0  # atno 10765 bound_to 10752
  140.2099  134.3768  155.8054 H   0  0  0  0  0  0  0  0  0  0  0  0  # atno 11005 bound_to 11000
  145.3165  139.1802  143.4611 LP  0  0  0  0  0  0  0  0  0  0  0  0  # atno 17320 bound_to 7965
  146.3241  140.3177  142.8631 LP  0  0  0  0  0  0  0  0  0  0  0  0  # atno 17321 bound_to 7965
  139.9963  144.6326  150.7770 LP  0  0  0  0  0  0  0  0  0  0  0  0  # atno 17342 bound_to 10162
  140.7486  143.2925  151.3291 LP  0  0  0  0  0  0  0  0  0  0  0  0  # atno 17343 bound_to 10162
  156.1228  130.6122  151.0219 LP  0  0  0  0  0  0  0  0  0  0  0  0  # atno 17370 bound_to 10713
  157.6654  131.0873  150.7741 LP  0  0  0  0  0  0  0  0  0  0  0  0  # atno 17371 bound_to 10713
  141.2226  133.7137  156.8400 LP  0  0  0  0  0  0  0  0  0  0  0  0  # atno 17394 bound_to 11000
  140.1962  134.8930  157.3117 LP  0  0  0  0  0  0  0  0  0  0  0  0  # atno 17395 bound_to 11000

$$$$
