AV-unprocessed.smi:3273|AV-procd|sdf|12520|dock8
  -GOLD-   2272018433D 1   1.00000     0.00000
 Structure written by MMmdl.
 41 42  0  0  0  0  0  0  0  0  1 V2000
  146.9077  140.5984  152.9046 C   0  0  0  0  0  0  0  0  0  0  0  0
  148.1456  140.5177  153.8171 C   0  0  0  0  0  0  0  0  0  0  0  0
  148.1954  139.1262  154.4801 C   0  0  0  0  0  0  0  0  0  0  0  0
  148.2016  141.6733  154.8563 C   0  0  2  0  0  0  0  0  0  0  0  0
  149.2811  141.4459  155.9395 C   0  0  0  0  0  0  0  0  0  0  0  0
  149.9309  142.6953  156.3220 N   0  0  0  0  0  0  0  0  0  0  0  0
  150.9560  142.7935  157.1797 C   0  0  0  0  0  0  0  0  0  0  0  0
  151.4663  141.8199  157.7350 O   0  0  0  0  0  0  0  0  0  0  0  0
  151.4719  144.2096  157.4510 C   0  0  0  0  0  0  0  0  0  0  0  0
  152.1593  144.3500  158.7992 C   0  0  0  0  0  0  0  0  0  0  0  0
  151.4111  144.0823  160.0855 C   0  0  0  0  0  0  0  0  0  0  0  0
  151.8148  145.4916  159.7303 C   0  0  0  0  0  0  0  0  0  0  0  0
  146.8593  141.9556  155.4813 C   0  0  0  0  0  0  0  0  0  0  0  0
  146.3617  141.5689  156.6955 C   0  0  0  0  0  0  0  0  0  0  0  0
  145.0632  142.1453  156.7410 C   0  0  0  0  0  0  0  0  0  0  0  0
  144.7779  142.8363  155.6517 N   0  0  0  0  0  0  0  0  0  0  0  0
  145.8781  142.7246  154.8773 N   0  0  0  0  0  0  0  0  0  0  0  0
  145.8989  143.3854  153.5862 C   0  0  0  0  0  0  0  0  0  0  0  0
  145.9852  140.5981  153.4859 H   0  0  0  0  0  0  0  0  0  0  0  0
  146.8680  139.7481  152.2232 H   0  0  0  0  0  0  0  0  0  0  0  0
  146.9149  141.4938  152.2842 H   0  0  0  0  0  0  0  0  0  0  0  0
  149.0285  140.5947  153.1810 H   0  0  0  0  0  0  0  0  0  0  0  0
  147.3739  138.9963  155.1853 H   0  0  0  0  0  0  0  0  0  0  0  0
  149.1275  138.9600  155.0199 H   0  0  0  0  0  0  0  0  0  0  0  0
  148.1196  138.3332  153.7356 H   0  0  0  0  0  0  0  0  0  0  0  0
  148.5098  142.5602  154.3024 H   0  0  0  0  0  0  0  0  0  0  0  0
  148.8220  140.9937  156.8206 H   0  0  0  0  0  0  0  0  0  0  0  0
  150.0522  140.7592  155.5914 H   0  0  0  0  0  0  0  0  0  0  0  0
  149.5685  143.5446  155.9134 H   0  0  0  0  0  0  0  0  0  0  0  0
  152.1711  144.4929  156.6627 H   0  0  0  0  0  0  0  0  0  0  0  0
  150.6378  144.9101  157.4029 H   0  0  0  0  0  0  0  0  0  0  0  0
  153.2062  144.0515  158.7882 H   0  0  0  0  0  0  0  0  0  0  0  0
  150.3540  143.8324  160.0185 H   0  0  0  0  0  0  0  0  0  0  0  0
  151.9552  143.5910  160.8896 H   0  0  0  0  0  0  0  0  0  0  0  0
  152.6300  145.9407  160.2939 H   0  0  0  0  0  0  0  0  0  0  0  0
  151.0267  146.1768  159.4239 H   0  0  0  0  0  0  0  0  0  0  0  0
  146.8556  140.9637  157.4412 H   0  0  0  0  0  0  0  0  0  0  0  0
  144.3268  142.0849  157.5286 H   0  0  0  0  0  0  0  0  0  0  0  0
  146.7259  144.0949  153.5508 H   0  0  0  0  0  0  0  0  0  0  0  0
  144.9662  143.9238  153.4127 H   0  0  0  0  0  0  0  0  0  0  0  0
  146.0281  142.6438  152.7976 H   0  0  0  0  0  0  0  0  0  0  0  0
  1  2  1  0  0  0  0
  1 19  1  0  0  0  0
  1 20  1  0  0  0  0
  1 21  1  0  0  0  0
  2  3  1  0  0  0  0
  2  4  1  0  0  0  0
  2 22  1  0  0  0  0
  3 23  1  0  0  0  0
  3 24  1  0  0  0  0
  3 25  1  0  0  0  0
  4  5  1  0  0  0  0
  4 13  1  0  0  0  0
  4 26  1  0  0  0  0
  5  6  1  0  0  0  0
  5 27  1  0  0  0  0
  5 28  1  0  0  0  0
  6  7  1  0  0  0  0
  6 29  1  0  0  0  0
  7  8  2  0  0  0  0
  7  9  1  0  0  0  0
  9 10  1  0  0  0  0
  9 30  1  0  0  0  0
  9 31  1  0  0  0  0
 10 12  1  0  0  0  0
 10 11  1  0  0  0  0
 10 32  1  0  0  0  0
 11 12  1  0  0  0  0
 11 33  1  0  0  0  0
 11 34  1  0  0  0  0
 12 35  1  0  0  0  0
 12 36  1  0  0  0  0
 13 17  1  0  0  0  0
 13 14  2  0  0  0  0
 14 15  1  0  0  0  0
 14 37  1  0  0  0  0
 15 16  2  0  0  0  0
 15 38  1  0  0  0  0
 16 17  1  0  0  0  0
 17 18  1  0  0  0  0
 18 39  1  0  0  0  0
 18 40  1  0  0  0  0
 18 41  1  0  0  0  0
M  END
> <s_m_source_file>
AV-unprocessed.smi

> <i_m_source_file_index>
3273

> <i_lp_mmshare_version>
43012

> <i_f3d_flags>
0

> <s_epik_input>
W0NIM11uMW5bY0hdW2NIXWMxW0NASF0oW0NIXShbQ0gzXSlbQ0gzXSlbQ0gyXVtOSF1DKD1PKVtDSDJdW0NIXTJbQ0gyXVtDSDJdMg==

> <s_epik_cmdline>
J2VwaWtfcHl0aG9uJywgJy1waCcsICc3LjAnLCAnLXRuJywgJzgnLCAnLW1hJywgJzIwMCcsICctbWV0YWxfYmluZGluZycsICctaW1hZScsICc8aW5maWxlLm1hZT4nLCAnLW9tYWUnLCAnPG91dGZpbGUubWFlPic=

> <r_lp_tautomer_probability>
1

> <r_epik_Ionization_Penalty>
0.00116261

> <r_epik_Ionization_Penalty_Charging>
0

> <r_epik_Ionization_Penalty_Neutral>
0.00116261

> <r_epik_State_Penalty>
-0

> <r_epik_Charging_Adjusted_Penalty>
0

> <i_epik_Tot_Q>
0

> <i_epik_Tot_abs_Q>
0

> <r_epik_Metal_State_Penalty>
-0

> <b_epik_Metal_Only>
0

> <s_lp_Force_Field>
OPLS_2005

> <r_lp_Energy>
13.9008

> <b_lp_Chiralities_Consistent>
1

> <s_lp_Variant>
AV-unprocessed.smi:3273-1

> <Gold.Version>
5.8.1

> <Gold.Id.Protein>
6NUR|6NUR_protein|mol2

> <Gold.PLP.Fitness>
38.9066

> <Gold.PLP.PLP>
-39.3052

> <Gold.PLP.part.hbond>
-1.0000

> <Gold.PLP.part.metal>
0.0000

> <Gold.PLP.part.buried>
-4.3337

> <Gold.PLP.part.nonpolar>
-34.9266

> <Gold.PLP.part.repulsive>
0.2060

> <Gold.PLP.ligand.clash>
0.0000

> <Gold.PLP.ligand.torsion>
2.0603

> <Gold.PLP.Chemscore.Hbond>
1.0000

> <Gold.PLP.Chemscore.CHOScore>
0.0000

> <Gold.PLP.Chemscore.Metal>
0.0000

> <Gold.Chemscore.Hbonds>
donor molecule, donor type, donor heavy atom, donor atom, acceptor molecule, acceptor atom, score
      L1  H     6    29       P1  8028  0.63

> <Gold.PLP.Chemscore.Internal.Correction>
0.7220

> <Gold.Rescore>
     Score         DG    S(hbond)    S(metal)    S(lipo)     H(rot)  DE(clash)    DE(int)     intcor
     13.41     -15.46       1.00        0.00      92.77       1.64       0.05       1.99       ----

> <Gold.Chemscore.Fitness>
13.4149

> <Gold.Chemscore.DG>
-15.4617

> <Gold.Chemscore.ZeroCoef>
-5.4800

> <Gold.Chemscore.Hbond>
0.9983

> <Gold.Chemscore.Metal>
0.0000

> <Gold.Chemscore.Lipo>
92.7664

> <Gold.Chemscore.Internal_Hbond>
0.0000

> <Gold.Chemscore.DEClash>
0.0547

> <Gold.Chemscore.DEInternal>
1.9921

> <Gold.Chemscore.Rot>
1.6430

> <Gold.Chemscore.Internal.Correction>
   9.000000E+99

> <Gold.Chemscore.Hbonds>
donor molecule, donor type, donor heavy atom, donor atom, acceptor molecule, acceptor atom, score
      L1  H     6    29       P1  8028  0.63

> <Gold.Chemscore.Hbond.Weighted>
-3.3342

> <Gold.Chemscore.Metal.Weighted>
-0.0000

> <Gold.Chemscore.Lipo.Weighted>
-10.8537

> <Gold.Chemscore.Internal_Hbond.Weighted>
0.0000

> <Gold.Chemscore.DEClash.Weighted>
0.0547

> <Gold.Chemscore.DEInternal.Weighted>
1.9921

> <Gold.Chemscore.Rot.Weighted>
4.2062

> <Gold.Chemscore.Internal.Correction.Weighted>
   9.000000E+99

> <Gold.Protein.RotatedTorsions>
[ 6907 6896 6895 6894 ] final  -23.76 input  -60.11 | X-H torsion
[ 7974 7965 7964 7962 ] final -162.64 input  175.53 | X-H torsion
[ 8008 7997 7996 7995 ] final -170.63 input   59.86 | X-H torsion
[ 10167 10162 10161 10158 ] final  -19.79 input  -65.29 | X-H torsion
[ 10718 10713 10712 10709 ] final  102.85 input   66.30 | X-H torsion
[ 10763 10752 10751 10750 ] final  -99.34 input  -60.55 | X-H torsion
[ 11005 11000 10999 10996 ] final   28.26 input  -57.11 | X-H torsion

> <Gold.Protein.ActiveResidues>
 VAL166  LYS551  ARG553  GLY616  TRP617  ASP618  TYR619  PRO620  LYS621  CYS622 
 ASP623  PHE694  ASN695  SER759  ASP760  ASP761  ALA762  ILE779  LEU786  VAL792 
 PHE793  MET794  SER795  GLU796  ALA797  LYS798  CYS799  TRP800  GLU811  SER814 

> <Gold.Protein.RotatedAtoms>
  151.1993  135.0436  159.8865 H   0  0  0  0  0  0  0  0  0  0  0  0  # atno 6907 bound_to 6896
  152.5434  134.0868  159.8269 H   0  0  0  0  0  0  0  0  0  0  0  0  # atno 6908 bound_to 6896
  151.1006  133.5199  159.2642 H   0  0  0  0  0  0  0  0  0  0  0  0  # atno 6909 bound_to 6896
  144.7351  140.3223  143.6168 H   0  0  0  0  0  0  0  0  0  0  0  0  # atno 7974 bound_to 7965
  155.9209  140.1074  157.1208 H   0  0  0  0  0  0  0  0  0  0  0  0  # atno 8008 bound_to 7997
  154.4054  140.1256  156.4743 H   0  0  0  0  0  0  0  0  0  0  0  0  # atno 8009 bound_to 7997
  155.7197  140.3470  155.5013 H   0  0  0  0  0  0  0  0  0  0  0  0  # atno 8010 bound_to 7997
  140.7271  143.4785  151.0150 H   0  0  0  0  0  0  0  0  0  0  0  0  # atno 10167 bound_to 10162
  157.6790  131.0763  150.5466 H   0  0  0  0  0  0  0  0  0  0  0  0  # atno 10718 bound_to 10713
  154.7489  135.4976  153.9254 H   0  0  0  0  0  0  0  0  0  0  0  0  # atno 10763 bound_to 10752
  153.1122  135.6712  153.9488 H   0  0  0  0  0  0  0  0  0  0  0  0  # atno 10764 bound_to 10752
  153.9244  135.3085  155.3426 H   0  0  0  0  0  0  0  0  0  0  0  0  # atno 10765 bound_to 10752
  140.3175  134.2580  155.7723 H   0  0  0  0  0  0  0  0  0  0  0  0  # atno 11005 bound_to 11000
  145.7556  139.1808  143.2296 LP  0  0  0  0  0  0  0  0  0  0  0  0  # atno 17320 bound_to 7965
  146.1027  140.7525  142.9541 LP  0  0  0  0  0  0  0  0  0  0  0  0  # atno 17321 bound_to 7965
  139.8482  143.7473  152.3179 LP  0  0  0  0  0  0  0  0  0  0  0  0  # atno 17342 bound_to 10162
  139.7646  144.7496  151.0313 LP  0  0  0  0  0  0  0  0  0  0  0  0  # atno 17343 bound_to 10162
  156.5771  130.4295  149.5993 LP  0  0  0  0  0  0  0  0  0  0  0  0  # atno 17370 bound_to 10713
  156.2692  130.7007  151.1799 LP  0  0  0  0  0  0  0  0  0  0  0  0  # atno 17371 bound_to 10713
  141.2094  133.7749  156.9998 LP  0  0  0  0  0  0  0  0  0  0  0  0  # atno 17394 bound_to 11000
  140.0970  134.9558  157.1865 LP  0  0  0  0  0  0  0  0  0  0  0  0  # atno 17395 bound_to 11000

$$$$
