AV-unprocessed.smi:2148|AV-procd|sdf|8750|dock9
  -GOLD-   2272011523D 1   1.00000     0.00000
 Structure written by MMmdl.
 44 45  0  0  0  0  0  0  0  0  1 V2000
  145.6547  136.1788  151.9110 C   0  0  0  0  0  0  0  0  0  0  0  0
  146.2670  136.9316  153.4434 S   0  0  0  0  0  0  0  0  0  0  0  0
  146.0959  138.6995  153.0535 C   0  0  2  0  0  0  0  0  0  0  0  0
  146.8097  139.0224  151.7314 C   0  0  0  0  0  0  0  0  0  0  0  0
  146.6132  139.5889  154.1916 C   0  0  0  0  0  0  0  0  0  0  0  0
  145.8116  140.1936  154.9030 O   0  0  0  0  0  0  0  0  0  0  0  0
  147.9523  139.6645  154.3104 N   0  0  0  0  0  0  0  0  0  0  0  0
  148.7299  140.4044  155.2427 C   0  0  0  0  0  0  0  0  0  0  0  0
  150.1037  140.5601  154.9745 C   0  0  0  0  0  0  0  0  0  0  0  0
  150.9082  141.2748  155.8817 C   0  0  0  0  0  0  0  0  0  0  0  0
  150.3182  141.8196  157.0466 C   0  0  0  0  0  0  0  0  0  0  0  0
  151.1019  142.5449  157.9709 N   0  0  0  0  0  0  0  0  0  0  0  0
  152.0566  141.7637  158.7512 C   0  0  0  0  0  0  0  0  0  0  0  0
  152.5565  142.5790  159.9571 C   0  0  1  0  0  0  0  0  0  0  0  0
  153.6543  141.8411  160.7305 C   0  0  0  0  0  0  0  0  0  0  0  0
  153.0932  143.8214  159.5050 O   0  0  0  0  0  0  0  0  0  0  0  0
  152.1803  144.6316  158.7615 C   0  0  2  0  0  0  0  0  0  0  0  0
  151.0825  145.2383  159.6532 C   0  0  0  0  0  0  0  0  0  0  0  0
  151.6274  143.8448  157.5568 C   0  0  0  0  0  0  0  0  0  0  0  0
  148.9997  141.6526  157.3139 N   0  0  0  0  0  0  0  0  0  0  0  0
  148.2312  140.9668  156.4418 C   0  0  0  0  0  0  0  0  0  0  0  0
  145.7311  135.0932  151.9719 H   0  0  0  0  0  0  0  0  0  0  0  0
  146.2410  136.5189  151.0576 H   0  0  0  0  0  0  0  0  0  0  0  0
  144.6094  136.4382  151.7431 H   0  0  0  0  0  0  0  0  0  0  0  0
  145.0322  138.8950  152.9084 H   0  0  0  0  0  0  0  0  0  0  0  0
  146.7186  140.0795  151.4785 H   0  0  0  0  0  0  0  0  0  0  0  0
  146.3789  138.4517  150.9082 H   0  0  0  0  0  0  0  0  0  0  0  0
  147.8724  138.7801  151.7784 H   0  0  0  0  0  0  0  0  0  0  0  0
  148.4816  139.1644  153.6109 H   0  0  0  0  0  0  0  0  0  0  0  0
  150.5418  140.1372  154.0820 H   0  0  0  0  0  0  0  0  0  0  0  0
  151.9634  141.3830  155.6802 H   0  0  0  0  0  0  0  0  0  0  0  0
  151.6222  140.8313  159.1088 H   0  0  0  0  0  0  0  0  0  0  0  0
  152.8944  141.4943  158.1068 H   0  0  0  0  0  0  0  0  0  0  0  0
  151.7286  142.7628  160.6422 H   0  0  0  0  0  0  0  0  0  0  0  0
  153.2931  140.8837  161.1071 H   0  0  0  0  0  0  0  0  0  0  0  0
  153.9904  142.4289  161.5852 H   0  0  0  0  0  0  0  0  0  0  0  0
  154.5208  141.6471  160.0976 H   0  0  0  0  0  0  0  0  0  0  0  0
  152.7637  145.4659  158.3713 H   0  0  0  0  0  0  0  0  0  0  0  0
  150.4876  145.9606  159.0938 H   0  0  0  0  0  0  0  0  0  0  0  0
  151.5186  145.7601  160.5052 H   0  0  0  0  0  0  0  0  0  0  0  0
  150.3962  144.4840  160.0372 H   0  0  0  0  0  0  0  0  0  0  0  0
  152.4241  143.6823  156.8293 H   0  0  0  0  0  0  0  0  0  0  0  0
  150.8545  144.4334  157.0611 H   0  0  0  0  0  0  0  0  0  0  0  0
  147.2012  140.8630  156.7428 H   0  0  0  0  0  0  0  0  0  0  0  0
  1  2  1  0  0  0  0
  1 22  1  0  0  0  0
  1 23  1  0  0  0  0
  1 24  1  0  0  0  0
  2  3  1  0  0  0  0
  3  4  1  0  0  0  0
  3  5  1  0  0  0  0
  3 25  1  0  0  0  0
  4 26  1  0  0  0  0
  4 27  1  0  0  0  0
  4 28  1  0  0  0  0
  5  6  2  0  0  0  0
  5  7  1  0  0  0  0
  7  8  1  0  0  0  0
  7 29  1  0  0  0  0
  8 21  1  0  0  0  0
  8  9  2  0  0  0  0
  9 10  1  0  0  0  0
  9 30  1  0  0  0  0
 10 11  2  0  0  0  0
 10 31  1  0  0  0  0
 11 12  1  0  0  0  0
 11 20  1  0  0  0  0
 12 19  1  0  0  0  0
 12 13  1  0  0  0  0
 13 14  1  0  0  0  0
 13 32  1  0  0  0  0
 13 33  1  0  0  0  0
 14 15  1  0  0  0  0
 14 16  1  0  0  0  0
 14 34  1  0  0  0  0
 15 35  1  0  0  0  0
 15 36  1  0  0  0  0
 15 37  1  0  0  0  0
 16 17  1  0  0  0  0
 17 18  1  0  0  0  0
 17 19  1  0  0  0  0
 17 38  1  0  0  0  0
 18 39  1  0  0  0  0
 18 40  1  0  0  0  0
 18 41  1  0  0  0  0
 19 42  1  0  0  0  0
 19 43  1  0  0  0  0
 20 21  2  0  0  0  0
 21 44  1  0  0  0  0
M  END
> <s_m_source_file>
AV-unprocessed.smi

> <i_m_source_file_index>
2148

> <i_lp_mmshare_version>
43012

> <i_f3d_flags>
0

> <s_epik_input>
W0NIM11TW0NASF0oW0NIM10pQyg9TylbTkhdYzFbY0hdW2NIXWMobltjSF0xKU4yW0NIMl1bQ0BASF0oW0NIM10pT1tDQEBIXShbQ0gzXSlbQ0gyXTI=

> <s_epik_cmdline>
J2VwaWtfcHl0aG9uJywgJy1waCcsICc3LjAnLCAnLXRuJywgJzgnLCAnLW1hJywgJzIwMCcsICctbWV0YWxfYmluZGluZycsICctaW1hZScsICc8aW5maWxlLm1hZT4nLCAnLW9tYWUnLCAnPG91dGZpbGUubWFlPic=

> <r_lp_tautomer_probability>
1

> <r_epik_Ionization_Penalty>
0.000646494

> <r_epik_Ionization_Penalty_Charging>
0

> <r_epik_Ionization_Penalty_Neutral>
0.000646494

> <r_epik_State_Penalty>
0.000408447

> <r_epik_Charging_Adjusted_Penalty>
0.000408447

> <i_epik_Tot_Q>
0

> <i_epik_Tot_abs_Q>
0

> <r_epik_Metal_State_Penalty>
-0

> <b_epik_Metal_Only>
0

> <s_lp_Force_Field>
OPLS_2005

> <r_lp_Energy>
25.6467

> <b_lp_Chiralities_Consistent>
1

> <s_lp_Variant>
AV-unprocessed.smi:2148-5

> <Gold.Version>
5.8.1

> <Gold.Id.Protein>
6NUR|6NUR_protein|mol2

> <Gold.PLP.Fitness>
39.3633

> <Gold.PLP.PLP>
-40.0161

> <Gold.PLP.part.hbond>
0.0000

> <Gold.PLP.part.metal>
0.0000

> <Gold.PLP.part.buried>
-0.7315

> <Gold.PLP.part.nonpolar>
-38.8927

> <Gold.PLP.part.repulsive>
0.3076

> <Gold.PLP.ligand.clash>
0.0000

> <Gold.PLP.ligand.torsion>
0.5095

> <Gold.PLP.Chemscore.Hbond>
0.0000

> <Gold.PLP.Chemscore.CHOScore>
0.0000

> <Gold.PLP.Chemscore.Metal>
0.0000

> <Gold.PLP.Chemscore.Internal.Correction>
0.3663

> <Gold.Rescore>
     Score         DG    S(hbond)    S(metal)    S(lipo)     H(rot)  DE(clash)    DE(int)     intcor
     13.97     -15.70       0.00        0.00     115.04       1.27       0.26       1.47       ----

> <Gold.Chemscore.Fitness>
13.9670

> <Gold.Chemscore.DG>
-15.6989

> <Gold.Chemscore.ZeroCoef>
-5.4800

> <Gold.Chemscore.Hbond>
0.0000

> <Gold.Chemscore.Metal>
0.0000

> <Gold.Chemscore.Lipo>
115.0387

> <Gold.Chemscore.Internal_Hbond>
0.0000

> <Gold.Chemscore.DEClash>
0.2631

> <Gold.Chemscore.DEInternal>
1.4688

> <Gold.Chemscore.Rot>
1.2659

> <Gold.Chemscore.Internal.Correction>
   9.000000E+99

> <Gold.Chemscore.Hbond.Weighted>
-0.0000

> <Gold.Chemscore.Metal.Weighted>
-0.0000

> <Gold.Chemscore.Lipo.Weighted>
-13.4595

> <Gold.Chemscore.Internal_Hbond.Weighted>
0.0000

> <Gold.Chemscore.DEClash.Weighted>
0.2631

> <Gold.Chemscore.DEInternal.Weighted>
1.4688

> <Gold.Chemscore.Rot.Weighted>
3.2406

> <Gold.Chemscore.Internal.Correction.Weighted>
   9.000000E+99

> <Gold.Protein.RotatedTorsions>
[ 6907 6896 6895 6894 ] final  -22.02 input  -60.11 | X-H torsion
[ 7974 7965 7964 7962 ] final -178.26 input  175.53 | X-H torsion
[ 8008 7997 7996 7995 ] final   94.41 input   59.86 | X-H torsion
[ 10167 10162 10161 10158 ] final -103.62 input  -65.29 | X-H torsion
[ 10718 10713 10712 10709 ] final  126.35 input   66.30 | X-H torsion
[ 10763 10752 10751 10750 ] final -112.32 input  -60.55 | X-H torsion
[ 11005 11000 10999 10996 ] final  -74.23 input  -57.11 | X-H torsion

> <Gold.Protein.ActiveResidues>
 VAL166  LYS551  ARG553  GLY616  TRP617  ASP618  TYR619  PRO620  LYS621  CYS622 
 ASP623  PHE694  ASN695  SER759  ASP760  ASP761  ALA762  ILE779  LEU786  VAL792 
 PHE793  MET794  SER795  GLU796  ALA797  LYS798  CYS799  TRP800  GLU811  SER814 

> <Gold.Protein.RotatedAtoms>
  151.2248  135.0532  159.8963 H   0  0  0  0  0  0  0  0  0  0  0  0  # atno 6907 bound_to 6896
  152.5411  134.0601  159.8158 H   0  0  0  0  0  0  0  0  0  0  0  0  # atno 6908 bound_to 6896
  151.0772  133.5370  159.2654 H   0  0  0  0  0  0  0  0  0  0  0  0  # atno 6909 bound_to 6896
  144.7130  140.0896  143.6422 H   0  0  0  0  0  0  0  0  0  0  0  0  # atno 7974 bound_to 7965
  156.0576  140.3300  155.7423 H   0  0  0  0  0  0  0  0  0  0  0  0  # atno 8008 bound_to 7997
  155.5505  140.0610  157.2868 H   0  0  0  0  0  0  0  0  0  0  0  0  # atno 8009 bound_to 7997
  154.4465  140.1895  156.0670 H   0  0  0  0  0  0  0  0  0  0  0  0  # atno 8010 bound_to 7997
  140.2181  143.3696  152.0993 H   0  0  0  0  0  0  0  0  0  0  0  0  # atno 10167 bound_to 10162
  157.5427  131.1096  150.8833 H   0  0  0  0  0  0  0  0  0  0  0  0  # atno 10718 bound_to 10713
  154.8344  135.4495  154.1176 H   0  0  0  0  0  0  0  0  0  0  0  0  # atno 10763 bound_to 10752
  153.2421  135.6917  153.7778 H   0  0  0  0  0  0  0  0  0  0  0  0  # atno 10764 bound_to 10752
  153.7121  135.3355  155.3224 H   0  0  0  0  0  0  0  0  0  0  0  0  # atno 10765 bound_to 10752
  141.1632  133.6904  156.7333 H   0  0  0  0  0  0  0  0  0  0  0  0  # atno 11005 bound_to 11000
  145.9632  139.2815  143.1143 LP  0  0  0  0  0  0  0  0  0  0  0  0  # atno 17320 bound_to 7965
  145.9198  140.9123  143.0411 LP  0  0  0  0  0  0  0  0  0  0  0  0  # atno 17321 bound_to 7965
  139.5154  144.6963  151.5621 LP  0  0  0  0  0  0  0  0  0  0  0  0  # atno 17342 bound_to 10162
  140.6275  143.9140  150.6577 LP  0  0  0  0  0  0  0  0  0  0  0  0  # atno 17343 bound_to 10162
  156.9381  130.5374  149.5280 LP  0  0  0  0  0  0  0  0  0  0  0  0  # atno 17370 bound_to 10713
  156.0510  130.5579  150.8988 LP  0  0  0  0  0  0  0  0  0  0  0  0  # atno 17371 bound_to 10713
  140.2729  134.8378  157.3863 LP  0  0  0  0  0  0  0  0  0  0  0  0  # atno 17394 bound_to 11000
  140.1505  134.4856  155.7965 LP  0  0  0  0  0  0  0  0  0  0  0  0  # atno 17395 bound_to 11000

$$$$
