AV-unprocessed.smi:1450|AV-procd|sdf|5898|dock8
  -GOLD-   22720 5583D 1   1.00000     0.00000
 Structure written by MMmdl.
 31 32  0  0  0  0  0  0  0  0  1 V2000
  144.7388  136.6454  152.5028 O   0  0  0  0  0  0  0  0  0  0  0  0
  145.9355  136.4657  152.2796 C   0  0  0  0  0  0  0  0  0  0  0  0
  146.8819  137.3750  152.5526 N   0  0  0  0  0  0  0  0  0  0  0  0
  146.6364  138.6968  153.1198 C   0  0  0  0  0  0  0  0  0  0  0  0
  147.9157  139.5550  153.1633 C   0  0  1  0  0  0  0  0  0  0  0  0
  147.6954  140.9695  153.6834 C   0  0  0  0  0  0  0  0  0  0  0  0
  148.9773  141.2919  154.4603 C   0  0  0  0  0  0  0  0  0  0  0  0
  149.8289  140.1670  154.2856 O   0  0  0  0  0  0  0  0  0  0  0  0
  149.0065  139.0294  154.0937 C   0  0  0  0  0  0  0  0  0  0  0  0
  146.4725  135.3511  151.7542 N   0  0  0  0  0  0  0  0  0  0  0  0
  145.8145  134.1753  151.3008 C   0  0  0  0  0  0  0  0  0  0  0  0
  144.4055  134.1497  151.3485 C   0  0  0  0  0  0  0  0  0  0  0  0
  143.7242  132.9932  150.9243 C   0  0  0  0  0  0  0  0  0  0  0  0
  144.4839  131.8967  150.4734 C   0  0  0  0  0  0  0  0  0  0  0  0
  145.8327  131.8979  150.4338 N   0  0  0  0  0  0  0  0  0  0  0  0
  146.4800  133.0113  150.8409 C   0  0  0  0  0  0  0  0  0  0  0  0
  147.8416  137.1406  152.3450 H   0  0  0  0  0  0  0  0  0  0  0  0
  145.8574  139.2070  152.5510 H   0  0  0  0  0  0  0  0  0  0  0  0
  146.2419  138.5611  154.1274 H   0  0  0  0  0  0  0  0  0  0  0  0
  148.3371  139.6300  152.1595 H   0  0  0  0  0  0  0  0  0  0  0  0
  147.5247  141.6700  152.8651 H   0  0  0  0  0  0  0  0  0  0  0  0
  146.8342  141.0225  154.3510 H   0  0  0  0  0  0  0  0  0  0  0  0
  149.4631  142.2001  154.1028 H   0  0  0  0  0  0  0  0  0  0  0  0
  148.7596  141.4187  155.5216 H   0  0  0  0  0  0  0  0  0  0  0  0
  148.5933  138.7088  155.0516 H   0  0  0  0  0  0  0  0  0  0  0  0
  149.5667  138.1994  153.6622 H   0  0  0  0  0  0  0  0  0  0  0  0
  147.4805  135.3260  151.7071 H   0  0  0  0  0  0  0  0  0  0  0  0
  143.8502  135.0060  151.7027 H   0  0  0  0  0  0  0  0  0  0  0  0
  142.6454  132.9470  150.9450 H   0  0  0  0  0  0  0  0  0  0  0  0
  143.9952  130.9928  150.1411 H   0  0  0  0  0  0  0  0  0  0  0  0
  147.5557  132.9399  150.8090 H   0  0  0  0  0  0  0  0  0  0  0  0
  1  2  2  0  0  0  0
  2  3  1  0  0  0  0
  2 10  1  0  0  0  0
  3  4  1  0  0  0  0
  3 17  1  0  0  0  0
  4  5  1  0  0  0  0
  4 18  1  0  0  0  0
  4 19  1  0  0  0  0
  5  9  1  0  0  0  0
  5  6  1  0  0  0  0
  5 20  1  0  0  0  0
  6  7  1  0  0  0  0
  6 21  1  0  0  0  0
  6 22  1  0  0  0  0
  7  8  1  0  0  0  0
  7 23  1  0  0  0  0
  7 24  1  0  0  0  0
  8  9  1  0  0  0  0
  9 25  1  0  0  0  0
  9 26  1  0  0  0  0
 10 11  1  0  0  0  0
 10 27  1  0  0  0  0
 11 16  1  0  0  0  0
 11 12  2  0  0  0  0
 12 13  1  0  0  0  0
 12 28  1  0  0  0  0
 13 14  2  0  0  0  0
 13 29  1  0  0  0  0
 14 15  1  0  0  0  0
 14 30  1  0  0  0  0
 15 16  2  0  0  0  0
 16 31  1  0  0  0  0
M  END
> <s_m_source_file>
AV-unprocessed.smi

> <i_m_source_file_index>
1450

> <i_lp_mmshare_version>
43012

> <i_f3d_flags>
0

> <s_epik_input>
W2NIXTFuW2NIXVtjSF1bY0hdYzFbTkhdQyg9TylbTkhdW0NIMl1bQ0BASF0yW0NIMl1bQ0gyXU9bQ0gyXTI=

> <s_epik_cmdline>
J2VwaWtfcHl0aG9uJywgJy1waCcsICc3LjAnLCAnLXRuJywgJzgnLCAnLW1hJywgJzIwMCcsICctbWV0YWxfYmluZGluZycsICctaW1hZScsICc8aW5maWxlLm1hZT4nLCAnLW9tYWUnLCAnPG91dGZpbGUubWFlPic=

> <r_epik_Ionization_Penalty>
0.00478342

> <r_epik_Ionization_Penalty_Charging>
0

> <r_epik_Ionization_Penalty_Neutral>
0.00478342

> <r_epik_State_Penalty>
0.0034384

> <r_epik_Charging_Adjusted_Penalty>
0.0034384

> <i_epik_Tot_Q>
0

> <i_epik_Tot_abs_Q>
0

> <r_epik_Metal_State_Penalty>
-0

> <b_epik_Metal_Only>
0

> <s_lp_Force_Field>
OPLS_2005

> <r_lp_Energy>
21.9504

> <b_lp_Chiralities_Consistent>
1

> <s_lp_Variant>
AV-unprocessed.smi:1450-2

> <Gold.Version>
5.8.1

> <Gold.Id.Protein>
6NUR|6NUR_protein|mol2

> <Gold.PLP.Fitness>
39.0104

> <Gold.PLP.PLP>
-28.2657

> <Gold.PLP.part.hbond>
-2.8026

> <Gold.PLP.part.metal>
0.0000

> <Gold.PLP.part.buried>
-0.0254

> <Gold.PLP.part.nonpolar>
-25.9220

> <Gold.PLP.part.repulsive>
0.8709

> <Gold.PLP.ligand.clash>
0.0000

> <Gold.PLP.ligand.torsion>
0.0321

> <Gold.PLP.Chemscore.Hbond>
2.7675

> <Gold.PLP.Chemscore.CHOScore>
0.8347

> <Gold.PLP.Chemscore.Metal>
0.0000

> <Gold.Chemscore.Hbonds>
donor molecule, donor type, donor heavy atom, donor atom, acceptor molecule, acceptor atom, score
      L1  H     3    17       P1  7948  0.93
      L1  H    10    27       P1  7948  0.96
      P1  H  7989  7998       L1     8  0.80
      L1  C    16    31       P1 10747  0.88

> <Gold.PLP.Chemscore.Internal.Correction>
0.0023

> <Gold.Rescore>
     Score         DG    S(hbond)    S(metal)    S(lipo)     H(rot)  DE(clash)    DE(int)     intcor
     16.12     -18.75       2.57        0.00      67.22       1.24       1.18       1.45       ----

> <Gold.Chemscore.Fitness>
16.1175

> <Gold.Chemscore.DG>
-18.7536

> <Gold.Chemscore.ZeroCoef>
-5.4800

> <Gold.Chemscore.Hbond>
2.5691

> <Gold.Chemscore.Metal>
0.0000

> <Gold.Chemscore.Lipo>
67.2201

> <Gold.Chemscore.Internal_Hbond>
0.0000

> <Gold.Chemscore.DEClash>
1.1826

> <Gold.Chemscore.DEInternal>
1.4535

> <Gold.Chemscore.Rot>
1.2390

> <Gold.Chemscore.Internal.Correction>
   9.000000E+99

> <Gold.Chemscore.Hbonds>
donor molecule, donor type, donor heavy atom, donor atom, acceptor molecule, acceptor atom, score
      L1  H     3    17       P1  7948  0.87
      L1  H    10    27       P1  7948  0.87
      P1  H  7989  7998       L1     8  0.45

> <Gold.Chemscore.Hbond.Weighted>
-8.5806

> <Gold.Chemscore.Metal.Weighted>
-0.0000

> <Gold.Chemscore.Lipo.Weighted>
-7.8648

> <Gold.Chemscore.Internal_Hbond.Weighted>
0.0000

> <Gold.Chemscore.DEClash.Weighted>
1.1826

> <Gold.Chemscore.DEInternal.Weighted>
1.4535

> <Gold.Chemscore.Rot.Weighted>
3.1718

> <Gold.Chemscore.Internal.Correction.Weighted>
   9.000000E+99

> <Gold.Protein.RotatedTorsions>
[ 6907 6896 6895 6894 ] final   38.77 input  -60.11 | X-H torsion
[ 7974 7965 7964 7962 ] final -114.52 input  175.53 | X-H torsion
[ 8008 7997 7996 7995 ] final   75.69 input   59.86 | X-H torsion
[ 10167 10162 10161 10158 ] final  100.13 input  -65.29 | X-H torsion
[ 10718 10713 10712 10709 ] final  123.25 input   66.30 | X-H torsion
[ 10763 10752 10751 10750 ] final -123.86 input  -60.55 | X-H torsion
[ 11005 11000 10999 10996 ] final -125.55 input  -57.11 | X-H torsion

> <Gold.Protein.ActiveResidues>
 VAL166  LYS551  ARG553  GLY616  TRP617  ASP618  TYR619  PRO620  LYS621  CYS622 
 ASP623  PHE694  ASN695  SER759  ASP760  ASP761  ALA762  ILE779  LEU786  VAL792 
 PHE793  MET794  SER795  GLU796  ALA797  LYS798  CYS799  TRP800  GLU811  SER814 

> <Gold.Protein.RotatedAtoms>
  152.1608  134.8913  160.0541 H   0  0  0  0  0  0  0  0  0  0  0  0  # atno 6907 bound_to 6896
  151.9910  133.3786  159.4152 H   0  0  0  0  0  0  0  0  0  0  0  0  # atno 6908 bound_to 6896
  150.6887  134.3859  159.5099 H   0  0  0  0  0  0  0  0  0  0  0  0  # atno 6909 bound_to 6896
  145.1192  140.8658  143.3824 H   0  0  0  0  0  0  0  0  0  0  0  0  # atno 7974 bound_to 7965
  155.8166  140.3471  155.5489 H   0  0  0  0  0  0  0  0  0  0  0  0  # atno 8008 bound_to 7997
  155.8386  140.0938  157.1769 H   0  0  0  0  0  0  0  0  0  0  0  0  # atno 8009 bound_to 7997
  154.4005  140.1398  156.3688 H   0  0  0  0  0  0  0  0  0  0  0  0  # atno 8010 bound_to 7997
  139.7554  144.6971  151.0370 H   0  0  0  0  0  0  0  0  0  0  0  0  # atno 10167 bound_to 10162
  157.5679  131.1085  150.8420 H   0  0  0  0  0  0  0  0  0  0  0  0  # atno 10718 bound_to 10713
  154.8714  135.4083  154.3012 H   0  0  0  0  0  0  0  0  0  0  0  0  # atno 10763 bound_to 10752
  153.3871  135.7013  153.6528 H   0  0  0  0  0  0  0  0  0  0  0  0  # atno 10764 bound_to 10752
  153.5326  135.3664  155.2654 H   0  0  0  0  0  0  0  0  0  0  0  0  # atno 10765 bound_to 10752
  140.9752  134.0749  157.3825 H   0  0  0  0  0  0  0  0  0  0  0  0  # atno 11005 bound_to 11000
  145.0760  139.2995  143.5808 LP  0  0  0  0  0  0  0  0  0  0  0  0  # atno 17320 bound_to 7965
  146.3522  140.0250  142.8655 LP  0  0  0  0  0  0  0  0  0  0  0  0  # atno 17321 bound_to 7965
  140.7802  143.4759  151.0083 LP  0  0  0  0  0  0  0  0  0  0  0  0  # atno 17342 bound_to 10162
  139.8446  143.7519  152.3179 LP  0  0  0  0  0  0  0  0  0  0  0  0  # atno 17343 bound_to 10162
  156.8900  130.5209  149.5286 LP  0  0  0  0  0  0  0  0  0  0  0  0  # atno 17370 bound_to 10713
  156.0726  130.5756  150.9413 LP  0  0  0  0  0  0  0  0  0  0  0  0  # atno 17371 bound_to 10713
  139.8928  135.0127  156.6864 LP  0  0  0  0  0  0  0  0  0  0  0  0  # atno 17394 bound_to 11000
  140.7269  133.9093  155.8184 LP  0  0  0  0  0  0  0  0  0  0  0  0  # atno 17395 bound_to 11000

$$$$
