AV-unprocessed.smi:2953|AV-procd|sdf|11294|dock9
  -GOLD-   2272016183D 1   1.00000     0.00000
 Structure written by MMmdl.
 45 47  0  0  0  0  0  0  0  0  1 V2000
  155.6088  137.9806  163.5606 C   0  0  0  0  0  0  0  0  0  0  0  0
  155.5646  139.3343  164.2439 C   0  0  0  0  0  0  0  0  0  0  0  0
  155.8578  139.4079  165.6218 C   0  0  0  0  0  0  0  0  0  0  0  0
  155.8350  140.6449  166.2899 C   0  0  0  0  0  0  0  0  0  0  0  0
  155.5165  141.8151  165.5801 C   0  0  0  0  0  0  0  0  0  0  0  0
  155.2194  141.7481  164.2057 C   0  0  0  0  0  0  0  0  0  0  0  0
  155.2388  140.5065  163.5180 C   0  0  0  0  0  0  0  0  0  0  0  0
  154.9511  140.3810  162.1727 O   0  0  0  0  0  0  0  0  0  0  0  0
  154.0386  141.3086  161.5974 C   0  0  0  0  0  0  0  0  0  0  0  0
  154.1180  141.2635  160.0652 C   0  0  0  0  0  0  0  0  0  0  0  0
  152.8781  141.6843  159.4265 N   0  0  0  0  0  0  0  0  0  0  0  0
  152.0982  141.0205  158.5319 C   0  0  0  0  0  0  0  0  0  0  0  0
  152.4130  139.6333  158.0336 C   0  0  1  0  0  0  0  0  0  0  0  0
  152.4736  138.6075  159.1742 C   0  0  0  0  0  0  0  0  0  0  0  0
  151.3912  139.2523  157.0650 N   0  0  0  0  0  0  0  0  0  0  0  0
  151.5137  139.4020  155.7403 C   0  0  0  0  0  0  0  0  0  0  0  0
  152.5112  139.8816  155.2077 O   0  0  0  0  0  0  0  0  0  0  0  0
  151.0403  141.6990  158.0792 N   0  0  0  0  0  0  0  0  0  0  0  0
  151.1162  142.8897  158.7714 C   0  0  0  0  0  0  0  0  0  0  0  0
  150.2712  144.0222  158.7461 C   0  0  0  0  0  0  0  0  0  0  0  0
  150.5539  145.1419  159.5554 C   0  0  0  0  0  0  0  0  0  0  0  0
  151.6840  145.1454  160.3983 C   0  0  0  0  0  0  0  0  0  0  0  0
  152.5401  144.0279  160.4357 C   0  0  0  0  0  0  0  0  0  0  0  0
  152.2526  142.9119  159.6265 C   0  0  0  0  0  0  0  0  0  0  0  0
  156.3219  137.3211  164.0561 H   0  0  0  0  0  0  0  0  0  0  0  0
  155.9111  138.0664  162.5170 H   0  0  0  0  0  0  0  0  0  0  0  0
  154.6276  137.5091  163.6043 H   0  0  0  0  0  0  0  0  0  0  0  0
  156.1038  138.5118  166.1726 H   0  0  0  0  0  0  0  0  0  0  0  0
  156.0613  140.6953  167.3449 H   0  0  0  0  0  0  0  0  0  0  0  0
  155.4974  142.7667  166.0905 H   0  0  0  0  0  0  0  0  0  0  0  0
  154.9735  142.6703  163.7020 H   0  0  0  0  0  0  0  0  0  0  0  0
  153.0187  141.0883  161.9162 H   0  0  0  0  0  0  0  0  0  0  0  0
  154.2829  142.3185  161.9304 H   0  0  0  0  0  0  0  0  0  0  0  0
  154.9092  141.9346  159.7294 H   0  0  0  0  0  0  0  0  0  0  0  0
  154.4099  140.2750  159.7136 H   0  0  0  0  0  0  0  0  0  0  0  0
  153.3876  139.6184  157.5485 H   0  0  0  0  0  0  0  0  0  0  0  0
  153.2034  138.9080  159.9256 H   0  0  0  0  0  0  0  0  0  0  0  0
  152.7613  137.6235  158.8027 H   0  0  0  0  0  0  0  0  0  0  0  0
  151.5103  138.5044  159.6747 H   0  0  0  0  0  0  0  0  0  0  0  0
  150.5325  138.8637  157.4273 H   0  0  0  0  0  0  0  0  0  0  0  0
  150.6216  139.0472  155.2008 H   0  0  0  0  0  0  0  0  0  0  0  0
  149.4033  144.0294  158.1033 H   0  0  0  0  0  0  0  0  0  0  0  0
  149.9009  146.0017  159.5291 H   0  0  0  0  0  0  0  0  0  0  0  0
  151.8933  146.0066  161.0158 H   0  0  0  0  0  0  0  0  0  0  0  0
  153.4061  144.0287  161.0807 H   0  0  0  0  0  0  0  0  0  0  0  0
  1  2  1  0  0  0  0
  1 25  1  0  0  0  0
  1 26  1  0  0  0  0
  1 27  1  0  0  0  0
  2  7  1  0  0  0  0
  2  3  2  0  0  0  0
  3  4  1  0  0  0  0
  3 28  1  0  0  0  0
  4  5  2  0  0  0  0
  4 29  1  0  0  0  0
  5  6  1  0  0  0  0
  5 30  1  0  0  0  0
  6  7  2  0  0  0  0
  6 31  1  0  0  0  0
  7  8  1  0  0  0  0
  8  9  1  0  0  0  0
  9 10  1  0  0  0  0
  9 32  1  0  0  0  0
  9 33  1  0  0  0  0
 10 11  1  0  0  0  0
 10 34  1  0  0  0  0
 10 35  1  0  0  0  0
 11 24  1  0  0  0  0
 11 12  1  0  0  0  0
 12 13  1  0  0  0  0
 12 18  2  0  0  0  0
 13 14  1  0  0  0  0
 13 15  1  0  0  0  0
 13 36  1  0  0  0  0
 14 37  1  0  0  0  0
 14 38  1  0  0  0  0
 14 39  1  0  0  0  0
 15 16  1  0  0  0  0
 15 40  1  0  0  0  0
 16 17  2  0  0  0  0
 16 41  1  0  0  0  0
 18 19  1  0  0  0  0
 19 24  2  0  0  0  0
 19 20  1  0  0  0  0
 20 21  2  0  0  0  0
 20 42  1  0  0  0  0
 21 22  1  0  0  0  0
 21 43  1  0  0  0  0
 22 23  2  0  0  0  0
 22 44  1  0  0  0  0
 23 24  1  0  0  0  0
 23 45  1  0  0  0  0
M  END
> <s_m_source_file>
AV-unprocessed.smi

> <i_m_source_file_index>
2953

> <i_lp_mmshare_version>
43012

> <i_f3d_flags>
0

> <s_epik_input>
W0NIM11jMVtjSF1bY0hdW2NIXVtjSF1jMU9bQ0gyXVtDSDJdbihjKG4yKVtDQEhdKFtDSDNdKVtOSF1bQ0hdPU8pYyhjMjMpW2NIXVtjSF1bY0hdW2NIXTM=

> <s_epik_cmdline>
J2VwaWtfcHl0aG9uJywgJy1waCcsICc3LjAnLCAnLXRuJywgJzgnLCAnLW1hJywgJzIwMCcsICctbWV0YWxfYmluZGluZycsICctaW1hZScsICc8aW5maWxlLm1hZT4nLCAnLW9tYWUnLCAnPG91dGZpbGUubWFlPic=

> <r_lp_tautomer_probability>
1

> <r_epik_Ionization_Penalty>
0.0924205

> <r_epik_Ionization_Penalty_Charging>
0

> <r_epik_Ionization_Penalty_Neutral>
0.0924205

> <r_epik_State_Penalty>
0.0827154

> <r_epik_Charging_Adjusted_Penalty>
0.0827154

> <i_epik_Tot_Q>
0

> <i_epik_Tot_abs_Q>
0

> <r_epik_Metal_State_Penalty>
0.071464

> <b_epik_Metal_Only>
0

> <s_lp_Force_Field>
OPLS_2005

> <r_lp_Energy>
13.3209

> <b_lp_Chiralities_Consistent>
1

> <s_lp_Variant>
AV-unprocessed.smi:2953-2

> <Gold.Version>
5.8.1

> <Gold.Id.Protein>
6NUR|6NUR_protein|mol2

> <Gold.PLP.Fitness>
52.0449

> <Gold.PLP.PLP>
-49.3965

> <Gold.PLP.part.hbond>
-2.2344

> <Gold.PLP.part.metal>
0.0000

> <Gold.PLP.part.buried>
-4.7936

> <Gold.PLP.part.nonpolar>
-43.1060

> <Gold.PLP.part.repulsive>
0.0930

> <Gold.PLP.ligand.clash>
0.0000

> <Gold.PLP.ligand.torsion>
0.9277

> <Gold.PLP.Chemscore.Hbond>
1.4521

> <Gold.PLP.Chemscore.CHOScore>
0.0000

> <Gold.PLP.Chemscore.Metal>
0.0000

> <Gold.Chemscore.Hbonds>
donor molecule, donor type, donor heavy atom, donor atom, acceptor molecule, acceptor atom, score
      P1  H  7989  7998       L1    17  0.46
      P1  H  7997  8009       L1    17  0.89

> <Gold.PLP.Chemscore.Internal.Correction>
0.1474

> <Gold.Rescore>
     Score         DG    S(hbond)    S(metal)    S(lipo)     H(rot)  DE(clash)    DE(int)     intcor
     18.04     -19.00       1.06        0.00     134.64       2.26       0.02       0.94       ----

> <Gold.Chemscore.Fitness>
18.0444

> <Gold.Chemscore.DG>
-18.9982

> <Gold.Chemscore.ZeroCoef>
-5.4800

> <Gold.Chemscore.Hbond>
1.0647

> <Gold.Chemscore.Metal>
0.0000

> <Gold.Chemscore.Lipo>
134.6384

> <Gold.Chemscore.Internal_Hbond>
0.0000

> <Gold.Chemscore.DEClash>
0.0175

> <Gold.Chemscore.DEInternal>
0.9363

> <Gold.Chemscore.Rot>
2.2619

> <Gold.Chemscore.Internal.Correction>
   9.000000E+99

> <Gold.Chemscore.Hbonds>
donor molecule, donor type, donor heavy atom, donor atom, acceptor molecule, acceptor atom, score
      P1  H  7989  7998       L1    17  0.16
      P1  H  7997  8009       L1    17  0.87

> <Gold.Chemscore.Hbond.Weighted>
-3.5561

> <Gold.Chemscore.Metal.Weighted>
-0.0000

> <Gold.Chemscore.Lipo.Weighted>
-15.7527

> <Gold.Chemscore.Internal_Hbond.Weighted>
0.0000

> <Gold.Chemscore.DEClash.Weighted>
0.0175

> <Gold.Chemscore.DEInternal.Weighted>
0.9363

> <Gold.Chemscore.Rot.Weighted>
5.7906

> <Gold.Chemscore.Internal.Correction.Weighted>
   9.000000E+99

> <Gold.Protein.RotatedTorsions>
[ 6907 6896 6895 6894 ] final  -32.60 input  -60.11 | X-H torsion
[ 7974 7965 7964 7962 ] final  -82.41 input  175.53 | X-H torsion
[ 8008 7997 7996 7995 ] final -137.94 input   59.86 | X-H torsion
[ 10167 10162 10161 10158 ] final  -88.44 input  -65.29 | X-H torsion
[ 10718 10713 10712 10709 ] final  139.80 input   66.30 | X-H torsion
[ 10763 10752 10751 10750 ] final  122.24 input  -60.55 | X-H torsion
[ 11005 11000 10999 10996 ] final   43.91 input  -57.11 | X-H torsion

> <Gold.Protein.ActiveResidues>
 VAL166  LYS551  ARG553  GLY616  TRP617  ASP618  TYR619  PRO620  LYS621  CYS622 
 ASP623  PHE694  ASN695  SER759  ASP760  ASP761  ALA762  ILE779  LEU786  VAL792 
 PHE793  MET794  SER795  GLU796  ALA797  LYS798  CYS799  TRP800  GLU811  SER814 

> <Gold.Protein.RotatedAtoms>
  151.0766  134.9832  159.8334 H   0  0  0  0  0  0  0  0  0  0  0  0  # atno 6907 bound_to 6896
  152.5415  134.2234  159.8806 H   0  0  0  0  0  0  0  0  0  0  0  0  # atno 6908 bound_to 6896
  151.2261  133.4432  159.2636 H   0  0  0  0  0  0  0  0  0  0  0  0  # atno 6909 bound_to 6896
  145.5337  140.9518  143.1589 H   0  0  0  0  0  0  0  0  0  0  0  0  # atno 7974 bound_to 7965
  155.4201  140.0518  157.3026 H   0  0  0  0  0  0  0  0  0  0  0  0  # atno 8008 bound_to 7997
  154.4906  140.2118  155.9515 H   0  0  0  0  0  0  0  0  0  0  0  0  # atno 8009 bound_to 7997
  156.1337  140.3167  155.8393 H   0  0  0  0  0  0  0  0  0  0  0  0  # atno 8010 bound_to 7997
  140.3747  143.2777  151.9458 H   0  0  0  0  0  0  0  0  0  0  0  0  # atno 10167 bound_to 10162
  157.4103  131.1027  151.0460 H   0  0  0  0  0  0  0  0  0  0  0  0  # atno 10718 bound_to 10713
  153.6267  135.3403  155.3028 H   0  0  0  0  0  0  0  0  0  0  0  0  # atno 10763 bound_to 10752
  154.8589  135.4286  154.2150 H   0  0  0  0  0  0  0  0  0  0  0  0  # atno 10764 bound_to 10752
  153.3035  135.7026  153.7254 H   0  0  0  0  0  0  0  0  0  0  0  0  # atno 10765 bound_to 10752
  140.1601  134.4352  155.8323 H   0  0  0  0  0  0  0  0  0  0  0  0  # atno 11005 bound_to 11000
  144.7612  139.6951  143.7233 LP  0  0  0  0  0  0  0  0  0  0  0  0  # atno 17320 bound_to 7965
  146.2027  139.5332  142.9733 LP  0  0  0  0  0  0  0  0  0  0  0  0  # atno 17321 bound_to 7965
  139.4800  144.5875  151.7829 LP  0  0  0  0  0  0  0  0  0  0  0  0  # atno 17342 bound_to 10162
  140.4998  144.1185  150.5968 LP  0  0  0  0  0  0  0  0  0  0  0  0  # atno 17343 bound_to 10162
  157.1427  130.6150  149.5560 LP  0  0  0  0  0  0  0  0  0  0  0  0  # atno 17370 bound_to 10713
  155.9849  130.4876  150.7004 LP  0  0  0  0  0  0  0  0  0  0  0  0  # atno 17371 bound_to 10713
  141.2208  133.6909  156.7578 LP  0  0  0  0  0  0  0  0  0  0  0  0  # atno 17394 bound_to 11000
  140.2500  134.8548  157.3658 LP  0  0  0  0  0  0  0  0  0  0  0  0  # atno 17395 bound_to 11000

$$$$
