AV-unprocessed.smi:184|AV-procd|sdf|1463|dock2
  -GOLD-   2262019273D 1   1.00000     0.00000
 Structure written by MMmdl.
 54 58  0  0  0  0  0  0  0  0  1 V2000
  154.8549  139.8711  161.4307 O   0  0  0  0  0  0  0  0  0  0  0  0
  153.9894  140.3579  160.7068 C   0  0  0  0  0  0  0  0  0  0  0  0
  153.3307  139.4856  159.6220 C   0  0  0  0  0  0  0  0  0  0  0  0
  152.3002  140.1641  158.8214 N   0  0  0  0  0  0  0  0  0  0  0  0
  151.9571  139.4349  157.7358 C   0  0  0  0  0  0  0  0  0  0  0  0
  152.6603  139.6509  156.5972 N   0  0  0  0  0  0  0  0  0  0  0  0
  152.3689  138.9588  155.4918 C   0  0  0  0  0  0  0  0  0  0  0  0
  151.4296  138.0272  155.3130 N   0  0  0  0  0  0  0  0  0  0  0  0
  150.7138  137.8168  156.4549 C   0  0  0  0  0  0  0  0  0  0  0  0
  150.9054  138.4764  157.7011 C   0  0  0  0  0  0  0  0  0  0  0  0
  149.9812  138.0139  158.6294 N   0  0  0  0  0  0  0  0  0  0  0  0
  149.2893  137.1238  157.9726 C   0  0  0  0  0  0  0  0  0  0  0  0
  149.6688  136.9333  156.6627 N   0  0  0  0  0  0  0  0  0  0  0  0
  149.0754  136.0063  155.7104 C   0  0  0  0  0  0  0  0  0  0  0  0
  150.1028  135.0740  155.0119 C   0  0  0  0  0  0  0  0  0  0  0  0
  150.8896  135.8765  154.1501 O   0  0  0  0  0  0  0  0  0  0  0  0
  151.0607  134.4175  156.0261 C   0  0  0  0  0  0  0  0  0  0  0  0
  150.3714  133.2832  156.8068 C   0  0  0  0  0  0  0  0  0  0  0  0
  149.8404  132.3212  155.9019 O   0  0  0  0  0  0  0  0  0  0  0  0
  148.8469  132.8591  155.0359 C   0  0  0  0  0  0  0  0  0  0  0  0
  149.4619  133.9608  154.1547 C   0  0  0  0  0  0  0  0  0  0  0  0
  152.4322  141.6137  158.6468 C   0  0  1  0  0  0  0  0  0  0  0  0
  151.2598  142.2672  157.8756 C   0  0  0  0  0  0  0  0  0  0  0  0
  151.4599  143.7873  157.7523 C   0  0  0  0  0  0  0  0  0  0  0  0
  151.6488  144.4484  159.1271 C   0  0  0  0  0  0  0  0  0  0  0  0
  152.7890  143.7856  159.9169 C   0  0  0  0  0  0  0  0  0  0  0  0
  152.5582  142.2695  160.0389 C   0  0  2  0  0  0  0  0  0  0  0  0
  153.6134  141.6415  160.8269 N   0  0  0  0  0  0  0  0  0  0  0  0
  154.1238  139.1111  158.9722 H   0  0  0  0  0  0  0  0  0  0  0  0
  152.8833  138.6175  160.1081 H   0  0  0  0  0  0  0  0  0  0  0  0
  152.9758  139.1825  154.6270 H   0  0  0  0  0  0  0  0  0  0  0  0
  148.4806  136.5727  158.4305 H   0  0  0  0  0  0  0  0  0  0  0  0
  148.3305  135.4116  156.2415 H   0  0  0  0  0  0  0  0  0  0  0  0
  148.5199  136.5895  154.9763 H   0  0  0  0  0  0  0  0  0  0  0  0
  150.3190  136.2894  153.5199 H   0  0  0  0  0  0  0  0  0  0  0  0
  151.9189  133.9951  155.5004 H   0  0  0  0  0  0  0  0  0  0  0  0
  151.4618  135.1617  156.7154 H   0  0  0  0  0  0  0  0  0  0  0  0
  151.0933  132.7882  157.4566 H   0  0  0  0  0  0  0  0  0  0  0  0
  149.5815  133.6663  157.4536 H   0  0  0  0  0  0  0  0  0  0  0  0
  148.4573  132.0566  154.4093 H   0  0  0  0  0  0  0  0  0  0  0  0
  148.0078  133.2364  155.6206 H   0  0  0  0  0  0  0  0  0  0  0  0
  148.7145  134.3625  153.4704 H   0  0  0  0  0  0  0  0  0  0  0  0
  150.2252  133.5019  153.5242 H   0  0  0  0  0  0  0  0  0  0  0  0
  153.3555  141.8031  158.0967 H   0  0  0  0  0  0  0  0  0  0  0  0
  151.1663  141.8485  156.8735 H   0  0  0  0  0  0  0  0  0  0  0  0
  150.3182  142.0596  158.3860 H   0  0  0  0  0  0  0  0  0  0  0  0
  152.3327  143.9882  157.1297 H   0  0  0  0  0  0  0  0  0  0  0  0
  150.6068  144.2332  157.2401 H   0  0  0  0  0  0  0  0  0  0  0  0
  151.8510  145.5128  159.0033 H   0  0  0  0  0  0  0  0  0  0  0  0
  150.7215  144.3745  159.6965 H   0  0  0  0  0  0  0  0  0  0  0  0
  153.7404  143.9782  159.4191 H   0  0  0  0  0  0  0  0  0  0  0  0
  152.8586  144.2373  160.9072 H   0  0  0  0  0  0  0  0  0  0  0  0
  151.6285  142.1074  160.5877 H   0  0  0  0  0  0  0  0  0  0  0  0
  154.0644  142.2077  161.5308 H   0  0  0  0  0  0  0  0  0  0  0  0
  1  2  2  0  0  0  0
  2 28  1  0  0  0  0
  2  3  1  0  0  0  0
  3  4  1  0  0  0  0
  3 29  1  0  0  0  0
  3 30  1  0  0  0  0
  4  5  1  0  0  0  0
  4 22  1  0  0  0  0
  5 10  1  0  0  0  0
  5  6  2  0  0  0  0
  6  7  1  0  0  0  0
  7  8  2  0  0  0  0
  7 31  1  0  0  0  0
  8  9  1  0  0  0  0
  9 13  1  0  0  0  0
  9 10  2  0  0  0  0
 10 11  1  0  0  0  0
 11 12  2  0  0  0  0
 12 13  1  0  0  0  0
 12 32  1  0  0  0  0
 13 14  1  0  0  0  0
 14 15  1  0  0  0  0
 14 33  1  0  0  0  0
 14 34  1  0  0  0  0
 15 21  1  0  0  0  0
 15 16  1  0  0  0  0
 15 17  1  0  0  0  0
 16 35  1  0  0  0  0
 17 18  1  0  0  0  0
 17 36  1  0  0  0  0
 17 37  1  0  0  0  0
 18 19  1  0  0  0  0
 18 38  1  0  0  0  0
 18 39  1  0  0  0  0
 19 20  1  0  0  0  0
 20 21  1  0  0  0  0
 20 40  1  0  0  0  0
 20 41  1  0  0  0  0
 21 42  1  0  0  0  0
 21 43  1  0  0  0  0
 22 27  1  0  0  0  0
 22 23  1  0  0  0  0
 22 44  1  0  0  0  0
 23 24  1  0  0  0  0
 23 45  1  0  0  0  0
 23 46  1  0  0  0  0
 24 25  1  0  0  0  0
 24 47  1  0  0  0  0
 24 48  1  0  0  0  0
 25 26  1  0  0  0  0
 25 49  1  0  0  0  0
 25 50  1  0  0  0  0
 26 27  1  0  0  0  0
 26 51  1  0  0  0  0
 26 52  1  0  0  0  0
 27 28  1  0  0  0  0
 27 53  1  0  0  0  0
 28 54  1  0  0  0  0
M  END
> <s_m_source_file>
AV-unprocessed.smi

> <i_m_source_file_index>
184

> <i_lp_mmshare_version>
43012

> <i_f3d_flags>
0

> <s_epik_input>
W0NIMl0xW0NIMl1bQ0gyXVtDSDJdW0NASF0oW0NASF0xMilbTkhdQyg9TylbQ0gyXU4yYyhuW2NIXW4zKWMoYzM0KW5bY0hdbjRbQ0gyXUM1KFtPSF0pW0NIMl1bQ0gyXU9bQ0gyXVtDSDJdNQ==

> <s_epik_cmdline>
J2VwaWtfcHl0aG9uJywgJy1waCcsICc3LjAnLCAnLXRuJywgJzgnLCAnLW1hJywgJzIwMCcsICctbWV0YWxfYmluZGluZycsICctaW1hZScsICc8aW5maWxlLm1hZT4nLCAnLW9tYWUnLCAnPG91dGZpbGUubWFlPic=

> <r_lp_tautomer_probability>
1

> <r_epik_Ionization_Penalty>
0.000822761

> <r_epik_Ionization_Penalty_Charging>
0

> <r_epik_Ionization_Penalty_Neutral>
0.000822761

> <r_epik_State_Penalty>
0.000403048

> <r_epik_Charging_Adjusted_Penalty>
0.000403048

> <i_epik_Tot_Q>
0

> <i_epik_Tot_abs_Q>
0

> <r_epik_Metal_State_Penalty>
-0

> <b_epik_Metal_Only>
0

> <s_lp_Force_Field>
OPLS_2005

> <r_lp_Energy>
32.8133

> <b_lp_Chiralities_Consistent>
1

> <s_lp_Variant>
AV-unprocessed.smi:184-3

> <Gold.Version>
5.8.1

> <Gold.Id.Protein>
6NUR|6NUR_protein|mol2

> <Gold.PLP.Fitness>
50.0678

> <Gold.PLP.PLP>
-44.1143

> <Gold.PLP.part.hbond>
-4.0000

> <Gold.PLP.part.metal>
0.0000

> <Gold.PLP.part.buried>
-5.3802

> <Gold.PLP.part.nonpolar>
-34.8623

> <Gold.PLP.part.repulsive>
0.0768

> <Gold.PLP.ligand.clash>
0.0000

> <Gold.PLP.ligand.torsion>
0.5984

> <Gold.PLP.Chemscore.Hbond>
2.2616

> <Gold.PLP.Chemscore.CHOScore>
0.0000

> <Gold.PLP.Chemscore.Metal>
0.0000

> <Gold.Chemscore.Hbonds>
donor molecule, donor type, donor heavy atom, donor atom, acceptor molecule, acceptor atom, score
      L1  H    16    35       P1  7948  0.30
      P1  H  7997  8010       L1     6  1.00
      P1  H 10752 10764       L1    16  0.91

> <Gold.PLP.Chemscore.Internal.Correction>
0.3655

> <Gold.Rescore>
     Score         DG    S(hbond)    S(metal)    S(lipo)     H(rot)  DE(clash)    DE(int)     intcor
     16.55     -18.34       1.83        0.00     105.24       2.17       0.21       1.58       ----

> <Gold.Chemscore.Fitness>
16.5465

> <Gold.Chemscore.DG>
-18.3410

> <Gold.Chemscore.ZeroCoef>
-5.4800

> <Gold.Chemscore.Hbond>
1.8266

> <Gold.Chemscore.Metal>
0.0000

> <Gold.Chemscore.Lipo>
105.2440

> <Gold.Chemscore.Internal_Hbond>
0.0000

> <Gold.Chemscore.DEClash>
0.2118

> <Gold.Chemscore.DEInternal>
1.5826

> <Gold.Chemscore.Rot>
2.1693

> <Gold.Chemscore.Internal.Correction>
   9.000000E+99

> <Gold.Chemscore.Hbonds>
donor molecule, donor type, donor heavy atom, donor atom, acceptor molecule, acceptor atom, score
      L1  H    16    35       P1  7948  0.01
      P1  H  7997  8010       L1     6  0.74
      P1  H 10752 10764       L1    16  0.83

> <Gold.Chemscore.Hbond.Weighted>
-6.1007

> <Gold.Chemscore.Metal.Weighted>
-0.0000

> <Gold.Chemscore.Lipo.Weighted>
-12.3135

> <Gold.Chemscore.Internal_Hbond.Weighted>
0.0000

> <Gold.Chemscore.DEClash.Weighted>
0.2118

> <Gold.Chemscore.DEInternal.Weighted>
1.5826

> <Gold.Chemscore.Rot.Weighted>
5.5533

> <Gold.Chemscore.Internal.Correction.Weighted>
   9.000000E+99

> <Gold.Protein.RotatedTorsions>
[ 6907 6896 6895 6894 ] final  156.16 input  -60.11 | X-H torsion
[ 7974 7965 7964 7962 ] final  150.06 input  175.53 | X-H torsion
[ 8008 7997 7996 7995 ] final   61.52 input   59.86 | X-H torsion
[ 10167 10162 10161 10158 ] final  -83.43 input  -65.29 | X-H torsion
[ 10718 10713 10712 10709 ] final   42.52 input   66.30 | X-H torsion
[ 10763 10752 10751 10750 ] final  -84.40 input  -60.55 | X-H torsion
[ 11005 11000 10999 10996 ] final   61.03 input  -57.11 | X-H torsion

> <Gold.Protein.ActiveResidues>
 VAL166  LYS551  ARG553  GLY616  TRP617  ASP618  TYR619  PRO620  LYS621  CYS622 
 ASP623  PHE694  ASN695  SER759  ASP760  ASP761  ALA762  ILE779  LEU786  VAL792 
 PHE793  MET794  SER795  GLU796  ALA797  LYS798  CYS799  TRP800  GLU811  SER814 

> <Gold.Protein.RotatedAtoms>
  152.0337  133.3948  159.4307 H   0  0  0  0  0  0  0  0  0  0  0  0  # atno 6907 bound_to 6896
  150.6880  134.3492  159.4911 H   0  0  0  0  0  0  0  0  0  0  0  0  # atno 6908 bound_to 6896
  152.1281  134.9155  160.0610 H   0  0  0  0  0  0  0  0  0  0  0  0  # atno 6909 bound_to 6896
  144.8392  139.6359  143.6024 H   0  0  0  0  0  0  0  0  0  0  0  0  # atno 7974 bound_to 7965
  155.5997  140.3494  155.4590 H   0  0  0  0  0  0  0  0  0  0  0  0  # atno 8008 bound_to 7997
  156.0238  140.1259  157.0355 H   0  0  0  0  0  0  0  0  0  0  0  0  # atno 8009 bound_to 7997
  154.4325  140.1057  156.5987 H   0  0  0  0  0  0  0  0  0  0  0  0  # atno 8010 bound_to 7997
  140.4227  143.2578  151.8868 H   0  0  0  0  0  0  0  0  0  0  0  0  # atno 10167 bound_to 10162
  157.4057  130.7885  149.7387 H   0  0  0  0  0  0  0  0  0  0  0  0  # atno 10718 bound_to 10713
  154.5991  135.5522  153.7356 H   0  0  0  0  0  0  0  0  0  0  0  0  # atno 10763 bound_to 10752
  153.0147  135.6362  154.1740 H   0  0  0  0  0  0  0  0  0  0  0  0  # atno 10764 bound_to 10752
  154.1680  135.2893  155.3069 H   0  0  0  0  0  0  0  0  0  0  0  0  # atno 10765 bound_to 10752
  140.0190  134.6181  155.9667 H   0  0  0  0  0  0  0  0  0  0  0  0  # atno 11005 bound_to 11000
  146.2687  139.6582  142.9311 LP  0  0  0  0  0  0  0  0  0  0  0  0  # atno 17320 bound_to 7965
  145.4730  141.0436  143.2688 LP  0  0  0  0  0  0  0  0  0  0  0  0  # atno 17321 bound_to 7965
  139.4783  144.5420  151.8514 LP  0  0  0  0  0  0  0  0  0  0  0  0  # atno 17342 bound_to 10162
  140.4515  144.1848  150.5898 LP  0  0  0  0  0  0  0  0  0  0  0  0  # atno 17343 bound_to 10162
  155.9836  130.3999  150.3356 LP  0  0  0  0  0  0  0  0  0  0  0  0  # atno 17370 bound_to 10713
  157.1488  131.0315  151.2894 LP  0  0  0  0  0  0  0  0  0  0  0  0  # atno 17371 bound_to 10713
  141.1761  133.6540  156.4836 LP  0  0  0  0  0  0  0  0  0  0  0  0  # atno 17394 bound_to 11000
  140.4420  134.7007  157.4996 LP  0  0  0  0  0  0  0  0  0  0  0  0  # atno 17395 bound_to 11000

$$$$
