AV-unprocessed.smi:1229|AV-procd|sdf|5151|dock2
  -GOLD-   22720 4223D 1   1.00000     0.00000
 Structure written by MMmdl.
 46 47  0  0  0  0  0  0  0  0  2 V2000
  151.0289  137.2700  154.7066 C   0  0  0  0  0  0  0  0  0  0  0  0
  150.6935  138.7086  155.0660 C   0  0  0  0  0  0  0  0  0  0  0  0
  151.5215  139.4047  155.9723 C   0  0  0  0  0  0  0  0  0  0  0  0
  151.2088  140.7336  156.3059 C   0  0  0  0  0  0  0  0  0  0  0  0
  150.0745  141.3145  155.7139 C   0  0  0  0  0  0  0  0  0  0  0  0
  149.2782  140.6572  154.8463 N   0  0  0  0  0  0  0  0  0  0  0  0
  149.5648  139.3729  154.5150 C   0  0  0  0  0  0  0  0  0  0  0  0
  148.7687  138.6187  153.6069 N   0  0  0  0  0  0  0  0  0  0  0  0
  147.4593  138.7542  153.3327 C   0  0  0  0  0  0  0  0  0  0  0  0
  146.7017  139.5768  153.8485 O   0  0  0  0  0  0  0  0  0  0  0  0
  147.0610  137.8709  152.4051 N   0  0  0  0  0  0  0  0  0  0  0  0
  145.6961  137.7492  151.9017 C   0  0  0  0  0  0  0  0  0  0  0  0
  145.2353  136.2786  151.8201 C   0  0  1  0  0  0  0  0  0  0  0  0
  143.8941  136.2131  152.2634 O   0  0  0  0  0  0  0  0  0  0  0  0
  145.2741  135.7528  150.3711 C   0  0  0  0  0  0  0  0  0  0  0  0
  145.1951  134.2708  150.3018 N   0  3  0  0  0  0  0  0  0  0  0  0
  146.1622  133.6102  151.2167 C   0  0  0  0  0  0  0  0  0  0  0  0
  146.1646  132.0850  151.0173 C   0  0  0  0  0  0  0  0  0  0  0  0
  144.7568  131.5035  151.1996 C   0  0  0  0  0  0  0  0  0  0  0  0
  143.7692  132.2228  150.2719 C   0  0  0  0  0  0  0  0  0  0  0  0
  143.8162  133.7445  150.4909 C   0  0  0  0  0  0  0  0  0  0  0  0
  151.9396  136.9385  155.2063 H   0  0  0  0  0  0  0  0  0  0  0  0
  151.1814  137.1686  153.6318 H   0  0  0  0  0  0  0  0  0  0  0  0
  150.2197  136.6037  155.0070 H   0  0  0  0  0  0  0  0  0  0  0  0
  152.3868  138.9282  156.4093 H   0  0  0  0  0  0  0  0  0  0  0  0
  151.8222  141.2928  156.9968 H   0  0  0  0  0  0  0  0  0  0  0  0
  149.7988  142.3335  155.9415 H   0  0  0  0  0  0  0  0  0  0  0  0
  149.2586  137.8924  153.1060 H   0  0  0  0  0  0  0  0  0  0  0  0
  147.7444  137.2283  152.0316 H   0  0  0  0  0  0  0  0  0  0  0  0
  145.0236  138.3370  152.5281 H   0  0  0  0  0  0  0  0  0  0  0  0
  145.6600  138.2083  150.9120 H   0  0  0  0  0  0  0  0  0  0  0  0
  145.8543  135.6545  152.4635 H   0  0  0  0  0  0  0  0  0  0  0  0
  143.8818  136.3373  153.2006 H   0  0  0  0  0  0  0  0  0  0  0  0
  144.4439  136.1982  149.8198 H   0  0  0  0  0  0  0  0  0  0  0  0
  146.1831  136.0833  149.8658 H   0  0  0  0  0  0  0  0  0  0  0  0
  147.1664  133.9936  151.0312 H   0  0  0  0  0  0  0  0  0  0  0  0
  145.9134  133.8563  152.2502 H   0  0  0  0  0  0  0  0  0  0  0  0
  146.5333  131.8468  150.0185 H   0  0  0  0  0  0  0  0  0  0  0  0
  146.8544  131.6177  151.7209 H   0  0  0  0  0  0  0  0  0  0  0  0
  144.7598  130.4330  150.9916 H   0  0  0  0  0  0  0  0  0  0  0  0
  144.4406  131.6200  152.2371 H   0  0  0  0  0  0  0  0  0  0  0  0
  144.0090  131.9946  149.2323 H   0  0  0  0  0  0  0  0  0  0  0  0
  142.7585  131.8520  150.4449 H   0  0  0  0  0  0  0  0  0  0  0  0
  143.4671  133.9877  151.4959 H   0  0  0  0  0  0  0  0  0  0  0  0
  143.1259  134.2214  149.7964 H   0  0  0  0  0  0  0  0  0  0  0  0
  145.4811  134.0217  149.3654 H   0  0  0  0  0  0  0  0  0  0  0  0
  1  2  1  0  0  0  0
  1 22  1  0  0  0  0
  1 23  1  0  0  0  0
  1 24  1  0  0  0  0
  2  7  1  0  0  0  0
  2  3  2  0  0  0  0
  3  4  1  0  0  0  0
  3 25  1  0  0  0  0
  4  5  2  0  0  0  0
  4 26  1  0  0  0  0
  5  6  1  0  0  0  0
  5 27  1  0  0  0  0
  6  7  2  0  0  0  0
  7  8  1  0  0  0  0
  8  9  1  0  0  0  0
  8 28  1  0  0  0  0
  9 10  2  0  0  0  0
  9 11  1  0  0  0  0
 11 12  1  0  0  0  0
 11 29  1  0  0  0  0
 12 13  1  0  0  0  0
 12 30  1  0  0  0  0
 12 31  1  0  0  0  0
 13 14  1  0  0  0  0
 13 15  1  0  0  0  0
 13 32  1  0  0  0  0
 14 33  1  0  0  0  0
 15 16  1  0  0  0  0
 15 34  1  0  0  0  0
 15 35  1  0  0  0  0
 16 21  1  0  0  0  0
 16 17  1  0  0  0  0
 16 46  1  0  0  0  0
 17 18  1  0  0  0  0
 17 36  1  0  0  0  0
 17 37  1  0  0  0  0
 18 19  1  0  0  0  0
 18 38  1  0  0  0  0
 18 39  1  0  0  0  0
 19 20  1  0  0  0  0
 19 40  1  0  0  0  0
 19 41  1  0  0  0  0
 20 21  1  0  0  0  0
 20 42  1  0  0  0  0
 20 43  1  0  0  0  0
 21 44  1  0  0  0  0
 21 45  1  0  0  0  0
M  CHG  1  16   1
M  END
> <s_m_source_file>
AV-unprocessed.smi

> <i_m_source_file_index>
1229

> <i_lp_mmshare_version>
43012

> <i_f3d_flags>
0

> <s_epik_input>
W0NIM11jMVtjSF1bY0hdW2NIXW5jMVtOSF1DKD1PKVtOSF1bQ0gyXVtDQEhdKFtPSF0pW0NIMl1OMltDSDJdW0NIMl1bQ0gyXVtDSDJdW0NIMl0y

> <s_epik_cmdline>
J2VwaWtfcHl0aG9uJywgJy1waCcsICc3LjAnLCAnLXRuJywgJzgnLCAnLW1hJywgJzIwMCcsICctbWV0YWxfYmluZGluZycsICctaW1hZScsICc8aW5maWxlLm1hZT4nLCAnLW9tYWUnLCAnPG91dGZpbGUubWFlPic=

> <r_epik_Ionization_Penalty>
0.00511007

> <r_epik_Ionization_Penalty_Charging>
0.00506051

> <r_epik_Ionization_Penalty_Neutral>
4.95577e-05

> <r_epik_State_Penalty>
0.00368188

> <r_epik_Charging_Adjusted_Penalty>
0.0087424

> <i_epik_Tot_Q>
1

> <i_epik_Tot_abs_Q>
1

> <r_epik_Metal_State_Penalty>
-0

> <b_epik_Metal_Only>
0

> <s_lp_Force_Field>
OPLS_2005

> <r_lp_Energy>
20.718

> <b_lp_Chiralities_Consistent>
1

> <s_lp_Variant>
AV-unprocessed.smi:1229-2

> <Gold.Version>
5.8.1

> <Gold.Id.Protein>
6NUR|6NUR_protein|mol2

> <Gold.PLP.Fitness>
50.0347

> <Gold.PLP.PLP>
-41.3794

> <Gold.PLP.part.hbond>
-4.0000

> <Gold.PLP.part.metal>
0.0000

> <Gold.PLP.part.buried>
-1.0364

> <Gold.PLP.part.nonpolar>
-37.7251

> <Gold.PLP.part.repulsive>
0.4620

> <Gold.PLP.ligand.clash>
0.0000

> <Gold.PLP.ligand.torsion>
1.0781

> <Gold.PLP.Chemscore.Hbond>
2.5720

> <Gold.PLP.Chemscore.CHOScore>
1.0000

> <Gold.PLP.Chemscore.Metal>
0.0000

> <Gold.Chemscore.Hbonds>
donor molecule, donor type, donor heavy atom, donor atom, acceptor molecule, acceptor atom, score
      L1  H     8    28       P1  7948  0.80
      L1  H    11    29       P1  7948  1.00
      L1  H    16    46       P1  7921  0.86
      L1  C     5    27       P1  8028  0.90

> <Gold.PLP.Chemscore.Internal.Correction>
0.0955

> <Gold.Rescore>
     Score         DG    S(hbond)    S(metal)    S(lipo)     H(rot)  DE(clash)    DE(int)     intcor
     16.02     -18.95       2.30        0.00     100.12       2.31       0.52       2.41       ----

> <Gold.Chemscore.Fitness>
16.0223

> <Gold.Chemscore.DG>
-18.9546

> <Gold.Chemscore.ZeroCoef>
-5.4800

> <Gold.Chemscore.Hbond>
2.2974

> <Gold.Chemscore.Metal>
0.0000

> <Gold.Chemscore.Lipo>
100.1166

> <Gold.Chemscore.Internal_Hbond>
0.0000

> <Gold.Chemscore.DEClash>
0.5201

> <Gold.Chemscore.DEInternal>
2.4122

> <Gold.Chemscore.Rot>
2.3095

> <Gold.Chemscore.Internal.Correction>
   9.000000E+99

> <Gold.Chemscore.Hbonds>
donor molecule, donor type, donor heavy atom, donor atom, acceptor molecule, acceptor atom, score
      L1  H     8    28       P1  7948  0.74
      L1  H    11    29       P1  7948  0.96
      L1  H    16    46       P1  7921  0.60

> <Gold.Chemscore.Hbond.Weighted>
-7.6734

> <Gold.Chemscore.Metal.Weighted>
-0.0000

> <Gold.Chemscore.Lipo.Weighted>
-11.7136

> <Gold.Chemscore.Internal_Hbond.Weighted>
0.0000

> <Gold.Chemscore.DEClash.Weighted>
0.5201

> <Gold.Chemscore.DEInternal.Weighted>
2.4122

> <Gold.Chemscore.Rot.Weighted>
5.9124

> <Gold.Chemscore.Internal.Correction.Weighted>
   9.000000E+99

> <Gold.Protein.RotatedTorsions>
[ 6907 6896 6895 6894 ] final  -52.00 input  -60.11 | X-H torsion
[ 7974 7965 7964 7962 ] final  -83.35 input  175.53 | X-H torsion
[ 8008 7997 7996 7995 ] final -118.67 input   59.86 | X-H torsion
[ 10167 10162 10161 10158 ] final -154.76 input  -65.29 | X-H torsion
[ 10718 10713 10712 10709 ] final  161.02 input   66.30 | X-H torsion
[ 10763 10752 10751 10750 ] final -147.18 input  -60.55 | X-H torsion
[ 11005 11000 10999 10996 ] final -179.56 input  -57.11 | X-H torsion

> <Gold.Protein.ActiveResidues>
 VAL166  LYS551  ARG553  GLY616  TRP617  ASP618  TYR619  PRO620  LYS621  CYS622 
 ASP623  PHE694  ASN695  SER759  ASP760  ASP761  ALA762  ILE779  LEU786  VAL792 
 PHE793  MET794  SER795  GLU796  ALA797  LYS798  CYS799  TRP800  GLU811  SER814 

> <Gold.Protein.RotatedAtoms>
  150.8558  134.7896  159.7044 H   0  0  0  0  0  0  0  0  0  0  0  0  # atno 6907 bound_to 6896
  152.4610  134.5181  159.9784 H   0  0  0  0  0  0  0  0  0  0  0  0  # atno 6908 bound_to 6896
  151.5293  133.3414  159.2951 H   0  0  0  0  0  0  0  0  0  0  0  0  # atno 6909 bound_to 6896
  145.5212  140.9531  143.1654 H   0  0  0  0  0  0  0  0  0  0  0  0  # atno 7974 bound_to 7965
  155.1035  140.0396  157.2703 H   0  0  0  0  0  0  0  0  0  0  0  0  # atno 8008 bound_to 7997
  154.6740  140.2618  155.6952 H   0  0  0  0  0  0  0  0  0  0  0  0  # atno 8009 bound_to 7997
  156.2669  140.2792  156.1260 H   0  0  0  0  0  0  0  0  0  0  0  0  # atno 8010 bound_to 7997
  139.6987  143.9299  152.2419 H   0  0  0  0  0  0  0  0  0  0  0  0  # atno 10167 bound_to 10162
  157.1423  131.0543  151.2320 H   0  0  0  0  0  0  0  0  0  0  0  0  # atno 10718 bound_to 10713
  154.8299  135.3367  154.6777 H   0  0  0  0  0  0  0  0  0  0  0  0  # atno 10763 bound_to 10752
  153.7398  135.6946  153.4974 H   0  0  0  0  0  0  0  0  0  0  0  0  # atno 10764 bound_to 10752
  153.2252  135.4435  155.0485 H   0  0  0  0  0  0  0  0  0  0  0  0  # atno 10765 bound_to 10752
  140.4173  134.6638  157.4645 H   0  0  0  0  0  0  0  0  0  0  0  0  # atno 11005 bound_to 11000
  144.7675  139.6811  143.7208 LP  0  0  0  0  0  0  0  0  0  0  0  0  # atno 17320 bound_to 7965
  146.2105  139.5458  142.9684 LP  0  0  0  0  0  0  0  0  0  0  0  0  # atno 17321 bound_to 7965
  139.9135  144.6842  150.8536 LP  0  0  0  0  0  0  0  0  0  0  0  0  # atno 17342 bound_to 10162
  140.7703  143.3426  151.2177 LP  0  0  0  0  0  0  0  0  0  0  0  0  # atno 17343 bound_to 10162
  157.4295  130.7483  149.6979 LP  0  0  0  0  0  0  0  0  0  0  0  0  # atno 17370 bound_to 10713
  155.9786  130.4049  150.3638 LP  0  0  0  0  0  0  0  0  0  0  0  0  # atno 17371 bound_to 10713
  140.0225  134.6526  155.9219 LP  0  0  0  0  0  0  0  0  0  0  0  0  # atno 17394 bound_to 11000
  141.1798  133.6545  156.4974 LP  0  0  0  0  0  0  0  0  0  0  0  0  # atno 17395 bound_to 11000

$$$$
