AV-unprocessed.smi:3067|AV-procd|sdf|11697|dock9
  -GOLD-   2272017103D 1   1.00000     0.00000
 Structure written by MMmdl.
 34 35  0  0  0  0  0  0  0  0  1 V2000
  145.7146  129.1644  151.8723 C   0  0  0  0  0  0  0  0  0  0  0  0
  146.1061  130.4368  152.3633 O   0  0  0  0  0  0  0  0  0  0  0  0
  145.9007  131.5074  151.4480 C   0  0  1  0  0  0  0  0  0  0  0  0
  144.3929  131.8300  151.3660 C   0  0  0  0  0  0  0  0  0  0  0  0
  144.1228  133.0773  150.5122 C   0  0  0  0  0  0  0  0  0  0  0  0
  144.9124  134.2841  151.0366 C   0  0  0  0  0  0  0  0  0  0  0  0
  146.4138  133.9706  151.1024 C   0  0  0  0  0  0  0  0  0  0  0  0
  146.6982  132.7241  151.9686 C   0  0  2  0  0  0  0  0  0  0  0  0
  148.1254  132.4233  151.9804 N   0  0  0  0  0  0  0  0  0  0  0  0
  148.8783  132.3859  153.1642 C   0  0  0  0  0  0  0  0  0  0  0  0
  149.3718  131.1949  153.7465 C   0  0  0  0  0  0  0  0  0  0  0  0
  150.1214  131.2744  154.9358 C   0  0  0  0  0  0  0  0  0  0  0  0
  150.3556  132.5431  155.5058 C   0  0  0  0  0  0  0  0  0  0  0  0
  151.1286  132.6466  156.7316 C   0  0  0  0  0  0  0  0  0  0  0  0
  151.7445  132.7286  157.7079 N   0  0  0  0  0  0  0  0  0  0  0  0
  149.8890  133.6860  154.9582 N   0  0  0  0  0  0  0  0  0  0  0  0
  149.1709  133.6013  153.8183 C   0  0  0  0  0  0  0  0  0  0  0  0
  145.9341  128.4047  152.6222 H   0  0  0  0  0  0  0  0  0  0  0  0
  146.2630  128.9057  150.9658 H   0  0  0  0  0  0  0  0  0  0  0  0
  144.6467  129.1205  151.6602 H   0  0  0  0  0  0  0  0  0  0  0  0
  146.2749  131.2392  150.4576 H   0  0  0  0  0  0  0  0  0  0  0  0
  143.8412  130.9876  150.9497 H   0  0  0  0  0  0  0  0  0  0  0  0
  144.0000  131.9890  152.3710 H   0  0  0  0  0  0  0  0  0  0  0  0
  144.3995  132.8795  149.4758 H   0  0  0  0  0  0  0  0  0  0  0  0
  143.0561  133.3032  150.5109 H   0  0  0  0  0  0  0  0  0  0  0  0
  144.7404  135.1482  150.3945 H   0  0  0  0  0  0  0  0  0  0  0  0
  144.5510  134.5572  152.0288 H   0  0  0  0  0  0  0  0  0  0  0  0
  146.7928  133.8107  150.0919 H   0  0  0  0  0  0  0  0  0  0  0  0
  146.9450  134.8391  151.4918 H   0  0  0  0  0  0  0  0  0  0  0  0
  146.3681  132.9170  152.9897 H   0  0  0  0  0  0  0  0  0  0  0  0
  148.5553  132.1293  151.1149 H   0  0  0  0  0  0  0  0  0  0  0  0
  149.1895  130.2262  153.3066 H   0  0  0  0  0  0  0  0  0  0  0  0
  150.5069  130.3761  155.3965 H   0  0  0  0  0  0  0  0  0  0  0  0
  148.8189  134.5395  153.4145 H   0  0  0  0  0  0  0  0  0  0  0  0
  1  2  1  0  0  0  0
  1 18  1  0  0  0  0
  1 19  1  0  0  0  0
  1 20  1  0  0  0  0
  2  3  1  0  0  0  0
  3  8  1  0  0  0  0
  3  4  1  0  0  0  0
  3 21  1  0  0  0  0
  4  5  1  0  0  0  0
  4 22  1  0  0  0  0
  4 23  1  0  0  0  0
  5  6  1  0  0  0  0
  5 24  1  0  0  0  0
  5 25  1  0  0  0  0
  6  7  1  0  0  0  0
  6 26  1  0  0  0  0
  6 27  1  0  0  0  0
  7  8  1  0  0  0  0
  7 28  1  0  0  0  0
  7 29  1  0  0  0  0
  8  9  1  0  0  0  0
  8 30  1  0  0  0  0
  9 10  1  0  0  0  0
  9 31  1  0  0  0  0
 10 17  1  0  0  0  0
 10 11  2  0  0  0  0
 11 12  1  0  0  0  0
 11 32  1  0  0  0  0
 12 13  2  0  0  0  0
 12 33  1  0  0  0  0
 13 14  1  0  0  0  0
 13 16  1  0  0  0  0
 14 15  3  0  0  0  0
 16 17  2  0  0  0  0
 17 34  1  0  0  0  0
M  END
> <s_m_source_file>
AV-unprocessed.smi

> <i_m_source_file_index>
3067

> <i_lp_mmshare_version>
43012

> <i_f3d_flags>
0

> <s_epik_input>
W0NIM11PW0NAQEhdMVtDSDJdW0NIMl1bQ0gyXVtDSDJdW0NASF0xW05IXWMyW2NIXVtjSF1jKEMjTiluW2NIXTI=

> <s_epik_cmdline>
J2VwaWtfcHl0aG9uJywgJy1waCcsICc3LjAnLCAnLXRuJywgJzgnLCAnLW1hJywgJzIwMCcsICctbWV0YWxfYmluZGluZycsICctaW1hZScsICc8aW5maWxlLm1hZT4nLCAnLW9tYWUnLCAnPG91dGZpbGUubWFlPic=

> <r_lp_tautomer_probability>
1

> <r_epik_Ionization_Penalty>
2.01011e-07

> <r_epik_Ionization_Penalty_Charging>
0

> <r_epik_Ionization_Penalty_Neutral>
2.01011e-07

> <r_epik_State_Penalty>
-0

> <r_epik_Charging_Adjusted_Penalty>
0

> <i_epik_Tot_Q>
0

> <i_epik_Tot_abs_Q>
0

> <r_epik_Metal_State_Penalty>
-0

> <b_epik_Metal_Only>
0

> <s_lp_Force_Field>
OPLS_2005

> <r_lp_Energy>
16.9027

> <b_lp_Chiralities_Consistent>
1

> <s_lp_Variant>
AV-unprocessed.smi:3067-4

> <Gold.Version>
5.8.1

> <Gold.Id.Protein>
6NUR|6NUR_protein|mol2

> <Gold.PLP.Fitness>
42.4910

> <Gold.PLP.PLP>
-35.2145

> <Gold.PLP.part.hbond>
-1.6706

> <Gold.PLP.part.metal>
0.0000

> <Gold.PLP.part.buried>
-5.6886

> <Gold.PLP.part.nonpolar>
-27.6964

> <Gold.PLP.part.repulsive>
0.2908

> <Gold.PLP.ligand.clash>
0.0000

> <Gold.PLP.ligand.torsion>
0.7853

> <Gold.PLP.Chemscore.Hbond>
1.9920

> <Gold.PLP.Chemscore.CHOScore>
0.9557

> <Gold.PLP.Chemscore.Metal>
0.0000

> <Gold.Chemscore.Hbonds>
donor molecule, donor type, donor heavy atom, donor atom, acceptor molecule, acceptor atom, score
      L1  H     9    31       P1 10747  0.88
      P1  H  6896  6909       L1    15  1.00
      L1  C    17    34       P1  7948  0.94

> <Gold.PLP.Chemscore.Internal.Correction>
0.0039

> <Gold.Rescore>
     Score         DG    S(hbond)    S(metal)    S(lipo)     H(rot)  DE(clash)    DE(int)     intcor
     17.40     -18.35       1.85        0.00      83.35       1.20       0.07       0.88       ----

> <Gold.Chemscore.Fitness>
17.4012

> <Gold.Chemscore.DG>
-18.3520

> <Gold.Chemscore.ZeroCoef>
-5.4800

> <Gold.Chemscore.Hbond>
1.8548

> <Gold.Chemscore.Metal>
0.0000

> <Gold.Chemscore.Lipo>
83.3502

> <Gold.Chemscore.Internal_Hbond>
0.0000

> <Gold.Chemscore.DEClash>
0.0727

> <Gold.Chemscore.DEInternal>
0.8781

> <Gold.Chemscore.Rot>
1.2012

> <Gold.Chemscore.Internal.Correction>
   9.000000E+99

> <Gold.Chemscore.Hbonds>
donor molecule, donor type, donor heavy atom, donor atom, acceptor molecule, acceptor atom, score
      L1  H     9    31       P1 10747  0.84
      P1  H  6896  6909       L1    15  0.96

> <Gold.Chemscore.Hbond.Weighted>
-6.1950

> <Gold.Chemscore.Metal.Weighted>
-0.0000

> <Gold.Chemscore.Lipo.Weighted>
-9.7520

> <Gold.Chemscore.Internal_Hbond.Weighted>
0.0000

> <Gold.Chemscore.DEClash.Weighted>
0.0727

> <Gold.Chemscore.DEInternal.Weighted>
0.8781

> <Gold.Chemscore.Rot.Weighted>
3.0750

> <Gold.Chemscore.Internal.Correction.Weighted>
   9.000000E+99

> <Gold.Protein.RotatedTorsions>
[ 6907 6896 6895 6894 ] final  -52.26 input  -60.11 | X-H torsion
[ 7974 7965 7964 7962 ] final -167.30 input  175.53 | X-H torsion
[ 8008 7997 7996 7995 ] final  -79.71 input   59.86 | X-H torsion
[ 10167 10162 10161 10158 ] final   -6.60 input  -65.29 | X-H torsion
[ 10718 10713 10712 10709 ] final -109.50 input   66.30 | X-H torsion
[ 10763 10752 10751 10750 ] final  151.45 input  -60.55 | X-H torsion
[ 11005 11000 10999 10996 ] final -148.35 input  -57.11 | X-H torsion

> <Gold.Protein.ActiveResidues>
 VAL166  LYS551  ARG553  GLY616  TRP617  ASP618  TYR619  PRO620  LYS621  CYS622 
 ASP623  PHE694  ASN695  SER759  ASP760  ASP761  ALA762  ILE779  LEU786  VAL792 
 PHE793  MET794  SER795  GLU796  ALA797  LYS798  CYS799  TRP800  GLU811  SER814 

> <Gold.Protein.RotatedAtoms>
  150.8534  134.7866  159.7026 H   0  0  0  0  0  0  0  0  0  0  0  0  # atno 6907 bound_to 6896
  152.4592  134.5219  159.9795 H   0  0  0  0  0  0  0  0  0  0  0  0  # atno 6908 bound_to 6896
  151.5335  133.3407  159.2958 H   0  0  0  0  0  0  0  0  0  0  0  0  # atno 6909 bound_to 6896
  144.7226  140.2539  143.6274 H   0  0  0  0  0  0  0  0  0  0  0  0  # atno 7974 bound_to 7965
  154.5811  140.0674  156.9105 H   0  0  0  0  0  0  0  0  0  0  0  0  # atno 8008 bound_to 7997
  155.2461  140.3348  155.4269 H   0  0  0  0  0  0  0  0  0  0  0  0  # atno 8009 bound_to 7997
  156.2190  140.1790  156.7507 H   0  0  0  0  0  0  0  0  0  0  0  0  # atno 8010 bound_to 7997
  140.7002  143.6176  150.8643 H   0  0  0  0  0  0  0  0  0  0  0  0  # atno 10167 bound_to 10162
  156.0540  130.5767  150.8109 H   0  0  0  0  0  0  0  0  0  0  0  0  # atno 10718 bound_to 10713
  154.1040  135.2843  155.3245 H   0  0  0  0  0  0  0  0  0  0  0  0  # atno 10763 bound_to 10752
  154.6536  135.5360  153.7935 H   0  0  0  0  0  0  0  0  0  0  0  0  # atno 10764 bound_to 10752
  153.0369  135.6516  154.1202 H   0  0  0  0  0  0  0  0  0  0  0  0  # atno 10765 bound_to 10752
  140.7621  134.3286  157.5098 H   0  0  0  0  0  0  0  0  0  0  0  0  # atno 11005 bound_to 11000
  145.8201  139.2040  143.1943 LP  0  0  0  0  0  0  0  0  0  0  0  0  # atno 17320 bound_to 7965
  146.0521  140.8058  142.9776 LP  0  0  0  0  0  0  0  0  0  0  0  0  # atno 17321 bound_to 7965
  139.9898  143.5860  152.2914 LP  0  0  0  0  0  0  0  0  0  0  0  0  # atno 17342 bound_to 10162
  139.6511  144.7660  151.2147 LP  0  0  0  0  0  0  0  0  0  0  0  0  # atno 17343 bound_to 10162
  157.5494  131.0943  150.9717 LP  0  0  0  0  0  0  0  0  0  0  0  0  # atno 17370 bound_to 10713
  156.9981  130.5589  149.5309 LP  0  0  0  0  0  0  0  0  0  0  0  0  # atno 17371 bound_to 10713
  139.8769  134.9209  156.3262 LP  0  0  0  0  0  0  0  0  0  0  0  0  # atno 17394 bound_to 11000
  140.9653  133.7362  156.0458 LP  0  0  0  0  0  0  0  0  0  0  0  0  # atno 17395 bound_to 11000

$$$$
