AV-unprocessed.smi:3058|AV-procd|sdf|11676|dock5
  -GOLD-   2272017 83D 1   1.00000     0.00000
 Structure written by MMmdl.
 39 41  0  0  0  0  0  0  0  0  2 V2000
  155.8343  140.9906  162.7915 O   0  0  0  0  0  0  0  0  0  0  0  0
  155.3252  140.0729  162.1472 C   0  0  0  0  0  0  0  0  0  0  0  0
  154.2921  140.2547  161.3085 N   0  0  0  0  0  0  0  0  0  0  0  0
  153.6666  141.5387  160.9978 C   0  0  0  0  0  0  0  0  0  0  0  0
  153.0306  141.5561  159.5930 C   0  0  0  0  0  0  0  0  0  0  0  0
  152.1872  142.7903  159.3200 C   0  0  0  0  0  0  0  0  0  0  0  0
  152.1308  143.8471  160.2563 C   0  0  0  0  0  0  0  0  0  0  0  0
  151.3079  144.9615  159.9933 C   0  0  0  0  0  0  0  0  0  0  0  0
  150.5613  144.9962  158.7979 C   0  0  0  0  0  0  0  0  0  0  0  0
  150.6438  143.9694  157.9236 N   0  3  0  0  0  0  0  0  0  0  0  0
  151.4205  142.8850  158.1383 C   0  0  0  0  0  0  0  0  0  0  0  0
  155.8792  138.6410  162.2414 C   0  0  1  0  0  0  0  0  0  0  0  0
  155.7915  138.0528  163.6720 C   0  0  0  0  0  0  0  0  0  0  0  0
  155.0155  136.7370  163.4660 C   0  0  2  0  0  0  0  0  0  0  0  0
  155.8959  135.7385  162.6902 C   0  0  0  0  0  0  0  0  0  0  0  0
  155.9033  136.3273  161.2657 C   0  0  0  0  0  0  0  0  0  0  0  0
  155.0605  137.6074  161.4264 C   0  0  1  0  0  0  0  0  0  0  0  0
  153.9916  137.1337  162.4116 C   0  0  0  0  0  0  0  0  0  0  0  0
  153.9299  139.4451  160.8252 H   0  0  0  0  0  0  0  0  0  0  0  0
  152.8994  141.7346  161.7471 H   0  0  0  0  0  0  0  0  0  0  0  0
  154.3914  142.3493  161.0909 H   0  0  0  0  0  0  0  0  0  0  0  0
  153.8137  141.4854  158.8370 H   0  0  0  0  0  0  0  0  0  0  0  0
  152.4066  140.6710  159.4641 H   0  0  0  0  0  0  0  0  0  0  0  0
  152.7001  143.7999  161.1732 H   0  0  0  0  0  0  0  0  0  0  0  0
  151.2464  145.7753  160.7009 H   0  0  0  0  0  0  0  0  0  0  0  0
  149.9047  145.8070  158.5176 H   0  0  0  0  0  0  0  0  0  0  0  0
  151.3924  142.1243  157.3718 H   0  0  0  0  0  0  0  0  0  0  0  0
  156.9160  138.6462  161.8998 H   0  0  0  0  0  0  0  0  0  0  0  0
  156.7779  137.8806  164.1043 H   0  0  0  0  0  0  0  0  0  0  0  0
  155.2490  138.7075  164.3566 H   0  0  0  0  0  0  0  0  0  0  0  0
  154.5955  136.3276  164.3853 H   0  0  0  0  0  0  0  0  0  0  0  0
  156.8981  135.6570  163.1132 H   0  0  0  0  0  0  0  0  0  0  0  0
  155.4501  134.7431  162.6905 H   0  0  0  0  0  0  0  0  0  0  0  0
  156.9111  136.5299  160.9013 H   0  0  0  0  0  0  0  0  0  0  0  0
  155.4294  135.6383  160.5654 H   0  0  0  0  0  0  0  0  0  0  0  0
  154.6709  137.9902  160.4822 H   0  0  0  0  0  0  0  0  0  0  0  0
  153.4059  136.2905  162.0405 H   0  0  0  0  0  0  0  0  0  0  0  0
  153.3077  137.9142  162.7452 H   0  0  0  0  0  0  0  0  0  0  0  0
  150.0918  144.0123  157.0665 H   0  0  0  0  0  0  0  0  0  0  0  0
  1  2  2  0  0  0  0
  2  3  1  0  0  0  0
  2 12  1  0  0  0  0
  3  4  1  0  0  0  0
  3 19  1  0  0  0  0
  4  5  1  0  0  0  0
  4 20  1  0  0  0  0
  4 21  1  0  0  0  0
  5  6  1  0  0  0  0
  5 22  1  0  0  0  0
  5 23  1  0  0  0  0
  6 11  1  0  0  0  0
  6  7  2  0  0  0  0
  7  8  1  0  0  0  0
  7 24  1  0  0  0  0
  8  9  2  0  0  0  0
  8 25  1  0  0  0  0
  9 10  1  0  0  0  0
  9 26  1  0  0  0  0
 10 11  2  0  0  0  0
 10 39  1  0  0  0  0
 11 27  1  0  0  0  0
 12 17  1  0  0  0  0
 12 13  1  0  0  0  0
 12 28  1  0  0  0  0
 13 14  1  0  0  0  0
 13 29  1  0  0  0  0
 13 30  1  0  0  0  0
 14 18  1  0  0  0  0
 14 15  1  0  0  0  0
 14 31  1  0  0  0  0
 15 16  1  0  0  0  0
 15 32  1  0  0  0  0
 15 33  1  0  0  0  0
 16 17  1  0  0  0  0
 16 34  1  0  0  0  0
 16 35  1  0  0  0  0
 17 18  1  0  0  0  0
 17 36  1  0  0  0  0
 18 37  1  0  0  0  0
 18 38  1  0  0  0  0
M  CHG  1  10   1
M  END
> <s_m_source_file>
AV-unprocessed.smi

> <i_m_source_file_index>
3058

> <i_lp_mmshare_version>
43012

> <i_f3d_flags>
0

> <s_epik_input>
W0NIMl0xW0NIMl1bQ0BIXShbQ0gyXTIpW0NAQEhdKFtDSDJdW0NAQEhdMTIpQyg9TylbTkhdW0NIMl1bQ0gyXWMzW2NIXVtjSF1bY0hdbltjSF0z

> <s_epik_cmdline>
J2VwaWtfcHl0aG9uJywgJy1waCcsICc3LjAnLCAnLXRuJywgJzgnLCAnLW1hJywgJzIwMCcsICctbWV0YWxfYmluZGluZycsICctaW1hZScsICc8aW5maWxlLm1hZT4nLCAnLW9tYWUnLCAnPG91dGZpbGUubWFlPic=

> <r_epik_Ionization_Penalty>
2.24375

> <r_epik_Ionization_Penalty_Charging>
2.24375

> <r_epik_Ionization_Penalty_Neutral>
1.89995e-08

> <r_epik_State_Penalty>
2.39035

> <r_epik_Charging_Adjusted_Penalty>
4.63411

> <i_epik_Tot_Q>
1

> <i_epik_Tot_abs_Q>
1

> <r_epik_Metal_State_Penalty>
2.40369

> <b_epik_Metal_Only>
0

> <s_lp_Force_Field>
OPLS_2005

> <r_lp_Energy>
53.8629

> <b_lp_Chiralities_Consistent>
1

> <s_lp_Variant>
AV-unprocessed.smi:3058-8

> <Gold.Version>
5.8.1

> <Gold.Id.Protein>
6NUR|6NUR_protein|mol2

> <Gold.PLP.Fitness>
47.9061

> <Gold.PLP.PLP>
-42.3998

> <Gold.PLP.part.hbond>
-2.0000

> <Gold.PLP.part.metal>
0.0000

> <Gold.PLP.part.buried>
-5.3759

> <Gold.PLP.part.nonpolar>
-34.8233

> <Gold.PLP.part.repulsive>
0.0430

> <Gold.PLP.ligand.clash>
0.0000

> <Gold.PLP.ligand.torsion>
0.2637

> <Gold.PLP.Chemscore.Hbond>
2.0000

> <Gold.PLP.Chemscore.CHOScore>
0.0000

> <Gold.PLP.Chemscore.Metal>
0.0000

> <Gold.Chemscore.Hbonds>
donor molecule, donor type, donor heavy atom, donor atom, acceptor molecule, acceptor atom, score
      L1  H    10    39       P1  8028  2.00

> <Gold.PLP.Chemscore.Internal.Correction>
0.0336

> <Gold.Rescore>
     Score         DG    S(hbond)    S(metal)    S(lipo)     H(rot)  DE(clash)    DE(int)     intcor
     17.92     -19.56       0.93        0.00     125.63       1.45       1.32       0.31       ----

> <Gold.Chemscore.Fitness>
17.9233

> <Gold.Chemscore.DG>
-19.5553

> <Gold.Chemscore.ZeroCoef>
-5.4800

> <Gold.Chemscore.Hbond>
0.9283

> <Gold.Chemscore.Metal>
0.0000

> <Gold.Chemscore.Lipo>
125.6312

> <Gold.Chemscore.Internal_Hbond>
0.0000

> <Gold.Chemscore.DEClash>
1.3180

> <Gold.Chemscore.DEInternal>
0.3139

> <Gold.Chemscore.Rot>
1.4548

> <Gold.Chemscore.Internal.Correction>
   9.000000E+99

> <Gold.Chemscore.Hbonds>
donor molecule, donor type, donor heavy atom, donor atom, acceptor molecule, acceptor atom, score
      L1  H    10    39       P1  8028  0.91

> <Gold.Chemscore.Hbond.Weighted>
-3.1007

> <Gold.Chemscore.Metal.Weighted>
-0.0000

> <Gold.Chemscore.Lipo.Weighted>
-14.6988

> <Gold.Chemscore.Internal_Hbond.Weighted>
0.0000

> <Gold.Chemscore.DEClash.Weighted>
1.3180

> <Gold.Chemscore.DEInternal.Weighted>
0.3139

> <Gold.Chemscore.Rot.Weighted>
3.7242

> <Gold.Chemscore.Internal.Correction.Weighted>
   9.000000E+99

> <Gold.Protein.RotatedTorsions>
[ 6907 6896 6895 6894 ] final  -48.77 input  -60.11 | X-H torsion
[ 7974 7965 7964 7962 ] final -131.74 input  175.53 | X-H torsion
[ 8008 7997 7996 7995 ] final   57.58 input   59.86 | X-H torsion
[ 10167 10162 10161 10158 ] final  158.19 input  -65.29 | X-H torsion
[ 10718 10713 10712 10709 ] final -134.98 input   66.30 | X-H torsion
[ 10763 10752 10751 10750 ] final  -33.01 input  -60.55 | X-H torsion
[ 11005 11000 10999 10996 ] final   81.35 input  -57.11 | X-H torsion

> <Gold.Protein.ActiveResidues>
 VAL166  LYS551  ARG553  GLY616  TRP617  ASP618  TYR619  PRO620  LYS621  CYS622 
 ASP623  PHE694  ASN695  SER759  ASP760  ASP761  ALA762  ILE779  LEU786  VAL792 
 PHE793  MET794  SER795  GLU796  ALA797  LYS798  CYS799  TRP800  GLU811  SER814 

> <Gold.Protein.RotatedAtoms>
  150.8872  134.8271  159.7267 H   0  0  0  0  0  0  0  0  0  0  0  0  # atno 6907 bound_to 6896
  152.4815  134.4704  159.9643 H   0  0  0  0  0  0  0  0  0  0  0  0  # atno 6908 bound_to 6896
  151.4771  133.3516  159.2868 H   0  0  0  0  0  0  0  0  0  0  0  0  # atno 6909 bound_to 6896
  144.9351  140.7174  143.4882 H   0  0  0  0  0  0  0  0  0  0  0  0  # atno 7974 bound_to 7965
  155.5360  140.3483  155.4436 H   0  0  0  0  0  0  0  0  0  0  0  0  # atno 8008 bound_to 7997
  156.0685  140.1357  156.9884 H   0  0  0  0  0  0  0  0  0  0  0  0  # atno 8009 bound_to 7997
  154.4515  140.0970  156.6608 H   0  0  0  0  0  0  0  0  0  0  0  0  # atno 8010 bound_to 7997
  139.4826  144.4847  151.8394 H   0  0  0  0  0  0  0  0  0  0  0  0  # atno 10167 bound_to 10162
  156.2612  130.7211  151.1146 H   0  0  0  0  0  0  0  0  0  0  0  0  # atno 10718 bound_to 10713
  153.8231  135.6872  153.4824 H   0  0  0  0  0  0  0  0  0  0  0  0  # atno 10763 bound_to 10752
  153.1557  135.4600  154.9698 H   0  0  0  0  0  0  0  0  0  0  0  0  # atno 10764 bound_to 10752
  154.7919  135.3305  154.7702 H   0  0  0  0  0  0  0  0  0  0  0  0  # atno 10765 bound_to 10752
  139.9101  134.7990  156.2030 H   0  0  0  0  0  0  0  0  0  0  0  0  # atno 11005 bound_to 11000
  145.3080  139.1828  143.4654 LP  0  0  0  0  0  0  0  0  0  0  0  0  # atno 17320 bound_to 7965
  146.3263  140.3080  142.8625 LP  0  0  0  0  0  0  0  0  0  0  0  0  # atno 17321 bound_to 7965
  140.4326  144.2095  150.5888 LP  0  0  0  0  0  0  0  0  0  0  0  0  # atno 17342 bound_to 10162
  140.4764  143.2394  151.9017 LP  0  0  0  0  0  0  0  0  0  0  0  0  # atno 17343 bound_to 10162
  157.7251  131.0655  150.5966 LP  0  0  0  0  0  0  0  0  0  0  0  0  # atno 17370 bound_to 10713
  156.6054  130.4366  149.5880 LP  0  0  0  0  0  0  0  0  0  0  0  0  # atno 17371 bound_to 10713
  141.0513  133.6887  156.1777 LP  0  0  0  0  0  0  0  0  0  0  0  0  # atno 17394 bound_to 11000
  140.6806  134.4771  157.5589 LP  0  0  0  0  0  0  0  0  0  0  0  0  # atno 17395 bound_to 11000

$$$$
