AV-unprocessed.smi:35|AV-procd|sdf|252|dock2
  -GOLD-   2262016 13D 1   1.00000     0.00000
 Structure written by MMmdl.
 29 30  0  0  0  0  0  0  0  0  1 V2000
  151.5626  136.9345  159.6106 O   0  0  0  0  0  0  0  0  0  0  0  0
  151.2706  137.5783  158.6051 C   0  0  0  0  0  0  0  0  0  0  0  0
  152.2750  138.0773  157.7702 N   0  0  0  0  0  0  0  0  0  0  0  0
  152.0687  138.8204  156.6057 C   0  0  0  0  0  0  0  0  0  0  0  0
  153.0323  139.2252  155.9571 O   0  0  0  0  0  0  0  0  0  0  0  0
  150.7297  139.0809  156.2384 N   0  0  0  0  0  0  0  0  0  0  0  0
  150.4271  139.8733  154.9851 C   0  0  1  0  0  0  0  0  0  0  0  0
  149.4444  139.1893  154.2732 O   0  0  0  0  0  0  0  0  0  0  0  0
  148.5886  140.1307  153.6433 C   0  0  1  0  0  0  0  0  0  0  0  0
  147.2359  139.4751  153.3259 C   0  0  0  0  0  0  0  0  0  0  0  0
  147.3451  138.6806  152.1643 O   0  0  0  0  0  0  0  0  0  0  0  0
  148.4965  141.2541  154.6810 C   0  0  2  0  0  0  0  0  0  0  0  0
  148.1753  142.4793  154.0528 O   0  0  0  0  0  0  0  0  0  0  0  0
  149.9007  141.2984  155.2740 C   0  0  1  0  0  0  0  0  0  0  0  0
  149.8554  141.6445  156.6471 O   0  0  0  0  0  0  0  0  0  0  0  0
  149.6983  138.6127  157.0410 C   0  0  0  0  0  0  0  0  0  0  0  0
  149.9153  137.8977  158.1693 C   0  0  0  0  0  0  0  0  0  0  0  0
  148.3094  137.3280  159.1792 Br  0  0  0  0  0  0  0  0  0  0  0  0
  153.2308  137.8869  158.0343 H   0  0  0  0  0  0  0  0  0  0  0  0
  151.3295  139.8793  154.3717 H   0  0  0  0  0  0  0  0  0  0  0  0
  149.0733  140.5009  152.7371 H   0  0  0  0  0  0  0  0  0  0  0  0
  146.8769  138.8781  154.1649 H   0  0  0  0  0  0  0  0  0  0  0  0
  146.4850  140.2404  153.1278 H   0  0  0  0  0  0  0  0  0  0  0  0
  148.0346  138.0478  152.2968 H   0  0  0  0  0  0  0  0  0  0  0  0
  147.7576  141.0045  155.4449 H   0  0  0  0  0  0  0  0  0  0  0  0
  148.5345  143.1859  154.5669 H   0  0  0  0  0  0  0  0  0  0  0  0
  150.5387  142.0033  154.7385 H   0  0  0  0  0  0  0  0  0  0  0  0
  150.7217  141.9083  156.9173 H   0  0  0  0  0  0  0  0  0  0  0  0
  148.6774  138.8330  156.7632 H   0  0  0  0  0  0  0  0  0  0  0  0
  1  2  2  0  0  0  0
  2 17  1  0  0  0  0
  2  3  1  0  0  0  0
  3 19  1  0  0  0  0
  3  4  1  0  0  0  0
  4  5  2  0  0  0  0
  4  6  1  0  0  0  0
  6  7  1  0  0  0  0
  6 16  1  0  0  0  0
  7 14  1  0  0  0  0
  7  8  1  0  0  0  0
  7 20  1  0  0  0  0
  8  9  1  0  0  0  0
  9 10  1  0  0  0  0
  9 12  1  0  0  0  0
  9 21  1  0  0  0  0
 10 11  1  0  0  0  0
 10 22  1  0  0  0  0
 10 23  1  0  0  0  0
 11 24  1  0  0  0  0
 12 13  1  0  0  0  0
 12 14  1  0  0  0  0
 12 25  1  0  0  0  0
 13 26  1  0  0  0  0
 14 15  1  0  0  0  0
 14 27  1  0  0  0  0
 15 28  1  0  0  0  0
 16 17  2  0  0  0  0
 16 29  1  0  0  0  0
 17 18  1  0  0  0  0
M  END
> <s_m_source_file>
AV-unprocessed.smi

> <i_m_source_file_index>
35

> <i_lp_mmshare_version>
43012

> <i_f3d_flags>
0

> <s_epik_input>
Tz1jMVtuSF1jKD1PKW4oW2NIXWMxQnIpW0NAQEhdMk9bQ0BASF0oW0NIMl1bT0hdKVtDQEBIXShbT0hdKVtDQEhdMltPSF0=

> <s_epik_cmdline>
J2VwaWtfcHl0aG9uJywgJy1waCcsICc3LjAnLCAnLXRuJywgJzgnLCAnLW1hJywgJzIwMCcsICctbWV0YWxfYmluZGluZycsICctaW1hZScsICc8aW5maWxlLm1hZT4nLCAnLW9tYWUnLCAnPG91dGZpbGUubWFlPic=

> <r_lp_tautomer_probability>
0.999537

> <r_epik_Ionization_Penalty>
0.10812

> <r_epik_Ionization_Penalty_Charging>
0.108119

> <r_epik_Ionization_Penalty_Neutral>
4.93006e-07

> <r_epik_State_Penalty>
0.0979238

> <r_epik_Charging_Adjusted_Penalty>
0.206043

> <i_epik_Tot_Q>
0

> <i_epik_Tot_abs_Q>
0

> <r_epik_Metal_State_Penalty>
3.07911

> <b_epik_Metal_Only>
0

> <s_epik_Chemistry_Notes>
This compound contains an acetal/aminal-like group ( X-CH(R)-Y where X, Y are N, S, or O) that may be acid/base labile, releasing an aldehyde.

> <s_lp_Force_Field>
OPLS_2005

> <r_lp_Energy>
32.4321

> <b_lp_Chiralities_Consistent>
1

> <s_lp_Variant>
AV-unprocessed.smi:35-6

> <Gold.Version>
5.8.1

> <Gold.Id.Protein>
6NUR|6NUR_protein|mol2

> <Gold.PLP.Fitness>
37.1156

> <Gold.PLP.PLP>
-25.5613

> <Gold.PLP.part.hbond>
-6.0131

> <Gold.PLP.part.metal>
0.0000

> <Gold.PLP.part.buried>
-0.3231

> <Gold.PLP.part.nonpolar>
-18.9043

> <Gold.PLP.part.repulsive>
0.2729

> <Gold.PLP.ligand.clash>
0.0000

> <Gold.PLP.ligand.torsion>
0.3910

> <Gold.PLP.Chemscore.Hbond>
4.0116

> <Gold.PLP.Chemscore.CHOScore>
0.0000

> <Gold.PLP.Chemscore.Metal>
0.0000

> <Gold.Chemscore.Hbonds>
donor molecule, donor type, donor heavy atom, donor atom, acceptor molecule, acceptor atom, score
      L1  H    11    24       P1  7948  0.94
      L1  H    13    26       P1  8028  1.00
      P1  H  6896  6908       L1     1  1.00
      P1  H  7997  8008       L1     5  1.00
      P1  H  8011  8017       L1    13  0.03

> <Gold.PLP.Chemscore.Internal.Correction>
0.3014

> <Gold.Rescore>
     Score         DG    S(hbond)    S(metal)    S(lipo)     H(rot)  DE(clash)    DE(int)     intcor
     11.56     -13.14       3.84        0.00      36.12       3.67       1.14       0.45       ----

> <Gold.Chemscore.Fitness>
11.5593

> <Gold.Chemscore.DG>
-13.1439

> <Gold.Chemscore.ZeroCoef>
-5.4800

> <Gold.Chemscore.Hbond>
3.8425

> <Gold.Chemscore.Metal>
0.0000

> <Gold.Chemscore.Lipo>
36.1150

> <Gold.Chemscore.Internal_Hbond>
0.0000

> <Gold.Chemscore.DEClash>
1.1362

> <Gold.Chemscore.DEInternal>
0.4484

> <Gold.Chemscore.Rot>
3.6701

> <Gold.Chemscore.Internal.Correction>
   9.000000E+99

> <Gold.Chemscore.Hbonds>
donor molecule, donor type, donor heavy atom, donor atom, acceptor molecule, acceptor atom, score
      L1  H    11    24       P1  7948  0.86
      L1  H    13    26       P1  8028  1.00
      P1  H  6896  6908       L1     1  0.98
      P1  H  7997  8008       L1     5  0.99

> <Gold.Chemscore.Hbond.Weighted>
-12.8339

> <Gold.Chemscore.Metal.Weighted>
-0.0000

> <Gold.Chemscore.Lipo.Weighted>
-4.2255

> <Gold.Chemscore.Internal_Hbond.Weighted>
0.0000

> <Gold.Chemscore.DEClash.Weighted>
1.1362

> <Gold.Chemscore.DEInternal.Weighted>
0.4484

> <Gold.Chemscore.Rot.Weighted>
9.3955

> <Gold.Chemscore.Internal.Correction.Weighted>
   9.000000E+99

> <Gold.Protein.RotatedTorsions>
[ 6907 6896 6895 6894 ] final -108.02 input  -60.11 | X-H torsion
[ 7974 7965 7964 7962 ] final -160.84 input  175.53 | X-H torsion
[ 8008 7997 7996 7995 ] final  -43.80 input   59.86 | X-H torsion
[ 10167 10162 10161 10158 ] final  123.17 input  -65.29 | X-H torsion
[ 10718 10713 10712 10709 ] final -110.16 input   66.30 | X-H torsion
[ 10763 10752 10751 10750 ] final   23.26 input  -60.55 | X-H torsion
[ 11005 11000 10999 10996 ] final   -6.96 input  -57.11 | X-H torsion

> <Gold.Protein.ActiveResidues>
 VAL166  LYS551  ARG553  GLY616  TRP617  ASP618  TYR619  PRO620  LYS621  CYS622 
 ASP623  PHE694  ASN695  SER759  ASP760  ASP761  ALA762  ILE779  LEU786  VAL792 
 PHE793  MET794  SER795  GLU796  ALA797  LYS798  CYS799  TRP800  GLU811  SER814 

> <Gold.Protein.RotatedAtoms>
  150.7477  133.9740  159.3554 H   0  0  0  0  0  0  0  0  0  0  0  0  # atno 6907 bound_to 6896
  151.7676  135.0792  160.0364 H   0  0  0  0  0  0  0  0  0  0  0  0  # atno 6908 bound_to 6896
  152.3361  133.5976  159.5879 H   0  0  0  0  0  0  0  0  0  0  0  0  # atno 6909 bound_to 6896
  144.7412  140.3484  143.6120 H   0  0  0  0  0  0  0  0  0  0  0  0  # atno 7974 bound_to 7965
  154.3997  140.1438  156.3579 H   0  0  0  0  0  0  0  0  0  0  0  0  # atno 8008 bound_to 7997
  155.8208  140.3469  155.5492 H   0  0  0  0  0  0  0  0  0  0  0  0  # atno 8009 bound_to 7997
  155.8289  140.0909  157.1795 H   0  0  0  0  0  0  0  0  0  0  0  0  # atno 8010 bound_to 7997
  139.5815  144.6988  151.3516 H   0  0  0  0  0  0  0  0  0  0  0  0  # atno 10167 bound_to 10162
  156.0576  130.5801  150.8199 H   0  0  0  0  0  0  0  0  0  0  0  0  # atno 10718 bound_to 10713
  153.0852  135.6631  153.9963 H   0  0  0  0  0  0  0  0  0  0  0  0  # atno 10763 bound_to 10752
  153.9574  135.2977  155.3437 H   0  0  0  0  0  0  0  0  0  0  0  0  # atno 10764 bound_to 10752
  154.7259  135.5144  153.8958 H   0  0  0  0  0  0  0  0  0  0  0  0  # atno 10765 bound_to 10752
  140.7076  133.8936  155.8727 H   0  0  0  0  0  0  0  0  0  0  0  0  # atno 11005 bound_to 11000
  145.7301  139.1734  143.2435 LP  0  0  0  0  0  0  0  0  0  0  0  0  # atno 17320 bound_to 7965
  146.1212  140.7306  142.9456 LP  0  0  0  0  0  0  0  0  0  0  0  0  # atno 17321 bound_to 7965
  140.7093  143.7433  150.7537 LP  0  0  0  0  0  0  0  0  0  0  0  0  # atno 17342 bound_to 10162
  140.0967  143.4827  152.2448 LP  0  0  0  0  0  0  0  0  0  0  0  0  # atno 17343 bound_to 10162
  157.5558  131.0945  150.9630 LP  0  0  0  0  0  0  0  0  0  0  0  0  # atno 17370 bound_to 10713
  156.9879  130.5552  149.5301 LP  0  0  0  0  0  0  0  0  0  0  0  0  # atno 17371 bound_to 10713
  141.0112  134.1018  157.4220 LP  0  0  0  0  0  0  0  0  0  0  0  0  # atno 17394 bound_to 11000
  139.8880  135.0094  156.6595 LP  0  0  0  0  0  0  0  0  0  0  0  0  # atno 17395 bound_to 11000

$$$$
