AV-unprocessed.smi:247|AV-procd|sdf|1895|dock6
  -GOLD-   2262020563D 1   1.00000     0.00000
 Structure written by MMmdl.
 61 65  0  0  0  0  0  0  0  0  1 V2000
  142.9487  132.1857  149.3134 O   0  0  0  0  0  0  0  0  0  0  0  0
  144.1864  132.8676  149.2564 C   0  0  0  0  0  0  0  0  0  0  0  0
  144.8669  133.0312  150.6442 C   0  0  0  0  0  0  0  0  0  0  0  0
  144.1849  134.2188  151.3949 C   0  0  0  0  0  0  0  0  0  0  0  0
  145.0454  135.3645  151.6559 N   0  0  0  0  0  0  0  0  0  0  0  0
  145.5591  136.2384  150.7239 C   0  0  0  0  0  0  0  0  0  0  0  0
  146.2972  137.1993  151.2074 N   0  0  0  0  0  0  0  0  0  0  0  0
  146.2740  136.9887  152.5811 C   0  0  0  0  0  0  0  0  0  0  0  0
  146.8547  137.6574  153.6966 C   0  0  0  0  0  0  0  0  0  0  0  0
  147.6190  138.7737  153.5672 N   0  0  0  0  0  0  0  0  0  0  0  0
  147.0754  139.8423  152.7347 C   0  0  0  0  0  0  0  0  0  0  0  0
  147.4720  141.1593  153.4076 C   0  0  0  0  0  0  0  0  0  0  0  0
  148.6816  140.7811  154.2551 C   0  0  0  0  0  0  0  0  0  0  0  0
  148.3403  139.3534  154.7017 C   0  0  2  0  0  0  0  0  0  0  0  0
  149.5410  138.4937  155.1913 C   0  0  1  0  0  0  0  0  0  0  0  0
  150.5980  138.2301  154.0922 C   0  0  0  0  0  0  0  0  0  0  0  0
  151.6325  137.3874  154.5885 O   0  0  0  0  0  0  0  0  0  0  0  0
  152.3595  137.9750  155.6611 C   0  0  0  0  0  0  0  0  0  0  0  0
  151.4195  138.2071  156.8525 C   0  0  0  0  0  0  0  0  0  0  0  0
  150.2343  139.0891  156.4358 C   0  0  2  0  0  0  0  0  0  0  0  0
  149.3319  139.1756  157.5210 O   0  0  0  0  0  0  0  0  0  0  0  0
  146.6091  137.1381  154.9290 N   0  0  0  0  0  0  0  0  0  0  0  0
  145.8474  136.0494  155.0666 C   0  0  0  0  0  0  0  0  0  0  0  0
  145.2406  135.3310  154.1204 N   0  0  0  0  0  0  0  0  0  0  0  0
  145.4882  135.8392  152.8793 C   0  0  0  0  0  0  0  0  0  0  0  0
  144.7639  131.7039  151.4398 C   0  0  0  0  0  0  0  0  0  0  0  0
  145.6152  131.7234  152.7220 C   0  0  0  0  0  0  0  0  0  0  0  0
  146.9733  131.9931  152.3962 O   0  0  0  0  0  0  0  0  0  0  0  0
  147.1597  133.2670  151.7909 C   0  0  0  0  0  0  0  0  0  0  0  0
  146.3749  133.3473  150.4671 C   0  0  0  0  0  0  0  0  0  0  0  0
  142.2680  132.8133  149.5025 H   0  0  0  0  0  0  0  0  0  0  0  0
  144.8405  132.3204  148.5764 H   0  0  0  0  0  0  0  0  0  0  0  0
  143.9978  133.8394  148.8006 H   0  0  0  0  0  0  0  0  0  0  0  0
  143.3190  134.5893  150.8489 H   0  0  0  0  0  0  0  0  0  0  0  0
  143.7920  133.8721  152.3518 H   0  0  0  0  0  0  0  0  0  0  0  0
  145.3725  136.1380  149.6648 H   0  0  0  0  0  0  0  0  0  0  0  0
  147.5258  139.7724  151.7440 H   0  0  0  0  0  0  0  0  0  0  0  0
  145.9927  139.7741  152.6183 H   0  0  0  0  0  0  0  0  0  0  0  0
  147.6830  141.9547  152.6923 H   0  0  0  0  0  0  0  0  0  0  0  0
  146.6631  141.4971  154.0569 H   0  0  0  0  0  0  0  0  0  0  0  0
  149.5755  140.8043  153.6331 H   0  0  0  0  0  0  0  0  0  0  0  0
  148.8356  141.4615  155.0930 H   0  0  0  0  0  0  0  0  0  0  0  0
  147.6255  139.4427  155.5213 H   0  0  0  0  0  0  0  0  0  0  0  0
  149.1541  137.5172  155.4835 H   0  0  0  0  0  0  0  0  0  0  0  0
  150.1419  137.7321  153.2365 H   0  0  0  0  0  0  0  0  0  0  0  0
  151.0377  139.1560  153.7214 H   0  0  0  0  0  0  0  0  0  0  0  0
  153.1695  137.3040  155.9475 H   0  0  0  0  0  0  0  0  0  0  0  0
  152.8190  138.9103  155.3377 H   0  0  0  0  0  0  0  0  0  0  0  0
  151.0589  137.2436  157.2159 H   0  0  0  0  0  0  0  0  0  0  0  0
  151.9656  138.6684  157.6762 H   0  0  0  0  0  0  0  0  0  0  0  0
  150.5999  140.0925  156.2141 H   0  0  0  0  0  0  0  0  0  0  0  0
  149.7600  138.8442  158.2956 H   0  0  0  0  0  0  0  0  0  0  0  0
  145.7025  135.7058  156.0801 H   0  0  0  0  0  0  0  0  0  0  0  0
  143.7281  131.4632  151.6754 H   0  0  0  0  0  0  0  0  0  0  0  0
  145.1197  130.8764  150.8251 H   0  0  0  0  0  0  0  0  0  0  0  0
  145.2463  132.4559  153.4402 H   0  0  0  0  0  0  0  0  0  0  0  0
  145.5635  130.7524  153.2145 H   0  0  0  0  0  0  0  0  0  0  0  0
  146.8708  134.0582  152.4829 H   0  0  0  0  0  0  0  0  0  0  0  0
  148.2235  133.4038  151.5964 H   0  0  0  0  0  0  0  0  0  0  0  0
  146.8309  132.6354  149.7789 H   0  0  0  0  0  0  0  0  0  0  0  0
  146.5080  134.3296  150.0127 H   0  0  0  0  0  0  0  0  0  0  0  0
  1  2  1  0  0  0  0
  1 31  1  0  0  0  0
  2  3  1  0  0  0  0
  2 32  1  0  0  0  0
  2 33  1  0  0  0  0
  3 30  1  0  0  0  0
  3  4  1  0  0  0  0
  3 26  1  0  0  0  0
  4  5  1  0  0  0  0
  4 34  1  0  0  0  0
  4 35  1  0  0  0  0
  5 25  1  0  0  0  0
  5  6  1  0  0  0  0
  6  7  2  0  0  0  0
  6 36  1  0  0  0  0
  7  8  1  0  0  0  0
  8 25  2  0  0  0  0
  8  9  1  0  0  0  0
  9 10  1  0  0  0  0
  9 22  2  0  0  0  0
 10 14  1  0  0  0  0
 10 11  1  0  0  0  0
 11 12  1  0  0  0  0
 11 37  1  0  0  0  0
 11 38  1  0  0  0  0
 12 13  1  0  0  0  0
 12 39  1  0  0  0  0
 12 40  1  0  0  0  0
 13 14  1  0  0  0  0
 13 41  1  0  0  0  0
 13 42  1  0  0  0  0
 14 15  1  0  0  0  0
 14 43  1  0  0  0  0
 15 20  1  0  0  0  0
 15 16  1  0  0  0  0
 15 44  1  0  0  0  0
 16 17  1  0  0  0  0
 16 45  1  0  0  0  0
 16 46  1  0  0  0  0
 17 18  1  0  0  0  0
 18 19  1  0  0  0  0
 18 47  1  0  0  0  0
 18 48  1  0  0  0  0
 19 20  1  0  0  0  0
 19 49  1  0  0  0  0
 19 50  1  0  0  0  0
 20 21  1  0  0  0  0
 20 51  1  0  0  0  0
 21 52  1  0  0  0  0
 22 23  1  0  0  0  0
 23 24  2  0  0  0  0
 23 53  1  0  0  0  0
 24 25  1  0  0  0  0
 26 27  1  0  0  0  0
 26 54  1  0  0  0  0
 26 55  1  0  0  0  0
 27 28  1  0  0  0  0
 27 56  1  0  0  0  0
 27 57  1  0  0  0  0
 28 29  1  0  0  0  0
 29 30  1  0  0  0  0
 29 58  1  0  0  0  0
 29 59  1  0  0  0  0
 30 60  1  0  0  0  0
 30 61  1  0  0  0  0
M  END
> <s_m_source_file>
AV-unprocessed.smi

> <i_m_source_file_index>
247

> <i_lp_mmshare_version>
43012

> <i_f3d_flags>
0

> <s_epik_input>
W0NIMl0xW0NIMl1PW0NIMl1bQ0gyXUMxKFtDSDJdW09IXSlbQ0gyXW4oW2NIXW4yKWMoYzIzKW5bY0hdbmMzTjRbQ0gyXVtDSDJdW0NIMl1bQ0BIXTRbQ0BASF01W0NIMl1PW0NIMl1bQ0gyXVtDQEhdNVtPSF0=

> <s_epik_cmdline>
J2VwaWtfcHl0aG9uJywgJy1waCcsICc3LjAnLCAnLXRuJywgJzgnLCAnLW1hJywgJzIwMCcsICctbWV0YWxfYmluZGluZycsICctaW1hZScsICc8aW5maWxlLm1hZT4nLCAnLW9tYWUnLCAnPG91dGZpbGUubWFlPic=

> <r_lp_tautomer_probability>
1

> <r_epik_Ionization_Penalty>
0.00362597

> <r_epik_Ionization_Penalty_Charging>
0

> <r_epik_Ionization_Penalty_Neutral>
0.00362597

> <r_epik_State_Penalty>
0.00241433

> <r_epik_Charging_Adjusted_Penalty>
0.00241433

> <i_epik_Tot_Q>
0

> <i_epik_Tot_abs_Q>
0

> <r_epik_Metal_State_Penalty>
-0

> <b_epik_Metal_Only>
0

> <s_lp_Force_Field>
OPLS_2005

> <r_lp_Energy>
58.878

> <b_lp_Chiralities_Consistent>
1

> <s_lp_Variant>
AV-unprocessed.smi:247-8

> <Gold.Version>
5.8.1

> <Gold.Id.Protein>
6NUR|6NUR_protein|mol2

> <Gold.PLP.Fitness>
47.3840

> <Gold.PLP.PLP>
-39.6959

> <Gold.PLP.part.hbond>
-3.5389

> <Gold.PLP.part.metal>
0.0000

> <Gold.PLP.part.buried>
-2.3632

> <Gold.PLP.part.nonpolar>
-35.9384

> <Gold.PLP.part.repulsive>
2.6243

> <Gold.PLP.ligand.clash>
0.0000

> <Gold.PLP.ligand.torsion>
1.5801

> <Gold.PLP.Chemscore.Hbond>
2.4521

> <Gold.PLP.Chemscore.CHOScore>
1.0243

> <Gold.PLP.Chemscore.Metal>
0.0000

> <Gold.Chemscore.Hbonds>
donor molecule, donor type, donor heavy atom, donor atom, acceptor molecule, acceptor atom, score
      L1  H     1    31       P1 10186  0.99
      P1  H  7954  7966       L1     7  0.15
      P1  H 10752 10764       L1    17  0.54
      P1  H 10785 10796       L1     1  0.73
      L1  C     6    36       P1  7921  1.00
      L1  C     6    36       P1 10171  0.03

> <Gold.PLP.Chemscore.Internal.Correction>
0.4190

> <Gold.Rescore>
     Score         DG    S(hbond)    S(metal)    S(lipo)     H(rot)  DE(clash)    DE(int)     intcor
      9.94     -16.27       1.81        0.00     111.30       3.23       2.85       3.48       ----

> <Gold.Chemscore.Fitness>
9.9420

> <Gold.Chemscore.DG>
-16.2708

> <Gold.Chemscore.ZeroCoef>
-5.4800

> <Gold.Chemscore.Hbond>
1.8060

> <Gold.Chemscore.Metal>
0.0000

> <Gold.Chemscore.Lipo>
111.2999

> <Gold.Chemscore.Internal_Hbond>
0.0000

> <Gold.Chemscore.DEClash>
2.8515

> <Gold.Chemscore.DEInternal>
3.4773

> <Gold.Chemscore.Rot>
3.2278

> <Gold.Chemscore.Internal.Correction>
   9.000000E+99

> <Gold.Chemscore.Hbonds>
donor molecule, donor type, donor heavy atom, donor atom, acceptor molecule, acceptor atom, score
      L1  H     1    31       P1 10186  0.92
      P1  H  7954  7966       L1     7  0.15
      P1  H 10752 10764       L1    17  0.10
      P1  H 10785 10796       L1     1  0.57

> <Gold.Chemscore.Hbond.Weighted>
-6.0320

> <Gold.Chemscore.Metal.Weighted>
-0.0000

> <Gold.Chemscore.Lipo.Weighted>
-13.0221

> <Gold.Chemscore.Internal_Hbond.Weighted>
0.0000

> <Gold.Chemscore.DEClash.Weighted>
2.8515

> <Gold.Chemscore.DEInternal.Weighted>
3.4773

> <Gold.Chemscore.Rot.Weighted>
8.2633

> <Gold.Chemscore.Internal.Correction.Weighted>
   9.000000E+99

> <Gold.Protein.RotatedTorsions>
[ 6907 6896 6895 6894 ] final -112.01 input  -60.11 | X-H torsion
[ 7974 7965 7964 7962 ] final   14.58 input  175.53 | X-H torsion
[ 8008 7997 7996 7995 ] final   84.17 input   59.86 | X-H torsion
[ 10167 10162 10161 10158 ] final   41.90 input  -65.29 | X-H torsion
[ 10718 10713 10712 10709 ] final  128.14 input   66.30 | X-H torsion
[ 10763 10752 10751 10750 ] final  -80.93 input  -60.55 | X-H torsion
[ 11005 11000 10999 10996 ] final    3.32 input  -57.11 | X-H torsion

> <Gold.Protein.ActiveResidues>
 VAL166  LYS551  ARG553  GLY616  TRP617  ASP618  TYR619  PRO620  LYS621  CYS622 
 ASP623  PHE694  ASN695  SER759  ASP760  ASP761  ALA762  ILE779  LEU786  VAL792 
 PHE793  MET794  SER795  GLU796  ALA797  LYS798  CYS799  TRP800  GLU811  SER814 

> <Gold.Protein.RotatedAtoms>
  150.7729  133.9152  159.3381 H   0  0  0  0  0  0  0  0  0  0  0  0  # atno 6907 bound_to 6896
  151.7034  135.0924  160.0264 H   0  0  0  0  0  0  0  0  0  0  0  0  # atno 6908 bound_to 6896
  152.3754  133.6436  159.6155 H   0  0  0  0  0  0  0  0  0  0  0  0  # atno 6909 bound_to 6896
  146.2301  139.9021  142.8537 H   0  0  0  0  0  0  0  0  0  0  0  0  # atno 7974 bound_to 7965
  155.9336  140.3413  155.6269 H   0  0  0  0  0  0  0  0  0  0  0  0  # atno 8008 bound_to 7997
  155.7127  140.0774  157.2383 H   0  0  0  0  0  0  0  0  0  0  0  0  # atno 8009 bound_to 7997
  154.4089  140.1620  156.2301 H   0  0  0  0  0  0  0  0  0  0  0  0  # atno 8010 bound_to 7997
  140.3597  144.2244  150.6139 H   0  0  0  0  0  0  0  0  0  0  0  0  # atno 10167 bound_to 10162
  157.5271  131.1098  150.9067 H   0  0  0  0  0  0  0  0  0  0  0  0  # atno 10718 bound_to 10713
  154.5572  135.5644  153.6975 H   0  0  0  0  0  0  0  0  0  0  0  0  # atno 10763 bound_to 10752
  153.0007  135.6265  154.2293 H   0  0  0  0  0  0  0  0  0  0  0  0  # atno 10764 bound_to 10752
  154.2230  135.2869  155.2897 H   0  0  0  0  0  0  0  0  0  0  0  0  # atno 10765 bound_to 10752
  140.5944  133.9894  155.8103 H   0  0  0  0  0  0  0  0  0  0  0  0  # atno 11005 bound_to 11000
  145.2313  140.9974  143.3989 LP  0  0  0  0  0  0  0  0  0  0  0  0  # atno 17320 bound_to 7965
  144.9528  139.4064  143.6394 LP  0  0  0  0  0  0  0  0  0  0  0  0  # atno 17321 bound_to 7965
  140.5139  143.2283  151.8493 LP  0  0  0  0  0  0  0  0  0  0  0  0  # atno 17342 bound_to 10162
  139.4815  144.4917  151.9176 LP  0  0  0  0  0  0  0  0  0  0  0  0  # atno 17343 bound_to 10162
  156.9659  130.5473  149.5288 LP  0  0  0  0  0  0  0  0  0  0  0  0  # atno 17370 bound_to 10713
  156.0395  130.5479  150.8735 LP  0  0  0  0  0  0  0  0  0  0  0  0  # atno 17371 bound_to 10713
  141.0913  133.9912  157.3232 LP  0  0  0  0  0  0  0  0  0  0  0  0  # atno 17394 bound_to 11000
  139.9260  135.0201  156.8234 LP  0  0  0  0  0  0  0  0  0  0  0  0  # atno 17395 bound_to 11000

$$$$
