AV-unprocessed.smi:283|AV-procd|sdf|2134|dock9
  -GOLD-   2262021453D 1   1.00000     0.00000
 Structure written by MMmdl.
 48 51  0  0  0  0  0  0  0  0  1 V2000
  151.4890  144.1092  157.1829 C   0  0  0  0  0  0  0  0  0  0  0  0
  151.2777  142.7331  157.8287 C   0  0  1  0  0  0  0  0  0  0  0  0
  151.6520  141.6849  156.8821 N   0  0  0  0  0  0  0  0  0  0  0  0
  151.3268  140.3887  157.0857 C   0  0  0  0  0  0  0  0  0  0  0  0
  150.9588  140.0773  158.3511 N   0  0  0  0  0  0  0  0  0  0  0  0
  150.6058  138.8267  158.6586 C   0  0  0  0  0  0  0  0  0  0  0  0
  150.5548  137.7574  157.8646 N   0  0  0  0  0  0  0  0  0  0  0  0
  150.9351  138.0553  156.5890 C   0  0  0  0  0  0  0  0  0  0  0  0
  151.3383  139.3391  156.1187 C   0  0  0  0  0  0  0  0  0  0  0  0
  151.6655  139.2487  154.7703 N   0  0  0  0  0  0  0  0  0  0  0  0
  151.4511  137.9989  154.4653 C   0  0  0  0  0  0  0  0  0  0  0  0
  151.0107  137.2079  155.5007 N   0  0  0  0  0  0  0  0  0  0  0  0
  150.6995  135.7461  155.4515 C   0  0  2  0  0  0  0  0  0  0  0  0
  149.6024  135.5506  154.6120 O   0  0  0  0  0  0  0  0  0  0  0  0
  148.7468  134.5861  155.2027 C   0  0  2  0  0  0  0  0  0  0  0  0
  147.3479  134.5298  154.5521 C   0  0  0  0  0  0  0  0  0  0  0  0
  147.3710  134.1737  153.1857 O   0  0  0  0  0  0  0  0  0  0  0  0
  148.8898  134.7751  156.7209 C   0  0  2  0  0  0  0  0  0  0  0  0
  148.0371  135.7737  157.2445 O   0  0  0  0  0  0  0  0  0  0  0  0
  150.3448  135.2176  156.8581 C   0  0  1  0  0  0  0  0  0  0  0  0
  151.1511  134.1073  157.1996 O   0  0  0  0  0  0  0  0  0  0  0  0
  151.9926  142.6657  159.1816 C   0  0  0  0  0  0  0  0  0  0  0  0
  152.9496  141.6534  159.4285 C   0  0  0  0  0  0  0  0  0  0  0  0
  153.6114  141.5775  160.6683 C   0  0  0  0  0  0  0  0  0  0  0  0
  153.3311  142.5201  161.6737 C   0  0  0  0  0  0  0  0  0  0  0  0
  152.3926  143.5406  161.4346 C   0  0  0  0  0  0  0  0  0  0  0  0
  151.7264  143.6209  160.1954 C   0  0  0  0  0  0  0  0  0  0  0  0
  150.5927  144.9042  159.9537 Cl  0  0  0  0  0  0  0  0  0  0  0  0
  151.5928  135.2887  155.0232 H   0  0  0  0  0  0  0  0  0  0  0  0
  149.2180  133.6287  154.9713 H   0  0  0  0  0  0  0  0  0  0  0  0
  148.6775  133.8485  157.2562 H   0  0  0  0  0  0  0  0  0  0  0  0
  150.4788  135.9908  157.6170 H   0  0  0  0  0  0  0  0  0  0  0  0
  151.1372  144.9084  157.8359 H   0  0  0  0  0  0  0  0  0  0  0  0
  150.9420  144.1910  156.2429 H   0  0  0  0  0  0  0  0  0  0  0  0
  152.5435  144.2916  156.9725 H   0  0  0  0  0  0  0  0  0  0  0  0
  150.2069  142.6222  157.9897 H   0  0  0  0  0  0  0  0  0  0  0  0
  152.3465  141.9586  156.2025 H   0  0  0  0  0  0  0  0  0  0  0  0
  150.3210  138.6580  159.6867 H   0  0  0  0  0  0  0  0  0  0  0  0
  151.6164  137.6158  153.4688 H   0  0  0  0  0  0  0  0  0  0  0  0
  146.7154  133.8222  155.0886 H   0  0  0  0  0  0  0  0  0  0  0  0
  146.8682  135.5053  154.6338 H   0  0  0  0  0  0  0  0  0  0  0  0
  147.8439  134.8387  152.7092 H   0  0  0  0  0  0  0  0  0  0  0  0
  148.5463  136.3376  157.8069 H   0  0  0  0  0  0  0  0  0  0  0  0
  152.0229  134.2577  156.8673 H   0  0  0  0  0  0  0  0  0  0  0  0
  153.1819  140.9231  158.6673 H   0  0  0  0  0  0  0  0  0  0  0  0
  154.3356  140.7963  160.8468 H   0  0  0  0  0  0  0  0  0  0  0  0
  153.8384  142.4636  162.6254 H   0  0  0  0  0  0  0  0  0  0  0  0
  152.1847  144.2670  162.2064 H   0  0  0  0  0  0  0  0  0  0  0  0
  1  2  1  0  0  0  0
  1 33  1  0  0  0  0
  1 34  1  0  0  0  0
  1 35  1  0  0  0  0
  2  3  1  0  0  0  0
  2 22  1  0  0  0  0
  2 36  1  0  0  0  0
  3  4  1  0  0  0  0
  3 37  1  0  0  0  0
  4  9  1  0  0  0  0
  4  5  2  0  0  0  0
  5  6  1  0  0  0  0
  6  7  2  0  0  0  0
  6 38  1  0  0  0  0
  7  8  1  0  0  0  0
  8 12  1  0  0  0  0
  8  9  2  0  0  0  0
  9 10  1  0  0  0  0
 10 11  2  0  0  0  0
 11 12  1  0  0  0  0
 11 39  1  0  0  0  0
 12 13  1  0  0  0  0
 13 29  1  0  0  0  0
 13 20  1  0  0  0  0
 13 14  1  0  0  0  0
 14 15  1  0  0  0  0
 15 30  1  0  0  0  0
 15 16  1  0  0  0  0
 15 18  1  0  0  0  0
 16 17  1  0  0  0  0
 16 40  1  0  0  0  0
 16 41  1  0  0  0  0
 17 42  1  0  0  0  0
 18 31  1  0  0  0  0
 18 19  1  0  0  0  0
 18 20  1  0  0  0  0
 19 43  1  0  0  0  0
 20 32  1  0  0  0  0
 20 21  1  0  0  0  0
 21 44  1  0  0  0  0
 22 27  1  0  0  0  0
 22 23  2  0  0  0  0
 23 24  1  0  0  0  0
 23 45  1  0  0  0  0
 24 25  2  0  0  0  0
 24 46  1  0  0  0  0
 25 26  1  0  0  0  0
 25 47  1  0  0  0  0
 26 27  2  0  0  0  0
 26 48  1  0  0  0  0
 27 28  1  0  0  0  0
M  END
> <s_m_source_file>
AV-unprocessed.smi

> <i_m_source_file_index>
283

> <i_lp_mmshare_version>
43012

> <i_f3d_flags>
0

> <s_epik_input>
Q2xjMVtjSF1bY0hdW2NIXVtjSF1jMVtDQEhdKFtDSDNdKVtOSF1jKG5bY0hdbjIpYyhjMjMpbltjSF1uM1tDQEBIXTRPW0NASF0oW0NIMl1bT0hdKVtDQEBIXShbT0hdKVtDQEhdNFtPSF0=

> <s_epik_cmdline>
J2VwaWtfcHl0aG9uJywgJy1waCcsICc3LjAnLCAnLXRuJywgJzgnLCAnLW1hJywgJzIwMCcsICctbWV0YWxfYmluZGluZycsICctaW1hZScsICc8aW5maWxlLm1hZT4nLCAnLW9tYWUnLCAnPG91dGZpbGUubWFlPic=

> <r_lp_tautomer_probability>
1

> <r_epik_Ionization_Penalty>
0.000266407

> <r_epik_Ionization_Penalty_Charging>
0

> <r_epik_Ionization_Penalty_Neutral>
0.000266407

> <r_epik_State_Penalty>
-0

> <r_epik_Charging_Adjusted_Penalty>
0

> <i_epik_Tot_Q>
0

> <i_epik_Tot_abs_Q>
0

> <r_epik_Metal_State_Penalty>
-0

> <b_epik_Metal_Only>
0

> <s_epik_Chemistry_Notes>
This compound contains an acetal/aminal-like group ( X-CH(R)-Y where X, Y are N, S, or O) that may be acid/base labile, releasing an aldehyde.

> <s_lp_Force_Field>
OPLS_2005

> <r_lp_Energy>
45.8165

> <b_lp_Chiralities_Consistent>
1

> <s_lp_Variant>
AV-unprocessed.smi:283-10

> <Gold.Version>
5.8.1

> <Gold.Id.Protein>
6NUR|6NUR_protein|mol2

> <Gold.PLP.Fitness>
53.0468

> <Gold.PLP.PLP>
-44.4478

> <Gold.PLP.part.hbond>
-3.0000

> <Gold.PLP.part.metal>
0.0000

> <Gold.PLP.part.buried>
-5.1738

> <Gold.PLP.part.nonpolar>
-38.5930

> <Gold.PLP.part.repulsive>
2.6306

> <Gold.PLP.ligand.clash>
0.3632

> <Gold.PLP.ligand.torsion>
0.2472

> <Gold.PLP.Chemscore.Hbond>
2.2841

> <Gold.PLP.Chemscore.CHOScore>
0.8454

> <Gold.PLP.Chemscore.Metal>
0.0000

> <Gold.Chemscore.Hbonds>
donor molecule, donor type, donor heavy atom, donor atom, acceptor molecule, acceptor atom, score
      L1  H    17    42       P1  7948  1.00
      P1  H  6896  6909       L1    21  0.37
      P1  H  7989  7998       L1    10  0.96
      L1  C    11    39       P1  7949  0.83

> <Gold.PLP.Chemscore.Internal.Correction>
0.0679

> <Gold.Rescore>
     Score         DG    S(hbond)    S(metal)    S(lipo)     H(rot)  DE(clash)    DE(int)     intcor
     10.10     -15.37       2.15        0.00     112.70       4.10       2.17       3.10       ----

> <Gold.Chemscore.Fitness>
10.0960

> <Gold.Chemscore.DG>
-15.3657

> <Gold.Chemscore.ZeroCoef>
-5.4800

> <Gold.Chemscore.Hbond>
2.1521

> <Gold.Chemscore.Metal>
0.0000

> <Gold.Chemscore.Lipo>
112.6960

> <Gold.Chemscore.Internal_Hbond>
0.0000

> <Gold.Chemscore.DEClash>
2.1726

> <Gold.Chemscore.DEInternal>
3.0971

> <Gold.Chemscore.Rot>
4.0968

> <Gold.Chemscore.Internal.Correction>
   9.000000E+99

> <Gold.Chemscore.Hbonds>
donor molecule, donor type, donor heavy atom, donor atom, acceptor molecule, acceptor atom, score
      L1  H    17    42       P1  7948  0.90
      P1  H  6896  6909       L1    21  0.27
      P1  H  7989  7998       L1    10  0.88

> <Gold.Chemscore.Hbond.Weighted>
-7.1882

> <Gold.Chemscore.Metal.Weighted>
-0.0000

> <Gold.Chemscore.Lipo.Weighted>
-13.1854

> <Gold.Chemscore.Internal_Hbond.Weighted>
0.0000

> <Gold.Chemscore.DEClash.Weighted>
2.1726

> <Gold.Chemscore.DEInternal.Weighted>
3.0971

> <Gold.Chemscore.Rot.Weighted>
10.4879

> <Gold.Chemscore.Internal.Correction.Weighted>
   9.000000E+99

> <Gold.Protein.RotatedTorsions>
[ 6907 6896 6895 6894 ] final  -12.05 input  -60.11 | X-H torsion
[ 7974 7965 7964 7962 ] final  -43.32 input  175.53 | X-H torsion
[ 8008 7997 7996 7995 ] final  -49.79 input   59.86 | X-H torsion
[ 10167 10162 10161 10158 ] final -149.53 input  -65.29 | X-H torsion
[ 10718 10713 10712 10709 ] final   36.61 input   66.30 | X-H torsion
[ 10763 10752 10751 10750 ] final   66.64 input  -60.55 | X-H torsion
[ 11005 11000 10999 10996 ] final   70.21 input  -57.11 | X-H torsion

> <Gold.Protein.ActiveResidues>
 VAL166  LYS551  ARG553  GLY616  TRP617  ASP618  TYR619  PRO620  LYS621  CYS622 
 ASP623  PHE694  ASN695  SER759  ASP760  ASP761  ALA762  ILE779  LEU786  VAL792 
 PHE793  MET794  SER795  GLU796  ALA797  LYS798  CYS799  TRP800  GLU811  SER814 

> <Gold.Protein.RotatedAtoms>
  151.3766  135.0932  159.9482 H   0  0  0  0  0  0  0  0  0  0  0  0  # atno 6907 bound_to 6896
  152.5120  133.9113  159.7499 H   0  0  0  0  0  0  0  0  0  0  0  0  # atno 6908 bound_to 6896
  150.9537  133.6466  159.2796 H   0  0  0  0  0  0  0  0  0  0  0  0  # atno 6909 bound_to 6896
  146.0030  140.7052  142.9261 H   0  0  0  0  0  0  0  0  0  0  0  0  # atno 7974 bound_to 7965
  154.4050  140.1288  156.4560 H   0  0  0  0  0  0  0  0  0  0  0  0  # atno 8008 bound_to 7997
  155.7319  140.3491  155.5044 H   0  0  0  0  0  0  0  0  0  0  0  0  # atno 8009 bound_to 7997
  155.9119  140.1037  157.1263 H   0  0  0  0  0  0  0  0  0  0  0  0  # atno 8010 bound_to 7997
  139.7434  143.8627  152.2568 H   0  0  0  0  0  0  0  0  0  0  0  0  # atno 10167 bound_to 10162
  157.3369  130.7527  149.6885 H   0  0  0  0  0  0  0  0  0  0  0  0  # atno 10718 bound_to 10713
  153.0149  135.5313  154.6855 H   0  0  0  0  0  0  0  0  0  0  0  0  # atno 10763 bound_to 10752
  154.6004  135.2867  155.0544 H   0  0  0  0  0  0  0  0  0  0  0  0  # atno 10764 bound_to 10752
  154.1603  135.6548  153.5037 H   0  0  0  0  0  0  0  0  0  0  0  0  # atno 10765 bound_to 10752
  139.9610  134.7061  156.0646 H   0  0  0  0  0  0  0  0  0  0  0  0  # atno 11005 bound_to 11000
  144.6926  140.3267  143.7223 LP  0  0  0  0  0  0  0  0  0  0  0  0  # atno 17320 bound_to 7965
  145.7458  139.1778  143.2350 LP  0  0  0  0  0  0  0  0  0  0  0  0  # atno 17321 bound_to 7965
  139.8584  144.7129  150.9129 LP  0  0  0  0  0  0  0  0  0  0  0  0  # atno 17342 bound_to 10162
  140.7789  143.3838  151.1429 LP  0  0  0  0  0  0  0  0  0  0  0  0  # atno 17343 bound_to 10162
  155.9702  130.4179  150.4301 LP  0  0  0  0  0  0  0  0  0  0  0  0  # atno 17370 bound_to 10713
  157.2342  131.0511  151.2474 LP  0  0  0  0  0  0  0  0  0  0  0  0  # atno 17371 bound_to 10713
  141.1287  133.6592  156.3406 LP  0  0  0  0  0  0  0  0  0  0  0  0  # atno 17394 bound_to 11000
  140.5500  134.6036  157.5405 LP  0  0  0  0  0  0  0  0  0  0  0  0  # atno 17395 bound_to 11000

$$$$
