AV-unprocessed.smi:1423|AV-procd|sdf|5796|dock5
  -GOLD-   22720 5443D 1   1.00000     0.00000
 Structure written by MMmdl.
 44 45  0  0  0  0  0  0  0  0  2 V2000
  155.0214  139.7216  159.8105 C   0  0  0  0  0  0  0  0  0  0  0  0
  154.4039  140.9822  160.0455 O   0  0  0  0  0  0  0  0  0  0  0  0
  153.3684  141.3687  159.2195 C   0  0  0  0  0  0  0  0  0  0  0  0
  152.8301  142.6615  159.3734 C   0  0  0  0  0  0  0  0  0  0  0  0
  151.7712  143.0637  158.5371 C   0  0  0  0  0  0  0  0  0  0  0  0
  151.2754  142.1523  157.5738 C   0  0  0  0  0  0  0  0  0  0  0  0
  150.2206  142.4347  156.6626 N   0  0  0  0  0  0  0  0  0  0  0  0
  149.6855  141.6399  155.7197 C   0  0  0  0  0  0  0  0  0  0  0  0
  150.0393  140.4882  155.4709 O   0  0  0  0  0  0  0  0  0  0  0  0
  148.7074  142.2699  155.0526 N   0  0  0  0  0  0  0  0  0  0  0  0
  147.9102  141.6854  153.9740 C   0  0  2  0  0  0  0  0  0  0  0  0
  146.7168  142.5823  153.5866 C   0  0  0  0  0  0  0  0  0  0  0  0
  145.6258  142.5923  154.6710 C   0  0  0  0  0  0  0  0  0  0  0  0
  145.1657  141.2117  154.9774 N   0  3  2  0  0  0  0  0  0  0  0  0
  144.0092  141.1745  155.9096 C   0  0  0  0  0  0  0  0  0  0  0  0
  143.3584  139.7903  156.0057 C   0  0  0  0  0  0  0  0  0  0  0  0
  142.8781  139.2720  154.8732 N   0  0  0  0  0  0  0  0  0  0  0  0
  143.2749  139.2019  157.0823 O   0  0  0  0  0  0  0  0  0  0  0  0
  146.2884  140.3519  155.4306 C   0  0  0  0  0  0  0  0  0  0  0  0
  147.4044  140.2875  154.3714 C   0  0  0  0  0  0  0  0  0  0  0  0
  151.8934  140.8870  157.4919 C   0  0  0  0  0  0  0  0  0  0  0  0
  152.9088  140.4953  158.2897 N   0  0  0  0  0  0  0  0  0  0  0  0
  155.8066  139.5618  160.5494 H   0  0  0  0  0  0  0  0  0  0  0  0
  155.4833  139.6827  158.8230 H   0  0  0  0  0  0  0  0  0  0  0  0
  154.3074  138.9023  159.9044 H   0  0  0  0  0  0  0  0  0  0  0  0
  153.2255  143.3354  160.1189 H   0  0  0  0  0  0  0  0  0  0  0  0
  151.3753  144.0607  158.6476 H   0  0  0  0  0  0  0  0  0  0  0  0
  149.8615  143.3772  156.7026 H   0  0  0  0  0  0  0  0  0  0  0  0
  148.4836  143.2157  155.3255 H   0  0  0  0  0  0  0  0  0  0  0  0
  148.5602  141.5722  153.1043 H   0  0  0  0  0  0  0  0  0  0  0  0
  147.0489  143.6005  153.3804 H   0  0  0  0  0  0  0  0  0  0  0  0
  146.2845  142.2153  152.6547 H   0  0  0  0  0  0  0  0  0  0  0  0
  146.0007  143.0650  155.5802 H   0  0  0  0  0  0  0  0  0  0  0  0
  144.7887  143.2000  154.3261 H   0  0  0  0  0  0  0  0  0  0  0  0
  144.3406  141.4319  156.9165 H   0  0  0  0  0  0  0  0  0  0  0  0
  143.2709  141.9249  155.6217 H   0  0  0  0  0  0  0  0  0  0  0  0
  142.4429  138.3605  154.8752 H   0  0  0  0  0  0  0  0  0  0  0  0
  142.9558  139.7932  154.0112 H   0  0  0  0  0  0  0  0  0  0  0  0
  146.6799  140.7307  156.3760 H   0  0  0  0  0  0  0  0  0  0  0  0
  145.9242  139.3419  155.6220 H   0  0  0  0  0  0  0  0  0  0  0  0
  147.0197  139.7833  153.4837 H   0  0  0  0  0  0  0  0  0  0  0  0
  148.2309  139.6738  154.7323 H   0  0  0  0  0  0  0  0  0  0  0  0
  151.5602  140.1606  156.7648 H   0  0  0  0  0  0  0  0  0  0  0  0
  144.8351  140.8127  154.1098 H   0  0  0  0  0  0  0  0  0  0  0  0
  1  2  1  0  0  0  0
  1 23  1  0  0  0  0
  1 24  1  0  0  0  0
  1 25  1  0  0  0  0
  2  3  1  0  0  0  0
  3 22  1  0  0  0  0
  3  4  2  0  0  0  0
  4  5  1  0  0  0  0
  4 26  1  0  0  0  0
  5  6  2  0  0  0  0
  5 27  1  0  0  0  0
  6  7  1  0  0  0  0
  6 21  1  0  0  0  0
  7  8  1  0  0  0  0
  7 28  1  0  0  0  0
  8  9  2  0  0  0  0
  8 10  1  0  0  0  0
 10 11  1  0  0  0  0
 10 29  1  0  0  0  0
 11 20  1  0  0  0  0
 11 12  1  0  0  0  0
 11 30  1  0  0  0  0
 12 13  1  0  0  0  0
 12 31  1  0  0  0  0
 12 32  1  0  0  0  0
 13 14  1  0  0  0  0
 13 33  1  0  0  0  0
 13 34  1  0  0  0  0
 14 15  1  0  0  0  0
 14 19  1  0  0  0  0
 14 44  1  0  0  0  0
 15 16  1  0  0  0  0
 15 35  1  0  0  0  0
 15 36  1  0  0  0  0
 16 17  1  0  0  0  0
 16 18  2  0  0  0  0
 17 37  1  0  0  0  0
 17 38  1  0  0  0  0
 19 20  1  0  0  0  0
 19 39  1  0  0  0  0
 19 40  1  0  0  0  0
 20 41  1  0  0  0  0
 20 42  1  0  0  0  0
 21 22  2  0  0  0  0
 21 43  1  0  0  0  0
M  CHG  1  14   1
M  END
> <s_m_source_file>
AV-unprocessed.smi

> <i_m_source_file_index>
1423

> <i_lp_mmshare_version>
43012

> <i_f3d_flags>
0

> <s_epik_input>
W0NIM11PYzFbY0hdW2NIXWMoW2NIXW4xKVtOSF1DKD1PKVtOSF1bQ0hdMltDSDJdW0NIMl1OKFtDSDJdW0NIMl0yKVtDSDJdQyg9TylbTkgyXQ==

> <s_epik_cmdline>
J2VwaWtfcHl0aG9uJywgJy1waCcsICc3LjAnLCAnLXRuJywgJzgnLCAnLW1hJywgJzIwMCcsICctbWV0YWxfYmluZGluZycsICctaW1hZScsICc8aW5maWxlLm1hZT4nLCAnLW9tYWUnLCAnPG91dGZpbGUubWFlPic=

> <r_lp_tautomer_probability>
1

> <r_epik_Ionization_Penalty>
0.838963

> <r_epik_Ionization_Penalty_Charging>
0.838844

> <r_epik_Ionization_Penalty_Neutral>
0.0001192

> <r_epik_State_Penalty>
0.8734

> <r_epik_Charging_Adjusted_Penalty>
1.71224

> <i_epik_Tot_Q>
1

> <i_epik_Tot_abs_Q>
1

> <r_epik_Metal_State_Penalty>
0.890706

> <b_epik_Metal_Only>
0

> <s_lp_Force_Field>
OPLS_2005

> <r_lp_Energy>
16.4792

> <b_lp_Chiralities_Consistent>
1

> <s_lp_Variant>
AV-unprocessed.smi:1423-3

> <Gold.Version>
5.8.1

> <Gold.Id.Protein>
6NUR|6NUR_protein|mol2

> <Gold.PLP.Fitness>
49.5363

> <Gold.PLP.PLP>
-33.3265

> <Gold.PLP.part.hbond>
-4.9940

> <Gold.PLP.part.metal>
0.0000

> <Gold.PLP.part.buried>
-5.4083

> <Gold.PLP.part.nonpolar>
-21.9641

> <Gold.PLP.part.repulsive>
0.3234

> <Gold.PLP.ligand.clash>
0.0000

> <Gold.PLP.ligand.torsion>
0.1837

> <Gold.PLP.Chemscore.Hbond>
5.5179

> <Gold.PLP.Chemscore.CHOScore>
0.0000

> <Gold.PLP.Chemscore.Metal>
0.0000

> <Gold.Chemscore.Hbonds>
donor molecule, donor type, donor heavy atom, donor atom, acceptor molecule, acceptor atom, score
      L1  H     7    28       P1  8028  0.86
      L1  H    10    29       P1  8028  1.00
      L1  H    14    44       P1 10175  2.00
      L1  H    17    38       P1 10175  1.00
      P1  H  7997  8008       L1    22  0.61

> <Gold.PLP.Chemscore.Internal.Correction>
0.0234

> <Gold.Rescore>
     Score         DG    S(hbond)    S(metal)    S(lipo)     H(rot)  DE(clash)    DE(int)     intcor
     17.77     -21.51       4.10        0.00      70.88       2.33       0.81       2.93       ----

> <Gold.Chemscore.Fitness>
17.7685

> <Gold.Chemscore.DG>
-21.5141

> <Gold.Chemscore.ZeroCoef>
-5.4800

> <Gold.Chemscore.Hbond>
4.1014

> <Gold.Chemscore.Metal>
0.0000

> <Gold.Chemscore.Lipo>
70.8783

> <Gold.Chemscore.Internal_Hbond>
0.0000

> <Gold.Chemscore.DEClash>
0.8118

> <Gold.Chemscore.DEInternal>
2.9338

> <Gold.Chemscore.Rot>
2.3271

> <Gold.Chemscore.Internal.Correction>
   9.000000E+99

> <Gold.Chemscore.Hbonds>
donor molecule, donor type, donor heavy atom, donor atom, acceptor molecule, acceptor atom, score
      L1  H     7    28       P1  8028  0.84
      L1  H    10    29       P1  8028  0.94
      L1  H    14    44       P1 10175  0.91
      L1  H    17    38       P1 10175  1.00
      P1  H  7997  8008       L1    22  0.18

> <Gold.Chemscore.Hbond.Weighted>
-13.6987

> <Gold.Chemscore.Metal.Weighted>
-0.0000

> <Gold.Chemscore.Lipo.Weighted>
-8.2928

> <Gold.Chemscore.Internal_Hbond.Weighted>
0.0000

> <Gold.Chemscore.DEClash.Weighted>
0.8118

> <Gold.Chemscore.DEInternal.Weighted>
2.9338

> <Gold.Chemscore.Rot.Weighted>
5.9573

> <Gold.Chemscore.Internal.Correction.Weighted>
   9.000000E+99

> <Gold.Protein.RotatedTorsions>
[ 6907 6896 6895 6894 ] final   35.44 input  -60.11 | X-H torsion
[ 7974 7965 7964 7962 ] final  149.18 input  175.53 | X-H torsion
[ 8008 7997 7996 7995 ] final  -83.33 input   59.86 | X-H torsion
[ 10167 10162 10161 10158 ] final  -89.17 input  -65.29 | X-H torsion
[ 10718 10713 10712 10709 ] final   45.75 input   66.30 | X-H torsion
[ 10763 10752 10751 10750 ] final  -54.84 input  -60.55 | X-H torsion
[ 11005 11000 10999 10996 ] final  141.39 input  -57.11 | X-H torsion

> <Gold.Protein.ActiveResidues>
 VAL166  LYS551  ARG553  GLY616  TRP617  ASP618  TYR619  PRO620  LYS621  CYS622 
 ASP623  PHE694  ASN695  SER759  ASP760  ASP761  ALA762  ILE779  LEU786  VAL792 
 PHE793  MET794  SER795  GLU796  ALA797  LYS798  CYS799  TRP800  GLU811  SER814 

> <Gold.Protein.RotatedAtoms>
  152.1161  134.9239  160.0564 H   0  0  0  0  0  0  0  0  0  0  0  0  # atno 6907 bound_to 6896
  152.0398  133.3968  159.4340 H   0  0  0  0  0  0  0  0  0  0  0  0  # atno 6908 bound_to 6896
  150.6846  134.3348  159.4886 H   0  0  0  0  0  0  0  0  0  0  0  0  # atno 6909 bound_to 6896
  144.8457  139.6248  143.5996 H   0  0  0  0  0  0  0  0  0  0  0  0  # atno 7974 bound_to 7965
  154.6179  140.0620  156.9578 H   0  0  0  0  0  0  0  0  0  0  0  0  # atno 8008 bound_to 7997
  155.1865  140.3303  155.4347 H   0  0  0  0  0  0  0  0  0  0  0  0  # atno 8009 bound_to 7997
  156.2415  140.1888  156.6958 H   0  0  0  0  0  0  0  0  0  0  0  0  # atno 8010 bound_to 7997
  140.3674  143.2811  151.9541 H   0  0  0  0  0  0  0  0  0  0  0  0  # atno 10167 bound_to 10162
  157.4408  130.8080  149.7693 H   0  0  0  0  0  0  0  0  0  0  0  0  # atno 10718 bound_to 10713
  154.1813  135.6443  153.5035 H   0  0  0  0  0  0  0  0  0  0  0  0  # atno 10763 bound_to 10752
  153.0058  135.5407  154.6511 H   0  0  0  0  0  0  0  0  0  0  0  0  # atno 10764 bound_to 10752
  154.5876  135.2931  155.0641 H   0  0  0  0  0  0  0  0  0  0  0  0  # atno 10765 bound_to 10752
  140.0398  134.9310  157.0822 H   0  0  0  0  0  0  0  0  0  0  0  0  # atno 11005 bound_to 11000
  146.2742  139.6711  142.9275 LP  0  0  0  0  0  0  0  0  0  0  0  0  # atno 17320 bound_to 7965
  145.4602  141.0432  143.2756 LP  0  0  0  0  0  0  0  0  0  0  0  0  # atno 17321 bound_to 7965
  139.4807  144.5938  151.7726 LP  0  0  0  0  0  0  0  0  0  0  0  0  # atno 17342 bound_to 10162
  140.5067  144.1087  150.5984 LP  0  0  0  0  0  0  0  0  0  0  0  0  # atno 17343 bound_to 10162
  155.9948  130.3916  150.2844 LP  0  0  0  0  0  0  0  0  0  0  0  0  # atno 17370 bound_to 10713
  157.1009  131.0195  151.3086 LP  0  0  0  0  0  0  0  0  0  0  0  0  # atno 17371 bound_to 10713
  140.4088  134.2004  155.7163 LP  0  0  0  0  0  0  0  0  0  0  0  0  # atno 17394 bound_to 11000
  141.1877  133.8276  157.1022 LP  0  0  0  0  0  0  0  0  0  0  0  0  # atno 17395 bound_to 11000

$$$$
