AV-unprocessed.smi:3199|AV-procd|sdf|12234|dock4
  -GOLD-   2272018 63D 1   1.00000     0.00000
 Structure written by MMmdl.
 36 37  0  0  0  0  0  0  0  0  2 V2000
  151.1978  145.4142  159.1666 C   0  0  0  0  0  0  0  0  0  0  0  0
  151.4475  143.9864  158.7281 C   0  0  0  0  0  0  0  0  0  0  0  0
  152.3035  143.1176  159.4384 C   0  0  0  0  0  0  0  0  0  0  0  0
  152.4942  141.8018  158.9679 C   0  0  0  0  0  0  0  0  0  0  0  0
  151.8274  141.3815  157.7963 C   0  0  0  0  0  0  0  0  0  0  0  0
  152.0199  139.9760  157.2608 C   0  0  0  0  0  0  0  0  0  0  0  0
  150.7561  139.1179  157.4041 C   0  0  0  0  0  0  0  0  0  0  0  0
  149.7288  139.5689  156.4764 N   0  0  0  0  0  0  0  0  0  0  0  0
  149.9147  139.7420  155.1602 C   0  0  0  0  0  0  0  0  0  0  0  0
  150.9912  139.5322  154.6003 O   0  0  0  0  0  0  0  0  0  0  0  0
  148.6891  140.2068  154.3637 C   0  0  1  0  0  0  0  0  0  0  0  0
  147.3845  140.3095  155.1786 C   0  0  0  0  0  0  0  0  0  0  0  0
  147.0976  141.7985  155.2134 C   0  0  0  0  0  0  0  0  0  0  0  0
  147.7483  142.2754  153.9227 C   0  0  0  0  0  0  0  0  0  0  0  0
  148.9492  141.5222  153.8784 O   0  0  0  0  0  0  0  0  0  0  0  0
  150.9805  142.2927  157.1296 C   0  0  0  0  0  0  0  0  0  0  0  0
  150.8238  143.5448  157.6128 N   0  3  0  0  0  0  0  0  0  0  0  0
  151.6890  145.6246  160.1172 H   0  0  0  0  0  0  0  0  0  0  0  0
  150.1295  145.5952  159.2887 H   0  0  0  0  0  0  0  0  0  0  0  0
  151.5837  146.1118  158.4227 H   0  0  0  0  0  0  0  0  0  0  0  0
  152.8103  143.4524  160.3321 H   0  0  0  0  0  0  0  0  0  0  0  0
  153.1467  141.1253  159.5008 H   0  0  0  0  0  0  0  0  0  0  0  0
  152.3141  140.0354  156.2118 H   0  0  0  0  0  0  0  0  0  0  0  0
  152.8524  139.5065  157.7871 H   0  0  0  0  0  0  0  0  0  0  0  0
  150.9855  138.0700  157.2036 H   0  0  0  0  0  0  0  0  0  0  0  0
  150.3767  139.1772  158.4258 H   0  0  0  0  0  0  0  0  0  0  0  0
  148.8116  139.7550  156.8555 H   0  0  0  0  0  0  0  0  0  0  0  0
  148.5307  139.5428  153.5119 H   0  0  0  0  0  0  0  0  0  0  0  0
  146.5835  139.7898  154.6515 H   0  0  0  0  0  0  0  0  0  0  0  0
  147.4405  139.8821  156.1803 H   0  0  0  0  0  0  0  0  0  0  0  0
  146.0334  142.0290  155.2672 H   0  0  0  0  0  0  0  0  0  0  0  0
  147.5926  142.2558  156.0710 H   0  0  0  0  0  0  0  0  0  0  0  0
  147.1294  142.0310  153.0578 H   0  0  0  0  0  0  0  0  0  0  0  0
  147.9442  143.3479  153.9182 H   0  0  0  0  0  0  0  0  0  0  0  0
  150.4293  142.0612  156.2296 H   0  0  0  0  0  0  0  0  0  0  0  0
  150.2081  144.1864  157.1123 H   0  0  0  0  0  0  0  0  0  0  0  0
  1  2  1  0  0  0  0
  1 18  1  0  0  0  0
  1 19  1  0  0  0  0
  1 20  1  0  0  0  0
  2 17  1  0  0  0  0
  2  3  2  0  0  0  0
  3  4  1  0  0  0  0
  3 21  1  0  0  0  0
  4  5  2  0  0  0  0
  4 22  1  0  0  0  0
  5  6  1  0  0  0  0
  5 16  1  0  0  0  0
  6  7  1  0  0  0  0
  6 23  1  0  0  0  0
  6 24  1  0  0  0  0
  7  8  1  0  0  0  0
  7 25  1  0  0  0  0
  7 26  1  0  0  0  0
  8  9  1  0  0  0  0
  8 27  1  0  0  0  0
  9 10  2  0  0  0  0
  9 11  1  0  0  0  0
 11 15  1  0  0  0  0
 11 12  1  0  0  0  0
 11 28  1  0  0  0  0
 12 13  1  0  0  0  0
 12 29  1  0  0  0  0
 12 30  1  0  0  0  0
 13 14  1  0  0  0  0
 13 31  1  0  0  0  0
 13 32  1  0  0  0  0
 14 15  1  0  0  0  0
 14 33  1  0  0  0  0
 14 34  1  0  0  0  0
 16 17  2  0  0  0  0
 16 35  1  0  0  0  0
 17 36  1  0  0  0  0
M  CHG  1  17   1
M  END
> <s_m_source_file>
AV-unprocessed.smi

> <i_m_source_file_index>
3199

> <i_lp_mmshare_version>
43012

> <i_f3d_flags>
0

> <s_epik_input>
W0NIM11jMVtjSF1bY0hdYyhbY0hdbjEpW0NIMl1bQ0gyXVtOSF1DKD1PKVtDQEBIXTJbQ0gyXVtDSDJdW0NIMl1PMg==

> <s_epik_cmdline>
J2VwaWtfcHl0aG9uJywgJy1waCcsICc3LjAnLCAnLXRuJywgJzgnLCAnLW1hJywgJzIwMCcsICctbWV0YWxfYmluZGluZycsICctaW1hZScsICc8aW5maWxlLm1hZT4nLCAnLW9tYWUnLCAnPG91dGZpbGUubWFlPic=

> <r_epik_Ionization_Penalty>
1.4683

> <r_epik_Ionization_Penalty_Charging>
1.4683

> <r_epik_Ionization_Penalty_Neutral>
5.71603e-08

> <r_epik_State_Penalty>
1.5559

> <r_epik_Charging_Adjusted_Penalty>
3.0242

> <i_epik_Tot_Q>
1

> <i_epik_Tot_abs_Q>
1

> <r_epik_Metal_State_Penalty>
1.60421

> <b_epik_Metal_Only>
0

> <s_lp_Force_Field>
OPLS_2005

> <r_lp_Energy>
24.4706

> <b_lp_Chiralities_Consistent>
1

> <s_lp_Variant>
AV-unprocessed.smi:3199-4

> <Gold.Version>
5.8.1

> <Gold.Id.Protein>
6NUR|6NUR_protein|mol2

> <Gold.PLP.Fitness>
43.2640

> <Gold.PLP.PLP>
-32.6557

> <Gold.PLP.part.hbond>
-3.0370

> <Gold.PLP.part.metal>
0.0000

> <Gold.PLP.part.buried>
-4.1932

> <Gold.PLP.part.nonpolar>
-25.3024

> <Gold.PLP.part.repulsive>
0.3106

> <Gold.PLP.ligand.clash>
0.0000

> <Gold.PLP.ligand.torsion>
0.2083

> <Gold.PLP.Chemscore.Hbond>
3.6720

> <Gold.PLP.Chemscore.CHOScore>
0.0000

> <Gold.PLP.Chemscore.Metal>
0.0000

> <Gold.Chemscore.Hbonds>
donor molecule, donor type, donor heavy atom, donor atom, acceptor molecule, acceptor atom, score
      L1  H    17    36       P1  8028  2.00
      P1  H  7989  7998       L1    10  1.00
      P1  H  8011  8017       L1    15  0.63

> <Gold.PLP.Chemscore.Internal.Correction>
0.0089

> <Gold.Rescore>
     Score         DG    S(hbond)    S(metal)    S(lipo)     H(rot)  DE(clash)    DE(int)     intcor
     18.29     -19.92       2.35        0.00      90.38       1.56       0.09       1.55       ----

> <Gold.Chemscore.Fitness>
18.2900

> <Gold.Chemscore.DG>
-19.9229

> <Gold.Chemscore.ZeroCoef>
-5.4800

> <Gold.Chemscore.Hbond>
2.3550

> <Gold.Chemscore.Metal>
0.0000

> <Gold.Chemscore.Lipo>
90.3777

> <Gold.Chemscore.Internal_Hbond>
0.0000

> <Gold.Chemscore.DEClash>
0.0868

> <Gold.Chemscore.DEInternal>
1.5461

> <Gold.Chemscore.Rot>
1.5613

> <Gold.Chemscore.Internal.Correction>
   9.000000E+99

> <Gold.Chemscore.Hbonds>
donor molecule, donor type, donor heavy atom, donor atom, acceptor molecule, acceptor atom, score
      L1  H    17    36       P1  8028  0.80
      P1  H  7989  7998       L1    10  0.94
      P1  H  8011  8017       L1    15  0.12

> <Gold.Chemscore.Hbond.Weighted>
-7.8656

> <Gold.Chemscore.Metal.Weighted>
-0.0000

> <Gold.Chemscore.Lipo.Weighted>
-10.5742

> <Gold.Chemscore.Internal_Hbond.Weighted>
0.0000

> <Gold.Chemscore.DEClash.Weighted>
0.0868

> <Gold.Chemscore.DEInternal.Weighted>
1.5461

> <Gold.Chemscore.Rot.Weighted>
3.9969

> <Gold.Chemscore.Internal.Correction.Weighted>
   9.000000E+99

> <Gold.Protein.RotatedTorsions>
[ 6907 6896 6895 6894 ] final  -57.71 input  -60.11 | X-H torsion
[ 7974 7965 7964 7962 ] final  -81.52 input  175.53 | X-H torsion
[ 8008 7997 7996 7995 ] final -163.86 input   59.86 | X-H torsion
[ 10167 10162 10161 10158 ] final   24.02 input  -65.29 | X-H torsion
[ 10718 10713 10712 10709 ] final  -22.23 input   66.30 | X-H torsion
[ 10763 10752 10751 10750 ] final   32.52 input  -60.55 | X-H torsion
[ 11005 11000 10999 10996 ] final  -24.28 input  -57.11 | X-H torsion

> <Gold.Protein.ActiveResidues>
 VAL166  LYS551  ARG553  GLY616  TRP617  ASP618  TYR619  PRO620  LYS621  CYS622 
 ASP623  PHE694  ASN695  SER759  ASP760  ASP761  ALA762  ILE779  LEU786  VAL792 
 PHE793  MET794  SER795  GLU796  ALA797  LYS798  CYS799  TRP800  GLU811  SER814 

> <Gold.Protein.RotatedAtoms>
  150.8065  134.7192  159.6648 H   0  0  0  0  0  0  0  0  0  0  0  0  # atno 6907 bound_to 6896
  152.4184  134.5997  160.0006 H   0  0  0  0  0  0  0  0  0  0  0  0  # atno 6908 bound_to 6896
  151.6219  133.3301  159.3126 H   0  0  0  0  0  0  0  0  0  0  0  0  # atno 6909 bound_to 6896
  145.5456  140.9504  143.1527 H   0  0  0  0  0  0  0  0  0  0  0  0  # atno 7974 bound_to 7965
  155.8274  140.0928  157.1813 H   0  0  0  0  0  0  0  0  0  0  0  0  # atno 8008 bound_to 7997
  154.3979  140.1425  156.3633 H   0  0  0  0  0  0  0  0  0  0  0  0  # atno 8009 bound_to 7997
  155.8202  140.3446  155.5512 H   0  0  0  0  0  0  0  0  0  0  0  0  # atno 8010 bound_to 7997
  140.5222  143.9983  150.6422 H   0  0  0  0  0  0  0  0  0  0  0  0  # atno 10167 bound_to 10162
  156.5074  130.4602  149.6667 H   0  0  0  0  0  0  0  0  0  0  0  0  # atno 10718 bound_to 10713
  153.0258  135.6411  154.1367 H   0  0  0  0  0  0  0  0  0  0  0  0  # atno 10763 bound_to 10752
  154.1096  135.2854  155.3235 H   0  0  0  0  0  0  0  0  0  0  0  0  # atno 10764 bound_to 10752
  154.6341  135.5482  153.7776 H   0  0  0  0  0  0  0  0  0  0  0  0  # atno 10765 bound_to 10752
  140.8830  133.7640  156.0326 H   0  0  0  0  0  0  0  0  0  0  0  0  # atno 11005 bound_to 11000
  144.7555  139.7085  143.7256 LP  0  0  0  0  0  0  0  0  0  0  0  0  # atno 17320 bound_to 7965
  146.1952  139.5214  142.9779 LP  0  0  0  0  0  0  0  0  0  0  0  0  # atno 17321 bound_to 7965
  140.3335  143.3063  152.0662 LP  0  0  0  0  0  0  0  0  0  0  0  0  # atno 17342 bound_to 10162
  139.4927  144.6492  151.6711 LP  0  0  0  0  0  0  0  0  0  0  0  0  # atno 17343 bound_to 10162
  156.3274  130.7313  151.2236 LP  0  0  0  0  0  0  0  0  0  0  0  0  # atno 17370 bound_to 10713
  157.7455  131.0439  150.4767 LP  0  0  0  0  0  0  0  0  0  0  0  0  # atno 17371 bound_to 10713
  140.8438  134.3035  157.5303 LP  0  0  0  0  0  0  0  0  0  0  0  0  # atno 17394 bound_to 11000
  139.8721  134.9431  156.3842 LP  0  0  0  0  0  0  0  0  0  0  0  0  # atno 17395 bound_to 11000

$$$$
