AV-unprocessed.smi:2061|AV-procd|sdf|8370|dock8
  -GOLD-   2272011 43D 1   1.00000     0.00000
 Structure written by MMmdl.
 46 47  0  0  0  0  0  0  0  0  2 V2000
  138.0674  137.6140  153.5639 C   0  0  0  0  0  0  0  0  0  0  0  0
  139.5317  137.6519  153.8373 C   0  0  0  0  0  0  0  0  0  0  0  0
  140.5543  138.4026  153.3291 C   0  0  0  0  0  0  0  0  0  0  0  0
  141.6871  137.9204  154.0369 C   0  0  0  0  0  0  0  0  0  0  0  0
  142.9783  138.4562  153.7977 N   0  0  0  0  0  0  0  0  0  0  0  0
  144.1191  138.1563  154.4416 C   0  0  0  0  0  0  0  0  0  0  0  0
  144.2275  137.3324  155.3504 O   0  0  0  0  0  0  0  0  0  0  0  0
  145.1495  138.8767  153.9757 N   0  0  0  0  0  0  0  0  0  0  0  0
  146.5156  138.7923  154.4835 C   0  0  0  0  0  0  0  0  0  0  0  0
  147.2081  140.1767  154.5954 C   0  0  2  0  0  0  0  0  0  0  0  0
  147.1865  140.8952  153.2244 C   0  0  0  0  0  0  0  0  0  0  0  0
  148.5823  140.0177  155.1736 N   0  3  1  0  0  0  0  0  0  0  0  0
  149.4227  138.9468  154.5731 C   0  0  0  0  0  0  0  0  0  0  0  0
  150.7705  138.8245  155.3088 C   0  0  1  0  0  0  0  0  0  0  0  0
  151.6937  137.7950  154.6470 C   0  0  0  0  0  0  0  0  0  0  0  0
  151.4421  140.0794  155.3014 O   0  0  0  0  0  0  0  0  0  0  0  0
  150.7029  141.1508  155.8826 C   0  0  2  0  0  0  0  0  0  0  0  0
  150.5916  141.0295  157.4128 C   0  0  0  0  0  0  0  0  0  0  0  0
  149.3431  141.2963  155.1750 C   0  0  0  0  0  0  0  0  0  0  0  0
  141.3839  136.9624  154.8994 N   0  0  0  0  0  0  0  0  0  0  0  0
  140.0009  136.7853  154.7756 O   0  0  0  0  0  0  0  0  0  0  0  0
  137.8103  138.2649  152.7281 H   0  0  0  0  0  0  0  0  0  0  0  0
  137.5036  137.9445  154.4362 H   0  0  0  0  0  0  0  0  0  0  0  0
  137.7461  136.6025  153.3155 H   0  0  0  0  0  0  0  0  0  0  0  0
  140.4969  139.1720  152.5737 H   0  0  0  0  0  0  0  0  0  0  0  0
  143.0359  139.1492  153.0662 H   0  0  0  0  0  0  0  0  0  0  0  0
  144.9774  139.5308  153.2261 H   0  0  0  0  0  0  0  0  0  0  0  0
  146.4894  138.2696  155.4389 H   0  0  0  0  0  0  0  0  0  0  0  0
  147.0835  138.1512  153.8084 H   0  0  0  0  0  0  0  0  0  0  0  0
  146.6375  140.8040  155.2820 H   0  0  0  0  0  0  0  0  0  0  0  0
  146.1751  140.9707  152.8256 H   0  0  0  0  0  0  0  0  0  0  0  0
  147.7888  140.3653  152.4857 H   0  0  0  0  0  0  0  0  0  0  0  0
  147.5518  141.9198  153.2945 H   0  0  0  0  0  0  0  0  0  0  0  0
  148.9272  137.9792  154.6434 H   0  0  0  0  0  0  0  0  0  0  0  0
  149.5825  139.1588  153.5146 H   0  0  0  0  0  0  0  0  0  0  0  0
  150.5976  138.5067  156.3373 H   0  0  0  0  0  0  0  0  0  0  0  0
  151.2344  136.8062  154.6313 H   0  0  0  0  0  0  0  0  0  0  0  0
  152.6369  137.7130  155.1875 H   0  0  0  0  0  0  0  0  0  0  0  0
  151.9233  138.0736  153.6179 H   0  0  0  0  0  0  0  0  0  0  0  0
  151.2783  142.0549  155.6808 H   0  0  0  0  0  0  0  0  0  0  0  0
  150.1427  141.9271  157.8387 H   0  0  0  0  0  0  0  0  0  0  0  0
  151.5760  140.9081  157.8653 H   0  0  0  0  0  0  0  0  0  0  0  0
  149.9752  140.1848  157.7191 H   0  0  0  0  0  0  0  0  0  0  0  0
  149.5072  141.6088  154.1424 H   0  0  0  0  0  0  0  0  0  0  0  0
  148.7792  142.0974  155.6499 H   0  0  0  0  0  0  0  0  0  0  0  0
  148.4502  139.7514  156.1389 H   0  0  0  0  0  0  0  0  0  0  0  0
  1  2  1  0  0  0  0
  1 22  1  0  0  0  0
  1 23  1  0  0  0  0
  1 24  1  0  0  0  0
  2 21  1  0  0  0  0
  2  3  2  0  0  0  0
  3  4  1  0  0  0  0
  3 25  1  0  0  0  0
  4  5  1  0  0  0  0
  4 20  2  0  0  0  0
  5  6  1  0  0  0  0
  5 26  1  0  0  0  0
  6  7  2  0  0  0  0
  6  8  1  0  0  0  0
  8  9  1  0  0  0  0
  8 27  1  0  0  0  0
  9 10  1  0  0  0  0
  9 28  1  0  0  0  0
  9 29  1  0  0  0  0
 10 11  1  0  0  0  0
 10 12  1  0  0  0  0
 10 30  1  0  0  0  0
 11 31  1  0  0  0  0
 11 32  1  0  0  0  0
 11 33  1  0  0  0  0
 12 19  1  0  0  0  0
 12 13  1  0  0  0  0
 12 46  1  0  0  0  0
 13 14  1  0  0  0  0
 13 34  1  0  0  0  0
 13 35  1  0  0  0  0
 14 15  1  0  0  0  0
 14 16  1  0  0  0  0
 14 36  1  0  0  0  0
 15 37  1  0  0  0  0
 15 38  1  0  0  0  0
 15 39  1  0  0  0  0
 16 17  1  0  0  0  0
 17 18  1  0  0  0  0
 17 19  1  0  0  0  0
 17 40  1  0  0  0  0
 18 41  1  0  0  0  0
 18 42  1  0  0  0  0
 18 43  1  0  0  0  0
 19 44  1  0  0  0  0
 19 45  1  0  0  0  0
 20 21  1  0  0  0  0
M  CHG  1  12   1
M  END
> <s_m_source_file>
AV-unprocessed.smi

> <i_m_source_file_index>
2061

> <i_lp_mmshare_version>
43012

> <i_f3d_flags>
0

> <s_epik_input>
W0NIM11jMVtjSF1jKG5vMSlbTkhdQyg9TylbTkhdW0NIMl1bQ0BIXShbQ0gzXSlOMltDSDJdW0NAQEhdKFtDSDNdKU9bQ0BASF0oW0NIM10pW0NIMl0y

> <s_epik_cmdline>
J2VwaWtfcHl0aG9uJywgJy1waCcsICc3LjAnLCAnLXRuJywgJzgnLCAnLW1hJywgJzIwMCcsICctbWV0YWxfYmluZGluZycsICctaW1hZScsICc8aW5maWxlLm1hZT4nLCAnLW9tYWUnLCAnPG91dGZpbGUubWFlPic=

> <r_epik_Ionization_Penalty>
0.707076

> <r_epik_Ionization_Penalty_Charging>
0.707039

> <r_epik_Ionization_Penalty_Neutral>
3.6548e-05

> <r_epik_State_Penalty>
0.730276

> <r_epik_Charging_Adjusted_Penalty>
1.43732

> <i_epik_Tot_Q>
1

> <i_epik_Tot_abs_Q>
1

> <r_epik_Metal_State_Penalty>
0.743132

> <b_epik_Metal_Only>
0

> <s_lp_Force_Field>
OPLS_2005

> <r_lp_Energy>
19.8294

> <b_lp_Chiralities_Consistent>
1

> <s_lp_Variant>
AV-unprocessed.smi:2061-11

> <Gold.Version>
5.8.1

> <Gold.Id.Protein>
6NUR|6NUR_protein|mol2

> <Gold.PLP.Fitness>
46.3783

> <Gold.PLP.PLP>
-35.0626

> <Gold.PLP.part.hbond>
-4.2300

> <Gold.PLP.part.metal>
0.0000

> <Gold.PLP.part.buried>
-6.9351

> <Gold.PLP.part.nonpolar>
-24.7739

> <Gold.PLP.part.repulsive>
0.1511

> <Gold.PLP.ligand.clash>
0.0000

> <Gold.PLP.ligand.torsion>
0.2810

> <Gold.PLP.Chemscore.Hbond>
3.9440

> <Gold.PLP.Chemscore.CHOScore>
0.0000

> <Gold.PLP.Chemscore.Metal>
0.0000

> <Gold.Chemscore.Hbonds>
donor molecule, donor type, donor heavy atom, donor atom, acceptor molecule, acceptor atom, score
      L1  H     5    26       P1 10175  1.00
      L1  H     8    27       P1 10175  0.83
      P1  H  7989  7998       L1    16  0.85
      P1  H 11000 11005       L1    21  0.11

> <Gold.PLP.Chemscore.Internal.Correction>
0.0458

> <Gold.Rescore>
     Score         DG    S(hbond)    S(metal)    S(lipo)     H(rot)  DE(clash)    DE(int)     intcor
     19.10     -20.86       3.09        0.00      77.83       1.58       0.08       1.68       ----

> <Gold.Chemscore.Fitness>
19.1002

> <Gold.Chemscore.DG>
-20.8561

> <Gold.Chemscore.ZeroCoef>
-5.4800

> <Gold.Chemscore.Hbond>
3.0909

> <Gold.Chemscore.Metal>
0.0000

> <Gold.Chemscore.Lipo>
77.8278

> <Gold.Chemscore.Internal_Hbond>
0.0000

> <Gold.Chemscore.DEClash>
0.0761

> <Gold.Chemscore.DEInternal>
1.6798

> <Gold.Chemscore.Rot>
1.5834

> <Gold.Chemscore.Internal.Correction>
   9.000000E+99

> <Gold.Chemscore.Hbonds>
donor molecule, donor type, donor heavy atom, donor atom, acceptor molecule, acceptor atom, score
      L1  H     5    26       P1 10175  0.90
      L1  H     8    27       P1 10175  0.83
      P1  H  7989  7998       L1    16  0.12
      P1  H 11000 11005       L1    21  0.01

> <Gold.Chemscore.Hbond.Weighted>
-10.3237

> <Gold.Chemscore.Metal.Weighted>
-0.0000

> <Gold.Chemscore.Lipo.Weighted>
-9.1059

> <Gold.Chemscore.Internal_Hbond.Weighted>
0.0000

> <Gold.Chemscore.DEClash.Weighted>
0.0761

> <Gold.Chemscore.DEInternal.Weighted>
1.6798

> <Gold.Chemscore.Rot.Weighted>
4.0535

> <Gold.Chemscore.Internal.Correction.Weighted>
   9.000000E+99

> <Gold.Protein.RotatedTorsions>
[ 6907 6896 6895 6894 ] final  -45.49 input  -60.11 | X-H torsion
[ 7974 7965 7964 7962 ] final  -14.48 input  175.53 | X-H torsion
[ 8008 7997 7996 7995 ] final  -24.53 input   59.86 | X-H torsion
[ 10167 10162 10161 10158 ] final -110.35 input  -65.29 | X-H torsion
[ 10718 10713 10712 10709 ] final   91.98 input   66.30 | X-H torsion
[ 10763 10752 10751 10750 ] final  159.44 input  -60.55 | X-H torsion
[ 11005 11000 10999 10996 ] final   74.86 input  -57.11 | X-H torsion

> <Gold.Protein.ActiveResidues>
 VAL166  LYS551  ARG553  GLY616  TRP617  ASP618  TYR619  PRO620  LYS621  CYS622 
 ASP623  PHE694  ASN695  SER759  ASP760  ASP761  ALA762  ILE779  LEU786  VAL792 
 PHE793  MET794  SER795  GLU796  ALA797  LYS798  CYS799  TRP800  GLU811  SER814 

> <Gold.Protein.RotatedAtoms>
  150.9214  134.8631  159.7491 H   0  0  0  0  0  0  0  0  0  0  0  0  # atno 6907 bound_to 6896
  152.4994  134.4213  159.9491 H   0  0  0  0  0  0  0  0  0  0  0  0  # atno 6908 bound_to 6896
  151.4246  133.3648  159.2796 H   0  0  0  0  0  0  0  0  0  0  0  0  # atno 6909 bound_to 6896
  146.2072  140.3354  142.8403 H   0  0  0  0  0  0  0  0  0  0  0  0  # atno 7974 bound_to 7965
  154.4524  140.1951  156.0479 H   0  0  0  0  0  0  0  0  0  0  0  0  # atno 8008 bound_to 7997
  156.0676  140.3288  155.7509 H   0  0  0  0  0  0  0  0  0  0  0  0  # atno 8009 bound_to 7997
  155.5314  140.0578  157.2879 H   0  0  0  0  0  0  0  0  0  0  0  0  # atno 8010 bound_to 7997
  140.1454  143.4244  152.1533 H   0  0  0  0  0  0  0  0  0  0  0  0  # atno 10167 bound_to 10162
  157.6959  131.0427  150.3812 H   0  0  0  0  0  0  0  0  0  0  0  0  # atno 10718 bound_to 10713
  154.2318  135.2778  155.2887 H   0  0  0  0  0  0  0  0  0  0  0  0  # atno 10763 bound_to 10752
  154.5617  135.5645  153.7017 H   0  0  0  0  0  0  0  0  0  0  0  0  # atno 10764 bound_to 10752
  153.0018  135.6299  154.2460 H   0  0  0  0  0  0  0  0  0  0  0  0  # atno 10765 bound_to 10752
  139.9371  134.7469  156.1200 H   0  0  0  0  0  0  0  0  0  0  0  0  # atno 11005 bound_to 11000
  144.8823  140.7416  143.5979 LP  0  0  0  0  0  0  0  0  0  0  0  0  # atno 17320 bound_to 7965
  145.3274  139.1770  143.4555 LP  0  0  0  0  0  0  0  0  0  0  0  0  # atno 17321 bound_to 7965
  139.5452  144.7292  151.4607 LP  0  0  0  0  0  0  0  0  0  0  0  0  # atno 17342 bound_to 10162
  140.6735  143.8241  150.7029 LP  0  0  0  0  0  0  0  0  0  0  0  0  # atno 17343 bound_to 10162
  156.4226  130.3956  149.6815 LP  0  0  0  0  0  0  0  0  0  0  0  0  # atno 17370 bound_to 10713
  156.4060  130.7698  151.2709 LP  0  0  0  0  0  0  0  0  0  0  0  0  # atno 17371 bound_to 10713
  141.0989  133.6685  156.2709 LP  0  0  0  0  0  0  0  0  0  0  0  0  # atno 17394 bound_to 11000
  140.6048  134.5518  157.5524 LP  0  0  0  0  0  0  0  0  0  0  0  0  # atno 17395 bound_to 11000

$$$$
