AV-unprocessed.smi:2553|AV-procd|sdf|10018|dock10
  -GOLD-   2272014 63D 1   1.00000     0.00000
 Structure written by MMmdl.
 28 29  0  0  0  0  0  0  0  0  2 V2000
  150.4176  135.5039  155.3669 O   0  0  0  0  0  0  0  0  0  0  0  0
  150.6756  136.7015  155.4800 C   0  0  0  0  0  0  0  0  0  0  0  0
  151.9492  137.1897  155.4182 N   0  5  0  0  0  0  0  0  0  0  0  0
  152.2561  138.5180  155.5397 C   0  0  0  0  0  0  0  0  0  0  0  0
  153.4146  138.9329  155.4956 O   0  0  0  0  0  0  0  0  0  0  0  0
  151.2404  139.4133  155.7196 N   0  0  0  0  0  0  0  0  0  0  0  0
  151.4776  140.8550  155.8758 C   0  0  0  0  0  0  0  0  0  0  0  0
  151.2233  141.3125  157.3203 C   0  0  0  0  0  0  0  0  0  0  0  0
  152.2440  140.7746  158.1501 O   0  0  0  0  0  0  0  0  0  0  0  0
  152.4852  141.3668  159.3706 C   0  0  0  0  0  0  0  0  0  0  0  0
  151.9321  142.6101  159.7691 C   0  0  0  0  0  0  0  0  0  0  0  0
  152.2243  143.1471  161.0379 C   0  0  0  0  0  0  0  0  0  0  0  0
  153.0697  142.4520  161.9217 C   0  0  0  0  0  0  0  0  0  0  0  0
  153.3493  142.9694  163.1414 F   0  0  0  0  0  0  0  0  0  0  0  0
  153.6230  141.2175  161.5359 C   0  0  0  0  0  0  0  0  0  0  0  0
  153.3324  140.6781  160.2674 C   0  0  0  0  0  0  0  0  0  0  0  0
  154.0266  139.1624  159.8140 Cl  0  0  0  0  0  0  0  0  0  0  0  0
  149.9119  138.9625  155.7985 C   0  0  0  0  0  0  0  0  0  0  0  0
  149.5912  137.6588  155.6901 C   0  0  0  0  0  0  0  0  0  0  0  0
  147.9493  137.1336  155.8041 Cl  0  0  0  0  0  0  0  0  0  0  0  0
  152.4989  141.1053  155.5849 H   0  0  0  0  0  0  0  0  0  0  0  0
  150.8423  141.4207  155.1928 H   0  0  0  0  0  0  0  0  0  0  0  0
  151.2112  142.4023  157.3737 H   0  0  0  0  0  0  0  0  0  0  0  0
  150.2494  140.9476  157.6491 H   0  0  0  0  0  0  0  0  0  0  0  0
  151.2773  143.1706  159.1196 H   0  0  0  0  0  0  0  0  0  0  0  0
  151.7977  144.0943  161.3331 H   0  0  0  0  0  0  0  0  0  0  0  0
  154.2719  140.6836  162.2144 H   0  0  0  0  0  0  0  0  0  0  0  0
  149.1763  139.7364  155.9634 H   0  0  0  0  0  0  0  0  0  0  0  0
  1  2  2  0  0  0  0
  2 19  1  0  0  0  0
  2  3  1  0  0  0  0
  3  4  1  0  0  0  0
  4  5  2  0  0  0  0
  4  6  1  0  0  0  0
  6  7  1  0  0  0  0
  6 18  1  0  0  0  0
  7  8  1  0  0  0  0
  7 21  1  0  0  0  0
  7 22  1  0  0  0  0
  8  9  1  0  0  0  0
  8 23  1  0  0  0  0
  8 24  1  0  0  0  0
  9 10  1  0  0  0  0
 10 16  1  0  0  0  0
 10 11  2  0  0  0  0
 11 12  1  0  0  0  0
 11 25  1  0  0  0  0
 12 13  2  0  0  0  0
 12 26  1  0  0  0  0
 13 14  1  0  0  0  0
 13 15  1  0  0  0  0
 15 16  2  0  0  0  0
 15 27  1  0  0  0  0
 16 17  1  0  0  0  0
 18 19  2  0  0  0  0
 18 28  1  0  0  0  0
 19 20  1  0  0  0  0
M  CHG  1   3  -1
M  END
> <s_m_source_file>
AV-unprocessed.smi

> <i_m_source_file_index>
2553

> <i_lp_mmshare_version>
43012

> <i_f3d_flags>
0

> <s_epik_input>
Tz1jMVtuSF1jKD1PKW4oW2NIXWMxQ2wpW0NIMl1bQ0gyXU9jMltjSF1bY0hdYyhGKVtjSF1jMkNs

> <s_epik_cmdline>
J2VwaWtfcHl0aG9uJywgJy1waCcsICc3LjAnLCAnLXRuJywgJzgnLCAnLW1hJywgJzIwMCcsICctbWV0YWxfYmluZGluZycsICctaW1hZScsICc8aW5maWxlLm1hZT4nLCAnLW9tYWUnLCAnPG91dGZpbGUubWFlPic=

> <r_lp_tautomer_probability>
1

> <r_epik_Ionization_Penalty>
1.51646

> <r_epik_Ionization_Penalty_Charging>
6.90068e-09

> <r_epik_Ionization_Penalty_Neutral>
1.51646

> <r_epik_State_Penalty>
1.60792

> <r_epik_Charging_Adjusted_Penalty>
1.60792

> <i_epik_Tot_Q>
-1

> <i_epik_Tot_abs_Q>
1

> <r_epik_Metal_State_Penalty>
0.00828827

> <b_epik_Metal_Only>
0

> <s_lp_Force_Field>
OPLS_2005

> <r_lp_Energy>
21.8883

> <b_lp_Chiralities_Consistent>
1

> <s_lp_Variant>
AV-unprocessed.smi:2553-2

> <Gold.Version>
5.8.1

> <Gold.Id.Protein>
6NUR|6NUR_protein|mol2

> <Gold.PLP.Fitness>
47.6072

> <Gold.PLP.PLP>
-39.7808

> <Gold.PLP.part.hbond>
-2.0000

> <Gold.PLP.part.metal>
0.0000

> <Gold.PLP.part.buried>
-5.9411

> <Gold.PLP.part.nonpolar>
-31.8986

> <Gold.PLP.part.repulsive>
0.1596

> <Gold.PLP.ligand.clash>
0.0000

> <Gold.PLP.ligand.torsion>
0.3401

> <Gold.PLP.Chemscore.Hbond>
2.8320

> <Gold.PLP.Chemscore.CHOScore>
0.0000

> <Gold.PLP.Chemscore.Metal>
0.0000

> <Gold.Chemscore.Hbonds>
donor molecule, donor type, donor heavy atom, donor atom, acceptor molecule, acceptor atom, score
      P1  H  7997  8010       L1     5  0.93
      P1  H 10752 10765       L1     3  1.90

> <Gold.PLP.Chemscore.Internal.Correction>
0.0105

> <Gold.Rescore>
     Score         DG    S(hbond)    S(metal)    S(lipo)     H(rot)  DE(clash)    DE(int)     intcor
     15.38     -15.72       1.51        0.00      85.49       1.88       0.05       0.28       ----

> <Gold.Chemscore.Fitness>
15.3810

> <Gold.Chemscore.DG>
-15.7152

> <Gold.Chemscore.ZeroCoef>
-5.4800

> <Gold.Chemscore.Hbond>
1.5116

> <Gold.Chemscore.Metal>
0.0000

> <Gold.Chemscore.Lipo>
85.4931

> <Gold.Chemscore.Internal_Hbond>
0.0000

> <Gold.Chemscore.DEClash>
0.0525

> <Gold.Chemscore.DEInternal>
0.2818

> <Gold.Chemscore.Rot>
1.8814

> <Gold.Chemscore.Internal.Correction>
   9.000000E+99

> <Gold.Chemscore.Hbonds>
donor molecule, donor type, donor heavy atom, donor atom, acceptor molecule, acceptor atom, score
      P1  H  7997  8010       L1     5  0.90
      P1  H 10752 10765       L1     3  0.34

> <Gold.Chemscore.Hbond.Weighted>
-5.0488

> <Gold.Chemscore.Metal.Weighted>
-0.0000

> <Gold.Chemscore.Lipo.Weighted>
-10.0027

> <Gold.Chemscore.Internal_Hbond.Weighted>
0.0000

> <Gold.Chemscore.DEClash.Weighted>
0.0525

> <Gold.Chemscore.DEInternal.Weighted>
0.2818

> <Gold.Chemscore.Rot.Weighted>
4.8163

> <Gold.Chemscore.Internal.Correction.Weighted>
   9.000000E+99

> <Gold.Protein.RotatedTorsions>
[ 6907 6896 6895 6894 ] final  118.55 input  -60.11 | X-H torsion
[ 7974 7965 7964 7962 ] final  -24.37 input  175.53 | X-H torsion
[ 8008 7997 7996 7995 ] final   80.77 input   59.86 | X-H torsion
[ 10167 10162 10161 10158 ] final   43.31 input  -65.29 | X-H torsion
[ 10718 10713 10712 10709 ] final   93.35 input   66.30 | X-H torsion
[ 10763 10752 10751 10750 ] final -167.97 input  -60.55 | X-H torsion
[ 11005 11000 10999 10996 ] final  125.78 input  -57.11 | X-H torsion

> <Gold.Protein.ActiveResidues>
 VAL166  LYS551  ARG553  GLY616  TRP617  ASP618  TYR619  PRO620  LYS621  CYS622 
 ASP623  PHE694  ASN695  SER759  ASP760  ASP761  ALA762  ILE779  LEU786  VAL792 
 PHE793  MET794  SER795  GLU796  ALA797  LYS798  CYS799  TRP800  GLU811  SER814 

> <Gold.Protein.RotatedAtoms>
  152.4535  133.7676  159.6780 H   0  0  0  0  0  0  0  0  0  0  0  0  # atno 6907 bound_to 6896
  150.8454  133.7860  159.3051 H   0  0  0  0  0  0  0  0  0  0  0  0  # atno 6908 bound_to 6896
  151.5472  135.1070  159.9992 H   0  0  0  0  0  0  0  0  0  0  0  0  # atno 6909 bound_to 6896
  146.1559  140.4743  142.8592 H   0  0  0  0  0  0  0  0  0  0  0  0  # atno 7974 bound_to 7965
  155.8880  140.3440  155.5935 H   0  0  0  0  0  0  0  0  0  0  0  0  # atno 8008 bound_to 7997
  155.7643  140.0837  157.2158 H   0  0  0  0  0  0  0  0  0  0  0  0  # atno 8009 bound_to 7997
  154.4030  140.1530  156.2856 H   0  0  0  0  0  0  0  0  0  0  0  0  # atno 8010 bound_to 7997
  140.3457  144.2414  150.6151 H   0  0  0  0  0  0  0  0  0  0  0  0  # atno 10167 bound_to 10162
  157.6955  131.0475  150.4020 H   0  0  0  0  0  0  0  0  0  0  0  0  # atno 10718 bound_to 10713
  154.6677  135.2934  154.9784 H   0  0  0  0  0  0  0  0  0  0  0  0  # atno 10763 bound_to 10752
  154.0821  135.6603  153.4843 H   0  0  0  0  0  0  0  0  0  0  0  0  # atno 10764 bound_to 10752
  153.0467  135.5200  154.7658 H   0  0  0  0  0  0  0  0  0  0  0  0  # atno 10765 bound_to 10752
  139.9423  134.9634  156.8609 H   0  0  0  0  0  0  0  0  0  0  0  0  # atno 11005 bound_to 11000
  144.7962  140.6127  143.6508 LP  0  0  0  0  0  0  0  0  0  0  0  0  # atno 17320 bound_to 7965
  145.4710  139.1503  143.3814 LP  0  0  0  0  0  0  0  0  0  0  0  0  # atno 17321 bound_to 7965
  140.5267  143.2253  151.8303 LP  0  0  0  0  0  0  0  0  0  0  0  0  # atno 17342 bound_to 10162
  139.4834  144.4771  151.9354 LP  0  0  0  0  0  0  0  0  0  0  0  0  # atno 17343 bound_to 10162
  156.4413  130.3992  149.6695 LP  0  0  0  0  0  0  0  0  0  0  0  0  # atno 17370 bound_to 10713
  156.3878  130.7612  151.2610 LP  0  0  0  0  0  0  0  0  0  0  0  0  # atno 17371 bound_to 10713
  140.5920  134.0253  155.7503 LP  0  0  0  0  0  0  0  0  0  0  0  0  # atno 17394 bound_to 11000
  141.1062  133.9689  157.2992 LP  0  0  0  0  0  0  0  0  0  0  0  0  # atno 17395 bound_to 11000

$$$$
