AV-unprocessed.smi:1817|AV-procd|sdf|7374|dock6
  -GOLD-   22720 9 43D 1   1.00000     0.00000
 Structure written by MMmdl.
 42 43  0  0  0  0  0  0  0  0  3 V2000
  146.7254  139.2222  152.1136 C   0  0  0  0  0  0  0  0  0  0  0  0
  147.0339  140.3803  153.0733 C   0  0  0  0  0  0  0  0  0  0  0  0
  148.4084  140.3101  153.6276 N   0  3  0  0  0  0  0  0  0  0  0  0
  148.7135  138.9815  154.2118 C   0  0  0  0  0  0  0  0  0  0  0  0
  150.1661  138.9434  154.7289 C   0  0  0  0  0  0  0  0  0  0  0  0
  150.3966  139.9544  155.7704 N   0  0  0  0  0  0  0  0  0  0  0  0
  149.6729  139.7468  157.0455 C   0  0  2  0  0  0  0  0  0  0  0  0
  150.1698  140.7548  158.1096 C   0  0  0  0  0  0  0  0  0  0  0  0
  149.8261  138.2929  157.5617 C   0  0  0  0  0  0  0  0  0  0  0  0
  149.2595  138.1296  158.8954 N   0  0  0  0  0  0  0  0  0  0  0  0
  148.3359  137.2223  159.2379 C   0  0  0  0  0  0  0  0  0  0  0  0
  147.9077  136.4332  158.3926 O   0  0  0  0  0  0  0  0  0  0  0  0
  147.9653  137.2879  160.5364 N   0  5  0  0  0  0  0  0  0  0  0  0
  147.3485  136.2427  161.1122 C   0  0  0  0  0  0  0  0  0  0  0  0
  146.5828  135.3886  160.4142 N   0  0  0  0  0  0  0  0  0  0  0  0
  146.0338  134.3821  161.1973 N   0  0  0  0  0  0  0  0  0  0  0  0
  146.3951  134.5083  162.4739 C   0  0  0  0  0  0  0  0  0  0  0  0
  147.4349  135.8697  162.8363 S   0  0  0  0  0  0  0  0  0  0  0  0
  150.1596  141.2564  155.1295 C   0  0  0  0  0  0  0  0  0  0  0  0
  148.7139  141.3895  154.6013 C   0  0  0  0  0  0  0  0  0  0  0  0
  145.6824  139.2548  151.7976 H   0  0  0  0  0  0  0  0  0  0  0  0
  146.8937  138.2575  152.5935 H   0  0  0  0  0  0  0  0  0  0  0  0
  147.3367  139.2629  151.2124 H   0  0  0  0  0  0  0  0  0  0  0  0
  146.8769  141.3412  152.5809 H   0  0  0  0  0  0  0  0  0  0  0  0
  146.3173  140.3337  153.8944 H   0  0  0  0  0  0  0  0  0  0  0  0
  148.0038  138.7432  155.0053 H   0  0  0  0  0  0  0  0  0  0  0  0
  148.5895  138.2160  153.4451 H   0  0  0  0  0  0  0  0  0  0  0  0
  150.4316  137.9460  155.0737 H   0  0  0  0  0  0  0  0  0  0  0  0
  150.8472  139.1369  153.8988 H   0  0  0  0  0  0  0  0  0  0  0  0
  148.6087  139.9215  156.8933 H   0  0  0  0  0  0  0  0  0  0  0  0
  149.7227  140.5711  159.0862 H   0  0  0  0  0  0  0  0  0  0  0  0
  149.9077  141.7824  157.8626 H   0  0  0  0  0  0  0  0  0  0  0  0
  151.2521  140.6998  158.2325 H   0  0  0  0  0  0  0  0  0  0  0  0
  149.2963  137.5900  156.9197 H   0  0  0  0  0  0  0  0  0  0  0  0
  150.8769  137.9992  157.5747 H   0  0  0  0  0  0  0  0  0  0  0  0
  149.5886  138.7550  159.6161 H   0  0  0  0  0  0  0  0  0  0  0  0
  146.0439  133.7980  163.2072 H   0  0  0  0  0  0  0  0  0  0  0  0
  150.3990  142.0799  155.7996 H   0  0  0  0  0  0  0  0  0  0  0  0
  150.8556  141.3641  154.2964 H   0  0  0  0  0  0  0  0  0  0  0  0
  148.6124  142.3597  154.1161 H   0  0  0  0  0  0  0  0  0  0  0  0
  147.9924  141.3785  155.4188 H   0  0  0  0  0  0  0  0  0  0  0  0
  149.0443  140.4259  152.8516 H   0  0  0  0  0  0  0  0  0  0  0  0
  1  2  1  0  0  0  0
  1 21  1  0  0  0  0
  1 22  1  0  0  0  0
  1 23  1  0  0  0  0
  2  3  1  0  0  0  0
  2 24  1  0  0  0  0
  2 25  1  0  0  0  0
  3 20  1  0  0  0  0
  3  4  1  0  0  0  0
  3 42  1  0  0  0  0
  4  5  1  0  0  0  0
  4 26  1  0  0  0  0
  4 27  1  0  0  0  0
  5  6  1  0  0  0  0
  5 28  1  0  0  0  0
  5 29  1  0  0  0  0
  6  7  1  0  0  0  0
  6 19  1  0  0  0  0
  7  8  1  0  0  0  0
  7  9  1  0  0  0  0
  7 30  1  0  0  0  0
  8 31  1  0  0  0  0
  8 32  1  0  0  0  0
  8 33  1  0  0  0  0
  9 10  1  0  0  0  0
  9 34  1  0  0  0  0
  9 35  1  0  0  0  0
 10 11  1  0  0  0  0
 10 36  1  0  0  0  0
 11 12  2  0  0  0  0
 11 13  1  0  0  0  0
 13 14  1  0  0  0  0
 14 18  1  0  0  0  0
 14 15  2  0  0  0  0
 15 16  1  0  0  0  0
 16 17  2  0  0  0  0
 17 18  1  0  0  0  0
 17 37  1  0  0  0  0
 19 20  1  0  0  0  0
 19 38  1  0  0  0  0
 19 39  1  0  0  0  0
 20 40  1  0  0  0  0
 20 41  1  0  0  0  0
M  CHG  1   3   1
M  CHG  1  13  -1
M  END
> <s_m_source_file>
AV-unprocessed.smi

> <i_m_source_file_index>
1817

> <i_lp_mmshare_version>
43012

> <i_f3d_flags>
0

> <s_epik_input>
W0NIM11bQ0gyXU4xW0NIMl1bQ0gyXU4oW0NIMl1bQ0gyXTEpW0NASF0oW0NIM10pW0NIMl1bTkhdQyg9TylbTkhdYzJubltjSF1zMg==

> <s_epik_cmdline>
J2VwaWtfcHl0aG9uJywgJy1waCcsICc3LjAnLCAnLXRuJywgJzgnLCAnLW1hJywgJzIwMCcsICctbWV0YWxfYmluZGluZycsICctaW1hZScsICc8aW5maWxlLm1hZT4nLCAnLW9tYWUnLCAnPG91dGZpbGUubWFlPic=

> <r_lp_tautomer_probability>
1

> <r_epik_Ionization_Penalty>
3.58527

> <r_epik_Ionization_Penalty_Charging>
3.54445

> <r_epik_Ionization_Penalty_Neutral>
0.0408199

> <r_epik_State_Penalty>
3.6633

> <r_epik_Charging_Adjusted_Penalty>
7.20774

> <i_epik_Tot_Q>
0

> <i_epik_Tot_abs_Q>
2

> <r_epik_Metal_State_Penalty>
0.683711

> <b_epik_Metal_Only>
1

> <s_lp_Force_Field>
OPLS_2005

> <r_lp_Energy>
15.1911

> <b_lp_Chiralities_Consistent>
1

> <s_lp_Variant>
AV-unprocessed.smi:1817-7

> <Gold.Version>
5.8.1

> <Gold.Id.Protein>
6NUR|6NUR_protein|mol2

> <Gold.PLP.Fitness>
46.2097

> <Gold.PLP.PLP>
-34.7151

> <Gold.PLP.part.hbond>
-3.0000

> <Gold.PLP.part.metal>
0.0000

> <Gold.PLP.part.buried>
-2.4208

> <Gold.PLP.part.nonpolar>
-29.0980

> <Gold.PLP.part.repulsive>
0.3528

> <Gold.PLP.ligand.clash>
0.0000

> <Gold.PLP.ligand.torsion>
0.3886

> <Gold.PLP.Chemscore.Hbond>
4.0720

> <Gold.PLP.Chemscore.CHOScore>
0.0000

> <Gold.PLP.Chemscore.Metal>
0.0000

> <Gold.Chemscore.Hbonds>
donor molecule, donor type, donor heavy atom, donor atom, acceptor molecule, acceptor atom, score
      L1  H     3    42       P1  7957  1.00
      P1  H  6931  6943       L1    13  1.44
      P1  H  6934  6947       L1    13  1.50

> <Gold.PLP.Chemscore.Internal.Correction>
0.0558

> <Gold.Rescore>
     Score         DG    S(hbond)    S(metal)    S(lipo)     H(rot)  DE(clash)    DE(int)     intcor
     14.01     -16.12       2.12        0.00      71.69       1.88       0.17       1.94       ----

> <Gold.Chemscore.Fitness>
14.0134

> <Gold.Chemscore.DG>
-16.1164

> <Gold.Chemscore.ZeroCoef>
-5.4800

> <Gold.Chemscore.Hbond>
2.1160

> <Gold.Chemscore.Metal>
0.0000

> <Gold.Chemscore.Lipo>
71.6932

> <Gold.Chemscore.Internal_Hbond>
0.0000

> <Gold.Chemscore.DEClash>
0.1666

> <Gold.Chemscore.DEInternal>
1.9364

> <Gold.Chemscore.Rot>
1.8825

> <Gold.Chemscore.Internal.Correction>
   9.000000E+99

> <Gold.Chemscore.Hbonds>
donor molecule, donor type, donor heavy atom, donor atom, acceptor molecule, acceptor atom, score
      L1  H     3    42       P1  7957  0.96
      P1  H  6931  6943       L1    13  0.52
      P1  H  6934  6947       L1    13  0.52

> <Gold.Chemscore.Hbond.Weighted>
-7.0674

> <Gold.Chemscore.Metal.Weighted>
-0.0000

> <Gold.Chemscore.Lipo.Weighted>
-8.3881

> <Gold.Chemscore.Internal_Hbond.Weighted>
0.0000

> <Gold.Chemscore.DEClash.Weighted>
0.1666

> <Gold.Chemscore.DEInternal.Weighted>
1.9364

> <Gold.Chemscore.Rot.Weighted>
4.8191

> <Gold.Chemscore.Internal.Correction.Weighted>
   9.000000E+99

> <Gold.Protein.RotatedTorsions>
[ 6907 6896 6895 6894 ] final  146.30 input  -60.11 | X-H torsion
[ 7974 7965 7964 7962 ] final   86.16 input  175.53 | X-H torsion
[ 8008 7997 7996 7995 ] final -175.90 input   59.86 | X-H torsion
[ 10167 10162 10161 10158 ] final  -14.24 input  -65.29 | X-H torsion
[ 10718 10713 10712 10709 ] final    4.98 input   66.30 | X-H torsion
[ 10763 10752 10751 10750 ] final -130.81 input  -60.55 | X-H torsion
[ 11005 11000 10999 10996 ] final  161.50 input  -57.11 | X-H torsion

> <Gold.Protein.ActiveResidues>
 VAL166  LYS551  ARG553  GLY616  TRP617  ASP618  TYR619  PRO620  LYS621  CYS622 
 ASP623  PHE694  ASN695  SER759  ASP760  ASP761  ALA762  ILE779  LEU786  VAL792 
 PHE793  MET794  SER795  GLU796  ALA797  LYS798  CYS799  TRP800  GLU811  SER814 

> <Gold.Protein.RotatedAtoms>
  152.1697  133.4635  159.4902 H   0  0  0  0  0  0  0  0  0  0  0  0  # atno 6907 bound_to 6896
  150.6918  134.1968  159.4316 H   0  0  0  0  0  0  0  0  0  0  0  0  # atno 6908 bound_to 6896
  151.9875  134.9996  160.0611 H   0  0  0  0  0  0  0  0  0  0  0  0  # atno 6909 bound_to 6896
  145.5760  139.2319  143.2379 H   0  0  0  0  0  0  0  0  0  0  0  0  # atno 7974 bound_to 7965
  155.9883  140.1195  157.0662 H   0  0  0  0  0  0  0  0  0  0  0  0  # atno 8008 bound_to 7997
  154.4203  140.1131  156.5598 H   0  0  0  0  0  0  0  0  0  0  0  0  # atno 8009 bound_to 7997
  155.6378  140.3473  155.4706 H   0  0  0  0  0  0  0  0  0  0  0  0  # atno 8010 bound_to 7997
  140.7197  143.5342  150.9484 H   0  0  0  0  0  0  0  0  0  0  0  0  # atno 10167 bound_to 10162
  156.9007  130.5720  149.5648 H   0  0  0  0  0  0  0  0  0  0  0  0  # atno 10718 bound_to 10713
  154.8754  135.3850  154.4144 H   0  0  0  0  0  0  0  0  0  0  0  0  # atno 10763 bound_to 10752
  153.4854  135.7030  153.5919 H   0  0  0  0  0  0  0  0  0  0  0  0  # atno 10764 bound_to 10752
  153.4316  135.3877  155.2141 H   0  0  0  0  0  0  0  0  0  0  0  0  # atno 10765 bound_to 10752
  140.2164  134.8229  157.3174 H   0  0  0  0  0  0  0  0  0  0  0  0  # atno 11005 bound_to 11000
  146.1750  140.6586  142.9215 LP  0  0  0  0  0  0  0  0  0  0  0  0  # atno 17320 bound_to 7965
  144.7416  140.4957  143.6865 LP  0  0  0  0  0  0  0  0  0  0  0  0  # atno 17321 bound_to 7965
  139.9064  143.6774  152.3123 LP  0  0  0  0  0  0  0  0  0  0  0  0  # atno 17342 bound_to 10162
  139.7141  144.7615  151.1063 LP  0  0  0  0  0  0  0  0  0  0  0  0  # atno 17343 bound_to 10162
  156.0583  130.5641  150.9139 LP  0  0  0  0  0  0  0  0  0  0  0  0  # atno 17370 bound_to 10713
  157.6028  131.0940  150.8931 LP  0  0  0  0  0  0  0  0  0  0  0  0  # atno 17371 bound_to 10713
  140.1896  134.4388  155.7723 LP  0  0  0  0  0  0  0  0  0  0  0  0  # atno 17394 bound_to 11000
  141.2224  133.7021  156.8005 LP  0  0  0  0  0  0  0  0  0  0  0  0  # atno 17395 bound_to 11000

$$$$
