AV-unprocessed.smi:99|AV-procd|sdf|866|dock6
  -GOLD-   2262017323D 1   1.00000     0.00000
 Structure written by MMmdl.
 53 56  0  0  0  0  0  0  0  0  1 V2000
  148.9017  134.5206  158.4772 O   0  0  0  0  0  0  0  0  0  0  0  0
  147.7784  134.7958  158.9039 C   0  0  0  0  0  0  0  0  0  0  0  0
  146.7516  135.1671  158.1156 O   0  0  0  0  0  0  0  0  0  0  0  0
  146.9742  135.4273  156.7403 C   0  0  0  0  0  0  0  0  0  0  0  0
  146.2986  136.7576  156.3626 C   0  0  1  0  0  0  0  0  0  0  0  0
  147.0128  137.8478  156.9468 O   0  0  0  0  0  0  0  0  0  0  0  0
  147.8807  138.4518  156.0251 C   0  0  1  0  0  0  0  0  0  0  0  0
  149.3004  138.4119  156.5567 N   0  0  0  0  0  0  0  0  0  0  0  0
  149.6252  137.8491  157.7855 C   0  0  0  0  0  0  0  0  0  0  0  0
  150.8895  137.8106  158.2687 C   0  0  0  0  0  0  0  0  0  0  0  0
  151.9940  138.3765  157.5016 C   0  0  0  0  0  0  0  0  0  0  0  0
  153.1707  138.3886  157.8564 O   0  0  0  0  0  0  0  0  0  0  0  0
  151.6224  138.9359  156.2759 N   0  0  0  0  0  0  0  0  0  0  0  0
  150.3235  138.9811  155.7674 C   0  0  0  0  0  0  0  0  0  0  0  0
  150.1056  139.4984  154.6723 O   0  0  0  0  0  0  0  0  0  0  0  0
  147.7096  137.7207  154.6740 C   0  0  1  0  0  0  0  0  0  0  0  0
  148.7163  136.7489  154.4334 O   0  0  0  0  0  0  0  0  0  0  0  0
  146.3396  137.0878  154.8714 C   0  0  1  0  0  0  0  0  0  0  0  0
  146.0745  135.9821  154.0145 O   0  0  0  0  0  0  0  0  0  0  0  0
  145.4219  136.1480  152.8451 C   0  0  0  0  0  0  0  0  0  0  0  0
  145.0028  137.2354  152.4440 O   0  0  0  0  0  0  0  0  0  0  0  0
  145.2685  134.8738  152.0858 C   0  0  0  0  0  0  0  0  0  0  0  0
  146.0152  133.7382  152.4776 C   0  0  0  0  0  0  0  0  0  0  0  0
  145.8877  132.5208  151.7808 C   0  0  0  0  0  0  0  0  0  0  0  0
  145.0108  132.4237  150.6847 C   0  0  0  0  0  0  0  0  0  0  0  0
  144.2622  133.5461  150.2852 C   0  0  0  0  0  0  0  0  0  0  0  0
  144.3895  134.7648  150.9796 C   0  0  0  0  0  0  0  0  0  0  0  0
  147.4129  134.7512  160.3489 C   0  0  0  0  0  0  0  0  0  0  0  0
  147.0334  133.5187  160.9301 C   0  0  0  0  0  0  0  0  0  0  0  0
  146.6841  133.4458  162.2926 C   0  0  0  0  0  0  0  0  0  0  0  0
  146.7115  134.6042  163.0907 C   0  0  0  0  0  0  0  0  0  0  0  0
  147.0892  135.8359  162.5249 C   0  0  0  0  0  0  0  0  0  0  0  0
  147.4382  135.9110  161.1623 C   0  0  0  0  0  0  0  0  0  0  0  0
  152.3551  139.3406  155.7112 H   0  0  0  0  0  0  0  0  0  0  0  0
  148.0432  135.4524  156.5299 H   0  0  0  0  0  0  0  0  0  0  0  0
  146.5462  134.6104  156.1579 H   0  0  0  0  0  0  0  0  0  0  0  0
  145.2673  136.7527  156.7168 H   0  0  0  0  0  0  0  0  0  0  0  0
  147.6149  139.5098  155.9743 H   0  0  0  0  0  0  0  0  0  0  0  0
  148.8558  137.4175  158.4060 H   0  0  0  0  0  0  0  0  0  0  0  0
  151.0847  137.3593  159.2308 H   0  0  0  0  0  0  0  0  0  0  0  0
  147.7144  138.4420  153.8564 H   0  0  0  0  0  0  0  0  0  0  0  0
  148.4663  136.2379  153.6788 H   0  0  0  0  0  0  0  0  0  0  0  0
  145.5853  137.8590  154.7047 H   0  0  0  0  0  0  0  0  0  0  0  0
  146.6941  133.7882  153.3169 H   0  0  0  0  0  0  0  0  0  0  0  0
  146.4631  131.6602  152.0888 H   0  0  0  0  0  0  0  0  0  0  0  0
  144.9123  131.4897  150.1516 H   0  0  0  0  0  0  0  0  0  0  0  0
  143.5877  133.4732  149.4446 H   0  0  0  0  0  0  0  0  0  0  0  0
  143.7991  135.6059  150.6463 H   0  0  0  0  0  0  0  0  0  0  0  0
  147.0044  132.6159  160.3368 H   0  0  0  0  0  0  0  0  0  0  0  0
  146.3942  132.4992  162.7248 H   0  0  0  0  0  0  0  0  0  0  0  0
  146.4432  134.5482  164.1352 H   0  0  0  0  0  0  0  0  0  0  0  0
  147.1113  136.7259  163.1367 H   0  0  0  0  0  0  0  0  0  0  0  0
  147.7258  136.8718  160.7606 H   0  0  0  0  0  0  0  0  0  0  0  0
  1  2  2  0  0  0  0
  2  3  1  0  0  0  0
  2 28  1  0  0  0  0
  3  4  1  0  0  0  0
  4  5  1  0  0  0  0
  4 35  1  0  0  0  0
  4 36  1  0  0  0  0
  5 18  1  0  0  0  0
  5  6  1  0  0  0  0
  5 37  1  0  0  0  0
  6  7  1  0  0  0  0
  7  8  1  0  0  0  0
  7 16  1  0  0  0  0
  7 38  1  0  0  0  0
  8 14  1  0  0  0  0
  8  9  1  0  0  0  0
  9 10  2  0  0  0  0
  9 39  1  0  0  0  0
 10 11  1  0  0  0  0
 10 40  1  0  0  0  0
 11 12  2  0  0  0  0
 11 13  1  0  0  0  0
 13 34  1  0  0  0  0
 13 14  1  0  0  0  0
 14 15  2  0  0  0  0
 16 17  1  0  0  0  0
 16 18  1  0  0  0  0
 16 41  1  0  0  0  0
 17 42  1  0  0  0  0
 18 19  1  0  0  0  0
 18 43  1  0  0  0  0
 19 20  1  0  0  0  0
 20 21  2  0  0  0  0
 20 22  1  0  0  0  0
 22 27  1  0  0  0  0
 22 23  2  0  0  0  0
 23 24  1  0  0  0  0
 23 44  1  0  0  0  0
 24 25  2  0  0  0  0
 24 45  1  0  0  0  0
 25 26  1  0  0  0  0
 25 46  1  0  0  0  0
 26 27  2  0  0  0  0
 26 47  1  0  0  0  0
 27 48  1  0  0  0  0
 28 33  1  0  0  0  0
 28 29  2  0  0  0  0
 29 30  1  0  0  0  0
 29 49  1  0  0  0  0
 30 31  2  0  0  0  0
 30 50  1  0  0  0  0
 31 32  1  0  0  0  0
 31 51  1  0  0  0  0
 32 33  2  0  0  0  0
 32 52  1  0  0  0  0
 33 53  1  0  0  0  0
M  END
> <s_m_source_file>
AV-unprocessed.smi

> <i_m_source_file_index>
99

> <i_lp_mmshare_version>
43012

> <i_f3d_flags>
0

> <s_epik_input>
W2NIXTFbY0hdW2NIXVtjSF1bY0hdYzFDKD1PKU9bQ0gyXVtDQEBIXTJPW0NAQEhdKG4zW2NIXVtjSF1jKD1PKVtuSF1jMz1PKVtDQEBIXShbT0hdKVtDQEhdMk9DKD1PKWM0W2NIXVtjSF1bY0hdW2NIXVtjSF00

> <s_epik_cmdline>
J2VwaWtfcHl0aG9uJywgJy1waCcsICc3LjAnLCAnLXRuJywgJzgnLCAnLW1hJywgJzIwMCcsICctbWV0YWxfYmluZGluZycsICctaW1hZScsICc8aW5maWxlLm1hZT4nLCAnLW9tYWUnLCAnPG91dGZpbGUubWFlPic=

> <r_lp_tautomer_probability>
1

> <r_epik_Ionization_Penalty>
0.00454555

> <r_epik_Ionization_Penalty_Charging>
0.0045191

> <r_epik_Ionization_Penalty_Neutral>
2.64449e-05

> <r_epik_State_Penalty>
-0

> <r_epik_Charging_Adjusted_Penalty>
0.0045191

> <i_epik_Tot_Q>
0

> <i_epik_Tot_abs_Q>
0

> <r_epik_Metal_State_Penalty>
1.27877

> <b_epik_Metal_Only>
0

> <s_epik_Chemistry_Notes>
This compound has an ester and may undergo hydrolysis at high or low pH. This compound contains an acetal/aminal-like group ( X-CH(R)-Y where X, Y are N, S, or O) that may be acid/base labile, releasing an aldehyde.

> <s_lp_Force_Field>
OPLS_2005

> <r_lp_Energy>
46.8901

> <b_lp_Chiralities_Consistent>
1

> <s_lp_Variant>
AV-unprocessed.smi:99-2

> <Gold.Version>
5.8.1

> <Gold.Id.Protein>
6NUR|6NUR_protein|mol2

> <Gold.PLP.Fitness>
52.3944

> <Gold.PLP.PLP>
-45.0632

> <Gold.PLP.part.hbond>
-3.9152

> <Gold.PLP.part.metal>
0.0000

> <Gold.PLP.part.buried>
-7.3473

> <Gold.PLP.part.nonpolar>
-34.6391

> <Gold.PLP.part.repulsive>
0.6050

> <Gold.PLP.ligand.clash>
0.0000

> <Gold.PLP.ligand.torsion>
2.4607

> <Gold.PLP.Chemscore.Hbond>
4.0000

> <Gold.PLP.Chemscore.CHOScore>
0.0000

> <Gold.PLP.Chemscore.Metal>
0.0000

> <Gold.Chemscore.Hbonds>
donor molecule, donor type, donor heavy atom, donor atom, acceptor molecule, acceptor atom, score
      L1  H    17    42       P1  7948  0.69
      P1  H  6896  6908       L1     1  1.00
      P1  H  7989  7998       L1    15  0.18
      P1  H  7997  8009       L1    12  0.19

> <Gold.PLP.Chemscore.Internal.Correction>
0.2526

> <Gold.Rescore>
     Score         DG    S(hbond)    S(metal)    S(lipo)     H(rot)  DE(clash)    DE(int)     intcor
     18.72     -21.56       3.92        0.00      95.32       3.19       0.03       2.81       ----

> <Gold.Chemscore.Fitness>
18.7233

> <Gold.Chemscore.DG>
-21.5574

> <Gold.Chemscore.ZeroCoef>
-5.4800

> <Gold.Chemscore.Hbond>
3.9196

> <Gold.Chemscore.Metal>
0.0000

> <Gold.Chemscore.Lipo>
95.3239

> <Gold.Chemscore.Internal_Hbond>
0.0000

> <Gold.Chemscore.DEClash>
0.0275

> <Gold.Chemscore.DEInternal>
2.8067

> <Gold.Chemscore.Rot>
3.1903

> <Gold.Chemscore.Internal.Correction>
   9.000000E+99

> <Gold.Chemscore.Hbonds>
donor molecule, donor type, donor heavy atom, donor atom, acceptor molecule, acceptor atom, score
      L1  H    17    42       P1  7948  0.70
      P1  H  6896  6908       L1     1  0.97
      P1  H  7989  7998       L1    15  0.19
      P1  H  7997  8009       L1    12  0.16

> <Gold.Chemscore.Hbond.Weighted>
-13.0916

> <Gold.Chemscore.Metal.Weighted>
-0.0000

> <Gold.Chemscore.Lipo.Weighted>
-11.1529

> <Gold.Chemscore.Internal_Hbond.Weighted>
0.0000

> <Gold.Chemscore.DEClash.Weighted>
0.0275

> <Gold.Chemscore.DEInternal.Weighted>
2.8067

> <Gold.Chemscore.Rot.Weighted>
8.1671

> <Gold.Chemscore.Internal.Correction.Weighted>
   9.000000E+99

> <Gold.Protein.RotatedTorsions>
[ 6907 6896 6895 6894 ] final  143.39 input  -60.11 | X-H torsion
[ 7974 7965 7964 7962 ] final  130.55 input  175.53 | X-H torsion
[ 8008 7997 7996 7995 ] final  173.81 input   59.86 | X-H torsion
[ 10167 10162 10161 10158 ] final -132.86 input  -65.29 | X-H torsion
[ 10718 10713 10712 10709 ] final  -46.15 input   66.30 | X-H torsion
[ 10763 10752 10751 10750 ] final  -52.21 input  -60.55 | X-H torsion
[ 11005 11000 10999 10996 ] final    0.06 input  -57.11 | X-H torsion

> <Gold.Protein.ActiveResidues>
 VAL166  LYS551  ARG553  GLY616  TRP617  ASP618  TYR619  PRO620  LYS621  CYS622 
 ASP623  PHE694  ASN695  SER759  ASP760  ASP761  ALA762  ILE779  LEU786  VAL792 
 PHE793  MET794  SER795  GLU796  ALA797  LYS798  CYS799  TRP800  GLU811  SER814 

> <Gold.Protein.RotatedAtoms>
  152.2069  133.4882  159.5088 H   0  0  0  0  0  0  0  0  0  0  0  0  # atno 6907 bound_to 6896
  150.6981  134.1517  159.4152 H   0  0  0  0  0  0  0  0  0  0  0  0  # atno 6908 bound_to 6896
  151.9436  135.0202  160.0588 H   0  0  0  0  0  0  0  0  0  0  0  0  # atno 6909 bound_to 6896
  145.0167  139.4170  143.5218 H   0  0  0  0  0  0  0  0  0  0  0  0  # atno 7974 bound_to 7965
  156.1037  140.1450  156.9432 H   0  0  0  0  0  0  0  0  0  0  0  0  # atno 8008 bound_to 7997
  154.4720  140.0907  156.7212 H   0  0  0  0  0  0  0  0  0  0  0  0  # atno 8009 bound_to 7997
  155.4715  140.3442  155.4328 H   0  0  0  0  0  0  0  0  0  0  0  0  # atno 8010 bound_to 7997
  139.9042  143.6571  152.2589 H   0  0  0  0  0  0  0  0  0  0  0  0  # atno 10167 bound_to 10162
  156.2211  130.4166  149.8991 H   0  0  0  0  0  0  0  0  0  0  0  0  # atno 10718 bound_to 10713
  154.1390  135.6508  153.4938 H   0  0  0  0  0  0  0  0  0  0  0  0  # atno 10763 bound_to 10752
  153.0171  135.5311  154.6924 H   0  0  0  0  0  0  0  0  0  0  0  0  # atno 10764 bound_to 10752
  154.6180  135.2961  155.0329 H   0  0  0  0  0  0  0  0  0  0  0  0  # atno 10765 bound_to 10752
  140.6307  133.9577  155.8273 H   0  0  0  0  0  0  0  0  0  0  0  0  # atno 11005 bound_to 11000
  146.3479  139.9641  142.8714 LP  0  0  0  0  0  0  0  0  0  0  0  0  # atno 17320 bound_to 7965
  145.1950  140.9829  143.4189 LP  0  0  0  0  0  0  0  0  0  0  0  0  # atno 17321 bound_to 7965
  139.6998  144.7636  151.1292 LP  0  0  0  0  0  0  0  0  0  0  0  0  # atno 17342 bound_to 10162
  140.7700  143.5473  150.9244 LP  0  0  0  0  0  0  0  0  0  0  0  0  # atno 17343 bound_to 10162
  156.6637  130.8792  151.3551 LP  0  0  0  0  0  0  0  0  0  0  0  0  # atno 17370 bound_to 10713
  157.7088  130.9416  150.1019 LP  0  0  0  0  0  0  0  0  0  0  0  0  # atno 17371 bound_to 10713
  141.0677  134.0252  157.3570 LP  0  0  0  0  0  0  0  0  0  0  0  0  # atno 17394 bound_to 11000
  139.9117  135.0191  156.7718 LP  0  0  0  0  0  0  0  0  0  0  0  0  # atno 17395 bound_to 11000

$$$$
