AV-unprocessed.smi:1922|AV-procd|sdf|7788|dock8
  -GOLD-   22720 9533D 1   1.00000     0.00000
 Structure written by MMmdl.
 35 36  0  0  0  0  0  0  0  0  1 V2000
  150.5124  140.3001  154.9327 O   0  0  0  0  0  0  0  0  0  0  0  0
  149.8009  141.2749  155.1723 C   0  0  0  0  0  0  0  0  0  0  0  0
  148.5930  141.5665  154.2641 C   0  0  0  0  0  0  0  0  0  0  0  0
  147.7042  140.4157  154.0305 N   0  0  0  0  0  0  0  0  0  0  0  0
  147.6328  140.0152  152.7046 N   0  0  0  0  0  0  0  0  0  0  0  0
  146.8700  139.0304  152.3684 C   0  0  0  0  0  0  0  0  0  0  0  0
  146.8265  138.6691  151.0442 O   0  0  0  0  0  0  0  0  0  0  0  0
  146.0809  138.3245  153.3539 C   0  0  0  0  0  0  0  0  0  0  0  0
  146.1592  138.7199  154.6433 C   0  0  0  0  0  0  0  0  0  0  0  0
  147.0119  139.8348  155.0586 C   0  0  0  0  0  0  0  0  0  0  0  0
  147.0920  140.2239  156.2233 O   0  0  0  0  0  0  0  0  0  0  0  0
  150.0270  142.1022  156.2046 N   0  0  0  0  0  0  0  0  0  0  0  0
  151.0954  141.9536  157.1810 C   0  0  0  0  0  0  0  0  0  0  0  0
  151.0990  143.1394  158.1597 C   0  0  0  0  0  0  0  0  0  0  0  0
  151.8228  144.3768  157.6271 C   0  0  0  0  0  0  0  0  0  0  0  0
  152.1093  145.2247  158.8704 C   0  0  0  0  0  0  0  0  0  0  0  0
  152.1560  144.2473  160.0554 C   0  0  0  0  0  0  0  0  0  0  0  0
  151.8086  142.8645  159.4903 C   0  0  0  0  0  0  0  0  0  0  0  0
  146.2693  139.3075  150.6265 H   0  0  0  0  0  0  0  0  0  0  0  0
  148.0276  142.3845  154.7140 H   0  0  0  0  0  0  0  0  0  0  0  0
  148.9573  141.9593  153.3131 H   0  0  0  0  0  0  0  0  0  0  0  0
  145.4480  137.5009  153.0579 H   0  0  0  0  0  0  0  0  0  0  0  0
  145.5761  138.2013  155.3903 H   0  0  0  0  0  0  0  0  0  0  0  0
  149.3979  142.8817  156.3319 H   0  0  0  0  0  0  0  0  0  0  0  0
  150.9598  141.0148  157.7205 H   0  0  0  0  0  0  0  0  0  0  0  0
  152.0551  141.8931  156.6655 H   0  0  0  0  0  0  0  0  0  0  0  0
  150.0667  143.4197  158.3769 H   0  0  0  0  0  0  0  0  0  0  0  0
  152.7655  144.0851  157.1617 H   0  0  0  0  0  0  0  0  0  0  0  0
  151.2387  144.9156  156.8805 H   0  0  0  0  0  0  0  0  0  0  0  0
  153.0356  145.7904  158.7663 H   0  0  0  0  0  0  0  0  0  0  0  0
  151.3038  145.9444  159.0219 H   0  0  0  0  0  0  0  0  0  0  0  0
  153.1352  144.2401  160.5359 H   0  0  0  0  0  0  0  0  0  0  0  0
  151.4260  144.5443  160.8097 H   0  0  0  0  0  0  0  0  0  0  0  0
  151.1972  142.2781  160.1774 H   0  0  0  0  0  0  0  0  0  0  0  0
  152.7280  142.3052  159.3108 H   0  0  0  0  0  0  0  0  0  0  0  0
  1  2  2  0  0  0  0
  2  3  1  0  0  0  0
  2 12  1  0  0  0  0
  3 20  1  0  0  0  0
  3 21  1  0  0  0  0
  3  4  1  0  0  0  0
  4  5  1  0  0  0  0
  4 10  1  0  0  0  0
  5  6  2  0  0  0  0
  6  7  1  0  0  0  0
  6  8  1  0  0  0  0
  7 19  1  0  0  0  0
  8 22  1  0  0  0  0
  8  9  2  0  0  0  0
  9 23  1  0  0  0  0
  9 10  1  0  0  0  0
 10 11  2  0  0  0  0
 12 13  1  0  0  0  0
 12 24  1  0  0  0  0
 13 14  1  0  0  0  0
 13 25  1  0  0  0  0
 13 26  1  0  0  0  0
 14 18  1  0  0  0  0
 14 15  1  0  0  0  0
 14 27  1  0  0  0  0
 15 16  1  0  0  0  0
 15 28  1  0  0  0  0
 15 29  1  0  0  0  0
 16 17  1  0  0  0  0
 16 30  1  0  0  0  0
 16 31  1  0  0  0  0
 17 18  1  0  0  0  0
 17 32  1  0  0  0  0
 17 33  1  0  0  0  0
 18 34  1  0  0  0  0
 18 35  1  0  0  0  0
M  END
> <s_m_source_file>
AV-unprocessed.smi

> <i_m_source_file_index>
1922

> <i_lp_mmshare_version>
43012

> <i_f3d_flags>
0

> <s_epik_input>
W0NIMl0xW0NIMl1bQ0gyXVtDSDJdW0NIXTFbQ0gyXVtOSF1DKD1PKVtDSDJdbjJbbkhdYyg9TylbY0hdW2NIXWMyPU8=

> <s_epik_cmdline>
J2VwaWtfcHl0aG9uJywgJy1waCcsICc3LjAnLCAnLXRuJywgJzgnLCAnLW1hJywgJzIwMCcsICctbWV0YWxfYmluZGluZycsICctaW1hZScsICc8aW5maWxlLm1hZT4nLCAnLW9tYWUnLCAnPG91dGZpbGUubWFlPic=

> <r_lp_tautomer_probability>
0.9996

> <r_epik_Ionization_Penalty>
2.12182

> <r_epik_Ionization_Penalty_Charging>
3.68417e-08

> <r_epik_Ionization_Penalty_Neutral>
2.12182

> <r_epik_State_Penalty>
1.69868

> <r_epik_Charging_Adjusted_Penalty>
1.69868

> <i_epik_Tot_Q>
0

> <i_epik_Tot_abs_Q>
0

> <r_epik_Metal_State_Penalty>
1.69868

> <b_epik_Metal_Only>
0

> <s_lp_Force_Field>
OPLS_2005

> <r_lp_Energy>
31.2069

> <b_lp_Chiralities_Consistent>
1

> <s_lp_Variant>
AV-unprocessed.smi:1922-2

> <Gold.Version>
5.8.1

> <Gold.Id.Protein>
6NUR|6NUR_protein|mol2

> <Gold.PLP.Fitness>
45.5409

> <Gold.PLP.PLP>
-37.4477

> <Gold.PLP.part.hbond>
-4.4814

> <Gold.PLP.part.metal>
0.0000

> <Gold.PLP.part.buried>
-5.9862

> <Gold.PLP.part.nonpolar>
-30.3608

> <Gold.PLP.part.repulsive>
4.0726

> <Gold.PLP.ligand.clash>
0.0000

> <Gold.PLP.ligand.torsion>
0.3252

> <Gold.PLP.Chemscore.Hbond>
2.9120

> <Gold.PLP.Chemscore.CHOScore>
0.0000

> <Gold.PLP.Chemscore.Metal>
0.0000

> <Gold.Chemscore.Hbonds>
donor molecule, donor type, donor heavy atom, donor atom, acceptor molecule, acceptor atom, score
      L1  H    12    24       P1  8028  0.90
      P1  H  7954  7966       L1     7  0.98
      P1  H  7989  7998       L1     1  1.00

> <Gold.PLP.Chemscore.Internal.Correction>
0.0076

> <Gold.Rescore>
     Score         DG    S(hbond)    S(metal)    S(lipo)     H(rot)  DE(clash)    DE(int)     intcor
     14.73     -16.74       2.51        0.00      80.70       2.56       1.64       0.37       ----

> <Gold.Chemscore.Fitness>
14.7327

> <Gold.Chemscore.DG>
-16.7447

> <Gold.Chemscore.ZeroCoef>
-5.4800

> <Gold.Chemscore.Hbond>
2.5083

> <Gold.Chemscore.Metal>
0.0000

> <Gold.Chemscore.Lipo>
80.6982

> <Gold.Chemscore.Internal_Hbond>
0.0000

> <Gold.Chemscore.DEClash>
1.6435

> <Gold.Chemscore.DEInternal>
0.3684

> <Gold.Chemscore.Rot>
2.5605

> <Gold.Chemscore.Internal.Correction>
   9.000000E+99

> <Gold.Chemscore.Hbonds>
donor molecule, donor type, donor heavy atom, donor atom, acceptor molecule, acceptor atom, score
      L1  H    12    24       P1  8028  0.82
      P1  H  7954  7966       L1     7  0.84
      P1  H  7989  7998       L1     1  0.44

> <Gold.Chemscore.Hbond.Weighted>
-8.3777

> <Gold.Chemscore.Metal.Weighted>
-0.0000

> <Gold.Chemscore.Lipo.Weighted>
-9.4417

> <Gold.Chemscore.Internal_Hbond.Weighted>
0.0000

> <Gold.Chemscore.DEClash.Weighted>
1.6435

> <Gold.Chemscore.DEInternal.Weighted>
0.3684

> <Gold.Chemscore.Rot.Weighted>
6.5548

> <Gold.Chemscore.Internal.Correction.Weighted>
   9.000000E+99

> <Gold.Protein.RotatedTorsions>
[ 6907 6896 6895 6894 ] final  129.64 input  -60.11 | X-H torsion
[ 7974 7965 7964 7962 ] final  -82.77 input  175.53 | X-H torsion
[ 8008 7997 7996 7995 ] final  -37.51 input   59.86 | X-H torsion
[ 10167 10162 10161 10158 ] final  -77.33 input  -65.29 | X-H torsion
[ 10718 10713 10712 10709 ] final   -2.19 input   66.30 | X-H torsion
[ 10763 10752 10751 10750 ] final -178.45 input  -60.55 | X-H torsion
[ 11005 11000 10999 10996 ] final  -16.45 input  -57.11 | X-H torsion

> <Gold.Protein.ActiveResidues>
 VAL166  LYS551  ARG553  GLY616  TRP617  ASP618  TYR619  PRO620  LYS621  CYS622 
 ASP623  PHE694  ASN695  SER759  ASP760  ASP761  ALA762  ILE779  LEU786  VAL792 
 PHE793  MET794  SER795  GLU796  ALA797  LYS798  CYS799  TRP800  GLU811  SER814 

> <Gold.Protein.RotatedAtoms>
  152.3604  133.6290  159.6010 H   0  0  0  0  0  0  0  0  0  0  0  0  # atno 6907 bound_to 6896
  150.7597  133.9432  159.3471 H   0  0  0  0  0  0  0  0  0  0  0  0  # atno 6908 bound_to 6896
  151.7271  135.0883  160.0345 H   0  0  0  0  0  0  0  0  0  0  0  0  # atno 6909 bound_to 6896
  145.5289  140.9523  143.1614 H   0  0  0  0  0  0  0  0  0  0  0  0  # atno 7974 bound_to 7965
  154.4052  140.1602  156.2549 H   0  0  0  0  0  0  0  0  0  0  0  0  # atno 8008 bound_to 7997
  155.9087  140.3428  155.6059 H   0  0  0  0  0  0  0  0  0  0  0  0  # atno 8009 bound_to 7997
  155.7362  140.0786  157.2257 H   0  0  0  0  0  0  0  0  0  0  0  0  # atno 8010 bound_to 7997
  140.4780  143.2409  151.8103 H   0  0  0  0  0  0  0  0  0  0  0  0  # atno 10167 bound_to 10162
  156.7945  130.5372  149.5731 H   0  0  0  0  0  0  0  0  0  0  0  0  # atno 10718 bound_to 10713
  154.5475  135.2810  155.1039 H   0  0  0  0  0  0  0  0  0  0  0  0  # atno 10763 bound_to 10752
  154.2497  135.6341  153.5240 H   0  0  0  0  0  0  0  0  0  0  0  0  # atno 10764 bound_to 10752
  152.9994  135.5580  154.6032 H   0  0  0  0  0  0  0  0  0  0  0  0  # atno 10765 bound_to 10752
  140.8069  133.8171  155.9524 H   0  0  0  0  0  0  0  0  0  0  0  0  # atno 11005 bound_to 11000
  144.7636  139.6897  143.7224 LP  0  0  0  0  0  0  0  0  0  0  0  0  # atno 17320 bound_to 7965
  146.2057  139.5380  142.9714 LP  0  0  0  0  0  0  0  0  0  0  0  0  # atno 17321 bound_to 7965
  139.4828  144.4809  151.9308 LP  0  0  0  0  0  0  0  0  0  0  0  0  # atno 17342 bound_to 10162
  140.3894  144.2635  150.5901 LP  0  0  0  0  0  0  0  0  0  0  0  0  # atno 17343 bound_to 10162
  156.1139  130.6060  151.0090 LP  0  0  0  0  0  0  0  0  0  0  0  0  # atno 17370 bound_to 10713
  157.6584  131.0885  150.7894 LP  0  0  0  0  0  0  0  0  0  0  0  0  # atno 17371 bound_to 10713
  140.9238  134.2108  157.4909 LP  0  0  0  0  0  0  0  0  0  0  0  0  # atno 17394 bound_to 11000
  139.8717  134.9804  156.5073 LP  0  0  0  0  0  0  0  0  0  0  0  0  # atno 17395 bound_to 11000

$$$$
