AV-unprocessed.smi:3328|AV-procd|sdf|12793|dock1
  -GOLD-   2272019143D 1   1.00000     0.00000
 Structure written by MMmdl.
 40 41  0  0  0  0  0  0  0  0  1 V2000
  151.5456  144.8482  160.2095 C   0  0  0  0  0  0  0  0  0  0  0  0
  152.2562  143.6002  160.6477 C   0  0  0  0  0  0  0  0  0  0  0  0
  152.2340  142.9849  161.9318 C   0  0  0  0  0  0  0  0  0  0  0  0
  152.9694  141.8868  161.9894 N   0  0  0  0  0  0  0  0  0  0  0  0
  153.4908  141.7649  160.7499 N   0  0  0  0  0  0  0  0  0  0  0  0
  154.3692  140.6506  160.4375 C   0  0  0  0  0  0  0  0  0  0  0  0
  153.5996  139.4235  159.9088 C   0  0  2  0  0  0  0  0  0  0  0  0
  154.3395  138.1192  160.2548 C   0  0  0  0  0  0  0  0  0  0  0  0
  153.4504  139.5446  158.4622 N   0  0  0  0  0  0  0  0  0  0  0  0
  152.4015  140.4807  158.0886 C   0  0  0  0  0  0  0  0  0  0  0  0
  151.0853  139.7153  157.8872 C   0  0  0  0  0  0  0  0  0  0  0  0
  150.3150  140.2664  156.7764 N   0  0  0  0  0  0  0  0  0  0  0  0
  148.9669  140.7669  156.9843 C   0  0  0  0  0  0  0  0  0  0  0  0
  148.4305  141.0632  155.5762 C   0  0  0  0  0  0  0  0  0  0  0  0
  149.6524  141.0404  154.6513 C   0  0  0  0  0  0  0  0  0  0  0  0
  150.7350  140.4150  155.5144 C   0  0  0  0  0  0  0  0  0  0  0  0
  151.8402  140.1011  155.0752 O   0  0  0  0  0  0  0  0  0  0  0  0
  153.0736  142.7830  159.9193 C   0  0  0  0  0  0  0  0  0  0  0  0
  151.1267  145.3944  161.0549 H   0  0  0  0  0  0  0  0  0  0  0  0
  150.7219  144.6237  159.5319 H   0  0  0  0  0  0  0  0  0  0  0  0
  152.2162  145.5308  159.6872 H   0  0  0  0  0  0  0  0  0  0  0  0
  151.7059  143.3024  162.8188 H   0  0  0  0  0  0  0  0  0  0  0  0
  155.1268  140.9743  159.7211 H   0  0  0  0  0  0  0  0  0  0  0  0
  154.9022  140.3887  161.3524 H   0  0  0  0  0  0  0  0  0  0  0  0
  152.6135  139.4108  160.3754 H   0  0  0  0  0  0  0  0  0  0  0  0
  154.4973  138.0376  161.3306 H   0  0  0  0  0  0  0  0  0  0  0  0
  155.3179  138.0771  159.7749 H   0  0  0  0  0  0  0  0  0  0  0  0
  153.7789  137.2365  159.9487 H   0  0  0  0  0  0  0  0  0  0  0  0
  153.2825  138.6376  158.0505 H   0  0  0  0  0  0  0  0  0  0  0  0
  152.2783  141.2382  158.8621 H   0  0  0  0  0  0  0  0  0  0  0  0
  152.6797  140.9934  157.1670 H   0  0  0  0  0  0  0  0  0  0  0  0
  151.2909  138.6611  157.6951 H   0  0  0  0  0  0  0  0  0  0  0  0
  150.4819  139.7520  158.7958 H   0  0  0  0  0  0  0  0  0  0  0  0
  148.3483  140.0373  157.5085 H   0  0  0  0  0  0  0  0  0  0  0  0
  149.0094  141.6756  157.5862 H   0  0  0  0  0  0  0  0  0  0  0  0
  147.7240  140.2888  155.2743 H   0  0  0  0  0  0  0  0  0  0  0  0
  147.9064  142.0187  155.5369 H   0  0  0  0  0  0  0  0  0  0  0  0
  149.4752  140.4563  153.7478 H   0  0  0  0  0  0  0  0  0  0  0  0
  149.9543  142.0482  154.3647 H   0  0  0  0  0  0  0  0  0  0  0  0
  153.3918  142.8418  158.8888 H   0  0  0  0  0  0  0  0  0  0  0  0
  1  2  1  0  0  0  0
  1 19  1  0  0  0  0
  1 20  1  0  0  0  0
  1 21  1  0  0  0  0
  2 18  2  0  0  0  0
  2  3  1  0  0  0  0
  3  4  2  0  0  0  0
  3 22  1  0  0  0  0
  4  5  1  0  0  0  0
  5  6  1  0  0  0  0
  5 18  1  0  0  0  0
  6  7  1  0  0  0  0
  6 23  1  0  0  0  0
  6 24  1  0  0  0  0
  7  8  1  0  0  0  0
  7  9  1  0  0  0  0
  7 25  1  0  0  0  0
  8 26  1  0  0  0  0
  8 27  1  0  0  0  0
  8 28  1  0  0  0  0
  9 10  1  0  0  0  0
  9 29  1  0  0  0  0
 10 11  1  0  0  0  0
 10 30  1  0  0  0  0
 10 31  1  0  0  0  0
 11 12  1  0  0  0  0
 11 32  1  0  0  0  0
 11 33  1  0  0  0  0
 12 16  1  0  0  0  0
 12 13  1  0  0  0  0
 13 14  1  0  0  0  0
 13 34  1  0  0  0  0
 13 35  1  0  0  0  0
 14 15  1  0  0  0  0
 14 36  1  0  0  0  0
 14 37  1  0  0  0  0
 15 16  1  0  0  0  0
 15 38  1  0  0  0  0
 15 39  1  0  0  0  0
 16 17  2  0  0  0  0
 18 40  1  0  0  0  0
M  END
> <s_m_source_file>
AV-unprocessed.smi

> <i_m_source_file_index>
3328

> <i_lp_mmshare_version>
43012

> <i_f3d_flags>
0

> <s_epik_input>
W0NIM11jMVtjSF1ubihbY0hdMSlbQ0gyXVtDQEhdKFtDSDNdKVtOSF1bQ0gyXVtDSDJdTjJbQ0gyXVtDSDJdW0NIMl1DMj1P

> <s_epik_cmdline>
J2VwaWtfcHl0aG9uJywgJy1waCcsICc3LjAnLCAnLXRuJywgJzgnLCAnLW1hJywgJzIwMCcsICctbWV0YWxfYmluZGluZycsICctaW1hZScsICc8aW5maWxlLm1hZT4nLCAnLW9tYWUnLCAnPG91dGZpbGUubWFlPic=

> <r_lp_tautomer_probability>
1

> <r_epik_Ionization_Penalty>
2.53591

> <r_epik_Ionization_Penalty_Charging>
0

> <r_epik_Ionization_Penalty_Neutral>
2.53591

> <r_epik_State_Penalty>
2.70334

> <r_epik_Charging_Adjusted_Penalty>
2.70334

> <i_epik_Tot_Q>
0

> <i_epik_Tot_abs_Q>
0

> <r_epik_Metal_State_Penalty>
2.70327

> <b_epik_Metal_Only>
0

> <s_lp_Force_Field>
OPLS_2005

> <r_lp_Energy>
20.4488

> <b_lp_Chiralities_Consistent>
1

> <s_lp_Variant>
AV-unprocessed.smi:3328-3

> <Gold.Version>
5.8.1

> <Gold.Id.Protein>
6NUR|6NUR_protein|mol2

> <Gold.PLP.Fitness>
45.7953

> <Gold.PLP.PLP>
-42.3316

> <Gold.PLP.part.hbond>
-2.0000

> <Gold.PLP.part.metal>
0.0000

> <Gold.PLP.part.buried>
-5.4065

> <Gold.PLP.part.nonpolar>
-34.3609

> <Gold.PLP.part.repulsive>
0.0847

> <Gold.PLP.ligand.clash>
0.0000

> <Gold.PLP.ligand.torsion>
1.3645

> <Gold.PLP.Chemscore.Hbond>
2.0000

> <Gold.PLP.Chemscore.CHOScore>
0.0000

> <Gold.PLP.Chemscore.Metal>
0.0000

> <Gold.Chemscore.Hbonds>
donor molecule, donor type, donor heavy atom, donor atom, acceptor molecule, acceptor atom, score
      P1  H  7989  7998       L1    17  0.76
      P1  H  7997  8010       L1     9  0.75

> <Gold.PLP.Chemscore.Internal.Correction>
0.1927

> <Gold.Rescore>
     Score         DG    S(hbond)    S(metal)    S(lipo)     H(rot)  DE(clash)    DE(int)     intcor
     14.08     -15.55       1.25        0.00      91.69       1.89       0.00       1.46       ----

> <Gold.Chemscore.Fitness>
14.0827

> <Gold.Chemscore.DG>
-15.5476

> <Gold.Chemscore.ZeroCoef>
-5.4800

> <Gold.Chemscore.Hbond>
1.2524

> <Gold.Chemscore.Metal>
0.0000

> <Gold.Chemscore.Lipo>
91.6917

> <Gold.Chemscore.Internal_Hbond>
0.0000

> <Gold.Chemscore.DEClash>
0.0000

> <Gold.Chemscore.DEInternal>
1.4650

> <Gold.Chemscore.Rot>
1.8920

> <Gold.Chemscore.Internal.Correction>
   9.000000E+99

> <Gold.Chemscore.Hbonds>
donor molecule, donor type, donor heavy atom, donor atom, acceptor molecule, acceptor atom, score
      P1  H  7989  7998       L1    17  0.13
      P1  H  7997  8010       L1     9  0.03

> <Gold.Chemscore.Hbond.Weighted>
-4.1832

> <Gold.Chemscore.Metal.Weighted>
-0.0000

> <Gold.Chemscore.Lipo.Weighted>
-10.7279

> <Gold.Chemscore.Internal_Hbond.Weighted>
0.0000

> <Gold.Chemscore.DEClash.Weighted>
0.0000

> <Gold.Chemscore.DEInternal.Weighted>
1.4650

> <Gold.Chemscore.Rot.Weighted>
4.8435

> <Gold.Chemscore.Internal.Correction.Weighted>
   9.000000E+99

> <Gold.Protein.RotatedTorsions>
[ 6907 6896 6895 6894 ] final  -19.50 input  -60.11 | X-H torsion
[ 7974 7965 7964 7962 ] final -117.98 input  175.53 | X-H torsion
[ 8008 7997 7996 7995 ] final   14.14 input   59.86 | X-H torsion
[ 10167 10162 10161 10158 ] final   84.06 input  -65.29 | X-H torsion
[ 10718 10713 10712 10709 ] final   -3.50 input   66.30 | X-H torsion
[ 10763 10752 10751 10750 ] final  141.29 input  -60.55 | X-H torsion
[ 11005 11000 10999 10996 ] final  -77.56 input  -57.11 | X-H torsion

> <Gold.Protein.ActiveResidues>
 VAL166  LYS551  ARG553  GLY616  TRP617  ASP618  TYR619  PRO620  LYS621  CYS622 
 ASP623  PHE694  ASN695  SER759  ASP760  ASP761  ALA762  ILE779  LEU786  VAL792 
 PHE793  MET794  SER795  GLU796  ALA797  LYS798  CYS799  TRP800  GLU811  SER814 

> <Gold.Protein.RotatedAtoms>
  151.2621  135.0657  159.9101 H   0  0  0  0  0  0  0  0  0  0  0  0  # atno 6907 bound_to 6896
  152.5364  134.0220  159.7996 H   0  0  0  0  0  0  0  0  0  0  0  0  # atno 6908 bound_to 6896
  151.0444  133.5628  159.2679 H   0  0  0  0  0  0  0  0  0  0  0  0  # atno 6909 bound_to 6896
  145.0790  140.8413  143.4050 H   0  0  0  0  0  0  0  0  0  0  0  0  # atno 7974 bound_to 7965
  154.8443  140.2919  155.5639 H   0  0  0  0  0  0  0  0  0  0  0  0  # atno 8008 bound_to 7997
  156.3013  140.2508  156.3323 H   0  0  0  0  0  0  0  0  0  0  0  0  # atno 8009 bound_to 7997
  154.9091  140.0389  157.1925 H   0  0  0  0  0  0  0  0  0  0  0  0  # atno 8010 bound_to 7997
  139.9119  144.6266  150.8529 H   0  0  0  0  0  0  0  0  0  0  0  0  # atno 10167 bound_to 10162
  156.7751  130.5312  149.5760 H   0  0  0  0  0  0  0  0  0  0  0  0  # atno 10718 bound_to 10713
  153.9368  135.2984  155.3444 H   0  0  0  0  0  0  0  0  0  0  0  0  # atno 10763 bound_to 10752
  154.7498  135.4986  153.9271 H   0  0  0  0  0  0  0  0  0  0  0  0  # atno 10764 bound_to 10752
  153.1063  135.6747  153.9687 H   0  0  0  0  0  0  0  0  0  0  0  0  # atno 10765 bound_to 10752
  141.1661  133.7027  156.7839 H   0  0  0  0  0  0  0  0  0  0  0  0  # atno 11005 bound_to 11000
  145.1200  139.2700  143.5593 LP  0  0  0  0  0  0  0  0  0  0  0  0  # atno 17320 bound_to 7965
  146.3530  140.0821  142.8617 LP  0  0  0  0  0  0  0  0  0  0  0  0  # atno 17321 bound_to 7965
  140.7683  143.3359  151.2309 LP  0  0  0  0  0  0  0  0  0  0  0  0  # atno 17342 bound_to 10162
  139.6935  143.9652  152.2871 LP  0  0  0  0  0  0  0  0  0  0  0  0  # atno 17343 bound_to 10162
  156.1253  130.6139  151.0254 LP  0  0  0  0  0  0  0  0  0  0  0  0  # atno 17370 bound_to 10713
  157.6673  131.0869  150.7698 LP  0  0  0  0  0  0  0  0  0  0  0  0  # atno 17371 bound_to 10713
  140.2375  134.8639  157.3539 LP  0  0  0  0  0  0  0  0  0  0  0  0  # atno 17394 bound_to 11000
  140.1829  134.4467  155.7761 LP  0  0  0  0  0  0  0  0  0  0  0  0  # atno 17395 bound_to 11000

$$$$
