AV-unprocessed.smi:713|AV-procd|sdf|3481|dock1
  -GOLD-   22720 0473D 1   1.00000     0.00000
 Structure written by MMmdl.
 41 42  0  0  0  0  0  0  0  0  1 V2000
  152.7509  144.3297  158.1895 C   0  0  0  0  0  0  0  0  0  0  0  0
  151.6793  143.7311  159.1237 C   0  0  1  0  0  0  0  0  0  0  0  0
  150.8405  142.6277  158.4532 C   0  0  0  0  0  0  0  0  0  0  0  0
  149.6399  142.5077  158.7009 O   0  0  0  0  0  0  0  0  0  0  0  0
  151.4966  141.8117  157.6121 N   0  0  0  0  0  0  0  0  0  0  0  0
  150.9030  140.7057  156.8691 C   0  0  1  0  0  0  0  0  0  0  0  0
  150.1543  141.2610  155.6444 C   0  0  0  0  0  0  0  0  0  0  0  0
  149.5556  140.1376  154.7842 C   0  0  0  0  0  0  0  0  0  0  0  0
  150.6227  139.1057  154.3765 C   0  0  0  0  0  0  0  0  0  0  0  0
  151.4408  138.5553  155.5672 C   0  0  2  0  0  0  0  0  0  0  0  0
  150.5098  137.3231  156.6054 S   0  0  0  0  0  0  0  0  0  0  0  0
  150.6270  138.0544  158.2906 C   0  0  0  0  0  0  0  0  0  0  0  0
  149.0990  137.3525  156.1911 O   0  0  0  0  0  0  0  0  0  0  0  0
  151.2259  136.0394  156.6280 O   0  0  0  0  0  0  0  0  0  0  0  0
  151.9940  139.7063  156.4311 C   0  0  0  0  0  0  0  0  0  0  0  0
  152.2568  143.2580  160.3780 N   0  0  0  0  0  0  0  0  0  0  0  0
  152.0507  143.7571  161.6483 C   0  0  0  0  0  0  0  0  0  0  0  0
  152.7622  142.9794  162.5158 C   0  0  0  0  0  0  0  0  0  0  0  0
  153.3761  142.0103  161.6750 C   0  0  0  0  0  0  0  0  0  0  0  0
  153.0677  142.1746  160.3992 N   0  0  0  0  0  0  0  0  0  0  0  0
  152.3001  144.7525  157.2909 H   0  0  0  0  0  0  0  0  0  0  0  0
  153.4802  143.5825  157.8739 H   0  0  0  0  0  0  0  0  0  0  0  0
  153.2952  145.1322  158.6882 H   0  0  0  0  0  0  0  0  0  0  0  0
  150.9860  144.5354  159.3746 H   0  0  0  0  0  0  0  0  0  0  0  0
  152.4808  141.9803  157.4646 H   0  0  0  0  0  0  0  0  0  0  0  0
  150.1807  140.2013  157.5123 H   0  0  0  0  0  0  0  0  0  0  0  0
  149.3612  141.9373  155.9662 H   0  0  0  0  0  0  0  0  0  0  0  0
  150.8364  141.8543  155.0335 H   0  0  0  0  0  0  0  0  0  0  0  0
  148.7403  139.6564  155.3211 H   0  0  0  0  0  0  0  0  0  0  0  0
  149.1042  140.5660  153.8891 H   0  0  0  0  0  0  0  0  0  0  0  0
  150.1611  138.2952  153.8143 H   0  0  0  0  0  0  0  0  0  0  0  0
  151.3123  139.5870  153.6822 H   0  0  0  0  0  0  0  0  0  0  0  0
  152.2920  138.0034  155.1673 H   0  0  0  0  0  0  0  0  0  0  0  0
  150.0103  137.4736  158.9763 H   0  0  0  0  0  0  0  0  0  0  0  0
  150.2690  139.0833  158.2697 H   0  0  0  0  0  0  0  0  0  0  0  0
  151.6591  138.0312  158.6375 H   0  0  0  0  0  0  0  0  0  0  0  0
  152.7542  140.2387  155.8579 H   0  0  0  0  0  0  0  0  0  0  0  0
  152.5078  139.3009  157.3036 H   0  0  0  0  0  0  0  0  0  0  0  0
  151.4195  144.6150  161.8277 H   0  0  0  0  0  0  0  0  0  0  0  0
  152.8310  143.0847  163.5883 H   0  0  0  0  0  0  0  0  0  0  0  0
  154.0284  141.1953  161.9520 H   0  0  0  0  0  0  0  0  0  0  0  0
  1  2  1  0  0  0  0
  1 21  1  0  0  0  0
  1 22  1  0  0  0  0
  1 23  1  0  0  0  0
  2  3  1  0  0  0  0
  2 16  1  0  0  0  0
  2 24  1  0  0  0  0
  3  4  2  0  0  0  0
  3  5  1  0  0  0  0
  5  6  1  0  0  0  0
  5 25  1  0  0  0  0
  6 15  1  0  0  0  0
  6  7  1  0  0  0  0
  6 26  1  0  0  0  0
  7  8  1  0  0  0  0
  7 27  1  0  0  0  0
  7 28  1  0  0  0  0
  8  9  1  0  0  0  0
  8 29  1  0  0  0  0
  8 30  1  0  0  0  0
  9 10  1  0  0  0  0
  9 31  1  0  0  0  0
  9 32  1  0  0  0  0
 10 11  1  0  0  0  0
 10 15  1  0  0  0  0
 10 33  1  0  0  0  0
 11 12  1  0  0  0  0
 11 13  2  0  0  0  0
 11 14  2  0  0  0  0
 12 34  1  0  0  0  0
 12 35  1  0  0  0  0
 12 36  1  0  0  0  0
 15 37  1  0  0  0  0
 15 38  1  0  0  0  0
 16 20  1  0  0  0  0
 16 17  1  0  0  0  0
 17 18  2  0  0  0  0
 17 39  1  0  0  0  0
 18 19  1  0  0  0  0
 18 40  1  0  0  0  0
 19 20  2  0  0  0  0
 19 41  1  0  0  0  0
M  END
> <s_m_source_file>
AV-unprocessed.smi

> <i_m_source_file_index>
713

> <i_lp_mmshare_version>
43012

> <i_f3d_flags>
0

> <s_epik_input>
bjFbY0hdW2NIXVtjSF1uMVtDQEhdKFtDSDNdKUMoPU8pW05IXVtDQEBIXTJbQ0gyXVtDSDJdW0NIMl1bQ0BIXShbQ0gyXTIpUyg9TykoPU8pW0NIM10=

> <s_epik_cmdline>
J2VwaWtfcHl0aG9uJywgJy1waCcsICc3LjAnLCAnLXRuJywgJzgnLCAnLW1hJywgJzIwMCcsICctbWV0YWxfYmluZGluZycsICctaW1hZScsICc8aW5maWxlLm1hZT4nLCAnLW9tYWUnLCAnPG91dGZpbGUubWFlPic=

> <r_lp_tautomer_probability>
1

> <r_epik_Ionization_Penalty>
4.07816e-05

> <r_epik_Ionization_Penalty_Charging>
0

> <r_epik_Ionization_Penalty_Neutral>
4.07816e-05

> <r_epik_State_Penalty>
-0

> <r_epik_Charging_Adjusted_Penalty>
0

> <i_epik_Tot_Q>
0

> <i_epik_Tot_abs_Q>
0

> <r_epik_Metal_State_Penalty>
-0

> <b_epik_Metal_Only>
0

> <s_lp_Force_Field>
OPLS_2005

> <r_lp_Energy>
4.31355

> <b_lp_Chiralities_Consistent>
1

> <s_lp_Variant>
AV-unprocessed.smi:713-8

> <Gold.Version>
5.8.1

> <Gold.Id.Protein>
6NUR|6NUR_protein|mol2

> <Gold.PLP.Fitness>
45.7147

> <Gold.PLP.PLP>
-44.6901

> <Gold.PLP.part.hbond>
-1.7748

> <Gold.PLP.part.metal>
0.0000

> <Gold.PLP.part.buried>
-4.0217

> <Gold.PLP.part.nonpolar>
-38.2565

> <Gold.PLP.part.repulsive>
0.1894

> <Gold.PLP.ligand.clash>
0.0000

> <Gold.PLP.ligand.torsion>
1.1441

> <Gold.PLP.Chemscore.Hbond>
1.0000

> <Gold.PLP.Chemscore.CHOScore>
0.0000

> <Gold.PLP.Chemscore.Metal>
0.0000

> <Gold.PLP.Chemscore.Internal.Correction>
0.3129

> <Gold.Rescore>
     Score         DG    S(hbond)    S(metal)    S(lipo)     H(rot)  DE(clash)    DE(int)     intcor
     15.68     -16.93       1.00        0.00     107.05       1.72       0.08       1.17       ----

> <Gold.Chemscore.Fitness>
15.6754

> <Gold.Chemscore.DG>
-16.9292

> <Gold.Chemscore.ZeroCoef>
-5.4800

> <Gold.Chemscore.Hbond>
1.0000

> <Gold.Chemscore.Metal>
0.0000

> <Gold.Chemscore.Lipo>
107.0511

> <Gold.Chemscore.Internal_Hbond>
0.0000

> <Gold.Chemscore.DEClash>
0.0798

> <Gold.Chemscore.DEInternal>
1.1741

> <Gold.Chemscore.Rot>
1.7249

> <Gold.Chemscore.Internal.Correction>
   9.000000E+99

> <Gold.Chemscore.Hbond.Weighted>
-3.3400

> <Gold.Chemscore.Metal.Weighted>
-0.0000

> <Gold.Chemscore.Lipo.Weighted>
-12.5250

> <Gold.Chemscore.Internal_Hbond.Weighted>
0.0000

> <Gold.Chemscore.DEClash.Weighted>
0.0798

> <Gold.Chemscore.DEInternal.Weighted>
1.1741

> <Gold.Chemscore.Rot.Weighted>
4.4157

> <Gold.Chemscore.Internal.Correction.Weighted>
   9.000000E+99

> <Gold.Protein.RotatedTorsions>
[ 6907 6896 6895 6894 ] final   35.59 input  -60.11 | X-H torsion
[ 7974 7965 7964 7962 ] final -118.39 input  175.53 | X-H torsion
[ 8008 7997 7996 7995 ] final  -44.99 input   59.86 | X-H torsion
[ 10167 10162 10161 10158 ] final  129.82 input  -65.29 | X-H torsion
[ 10718 10713 10712 10709 ] final -100.15 input   66.30 | X-H torsion
[ 10763 10752 10751 10750 ] final  -41.62 input  -60.55 | X-H torsion
[ 11005 11000 10999 10996 ] final  135.49 input  -57.11 | X-H torsion

> <Gold.Protein.ActiveResidues>
 VAL166  LYS551  ARG553  GLY616  TRP617  ASP618  TYR619  PRO620  LYS621  CYS622 
 ASP623  PHE694  ASN695  SER759  ASP760  ASP761  ALA762  ILE779  LEU786  VAL792 
 PHE793  MET794  SER795  GLU796  ALA797  LYS798  CYS799  TRP800  GLU811  SER814 

> <Gold.Protein.RotatedAtoms>
  152.1183  134.9224  160.0563 H   0  0  0  0  0  0  0  0  0  0  0  0  # atno 6907 bound_to 6896
  152.0375  133.3958  159.4331 H   0  0  0  0  0  0  0  0  0  0  0  0  # atno 6908 bound_to 6896
  150.6847  134.3373  159.4896 H   0  0  0  0  0  0  0  0  0  0  0  0  # atno 6909 bound_to 6896
  145.0743  140.8381  143.4077 H   0  0  0  0  0  0  0  0  0  0  0  0  # atno 7974 bound_to 7965
  154.3999  140.1408  156.3774 H   0  0  0  0  0  0  0  0  0  0  0  0  # atno 8008 bound_to 7997
  155.8035  140.3475  155.5396 H   0  0  0  0  0  0  0  0  0  0  0  0  # atno 8009 bound_to 7997
  155.8459  140.0934  157.1696 H   0  0  0  0  0  0  0  0  0  0  0  0  # atno 8010 bound_to 7997
  139.5459  144.6773  151.4474 H   0  0  0  0  0  0  0  0  0  0  0  0  # atno 10167 bound_to 10162
  156.0154  130.5315  150.6775 H   0  0  0  0  0  0  0  0  0  0  0  0  # atno 10718 bound_to 10713
  153.9655  135.6734  153.4746 H   0  0  0  0  0  0  0  0  0  0  0  0  # atno 10763 bound_to 10752
  153.0817  135.4920  154.8513 H   0  0  0  0  0  0  0  0  0  0  0  0  # atno 10764 bound_to 10752
  154.7248  135.3125  154.8949 H   0  0  0  0  0  0  0  0  0  0  0  0  # atno 10765 bound_to 10752
  139.9983  134.9488  157.0014 H   0  0  0  0  0  0  0  0  0  0  0  0  # atno 11005 bound_to 11000
  145.1254  139.2666  143.5567 LP  0  0  0  0  0  0  0  0  0  0  0  0  # atno 17320 bound_to 7965
  146.3529  140.0890  142.8613 LP  0  0  0  0  0  0  0  0  0  0  0  0  # atno 17321 bound_to 7965
  140.6707  143.8300  150.6996 LP  0  0  0  0  0  0  0  0  0  0  0  0  # atno 17342 bound_to 10162
  140.1723  143.4184  152.1992 LP  0  0  0  0  0  0  0  0  0  0  0  0  # atno 17343 bound_to 10162
  157.4485  131.0869  151.0871 LP  0  0  0  0  0  0  0  0  0  0  0  0  # atno 17370 bound_to 10713
  157.1394  130.6136  149.5551 LP  0  0  0  0  0  0  0  0  0  0  0  0  # atno 17371 bound_to 10713
  140.4776  134.1322  155.7212 LP  0  0  0  0  0  0  0  0  0  0  0  0  # atno 17394 bound_to 11000
  141.1622  133.8771  157.1816 LP  0  0  0  0  0  0  0  0  0  0  0  0  # atno 17395 bound_to 11000

$$$$
