AV-unprocessed.smi:3287|AV-procd|sdf|12599|dock3
  -GOLD-   2272018523D 1   1.00000     0.00000
 Structure written by MMmdl.
 43 44  0  0  0  0  0  0  0  0  2 V2000
  152.0927  143.0925  161.3354 C   0  0  0  0  0  0  0  0  0  0  0  0
  152.2494  143.0112  159.8064 C   0  0  1  0  0  0  0  0  0  0  0  0
  151.7377  141.6467  159.3028 C   0  0  0  0  0  0  0  0  0  0  0  0
  151.8772  141.4997  157.7795 C   0  0  0  0  0  0  0  0  0  0  0  0
  151.1745  142.6387  157.0223 C   0  0  1  0  0  0  0  0  0  0  0  0
  149.7028  142.5024  157.1267 N   0  3  0  0  0  0  0  0  0  0  0  0
  149.1050  141.4204  156.3148 C   0  0  0  0  0  0  0  0  0  0  0  0
  149.8597  141.2312  154.9877 C   0  0  2  0  0  0  0  0  0  0  0  0
  148.9583  141.4309  153.9157 O   0  0  0  0  0  0  0  0  0  0  0  0
  150.5194  139.8625  154.9258 C   0  0  0  0  0  0  0  0  0  0  0  0
  151.8399  139.6854  155.3898 C   0  0  0  0  0  0  0  0  0  0  0  0
  152.4113  138.3989  155.3228 C   0  0  0  0  0  0  0  0  0  0  0  0
  151.7577  137.3217  154.8375 N   0  0  0  0  0  0  0  0  0  0  0  0
  150.4933  137.4952  154.3971 C   0  0  0  0  0  0  0  0  0  0  0  0
  149.8297  138.7384  154.4210 C   0  0  0  0  0  0  0  0  0  0  0  0
  151.6777  144.0053  157.5319 C   0  0  0  0  0  0  0  0  0  0  0  0
  151.5388  144.1723  159.0613 C   0  0  2  0  0  0  0  0  0  0  0  0
  152.0584  145.5588  159.4816 C   0  0  0  0  0  0  0  0  0  0  0  0
  151.0421  143.1142  161.6267 H   0  0  0  0  0  0  0  0  0  0  0  0
  152.5745  143.9790  161.7465 H   0  0  0  0  0  0  0  0  0  0  0  0
  152.5527  142.2313  161.8213 H   0  0  0  0  0  0  0  0  0  0  0  0
  153.3160  143.0677  159.5829 H   0  0  0  0  0  0  0  0  0  0  0  0
  152.2887  140.8418  159.7910 H   0  0  0  0  0  0  0  0  0  0  0  0
  150.6936  141.5159  159.5900 H   0  0  0  0  0  0  0  0  0  0  0  0
  152.9368  141.4977  157.5199 H   0  0  0  0  0  0  0  0  0  0  0  0
  151.4859  140.5333  157.4589 H   0  0  0  0  0  0  0  0  0  0  0  0
  151.4351  142.5404  155.9675 H   0  0  0  0  0  0  0  0  0  0  0  0
  149.4816  142.3005  158.0916 H   0  0  0  0  0  0  0  0  0  0  0  0
  149.1378  140.4893  156.8804 H   0  0  0  0  0  0  0  0  0  0  0  0
  148.0540  141.6416  156.1228 H   0  0  0  0  0  0  0  0  0  0  0  0
  150.6377  141.9916  154.9036 H   0  0  0  0  0  0  0  0  0  0  0  0
  148.8039  140.5982  153.4950 H   0  0  0  0  0  0  0  0  0  0  0  0
  152.4070  140.5132  155.7900 H   0  0  0  0  0  0  0  0  0  0  0  0
  153.4199  138.2307  155.6704 H   0  0  0  0  0  0  0  0  0  0  0  0
  149.9941  136.6167  154.0157 H   0  0  0  0  0  0  0  0  0  0  0  0
  148.8148  138.8203  154.0599 H   0  0  0  0  0  0  0  0  0  0  0  0
  152.7303  144.1078  157.2629 H   0  0  0  0  0  0  0  0  0  0  0  0
  151.1674  144.8187  157.0165 H   0  0  0  0  0  0  0  0  0  0  0  0
  150.4767  144.1360  159.3081 H   0  0  0  0  0  0  0  0  0  0  0  0
  153.1349  145.6428  159.3282 H   0  0  0  0  0  0  0  0  0  0  0  0
  151.8516  145.7688  160.5306 H   0  0  0  0  0  0  0  0  0  0  0  0
  151.5797  146.3486  158.9022 H   0  0  0  0  0  0  0  0  0  0  0  0
  149.2738  143.3827  156.8796 H   0  0  0  0  0  0  0  0  0  0  0  0
  1  2  1  0  0  0  0
  1 19  1  0  0  0  0
  1 20  1  0  0  0  0
  1 21  1  0  0  0  0
  2 17  1  0  0  0  0
  2  3  1  0  0  0  0
  2 22  1  0  0  0  0
  3  4  1  0  0  0  0
  3 23  1  0  0  0  0
  3 24  1  0  0  0  0
  4  5  1  0  0  0  0
  4 25  1  0  0  0  0
  4 26  1  0  0  0  0
  5  6  1  0  0  0  0
  5 16  1  0  0  0  0
  5 27  1  0  0  0  0
  6  7  1  0  0  0  0
  6 28  1  0  0  0  0
  6 43  1  0  0  0  0
  7  8  1  0  0  0  0
  7 29  1  0  0  0  0
  7 30  1  0  0  0  0
  8  9  1  0  0  0  0
  8 10  1  0  0  0  0
  8 31  1  0  0  0  0
  9 32  1  0  0  0  0
 10 15  1  0  0  0  0
 10 11  2  0  0  0  0
 11 12  1  0  0  0  0
 11 33  1  0  0  0  0
 12 13  2  0  0  0  0
 12 34  1  0  0  0  0
 13 14  1  0  0  0  0
 14 15  2  0  0  0  0
 14 35  1  0  0  0  0
 15 36  1  0  0  0  0
 16 17  1  0  0  0  0
 16 37  1  0  0  0  0
 16 38  1  0  0  0  0
 17 18  1  0  0  0  0
 17 39  1  0  0  0  0
 18 40  1  0  0  0  0
 18 41  1  0  0  0  0
 18 42  1  0  0  0  0
M  CHG  1   6   1
M  END
> <s_m_source_file>
AV-unprocessed.smi

> <i_m_source_file_index>
3287

> <i_lp_mmshare_version>
43012

> <i_f3d_flags>
0

> <s_epik_input>
W0NIM11bQ0BASF0xW0NIMl1bQ0gyXVtDQEhdKFtDSDJdW0NASF0xW0NIM10pW05IXVtDSDJdW0NASF0oW09IXSljMltjSF1bY0hdbltjSF1bY0hdMg==

> <s_epik_cmdline>
J2VwaWtfcHl0aG9uJywgJy1waCcsICc3LjAnLCAnLXRuJywgJzgnLCAnLW1hJywgJzIwMCcsICctbWV0YWxfYmluZGluZycsICctaW1hZScsICc8aW5maWxlLm1hZT4nLCAnLW9tYWUnLCAnPG91dGZpbGUubWFlPic=

> <r_lp_tautomer_probability>
1

> <r_epik_Ionization_Penalty>
0.00537262

> <r_epik_Ionization_Penalty_Charging>
0.00321624

> <r_epik_Ionization_Penalty_Neutral>
0.00215638

> <r_epik_State_Penalty>
-0

> <r_epik_Charging_Adjusted_Penalty>
0.00321624

> <i_epik_Tot_Q>
1

> <i_epik_Tot_abs_Q>
1

> <r_epik_Metal_State_Penalty>
-0

> <b_epik_Metal_Only>
0

> <s_lp_Force_Field>
OPLS_2005

> <r_lp_Energy>
19.0403

> <b_lp_Chiralities_Consistent>
1

> <s_lp_Variant>
AV-unprocessed.smi:3287-10

> <Gold.Version>
5.8.1

> <Gold.Id.Protein>
6NUR|6NUR_protein|mol2

> <Gold.PLP.Fitness>
56.1298

> <Gold.PLP.PLP>
-45.4668

> <Gold.PLP.part.hbond>
-4.2223

> <Gold.PLP.part.metal>
0.0000

> <Gold.PLP.part.buried>
-1.6069

> <Gold.PLP.part.nonpolar>
-40.0288

> <Gold.PLP.part.repulsive>
0.1171

> <Gold.PLP.ligand.clash>
0.0000

> <Gold.PLP.ligand.torsion>
1.7462

> <Gold.PLP.Chemscore.Hbond>
3.7213

> <Gold.PLP.Chemscore.CHOScore>
0.9902

> <Gold.PLP.Chemscore.Metal>
0.0000

> <Gold.Chemscore.Hbonds>
donor molecule, donor type, donor heavy atom, donor atom, acceptor molecule, acceptor atom, score
      L1  H     6    43       P1  8028  2.00
      P1  H  8011  8017       L1     9  0.68
      P1  H 10752 10765       L1    13  0.86
      L1  C    14    35       P1  7948  0.99

> <Gold.PLP.Chemscore.Internal.Correction>
0.0209

> <Gold.Rescore>
     Score         DG    S(hbond)    S(metal)    S(lipo)     H(rot)  DE(clash)    DE(int)     intcor
     22.52     -24.92       2.61        0.00     133.28       1.90       0.87       1.53       ----

> <Gold.Chemscore.Fitness>
22.5210

> <Gold.Chemscore.DG>
-24.9177

> <Gold.Chemscore.ZeroCoef>
-5.4800

> <Gold.Chemscore.Hbond>
2.6100

> <Gold.Chemscore.Metal>
0.0000

> <Gold.Chemscore.Lipo>
133.2764

> <Gold.Chemscore.Internal_Hbond>
0.0000

> <Gold.Chemscore.DEClash>
0.8703

> <Gold.Chemscore.DEInternal>
1.5264

> <Gold.Chemscore.Rot>
1.9035

> <Gold.Chemscore.Internal.Correction>
   9.000000E+99

> <Gold.Chemscore.Hbonds>
donor molecule, donor type, donor heavy atom, donor atom, acceptor molecule, acceptor atom, score
      L1  H     6    43       P1  8028  0.91
      P1  H  8011  8017       L1     9  0.12
      P1  H 10752 10765       L1    13  0.73

> <Gold.Chemscore.Hbond.Weighted>
-8.7173

> <Gold.Chemscore.Metal.Weighted>
-0.0000

> <Gold.Chemscore.Lipo.Weighted>
-15.5933

> <Gold.Chemscore.Internal_Hbond.Weighted>
0.0000

> <Gold.Chemscore.DEClash.Weighted>
0.8703

> <Gold.Chemscore.DEInternal.Weighted>
1.5264

> <Gold.Chemscore.Rot.Weighted>
4.8729

> <Gold.Chemscore.Internal.Correction.Weighted>
   9.000000E+99

> <Gold.Protein.RotatedTorsions>
[ 6907 6896 6895 6894 ] final  151.28 input  -60.11 | X-H torsion
[ 7974 7965 7964 7962 ] final   68.83 input  175.53 | X-H torsion
[ 8008 7997 7996 7995 ] final  -74.14 input   59.86 | X-H torsion
[ 10167 10162 10161 10158 ] final   96.46 input  -65.29 | X-H torsion
[ 10718 10713 10712 10709 ] final   90.85 input   66.30 | X-H torsion
[ 10763 10752 10751 10750 ] final  168.94 input  -60.55 | X-H torsion
[ 11005 11000 10999 10996 ] final  -11.97 input  -57.11 | X-H torsion

> <Gold.Protein.ActiveResidues>
 VAL166  LYS551  ARG553  GLY616  TRP617  ASP618  TYR619  PRO620  LYS621  CYS622 
 ASP623  PHE694  ASN695  SER759  ASP760  ASP761  ALA762  ILE779  LEU786  VAL792 
 PHE793  MET794  SER795  GLU796  ALA797  LYS798  CYS799  TRP800  GLU811  SER814 

> <Gold.Protein.RotatedAtoms>
  152.1028  133.4259  159.4594 H   0  0  0  0  0  0  0  0  0  0  0  0  # atno 6907 bound_to 6896
  150.6864  134.2740  159.4609 H   0  0  0  0  0  0  0  0  0  0  0  0  # atno 6908 bound_to 6896
  152.0602  134.9599  160.0625 H   0  0  0  0  0  0  0  0  0  0  0  0  # atno 6909 bound_to 6896
  145.7978  139.2966  143.1172 H   0  0  0  0  0  0  0  0  0  0  0  0  # atno 7974 bound_to 7965
  154.5306  140.0766  156.8337 H   0  0  0  0  0  0  0  0  0  0  0  0  # atno 8008 bound_to 7997
  155.3384  140.3406  155.4221 H   0  0  0  0  0  0  0  0  0  0  0  0  # atno 8009 bound_to 7997
  156.1777  140.1641  156.8319 H   0  0  0  0  0  0  0  0  0  0  0  0  # atno 8010 bound_to 7997
  139.7892  144.6859  150.9916 H   0  0  0  0  0  0  0  0  0  0  0  0  # atno 10167 bound_to 10162
  157.6959  131.0386  150.3640 H   0  0  0  0  0  0  0  0  0  0  0  0  # atno 10718 bound_to 10713
  154.3758  135.2753  155.2240 H   0  0  0  0  0  0  0  0  0  0  0  0  # atno 10763 bound_to 10752
  154.4367  135.5964  153.6107 H   0  0  0  0  0  0  0  0  0  0  0  0  # atno 10764 bound_to 10752
  152.9836  135.6009  154.3995 H   0  0  0  0  0  0  0  0  0  0  0  0  # atno 10765 bound_to 10752
  140.7608  133.8516  155.9123 H   0  0  0  0  0  0  0  0  0  0  0  0  # atno 11005 bound_to 11000
  145.9910  140.8603  143.0066 LP  0  0  0  0  0  0  0  0  0  0  0  0  # atno 17320 bound_to 7965
  144.6773  140.2215  143.7366 LP  0  0  0  0  0  0  0  0  0  0  0  0  # atno 17321 bound_to 7965
  140.7820  143.4399  151.0567 LP  0  0  0  0  0  0  0  0  0  0  0  0  # atno 17342 bound_to 10162
  139.8077  143.7995  152.3168 LP  0  0  0  0  0  0  0  0  0  0  0  0  # atno 17343 bound_to 10162
  156.4073  130.3927  149.6917 LP  0  0  0  0  0  0  0  0  0  0  0  0  # atno 17370 bound_to 10713
  156.4213  130.7770  151.2787 LP  0  0  0  0  0  0  0  0  0  0  0  0  # atno 17371 bound_to 10713
  140.9664  134.1588  157.4612 LP  0  0  0  0  0  0  0  0  0  0  0  0  # atno 17394 bound_to 11000
  139.8771  134.9963  156.5789 LP  0  0  0  0  0  0  0  0  0  0  0  0  # atno 17395 bound_to 11000

$$$$
