AV-unprocessed.smi:2911|AV-procd|sdf|11180|dock7
  -GOLD-   2272016 73D 1   1.00000     0.00000
 Structure written by MMmdl.
 41 42  0  0  0  0  0  0  0  0  1 V2000
  146.8218  135.9907  161.7452 C   0  0  0  0  0  0  0  0  0  0  0  0
  147.7991  135.9726  160.6198 C   0  0  0  0  0  0  0  0  0  0  0  0
  147.9136  134.9167  159.8232 N   0  0  0  0  0  0  0  0  0  0  0  0
  148.9173  135.2994  158.9217 O   0  0  0  0  0  0  0  0  0  0  0  0
  149.2721  136.5579  159.2764 C   0  0  0  0  0  0  0  0  0  0  0  0
  150.3672  137.2368  158.5247 C   0  0  0  0  0  0  0  0  0  0  0  0
  150.0170  138.6888  158.1628 C   0  0  0  0  0  0  0  0  0  0  0  0
  151.1271  139.5931  158.4405 N   0  0  0  0  0  0  0  0  0  0  0  0
  151.0133  140.9134  158.6642 C   0  0  0  0  0  0  0  0  0  0  0  0
  149.9326  141.4989  158.5938 O   0  0  0  0  0  0  0  0  0  0  0  0
  152.2044  141.5364  158.8544 N   0  0  0  0  0  0  0  0  0  0  0  0
  153.3725  140.7990  159.3684 C   0  0  0  0  0  0  0  0  0  0  0  0
  153.4051  140.9198  160.9044 C   0  0  0  0  0  0  0  0  0  0  0  0
  153.4317  142.3965  161.3537 C   0  0  2  0  0  0  0  0  0  0  0  0
  153.3401  142.5270  162.8801 C   0  0  0  0  0  0  0  0  0  0  0  0
  152.3311  143.2153  160.6439 C   0  0  0  0  0  0  0  0  0  0  0  0
  152.3633  142.9835  159.1189 C   0  0  2  0  0  0  0  0  0  0  0  0
  151.3861  143.9066  158.3602 C   0  0  0  0  0  0  0  0  0  0  0  0
  148.6196  137.0220  160.3395 N   0  0  0  0  0  0  0  0  0  0  0  0
  146.5968  134.9770  162.0786 H   0  0  0  0  0  0  0  0  0  0  0  0
  145.8936  136.4659  161.4280 H   0  0  0  0  0  0  0  0  0  0  0  0
  147.2247  136.5480  162.5914 H   0  0  0  0  0  0  0  0  0  0  0  0
  151.2730  137.2026  159.1313 H   0  0  0  0  0  0  0  0  0  0  0  0
  150.5753  136.6641  157.6200 H   0  0  0  0  0  0  0  0  0  0  0  0
  149.7808  138.7596  157.1007 H   0  0  0  0  0  0  0  0  0  0  0  0
  149.1254  139.0134  158.7020 H   0  0  0  0  0  0  0  0  0  0  0  0
  152.0512  139.1872  158.4680 H   0  0  0  0  0  0  0  0  0  0  0  0
  153.3761  139.7453  159.0879 H   0  0  0  0  0  0  0  0  0  0  0  0
  154.2865  141.2124  158.9399 H   0  0  0  0  0  0  0  0  0  0  0  0
  152.5301  140.4215  161.3246 H   0  0  0  0  0  0  0  0  0  0  0  0
  154.2761  140.3947  161.2981 H   0  0  0  0  0  0  0  0  0  0  0  0
  154.3933  142.8111  161.0478 H   0  0  0  0  0  0  0  0  0  0  0  0
  152.3963  142.1309  163.2558 H   0  0  0  0  0  0  0  0  0  0  0  0
  153.4102  143.5701  163.1896 H   0  0  0  0  0  0  0  0  0  0  0  0
  154.1482  141.9828  163.3698 H   0  0  0  0  0  0  0  0  0  0  0  0
  151.3505  142.9405  161.0361 H   0  0  0  0  0  0  0  0  0  0  0  0
  152.4642  144.2754  160.8629 H   0  0  0  0  0  0  0  0  0  0  0  0
  153.3548  143.2650  158.7600 H   0  0  0  0  0  0  0  0  0  0  0  0
  151.7064  144.9457  158.4393 H   0  0  0  0  0  0  0  0  0  0  0  0
  150.3726  143.8616  158.7578 H   0  0  0  0  0  0  0  0  0  0  0  0
  151.3488  143.6579  157.2992 H   0  0  0  0  0  0  0  0  0  0  0  0
  1  2  1  0  0  0  0
  1 20  1  0  0  0  0
  1 21  1  0  0  0  0
  1 22  1  0  0  0  0
  2 19  1  0  0  0  0
  2  3  2  0  0  0  0
  3  4  1  0  0  0  0
  4  5  1  0  0  0  0
  5  6  1  0  0  0  0
  5 19  2  0  0  0  0
  6  7  1  0  0  0  0
  6 23  1  0  0  0  0
  6 24  1  0  0  0  0
  7  8  1  0  0  0  0
  7 25  1  0  0  0  0
  7 26  1  0  0  0  0
  8  9  1  0  0  0  0
  8 27  1  0  0  0  0
  9 10  2  0  0  0  0
  9 11  1  0  0  0  0
 11 17  1  0  0  0  0
 11 12  1  0  0  0  0
 12 13  1  0  0  0  0
 12 28  1  0  0  0  0
 12 29  1  0  0  0  0
 13 14  1  0  0  0  0
 13 30  1  0  0  0  0
 13 31  1  0  0  0  0
 14 15  1  0  0  0  0
 14 16  1  0  0  0  0
 14 32  1  0  0  0  0
 15 33  1  0  0  0  0
 15 34  1  0  0  0  0
 15 35  1  0  0  0  0
 16 17  1  0  0  0  0
 16 36  1  0  0  0  0
 16 37  1  0  0  0  0
 17 18  1  0  0  0  0
 17 38  1  0  0  0  0
 18 39  1  0  0  0  0
 18 40  1  0  0  0  0
 18 41  1  0  0  0  0
M  END
> <s_m_source_file>
AV-unprocessed.smi

> <i_m_source_file_index>
2911

> <i_lp_mmshare_version>
43012

> <i_f3d_flags>
0

> <s_epik_input>
W0NIM11jMW5vYyhuMSlbQ0gyXVtDSDJdW05IXUMoPU8pTjJbQ0gyXVtDSDJdW0NAQEhdKFtDSDNdKVtDSDJdW0NASF0yW0NIM10=

> <s_epik_cmdline>
J2VwaWtfcHl0aG9uJywgJy1waCcsICc3LjAnLCAnLXRuJywgJzgnLCAnLW1hJywgJzIwMCcsICctbWV0YWxfYmluZGluZycsICctaW1hZScsICc8aW5maWxlLm1hZT4nLCAnLW9tYWUnLCAnPG91dGZpbGUubWFlPic=

> <r_lp_tautomer_probability>
1

> <r_epik_Ionization_Penalty>
6.61671e-05

> <r_epik_Ionization_Penalty_Charging>
0

> <r_epik_Ionization_Penalty_Neutral>
6.61671e-05

> <r_epik_State_Penalty>
-0

> <r_epik_Charging_Adjusted_Penalty>
0

> <i_epik_Tot_Q>
0

> <i_epik_Tot_abs_Q>
0

> <r_epik_Metal_State_Penalty>
-0

> <b_epik_Metal_Only>
0

> <s_lp_Force_Field>
OPLS_2005

> <r_lp_Energy>
29.3819

> <b_lp_Chiralities_Consistent>
1

> <s_lp_Variant>
AV-unprocessed.smi:2911-4

> <Gold.Version>
5.8.1

> <Gold.Id.Protein>
6NUR|6NUR_protein|mol2

> <Gold.PLP.Fitness>
43.8945

> <Gold.PLP.PLP>
-40.7759

> <Gold.PLP.part.hbond>
-3.2010

> <Gold.PLP.part.metal>
0.0000

> <Gold.PLP.part.buried>
-5.3141

> <Gold.PLP.part.nonpolar>
-32.2108

> <Gold.PLP.part.repulsive>
0.1740

> <Gold.PLP.ligand.clash>
1.3581

> <Gold.PLP.ligand.torsion>
0.7619

> <Gold.PLP.Chemscore.Hbond>
1.8570

> <Gold.PLP.Chemscore.CHOScore>
0.0000

> <Gold.PLP.Chemscore.Metal>
0.0000

> <Gold.Chemscore.Hbonds>
donor molecule, donor type, donor heavy atom, donor atom, acceptor molecule, acceptor atom, score
      P1  H  6896  6907       L1     4  0.65
      P1  H  6931  6943       L1    19  0.72

> <Gold.PLP.Chemscore.Internal.Correction>
0.4294

> <Gold.Rescore>
     Score         DG    S(hbond)    S(metal)    S(lipo)     H(rot)  DE(clash)    DE(int)     intcor
     16.15     -18.28       1.83        0.00      92.36       1.61       0.07       2.07       ----

> <Gold.Chemscore.Fitness>
16.1453

> <Gold.Chemscore.DG>
-18.2849

> <Gold.Chemscore.ZeroCoef>
-5.4800

> <Gold.Chemscore.Hbond>
1.8315

> <Gold.Chemscore.Metal>
0.0000

> <Gold.Chemscore.Lipo>
92.3612

> <Gold.Chemscore.Internal_Hbond>
0.0000

> <Gold.Chemscore.DEClash>
0.0728

> <Gold.Chemscore.DEInternal>
2.0668

> <Gold.Chemscore.Rot>
1.6088

> <Gold.Chemscore.Internal.Correction>
   9.000000E+99

> <Gold.Chemscore.Hbonds>
donor molecule, donor type, donor heavy atom, donor atom, acceptor molecule, acceptor atom, score
      P1  H  6896  6907       L1     4  0.04
      P1  H  6931  6943       L1    19  0.64

> <Gold.Chemscore.Hbond.Weighted>
-6.1173

> <Gold.Chemscore.Metal.Weighted>
-0.0000

> <Gold.Chemscore.Lipo.Weighted>
-10.8063

> <Gold.Chemscore.Internal_Hbond.Weighted>
0.0000

> <Gold.Chemscore.DEClash.Weighted>
0.0728

> <Gold.Chemscore.DEInternal.Weighted>
2.0668

> <Gold.Chemscore.Rot.Weighted>
4.1186

> <Gold.Chemscore.Internal.Correction.Weighted>
   9.000000E+99

> <Gold.Protein.RotatedTorsions>
[ 6907 6896 6895 6894 ] final  -74.70 input  -60.11 | X-H torsion
[ 7974 7965 7964 7962 ] final  121.45 input  175.53 | X-H torsion
[ 8008 7997 7996 7995 ] final  -59.02 input   59.86 | X-H torsion
[ 10167 10162 10161 10158 ] final    1.72 input  -65.29 | X-H torsion
[ 10718 10713 10712 10709 ] final   62.40 input   66.30 | X-H torsion
[ 10763 10752 10751 10750 ] final   56.21 input  -60.55 | X-H torsion
[ 11005 11000 10999 10996 ] final -135.74 input  -57.11 | X-H torsion

> <Gold.Protein.ActiveResidues>
 VAL166  LYS551  ARG553  GLY616  TRP617  ASP618  TYR619  PRO620  LYS621  CYS622 
 ASP623  PHE694  ASN695  SER759  ASP760  ASP761  ALA762  ILE779  LEU786  VAL792 
 PHE793  MET794  SER795  GLU796  ALA797  LYS798  CYS799  TRP800  GLU811  SER814 

> <Gold.Protein.RotatedAtoms>
  150.7084  134.4830  159.5479 H   0  0  0  0  0  0  0  0  0  0  0  0  # atno 6907 bound_to 6896
  152.2464  134.8174  160.0462 H   0  0  0  0  0  0  0  0  0  0  0  0  # atno 6908 bound_to 6896
  151.8938  133.3487  159.3844 H   0  0  0  0  0  0  0  0  0  0  0  0  # atno 6909 bound_to 6896
  145.1191  139.3401  143.4723 H   0  0  0  0  0  0  0  0  0  0  0  0  # atno 7974 bound_to 7965
  154.4334  140.1071  156.6050 H   0  0  0  0  0  0  0  0  0  0  0  0  # atno 8008 bound_to 7997
  155.5871  140.3491  155.4537 H   0  0  0  0  0  0  0  0  0  0  0  0  # atno 8009 bound_to 7997
  156.0275  140.1253  157.0283 H   0  0  0  0  0  0  0  0  0  0  0  0  # atno 8010 bound_to 7997
  140.6669  143.7154  150.7846 H   0  0  0  0  0  0  0  0  0  0  0  0  # atno 10167 bound_to 10162
  157.5898  130.9048  149.9583 H   0  0  0  0  0  0  0  0  0  0  0  0  # atno 10718 bound_to 10713
  152.9828  135.5684  154.5192 H   0  0  0  0  0  0  0  0  0  0  0  0  # atno 10763 bound_to 10752
  154.4683  135.2784  155.1664 H   0  0  0  0  0  0  0  0  0  0  0  0  # atno 10764 bound_to 10752
  154.3222  135.6266  153.5566 H   0  0  0  0  0  0  0  0  0  0  0  0  # atno 10765 bound_to 10752
  140.8870  134.1860  157.4553 H   0  0  0  0  0  0  0  0  0  0  0  0  # atno 11005 bound_to 11000
  146.3522  140.1143  142.8602 LP  0  0  0  0  0  0  0  0  0  0  0  0  # atno 17320 bound_to 7965
  145.0760  140.9188  143.4853 LP  0  0  0  0  0  0  0  0  0  0  0  0  # atno 17321 bound_to 7965
  140.0833  143.4948  152.2518 LP  0  0  0  0  0  0  0  0  0  0  0  0  # atno 17342 bound_to 10162
  139.5922  144.7554  151.3373 LP  0  0  0  0  0  0  0  0  0  0  0  0  # atno 17343 bound_to 10162
  156.0951  130.3660  150.0322 LP  0  0  0  0  0  0  0  0  0  0  0  0  # atno 17370 bound_to 10713
  156.8447  130.9438  151.3629 LP  0  0  0  0  0  0  0  0  0  0  0  0  # atno 17371 bound_to 10713
  139.8725  134.9842  156.5229 LP  0  0  0  0  0  0  0  0  0  0  0  0  # atno 17394 bound_to 11000
  140.8393  133.8217  155.9059 LP  0  0  0  0  0  0  0  0  0  0  0  0  # atno 17395 bound_to 11000

$$$$
