AV-unprocessed.smi:701|AV-procd|sdf|3412|dock4
  -GOLD-   22720 0393D 1   1.00000     0.00000
 Structure written by MMmdl.
 48 50  0  0  0  0  0  0  0  0  2 V2000
  141.3142  138.2555  153.2071 C   0  0  0  0  0  0  0  0  0  0  0  0
  142.0870  137.0821  153.8129 C   0  0  0  0  0  0  0  0  0  0  0  0
  143.1990  136.7924  152.9829 O   0  0  0  0  0  0  0  0  0  0  0  0
  144.0537  135.7915  153.5220 C   0  0  2  0  0  0  0  0  0  0  0  0
  144.8933  136.3197  154.6923 C   0  0  0  0  0  0  0  0  0  0  0  0
  145.9330  136.7243  153.6465 C   0  0  1  0  0  0  0  0  0  0  0  0
  147.2975  136.4871  154.0974 N   0  0  0  0  0  0  0  0  0  0  0  0
  147.8494  137.0189  155.1995 C   0  0  0  0  0  0  0  0  0  0  0  0
  147.2202  137.7285  155.9836 O   0  0  0  0  0  0  0  0  0  0  0  0
  149.3365  136.7321  155.4712 C   0  0  0  0  0  0  0  0  0  0  0  0
  149.6637  135.3050  155.6483 N   0  0  0  0  0  0  0  0  0  0  0  0
  149.4898  134.4542  154.5425 C   0  0  0  0  0  0  0  0  0  0  0  0
  149.7855  133.1419  154.6022 C   0  0  0  0  0  0  0  0  0  0  0  0
  150.2996  132.6067  155.8568 C   0  0  0  0  0  0  0  0  0  0  0  0
  150.5791  131.4118  155.9284 O   0  0  0  0  0  0  0  0  0  0  0  0
  150.4486  133.4719  156.9021 N   0  5  0  0  0  0  0  0  0  0  0  0
  150.1445  134.8044  156.8269 C   0  0  0  0  0  0  0  0  0  0  0  0
  150.2974  135.5695  157.7793 O   0  0  0  0  0  0  0  0  0  0  0  0
  145.3666  135.6252  152.7097 C   0  0  0  0  0  0  0  0  0  0  0  0
  145.3119  135.9898  151.2156 C   0  0  0  0  0  0  0  0  0  0  0  0
  144.5140  134.9711  150.3851 C   0  0  0  0  0  0  0  0  0  0  0  0
  145.1084  133.5632  150.5201 C   0  0  0  0  0  0  0  0  0  0  0  0
  145.2492  133.1568  151.9927 C   0  0  0  0  0  0  0  0  0  0  0  0
  146.0155  134.2226  152.7955 C   0  0  0  0  0  0  0  0  0  0  0  0
  140.4478  138.5090  153.8182 H   0  0  0  0  0  0  0  0  0  0  0  0
  140.9585  138.0137  152.2052 H   0  0  0  0  0  0  0  0  0  0  0  0
  141.9444  139.1422  153.1350 H   0  0  0  0  0  0  0  0  0  0  0  0
  142.4162  137.3353  154.8214 H   0  0  0  0  0  0  0  0  0  0  0  0
  141.4383  136.2082  153.8871 H   0  0  0  0  0  0  0  0  0  0  0  0
  143.5400  134.8510  153.7266 H   0  0  0  0  0  0  0  0  0  0  0  0
  144.4587  137.1543  155.2426 H   0  0  0  0  0  0  0  0  0  0  0  0
  145.2284  135.5277  155.3645 H   0  0  0  0  0  0  0  0  0  0  0  0
  145.7539  137.7351  153.2725 H   0  0  0  0  0  0  0  0  0  0  0  0
  147.8850  135.9190  153.5037 H   0  0  0  0  0  0  0  0  0  0  0  0
  149.9262  137.1532  154.6552 H   0  0  0  0  0  0  0  0  0  0  0  0
  149.6327  137.2983  156.3550 H   0  0  0  0  0  0  0  0  0  0  0  0
  149.1117  134.9313  153.6502 H   0  0  0  0  0  0  0  0  0  0  0  0
  149.6495  132.5028  153.7425 H   0  0  0  0  0  0  0  0  0  0  0  0
  144.8791  136.9806  151.0755 H   0  0  0  0  0  0  0  0  0  0  0  0
  146.3242  136.0614  150.8156 H   0  0  0  0  0  0  0  0  0  0  0  0
  143.4743  134.9648  150.7144 H   0  0  0  0  0  0  0  0  0  0  0  0
  144.5049  135.2708  149.3370 H   0  0  0  0  0  0  0  0  0  0  0  0
  144.4886  132.8404  149.9886 H   0  0  0  0  0  0  0  0  0  0  0  0
  146.0895  133.5388  150.0442 H   0  0  0  0  0  0  0  0  0  0  0  0
  144.2603  133.0062  152.4262 H   0  0  0  0  0  0  0  0  0  0  0  0
  145.7640  132.1982  152.0639 H   0  0  0  0  0  0  0  0  0  0  0  0
  147.0412  134.2622  152.4264 H   0  0  0  0  0  0  0  0  0  0  0  0
  146.0929  133.8916  153.8317 H   0  0  0  0  0  0  0  0  0  0  0  0
  1  2  1  0  0  0  0
  1 25  1  0  0  0  0
  1 26  1  0  0  0  0
  1 27  1  0  0  0  0
  2  3  1  0  0  0  0
  2 28  1  0  0  0  0
  2 29  1  0  0  0  0
  3  4  1  0  0  0  0
  4 19  1  0  0  0  0
  4  5  1  0  0  0  0
  4 30  1  0  0  0  0
  5  6  1  0  0  0  0
  5 31  1  0  0  0  0
  5 32  1  0  0  0  0
  6  7  1  0  0  0  0
  6 19  1  0  0  0  0
  6 33  1  0  0  0  0
  7  8  1  0  0  0  0
  7 34  1  0  0  0  0
  8  9  2  0  0  0  0
  8 10  1  0  0  0  0
 10 11  1  0  0  0  0
 10 35  1  0  0  0  0
 10 36  1  0  0  0  0
 11 17  1  0  0  0  0
 11 12  1  0  0  0  0
 12 13  2  0  0  0  0
 12 37  1  0  0  0  0
 13 14  1  0  0  0  0
 13 38  1  0  0  0  0
 14 15  2  0  0  0  0
 14 16  1  0  0  0  0
 16 17  1  0  0  0  0
 17 18  2  0  0  0  0
 19 24  1  0  0  0  0
 19 20  1  0  0  0  0
 20 21  1  0  0  0  0
 20 39  1  0  0  0  0
 20 40  1  0  0  0  0
 21 22  1  0  0  0  0
 21 41  1  0  0  0  0
 21 42  1  0  0  0  0
 22 23  1  0  0  0  0
 22 43  1  0  0  0  0
 22 44  1  0  0  0  0
 23 24  1  0  0  0  0
 23 45  1  0  0  0  0
 23 46  1  0  0  0  0
 24 47  1  0  0  0  0
 24 48  1  0  0  0  0
M  CHG  1  16  -1
M  END
> <s_m_source_file>
AV-unprocessed.smi

> <i_m_source_file_index>
701

> <i_lp_mmshare_version>
43012

> <i_f3d_flags>
0

> <s_epik_input>
W0NIMl0xW0NIMl1bQ0gyXVtDSDJdW0NIMl1DMTJbQ0BIXShPW0NIMl1bQ0gzXSlbQ0gyXVtDQEhdMltOSF1DKD1PKVtDSDJdbjNbY0hdW2NIXWMoPU8pW25IXWMzPU8=

> <s_epik_cmdline>
J2VwaWtfcHl0aG9uJywgJy1waCcsICc3LjAnLCAnLXRuJywgJzgnLCAnLW1hJywgJzIwMCcsICctbWV0YWxfYmluZGluZycsICctaW1hZScsICc8aW5maWxlLm1hZT4nLCAnLW9tYWUnLCAnPG91dGZpbGUubWFlPic=

> <r_lp_tautomer_probability>
0.999537

> <r_epik_Ionization_Penalty>
3.12423

> <r_epik_Ionization_Penalty_Charging>
2.92877e-08

> <r_epik_Ionization_Penalty_Neutral>
3.12423

> <r_epik_State_Penalty>
3.12332

> <r_epik_Charging_Adjusted_Penalty>
3.12332

> <i_epik_Tot_Q>
-1

> <i_epik_Tot_abs_Q>
1

> <r_epik_Metal_State_Penalty>
0.463873

> <b_epik_Metal_Only>
1

> <s_lp_Force_Field>
OPLS_2005

> <r_lp_Energy>
34.5124

> <b_lp_Chiralities_Consistent>
1

> <s_lp_Variant>
AV-unprocessed.smi:701-5

> <Gold.Version>
5.8.1

> <Gold.Id.Protein>
6NUR|6NUR_protein|mol2

> <Gold.PLP.Fitness>
37.5476

> <Gold.PLP.PLP>
-30.4517

> <Gold.PLP.part.hbond>
-2.1874

> <Gold.PLP.part.metal>
0.0000

> <Gold.PLP.part.buried>
-5.1009

> <Gold.PLP.part.nonpolar>
-23.6727

> <Gold.PLP.part.repulsive>
0.1721

> <Gold.PLP.ligand.clash>
0.0000

> <Gold.PLP.ligand.torsion>
0.2540

> <Gold.PLP.Chemscore.Hbond>
1.4240

> <Gold.PLP.Chemscore.CHOScore>
0.9971

> <Gold.PLP.Chemscore.Metal>
0.0000

> <Gold.Chemscore.Hbonds>
donor molecule, donor type, donor heavy atom, donor atom, acceptor molecule, acceptor atom, score
      L1  H     7    34       P1  7948  0.72
      P1  H  6896  6909       L1    18  0.66
      L1  C    12    37       P1  7948  1.00

> <Gold.PLP.Chemscore.Internal.Correction>
0.3404

> <Gold.Rescore>
     Score         DG    S(hbond)    S(metal)    S(lipo)     H(rot)  DE(clash)    DE(int)     intcor
     11.52     -13.16       1.67        0.00      62.55       2.04       0.06       1.59       ----

> <Gold.Chemscore.Fitness>
11.5208

> <Gold.Chemscore.DG>
-13.1642

> <Gold.Chemscore.ZeroCoef>
-5.4800

> <Gold.Chemscore.Hbond>
1.6732

> <Gold.Chemscore.Metal>
0.0000

> <Gold.Chemscore.Lipo>
62.5473

> <Gold.Chemscore.Internal_Hbond>
0.0000

> <Gold.Chemscore.DEClash>
0.0574

> <Gold.Chemscore.DEInternal>
1.5860

> <Gold.Chemscore.Rot>
2.0399

> <Gold.Chemscore.Internal.Correction>
   9.000000E+99

> <Gold.Chemscore.Hbonds>
donor molecule, donor type, donor heavy atom, donor atom, acceptor molecule, acceptor atom, score
      L1  H     7    34       P1  7948  0.70
      P1  H  6896  6909       L1    18  0.54

> <Gold.Chemscore.Hbond.Weighted>
-5.5884

> <Gold.Chemscore.Metal.Weighted>
-0.0000

> <Gold.Chemscore.Lipo.Weighted>
-7.3180

> <Gold.Chemscore.Internal_Hbond.Weighted>
0.0000

> <Gold.Chemscore.DEClash.Weighted>
0.0574

> <Gold.Chemscore.DEInternal.Weighted>
1.5860

> <Gold.Chemscore.Rot.Weighted>
5.2222

> <Gold.Chemscore.Internal.Correction.Weighted>
   9.000000E+99

> <Gold.Protein.RotatedTorsions>
[ 6907 6896 6895 6894 ] final   50.59 input  -60.11 | X-H torsion
[ 7974 7965 7964 7962 ] final  -41.27 input  175.53 | X-H torsion
[ 8008 7997 7996 7995 ] final   -7.83 input   59.86 | X-H torsion
[ 10167 10162 10161 10158 ] final   26.36 input  -65.29 | X-H torsion
[ 10718 10713 10712 10709 ] final -165.47 input   66.30 | X-H torsion
[ 10763 10752 10751 10750 ] final   25.42 input  -60.55 | X-H torsion
[ 11005 11000 10999 10996 ] final -138.63 input  -57.11 | X-H torsion

> <Gold.Protein.ActiveResidues>
 VAL166  LYS551  ARG553  GLY616  TRP617  ASP618  TYR619  PRO620  LYS621  CYS622 
 ASP623  PHE694  ASN695  SER759  ASP760  ASP761  ALA762  ILE779  LEU786  VAL792 
 PHE793  MET794  SER795  GLU796  ALA797  LYS798  CYS799  TRP800  GLU811  SER814 

> <Gold.Protein.RotatedAtoms>
  152.3035  134.7583  160.0352 H   0  0  0  0  0  0  0  0  0  0  0  0  # atno 6907 bound_to 6896
  151.8088  133.3374  159.3557 H   0  0  0  0  0  0  0  0  0  0  0  0  # atno 6908 bound_to 6896
  150.7285  134.5613  159.5888 H   0  0  0  0  0  0  0  0  0  0  0  0  # atno 6909 bound_to 6896
  146.0227  140.6830  142.9170 H   0  0  0  0  0  0  0  0  0  0  0  0  # atno 7974 bound_to 7965
  154.5800  140.2397  155.8067 H   0  0  0  0  0  0  0  0  0  0  0  0  # atno 8008 bound_to 7997
  156.2172  140.3008  155.9823 H   0  0  0  0  0  0  0  0  0  0  0  0  # atno 8009 bound_to 7997
  155.2558  140.0412  157.2982 H   0  0  0  0  0  0  0  0  0  0  0  0  # atno 8010 bound_to 7997
  140.5029  144.0286  150.6340 H   0  0  0  0  0  0  0  0  0  0  0  0  # atno 10167 bound_to 10162
  156.6539  130.9019  151.3018 H   0  0  0  0  0  0  0  0  0  0  0  0  # atno 10718 bound_to 10713
  153.0693  135.6583  154.0283 H   0  0  0  0  0  0  0  0  0  0  0  0  # atno 10763 bound_to 10752
  153.9933  135.2944  155.3411 H   0  0  0  0  0  0  0  0  0  0  0  0  # atno 10764 bound_to 10752
  154.7062  135.5224  153.8668 H   0  0  0  0  0  0  0  0  0  0  0  0  # atno 10765 bound_to 10752
  140.8597  134.2184  157.4714 H   0  0  0  0  0  0  0  0  0  0  0  0  # atno 11005 bound_to 11000
  144.6996  140.3594  143.7166 LP  0  0  0  0  0  0  0  0  0  0  0  0  # atno 17320 bound_to 7965
  145.7167  139.1699  143.2507 LP  0  0  0  0  0  0  0  0  0  0  0  0  # atno 17321 bound_to 7965
  140.3587  143.2920  152.0407 LP  0  0  0  0  0  0  0  0  0  0  0  0  # atno 17342 bound_to 10162
  139.4876  144.6319  151.7052 LP  0  0  0  0  0  0  0  0  0  0  0  0  # atno 17343 bound_to 10162
  157.7132  130.9465  150.1161 LP  0  0  0  0  0  0  0  0  0  0  0  0  # atno 17370 bound_to 10713
  156.2063  130.3663  149.8726 LP  0  0  0  0  0  0  0  0  0  0  0  0  # atno 17371 bound_to 10713
  139.8706  134.9723  156.4770 LP  0  0  0  0  0  0  0  0  0  0  0  0  # atno 17394 bound_to 11000
  140.8697  133.7998  155.9351 LP  0  0  0  0  0  0  0  0  0  0  0  0  # atno 17395 bound_to 11000

$$$$
