AV-unprocessed.smi:730|AV-procd|sdf|3522|dock9
  -GOLD-   22720 0513D 1   1.00000     0.00000
 Structure written by MMmdl.
 40 41  0  0  0  0  0  0  0  0  1 V2000
  151.1415  145.3442  159.9186 C   0  0  0  0  0  0  0  0  0  0  0  0
  151.8409  144.2326  159.1111 C   0  0  0  0  0  0  0  0  0  0  0  0
  150.7869  143.5365  158.2298 C   0  0  0  0  0  0  0  0  0  0  0  0
  152.9059  144.8846  158.2094 C   0  0  0  0  0  0  0  0  0  0  0  0
  152.4852  143.2301  160.0275 C   0  0  0  0  0  0  0  0  0  0  0  0
  153.2935  142.1455  159.8188 C   0  0  0  0  0  0  0  0  0  0  0  0
  153.5329  141.6599  161.1314 C   0  0  0  0  0  0  0  0  0  0  0  0
  154.3469  140.5191  161.3487 N   0  0  0  0  0  0  0  0  0  0  0  0
  154.9224  139.7359  160.4206 C   0  0  0  0  0  0  0  0  0  0  0  0
  154.8290  139.8921  159.2028 O   0  0  0  0  0  0  0  0  0  0  0  0
  155.6230  138.7430  160.9873 N   0  0  0  0  0  0  0  0  0  0  0  0
  156.3743  137.7235  160.2582 C   0  0  2  0  0  0  0  0  0  0  0  0
  155.8955  136.3129  160.6506 C   0  0  0  0  0  0  0  0  0  0  0  0
  156.9146  135.8046  161.6685 C   0  0  0  0  0  0  0  0  0  0  0  0
  158.2353  136.3889  161.1788 C   0  0  0  0  0  0  0  0  0  0  0  0
  157.8709  137.7802  160.6415 C   0  0  1  0  0  0  0  0  0  0  0  0
  158.6810  138.0993  159.5289 O   0  0  0  0  0  0  0  0  0  0  0  0
  152.9274  142.3793  162.0625 N   0  0  0  0  0  0  0  0  0  0  0  0
  152.2555  143.3868  161.3618 O   0  0  0  0  0  0  0  0  0  0  0  0
  150.6685  146.0756  159.2623 H   0  0  0  0  0  0  0  0  0  0  0  0
  151.8491  145.8825  160.5505 H   0  0  0  0  0  0  0  0  0  0  0  0
  150.3641  144.9370  160.5662 H   0  0  0  0  0  0  0  0  0  0  0  0
  150.0111  143.0684  158.8366 H   0  0  0  0  0  0  0  0  0  0  0  0
  151.2341  142.7566  157.6121 H   0  0  0  0  0  0  0  0  0  0  0  0
  150.2980  144.2434  157.5586 H   0  0  0  0  0  0  0  0  0  0  0  0
  152.4640  145.6240  157.5408 H   0  0  0  0  0  0  0  0  0  0  0  0
  153.4112  144.1445  157.5876 H   0  0  0  0  0  0  0  0  0  0  0  0
  153.6693  145.3910  158.8011 H   0  0  0  0  0  0  0  0  0  0  0  0
  153.6564  141.7623  158.8767 H   0  0  0  0  0  0  0  0  0  0  0  0
  154.5079  140.2732  162.3140 H   0  0  0  0  0  0  0  0  0  0  0  0
  155.6444  138.6889  161.9950 H   0  0  0  0  0  0  0  0  0  0  0  0
  156.2383  137.8729  159.1849 H   0  0  0  0  0  0  0  0  0  0  0  0
  154.8753  136.2861  161.0361 H   0  0  0  0  0  0  0  0  0  0  0  0
  155.9212  135.6698  159.7699 H   0  0  0  0  0  0  0  0  0  0  0  0
  156.6778  136.1984  162.6578 H   0  0  0  0  0  0  0  0  0  0  0  0
  156.9344  134.7165  161.7355 H   0  0  0  0  0  0  0  0  0  0  0  0
  158.9945  136.4268  161.9605 H   0  0  0  0  0  0  0  0  0  0  0  0
  158.6215  135.7584  160.3759 H   0  0  0  0  0  0  0  0  0  0  0  0
  158.0444  138.5239  161.4213 H   0  0  0  0  0  0  0  0  0  0  0  0
  159.5572  138.2756  159.8364 H   0  0  0  0  0  0  0  0  0  0  0  0
  1  2  1  0  0  0  0
  1 20  1  0  0  0  0
  1 21  1  0  0  0  0
  1 22  1  0  0  0  0
  2  3  1  0  0  0  0
  2  4  1  0  0  0  0
  2  5  1  0  0  0  0
  3 23  1  0  0  0  0
  3 24  1  0  0  0  0
  3 25  1  0  0  0  0
  4 26  1  0  0  0  0
  4 27  1  0  0  0  0
  4 28  1  0  0  0  0
  5 19  1  0  0  0  0
  5  6  2  0  0  0  0
  6  7  1  0  0  0  0
  6 29  1  0  0  0  0
  7  8  1  0  0  0  0
  7 18  2  0  0  0  0
  8  9  1  0  0  0  0
  8 30  1  0  0  0  0
  9 10  2  0  0  0  0
  9 11  1  0  0  0  0
 11 12  1  0  0  0  0
 11 31  1  0  0  0  0
 12 16  1  0  0  0  0
 12 13  1  0  0  0  0
 12 32  1  0  0  0  0
 13 14  1  0  0  0  0
 13 33  1  0  0  0  0
 13 34  1  0  0  0  0
 14 15  1  0  0  0  0
 14 35  1  0  0  0  0
 14 36  1  0  0  0  0
 15 16  1  0  0  0  0
 15 37  1  0  0  0  0
 15 38  1  0  0  0  0
 16 17  1  0  0  0  0
 16 39  1  0  0  0  0
 17 40  1  0  0  0  0
 18 19  1  0  0  0  0
M  END
> <s_m_source_file>
AV-unprocessed.smi

> <i_m_source_file_index>
730

> <i_lp_mmshare_version>
43012

> <i_f3d_flags>
0

> <s_epik_input>
W0NIM11DKFtDSDNdKShbQ0gzXSljMVtjSF1jKG5vMSlbTkhdQyg9TylbTkhdW0NAQEhdMltDSDJdW0NIMl1bQ0gyXVtDQEhdMltPSF0=

> <s_epik_cmdline>
J2VwaWtfcHl0aG9uJywgJy1waCcsICc3LjAnLCAnLXRuJywgJzgnLCAnLW1hJywgJzIwMCcsICctbWV0YWxfYmluZGluZycsICctaW1hZScsICc8aW5maWxlLm1hZT4nLCAnLW9tYWUnLCAnPG91dGZpbGUubWFlPic=

> <r_lp_tautomer_probability>
1

> <r_epik_Ionization_Penalty>
2.23071e-05

> <r_epik_Ionization_Penalty_Charging>
0

> <r_epik_Ionization_Penalty_Neutral>
2.23071e-05

> <r_epik_State_Penalty>
-0

> <r_epik_Charging_Adjusted_Penalty>
0

> <i_epik_Tot_Q>
0

> <i_epik_Tot_abs_Q>
0

> <r_epik_Metal_State_Penalty>
-0

> <b_epik_Metal_Only>
0

> <s_lp_Force_Field>
OPLS_2005

> <r_lp_Energy>
16.5614

> <b_lp_Chiralities_Consistent>
1

> <s_lp_Variant>
AV-unprocessed.smi:730-1

> <Gold.Version>
5.8.1

> <Gold.Id.Protein>
6NUR|6NUR_protein|mol2

> <Gold.PLP.Fitness>
37.1764

> <Gold.PLP.PLP>
-34.3912

> <Gold.PLP.part.hbond>
-2.0000

> <Gold.PLP.part.metal>
0.0000

> <Gold.PLP.part.buried>
-6.0802

> <Gold.PLP.part.nonpolar>
-26.5690

> <Gold.PLP.part.repulsive>
0.1719

> <Gold.PLP.ligand.clash>
0.0000

> <Gold.PLP.ligand.torsion>
0.1105

> <Gold.PLP.Chemscore.Hbond>
1.0000

> <Gold.PLP.Chemscore.CHOScore>
0.0000

> <Gold.PLP.Chemscore.Metal>
0.0000

> <Gold.Chemscore.Hbonds>
donor molecule, donor type, donor heavy atom, donor atom, acceptor molecule, acceptor atom, score
      P1  H  7997  8010       L1    10  1.00

> <Gold.PLP.Chemscore.Internal.Correction>
0.0061

> <Gold.Rescore>
     Score         DG    S(hbond)    S(metal)    S(lipo)     H(rot)  DE(clash)    DE(int)     intcor
     12.64     -14.43       1.00        0.00      85.55       1.71       0.33       1.46       ----

> <Gold.Chemscore.Fitness>
12.6427

> <Gold.Chemscore.DG>
-14.4306

> <Gold.Chemscore.ZeroCoef>
-5.4800

> <Gold.Chemscore.Hbond>
0.9957

> <Gold.Chemscore.Metal>
0.0000

> <Gold.Chemscore.Lipo>
85.5483

> <Gold.Chemscore.Internal_Hbond>
0.0000

> <Gold.Chemscore.DEClash>
0.3257

> <Gold.Chemscore.DEInternal>
1.4622

> <Gold.Chemscore.Rot>
1.7125

> <Gold.Chemscore.Internal.Correction>
   9.000000E+99

> <Gold.Chemscore.Hbonds>
donor molecule, donor type, donor heavy atom, donor atom, acceptor molecule, acceptor atom, score
      P1  H  7997  8010       L1    10  0.98

> <Gold.Chemscore.Hbond.Weighted>
-3.3255

> <Gold.Chemscore.Metal.Weighted>
-0.0000

> <Gold.Chemscore.Lipo.Weighted>
-10.0092

> <Gold.Chemscore.Internal_Hbond.Weighted>
0.0000

> <Gold.Chemscore.DEClash.Weighted>
0.3257

> <Gold.Chemscore.DEInternal.Weighted>
1.4622

> <Gold.Chemscore.Rot.Weighted>
4.3841

> <Gold.Chemscore.Internal.Correction.Weighted>
   9.000000E+99

> <Gold.Protein.RotatedTorsions>
[ 6907 6896 6895 6894 ] final  166.40 input  -60.11 | X-H torsion
[ 7974 7965 7964 7962 ] final    3.27 input  175.53 | X-H torsion
[ 8008 7997 7996 7995 ] final   -3.16 input   59.86 | X-H torsion
[ 10167 10162 10161 10158 ] final  145.80 input  -65.29 | X-H torsion
[ 10718 10713 10712 10709 ] final   90.56 input   66.30 | X-H torsion
[ 10763 10752 10751 10750 ] final   96.69 input  -60.55 | X-H torsion
[ 11005 11000 10999 10996 ] final -112.18 input  -57.11 | X-H torsion

> <Gold.Protein.ActiveResidues>
 VAL166  LYS551  ARG553  GLY616  TRP617  ASP618  TYR619  PRO620  LYS621  CYS622 
 ASP623  PHE694  ASN695  SER759  ASP760  ASP761  ALA762  ILE779  LEU786  VAL792 
 PHE793  MET794  SER795  GLU796  ALA797  LYS798  CYS799  TRP800  GLU811  SER814 

> <Gold.Protein.RotatedAtoms>
  151.8795  133.3492  159.3761 H   0  0  0  0  0  0  0  0  0  0  0  0  # atno 6907 bound_to 6896
  150.7131  134.5032  159.5581 H   0  0  0  0  0  0  0  0  0  0  0  0  # atno 6908 bound_to 6896
  152.2581  134.8063  160.0486 H   0  0  0  0  0  0  0  0  0  0  0  0  # atno 6909 bound_to 6896
  146.2445  140.0711  142.8362 H   0  0  0  0  0  0  0  0  0  0  0  0  # atno 7974 bound_to 7965
  154.6279  140.2516  155.7470 H   0  0  0  0  0  0  0  0  0  0  0  0  # atno 8008 bound_to 7997
  156.2463  140.2913  156.0536 H   0  0  0  0  0  0  0  0  0  0  0  0  # atno 8009 bound_to 7997
  155.1792  140.0388  157.2869 H   0  0  0  0  0  0  0  0  0  0  0  0  # atno 8010 bound_to 7997
  139.4919  144.5875  151.6747 H   0  0  0  0  0  0  0  0  0  0  0  0  # atno 10167 bound_to 10162
  157.6959  131.0375  150.3596 H   0  0  0  0  0  0  0  0  0  0  0  0  # atno 10718 bound_to 10713
  153.2679  135.4210  155.0959 H   0  0  0  0  0  0  0  0  0  0  0  0  # atno 10763 bound_to 10752
  154.8445  135.3465  154.6285 H   0  0  0  0  0  0  0  0  0  0  0  0  # atno 10764 bound_to 10752
  153.6705  135.7044  153.5206 H   0  0  0  0  0  0  0  0  0  0  0  0  # atno 10765 bound_to 10752
  141.0691  133.9410  157.2521 H   0  0  0  0  0  0  0  0  0  0  0  0  # atno 11005 bound_to 11000
  145.0816  140.9224  143.4822 LP  0  0  0  0  0  0  0  0  0  0  0  0  # atno 17320 bound_to 7965
  145.0865  139.2921  143.5757 LP  0  0  0  0  0  0  0  0  0  0  0  0  # atno 17321 bound_to 7965
  140.5495  144.0449  150.6121 LP  0  0  0  0  0  0  0  0  0  0  0  0  # atno 17342 bound_to 10162
  140.3498  143.2970  152.0499 LP  0  0  0  0  0  0  0  0  0  0  0  0  # atno 17343 bound_to 10162
  156.4034  130.3920  149.6943 LP  0  0  0  0  0  0  0  0  0  0  0  0  # atno 17370 bound_to 10713
  156.4253  130.7788  151.2807 LP  0  0  0  0  0  0  0  0  0  0  0  0  # atno 17371 bound_to 10713
  139.9505  135.0176  156.8980 LP  0  0  0  0  0  0  0  0  0  0  0  0  # atno 17394 bound_to 11000
  140.5712  134.0441  155.7431 LP  0  0  0  0  0  0  0  0  0  0  0  0  # atno 17395 bound_to 11000

$$$$
