AV-unprocessed.smi:56|AV-procd|sdf|580|dock3
  -GOLD-   2262016483D 1   1.00000     0.00000
 Structure written by MMmdl.
 23 24  0  0  0  0  0  0  0  0  2 V2000
  146.8019  132.9015  149.7155 O   0  0  0  0  0  0  0  0  0  0  0  0
  145.8089  132.9344  150.7268 C   0  0  2  0  0  0  0  0  0  0  0  0
  146.4542  132.8698  152.0806 C   0  0  0  0  0  0  0  0  0  0  0  0
  146.3338  131.9783  153.1121 C   0  0  0  0  0  0  0  0  0  0  0  0
  147.2084  132.4826  154.1175 C   0  0  0  0  0  0  0  0  0  0  0  0
  147.8250  133.5933  153.7497 N   0  0  0  0  0  0  0  0  0  0  0  0
  147.3599  133.8177  152.5070 N   0  0  0  0  0  0  0  0  0  0  0  0
  144.7871  131.8302  150.4298 C   0  0  0  0  0  0  0  0  0  0  0  0
  143.8982  132.4194  149.3258 C   0  0  0  0  0  0  0  0  0  0  0  0
  144.0276  133.8880  149.4212 N   0  3  0  0  0  0  0  0  0  0  0  0
  144.9622  134.1976  150.5203 C   0  0  0  0  0  0  0  0  0  0  0  0
  147.6717  134.6090  151.9619 H   0  0  0  0  0  0  0  0  0  0  0  0
  147.4885  132.3073  149.9761 H   0  0  0  0  0  0  0  0  0  0  0  0
  145.7153  131.0939  153.1487 H   0  0  0  0  0  0  0  0  0  0  0  0
  147.4117  132.0756  155.0972 H   0  0  0  0  0  0  0  0  0  0  0  0
  145.2406  130.8751  150.1613 H   0  0  0  0  0  0  0  0  0  0  0  0
  144.1627  131.6583  151.3078 H   0  0  0  0  0  0  0  0  0  0  0  0
  144.2471  132.1038  148.3421 H   0  0  0  0  0  0  0  0  0  0  0  0
  142.8586  132.1072  149.4295 H   0  0  0  0  0  0  0  0  0  0  0  0
  144.4101  134.2349  148.5532 H   0  0  0  0  0  0  0  0  0  0  0  0
  144.3612  134.3910  151.4101 H   0  0  0  0  0  0  0  0  0  0  0  0
  145.5534  135.0925  150.3217 H   0  0  0  0  0  0  0  0  0  0  0  0
  143.1304  134.3195  149.5931 H   0  0  0  0  0  0  0  0  0  0  0  0
  1  2  1  0  0  0  0
  1 13  1  0  0  0  0
  2 11  1  0  0  0  0
  2  3  1  0  0  0  0
  2  8  1  0  0  0  0
  3  7  1  0  0  0  0
  3  4  2  0  0  0  0
  4  5  1  0  0  0  0
  4 14  1  0  0  0  0
  5  6  2  0  0  0  0
  5 15  1  0  0  0  0
  6  7  1  0  0  0  0
  7 12  1  0  0  0  0
  8  9  1  0  0  0  0
  8 16  1  0  0  0  0
  8 17  1  0  0  0  0
  9 10  1  0  0  0  0
  9 18  1  0  0  0  0
  9 19  1  0  0  0  0
 10 11  1  0  0  0  0
 10 20  1  0  0  0  0
 10 23  1  0  0  0  0
 11 21  1  0  0  0  0
 11 22  1  0  0  0  0
M  CHG  1  10   1
M  END
> <s_m_source_file>
AV-unprocessed.smi

> <i_m_source_file_index>
56

> <i_lp_mmshare_version>
43012

> <i_f3d_flags>
0

> <s_epik_input>
W0NIMl0xW05IXVtDSDJdW0NIMl1bQ0BAXTEoW09IXSljMltjSF1bY0hdbltuSF0y

> <s_epik_cmdline>
J2VwaWtfcHl0aG9uJywgJy1waCcsICc3LjAnLCAnLXRuJywgJzgnLCAnLW1hJywgJzIwMCcsICctbWV0YWxfYmluZGluZycsICctaW1hZScsICc8aW5maWxlLm1hZT4nLCAnLW9tYWUnLCAnPG91dGZpbGUubWFlPic=

> <r_lp_tautomer_probability>
0.5

> <r_epik_Ionization_Penalty>
0.00599842

> <r_epik_Ionization_Penalty_Charging>
0.00599115

> <r_epik_Ionization_Penalty_Neutral>
7.26593e-06

> <r_epik_State_Penalty>
0.41068

> <r_epik_Charging_Adjusted_Penalty>
0.416671

> <i_epik_Tot_Q>
1

> <i_epik_Tot_abs_Q>
1

> <r_epik_Metal_State_Penalty>
0.410678

> <b_epik_Metal_Only>
0

> <s_lp_Force_Field>
OPLS_2005

> <r_lp_Energy>
26.3948

> <b_lp_Chiralities_Consistent>
1

> <s_lp_Variant>
AV-unprocessed.smi:56-4

> <Gold.Version>
5.8.1

> <Gold.Id.Protein>
6NUR|6NUR_protein|mol2

> <Gold.PLP.Fitness>
32.9870

> <Gold.PLP.PLP>
-20.1761

> <Gold.PLP.part.hbond>
-5.8924

> <Gold.PLP.part.metal>
0.0000

> <Gold.PLP.part.buried>
-0.5305

> <Gold.PLP.part.nonpolar>
-13.8791

> <Gold.PLP.part.repulsive>
0.2467

> <Gold.PLP.ligand.clash>
0.0000

> <Gold.PLP.ligand.torsion>
0.0073

> <Gold.PLP.Chemscore.Hbond>
4.2703

> <Gold.PLP.Chemscore.CHOScore>
0.0000

> <Gold.PLP.Chemscore.Metal>
0.0000

> <Gold.Chemscore.Hbonds>
donor molecule, donor type, donor heavy atom, donor atom, acceptor molecule, acceptor atom, score
      L1  H     1    13       P1 10747  0.88
      L1  H     7    12       P1  7948  0.94
      L1  H    10    20       P1  7921  0.90
      L1  H    10    23       P1 10186  1.56

> <Gold.PLP.Chemscore.Internal.Correction>
0.0147

> <Gold.Rescore>
     Score         DG    S(hbond)    S(metal)    S(lipo)     H(rot)  DE(clash)    DE(int)     intcor
     17.52     -17.73       3.16        0.00      47.26       1.50       0.17       0.03       ----

> <Gold.Chemscore.Fitness>
17.5238

> <Gold.Chemscore.DG>
-17.7300

> <Gold.Chemscore.ZeroCoef>
-5.4800

> <Gold.Chemscore.Hbond>
3.1607

> <Gold.Chemscore.Metal>
0.0000

> <Gold.Chemscore.Lipo>
47.2601

> <Gold.Chemscore.Internal_Hbond>
0.0000

> <Gold.Chemscore.DEClash>
0.1739

> <Gold.Chemscore.DEInternal>
0.0323

> <Gold.Chemscore.Rot>
1.4985

> <Gold.Chemscore.Internal.Correction>
   9.000000E+99

> <Gold.Chemscore.Hbonds>
donor molecule, donor type, donor heavy atom, donor atom, acceptor molecule, acceptor atom, score
      L1  H     1    13       P1 10747  0.84
      L1  H     7    12       P1  7948  0.38
      L1  H    10    20       P1  7921  0.82
      L1  H    10    23       P1 10186  0.75

> <Gold.Chemscore.Hbond.Weighted>
-10.5567

> <Gold.Chemscore.Metal.Weighted>
-0.0000

> <Gold.Chemscore.Lipo.Weighted>
-5.5294

> <Gold.Chemscore.Internal_Hbond.Weighted>
0.0000

> <Gold.Chemscore.DEClash.Weighted>
0.1739

> <Gold.Chemscore.DEInternal.Weighted>
0.0323

> <Gold.Chemscore.Rot.Weighted>
3.8362

> <Gold.Chemscore.Internal.Correction.Weighted>
   9.000000E+99

> <Gold.Protein.RotatedTorsions>
[ 6907 6896 6895 6894 ] final   -0.57 input  -60.11 | X-H torsion
[ 7974 7965 7964 7962 ] final  -95.83 input  175.53 | X-H torsion
[ 8008 7997 7996 7995 ] final  -85.72 input   59.86 | X-H torsion
[ 10167 10162 10161 10158 ] final  171.85 input  -65.29 | X-H torsion
[ 10718 10713 10712 10709 ] final -178.71 input   66.30 | X-H torsion
[ 10763 10752 10751 10750 ] final -107.36 input  -60.55 | X-H torsion
[ 11005 11000 10999 10996 ] final -163.73 input  -57.11 | X-H torsion

> <Gold.Protein.ActiveResidues>
 VAL166  LYS551  ARG553  GLY616  TRP617  ASP618  TYR619  PRO620  LYS621  CYS622 
 ASP623  PHE694  ASN695  SER759  ASP760  ASP761  ALA762  ILE779  LEU786  VAL792 
 PHE793  MET794  SER795  GLU796  ALA797  LYS798  CYS799  TRP800  GLU811  SER814 

> <Gold.Protein.RotatedAtoms>
  151.5601  135.1065  159.9970 H   0  0  0  0  0  0  0  0  0  0  0  0  # atno 6907 bound_to 6896
  152.4450  133.7516  159.6707 H   0  0  0  0  0  0  0  0  0  0  0  0  # atno 6908 bound_to 6896
  150.8364  133.7939  159.3102 H   0  0  0  0  0  0  0  0  0  0  0  0  # atno 6909 bound_to 6896
  145.3549  140.9482  143.2533 H   0  0  0  0  0  0  0  0  0  0  0  0  # atno 7974 bound_to 7965
  154.6439  140.0588  156.9877 H   0  0  0  0  0  0  0  0  0  0  0  0  # atno 8008 bound_to 7997
  155.1475  140.3271  155.4420 H   0  0  0  0  0  0  0  0  0  0  0  0  # atno 8009 bound_to 7997
  156.2544  140.1953  156.6588 H   0  0  0  0  0  0  0  0  0  0  0  0  # atno 8010 bound_to 7997
  139.5059  144.3440  151.9990 H   0  0  0  0  0  0  0  0  0  0  0  0  # atno 10167 bound_to 10162
  156.8483  130.9710  151.3094 H   0  0  0  0  0  0  0  0  0  0  0  0  # atno 10718 bound_to 10713
  154.8070  135.4678  154.0418 H   0  0  0  0  0  0  0  0  0  0  0  0  # atno 10763 bound_to 10752
  153.1879  135.6850  153.8398 H   0  0  0  0  0  0  0  0  0  0  0  0  # atno 10764 bound_to 10752
  153.7925  135.3241  155.3357 H   0  0  0  0  0  0  0  0  0  0  0  0  # atno 10765 bound_to 10752
  140.5948  134.5007  157.5198 H   0  0  0  0  0  0  0  0  0  0  0  0  # atno 11005 bound_to 11000
  144.8690  139.5066  143.6777 LP  0  0  0  0  0  0  0  0  0  0  0  0  # atno 17320 bound_to 7965
  146.2952  139.7257  142.9132 LP  0  0  0  0  0  0  0  0  0  0  0  0  # atno 17321 bound_to 7965
  140.2877  144.3789  150.6098 LP  0  0  0  0  0  0  0  0  0  0  0  0  # atno 17342 bound_to 10162
  140.5970  143.2167  151.7145 LP  0  0  0  0  0  0  0  0  0  0  0  0  # atno 17343 bound_to 10162
  157.6317  130.8735  149.9286 LP  0  0  0  0  0  0  0  0  0  0  0  0  # atno 17370 bound_to 10713
  156.0842  130.3670  150.0520 LP  0  0  0  0  0  0  0  0  0  0  0  0  # atno 17371 bound_to 10713
  139.9258  134.8059  156.1073 LP  0  0  0  0  0  0  0  0  0  0  0  0  # atno 17394 bound_to 11000
  141.0911  133.6714  156.2543 LP  0  0  0  0  0  0  0  0  0  0  0  0  # atno 17395 bound_to 11000

$$$$
