AV-unprocessed.smi:1019|AV-procd|sdf|4447|dock9
  -GOLD-   22720 2413D 1   1.00000     0.00000
 Structure written by MMmdl.
 45 47  0  0  0  0  0  0  0  0  3 V2000
  147.4397  137.4534  158.0757 C   0  0  0  0  0  0  0  0  0  0  0  0
  148.6713  136.9372  158.7153 N   0  3  1  0  0  0  0  0  0  0  0  0
  148.5605  135.5022  159.0744 C   0  0  0  0  0  0  0  0  0  0  0  0
  148.1341  135.3256  160.5217 C   0  0  0  0  0  0  0  0  0  0  0  0
  147.8028  134.0417  161.0053 C   0  0  0  0  0  0  0  0  0  0  0  0
  147.3887  133.8727  162.3406 C   0  0  0  0  0  0  0  0  0  0  0  0
  147.3086  134.9856  163.1994 C   0  0  0  0  0  0  0  0  0  0  0  0
  147.6441  136.2676  162.7229 C   0  0  0  0  0  0  0  0  0  0  0  0
  148.0572  136.4377  161.3871 C   0  0  0  0  0  0  0  0  0  0  0  0
  149.8971  137.2663  157.9416 C   0  0  0  0  0  0  0  0  0  0  0  0
  149.8649  138.7131  157.4168 C   0  0  2  0  0  0  0  0  0  0  0  0
  150.4257  138.7213  156.1198 O   0  0  0  0  0  0  0  0  0  0  0  0
  150.6546  139.6845  158.3203 C   0  0  0  0  0  0  0  0  0  0  0  0
  150.6338  141.0694  157.8323 N   0  0  0  0  0  0  0  0  0  0  0  0
  149.9201  141.6291  156.8171 C   0  0  0  0  0  0  0  0  0  0  0  0
  150.2551  142.9480  156.7581 N   0  3  0  0  0  0  0  0  0  0  0  0
  151.2002  143.2344  157.7458 C   0  0  0  0  0  0  0  0  0  0  0  0
  151.8405  144.4245  158.0783 C   0  0  0  0  0  0  0  0  0  0  0  0
  152.7592  144.3714  159.1472 C   0  0  0  0  0  0  0  0  0  0  0  0
  153.0121  143.1695  159.8401 C   0  0  0  0  0  0  0  0  0  0  0  0
  152.3569  141.9687  159.4950 C   0  0  0  0  0  0  0  0  0  0  0  0
  151.4498  142.0305  158.4380 C   0  0  0  0  0  0  0  0  0  0  0  0
  147.2456  136.9419  157.1317 H   0  0  0  0  0  0  0  0  0  0  0  0
  147.5223  138.5217  157.8748 H   0  0  0  0  0  0  0  0  0  0  0  0
  146.5771  137.3073  158.7265 H   0  0  0  0  0  0  0  0  0  0  0  0
  147.8079  135.0191  158.4493 H   0  0  0  0  0  0  0  0  0  0  0  0
  149.5039  134.9896  158.8790 H   0  0  0  0  0  0  0  0  0  0  0  0
  147.8602  133.1833  160.3518 H   0  0  0  0  0  0  0  0  0  0  0  0
  147.1330  132.8893  162.7070 H   0  0  0  0  0  0  0  0  0  0  0  0
  146.9924  134.8555  164.2239 H   0  0  0  0  0  0  0  0  0  0  0  0
  147.5847  137.1206  163.3828 H   0  0  0  0  0  0  0  0  0  0  0  0
  148.3103  137.4252  161.0296 H   0  0  0  0  0  0  0  0  0  0  0  0
  150.7914  137.1402  158.5518 H   0  0  0  0  0  0  0  0  0  0  0  0
  150.0044  136.5585  157.1177 H   0  0  0  0  0  0  0  0  0  0  0  0
  148.8321  139.0490  157.3224 H   0  0  0  0  0  0  0  0  0  0  0  0
  150.0882  139.4689  155.6499 H   0  0  0  0  0  0  0  0  0  0  0  0
  150.2702  139.6773  159.3409 H   0  0  0  0  0  0  0  0  0  0  0  0
  151.6999  139.3778  158.3841 H   0  0  0  0  0  0  0  0  0  0  0  0
  149.2145  141.1203  156.1756 H   0  0  0  0  0  0  0  0  0  0  0  0
  151.6498  145.3468  157.5491 H   0  0  0  0  0  0  0  0  0  0  0  0
  153.2808  145.2710  159.4413 H   0  0  0  0  0  0  0  0  0  0  0  0
  153.7238  143.1693  160.6531 H   0  0  0  0  0  0  0  0  0  0  0  0
  152.5577  141.0537  160.0320 H   0  0  0  0  0  0  0  0  0  0  0  0
  148.7560  137.4226  159.5967 H   0  0  0  0  0  0  0  0  0  0  0  0
  149.8676  143.6020  156.0897 H   0  0  0  0  0  0  0  0  0  0  0  0
  1  2  1  0  0  0  0
  1 23  1  0  0  0  0
  1 24  1  0  0  0  0
  1 25  1  0  0  0  0
  2  3  1  0  0  0  0
  2 10  1  0  0  0  0
  2 44  1  0  0  0  0
  3  4  1  0  0  0  0
  3 26  1  0  0  0  0
  3 27  1  0  0  0  0
  4  9  1  0  0  0  0
  4  5  2  0  0  0  0
  5  6  1  0  0  0  0
  5 28  1  0  0  0  0
  6  7  2  0  0  0  0
  6 29  1  0  0  0  0
  7  8  1  0  0  0  0
  7 30  1  0  0  0  0
  8  9  2  0  0  0  0
  8 31  1  0  0  0  0
  9 32  1  0  0  0  0
 10 11  1  0  0  0  0
 10 33  1  0  0  0  0
 10 34  1  0  0  0  0
 11 12  1  0  0  0  0
 11 13  1  0  0  0  0
 11 35  1  0  0  0  0
 12 36  1  0  0  0  0
 13 14  1  0  0  0  0
 13 37  1  0  0  0  0
 13 38  1  0  0  0  0
 14 22  1  0  0  0  0
 14 15  1  0  0  0  0
 15 16  2  0  0  0  0
 15 39  1  0  0  0  0
 16 17  1  0  0  0  0
 16 45  1  0  0  0  0
 17 22  2  0  0  0  0
 17 18  1  0  0  0  0
 18 19  2  0  0  0  0
 18 40  1  0  0  0  0
 19 20  1  0  0  0  0
 19 41  1  0  0  0  0
 20 21  2  0  0  0  0
 20 42  1  0  0  0  0
 21 22  1  0  0  0  0
 21 43  1  0  0  0  0
M  CHG  1   2   1
M  CHG  1  16   1
M  END
> <s_m_source_file>
AV-unprocessed.smi

> <i_m_source_file_index>
1019

> <i_lp_mmshare_version>
43012

> <i_f3d_flags>
0

> <s_epik_input>
W2NIXTFbY0hdW2NIXVtjSF1bY0hdYzFbQ0gyXU4oW0NIM10pW0NIMl1bQ0BIXShbT0hdKVtDSDJdbihbY0hdbjIpYyhjMjMpW2NIXVtjSF1bY0hdW2NIXTM=

> <s_epik_cmdline>
J2VwaWtfcHl0aG9uJywgJy1waCcsICc3LjAnLCAnLXRuJywgJzgnLCAnLW1hJywgJzIwMCcsICctbWV0YWxfYmluZGluZycsICctaW1hZScsICc8aW5maWxlLm1hZT4nLCAnLW9tYWUnLCAnPG91dGZpbGUubWFlPic=

> <r_epik_Ionization_Penalty>
1.5198

> <r_epik_Ionization_Penalty_Charging>
1.5198

> <r_epik_Ionization_Penalty_Neutral>
3.13312e-06

> <r_epik_State_Penalty>
1.624

> <r_epik_Charging_Adjusted_Penalty>
3.1438

> <i_epik_Tot_Q>
2

> <i_epik_Tot_abs_Q>
2

> <r_epik_Metal_State_Penalty>
5.67392

> <b_epik_Metal_Only>
0

> <s_lp_Force_Field>
OPLS_2005

> <r_lp_Energy>
24.5939

> <b_lp_Chiralities_Consistent>
1

> <s_lp_Variant>
AV-unprocessed.smi:1019-5

> <Gold.Version>
5.8.1

> <Gold.Id.Protein>
6NUR|6NUR_protein|mol2

> <Gold.PLP.Fitness>
51.1926

> <Gold.PLP.PLP>
-47.5995

> <Gold.PLP.part.hbond>
-0.8997

> <Gold.PLP.part.metal>
0.0000

> <Gold.PLP.part.buried>
-5.5780

> <Gold.PLP.part.nonpolar>
-42.1187

> <Gold.PLP.part.repulsive>
0.1823

> <Gold.PLP.ligand.clash>
0.0000

> <Gold.PLP.ligand.torsion>
1.3108

> <Gold.PLP.Chemscore.Hbond>
2.0000

> <Gold.PLP.Chemscore.CHOScore>
0.0000

> <Gold.PLP.Chemscore.Metal>
0.0000

> <Gold.Chemscore.Hbonds>
donor molecule, donor type, donor heavy atom, donor atom, acceptor molecule, acceptor atom, score
      L1  H    16    45       P1  8028  2.00

> <Gold.PLP.Chemscore.Internal.Correction>
0.2147

> <Gold.Rescore>
     Score         DG    S(hbond)    S(metal)    S(lipo)     H(rot)  DE(clash)    DE(int)     intcor
     16.62     -17.96       1.00        0.00     131.87       2.46       0.02       1.33       ----

> <Gold.Chemscore.Fitness>
16.6154

> <Gold.Chemscore.DG>
-17.9582

> <Gold.Chemscore.ZeroCoef>
-5.4800

> <Gold.Chemscore.Hbond>
0.9983

> <Gold.Chemscore.Metal>
0.0000

> <Gold.Chemscore.Lipo>
131.8749

> <Gold.Chemscore.Internal_Hbond>
0.0000

> <Gold.Chemscore.DEClash>
0.0174

> <Gold.Chemscore.DEInternal>
1.3254

> <Gold.Chemscore.Rot>
2.4552

> <Gold.Chemscore.Internal.Correction>
   9.000000E+99

> <Gold.Chemscore.Hbonds>
donor molecule, donor type, donor heavy atom, donor atom, acceptor molecule, acceptor atom, score
      L1  H    16    45       P1  8028  0.92

> <Gold.Chemscore.Hbond.Weighted>
-3.3342

> <Gold.Chemscore.Metal.Weighted>
-0.0000

> <Gold.Chemscore.Lipo.Weighted>
-15.4294

> <Gold.Chemscore.Internal_Hbond.Weighted>
0.0000

> <Gold.Chemscore.DEClash.Weighted>
0.0174

> <Gold.Chemscore.DEInternal.Weighted>
1.3254

> <Gold.Chemscore.Rot.Weighted>
6.2854

> <Gold.Chemscore.Internal.Correction.Weighted>
   9.000000E+99

> <Gold.Protein.RotatedTorsions>
[ 6907 6896 6895 6894 ] final -179.91 input  -60.11 | X-H torsion
[ 7974 7965 7964 7962 ] final   -8.43 input  175.53 | X-H torsion
[ 8008 7997 7996 7995 ] final   82.49 input   59.86 | X-H torsion
[ 10167 10162 10161 10158 ] final  109.30 input  -65.29 | X-H torsion
[ 10718 10713 10712 10709 ] final   82.64 input   66.30 | X-H torsion
[ 10763 10752 10751 10750 ] final  -39.81 input  -60.55 | X-H torsion
[ 11005 11000 10999 10996 ] final   20.41 input  -57.11 | X-H torsion

> <Gold.Protein.ActiveResidues>
 VAL166  LYS551  ARG553  GLY616  TRP617  ASP618  TYR619  PRO620  LYS621  CYS622 
 ASP623  PHE694  ASN695  SER759  ASP760  ASP761  ALA762  ILE779  LEU786  VAL792 
 PHE793  MET794  SER795  GLU796  ALA797  LYS798  CYS799  TRP800  GLU811  SER814 

> <Gold.Protein.RotatedAtoms>
  151.6610  133.3317  159.3173 H   0  0  0  0  0  0  0  0  0  0  0  0  # atno 6907 bound_to 6896
  150.7913  134.6943  159.6524 H   0  0  0  0  0  0  0  0  0  0  0  0  # atno 6908 bound_to 6896
  152.3993  134.6316  160.0128 H   0  0  0  0  0  0  0  0  0  0  0  0  # atno 6909 bound_to 6896
  146.2280  140.2466  142.8345 H   0  0  0  0  0  0  0  0  0  0  0  0  # atno 7974 bound_to 7965
  155.9113  140.3427  155.6101 H   0  0  0  0  0  0  0  0  0  0  0  0  # atno 8008 bound_to 7997
  155.7384  140.0804  157.2276 H   0  0  0  0  0  0  0  0  0  0  0  0  # atno 8009 bound_to 7997
  154.4056  140.1575  156.2575 H   0  0  0  0  0  0  0  0  0  0  0  0  # atno 8010 bound_to 7997
  139.6777  144.7121  151.1572 H   0  0  0  0  0  0  0  0  0  0  0  0  # atno 10167 bound_to 10162
  157.6861  131.0056  150.2404 H   0  0  0  0  0  0  0  0  0  0  0  0  # atno 10718 bound_to 10713
  153.9356  135.6767  153.4745 H   0  0  0  0  0  0  0  0  0  0  0  0  # atno 10763 bound_to 10752
  153.0957  135.4852  154.8771 H   0  0  0  0  0  0  0  0  0  0  0  0  # atno 10764 bound_to 10752
  154.7404  135.3159  154.8695 H   0  0  0  0  0  0  0  0  0  0  0  0  # atno 10765 bound_to 10752
  140.4030  134.1699  155.7664 H   0  0  0  0  0  0  0  0  0  0  0  0  # atno 11005 bound_to 11000
  144.9443  140.8112  143.5611 LP  0  0  0  0  0  0  0  0  0  0  0  0  # atno 17320 bound_to 7965
  145.2421  139.2068  143.4987 LP  0  0  0  0  0  0  0  0  0  0  0  0  # atno 17321 bound_to 7965
  140.7641  143.5746  150.8959 LP  0  0  0  0  0  0  0  0  0  0  0  0  # atno 17342 bound_to 10162
  139.9416  143.6375  152.3052 LP  0  0  0  0  0  0  0  0  0  0  0  0  # atno 17343 bound_to 10162
  156.3020  130.3760  149.7741 LP  0  0  0  0  0  0  0  0  0  0  0  0  # atno 17370 bound_to 10713
  156.5369  130.8282  151.3256 LP  0  0  0  0  0  0  0  0  0  0  0  0  # atno 17371 bound_to 10713
  141.1850  133.8333  157.1121 LP  0  0  0  0  0  0  0  0  0  0  0  0  # atno 17394 bound_to 11000
  140.0323  134.9895  157.0803 LP  0  0  0  0  0  0  0  0  0  0  0  0  # atno 17395 bound_to 11000

$$$$
