AV-unprocessed.smi:2678|AV-procd|sdf|10367|dock2
  -GOLD-   2272014393D 1   1.00000     0.00000
 Structure written by MMmdl.
 46 47  0  0  0  0  0  0  0  0  1 V2000
  152.3295  140.0084  153.5102 C   0  0  0  0  0  0  0  0  0  0  0  0
  151.3684  139.2379  152.5908 C   0  0  0  0  0  0  0  0  0  0  0  0
  149.9642  139.8563  152.5949 C   0  0  0  0  0  0  0  0  0  0  0  0
  151.2821  137.8386  152.9981 N   0  0  0  0  0  0  0  0  0  0  0  0
  151.0029  137.4020  154.2366 C   0  0  0  0  0  0  0  0  0  0  0  0
  150.7814  138.1551  155.1855 O   0  0  0  0  0  0  0  0  0  0  0  0
  150.9652  135.8803  154.4310 C   0  0  1  0  0  0  0  0  0  0  0  0
  150.5309  135.5129  155.8655 C   0  0  0  0  0  0  0  0  0  0  0  0
  150.4767  133.9890  156.0588 C   0  0  0  0  0  0  0  0  0  0  0  0
  149.5587  133.3265  155.0194 C   0  0  0  0  0  0  0  0  0  0  0  0
  149.9865  133.6842  153.5842 C   0  0  1  0  0  0  0  0  0  0  0  0
  149.0619  133.0670  152.6307 N   0  0  0  0  0  0  0  0  0  0  0  0
  147.7294  133.2288  152.5311 C   0  0  0  0  0  0  0  0  0  0  0  0
  147.1189  133.9570  153.3103 O   0  0  0  0  0  0  0  0  0  0  0  0
  147.1585  132.5158  151.5401 N   0  0  0  0  0  0  0  0  0  0  0  0
  145.7991  132.4912  151.1281 C   0  0  0  0  0  0  0  0  0  0  0  0
  144.7767  133.2859  151.7009 C   0  0  0  0  0  0  0  0  0  0  0  0
  143.4694  133.1843  151.1875 C   0  0  0  0  0  0  0  0  0  0  0  0
  143.2330  132.2992  150.1178 C   0  0  0  0  0  0  0  0  0  0  0  0
  144.2003  131.5459  149.5534 N   0  0  0  0  0  0  0  0  0  0  0  0
  145.4516  131.6494  150.0501 C   0  0  0  0  0  0  0  0  0  0  0  0
  150.0271  135.2165  153.4012 C   0  0  0  0  0  0  0  0  0  0  0  0
  152.4014  141.0546  153.2114 H   0  0  0  0  0  0  0  0  0  0  0  0
  153.3353  139.5888  153.4744 H   0  0  0  0  0  0  0  0  0  0  0  0
  151.9940  139.9814  154.5477 H   0  0  0  0  0  0  0  0  0  0  0  0
  151.7493  139.2873  151.5691 H   0  0  0  0  0  0  0  0  0  0  0  0
  149.9927  140.8939  152.2609 H   0  0  0  0  0  0  0  0  0  0  0  0
  149.5244  139.8401  153.5926 H   0  0  0  0  0  0  0  0  0  0  0  0
  149.2943  139.3145  151.9263 H   0  0  0  0  0  0  0  0  0  0  0  0
  151.4490  137.1472  152.2814 H   0  0  0  0  0  0  0  0  0  0  0  0
  151.9723  135.4904  154.2715 H   0  0  0  0  0  0  0  0  0  0  0  0
  151.2213  135.9474  156.5900 H   0  0  0  0  0  0  0  0  0  0  0  0
  149.5490  135.9364  156.0833 H   0  0  0  0  0  0  0  0  0  0  0  0
  151.4819  133.5739  155.9762 H   0  0  0  0  0  0  0  0  0  0  0  0
  150.1274  133.7548  157.0648 H   0  0  0  0  0  0  0  0  0  0  0  0
  149.5721  132.2447  155.1562 H   0  0  0  0  0  0  0  0  0  0  0  0
  148.5298  133.6471  155.1905 H   0  0  0  0  0  0  0  0  0  0  0  0
  150.9875  133.2778  153.4287 H   0  0  0  0  0  0  0  0  0  0  0  0
  149.4825  132.4312  151.9681 H   0  0  0  0  0  0  0  0  0  0  0  0
  147.7722  131.8894  151.0400 H   0  0  0  0  0  0  0  0  0  0  0  0
  144.9681  133.9773  152.5066 H   0  0  0  0  0  0  0  0  0  0  0  0
  142.6666  133.7759  151.6024 H   0  0  0  0  0  0  0  0  0  0  0  0
  142.2423  132.1983  149.6999 H   0  0  0  0  0  0  0  0  0  0  0  0
  146.2005  131.0353  149.5714 H   0  0  0  0  0  0  0  0  0  0  0  0
  149.0178  135.6201  153.5007 H   0  0  0  0  0  0  0  0  0  0  0  0
  150.3576  135.4659  152.3921 H   0  0  0  0  0  0  0  0  0  0  0  0
  1  2  1  0  0  0  0
  1 23  1  0  0  0  0
  1 24  1  0  0  0  0
  1 25  1  0  0  0  0
  2  3  1  0  0  0  0
  2  4  1  0  0  0  0
  2 26  1  0  0  0  0
  3 27  1  0  0  0  0
  3 28  1  0  0  0  0
  3 29  1  0  0  0  0
  4  5  1  0  0  0  0
  4 30  1  0  0  0  0
  5  6  2  0  0  0  0
  5  7  1  0  0  0  0
  7 22  1  0  0  0  0
  7  8  1  0  0  0  0
  7 31  1  0  0  0  0
  8  9  1  0  0  0  0
  8 32  1  0  0  0  0
  8 33  1  0  0  0  0
  9 10  1  0  0  0  0
  9 34  1  0  0  0  0
  9 35  1  0  0  0  0
 10 11  1  0  0  0  0
 10 36  1  0  0  0  0
 10 37  1  0  0  0  0
 11 12  1  0  0  0  0
 11 22  1  0  0  0  0
 11 38  1  0  0  0  0
 12 13  1  0  0  0  0
 12 39  1  0  0  0  0
 13 14  2  0  0  0  0
 13 15  1  0  0  0  0
 15 16  1  0  0  0  0
 15 40  1  0  0  0  0
 16 21  1  0  0  0  0
 16 17  2  0  0  0  0
 17 18  1  0  0  0  0
 17 41  1  0  0  0  0
 18 19  2  0  0  0  0
 18 42  1  0  0  0  0
 19 20  1  0  0  0  0
 19 43  1  0  0  0  0
 20 21  2  0  0  0  0
 21 44  1  0  0  0  0
 22 45  1  0  0  0  0
 22 46  1  0  0  0  0
M  END
> <s_m_source_file>
AV-unprocessed.smi

> <i_m_source_file_index>
2678

> <i_lp_mmshare_version>
43012

> <i_f3d_flags>
0

> <s_epik_input>
W0NIM11bQ0hdKFtDSDNdKVtOSF1DKD1PKVtDQEBIXTFbQ0gyXVtDSDJdW0NIMl1bQ0BIXShbQ0gyXTEpW05IXUMoPU8pW05IXWMyW2NIXVtjSF1bY0hdbltjSF0y

> <s_epik_cmdline>
J2VwaWtfcHl0aG9uJywgJy1waCcsICc3LjAnLCAnLXRuJywgJzgnLCAnLW1hJywgJzIwMCcsICctbWV0YWxfYmluZGluZycsICctaW1hZScsICc8aW5maWxlLm1hZT4nLCAnLW9tYWUnLCAnPG91dGZpbGUubWFlPic=

> <r_epik_Ionization_Penalty>
0.00482944

> <r_epik_Ionization_Penalty_Charging>
0

> <r_epik_Ionization_Penalty_Neutral>
0.00482944

> <r_epik_State_Penalty>
0.00347168

> <r_epik_Charging_Adjusted_Penalty>
0.00347168

> <i_epik_Tot_Q>
0

> <i_epik_Tot_abs_Q>
0

> <r_epik_Metal_State_Penalty>
-0

> <b_epik_Metal_Only>
0

> <s_lp_Force_Field>
OPLS_2005

> <r_lp_Energy>
23.8457

> <b_lp_Chiralities_Consistent>
1

> <s_lp_Variant>
AV-unprocessed.smi:2678-2

> <Gold.Version>
5.8.1

> <Gold.Id.Protein>
6NUR|6NUR_protein|mol2

> <Gold.PLP.Fitness>
48.9763

> <Gold.PLP.PLP>
-36.7939

> <Gold.PLP.part.hbond>
-2.8509

> <Gold.PLP.part.metal>
0.0000

> <Gold.PLP.part.buried>
-2.9763

> <Gold.PLP.part.nonpolar>
-31.4821

> <Gold.PLP.part.repulsive>
0.3623

> <Gold.PLP.ligand.clash>
0.0000

> <Gold.PLP.ligand.torsion>
0.1592

> <Gold.PLP.Chemscore.Hbond>
2.2281

> <Gold.PLP.Chemscore.CHOScore>
1.9291

> <Gold.PLP.Chemscore.Metal>
0.0000

> <Gold.Chemscore.Hbonds>
donor molecule, donor type, donor heavy atom, donor atom, acceptor molecule, acceptor atom, score
      L1  H     4    30       P1  7949  0.73
      L1  H    12    39       P1 10747  0.23
      L1  H    15    40       P1 10747  1.00
      P1  H 10785 10796       L1    20  0.58
      L1  C    19    43       P1 10186  0.66
      L1  C    19    43       P1 10952  1.00
      L1  C    21    44       P1 10747  0.20

> <Gold.PLP.Chemscore.Internal.Correction>
0.0290

> <Gold.Rescore>
     Score         DG    S(hbond)    S(metal)    S(lipo)     H(rot)  DE(clash)    DE(int)     intcor
     18.07     -21.25       2.48        0.00      95.84       1.46       1.05       2.13       ----

> <Gold.Chemscore.Fitness>
18.0693

> <Gold.Chemscore.DG>
-21.2476

> <Gold.Chemscore.ZeroCoef>
-5.4800

> <Gold.Chemscore.Hbond>
2.4828

> <Gold.Chemscore.Metal>
0.0000

> <Gold.Chemscore.Lipo>
95.8411

> <Gold.Chemscore.Internal_Hbond>
0.0000

> <Gold.Chemscore.DEClash>
1.0456

> <Gold.Chemscore.DEInternal>
2.1327

> <Gold.Chemscore.Rot>
1.4603

> <Gold.Chemscore.Internal.Correction>
   9.000000E+99

> <Gold.Chemscore.Hbonds>
donor molecule, donor type, donor heavy atom, donor atom, acceptor molecule, acceptor atom, score
      L1  H     4    30       P1  7949  0.65
      L1  H    12    39       P1 10747  0.09
      L1  H    15    40       P1 10747  1.00
      P1  H 10785 10796       L1    20  0.23

> <Gold.Chemscore.Hbond.Weighted>
-8.2925

> <Gold.Chemscore.Metal.Weighted>
-0.0000

> <Gold.Chemscore.Lipo.Weighted>
-11.2134

> <Gold.Chemscore.Internal_Hbond.Weighted>
0.0000

> <Gold.Chemscore.DEClash.Weighted>
1.0456

> <Gold.Chemscore.DEInternal.Weighted>
2.1327

> <Gold.Chemscore.Rot.Weighted>
3.7383

> <Gold.Chemscore.Internal.Correction.Weighted>
   9.000000E+99

> <Gold.Protein.RotatedTorsions>
[ 6907 6896 6895 6894 ] final -116.68 input  -60.11 | X-H torsion
[ 7974 7965 7964 7962 ] final   57.04 input  175.53 | X-H torsion
[ 8008 7997 7996 7995 ] final   97.92 input   59.86 | X-H torsion
[ 10167 10162 10161 10158 ] final   -6.02 input  -65.29 | X-H torsion
[ 10718 10713 10712 10709 ] final   52.07 input   66.30 | X-H torsion
[ 10763 10752 10751 10750 ] final -171.54 input  -60.55 | X-H torsion
[ 11005 11000 10999 10996 ] final  -19.54 input  -57.11 | X-H torsion

> <Gold.Protein.ActiveResidues>
 VAL166  LYS551  ARG553  GLY616  TRP617  ASP618  TYR619  PRO620  LYS621  CYS622 
 ASP623  PHE694  ASN695  SER759  ASP760  ASP761  ALA762  ILE779  LEU786  VAL792 
 PHE793  MET794  SER795  GLU796  ALA797  LYS798  CYS799  TRP800  GLU811  SER814 

> <Gold.Protein.RotatedAtoms>
  150.8075  133.8483  159.3198 H   0  0  0  0  0  0  0  0  0  0  0  0  # atno 6907 bound_to 6896
  151.6278  135.1024  160.0125 H   0  0  0  0  0  0  0  0  0  0  0  0  # atno 6908 bound_to 6896
  152.4166  133.7008  159.6480 H   0  0  0  0  0  0  0  0  0  0  0  0  # atno 6909 bound_to 6896
  145.9334  139.3826  143.0407 H   0  0  0  0  0  0  0  0  0  0  0  0  # atno 7974 bound_to 7965
  156.0951  140.3251  155.7867 H   0  0  0  0  0  0  0  0  0  0  0  0  # atno 8008 bound_to 7997
  155.4932  140.0563  157.2968 H   0  0  0  0  0  0  0  0  0  0  0  0  # atno 8009 bound_to 7997
  154.4661  140.1990  156.0130 H   0  0  0  0  0  0  0  0  0  0  0  0  # atno 8010 bound_to 7997
  140.6983  143.6242  150.8584 H   0  0  0  0  0  0  0  0  0  0  0  0  # atno 10167 bound_to 10162
  157.5040  130.8457  149.8352 H   0  0  0  0  0  0  0  0  0  0  0  0  # atno 10718 bound_to 10713
  154.6293  135.2884  155.0235 H   0  0  0  0  0  0  0  0  0  0  0  0  # atno 10763 bound_to 10752
  154.1401  135.6520  153.4944 H   0  0  0  0  0  0  0  0  0  0  0  0  # atno 10764 bound_to 10752
  153.0272  135.5331  154.7114 H   0  0  0  0  0  0  0  0  0  0  0  0  # atno 10765 bound_to 10752
  140.8377  133.7950  155.9826 H   0  0  0  0  0  0  0  0  0  0  0  0  # atno 11005 bound_to 11000
  145.8396  140.9587  143.0806 LP  0  0  0  0  0  0  0  0  0  0  0  0  # atno 17320 bound_to 7965
  144.6768  140.0267  143.7483 LP  0  0  0  0  0  0  0  0  0  0  0  0  # atno 17321 bound_to 7965
  139.9962  143.5794  152.2892 LP  0  0  0  0  0  0  0  0  0  0  0  0  # atno 17342 bound_to 10162
  139.6466  144.7658  151.2230 LP  0  0  0  0  0  0  0  0  0  0  0  0  # atno 17343 bound_to 10162
  156.0247  130.3783  150.1859 LP  0  0  0  0  0  0  0  0  0  0  0  0  # atno 17370 bound_to 10713
  157.0048  130.9933  151.3381 LP  0  0  0  0  0  0  0  0  0  0  0  0  # atno 17371 bound_to 10713
  140.8930  134.2472  157.5084 LP  0  0  0  0  0  0  0  0  0  0  0  0  # atno 17394 bound_to 11000
  139.8704  134.9670  156.4583 LP  0  0  0  0  0  0  0  0  0  0  0  0  # atno 17395 bound_to 11000

$$$$
