AV-unprocessed.smi:3222|AV-procd|sdf|12306|dock2
  -GOLD-   2272018153D 1   1.00000     0.00000
 Structure written by MMmdl.
 41 42  0  0  0  0  0  0  0  0  2 V2000
  148.8686  139.7540  155.6931 C   0  0  0  0  0  0  0  0  0  0  0  0
  148.3248  141.1885  155.7911 C   0  0  1  0  0  0  0  0  0  0  0  0
  149.4516  142.1323  155.9733 N   0  3  0  0  0  0  0  0  0  0  0  0
  150.2857  141.8887  157.1657 C   0  0  0  0  0  0  0  0  0  0  0  0
  151.2271  143.0752  157.4235 C   0  0  0  0  0  0  0  0  0  0  0  0
  151.8790  142.9757  158.7264 N   0  0  0  0  0  0  0  0  0  0  0  0
  151.9616  144.1297  159.6058 C   0  0  0  0  0  0  0  0  0  0  0  0
  152.8544  143.6799  160.7713 C   0  0  0  0  0  0  0  0  0  0  0  0
  152.9543  142.1548  160.6564 C   0  0  0  0  0  0  0  0  0  0  0  0
  152.3944  141.8687  159.2735 C   0  0  0  0  0  0  0  0  0  0  0  0
  152.4266  140.7530  158.7564 O   0  0  0  0  0  0  0  0  0  0  0  0
  147.4489  141.5826  154.5730 C   0  0  1  0  0  0  0  0  0  0  0  0
  146.8346  140.3648  153.8569 C   0  0  0  0  0  0  0  0  0  0  0  0
  146.4418  142.5899  154.8940 N   0  0  0  0  0  0  0  0  0  0  0  0
  145.6218  143.2797  154.0241 C   0  0  0  0  0  0  0  0  0  0  0  0
  144.8581  144.1323  154.7683 C   0  0  0  0  0  0  0  0  0  0  0  0
  145.2888  143.8945  156.1028 C   0  0  0  0  0  0  0  0  0  0  0  0
  146.2392  142.9770  156.1746 N   0  0  0  0  0  0  0  0  0  0  0  0
  148.0597  139.0369  155.5501 H   0  0  0  0  0  0  0  0  0  0  0  0
  149.3965  139.4738  156.6051 H   0  0  0  0  0  0  0  0  0  0  0  0
  149.5652  139.6401  154.8618 H   0  0  0  0  0  0  0  0  0  0  0  0
  147.6860  141.2269  156.6754 H   0  0  0  0  0  0  0  0  0  0  0  0
  150.0392  142.0930  155.1529 H   0  0  0  0  0  0  0  0  0  0  0  0
  149.6345  141.7277  158.0257 H   0  0  0  0  0  0  0  0  0  0  0  0
  150.8636  140.9751  157.0190 H   0  0  0  0  0  0  0  0  0  0  0  0
  151.9875  143.1234  156.6425 H   0  0  0  0  0  0  0  0  0  0  0  0
  150.6732  144.0141  157.3717 H   0  0  0  0  0  0  0  0  0  0  0  0
  152.3775  144.9953  159.0887 H   0  0  0  0  0  0  0  0  0  0  0  0
  150.9616  144.3880  159.9570 H   0  0  0  0  0  0  0  0  0  0  0  0
  153.8460  144.1244  160.6772 H   0  0  0  0  0  0  0  0  0  0  0  0
  152.4463  143.9904  161.7337 H   0  0  0  0  0  0  0  0  0  0  0  0
  153.9811  141.8003  160.7526 H   0  0  0  0  0  0  0  0  0  0  0  0
  152.3394  141.6577  161.4074 H   0  0  0  0  0  0  0  0  0  0  0  0
  148.1184  142.0480  153.8477 H   0  0  0  0  0  0  0  0  0  0  0  0
  147.6094  139.6636  153.5459 H   0  0  0  0  0  0  0  0  0  0  0  0
  146.2925  140.6713  152.9616 H   0  0  0  0  0  0  0  0  0  0  0  0
  146.1367  139.8223  154.4953 H   0  0  0  0  0  0  0  0  0  0  0  0
  145.6501  143.1096  152.9577 H   0  0  0  0  0  0  0  0  0  0  0  0
  144.1067  144.8222  154.4135 H   0  0  0  0  0  0  0  0  0  0  0  0
  144.9445  144.3606  157.0143 H   0  0  0  0  0  0  0  0  0  0  0  0
  149.0656  143.0639  156.0410 H   0  0  0  0  0  0  0  0  0  0  0  0
  1  2  1  0  0  0  0
  1 19  1  0  0  0  0
  1 20  1  0  0  0  0
  1 21  1  0  0  0  0
  2  3  1  0  0  0  0
  2 12  1  0  0  0  0
  2 22  1  0  0  0  0
  3  4  1  0  0  0  0
  3 23  1  0  0  0  0
  3 41  1  0  0  0  0
  4  5  1  0  0  0  0
  4 24  1  0  0  0  0
  4 25  1  0  0  0  0
  5  6  1  0  0  0  0
  5 26  1  0  0  0  0
  5 27  1  0  0  0  0
  6 10  1  0  0  0  0
  6  7  1  0  0  0  0
  7  8  1  0  0  0  0
  7 28  1  0  0  0  0
  7 29  1  0  0  0  0
  8  9  1  0  0  0  0
  8 30  1  0  0  0  0
  8 31  1  0  0  0  0
  9 10  1  0  0  0  0
  9 32  1  0  0  0  0
  9 33  1  0  0  0  0
 10 11  2  0  0  0  0
 12 13  1  0  0  0  0
 12 14  1  0  0  0  0
 12 34  1  0  0  0  0
 13 35  1  0  0  0  0
 13 36  1  0  0  0  0
 13 37  1  0  0  0  0
 14 18  1  0  0  0  0
 14 15  1  0  0  0  0
 15 16  2  0  0  0  0
 15 38  1  0  0  0  0
 16 17  1  0  0  0  0
 16 39  1  0  0  0  0
 17 18  2  0  0  0  0
 17 40  1  0  0  0  0
M  CHG  1   3   1
M  END
> <s_m_source_file>
AV-unprocessed.smi

> <i_m_source_file_index>
3222

> <i_lp_mmshare_version>
43012

> <i_f3d_flags>
0

> <s_epik_input>
bjFbY0hdW2NIXVtjSF1uMVtDQEBIXShbQ0gzXSlbQ0BIXShbQ0gzXSlbTkhdW0NIMl1bQ0gyXU4yW0NIMl1bQ0gyXVtDSDJdQzI9Tw==

> <s_epik_cmdline>
J2VwaWtfcHl0aG9uJywgJy1waCcsICc3LjAnLCAnLXRuJywgJzgnLCAnLW1hJywgJzIwMCcsICctbWV0YWxfYmluZGluZycsICctaW1hZScsICc8aW5maWxlLm1hZT4nLCAnLW9tYWUnLCAnPG91dGZpbGUubWFlPic=

> <r_lp_tautomer_probability>
1

> <r_epik_Ionization_Penalty>
0.0064019

> <r_epik_Ionization_Penalty_Charging>
0.00639164

> <r_epik_Ionization_Penalty_Neutral>
1.02567e-05

> <r_epik_State_Penalty>
0.00472531

> <r_epik_Charging_Adjusted_Penalty>
0.011117

> <i_epik_Tot_Q>
1

> <i_epik_Tot_abs_Q>
1

> <r_epik_Metal_State_Penalty>
-0

> <b_epik_Metal_Only>
0

> <s_lp_Force_Field>
OPLS_2005

> <r_lp_Energy>
25.7217

> <b_lp_Chiralities_Consistent>
1

> <s_lp_Variant>
AV-unprocessed.smi:3222-4

> <Gold.Version>
5.8.1

> <Gold.Id.Protein>
6NUR|6NUR_protein|mol2

> <Gold.PLP.Fitness>
48.1268

> <Gold.PLP.PLP>
-43.1327

> <Gold.PLP.part.hbond>
-1.9686

> <Gold.PLP.part.metal>
0.0000

> <Gold.PLP.part.buried>
-2.2746

> <Gold.PLP.part.nonpolar>
-38.6896

> <Gold.PLP.part.repulsive>
0.3261

> <Gold.PLP.ligand.clash>
0.0000

> <Gold.PLP.ligand.torsion>
1.1074

> <Gold.PLP.Chemscore.Hbond>
2.3058

> <Gold.PLP.Chemscore.CHOScore>
0.0000

> <Gold.PLP.Chemscore.Metal>
0.0000

> <Gold.Chemscore.Hbonds>
donor molecule, donor type, donor heavy atom, donor atom, acceptor molecule, acceptor atom, score
      L1  H     3    41       P1  8028  2.00

> <Gold.PLP.Chemscore.Internal.Correction>
0.2916

> <Gold.Rescore>
     Score         DG    S(hbond)    S(metal)    S(lipo)     H(rot)  DE(clash)    DE(int)     intcor
     11.82     -14.78       0.99        0.00      94.86       1.99       0.16       2.80       ----

> <Gold.Chemscore.Fitness>
11.8247

> <Gold.Chemscore.DG>
-14.7815

> <Gold.Chemscore.ZeroCoef>
-5.4800

> <Gold.Chemscore.Hbond>
0.9890

> <Gold.Chemscore.Metal>
0.0000

> <Gold.Chemscore.Lipo>
94.8571

> <Gold.Chemscore.Internal_Hbond>
0.0000

> <Gold.Chemscore.DEClash>
0.1596

> <Gold.Chemscore.DEInternal>
2.7971

> <Gold.Chemscore.Rot>
1.9922

> <Gold.Chemscore.Internal.Correction>
   9.000000E+99

> <Gold.Chemscore.Hbonds>
donor molecule, donor type, donor heavy atom, donor atom, acceptor molecule, acceptor atom, score
      L1  H     3    41       P1  8028  0.99

> <Gold.Chemscore.Hbond.Weighted>
-3.3033

> <Gold.Chemscore.Metal.Weighted>
-0.0000

> <Gold.Chemscore.Lipo.Weighted>
-11.0983

> <Gold.Chemscore.Internal_Hbond.Weighted>
0.0000

> <Gold.Chemscore.DEClash.Weighted>
0.1596

> <Gold.Chemscore.DEInternal.Weighted>
2.7971

> <Gold.Chemscore.Rot.Weighted>
5.1002

> <Gold.Chemscore.Internal.Correction.Weighted>
   9.000000E+99

> <Gold.Protein.RotatedTorsions>
[ 6907 6896 6895 6894 ] final -104.47 input  -60.11 | X-H torsion
[ 7974 7965 7964 7962 ] final  -73.42 input  175.53 | X-H torsion
[ 8008 7997 7996 7995 ] final  156.97 input   59.86 | X-H torsion
[ 10167 10162 10161 10158 ] final -176.68 input  -65.29 | X-H torsion
[ 10718 10713 10712 10709 ] final    4.15 input   66.30 | X-H torsion
[ 10763 10752 10751 10750 ] final  -55.20 input  -60.55 | X-H torsion
[ 11005 11000 10999 10996 ] final  -13.42 input  -57.11 | X-H torsion

> <Gold.Protein.ActiveResidues>
 VAL166  LYS551  ARG553  GLY616  TRP617  ASP618  TYR619  PRO620  LYS621  CYS622 
 ASP623  PHE694  ASN695  SER759  ASP760  ASP761  ALA762  ILE779  LEU786  VAL792 
 PHE793  MET794  SER795  GLU796  ALA797  LYS798  CYS799  TRP800  GLU811  SER814 

> <Gold.Protein.RotatedAtoms>
  150.7289  134.0273  159.3721 H   0  0  0  0  0  0  0  0  0  0  0  0  # atno 6907 bound_to 6896
  151.8240  135.0640  160.0438 H   0  0  0  0  0  0  0  0  0  0  0  0  # atno 6908 bound_to 6896
  152.2982  133.5593  159.5638 H   0  0  0  0  0  0  0  0  0  0  0  0  # atno 6909 bound_to 6896
  145.6524  140.9278  143.0978 H   0  0  0  0  0  0  0  0  0  0  0  0  # atno 7974 bound_to 7965
  156.2391  140.1898  156.7037 H   0  0  0  0  0  0  0  0  0  0  0  0  # atno 8008 bound_to 7997
  154.6163  140.0615  156.9585 H   0  0  0  0  0  0  0  0  0  0  0  0  # atno 8009 bound_to 7997
  155.1934  140.3286  155.4357 H   0  0  0  0  0  0  0  0  0  0  0  0  # atno 8010 bound_to 7997
  139.5518  144.2091  152.1089 H   0  0  0  0  0  0  0  0  0  0  0  0  # atno 10167 bound_to 10162
  156.8884  130.5678  149.5650 H   0  0  0  0  0  0  0  0  0  0  0  0  # atno 10718 bound_to 10713
  154.1870  135.6434  153.5049 H   0  0  0  0  0  0  0  0  0  0  0  0  # atno 10763 bound_to 10752
  153.0044  135.5419  154.6455 H   0  0  0  0  0  0  0  0  0  0  0  0  # atno 10764 bound_to 10752
  154.5834  135.2927  155.0682 H   0  0  0  0  0  0  0  0  0  0  0  0  # atno 10765 bound_to 10752
  140.7760  133.8401  155.9249 H   0  0  0  0  0  0  0  0  0  0  0  0  # atno 11005 bound_to 11000
  144.7118  139.8343  143.7412 LP  0  0  0  0  0  0  0  0  0  0  0  0  # atno 17320 bound_to 7965
  146.1193  139.4209  143.0238 LP  0  0  0  0  0  0  0  0  0  0  0  0  # atno 17321 bound_to 7965
  140.1588  144.5046  150.6645 LP  0  0  0  0  0  0  0  0  0  0  0  0  # atno 17342 bound_to 10162
  140.6782  143.2314  151.5453 LP  0  0  0  0  0  0  0  0  0  0  0  0  # atno 17343 bound_to 10162
  156.0641  130.5688  150.9253 LP  0  0  0  0  0  0  0  0  0  0  0  0  # atno 17370 bound_to 10713
  157.6098  131.0937  150.8814 LP  0  0  0  0  0  0  0  0  0  0  0  0  # atno 17371 bound_to 10713
  140.9529  134.1756  157.4714 LP  0  0  0  0  0  0  0  0  0  0  0  0  # atno 17394 bound_to 11000
  139.8749  134.9916  156.5556 LP  0  0  0  0  0  0  0  0  0  0  0  0  # atno 17395 bound_to 11000

$$$$
