AV-unprocessed.smi:170|AV-procd|sdf|1409|dock9
  -GOLD-   2262019163D 1   1.00000     0.00000
 Structure written by MMmdl.
 57 61  0  0  0  0  0  0  0  0  1 V2000
  150.6126  132.6443  156.3757 O   0  0  0  0  0  0  0  0  0  0  0  0
  150.4373  133.0066  155.0188 C   0  0  1  0  0  0  0  0  0  0  0  0
  151.2990  134.2345  154.6672 C   0  0  0  0  0  0  0  0  0  0  0  0
  150.5064  135.4409  154.5116 N   0  0  0  0  0  0  0  0  0  0  0  0
  149.1338  135.5315  154.5006 C   0  0  0  0  0  0  0  0  0  0  0  0
  148.6595  136.7370  154.3439 N   0  0  0  0  0  0  0  0  0  0  0  0
  149.7901  137.5407  154.2473 C   0  0  0  0  0  0  0  0  0  0  0  0
  150.0143  138.9390  154.0806 C   0  0  0  0  0  0  0  0  0  0  0  0
  149.0489  139.8829  153.9753 N   0  0  0  0  0  0  0  0  0  0  0  0
  147.8268  139.3054  153.4274 C   0  0  0  0  0  0  0  0  0  0  0  0
  146.8126  140.4101  153.1025 C   0  0  0  0  0  0  0  0  0  0  0  0
  146.5646  141.1703  154.2770 O   0  0  0  0  0  0  0  0  0  0  0  0
  147.7417  141.8143  154.7510 C   0  0  0  0  0  0  0  0  0  0  0  0
  148.8205  140.7701  155.1238 C   0  0  2  0  0  0  0  0  0  0  0  0
  150.1220  141.4583  155.6128 C   0  0  0  0  0  0  0  0  0  0  0  0
  150.6407  140.9232  156.9457 C   0  0  0  0  0  0  0  0  0  0  0  0
  150.3889  141.7193  158.2351 C   0  0  0  0  0  0  0  0  0  0  0  0
  151.7585  141.2525  158.7363 C   0  0  0  0  0  0  0  0  0  0  0  0
  152.1392  141.0149  157.2730 C   0  0  0  0  0  0  0  0  0  0  0  0
  151.2986  139.3686  154.0027 N   0  0  0  0  0  0  0  0  0  0  0  0
  152.3055  138.4957  154.1026 C   0  0  0  0  0  0  0  0  0  0  0  0
  152.2509  137.1735  154.2768 N   0  0  0  0  0  0  0  0  0  0  0  0
  150.9608  136.7360  154.3417 C   0  0  0  0  0  0  0  0  0  0  0  0
  150.7189  131.7992  154.1025 C   0  0  2  0  0  0  0  0  0  0  0  0
  150.2354  131.9197  152.6471 C   0  0  0  0  0  0  0  0  0  0  0  0
  149.4837  130.6203  152.4031 C   0  0  0  0  0  0  0  0  0  0  0  0
  149.9685  129.7150  153.5295 C   0  0  0  0  0  0  0  0  0  0  0  0
  150.1220  130.6134  154.6149 O   0  0  0  0  0  0  0  0  0  0  0  0
  149.8728  132.9677  156.8669 H   0  0  0  0  0  0  0  0  0  0  0  0
  149.3869  133.2770  154.9021 H   0  0  0  0  0  0  0  0  0  0  0  0
  152.0517  134.4110  155.4368 H   0  0  0  0  0  0  0  0  0  0  0  0
  151.8405  134.0605  153.7365 H   0  0  0  0  0  0  0  0  0  0  0  0
  148.4914  134.6696  154.6088 H   0  0  0  0  0  0  0  0  0  0  0  0
  148.0475  138.7356  152.5236 H   0  0  0  0  0  0  0  0  0  0  0  0
  147.3999  138.6085  154.1503 H   0  0  0  0  0  0  0  0  0  0  0  0
  147.1783  141.0561  152.3027 H   0  0  0  0  0  0  0  0  0  0  0  0
  145.8762  139.9720  152.7577 H   0  0  0  0  0  0  0  0  0  0  0  0
  148.1136  142.5101  153.9970 H   0  0  0  0  0  0  0  0  0  0  0  0
  147.4628  142.4087  155.6205 H   0  0  0  0  0  0  0  0  0  0  0  0
  148.4145  140.1677  155.9358 H   0  0  0  0  0  0  0  0  0  0  0  0
  150.9127  141.3405  154.8728 H   0  0  0  0  0  0  0  0  0  0  0  0
  149.9557  142.5336  155.6865 H   0  0  0  0  0  0  0  0  0  0  0  0
  150.3086  139.8968  157.1120 H   0  0  0  0  0  0  0  0  0  0  0  0
  150.3474  142.7972  158.0699 H   0  0  0  0  0  0  0  0  0  0  0  0
  149.5426  141.3711  158.8280 H   0  0  0  0  0  0  0  0  0  0  0  0
  152.3459  142.0184  159.2433 H   0  0  0  0  0  0  0  0  0  0  0  0
  151.7066  140.3289  159.3151 H   0  0  0  0  0  0  0  0  0  0  0  0
  152.7029  140.0999  157.0883 H   0  0  0  0  0  0  0  0  0  0  0  0
  152.6197  141.8822  156.8166 H   0  0  0  0  0  0  0  0  0  0  0  0
  153.2976  138.9172  154.0339 H   0  0  0  0  0  0  0  0  0  0  0  0
  151.7958  131.6218  154.0863 H   0  0  0  0  0  0  0  0  0  0  0  0
  149.5918  132.7822  152.4723 H   0  0  0  0  0  0  0  0  0  0  0  0
  151.0893  132.0085  151.9747 H   0  0  0  0  0  0  0  0  0  0  0  0
  148.4114  130.7911  152.5070 H   0  0  0  0  0  0  0  0  0  0  0  0
  149.6653  130.2000  151.4136 H   0  0  0  0  0  0  0  0  0  0  0  0
  149.2651  128.9156  153.7624 H   0  0  0  0  0  0  0  0  0  0  0  0
  150.9332  129.2676  153.2844 H   0  0  0  0  0  0  0  0  0  0  0  0
  1  2  1  0  0  0  0
  1 29  1  0  0  0  0
  2  3  1  0  0  0  0
  2 24  1  0  0  0  0
  2 30  1  0  0  0  0
  3  4  1  0  0  0  0
  3 31  1  0  0  0  0
  3 32  1  0  0  0  0
  4 23  1  0  0  0  0
  4  5  1  0  0  0  0
  5  6  2  0  0  0  0
  5 33  1  0  0  0  0
  6  7  1  0  0  0  0
  7 23  2  0  0  0  0
  7  8  1  0  0  0  0
  8  9  1  0  0  0  0
  8 20  2  0  0  0  0
  9 14  1  0  0  0  0
  9 10  1  0  0  0  0
 10 11  1  0  0  0  0
 10 34  1  0  0  0  0
 10 35  1  0  0  0  0
 11 12  1  0  0  0  0
 11 36  1  0  0  0  0
 11 37  1  0  0  0  0
 12 13  1  0  0  0  0
 13 14  1  0  0  0  0
 13 38  1  0  0  0  0
 13 39  1  0  0  0  0
 14 15  1  0  0  0  0
 14 40  1  0  0  0  0
 15 16  1  0  0  0  0
 15 41  1  0  0  0  0
 15 42  1  0  0  0  0
 16 19  1  0  0  0  0
 16 17  1  0  0  0  0
 16 43  1  0  0  0  0
 17 18  1  0  0  0  0
 17 44  1  0  0  0  0
 17 45  1  0  0  0  0
 18 19  1  0  0  0  0
 18 46  1  0  0  0  0
 18 47  1  0  0  0  0
 19 48  1  0  0  0  0
 19 49  1  0  0  0  0
 20 21  1  0  0  0  0
 21 22  2  0  0  0  0
 21 50  1  0  0  0  0
 22 23  1  0  0  0  0
 24 28  1  0  0  0  0
 24 25  1  0  0  0  0
 24 51  1  0  0  0  0
 25 26  1  0  0  0  0
 25 52  1  0  0  0  0
 25 53  1  0  0  0  0
 26 27  1  0  0  0  0
 26 54  1  0  0  0  0
 26 55  1  0  0  0  0
 27 28  1  0  0  0  0
 27 56  1  0  0  0  0
 27 57  1  0  0  0  0
M  END
> <s_m_source_file>
AV-unprocessed.smi

> <i_m_source_file_index>
170

> <i_lp_mmshare_version>
43012

> <i_f3d_flags>
0

> <s_epik_input>
TzFbQ0gyXVtDSDJdW0NIMl1bQ0BIXTFbQ0BIXShbT0hdKVtDSDJdbihbY0hdbjIpYyhjMjMpbltjSF1uYzNONFtDSDJdW0NIMl1PW0NIMl1bQ0BIXTRbQ0gyXVtDSF01W0NIMl1bQ0gyXVtDSDJdNQ==

> <s_epik_cmdline>
J2VwaWtfcHl0aG9uJywgJy1waCcsICc3LjAnLCAnLXRuJywgJzgnLCAnLW1hJywgJzIwMCcsICctbWV0YWxfYmluZGluZycsICctaW1hZScsICc8aW5maWxlLm1hZT4nLCAnLW9tYWUnLCAnPG91dGZpbGUubWFlPic=

> <r_lp_tautomer_probability>
1

> <r_epik_Ionization_Penalty>
4.98275e-05

> <r_epik_Ionization_Penalty_Charging>
0

> <r_epik_Ionization_Penalty_Neutral>
4.98275e-05

> <r_epik_State_Penalty>
-0

> <r_epik_Charging_Adjusted_Penalty>
0

> <i_epik_Tot_Q>
0

> <i_epik_Tot_abs_Q>
0

> <r_epik_Metal_State_Penalty>
-0

> <b_epik_Metal_Only>
0

> <s_lp_Force_Field>
OPLS_2005

> <r_lp_Energy>
52.3548

> <b_lp_Chiralities_Consistent>
1

> <s_lp_Variant>
AV-unprocessed.smi:170-4

> <Gold.Version>
5.8.1

> <Gold.Id.Protein>
6NUR|6NUR_protein|mol2

> <Gold.PLP.Fitness>
44.9940

> <Gold.PLP.PLP>
-40.9060

> <Gold.PLP.part.hbond>
-3.0000

> <Gold.PLP.part.metal>
0.0000

> <Gold.PLP.part.buried>
-4.5096

> <Gold.PLP.part.nonpolar>
-34.2187

> <Gold.PLP.part.repulsive>
1.3715

> <Gold.PLP.ligand.clash>
0.0000

> <Gold.PLP.ligand.torsion>
2.6032

> <Gold.PLP.Chemscore.Hbond>
2.9600

> <Gold.PLP.Chemscore.CHOScore>
0.0000

> <Gold.PLP.Chemscore.Metal>
0.0000

> <Gold.Chemscore.Hbonds>
donor molecule, donor type, donor heavy atom, donor atom, acceptor molecule, acceptor atom, score
      P1  H  7989  7998       L1    20  1.00
      P1  H 10752 10765       L1    22  0.46

> <Gold.PLP.Chemscore.Internal.Correction>
0.4143

> <Gold.Rescore>
     Score         DG    S(hbond)    S(metal)    S(lipo)     H(rot)  DE(clash)    DE(int)     intcor
     12.22     -17.28       2.45        0.00      87.98       2.61       0.38       4.68       ----

> <Gold.Chemscore.Fitness>
12.2172

> <Gold.Chemscore.DG>
-17.2774

> <Gold.Chemscore.ZeroCoef>
-5.4800

> <Gold.Chemscore.Hbond>
2.4541

> <Gold.Chemscore.Metal>
0.0000

> <Gold.Chemscore.Lipo>
87.9794

> <Gold.Chemscore.Internal_Hbond>
0.0000

> <Gold.Chemscore.DEClash>
0.3844

> <Gold.Chemscore.DEInternal>
4.6757

> <Gold.Chemscore.Rot>
2.6144

> <Gold.Chemscore.Internal.Correction>
   9.000000E+99

> <Gold.Chemscore.Hbonds>
donor molecule, donor type, donor heavy atom, donor atom, acceptor molecule, acceptor atom, score
      P1  H  7989  7998       L1    20  0.90
      P1  H 10752 10765       L1    22  0.07

> <Gold.Chemscore.Hbond.Weighted>
-8.1967

> <Gold.Chemscore.Metal.Weighted>
-0.0000

> <Gold.Chemscore.Lipo.Weighted>
-10.2936

> <Gold.Chemscore.Internal_Hbond.Weighted>
0.0000

> <Gold.Chemscore.DEClash.Weighted>
0.3844

> <Gold.Chemscore.DEInternal.Weighted>
4.6757

> <Gold.Chemscore.Rot.Weighted>
6.6929

> <Gold.Chemscore.Internal.Correction.Weighted>
   9.000000E+99

> <Gold.Protein.RotatedTorsions>
[ 6907 6896 6895 6894 ] final  -22.72 input  -60.11 | X-H torsion
[ 7974 7965 7964 7962 ] final  -27.31 input  175.53 | X-H torsion
[ 8008 7997 7996 7995 ] final   51.23 input   59.86 | X-H torsion
[ 10167 10162 10161 10158 ] final  -40.27 input  -65.29 | X-H torsion
[ 10718 10713 10712 10709 ] final   27.45 input   66.30 | X-H torsion
[ 10763 10752 10751 10750 ] final -174.23 input  -60.55 | X-H torsion
[ 11005 11000 10999 10996 ] final  124.40 input  -57.11 | X-H torsion

> <Gold.Protein.ActiveResidues>
 VAL166  LYS551  ARG553  GLY616  TRP617  ASP618  TYR619  PRO620  LYS621  CYS622 
 ASP623  PHE694  ASN695  SER759  ASP760  ASP761  ALA762  ILE779  LEU786  VAL792 
 PHE793  MET794  SER795  GLU796  ALA797  LYS798  CYS799  TRP800  GLU811  SER814 

> <Gold.Protein.RotatedAtoms>
  151.2145  135.0494  159.8924 H   0  0  0  0  0  0  0  0  0  0  0  0  # atno 6907 bound_to 6896
  152.5421  134.0708  159.8203 H   0  0  0  0  0  0  0  0  0  0  0  0  # atno 6908 bound_to 6896
  151.0866  133.5300  159.2649 H   0  0  0  0  0  0  0  0  0  0  0  0  # atno 6909 bound_to 6896
  146.1366  140.5135  142.8670 H   0  0  0  0  0  0  0  0  0  0  0  0  # atno 7974 bound_to 7965
  155.4319  140.3451  155.4281 H   0  0  0  0  0  0  0  0  0  0  0  0  # atno 8008 bound_to 7997
  156.1331  140.1520  156.9066 H   0  0  0  0  0  0  0  0  0  0  0  0  # atno 8009 bound_to 7997
  154.4910  140.0841  156.7574 H   0  0  0  0  0  0  0  0  0  0  0  0  # atno 8010 bound_to 7997
  140.7039  143.3164  151.2900 H   0  0  0  0  0  0  0  0  0  0  0  0  # atno 10167 bound_to 10162
  157.2204  130.6976  149.6267 H   0  0  0  0  0  0  0  0  0  0  0  0  # atno 10718 bound_to 10713
  154.5987  135.2852  155.0558 H   0  0  0  0  0  0  0  0  0  0  0  0  # atno 10763 bound_to 10752
  154.1831  135.6453  153.5043 H   0  0  0  0  0  0  0  0  0  0  0  0  # atno 10764 bound_to 10752
  153.0148  135.5428  154.6698 H   0  0  0  0  0  0  0  0  0  0  0  0  # atno 10765 bound_to 10752
  139.9357  134.9639  156.8403 H   0  0  0  0  0  0  0  0  0  0  0  0  # atno 11005 bound_to 11000
  144.7746  140.5713  143.6646 LP  0  0  0  0  0  0  0  0  0  0  0  0  # atno 17320 bound_to 7965
  145.5142  139.1478  143.3588 LP  0  0  0  0  0  0  0  0  0  0  0  0  # atno 17321 bound_to 7965
  139.6604  144.0200  152.2688 LP  0  0  0  0  0  0  0  0  0  0  0  0  # atno 17342 bound_to 10162
  139.9766  144.6457  150.7940 LP  0  0  0  0  0  0  0  0  0  0  0  0  # atno 17343 bound_to 10162
  155.9683  130.4522  150.5764 LP  0  0  0  0  0  0  0  0  0  0  0  0  # atno 17370 bound_to 10713
  157.3582  131.0745  151.1658 LP  0  0  0  0  0  0  0  0  0  0  0  0  # atno 17371 bound_to 10713
  140.6083  134.0106  155.7566 LP  0  0  0  0  0  0  0  0  0  0  0  0  # atno 17394 bound_to 11000
  141.0969  133.9830  157.3145 LP  0  0  0  0  0  0  0  0  0  0  0  0  # atno 17395 bound_to 11000

$$$$
