AV-unprocessed.smi:1214|AV-procd|sdf|5092|dock2
  -GOLD-   22720 4143D 1   1.00000     0.00000
 Structure written by MMmdl.
 33 34  0  0  0  0  0  0  0  0  1 V2000
  152.7320  142.8758  161.7605 C   0  0  0  0  0  0  0  0  0  0  0  0
  152.2612  143.4217  160.4218 C   0  0  0  0  0  0  0  0  0  0  0  0
  152.0435  144.8090  160.2832 C   0  0  0  0  0  0  0  0  0  0  0  0
  151.6088  145.3151  159.0464 C   0  0  0  0  0  0  0  0  0  0  0  0
  151.4100  144.4062  157.9941 C   0  0  0  0  0  0  0  0  0  0  0  0
  151.6157  143.0791  158.1185 N   0  0  0  0  0  0  0  0  0  0  0  0
  152.0309  142.5703  159.3072 C   0  0  0  0  0  0  0  0  0  0  0  0
  152.2905  141.1808  159.5192 N   0  0  0  0  0  0  0  0  0  0  0  0
  153.3836  140.5324  159.9750 C   0  0  0  0  0  0  0  0  0  0  0  0
  154.3937  141.1490  160.3097 O   0  0  0  0  0  0  0  0  0  0  0  0
  153.2912  139.1950  160.0534 N   0  0  0  0  0  0  0  0  0  0  0  0
  154.3413  138.3001  160.5261 C   0  0  2  0  0  0  0  0  0  0  0  0
  155.3360  137.9350  159.4061 C   0  0  0  0  0  0  0  0  0  0  0  0
  156.1598  136.7216  159.8550 C   0  0  0  0  0  0  0  0  0  0  0  0
  155.0746  135.7504  160.9681 S   0  0  0  0  0  0  0  0  0  0  0  0
  154.5758  134.5620  160.2596 O   0  0  0  0  0  0  0  0  0  0  0  0
  155.7257  135.6306  162.2814 O   0  0  0  0  0  0  0  0  0  0  0  0
  153.7360  136.9970  161.0645 C   0  0  0  0  0  0  0  0  0  0  0  0
  152.8464  143.6720  162.4966 H   0  0  0  0  0  0  0  0  0  0  0  0
  153.6962  142.3781  161.6531 H   0  0  0  0  0  0  0  0  0  0  0  0
  152.0122  142.1572  162.1537 H   0  0  0  0  0  0  0  0  0  0  0  0
  152.2076  145.4807  161.1129 H   0  0  0  0  0  0  0  0  0  0  0  0
  151.4340  146.3717  158.9083 H   0  0  0  0  0  0  0  0  0  0  0  0
  151.0783  144.7521  157.0263 H   0  0  0  0  0  0  0  0  0  0  0  0
  151.5067  140.5785  159.3153 H   0  0  0  0  0  0  0  0  0  0  0  0
  152.4255  138.7680  159.7545 H   0  0  0  0  0  0  0  0  0  0  0  0
  154.8931  138.7754  161.3394 H   0  0  0  0  0  0  0  0  0  0  0  0
  154.7789  137.6645  158.5077 H   0  0  0  0  0  0  0  0  0  0  0  0
  155.9769  138.7761  159.1402 H   0  0  0  0  0  0  0  0  0  0  0  0
  156.4961  136.1043  159.0221 H   0  0  0  0  0  0  0  0  0  0  0  0
  157.0310  137.0377  160.4289 H   0  0  0  0  0  0  0  0  0  0  0  0
  153.3759  137.0843  162.0897 H   0  0  0  0  0  0  0  0  0  0  0  0
  152.9156  136.6512  160.4344 H   0  0  0  0  0  0  0  0  0  0  0  0
  1  2  1  0  0  0  0
  1 19  1  0  0  0  0
  1 20  1  0  0  0  0
  1 21  1  0  0  0  0
  2  7  1  0  0  0  0
  2  3  2  0  0  0  0
  3  4  1  0  0  0  0
  3 22  1  0  0  0  0
  4  5  2  0  0  0  0
  4 23  1  0  0  0  0
  5  6  1  0  0  0  0
  5 24  1  0  0  0  0
  6  7  2  0  0  0  0
  7  8  1  0  0  0  0
  8  9  1  0  0  0  0
  8 25  1  0  0  0  0
  9 10  2  0  0  0  0
  9 11  1  0  0  0  0
 11 12  1  0  0  0  0
 11 26  1  0  0  0  0
 12 18  1  0  0  0  0
 12 13  1  0  0  0  0
 12 27  1  0  0  0  0
 13 14  1  0  0  0  0
 13 28  1  0  0  0  0
 13 29  1  0  0  0  0
 14 15  1  0  0  0  0
 14 30  1  0  0  0  0
 14 31  1  0  0  0  0
 15 16  2  0  0  0  0
 15 17  2  0  0  0  0
 15 18  1  0  0  0  0
 18 32  1  0  0  0  0
 18 33  1  0  0  0  0
M  END
> <s_m_source_file>
AV-unprocessed.smi

> <i_m_source_file_index>
1214

> <i_lp_mmshare_version>
43012

> <i_f3d_flags>
0

> <s_epik_input>
W0NIM11jMVtjSF1bY0hdW2NIXW5jMVtOSF1DKD1PKVtOSF1bQ0BASF0oW0NIMl0yKVtDSDJdW0NIMl1TMig9Tyk9Tw==

> <s_epik_cmdline>
J2VwaWtfcHl0aG9uJywgJy1waCcsICc3LjAnLCAnLXRuJywgJzgnLCAnLW1hJywgJzIwMCcsICctbWV0YWxfYmluZGluZycsICctaW1hZScsICc8aW5maWxlLm1hZT4nLCAnLW9tYWUnLCAnPG91dGZpbGUubWFlPic=

> <r_lp_tautomer_probability>
1

> <r_epik_Ionization_Penalty>
4.18367e-05

> <r_epik_Ionization_Penalty_Charging>
0

> <r_epik_Ionization_Penalty_Neutral>
4.18367e-05

> <r_epik_State_Penalty>
-0

> <r_epik_Charging_Adjusted_Penalty>
0

> <i_epik_Tot_Q>
0

> <i_epik_Tot_abs_Q>
0

> <r_epik_Metal_State_Penalty>
-0

> <b_epik_Metal_Only>
0

> <s_lp_Force_Field>
OPLS_2005

> <r_lp_Energy>
8.88601

> <b_lp_Chiralities_Consistent>
1

> <s_lp_Variant>
AV-unprocessed.smi:1214-1

> <Gold.Version>
5.8.1

> <Gold.Id.Protein>
6NUR|6NUR_protein|mol2

> <Gold.PLP.Fitness>
37.7349

> <Gold.PLP.PLP>
-33.4520

> <Gold.PLP.part.hbond>
-1.0000

> <Gold.PLP.part.metal>
0.0000

> <Gold.PLP.part.buried>
-5.8319

> <Gold.PLP.part.nonpolar>
-26.9655

> <Gold.PLP.part.repulsive>
0.2684

> <Gold.PLP.ligand.clash>
0.0000

> <Gold.PLP.ligand.torsion>
0.8459

> <Gold.PLP.Chemscore.Hbond>
0.9913

> <Gold.PLP.Chemscore.CHOScore>
1.0000

> <Gold.PLP.Chemscore.Metal>
0.0000

> <Gold.Chemscore.Hbonds>
donor molecule, donor type, donor heavy atom, donor atom, acceptor molecule, acceptor atom, score
      P1  H  6896  6909       L1    16  1.00
      L1  C     5    24       P1  8028  0.97

> <Gold.PLP.Chemscore.Internal.Correction>
0.0009

> <Gold.Rescore>
     Score         DG    S(hbond)    S(metal)    S(lipo)     H(rot)  DE(clash)    DE(int)     intcor
     14.56     -15.52       1.00        0.00      79.25       1.00       0.02       0.94       ----

> <Gold.Chemscore.Fitness>
14.5577

> <Gold.Chemscore.DG>
-15.5232

> <Gold.Chemscore.ZeroCoef>
-5.4800

> <Gold.Chemscore.Hbond>
0.9972

> <Gold.Chemscore.Metal>
0.0000

> <Gold.Chemscore.Lipo>
79.2523

> <Gold.Chemscore.Internal_Hbond>
0.0000

> <Gold.Chemscore.DEClash>
0.0211

> <Gold.Chemscore.DEInternal>
0.9443

> <Gold.Chemscore.Rot>
1.0000

> <Gold.Chemscore.Internal.Correction>
   9.000000E+99

> <Gold.Chemscore.Hbonds>
donor molecule, donor type, donor heavy atom, donor atom, acceptor molecule, acceptor atom, score
      P1  H  6896  6909       L1    16  0.92

> <Gold.Chemscore.Hbond.Weighted>
-3.3307

> <Gold.Chemscore.Metal.Weighted>
-0.0000

> <Gold.Chemscore.Lipo.Weighted>
-9.2725

> <Gold.Chemscore.Internal_Hbond.Weighted>
0.0000

> <Gold.Chemscore.DEClash.Weighted>
0.0211

> <Gold.Chemscore.DEInternal.Weighted>
0.9443

> <Gold.Chemscore.Rot.Weighted>
2.5600

> <Gold.Chemscore.Internal.Correction.Weighted>
   9.000000E+99

> <Gold.Protein.RotatedTorsions>
[ 6907 6896 6895 6894 ] final -160.20 input  -60.11 | X-H torsion
[ 7974 7965 7964 7962 ] final -121.77 input  175.53 | X-H torsion
[ 8008 7997 7996 7995 ] final  114.22 input   59.86 | X-H torsion
[ 10167 10162 10161 10158 ] final  -54.78 input  -65.29 | X-H torsion
[ 10718 10713 10712 10709 ] final -161.97 input   66.30 | X-H torsion
[ 10763 10752 10751 10750 ] final  -60.91 input  -60.55 | X-H torsion
[ 11005 11000 10999 10996 ] final   19.37 input  -57.11 | X-H torsion

> <Gold.Protein.ActiveResidues>
 VAL166  LYS551  ARG553  GLY616  TRP617  ASP618  TYR619  PRO620  LYS621  CYS622 
 ASP623  PHE694  ASN695  SER759  ASP760  ASP761  ALA762  ILE779  LEU786  VAL792 
 PHE793  MET794  SER795  GLU796  ALA797  LYS798  CYS799  TRP800  GLU811  SER814 

> <Gold.Protein.RotatedAtoms>
  151.3454  133.3946  159.2674 H   0  0  0  0  0  0  0  0  0  0  0  0  # atno 6907 bound_to 6896
  150.9844  134.9193  159.7873 H   0  0  0  0  0  0  0  0  0  0  0  0  # atno 6908 bound_to 6896
  152.5227  134.3419  159.9272 H   0  0  0  0  0  0  0  0  0  0  0  0  # atno 6909 bound_to 6896
  145.0367  140.8111  143.4291 H   0  0  0  0  0  0  0  0  0  0  0  0  # atno 7974 bound_to 7965
  156.2308  140.2963  156.0182 H   0  0  0  0  0  0  0  0  0  0  0  0  # atno 8008 bound_to 7997
  155.2231  140.0416  157.2968 H   0  0  0  0  0  0  0  0  0  0  0  0  # atno 8009 bound_to 7997
  154.5992  140.2422  155.7823 H   0  0  0  0  0  0  0  0  0  0  0  0  # atno 8010 bound_to 7997
  140.6412  143.2509  151.4985 H   0  0  0  0  0  0  0  0  0  0  0  0  # atno 10167 bound_to 10162
  156.6038  130.8821  151.2920 H   0  0  0  0  0  0  0  0  0  0  0  0  # atno 10718 bound_to 10713
  154.2765  135.6280  153.5330 H   0  0  0  0  0  0  0  0  0  0  0  0  # atno 10763 bound_to 10752
  152.9872  135.5623  154.5542 H   0  0  0  0  0  0  0  0  0  0  0  0  # atno 10764 bound_to 10752
  154.5124  135.2877  155.1307 H   0  0  0  0  0  0  0  0  0  0  0  0  # atno 10765 bound_to 10752
  140.4144  134.1584  155.7669 H   0  0  0  0  0  0  0  0  0  0  0  0  # atno 11005 bound_to 11000
  145.1701  139.2409  143.5347 LP  0  0  0  0  0  0  0  0  0  0  0  0  # atno 17320 bound_to 7965
  146.3505  140.1449  142.8593 LP  0  0  0  0  0  0  0  0  0  0  0  0  # atno 17321 bound_to 7965
  139.5621  144.2131  152.1707 LP  0  0  0  0  0  0  0  0  0  0  0  0  # atno 17342 bound_to 10162
  140.1402  144.5209  150.6749 LP  0  0  0  0  0  0  0  0  0  0  0  0  # atno 17343 bound_to 10162
  157.7272  130.9640  150.1691 LP  0  0  0  0  0  0  0  0  0  0  0  0  # atno 17370 bound_to 10713
  156.2447  130.3694  149.8298 LP  0  0  0  0  0  0  0  0  0  0  0  0  # atno 17371 bound_to 10713
  141.1808  133.8417  157.1263 LP  0  0  0  0  0  0  0  0  0  0  0  0  # atno 17394 bound_to 11000
  140.0244  134.9931  157.0657 LP  0  0  0  0  0  0  0  0  0  0  0  0  # atno 17395 bound_to 11000

$$$$
