AV-unprocessed.smi:2153|AV-procd|sdf|8767|dock10
  -GOLD-   2272011543D 1   1.00000     0.00000
 Structure written by MMmdl.
 48 49  0  0  0  0  0  0  0  0  1 V2000
  144.6160  134.9954  152.6175 C   0  0  0  0  0  0  0  0  0  0  0  0
  144.4396  133.8567  151.6004 C   0  0  1  0  0  0  0  0  0  0  0  0
  144.5972  134.3574  150.1489 C   0  0  0  0  0  0  0  0  0  0  0  0
  144.3812  133.2229  149.1342 C   0  0  0  0  0  0  0  0  0  0  0  0
  145.3072  132.0302  149.4175 C   0  0  0  0  0  0  0  0  0  0  0  0
  145.1474  131.5359  150.8631 C   0  0  0  0  0  0  0  0  0  0  0  0
  145.3915  132.6718  151.8813 C   0  0  1  0  0  0  0  0  0  0  0  0
  146.7202  133.1762  151.8156 O   0  0  0  0  0  0  0  0  0  0  0  0
  147.2836  133.6360  153.0342 C   0  0  0  0  0  0  0  0  0  0  0  0
  148.4003  132.6699  153.4580 C   0  0  0  0  0  0  0  0  0  0  0  0
  149.4611  133.3589  154.1874 N   0  0  0  0  0  0  0  0  0  0  0  0
  149.2638  134.3169  155.1070 C   0  0  0  0  0  0  0  0  0  0  0  0
  148.1452  134.6917  155.4622 O   0  0  0  0  0  0  0  0  0  0  0  0
  150.5218  134.9302  155.7349 C   0  0  0  0  0  0  0  0  0  0  0  0
  150.7319  136.3218  155.3148 N   0  0  0  0  0  0  0  0  0  0  0  0
  151.5513  136.5933  154.2342 C   0  0  0  0  0  0  0  0  0  0  0  0
  151.8302  137.8438  153.8061 C   0  0  0  0  0  0  0  0  0  0  0  0
  151.2642  139.0063  154.4785 C   0  0  0  0  0  0  0  0  0  0  0  0
  151.5026  140.1665  154.1396 O   0  0  0  0  0  0  0  0  0  0  0  0
  150.4176  138.7019  155.5691 N   0  0  0  0  0  0  0  0  0  0  0  0
  149.8428  139.8237  156.2820 C   0  0  0  0  0  0  0  0  0  0  0  0
  150.1387  137.3909  156.0206 C   0  0  0  0  0  0  0  0  0  0  0  0
  149.4153  137.1689  156.9938 O   0  0  0  0  0  0  0  0  0  0  0  0
  145.6092  135.4406  152.5509 H   0  0  0  0  0  0  0  0  0  0  0  0
  144.4805  134.6354  153.6376 H   0  0  0  0  0  0  0  0  0  0  0  0
  143.8874  135.7881  152.4477 H   0  0  0  0  0  0  0  0  0  0  0  0
  143.4182  133.4892  151.7113 H   0  0  0  0  0  0  0  0  0  0  0  0
  143.8872  135.1610  149.9514 H   0  0  0  0  0  0  0  0  0  0  0  0
  145.5904  134.7870  150.0098 H   0  0  0  0  0  0  0  0  0  0  0  0
  143.3421  132.8942  149.1726 H   0  0  0  0  0  0  0  0  0  0  0  0
  144.5498  133.5903  148.1224 H   0  0  0  0  0  0  0  0  0  0  0  0
  145.0927  131.2203  148.7202 H   0  0  0  0  0  0  0  0  0  0  0  0
  146.3445  132.3181  149.2459 H   0  0  0  0  0  0  0  0  0  0  0  0
  144.1360  131.1500  150.9966 H   0  0  0  0  0  0  0  0  0  0  0  0
  145.8086  130.6901  151.0478 H   0  0  0  0  0  0  0  0  0  0  0  0
  145.2055  132.2990  152.8899 H   0  0  0  0  0  0  0  0  0  0  0  0
  147.6966  134.6368  152.9025 H   0  0  0  0  0  0  0  0  0  0  0  0
  146.5256  133.6902  153.8155 H   0  0  0  0  0  0  0  0  0  0  0  0
  147.9903  131.8511  154.0517 H   0  0  0  0  0  0  0  0  0  0  0  0
  148.8425  132.2140  152.5722 H   0  0  0  0  0  0  0  0  0  0  0  0
  150.4118  133.1075  153.9590 H   0  0  0  0  0  0  0  0  0  0  0  0
  150.4170  134.8833  156.8196 H   0  0  0  0  0  0  0  0  0  0  0  0
  151.3968  134.3222  155.4974 H   0  0  0  0  0  0  0  0  0  0  0  0
  152.0013  135.7635  153.7083 H   0  0  0  0  0  0  0  0  0  0  0  0
  152.4844  137.9859  152.9585 H   0  0  0  0  0  0  0  0  0  0  0  0
  149.0055  139.5019  156.9012 H   0  0  0  0  0  0  0  0  0  0  0  0
  149.4710  140.5409  155.5481 H   0  0  0  0  0  0  0  0  0  0  0  0
  150.6392  140.2527  156.8922 H   0  0  0  0  0  0  0  0  0  0  0  0
  1  2  1  0  0  0  0
  1 24  1  0  0  0  0
  1 25  1  0  0  0  0
  1 26  1  0  0  0  0
  2  7  1  0  0  0  0
  2  3  1  0  0  0  0
  2 27  1  0  0  0  0
  3  4  1  0  0  0  0
  3 28  1  0  0  0  0
  3 29  1  0  0  0  0
  4  5  1  0  0  0  0
  4 30  1  0  0  0  0
  4 31  1  0  0  0  0
  5  6  1  0  0  0  0
  5 32  1  0  0  0  0
  5 33  1  0  0  0  0
  6  7  1  0  0  0  0
  6 34  1  0  0  0  0
  6 35  1  0  0  0  0
  7  8  1  0  0  0  0
  7 36  1  0  0  0  0
  8  9  1  0  0  0  0
  9 10  1  0  0  0  0
  9 37  1  0  0  0  0
  9 38  1  0  0  0  0
 10 11  1  0  0  0  0
 10 39  1  0  0  0  0
 10 40  1  0  0  0  0
 11 12  1  0  0  0  0
 11 41  1  0  0  0  0
 12 13  2  0  0  0  0
 12 14  1  0  0  0  0
 14 15  1  0  0  0  0
 14 42  1  0  0  0  0
 14 43  1  0  0  0  0
 15 22  1  0  0  0  0
 15 16  1  0  0  0  0
 16 17  2  0  0  0  0
 16 44  1  0  0  0  0
 17 18  1  0  0  0  0
 17 45  1  0  0  0  0
 18 19  2  0  0  0  0
 18 20  1  0  0  0  0
 20 21  1  0  0  0  0
 20 22  1  0  0  0  0
 21 46  1  0  0  0  0
 21 47  1  0  0  0  0
 21 48  1  0  0  0  0
 22 23  2  0  0  0  0
M  END
> <s_m_source_file>
AV-unprocessed.smi

> <i_m_source_file_index>
2153

> <i_lp_mmshare_version>
43012

> <i_f3d_flags>
0

> <s_epik_input>
W0NIM11bQ0BASF0xW0NIMl1bQ0gyXVtDSDJdW0NIMl1bQ0BIXTFPW0NIMl1bQ0gyXVtOSF1DKD1PKVtDSDJdbjJbY0hdW2NIXWMoPU8pbihbQ0gzXSljMj1P

> <s_epik_cmdline>
J2VwaWtfcHl0aG9uJywgJy1waCcsICc3LjAnLCAnLXRuJywgJzgnLCAnLW1hJywgJzIwMCcsICctbWV0YWxfYmluZGluZycsICctaW1hZScsICc8aW5maWxlLm1hZT4nLCAnLW9tYWUnLCAnPG91dGZpbGUubWFlPic=

> <r_lp_tautomer_probability>
1

> <r_epik_Ionization_Penalty>
4.02205e-08

> <r_epik_Ionization_Penalty_Charging>
1.23606e-08

> <r_epik_Ionization_Penalty_Neutral>
2.78599e-08

> <r_epik_State_Penalty>
-0

> <r_epik_Charging_Adjusted_Penalty>
1.23606e-08

> <i_epik_Tot_Q>
0

> <i_epik_Tot_abs_Q>
0

> <r_epik_Metal_State_Penalty>
-0

> <b_epik_Metal_Only>
0

> <s_lp_Force_Field>
OPLS_2005

> <r_lp_Energy>
16.8304

> <b_lp_Chiralities_Consistent>
1

> <s_lp_Variant>
AV-unprocessed.smi:2153-2

> <Gold.Version>
5.8.1

> <Gold.Id.Protein>
6NUR|6NUR_protein|mol2

> <Gold.PLP.Fitness>
38.8066

> <Gold.PLP.PLP>
-36.0691

> <Gold.PLP.part.hbond>
-1.0000

> <Gold.PLP.part.metal>
0.0000

> <Gold.PLP.part.buried>
-4.5264

> <Gold.PLP.part.nonpolar>
-30.2382

> <Gold.PLP.part.repulsive>
0.3300

> <Gold.PLP.ligand.clash>
0.0000

> <Gold.PLP.ligand.torsion>
1.5611

> <Gold.PLP.Chemscore.Hbond>
0.8960

> <Gold.PLP.Chemscore.CHOScore>
1.0000

> <Gold.PLP.Chemscore.Metal>
0.0000

> <Gold.Chemscore.Hbonds>
donor molecule, donor type, donor heavy atom, donor atom, acceptor molecule, acceptor atom, score
      L1  C    16    44       P1  7949  0.49

> <Gold.PLP.Chemscore.Internal.Correction>
0.1717

> <Gold.Rescore>
     Score         DG    S(hbond)    S(metal)    S(lipo)     H(rot)  DE(clash)    DE(int)     intcor
      9.97     -13.16       0.99        0.00      85.47       2.20       0.01       3.18       ----

> <Gold.Chemscore.Fitness>
9.9731

> <Gold.Chemscore.DG>
-13.1570

> <Gold.Chemscore.ZeroCoef>
-5.4800

> <Gold.Chemscore.Hbond>
0.9884

> <Gold.Chemscore.Metal>
0.0000

> <Gold.Chemscore.Lipo>
85.4651

> <Gold.Chemscore.Internal_Hbond>
0.0000

> <Gold.Chemscore.DEClash>
0.0081

> <Gold.Chemscore.DEInternal>
3.1758

> <Gold.Chemscore.Rot>
2.1968

> <Gold.Chemscore.Internal.Correction>
   9.000000E+99

> <Gold.Chemscore.Hbond.Weighted>
-3.3013

> <Gold.Chemscore.Metal.Weighted>
-0.0000

> <Gold.Chemscore.Lipo.Weighted>
-9.9994

> <Gold.Chemscore.Internal_Hbond.Weighted>
0.0000

> <Gold.Chemscore.DEClash.Weighted>
0.0081

> <Gold.Chemscore.DEInternal.Weighted>
3.1758

> <Gold.Chemscore.Rot.Weighted>
5.6238

> <Gold.Chemscore.Internal.Correction.Weighted>
   9.000000E+99

> <Gold.Protein.RotatedTorsions>
[ 6907 6896 6895 6894 ] final -177.20 input  -60.11 | X-H torsion
[ 7974 7965 7964 7962 ] final  -23.06 input  175.53 | X-H torsion
[ 8008 7997 7996 7995 ] final -122.60 input   59.86 | X-H torsion
[ 10167 10162 10161 10158 ] final  115.41 input  -65.29 | X-H torsion
[ 10718 10713 10712 10709 ] final  177.26 input   66.30 | X-H torsion
[ 10763 10752 10751 10750 ] final  176.29 input  -60.55 | X-H torsion
[ 11005 11000 10999 10996 ] final -130.87 input  -57.11 | X-H torsion

> <Gold.Protein.ActiveResidues>
 VAL166  LYS551  ARG553  GLY616  TRP617  ASP618  TYR619  PRO620  LYS621  CYS622 
 ASP623  PHE694  ASN695  SER759  ASP760  ASP761  ALA762  ILE779  LEU786  VAL792 
 PHE793  MET794  SER795  GLU796  ALA797  LYS798  CYS799  TRP800  GLU811  SER814 

> <Gold.Protein.RotatedAtoms>
  151.6172  133.3342  159.3079 H   0  0  0  0  0  0  0  0  0  0  0  0  # atno 6907 bound_to 6896
  150.8125  134.7292  159.6712 H   0  0  0  0  0  0  0  0  0  0  0  0  # atno 6908 bound_to 6896
  152.4221  134.5940  160.0033 H   0  0  0  0  0  0  0  0  0  0  0  0  # atno 6909 bound_to 6896
  146.1639  140.4564  142.8560 H   0  0  0  0  0  0  0  0  0  0  0  0  # atno 7974 bound_to 7965
  155.1669  140.0407  157.2854 H   0  0  0  0  0  0  0  0  0  0  0  0  # atno 8008 bound_to 7997
  154.6297  140.2521  155.7421 H   0  0  0  0  0  0  0  0  0  0  0  0  # atno 8009 bound_to 7997
  156.2478  140.2878  156.0643 H   0  0  0  0  0  0  0  0  0  0  0  0  # atno 8010 bound_to 7997
  139.6319  144.7116  151.2414 H   0  0  0  0  0  0  0  0  0  0  0  0  # atno 10167 bound_to 10162
  156.9080  130.9900  151.3025 H   0  0  0  0  0  0  0  0  0  0  0  0  # atno 10718 bound_to 10713
  154.4791  135.2774  155.1584 H   0  0  0  0  0  0  0  0  0  0  0  0  # atno 10763 bound_to 10752
  154.3301  135.6192  153.5551 H   0  0  0  0  0  0  0  0  0  0  0  0  # atno 10764 bound_to 10752
  152.9873  135.5763  154.5188 H   0  0  0  0  0  0  0  0  0  0  0  0  # atno 10765 bound_to 10752
  140.9308  134.1322  157.4236 H   0  0  0  0  0  0  0  0  0  0  0  0  # atno 11005 bound_to 11000
  144.8065  140.6308  143.6444 LP  0  0  0  0  0  0  0  0  0  0  0  0  # atno 17320 bound_to 7965
  145.4518  139.1522  143.3914 LP  0  0  0  0  0  0  0  0  0  0  0  0  # atno 17321 bound_to 7965
  140.7444  143.6465  150.8287 LP  0  0  0  0  0  0  0  0  0  0  0  0  # atno 17342 bound_to 10162
  140.0091  143.5662  152.2846 LP  0  0  0  0  0  0  0  0  0  0  0  0  # atno 17343 bound_to 10162
  157.5985  130.8495  149.8766 LP  0  0  0  0  0  0  0  0  0  0  0  0  # atno 17370 bound_to 10713
  156.0550  130.3710  150.1113 LP  0  0  0  0  0  0  0  0  0  0  0  0  # atno 17371 bound_to 10713
  139.8796  135.0004  156.6010 LP  0  0  0  0  0  0  0  0  0  0  0  0  # atno 17394 bound_to 11000
  140.7865  133.8617  155.8610 LP  0  0  0  0  0  0  0  0  0  0  0  0  # atno 17395 bound_to 11000

$$$$
