AV-unprocessed.smi:1041|AV-procd|sdf|4528|dock1
  -GOLD-   22720 2543D 1   1.00000     0.00000
 Structure written by MMmdl.
 53 54  0  0  0  0  0  0  0  0  2 V2000
  143.6436  132.4921  148.9999 C   0  0  0  0  0  0  0  0  0  0  0  0
  144.7550  131.9491  149.6920 O   0  0  0  0  0  0  0  0  0  0  0  0
  145.1452  132.7429  150.8001 C   0  0  0  0  0  0  0  0  0  0  0  0
  146.2519  132.0105  151.5752 C   0  0  0  0  0  0  0  0  0  0  0  0
  147.0772  132.9278  152.4024 N   0  3  2  0  0  0  0  0  0  0  0  0
  148.2746  132.2501  152.9625 C   0  0  0  0  0  0  0  0  0  0  0  0
  149.1869  133.2428  153.7024 C   0  0  0  0  0  0  0  0  0  0  0  0
  148.4231  133.9870  154.8160 C   0  0  1  0  0  0  0  0  0  0  0  0
  149.2987  135.0202  155.5496 C   0  0  0  0  0  0  0  0  0  0  0  0
  149.5139  136.2026  154.7280 N   0  0  0  0  0  0  0  0  0  0  0  0
  149.5882  137.4582  155.1907 C   0  0  0  0  0  0  0  0  0  0  0  0
  149.5264  137.7468  156.3852 O   0  0  0  0  0  0  0  0  0  0  0  0
  149.7521  138.5554  154.1383 C   0  0  0  0  0  0  0  0  0  0  0  0
  148.7413  139.6979  154.2280 C   0  0  0  0  0  0  0  0  0  0  0  0
  147.4329  139.5616  153.8628 C   0  0  0  0  0  0  0  0  0  0  0  0
  146.8559  138.2578  153.3392 C   0  0  0  0  0  0  0  0  0  0  0  0
  146.5304  140.6306  153.9514 N   0  0  0  0  0  0  0  0  0  0  0  0
  146.9553  141.7684  154.3928 C   0  0  0  0  0  0  0  0  0  0  0  0
  146.0827  142.9970  154.5391 C   0  0  0  0  0  0  0  0  0  0  0  0
  148.2784  141.9750  154.7791 N   0  0  0  0  0  0  0  0  0  0  0  0
  149.2184  141.0057  154.7187 C   0  0  0  0  0  0  0  0  0  0  0  0
  150.3799  141.2453  155.0454 O   0  0  0  0  0  0  0  0  0  0  0  0
  147.1743  134.6475  154.2081 C   0  0  0  0  0  0  0  0  0  0  0  0
  146.3019  133.6236  153.4635 C   0  0  0  0  0  0  0  0  0  0  0  0
  148.5541  142.8871  155.1125 H   0  0  0  0  0  0  0  0  0  0  0  0
  143.3817  131.8462  148.1620 H   0  0  0  0  0  0  0  0  0  0  0  0
  143.8717  133.4822  148.6029 H   0  0  0  0  0  0  0  0  0  0  0  0
  142.7714  132.5683  149.6505 H   0  0  0  0  0  0  0  0  0  0  0  0
  145.4684  133.7310  150.4725 H   0  0  0  0  0  0  0  0  0  0  0  0
  144.2868  132.8926  151.4568 H   0  0  0  0  0  0  0  0  0  0  0  0
  145.8222  131.2338  152.2095 H   0  0  0  0  0  0  0  0  0  0  0  0
  146.8855  131.4970  150.8505 H   0  0  0  0  0  0  0  0  0  0  0  0
  147.9603  131.4529  153.6380 H   0  0  0  0  0  0  0  0  0  0  0  0
  148.8414  131.7792  152.1581 H   0  0  0  0  0  0  0  0  0  0  0  0
  150.0381  132.7025  154.1181 H   0  0  0  0  0  0  0  0  0  0  0  0
  149.5974  133.9612  152.9913 H   0  0  0  0  0  0  0  0  0  0  0  0
  148.0891  133.2506  155.5490 H   0  0  0  0  0  0  0  0  0  0  0  0
  148.8292  135.3040  156.4933 H   0  0  0  0  0  0  0  0  0  0  0  0
  150.2692  134.5863  155.7941 H   0  0  0  0  0  0  0  0  0  0  0  0
  149.5872  136.0614  153.7305 H   0  0  0  0  0  0  0  0  0  0  0  0
  150.7594  138.9646  154.2195 H   0  0  0  0  0  0  0  0  0  0  0  0
  149.7222  138.0960  153.1495 H   0  0  0  0  0  0  0  0  0  0  0  0
  146.8999  137.4855  154.1072 H   0  0  0  0  0  0  0  0  0  0  0  0
  147.4099  137.9123  152.4662 H   0  0  0  0  0  0  0  0  0  0  0  0
  145.8123  138.3761  153.0453 H   0  0  0  0  0  0  0  0  0  0  0  0
  145.6939  143.2988  153.5664 H   0  0  0  0  0  0  0  0  0  0  0  0
  146.6359  143.8367  154.9620 H   0  0  0  0  0  0  0  0  0  0  0  0
  145.2382  142.7811  155.1940 H   0  0  0  0  0  0  0  0  0  0  0  0
  146.5860  135.1237  154.9932 H   0  0  0  0  0  0  0  0  0  0  0  0
  147.4715  135.4413  153.5209 H   0  0  0  0  0  0  0  0  0  0  0  0
  145.4462  134.1423  153.0334 H   0  0  0  0  0  0  0  0  0  0  0  0
  145.9045  132.8898  154.1667 H   0  0  0  0  0  0  0  0  0  0  0  0
  147.4252  133.6391  151.7748 H   0  0  0  0  0  0  0  0  0  0  0  0
  1  2  1  0  0  0  0
  1 26  1  0  0  0  0
  1 27  1  0  0  0  0
  1 28  1  0  0  0  0
  2  3  1  0  0  0  0
  3  4  1  0  0  0  0
  3 29  1  0  0  0  0
  3 30  1  0  0  0  0
  4  5  1  0  0  0  0
  4 31  1  0  0  0  0
  4 32  1  0  0  0  0
  5 24  1  0  0  0  0
  5  6  1  0  0  0  0
  5 53  1  0  0  0  0
  6  7  1  0  0  0  0
  6 33  1  0  0  0  0
  6 34  1  0  0  0  0
  7  8  1  0  0  0  0
  7 35  1  0  0  0  0
  7 36  1  0  0  0  0
  8  9  1  0  0  0  0
  8 23  1  0  0  0  0
  8 37  1  0  0  0  0
  9 10  1  0  0  0  0
  9 38  1  0  0  0  0
  9 39  1  0  0  0  0
 10 11  1  0  0  0  0
 10 40  1  0  0  0  0
 11 12  2  0  0  0  0
 11 13  1  0  0  0  0
 13 14  1  0  0  0  0
 13 41  1  0  0  0  0
 13 42  1  0  0  0  0
 14 21  1  0  0  0  0
 14 15  2  0  0  0  0
 15 16  1  0  0  0  0
 15 17  1  0  0  0  0
 16 43  1  0  0  0  0
 16 44  1  0  0  0  0
 16 45  1  0  0  0  0
 17 18  2  0  0  0  0
 18 19  1  0  0  0  0
 18 20  1  0  0  0  0
 19 46  1  0  0  0  0
 19 47  1  0  0  0  0
 19 48  1  0  0  0  0
 20 25  1  0  0  0  0
 20 21  1  0  0  0  0
 21 22  2  0  0  0  0
 23 24  1  0  0  0  0
 23 49  1  0  0  0  0
 23 50  1  0  0  0  0
 24 51  1  0  0  0  0
 24 52  1  0  0  0  0
M  CHG  1   5   1
M  END
> <s_m_source_file>
AV-unprocessed.smi

> <i_m_source_file_index>
1041

> <i_lp_mmshare_version>
43012

> <i_f3d_flags>
0

> <s_epik_input>
W0NIM11PW0NIMl1bQ0gyXU4xW0NIMl1bQ0gyXVtDSF0oW0NIMl1bQ0gyXTEpW0NIMl1bTkhdQyg9TylbQ0gyXWMyYyhbQ0gzXSluYyhbQ0gzXSlbbkhdYzI9Tw==

> <s_epik_cmdline>
J2VwaWtfcHl0aG9uJywgJy1waCcsICc3LjAnLCAnLXRuJywgJzgnLCAnLW1hJywgJzIwMCcsICctbWV0YWxfYmluZGluZycsICctaW1hZScsICc8aW5maWxlLm1hZT4nLCAnLW9tYWUnLCAnPG91dGZpbGUubWFlPic=

> <r_lp_tautomer_probability>
0.839158

> <r_epik_Ionization_Penalty>
0.00964357

> <r_epik_Ionization_Penalty_Charging>
0.00961423

> <r_epik_Ionization_Penalty_Neutral>
2.93415e-05

> <r_epik_State_Penalty>
0.0972512

> <r_epik_Charging_Adjusted_Penalty>
0.106865

> <i_epik_Tot_Q>
1

> <i_epik_Tot_abs_Q>
1

> <r_epik_Metal_State_Penalty>
0.270886

> <b_epik_Metal_Only>
0

> <s_lp_Force_Field>
OPLS_2005

> <r_lp_Energy>
21.4676

> <b_lp_Chiralities_Consistent>
1

> <s_lp_Variant>
AV-unprocessed.smi:1041-1

> <Gold.Version>
5.8.1

> <Gold.Id.Protein>
6NUR|6NUR_protein|mol2

> <Gold.PLP.Fitness>
47.0083

> <Gold.PLP.PLP>
-40.3135

> <Gold.PLP.part.hbond>
-3.1691

> <Gold.PLP.part.metal>
0.0000

> <Gold.PLP.part.buried>
-2.5396

> <Gold.PLP.part.nonpolar>
-35.2615

> <Gold.PLP.part.repulsive>
0.9052

> <Gold.PLP.ligand.clash>
0.0000

> <Gold.PLP.ligand.torsion>
0.6065

> <Gold.PLP.Chemscore.Hbond>
2.5280

> <Gold.PLP.Chemscore.CHOScore>
0.0000

> <Gold.PLP.Chemscore.Metal>
0.0000

> <Gold.Chemscore.Hbonds>
donor molecule, donor type, donor heavy atom, donor atom, acceptor molecule, acceptor atom, score
      L1  H    10    40       P1  7948  1.00
      L1  H    20    25       P1  8028  1.00
      P1  H  7989  7998       L1    22  0.58

> <Gold.PLP.Chemscore.Internal.Correction>
0.3239

> <Gold.Rescore>
     Score         DG    S(hbond)    S(metal)    S(lipo)     H(rot)  DE(clash)    DE(int)     intcor
     14.66     -15.82       1.86        0.00      88.40       2.43       0.29       0.87       ----

> <Gold.Chemscore.Fitness>
14.6619

> <Gold.Chemscore.DG>
-15.8245

> <Gold.Chemscore.ZeroCoef>
-5.4800

> <Gold.Chemscore.Hbond>
1.8624

> <Gold.Chemscore.Metal>
0.0000

> <Gold.Chemscore.Lipo>
88.3993

> <Gold.Chemscore.Internal_Hbond>
0.0000

> <Gold.Chemscore.DEClash>
0.2888

> <Gold.Chemscore.DEInternal>
0.8738

> <Gold.Chemscore.Rot>
2.4291

> <Gold.Chemscore.Internal.Correction>
   9.000000E+99

> <Gold.Chemscore.Hbonds>
donor molecule, donor type, donor heavy atom, donor atom, acceptor molecule, acceptor atom, score
      L1  H    10    40       P1  7948  0.43
      L1  H    20    25       P1  8028  1.00
      P1  H  7989  7998       L1    22  0.41

> <Gold.Chemscore.Hbond.Weighted>
-6.2204

> <Gold.Chemscore.Metal.Weighted>
-0.0000

> <Gold.Chemscore.Lipo.Weighted>
-10.3427

> <Gold.Chemscore.Internal_Hbond.Weighted>
0.0000

> <Gold.Chemscore.DEClash.Weighted>
0.2888

> <Gold.Chemscore.DEInternal.Weighted>
0.8738

> <Gold.Chemscore.Rot.Weighted>
6.2186

> <Gold.Chemscore.Internal.Correction.Weighted>
   9.000000E+99

> <Gold.Protein.RotatedTorsions>
[ 6907 6896 6895 6894 ] final  109.58 input  -60.11 | X-H torsion
[ 7974 7965 7964 7962 ] final   48.21 input  175.53 | X-H torsion
[ 8008 7997 7996 7995 ] final  -44.81 input   59.86 | X-H torsion
[ 10167 10162 10161 10158 ] final  168.90 input  -65.29 | X-H torsion
[ 10718 10713 10712 10709 ] final  -92.87 input   66.30 | X-H torsion
[ 10763 10752 10751 10750 ] final -149.99 input  -60.55 | X-H torsion
[ 11005 11000 10999 10996 ] final -133.56 input  -57.11 | X-H torsion

> <Gold.Protein.ActiveResidues>
 VAL166  LYS551  ARG553  GLY616  TRP617  ASP618  TYR619  PRO620  LYS621  CYS622 
 ASP623  PHE694  ASN695  SER759  ASP760  ASP761  ALA762  ILE779  LEU786  VAL792 
 PHE793  MET794  SER795  GLU796  ALA797  LYS798  CYS799  TRP800  GLU811  SER814 

> <Gold.Protein.RotatedAtoms>
  152.5060  133.8924  159.7400 H   0  0  0  0  0  0  0  0  0  0  0  0  # atno 6907 bound_to 6896
  150.9359  133.6703  159.2807 H   0  0  0  0  0  0  0  0  0  0  0  0  # atno 6908 bound_to 6896
  151.4031  135.0979  159.9615 H   0  0  0  0  0  0  0  0  0  0  0  0  # atno 6909 bound_to 6896
  146.0225  139.4668  142.9888 H   0  0  0  0  0  0  0  0  0  0  0  0  # atno 7974 bound_to 7965
  154.3998  140.1413  156.3744 H   0  0  0  0  0  0  0  0  0  0  0  0  # atno 8008 bound_to 7997
  155.8062  140.3474  155.5410 H   0  0  0  0  0  0  0  0  0  0  0  0  # atno 8009 bound_to 7997
  155.8433  140.0930  157.1711 H   0  0  0  0  0  0  0  0  0  0  0  0  # atno 8010 bound_to 7997
  139.4979  144.3765  151.9669 H   0  0  0  0  0  0  0  0  0  0  0  0  # atno 10167 bound_to 10162
  156.0007  130.5004  150.5690 H   0  0  0  0  0  0  0  0  0  0  0  0  # atno 10718 bound_to 10713
  154.8145  135.3295  154.7214 H   0  0  0  0  0  0  0  0  0  0  0  0  # atno 10763 bound_to 10752
  153.7858  135.6915  153.4885 H   0  0  0  0  0  0  0  0  0  0  0  0  # atno 10764 bound_to 10752
  153.1950  135.4537  155.0143 H   0  0  0  0  0  0  0  0  0  0  0  0  # atno 10765 bound_to 10752
  140.9069  134.1618  157.4419 H   0  0  0  0  0  0  0  0  0  0  0  0  # atno 11005 bound_to 11000
  145.7170  141.0088  143.1423 LP  0  0  0  0  0  0  0  0  0  0  0  0  # atno 17320 bound_to 7965
  144.6996  139.8824  143.7448 LP  0  0  0  0  0  0  0  0  0  0  0  0  # atno 17321 bound_to 7965
  140.3201  144.3438  150.6012 LP  0  0  0  0  0  0  0  0  0  0  0  0  # atno 17342 bound_to 10162
  140.5730  143.2179  151.7566 LP  0  0  0  0  0  0  0  0  0  0  0  0  # atno 17343 bound_to 10162
  157.3588  131.0746  151.1653 LP  0  0  0  0  0  0  0  0  0  0  0  0  # atno 17370 bound_to 10713
  157.2445  130.6585  149.5904 LP  0  0  0  0  0  0  0  0  0  0  0  0  # atno 17371 bound_to 10713
  139.8751  134.9920  156.5578 LP  0  0  0  0  0  0  0  0  0  0  0  0  # atno 17394 bound_to 11000
  140.8159  133.8392  155.8852 LP  0  0  0  0  0  0  0  0  0  0  0  0  # atno 17395 bound_to 11000

$$$$
