AV-unprocessed.smi:1809|AV-procd|sdf|7312|dock9
  -GOLD-   22720 8573D 1   1.00000     0.00000
 Structure written by MMmdl.
 40 42  0  0  0  0  0  0  0  0  2 V2000
  150.9483  142.0829  156.4331 C   0  0  0  0  0  0  0  0  0  0  0  0
  150.4397  140.9198  155.6516 C   0  0  0  0  0  0  0  0  0  0  0  0
  151.2122  140.2122  154.8175 N   0  0  0  0  0  0  0  0  0  0  0  0
  150.5178  139.1795  154.2014 N   0  0  0  0  0  0  0  0  0  0  0  0
  149.2399  139.1369  154.5880 C   0  0  0  0  0  0  0  0  0  0  0  0
  148.4083  138.1327  154.0323 N   0  0  0  0  0  0  0  0  0  0  0  0
  147.0878  137.9633  154.2070 C   0  0  0  0  0  0  0  0  0  0  0  0
  146.3692  138.6517  154.9314 O   0  0  0  0  0  0  0  0  0  0  0  0
  146.6309  136.9296  153.4861 N   0  0  0  0  0  0  0  0  0  0  0  0
  145.2382  136.4986  153.4334 C   0  0  0  0  0  0  0  0  0  0  0  0
  145.1099  134.9661  153.3819 C   0  0  1  0  0  0  0  0  0  0  0  0
  144.0166  134.5210  152.3978 C   0  0  0  0  0  0  0  0  0  0  0  0
  143.9264  133.0414  152.3132 N   0  3  1  0  0  0  0  0  0  0  0  0
  143.0987  132.5968  151.1683 C   0  0  0  0  0  0  0  0  0  0  0  0
  144.0729  132.1901  150.0468 C   0  0  0  0  0  0  0  0  0  0  0  0
  145.4767  132.4033  150.6219 C   0  0  0  0  0  0  0  0  0  0  0  0
  145.2420  132.3891  152.1315 C   0  0  1  0  0  0  0  0  0  0  0  0
  146.3592  133.0088  152.9961 C   0  0  0  0  0  0  0  0  0  0  0  0
  146.3428  134.4271  152.9223 O   0  0  0  0  0  0  0  0  0  0  0  0
  148.7708  140.3731  155.7555 S   0  0  0  0  0  0  0  0  0  0  0  0
  152.0278  142.1838  156.3151 H   0  0  0  0  0  0  0  0  0  0  0  0
  150.7247  141.9477  157.4914 H   0  0  0  0  0  0  0  0  0  0  0  0
  150.4719  143.0006  156.0877 H   0  0  0  0  0  0  0  0  0  0  0  0
  148.8708  137.4807  153.4159 H   0  0  0  0  0  0  0  0  0  0  0  0
  147.2897  136.4119  152.9224 H   0  0  0  0  0  0  0  0  0  0  0  0
  144.7023  136.8943  154.2979 H   0  0  0  0  0  0  0  0  0  0  0  0
  144.7738  136.9442  152.5531 H   0  0  0  0  0  0  0  0  0  0  0  0
  144.8818  134.5867  154.3799 H   0  0  0  0  0  0  0  0  0  0  0  0
  143.0479  134.9173  152.7042 H   0  0  0  0  0  0  0  0  0  0  0  0
  144.2300  134.9349  151.4104 H   0  0  0  0  0  0  0  0  0  0  0  0
  142.5139  131.7306  151.4798 H   0  0  0  0  0  0  0  0  0  0  0  0
  142.3916  133.3622  150.8447 H   0  0  0  0  0  0  0  0  0  0  0  0
  143.9227  131.1421  149.7847 H   0  0  0  0  0  0  0  0  0  0  0  0
  143.9222  132.7794  149.1418 H   0  0  0  0  0  0  0  0  0  0  0  0
  146.1856  131.6407  150.2980 H   0  0  0  0  0  0  0  0  0  0  0  0
  145.8634  133.3738  150.3079 H   0  0  0  0  0  0  0  0  0  0  0  0
  145.1248  131.3457  152.4303 H   0  0  0  0  0  0  0  0  0  0  0  0
  146.2452  132.7024  154.0371 H   0  0  0  0  0  0  0  0  0  0  0  0
  147.3339  132.6439  152.6717 H   0  0  0  0  0  0  0  0  0  0  0  0
  143.5153  132.7133  153.1758 H   0  0  0  0  0  0  0  0  0  0  0  0
  1  2  1  0  0  0  0
  1 21  1  0  0  0  0
  1 22  1  0  0  0  0
  1 23  1  0  0  0  0
  2 20  1  0  0  0  0
  2  3  2  0  0  0  0
  3  4  1  0  0  0  0
  4  5  2  0  0  0  0
  5  6  1  0  0  0  0
  5 20  1  0  0  0  0
  6  7  1  0  0  0  0
  6 24  1  0  0  0  0
  7  8  2  0  0  0  0
  7  9  1  0  0  0  0
  9 10  1  0  0  0  0
  9 25  1  0  0  0  0
 10 11  1  0  0  0  0
 10 26  1  0  0  0  0
 10 27  1  0  0  0  0
 11 19  1  0  0  0  0
 11 12  1  0  0  0  0
 11 28  1  0  0  0  0
 12 13  1  0  0  0  0
 12 29  1  0  0  0  0
 12 30  1  0  0  0  0
 13 17  1  0  0  0  0
 13 14  1  0  0  0  0
 13 40  1  0  0  0  0
 14 15  1  0  0  0  0
 14 31  1  0  0  0  0
 14 32  1  0  0  0  0
 15 16  1  0  0  0  0
 15 33  1  0  0  0  0
 15 34  1  0  0  0  0
 16 17  1  0  0  0  0
 16 35  1  0  0  0  0
 16 36  1  0  0  0  0
 17 18  1  0  0  0  0
 17 37  1  0  0  0  0
 18 19  1  0  0  0  0
 18 38  1  0  0  0  0
 18 39  1  0  0  0  0
M  CHG  1  13   1
M  END
> <s_m_source_file>
AV-unprocessed.smi

> <i_m_source_file_index>
1809

> <i_lp_mmshare_version>
43012

> <i_f3d_flags>
0

> <s_epik_input>
W0NIM11jMW5uYyhzMSlbTkhdQyg9TylbTkhdW0NIMl1bQ0BIXShbQ0gyXTIpT1tDSDJdW0NAQEhdKE4yMylbQ0gyXVtDSDJdW0NIMl0z

> <s_epik_cmdline>
J2VwaWtfcHl0aG9uJywgJy1waCcsICc3LjAnLCAnLXRuJywgJzgnLCAnLW1hJywgJzIwMCcsICctbWV0YWxfYmluZGluZycsICctaW1hZScsICc8aW5maWxlLm1hZT4nLCAnLW9tYWUnLCAnPG91dGZpbGUubWFlPic=

> <r_lp_tautomer_probability>
1

> <r_epik_Ionization_Penalty>
0.112474

> <r_epik_Ionization_Penalty_Charging>
0.108916

> <r_epik_Ionization_Penalty_Neutral>
0.00355844

> <r_epik_State_Penalty>
0.0565397

> <r_epik_Charging_Adjusted_Penalty>
0.165456

> <i_epik_Tot_Q>
1

> <i_epik_Tot_abs_Q>
1

> <r_epik_Metal_State_Penalty>
0.422831

> <b_epik_Metal_Only>
0

> <s_lp_Force_Field>
OPLS_2005

> <r_lp_Energy>
33.5148

> <b_lp_Chiralities_Consistent>
1

> <s_lp_Variant>
AV-unprocessed.smi:1809-4

> <Gold.Version>
5.8.1

> <Gold.Id.Protein>
6NUR|6NUR_protein|mol2

> <Gold.PLP.Fitness>
40.3460

> <Gold.PLP.PLP>
-27.6030

> <Gold.PLP.part.hbond>
-4.6394

> <Gold.PLP.part.metal>
0.0000

> <Gold.PLP.part.buried>
-5.8127

> <Gold.PLP.part.nonpolar>
-19.2643

> <Gold.PLP.part.repulsive>
0.4018

> <Gold.PLP.ligand.clash>
0.0000

> <Gold.PLP.ligand.torsion>
0.7284

> <Gold.PLP.Chemscore.Hbond>
4.7325

> <Gold.PLP.Chemscore.CHOScore>
0.0000

> <Gold.PLP.Chemscore.Metal>
0.0000

> <Gold.Chemscore.Hbonds>
donor molecule, donor type, donor heavy atom, donor atom, acceptor molecule, acceptor atom, score
      L1  H     6    24       P1  7948  1.00
      L1  H     9    25       P1  7948  1.00
      L1  H    13    40       P1 10957  1.98
      P1  H  7989  7998       L1     3  0.75

> <Gold.PLP.Chemscore.Internal.Correction>
0.0023

> <Gold.Rescore>
     Score         DG    S(hbond)    S(metal)    S(lipo)     H(rot)  DE(clash)    DE(int)     intcor
     16.90     -18.34       2.62        0.00      64.31       1.34       0.02       1.42       ----

> <Gold.Chemscore.Fitness>
16.8955

> <Gold.Chemscore.DG>
-18.3380

> <Gold.Chemscore.ZeroCoef>
-5.4800

> <Gold.Chemscore.Hbond>
2.6232

> <Gold.Chemscore.Metal>
0.0000

> <Gold.Chemscore.Lipo>
64.3119

> <Gold.Chemscore.Internal_Hbond>
0.0000

> <Gold.Chemscore.DEClash>
0.0189

> <Gold.Chemscore.DEInternal>
1.4236

> <Gold.Chemscore.Rot>
1.3391

> <Gold.Chemscore.Internal.Correction>
   9.000000E+99

> <Gold.Chemscore.Hbonds>
donor molecule, donor type, donor heavy atom, donor atom, acceptor molecule, acceptor atom, score
      L1  H     6    24       P1  7948  0.96
      L1  H     9    25       P1  7948  0.95
      L1  H    13    40       P1 10957  0.32
      P1  H  7989  7998       L1     3  0.08

> <Gold.Chemscore.Hbond.Weighted>
-8.7616

> <Gold.Chemscore.Metal.Weighted>
-0.0000

> <Gold.Chemscore.Lipo.Weighted>
-7.5245

> <Gold.Chemscore.Internal_Hbond.Weighted>
0.0000

> <Gold.Chemscore.DEClash.Weighted>
0.0189

> <Gold.Chemscore.DEInternal.Weighted>
1.4236

> <Gold.Chemscore.Rot.Weighted>
3.4281

> <Gold.Chemscore.Internal.Correction.Weighted>
   9.000000E+99

> <Gold.Protein.RotatedTorsions>
[ 6907 6896 6895 6894 ] final   41.78 input  -60.11 | X-H torsion
[ 7974 7965 7964 7962 ] final  -54.72 input  175.53 | X-H torsion
[ 8008 7997 7996 7995 ] final  123.11 input   59.86 | X-H torsion
[ 10167 10162 10161 10158 ] final   28.36 input  -65.29 | X-H torsion
[ 10718 10713 10712 10709 ] final  178.43 input   66.30 | X-H torsion
[ 10763 10752 10751 10750 ] final  -92.80 input  -60.55 | X-H torsion
[ 11005 11000 10999 10996 ] final    7.00 input  -57.11 | X-H torsion

> <Gold.Protein.ActiveResidues>
 VAL166  LYS551  ARG553  GLY616  TRP617  ASP618  TYR619  PRO620  LYS621  CYS622 
 ASP623  PHE694  ASN695  SER759  ASP760  ASP761  ALA762  ILE779  LEU786  VAL792 
 PHE793  MET794  SER795  GLU796  ALA797  LYS798  CYS799  TRP800  GLU811  SER814 

> <Gold.Protein.RotatedAtoms>
  152.1996  134.8599  160.0509 H   0  0  0  0  0  0  0  0  0  0  0  0  # atno 6907 bound_to 6896
  151.9458  133.3646  159.3990 H   0  0  0  0  0  0  0  0  0  0  0  0  # atno 6908 bound_to 6896
  150.6952  134.4316  159.5295 H   0  0  0  0  0  0  0  0  0  0  0  0  # atno 6909 bound_to 6896
  145.8823  140.8135  142.9833 H   0  0  0  0  0  0  0  0  0  0  0  0  # atno 7974 bound_to 7965
  156.2753  140.2770  156.1575 H   0  0  0  0  0  0  0  0  0  0  0  0  # atno 8008 bound_to 7997
  155.0789  140.0387  157.2650 H   0  0  0  0  0  0  0  0  0  0  0  0  # atno 8009 bound_to 7997
  154.6980  140.2643  155.6753 H   0  0  0  0  0  0  0  0  0  0  0  0  # atno 8010 bound_to 7997
  140.4859  144.0543  150.6280 H   0  0  0  0  0  0  0  0  0  0  0  0  # atno 10167 bound_to 10162
  156.8906  130.9846  151.3050 H   0  0  0  0  0  0  0  0  0  0  0  0  # atno 10718 bound_to 10713
  154.6897  135.5218  153.8375 H   0  0  0  0  0  0  0  0  0  0  0  0  # atno 10763 bound_to 10752
  153.0623  135.6573  154.0443 H   0  0  0  0  0  0  0  0  0  0  0  0  # atno 10764 bound_to 10752
  154.0319  135.2984  155.3347 H   0  0  0  0  0  0  0  0  0  0  0  0  # atno 10765 bound_to 10752
  140.5531  134.0264  155.7944 H   0  0  0  0  0  0  0  0  0  0  0  0  # atno 11005 bound_to 11000
  144.6727  140.1403  143.7437 LP  0  0  0  0  0  0  0  0  0  0  0  0  # atno 17320 bound_to 7965
  145.9008  139.2429  143.1494 LP  0  0  0  0  0  0  0  0  0  0  0  0  # atno 17321 bound_to 7965
  140.3799  143.2808  152.0183 LP  0  0  0  0  0  0  0  0  0  0  0  0  # atno 17342 bound_to 10162
  139.4842  144.6163  151.7339 LP  0  0  0  0  0  0  0  0  0  0  0  0  # atno 17343 bound_to 10162
  157.6086  130.8566  149.8915 LP  0  0  0  0  0  0  0  0  0  0  0  0  # atno 17370 bound_to 10713
  156.0631  130.3696  150.0938 LP  0  0  0  0  0  0  0  0  0  0  0  0  # atno 17371 bound_to 10713
  141.1160  133.9540  157.2822 LP  0  0  0  0  0  0  0  0  0  0  0  0  # atno 17394 bound_to 11000
  139.9445  135.0186  156.8810 LP  0  0  0  0  0  0  0  0  0  0  0  0  # atno 17395 bound_to 11000

$$$$
