AV-unprocessed.smi:63|AV-procd|sdf|608|dock3
  -GOLD-   2262016503D 1   1.00000     0.00000
 Structure written by MMmdl.
 29 30  0  0  0  0  0  0  0  0  1 V2000
  152.5766  142.8860  159.8601 C   0  0  0  0  0  0  0  0  0  0  0  0
  152.1711  142.1306  158.6120 C   0  0  0  0  0  0  0  0  0  0  0  0
  151.1694  142.6323  157.7611 C   0  0  0  0  0  0  0  0  0  0  0  0
  150.8515  141.8728  156.6224 C   0  0  0  0  0  0  0  0  0  0  0  0
  151.5559  140.6655  156.4118 C   0  0  0  0  0  0  0  0  0  0  0  0
  151.2748  139.8703  155.2808 N   0  0  0  0  0  0  0  0  0  0  0  0
  152.2571  138.8492  154.9302 C   0  0  0  0  0  0  0  0  0  0  0  0
  151.4608  137.6290  154.4539 C   0  0  0  0  0  0  0  0  0  0  0  0
  150.1223  138.2156  154.0159 C   0  0  0  0  0  0  0  0  0  0  0  0
  149.9289  139.3684  155.0072 C   0  0  2  0  0  0  0  0  0  0  0  0
  148.9275  140.4576  154.5605 C   0  0  0  0  0  0  0  0  0  0  0  0
  149.3044  141.0502  153.3339 O   0  0  0  0  0  0  0  0  0  0  0  0
  152.5118  140.2494  157.2818 N   0  0  0  0  0  0  0  0  0  0  0  0
  152.8176  140.9688  158.3666 N   0  0  0  0  0  0  0  0  0  0  0  0
  151.6951  143.1609  160.4399 H   0  0  0  0  0  0  0  0  0  0  0  0
  153.1090  143.7983  159.5903 H   0  0  0  0  0  0  0  0  0  0  0  0
  153.2274  142.2855  160.4970 H   0  0  0  0  0  0  0  0  0  0  0  0
  150.6627  143.5623  157.9729 H   0  0  0  0  0  0  0  0  0  0  0  0
  150.0852  142.2083  155.9391 H   0  0  0  0  0  0  0  0  0  0  0  0
  152.8823  139.2346  154.1244 H   0  0  0  0  0  0  0  0  0  0  0  0
  152.9072  138.5860  155.7660 H   0  0  0  0  0  0  0  0  0  0  0  0
  151.9652  137.0777  153.6601 H   0  0  0  0  0  0  0  0  0  0  0  0
  151.3031  136.9458  155.2894 H   0  0  0  0  0  0  0  0  0  0  0  0
  150.2091  138.5816  152.9923 H   0  0  0  0  0  0  0  0  0  0  0  0
  149.3094  137.4896  154.0471 H   0  0  0  0  0  0  0  0  0  0  0  0
  149.5571  138.9337  155.9364 H   0  0  0  0  0  0  0  0  0  0  0  0
  147.9415  140.0121  154.4283 H   0  0  0  0  0  0  0  0  0  0  0  0
  148.8164  141.2387  155.3117 H   0  0  0  0  0  0  0  0  0  0  0  0
  149.2864  140.3861  152.6620 H   0  0  0  0  0  0  0  0  0  0  0  0
  1  2  1  0  0  0  0
  1 15  1  0  0  0  0
  1 16  1  0  0  0  0
  1 17  1  0  0  0  0
  2 14  1  0  0  0  0
  2  3  2  0  0  0  0
  3  4  1  0  0  0  0
  3 18  1  0  0  0  0
  4  5  2  0  0  0  0
  4 19  1  0  0  0  0
  5  6  1  0  0  0  0
  5 13  1  0  0  0  0
  6 10  1  0  0  0  0
  6  7  1  0  0  0  0
  7  8  1  0  0  0  0
  7 20  1  0  0  0  0
  7 21  1  0  0  0  0
  8  9  1  0  0  0  0
  8 22  1  0  0  0  0
  8 23  1  0  0  0  0
  9 10  1  0  0  0  0
  9 24  1  0  0  0  0
  9 25  1  0  0  0  0
 10 11  1  0  0  0  0
 10 26  1  0  0  0  0
 11 12  1  0  0  0  0
 11 27  1  0  0  0  0
 11 28  1  0  0  0  0
 12 29  1  0  0  0  0
 13 14  2  0  0  0  0
M  END
> <s_m_source_file>
AV-unprocessed.smi

> <i_m_source_file_index>
63

> <i_lp_mmshare_version>
43012

> <i_f3d_flags>
0

> <s_epik_input>
W0NIM11jMVtjSF1bY0hdYyhubjEpTjJbQ0gyXVtDSDJdW0NIMl1bQ0BIXTJbQ0gyXVtPSF0=

> <s_epik_cmdline>
J2VwaWtfcHl0aG9uJywgJy1waCcsICc3LjAnLCAnLXRuJywgJzgnLCAnLW1hJywgJzIwMCcsICctbWV0YWxfYmluZGluZycsICctaW1hZScsICc8aW5maWxlLm1hZT4nLCAnLW9tYWUnLCAnPG91dGZpbGUubWFlPic=

> <r_lp_tautomer_probability>
1

> <r_epik_Ionization_Penalty>
4.30639e-05

> <r_epik_Ionization_Penalty_Charging>
0

> <r_epik_Ionization_Penalty_Neutral>
4.30639e-05

> <r_epik_State_Penalty>
-0

> <r_epik_Charging_Adjusted_Penalty>
0

> <i_epik_Tot_Q>
0

> <i_epik_Tot_abs_Q>
0

> <r_epik_Metal_State_Penalty>
-0

> <b_epik_Metal_Only>
0

> <s_lp_Force_Field>
OPLS_2005

> <r_lp_Energy>
38.8504

> <b_lp_Chiralities_Consistent>
1

> <s_lp_Variant>
AV-unprocessed.smi:63-2

> <Gold.Version>
5.8.1

> <Gold.Id.Protein>
6NUR|6NUR_protein|mol2

> <Gold.PLP.Fitness>
41.6714

> <Gold.PLP.PLP>
-31.8051

> <Gold.PLP.part.hbond>
-4.8625

> <Gold.PLP.part.metal>
0.0000

> <Gold.PLP.part.buried>
-0.9844

> <Gold.PLP.part.nonpolar>
-25.7646

> <Gold.PLP.part.repulsive>
0.0270

> <Gold.PLP.ligand.clash>
0.0000

> <Gold.PLP.ligand.torsion>
0.2187

> <Gold.PLP.Chemscore.Hbond>
3.3193

> <Gold.PLP.Chemscore.CHOScore>
0.0000

> <Gold.PLP.Chemscore.Metal>
0.0000

> <Gold.Chemscore.Hbonds>
donor molecule, donor type, donor heavy atom, donor atom, acceptor molecule, acceptor atom, score
      L1  H    12    29       P1  7957  0.91
      P1  H  7989  7998       L1     6  0.49
      P1  H  7997  8010       L1    13  0.86
      P1  H  8011  8017       L1    12  0.90

> <Gold.PLP.Chemscore.Internal.Correction>
0.3459

> <Gold.Rescore>
     Score         DG    S(hbond)    S(metal)    S(lipo)     H(rot)  DE(clash)    DE(int)     intcor
     15.36     -15.77       1.66        0.00      77.98       1.71       0.17       0.23       ----

> <Gold.Chemscore.Fitness>
15.3649

> <Gold.Chemscore.DG>
-15.7670

> <Gold.Chemscore.ZeroCoef>
-5.4800

> <Gold.Chemscore.Hbond>
1.6619

> <Gold.Chemscore.Metal>
0.0000

> <Gold.Chemscore.Lipo>
77.9782

> <Gold.Chemscore.Internal_Hbond>
0.0000

> <Gold.Chemscore.DEClash>
0.1734

> <Gold.Chemscore.DEInternal>
0.2287

> <Gold.Chemscore.Rot>
1.7138

> <Gold.Chemscore.Internal.Correction>
   9.000000E+99

> <Gold.Chemscore.Hbonds>
donor molecule, donor type, donor heavy atom, donor atom, acceptor molecule, acceptor atom, score
      L1  H    12    29       P1  7957  0.86
      P1  H  7989  7998       L1     6  0.01
      P1  H  7997  8010       L1    13  0.14
      P1  H  8011  8017       L1    12  0.18

> <Gold.Chemscore.Hbond.Weighted>
-5.5508

> <Gold.Chemscore.Metal.Weighted>
-0.0000

> <Gold.Chemscore.Lipo.Weighted>
-9.1234

> <Gold.Chemscore.Internal_Hbond.Weighted>
0.0000

> <Gold.Chemscore.DEClash.Weighted>
0.1734

> <Gold.Chemscore.DEInternal.Weighted>
0.2287

> <Gold.Chemscore.Rot.Weighted>
4.3872

> <Gold.Chemscore.Internal.Correction.Weighted>
   9.000000E+99

> <Gold.Protein.RotatedTorsions>
[ 6907 6896 6895 6894 ] final  -89.06 input  -60.11 | X-H torsion
[ 7974 7965 7964 7962 ] final   16.58 input  175.53 | X-H torsion
[ 8008 7997 7996 7995 ] final   67.84 input   59.86 | X-H torsion
[ 10167 10162 10161 10158 ] final  -52.81 input  -65.29 | X-H torsion
[ 10718 10713 10712 10709 ] final -132.54 input   66.30 | X-H torsion
[ 10763 10752 10751 10750 ] final   48.75 input  -60.55 | X-H torsion
[ 11005 11000 10999 10996 ] final -160.21 input  -57.11 | X-H torsion

> <Gold.Protein.ActiveResidues>
 VAL166  LYS551  ARG553  GLY616  TRP617  ASP618  TYR619  PRO620  LYS621  CYS622 
 ASP623  PHE694  ASN695  SER759  ASP760  ASP761  ALA762  ILE779  LEU786  VAL792 
 PHE793  MET794  SER795  GLU796  ALA797  LYS798  CYS799  TRP800  GLU811  SER814 

> <Gold.Protein.RotatedAtoms>
  150.6871  134.2645  159.4562 H   0  0  0  0  0  0  0  0  0  0  0  0  # atno 6907 bound_to 6896
  152.0573  134.9614  160.0584 H   0  0  0  0  0  0  0  0  0  0  0  0  # atno 6908 bound_to 6896
  152.1055  133.4237  159.4643 H   0  0  0  0  0  0  0  0  0  0  0  0  # atno 6909 bound_to 6896
  146.2245  139.8727  142.8584 H   0  0  0  0  0  0  0  0  0  0  0  0  # atno 7974 bound_to 7965
  155.6990  140.3495  155.4925 H   0  0  0  0  0  0  0  0  0  0  0  0  # atno 8008 bound_to 7997
  155.9457  140.1110  157.1041 H   0  0  0  0  0  0  0  0  0  0  0  0  # atno 8009 bound_to 7997
  154.4111  140.1204  156.4972 H   0  0  0  0  0  0  0  0  0  0  0  0  # atno 8010 bound_to 7997
  140.6518  143.2571  151.4701 H   0  0  0  0  0  0  0  0  0  0  0  0  # atno 10167 bound_to 10162
  156.2356  130.7064  151.0904 H   0  0  0  0  0  0  0  0  0  0  0  0  # atno 10718 bound_to 10713
  152.9790  135.5934  154.3977 H   0  0  0  0  0  0  0  0  0  0  0  0  # atno 10763 bound_to 10752
  154.3625  135.2767  155.2313 H   0  0  0  0  0  0  0  0  0  0  0  0  # atno 10764 bound_to 10752
  154.4304  135.6037  153.6120 H   0  0  0  0  0  0  0  0  0  0  0  0  # atno 10765 bound_to 10752
  140.6340  134.4621  157.5231 H   0  0  0  0  0  0  0  0  0  0  0  0  # atno 11005 bound_to 11000
  145.2591  141.0071  143.3836 LP  0  0  0  0  0  0  0  0  0  0  0  0  # atno 17320 bound_to 7965
  144.9312  139.4296  143.6494 LP  0  0  0  0  0  0  0  0  0  0  0  0  # atno 17321 bound_to 7965
  139.5734  144.1875  152.1869 LP  0  0  0  0  0  0  0  0  0  0  0  0  # atno 17342 bound_to 10162
  140.1178  144.5400  150.6882 LP  0  0  0  0  0  0  0  0  0  0  0  0  # atno 17343 bound_to 10162
  157.7153  131.0713  150.6350 LP  0  0  0  0  0  0  0  0  0  0  0  0  # atno 17370 bound_to 10713
  156.6420  130.4461  149.5749 LP  0  0  0  0  0  0  0  0  0  0  0  0  # atno 17371 bound_to 10713
  139.9105  134.8355  156.1545 LP  0  0  0  0  0  0  0  0  0  0  0  0  # atno 17394 bound_to 11000
  141.0655  133.6821  156.2036 LP  0  0  0  0  0  0  0  0  0  0  0  0  # atno 17395 bound_to 11000

$$$$
