AV-unprocessed.smi:1385|AV-procd|sdf|5631|dock6
  -GOLD-   22720 5243D 1   1.00000     0.00000
 Structure written by MMmdl.
 37 38  0  0  0  0  0  0  0  0  2 V2000
  153.1841  143.0449  162.2816 C   0  0  0  0  0  0  0  0  0  0  0  0
  153.4717  141.9601  161.3009 C   0  0  0  0  0  0  0  0  0  0  0  0
  154.5387  141.1633  161.3974 N   0  0  0  0  0  0  0  0  0  0  0  0
  154.5910  140.2333  160.3692 N   0  0  0  0  0  0  0  0  0  0  0  0
  153.5724  140.3472  159.5047 C   0  0  0  0  0  0  0  0  0  0  0  0
  153.4366  139.5410  158.4390 N   0  5  0  0  0  0  0  0  0  0  0  0
  152.3198  139.6093  157.6792 C   0  0  0  0  0  0  0  0  0  0  0  0
  151.1600  139.6880  158.0913 O   0  0  0  0  0  0  0  0  0  0  0  0
  152.5621  139.5854  156.3607 N   0  0  0  0  0  0  0  0  0  0  0  0
  151.5580  139.6545  155.3028 C   0  0  0  0  0  0  0  0  0  0  0  0
  150.5474  140.7679  155.6094 C   0  0  0  0  0  0  0  0  0  0  0  0
  149.4137  140.7856  154.5694 C   0  0  0  0  0  0  0  0  0  0  0  0
  148.7194  139.4939  154.5378 N   0  0  0  0  0  0  0  0  0  0  0  0
  147.5598  139.5857  153.6220 C   0  0  0  0  0  0  0  0  0  0  0  0
  146.5627  138.4278  153.7465 C   0  0  0  0  0  0  0  0  0  0  0  0
  146.9608  137.2291  153.3130 N   0  0  0  0  0  0  0  0  0  0  0  0
  145.4500  138.6140  154.2341 O   0  0  0  0  0  0  0  0  0  0  0  0
  149.6541  138.4232  154.1598 C   0  0  0  0  0  0  0  0  0  0  0  0
  150.8048  138.3208  155.1759 C   0  0  0  0  0  0  0  0  0  0  0  0
  152.4365  141.6298  159.9222 S   0  0  0  0  0  0  0  0  0  0  0  0
  153.7908  143.9217  162.0550 H   0  0  0  0  0  0  0  0  0  0  0  0
  153.4127  142.7105  163.2940 H   0  0  0  0  0  0  0  0  0  0  0  0
  152.1318  143.3256  162.2370 H   0  0  0  0  0  0  0  0  0  0  0  0
  153.5265  139.5220  156.0695 H   0  0  0  0  0  0  0  0  0  0  0  0
  152.0445  139.8849  154.3531 H   0  0  0  0  0  0  0  0  0  0  0  0
  150.1240  140.6260  156.6053 H   0  0  0  0  0  0  0  0  0  0  0  0
  151.0512  141.7350  155.6223 H   0  0  0  0  0  0  0  0  0  0  0  0
  148.7104  141.5774  154.8311 H   0  0  0  0  0  0  0  0  0  0  0  0
  149.8110  141.0282  153.5821 H   0  0  0  0  0  0  0  0  0  0  0  0
  147.0071  140.5034  153.8292 H   0  0  0  0  0  0  0  0  0  0  0  0
  147.9095  139.6633  152.5905 H   0  0  0  0  0  0  0  0  0  0  0  0
  146.3365  136.4378  153.3718 H   0  0  0  0  0  0  0  0  0  0  0  0
  147.8861  137.1203  152.9241 H   0  0  0  0  0  0  0  0  0  0  0  0
  149.1492  137.4578  154.1282 H   0  0  0  0  0  0  0  0  0  0  0  0
  150.0500  138.6056  153.1593 H   0  0  0  0  0  0  0  0  0  0  0  0
  151.4915  137.5296  154.8726 H   0  0  0  0  0  0  0  0  0  0  0  0
  150.4045  138.0254  156.1472 H   0  0  0  0  0  0  0  0  0  0  0  0
  1  2  1  0  0  0  0
  1 21  1  0  0  0  0
  1 22  1  0  0  0  0
  1 23  1  0  0  0  0
  2 20  1  0  0  0  0
  2  3  2  0  0  0  0
  3  4  1  0  0  0  0
  4  5  2  0  0  0  0
  5  6  1  0  0  0  0
  5 20  1  0  0  0  0
  6  7  1  0  0  0  0
  7  8  2  0  0  0  0
  7  9  1  0  0  0  0
  9 10  1  0  0  0  0
  9 24  1  0  0  0  0
 10 19  1  0  0  0  0
 10 11  1  0  0  0  0
 10 25  1  0  0  0  0
 11 12  1  0  0  0  0
 11 26  1  0  0  0  0
 11 27  1  0  0  0  0
 12 13  1  0  0  0  0
 12 28  1  0  0  0  0
 12 29  1  0  0  0  0
 13 14  1  0  0  0  0
 13 18  1  0  0  0  0
 14 15  1  0  0  0  0
 14 30  1  0  0  0  0
 14 31  1  0  0  0  0
 15 16  1  0  0  0  0
 15 17  2  0  0  0  0
 16 32  1  0  0  0  0
 16 33  1  0  0  0  0
 18 19  1  0  0  0  0
 18 34  1  0  0  0  0
 18 35  1  0  0  0  0
 19 36  1  0  0  0  0
 19 37  1  0  0  0  0
M  CHG  1   6  -1
M  END
> <s_m_source_file>
AV-unprocessed.smi

> <i_m_source_file_index>
1385

> <i_lp_mmshare_version>
43012

> <i_f3d_flags>
0

> <s_epik_input>
W0NIM11jMW5uYyhzMSlbTkhdQyg9TylbTkhdW0NIXTJbQ0gyXVtDSDJdTihbQ0gyXVtDSDJdMilbQ0gyXUMoPU8pW05IMl0=

> <s_epik_cmdline>
J2VwaWtfcHl0aG9uJywgJy1waCcsICc3LjAnLCAnLXRuJywgJzgnLCAnLW1hJywgJzIwMCcsICctbWV0YWxfYmluZGluZycsICctaW1hZScsICc8aW5maWxlLm1hZT4nLCAnLW9tYWUnLCAnPG91dGZpbGUubWFlPic=

> <r_lp_tautomer_probability>
1

> <r_epik_Ionization_Penalty>
3.72698

> <r_epik_Ionization_Penalty_Charging>
3.38897

> <r_epik_Ionization_Penalty_Neutral>
0.338006

> <r_epik_State_Penalty>
3.53372

> <r_epik_Charging_Adjusted_Penalty>
6.92269

> <i_epik_Tot_Q>
-1

> <i_epik_Tot_abs_Q>
1

> <r_epik_Metal_State_Penalty>
0.657042

> <b_epik_Metal_Only>
1

> <s_lp_Force_Field>
OPLS_2005

> <r_lp_Energy>
7.29134

> <b_lp_Chiralities_Consistent>
1

> <s_lp_Variant>
AV-unprocessed.smi:1385-4

> <Gold.Version>
5.8.1

> <Gold.Id.Protein>
6NUR|6NUR_protein|mol2

> <Gold.PLP.Fitness>
39.6406

> <Gold.PLP.PLP>
-32.2538

> <Gold.PLP.part.hbond>
-2.7912

> <Gold.PLP.part.metal>
0.0000

> <Gold.PLP.part.buried>
-3.3033

> <Gold.PLP.part.nonpolar>
-27.9282

> <Gold.PLP.part.repulsive>
2.2183

> <Gold.PLP.ligand.clash>
0.0000

> <Gold.PLP.ligand.torsion>
0.7172

> <Gold.PLP.Chemscore.Hbond>
2.9120

> <Gold.PLP.Chemscore.CHOScore>
0.0000

> <Gold.PLP.Chemscore.Metal>
0.0000

> <Gold.Chemscore.Hbonds>
donor molecule, donor type, donor heavy atom, donor atom, acceptor molecule, acceptor atom, score
      L1  H    16    33       P1  7948  0.96
      P1  H  7997  8010       L1     6  2.00

> <Gold.PLP.Chemscore.Internal.Correction>
0.0852

> <Gold.Rescore>
     Score         DG    S(hbond)    S(metal)    S(lipo)     H(rot)  DE(clash)    DE(int)     intcor
      9.98     -13.83       1.55        0.00      71.31       2.02       0.75       3.10       ----

> <Gold.Chemscore.Fitness>
9.9770

> <Gold.Chemscore.DG>
-13.8261

> <Gold.Chemscore.ZeroCoef>
-5.4800

> <Gold.Chemscore.Hbond>
1.5461

> <Gold.Chemscore.Metal>
0.0000

> <Gold.Chemscore.Lipo>
71.3145

> <Gold.Chemscore.Internal_Hbond>
0.0000

> <Gold.Chemscore.DEClash>
0.7486

> <Gold.Chemscore.DEInternal>
3.1006

> <Gold.Chemscore.Rot>
2.0163

> <Gold.Chemscore.Internal.Correction>
   9.000000E+99

> <Gold.Chemscore.Hbonds>
donor molecule, donor type, donor heavy atom, donor atom, acceptor molecule, acceptor atom, score
      L1  H    16    33       P1  7948  0.92
      P1  H  7997  8010       L1     6  0.22

> <Gold.Chemscore.Hbond.Weighted>
-5.1641

> <Gold.Chemscore.Metal.Weighted>
-0.0000

> <Gold.Chemscore.Lipo.Weighted>
-8.3438

> <Gold.Chemscore.Internal_Hbond.Weighted>
0.0000

> <Gold.Chemscore.DEClash.Weighted>
0.7486

> <Gold.Chemscore.DEInternal.Weighted>
3.1006

> <Gold.Chemscore.Rot.Weighted>
5.1617

> <Gold.Chemscore.Internal.Correction.Weighted>
   9.000000E+99

> <Gold.Protein.RotatedTorsions>
[ 6907 6896 6895 6894 ] final   88.01 input  -60.11 | X-H torsion
[ 7974 7965 7964 7962 ] final -161.34 input  175.53 | X-H torsion
[ 8008 7997 7996 7995 ] final   16.62 input   59.86 | X-H torsion
[ 10167 10162 10161 10158 ] final -166.77 input  -65.29 | X-H torsion
[ 10718 10713 10712 10709 ] final -154.62 input   66.30 | X-H torsion
[ 10763 10752 10751 10750 ] final -170.53 input  -60.55 | X-H torsion
[ 11005 11000 10999 10996 ] final  -40.04 input  -57.11 | X-H torsion

> <Gold.Protein.ActiveResidues>
 VAL166  LYS551  ARG553  GLY616  TRP617  ASP618  TYR619  PRO620  LYS621  CYS622 
 ASP623  PHE694  ASN695  SER759  ASP760  ASP761  ALA762  ILE779  LEU786  VAL792 
 PHE793  MET794  SER795  GLU796  ALA797  LYS798  CYS799  TRP800  GLU811  SER814 

> <Gold.Protein.RotatedAtoms>
  152.5419  134.2187  159.8778 H   0  0  0  0  0  0  0  0  0  0  0  0  # atno 6907 bound_to 6896
  151.2165  133.4519  159.2607 H   0  0  0  0  0  0  0  0  0  0  0  0  # atno 6908 bound_to 6896
  151.0846  134.9892  159.8429 H   0  0  0  0  0  0  0  0  0  0  0  0  # atno 6909 bound_to 6896
  144.7394  140.3411  143.6134 H   0  0  0  0  0  0  0  0  0  0  0  0  # atno 7974 bound_to 7965
  154.8796  140.2971  155.5433 H   0  0  0  0  0  0  0  0  0  0  0  0  # atno 8008 bound_to 7997
  156.3022  140.2445  156.3730 H   0  0  0  0  0  0  0  0  0  0  0  0  # atno 8009 bound_to 7997
  154.8731  140.0400  157.1726 H   0  0  0  0  0  0  0  0  0  0  0  0  # atno 8010 bound_to 7997
  139.6093  144.0848  152.1825 H   0  0  0  0  0  0  0  0  0  0  0  0  # atno 10167 bound_to 10162
  156.5017  130.8394  151.2612 H   0  0  0  0  0  0  0  0  0  0  0  0  # atno 10718 bound_to 10713
  154.6405  135.2898  155.0109 H   0  0  0  0  0  0  0  0  0  0  0  0  # atno 10763 bound_to 10752
  154.1238  135.6544  153.4912 H   0  0  0  0  0  0  0  0  0  0  0  0  # atno 10764 bound_to 10752
  153.0324  135.5294  154.7270 H   0  0  0  0  0  0  0  0  0  0  0  0  # atno 10765 bound_to 10752
  141.0145  133.6892  156.2267 H   0  0  0  0  0  0  0  0  0  0  0  0  # atno 11005 bound_to 11000
  145.7373  139.1754  143.2396 LP  0  0  0  0  0  0  0  0  0  0  0  0  # atno 17320 bound_to 7965
  146.1161  140.7368  142.9480 LP  0  0  0  0  0  0  0  0  0  0  0  0  # atno 17321 bound_to 7965
  140.0462  144.5968  150.7371 LP  0  0  0  0  0  0  0  0  0  0  0  0  # atno 17342 bound_to 10162
  140.7307  143.2687  151.3960 LP  0  0  0  0  0  0  0  0  0  0  0  0  # atno 17343 bound_to 10162
  157.7462  130.9979  150.2834 LP  0  0  0  0  0  0  0  0  0  0  0  0  # atno 17370 bound_to 10713
  156.3326  130.3802  149.7478 LP  0  0  0  0  0  0  0  0  0  0  0  0  # atno 17371 bound_to 10713
  140.6677  134.4901  157.5586 LP  0  0  0  0  0  0  0  0  0  0  0  0  # atno 17394 bound_to 11000
  139.9109  134.8347  156.1532 LP  0  0  0  0  0  0  0  0  0  0  0  0  # atno 17395 bound_to 11000

$$$$
