AV-unprocessed.smi:2706|AV-procd|sdf|10452|dock10
  -GOLD-   2272014493D 1   1.00000     0.00000
 Structure written by MMmdl.
 43 46  0  0  0  0  0  0  0  0  1 V2000
  150.5146  144.2909  158.8339 C   0  0  0  0  0  0  0  0  0  0  0  0
  151.4964  143.7845  159.7877 N   0  0  0  0  0  0  0  0  0  0  0  0
  151.8279  144.7102  160.8648 C   0  0  0  0  0  0  0  0  0  0  0  0
  152.1166  142.5388  159.6762 C   0  0  0  0  0  0  0  0  0  0  0  0
  153.0179  142.1247  160.5949 C   0  0  0  0  0  0  0  0  0  0  0  0
  153.6447  140.8253  160.4650 C   0  0  0  0  0  0  0  0  0  0  0  0
  153.3551  140.0107  159.4316 C   0  0  0  0  0  0  0  0  0  0  0  0
  152.4085  140.4155  158.4093 C   0  0  0  0  0  0  0  0  0  0  0  0
  152.1290  139.6136  157.4203 N   0  0  0  0  0  0  0  0  0  0  0  0
  151.3175  139.9770  156.3456 C   0  0  0  0  0  0  0  0  0  0  0  0
  151.7577  140.1334  155.2073 O   0  0  0  0  0  0  0  0  0  0  0  0
  150.0322  140.2609  156.6425 N   0  0  0  0  0  0  0  0  0  0  0  0
  149.0303  140.6778  155.7159 C   0  0  2  0  0  0  0  0  0  0  0  0
  147.6952  141.1085  156.2860 C   0  0  1  0  0  0  0  0  0  0  0  0
  146.5568  141.7985  155.5381 C   0  0  1  0  0  0  0  0  0  0  0  0
  146.9942  142.2238  154.1207 C   0  0  0  0  0  0  0  0  0  0  0  0
  147.1212  140.8682  153.3902 C   0  0  0  0  0  0  0  0  0  0  0  0
  146.7401  139.8591  154.4929 C   0  0  2  0  0  0  0  0  0  0  0  0
  145.6362  140.6260  155.2146 C   0  0  0  0  0  0  0  0  0  0  0  0
  147.8221  139.7762  155.5670 C   0  0  1  0  0  0  0  0  0  0  0  0
  151.8234  141.6802  158.6128 N   0  0  0  0  0  0  0  0  0  0  0  0
  149.5855  143.7256  158.9124 H   0  0  0  0  0  0  0  0  0  0  0  0
  150.8897  144.1983  157.8144 H   0  0  0  0  0  0  0  0  0  0  0  0
  150.2835  145.3433  159.0003 H   0  0  0  0  0  0  0  0  0  0  0  0
  152.7523  145.2401  160.6342 H   0  0  0  0  0  0  0  0  0  0  0  0
  151.9638  144.1783  161.8061 H   0  0  0  0  0  0  0  0  0  0  0  0
  151.0409  145.4480  161.0235 H   0  0  0  0  0  0  0  0  0  0  0  0
  153.2924  142.7413  161.4376 H   0  0  0  0  0  0  0  0  0  0  0  0
  154.3538  140.5027  161.2129 H   0  0  0  0  0  0  0  0  0  0  0  0
  153.8532  139.0527  159.3901 H   0  0  0  0  0  0  0  0  0  0  0  0
  149.7445  140.1691  157.6061 H   0  0  0  0  0  0  0  0  0  0  0  0
  149.3876  141.1842  154.8226 H   0  0  0  0  0  0  0  0  0  0  0  0
  147.5625  141.0500  157.3652 H   0  0  0  0  0  0  0  0  0  0  0  0
  146.0989  142.5950  156.1251 H   0  0  0  0  0  0  0  0  0  0  0  0
  146.2275  142.8397  153.6489 H   0  0  0  0  0  0  0  0  0  0  0  0
  147.9208  142.7985  154.1217 H   0  0  0  0  0  0  0  0  0  0  0  0
  146.4158  140.8164  152.5599 H   0  0  0  0  0  0  0  0  0  0  0  0
  148.1177  140.6906  152.9848 H   0  0  0  0  0  0  0  0  0  0  0  0
  146.4509  138.8758  154.1210 H   0  0  0  0  0  0  0  0  0  0  0  0
  145.2647  140.1114  156.1026 H   0  0  0  0  0  0  0  0  0  0  0  0
  144.7928  140.8916  154.5743 H   0  0  0  0  0  0  0  0  0  0  0  0
  147.7626  138.8958  156.2045 H   0  0  0  0  0  0  0  0  0  0  0  0
  151.1338  142.0253  157.9610 H   0  0  0  0  0  0  0  0  0  0  0  0
  1  2  1  0  0  0  0
  1 22  1  0  0  0  0
  1 23  1  0  0  0  0
  1 24  1  0  0  0  0
  2  3  1  0  0  0  0
  2  4  1  0  0  0  0
  3 25  1  0  0  0  0
  3 26  1  0  0  0  0
  3 27  1  0  0  0  0
  4 21  1  0  0  0  0
  4  5  2  0  0  0  0
  5  6  1  0  0  0  0
  5 28  1  0  0  0  0
  6  7  2  0  0  0  0
  6 29  1  0  0  0  0
  7  8  1  0  0  0  0
  7 30  1  0  0  0  0
  8  9  2  0  0  0  0
  8 21  1  0  0  0  0
  9 10  1  0  0  0  0
 10 11  2  0  0  0  0
 10 12  1  0  0  0  0
 12 13  1  0  0  0  0
 12 31  1  0  0  0  0
 13 20  1  0  0  0  0
 13 14  1  0  0  0  0
 13 32  1  0  0  0  0
 14 20  1  0  0  0  0
 14 15  1  0  0  0  0
 14 33  1  0  0  0  0
 15 19  1  0  0  0  0
 15 16  1  0  0  0  0
 15 34  1  0  0  0  0
 16 17  1  0  0  0  0
 16 35  1  0  0  0  0
 16 36  1  0  0  0  0
 17 18  1  0  0  0  0
 17 37  1  0  0  0  0
 17 38  1  0  0  0  0
 18 19  1  0  0  0  0
 18 20  1  0  0  0  0
 18 39  1  0  0  0  0
 19 40  1  0  0  0  0
 19 41  1  0  0  0  0
 20 42  1  0  0  0  0
 21 43  1  0  0  0  0
M  END
> <s_m_source_file>
AV-unprocessed.smi

> <i_m_source_file_index>
2706

> <i_lp_mmshare_version>
43012

> <i_f3d_flags>
0

> <s_epik_input>
W0NIM11OKFtDSDNdKWMxW2NIXVtjSF1bY0hdYyhuMSlbTkhdQyg9TylbTkhdW0NASF0yW0NAQEhdM1tDQEBIXShbQ0gyXTQpW0NIMl1bQ0gyXVtDQEBIXTRbQ0BIXTIz

> <s_epik_cmdline>
J2VwaWtfcHl0aG9uJywgJy1waCcsICc3LjAnLCAnLXRuJywgJzgnLCAnLW1hJywgJzIwMCcsICctbWV0YWxfYmluZGluZycsICctaW1hZScsICc8aW5maWxlLm1hZT4nLCAnLW9tYWUnLCAnPG91dGZpbGUubWFlPic=

> <r_lp_tautomer_probability>
0.999994

> <r_epik_Ionization_Penalty>
2.07242

> <r_epik_Ionization_Penalty_Charging>
2.07242

> <r_epik_Ionization_Penalty_Neutral>
9.73808e-07

> <r_epik_State_Penalty>
3.96009

> <r_epik_Charging_Adjusted_Penalty>
6.03251

> <i_epik_Tot_Q>
0

> <i_epik_Tot_abs_Q>
0

> <r_epik_Metal_State_Penalty>
3.98849

> <b_epik_Metal_Only>
1

> <s_lp_Force_Field>
OPLS_2005

> <r_lp_Energy>
91.2091

> <b_lp_Chiralities_Consistent>
1

> <s_lp_Variant>
AV-unprocessed.smi:2706-9

> <Gold.Version>
5.8.1

> <Gold.Id.Protein>
6NUR|6NUR_protein|mol2

> <Gold.PLP.Fitness>
40.8633

> <Gold.PLP.PLP>
-39.2707

> <Gold.PLP.part.hbond>
-1.0000

> <Gold.PLP.part.metal>
0.0000

> <Gold.PLP.part.buried>
-7.5397

> <Gold.PLP.part.nonpolar>
-32.2399

> <Gold.PLP.part.repulsive>
0.1343

> <Gold.PLP.ligand.clash>
0.0000

> <Gold.PLP.ligand.torsion>
0.6555

> <Gold.PLP.Chemscore.Hbond>
0.9538

> <Gold.PLP.Chemscore.CHOScore>
0.0000

> <Gold.PLP.Chemscore.Metal>
0.0000

> <Gold.Chemscore.Hbonds>
donor molecule, donor type, donor heavy atom, donor atom, acceptor molecule, acceptor atom, score
      P1  H  7989  7998       L1    11  0.91

> <Gold.PLP.Chemscore.Internal.Correction>
0.0423

> <Gold.Rescore>
     Score         DG    S(hbond)    S(metal)    S(lipo)     H(rot)  DE(clash)    DE(int)     intcor
     14.26     -15.98       0.94        0.00      84.66       1.00       0.05       1.67       ----

> <Gold.Chemscore.Fitness>
14.2612

> <Gold.Chemscore.DG>
-15.9796

> <Gold.Chemscore.ZeroCoef>
-5.4800

> <Gold.Chemscore.Hbond>
0.9443

> <Gold.Chemscore.Metal>
0.0000

> <Gold.Chemscore.Lipo>
84.6629

> <Gold.Chemscore.Internal_Hbond>
0.0000

> <Gold.Chemscore.DEClash>
0.0528

> <Gold.Chemscore.DEInternal>
1.6656

> <Gold.Chemscore.Rot>
1.0000

> <Gold.Chemscore.Internal.Correction>
   9.000000E+99

> <Gold.Chemscore.Hbonds>
donor molecule, donor type, donor heavy atom, donor atom, acceptor molecule, acceptor atom, score
      P1  H  7989  7998       L1    11  0.88

> <Gold.Chemscore.Hbond.Weighted>
-3.1540

> <Gold.Chemscore.Metal.Weighted>
-0.0000

> <Gold.Chemscore.Lipo.Weighted>
-9.9056

> <Gold.Chemscore.Internal_Hbond.Weighted>
0.0000

> <Gold.Chemscore.DEClash.Weighted>
0.0528

> <Gold.Chemscore.DEInternal.Weighted>
1.6656

> <Gold.Chemscore.Rot.Weighted>
2.5600

> <Gold.Chemscore.Internal.Correction.Weighted>
   9.000000E+99

> <Gold.Protein.RotatedTorsions>
[ 6907 6896 6895 6894 ] final  169.54 input  -60.11 | X-H torsion
[ 7974 7965 7964 7962 ] final  -97.77 input  175.53 | X-H torsion
[ 8008 7997 7996 7995 ] final   61.43 input   59.86 | X-H torsion
[ 10167 10162 10161 10158 ] final  124.01 input  -65.29 | X-H torsion
[ 10718 10713 10712 10709 ] final    8.38 input   66.30 | X-H torsion
[ 10763 10752 10751 10750 ] final  150.16 input  -60.55 | X-H torsion
[ 11005 11000 10999 10996 ] final  -54.57 input  -57.11 | X-H torsion

> <Gold.Protein.ActiveResidues>
 VAL166  LYS551  ARG553  GLY616  TRP617  ASP618  TYR619  PRO620  LYS621  CYS622 
 ASP623  PHE694  ASN695  SER759  ASP760  ASP761  ALA762  ILE779  LEU786  VAL792 
 PHE793  MET794  SER795  GLU796  ALA797  LYS798  CYS799  TRP800  GLU811  SER814 

> <Gold.Protein.RotatedAtoms>
  151.8304  133.3407  159.3611 H   0  0  0  0  0  0  0  0  0  0  0  0  # atno 6907 bound_to 6896
  150.7266  134.5489  159.5794 H   0  0  0  0  0  0  0  0  0  0  0  0  # atno 6908 bound_to 6896
  152.2940  134.7689  160.0423 H   0  0  0  0  0  0  0  0  0  0  0  0  # atno 6909 bound_to 6896
  145.3294  140.9438  143.2670 H   0  0  0  0  0  0  0  0  0  0  0  0  # atno 7974 bound_to 7965
  155.5983  140.3493  155.4586 H   0  0  0  0  0  0  0  0  0  0  0  0  # atno 8008 bound_to 7997
  156.0248  140.1261  157.0344 H   0  0  0  0  0  0  0  0  0  0  0  0  # atno 8009 bound_to 7997
  154.4329  140.1055  156.6001 H   0  0  0  0  0  0  0  0  0  0  0  0  # atno 8010 bound_to 7997
  139.5766  144.6966  151.3637 H   0  0  0  0  0  0  0  0  0  0  0  0  # atno 10167 bound_to 10162
  156.9507  130.5896  149.5656 H   0  0  0  0  0  0  0  0  0  0  0  0  # atno 10718 bound_to 10713
  154.0829  135.2858  155.3287 H   0  0  0  0  0  0  0  0  0  0  0  0  # atno 10763 bound_to 10752
  154.6671  135.5313  153.8094 H   0  0  0  0  0  0  0  0  0  0  0  0  # atno 10764 bound_to 10752
  153.0442  135.6548  154.1003 H   0  0  0  0  0  0  0  0  0  0  0  0  # atno 10765 bound_to 10752
  141.1032  133.6616  156.4340 H   0  0  0  0  0  0  0  0  0  0  0  0  # atno 11005 bound_to 11000
  144.8876  139.4818  143.6693 LP  0  0  0  0  0  0  0  0  0  0  0  0  # atno 17320 bound_to 7965
  146.3051  139.7554  142.9062 LP  0  0  0  0  0  0  0  0  0  0  0  0  # atno 17321 bound_to 7965
  140.7048  143.7541  150.7463 LP  0  0  0  0  0  0  0  0  0  0  0  0  # atno 17342 bound_to 10162
  140.1062  143.4741  152.2396 LP  0  0  0  0  0  0  0  0  0  0  0  0  # atno 17343 bound_to 10162
  156.0364  130.5451  150.8664 LP  0  0  0  0  0  0  0  0  0  0  0  0  # atno 17370 bound_to 10713
  157.5724  131.0946  150.9398 LP  0  0  0  0  0  0  0  0  0  0  0  0  # atno 17371 bound_to 10713
  140.4969  134.6523  157.5233 LP  0  0  0  0  0  0  0  0  0  0  0  0  # atno 17394 bound_to 11000
  139.9892  134.7013  155.9720 LP  0  0  0  0  0  0  0  0  0  0  0  0  # atno 17395 bound_to 11000

$$$$
