AV-unprocessed.smi:2520|AV-procd|sdf|9914|dock7
  -GOLD-   2272013553D 1   1.00000     0.00000
 Structure written by MMmdl.
 41 44  0  0  0  0  0  0  0  0  1 V2000
  145.2008  137.0449  153.8362 O   0  0  0  0  0  0  0  0  0  0  0  0
  146.2627  136.8377  153.2523 C   0  0  0  0  0  0  0  0  0  0  0  0
  147.2318  137.7771  153.2162 N   0  0  0  0  0  0  0  0  0  0  0  0
  147.2912  139.0927  153.7630 C   0  0  0  0  0  0  0  0  0  0  0  0
  148.5707  139.6875  153.7333 C   0  0  0  0  0  0  0  0  0  0  0  0
  148.7187  140.9856  154.2511 C   0  0  0  0  0  0  0  0  0  0  0  0
  147.5691  141.6078  154.7661 C   0  0  0  0  0  0  0  0  0  0  0  0
  146.3613  141.0043  154.7730 N   0  0  0  0  0  0  0  0  0  0  0  0
  146.2299  139.7693  154.2777 N   0  0  0  0  0  0  0  0  0  0  0  0
  146.5317  135.6828  152.6244 N   0  0  0  0  0  0  0  0  0  0  0  0
  145.6589  134.5160  152.5956 C   0  0  1  0  0  0  0  0  0  0  0  0
  145.4733  133.9700  151.1799 C   0  0  2  0  0  0  0  0  0  0  0  0
  144.3279  133.8973  150.2347 C   0  0  0  0  0  0  0  0  0  0  0  0
  144.4887  132.4119  149.8159 C   0  0  0  0  0  0  0  0  0  0  0  0
  145.4600  131.8448  150.7280 O   0  0  0  0  0  0  0  0  0  0  0  0
  145.3404  132.6391  151.8911 C   0  0  1  0  0  0  0  0  0  0  0  0
  146.4028  133.1553  152.8833 C   0  0  0  0  0  0  0  0  0  0  0  0
  146.3262  132.6181  154.3195 C   0  0  0  0  0  0  0  0  0  0  0  0
  147.7221  132.1552  154.7437 C   0  0  0  0  0  0  0  0  0  0  0  0
  148.6752  132.8868  153.8098 C   0  0  0  0  0  0  0  0  0  0  0  0
  147.8903  132.9955  152.5067 C   0  0  0  0  0  0  0  0  0  0  0  0
  148.0471  137.5120  152.6833 H   0  0  0  0  0  0  0  0  0  0  0  0
  149.4223  139.1632  153.3246 H   0  0  0  0  0  0  0  0  0  0  0  0
  149.6761  141.4849  154.2535 H   0  0  0  0  0  0  0  0  0  0  0  0
  147.6170  142.6047  155.1788 H   0  0  0  0  0  0  0  0  0  0  0  0
  147.4256  135.5945  152.1621 H   0  0  0  0  0  0  0  0  0  0  0  0
  144.7190  134.6442  153.1405 H   0  0  0  0  0  0  0  0  0  0  0  0
  146.4070  134.0507  150.6145 H   0  0  0  0  0  0  0  0  0  0  0  0
  143.3751  134.0806  150.7335 H   0  0  0  0  0  0  0  0  0  0  0  0
  144.4286  134.5835  149.3936 H   0  0  0  0  0  0  0  0  0  0  0  0
  143.5390  131.8813  149.8924 H   0  0  0  0  0  0  0  0  0  0  0  0
  144.8505  132.3139  148.7920 H   0  0  0  0  0  0  0  0  0  0  0  0
  144.3657  132.4843  152.3681 H   0  0  0  0  0  0  0  0  0  0  0  0
  145.9845  133.4009  154.9967 H   0  0  0  0  0  0  0  0  0  0  0  0
  145.6105  131.8003  154.4116 H   0  0  0  0  0  0  0  0  0  0  0  0
  147.9297  132.3540  155.7956 H   0  0  0  0  0  0  0  0  0  0  0  0
  147.8129  131.0800  154.5843 H   0  0  0  0  0  0  0  0  0  0  0  0
  148.8789  133.8848  154.2005 H   0  0  0  0  0  0  0  0  0  0  0  0
  149.6284  132.3720  153.6885 H   0  0  0  0  0  0  0  0  0  0  0  0
  148.0280  132.0802  151.9298 H   0  0  0  0  0  0  0  0  0  0  0  0
  148.2779  133.8091  151.8933 H   0  0  0  0  0  0  0  0  0  0  0  0
  1  2  2  0  0  0  0
  2  3  1  0  0  0  0
  2 10  1  0  0  0  0
  3  4  1  0  0  0  0
  3 22  1  0  0  0  0
  4  9  1  0  0  0  0
  4  5  2  0  0  0  0
  5  6  1  0  0  0  0
  5 23  1  0  0  0  0
  6  7  2  0  0  0  0
  6 24  1  0  0  0  0
  7  8  1  0  0  0  0
  7 25  1  0  0  0  0
  8  9  2  0  0  0  0
 10 11  1  0  0  0  0
 10 26  1  0  0  0  0
 11 17  1  0  0  0  0
 11 12  1  0  0  0  0
 11 27  1  0  0  0  0
 12 16  1  0  0  0  0
 12 13  1  0  0  0  0
 12 28  1  0  0  0  0
 13 14  1  0  0  0  0
 13 29  1  0  0  0  0
 13 30  1  0  0  0  0
 14 15  1  0  0  0  0
 14 31  1  0  0  0  0
 14 32  1  0  0  0  0
 15 16  1  0  0  0  0
 16 17  1  0  0  0  0
 16 33  1  0  0  0  0
 17 21  1  0  0  0  0
 17 18  1  0  0  0  0
 18 19  1  0  0  0  0
 18 34  1  0  0  0  0
 18 35  1  0  0  0  0
 19 20  1  0  0  0  0
 19 36  1  0  0  0  0
 19 37  1  0  0  0  0
 20 21  1  0  0  0  0
 20 38  1  0  0  0  0
 20 39  1  0  0  0  0
 21 40  1  0  0  0  0
 21 41  1  0  0  0  0
M  END
> <s_m_source_file>
AV-unprocessed.smi

> <i_m_source_file_index>
2520

> <i_lp_mmshare_version>
43012

> <i_f3d_flags>
0

> <s_epik_input>
bjFuW2NIXVtjSF1bY0hdYzFbTkhdQyg9TylbTkhdW0NAQEhdMltDQEBIXShbQ0gyXVtDSDJdTzMpW0NASF0zQzI0W0NIMl1bQ0gyXVtDSDJdW0NIMl00

> <s_epik_cmdline>
J2VwaWtfcHl0aG9uJywgJy1waCcsICc3LjAnLCAnLXRuJywgJzgnLCAnLW1hJywgJzIwMCcsICctbWV0YWxfYmluZGluZycsICctaW1hZScsICc8aW5maWxlLm1hZT4nLCAnLW9tYWUnLCAnPG91dGZpbGUubWFlPic=

> <r_lp_tautomer_probability>
1

> <r_epik_Ionization_Penalty>
0.00552561

> <r_epik_Ionization_Penalty_Charging>
0

> <r_epik_Ionization_Penalty_Neutral>
0.00552561

> <r_epik_State_Penalty>
-0

> <r_epik_Charging_Adjusted_Penalty>
0

> <i_epik_Tot_Q>
0

> <i_epik_Tot_abs_Q>
0

> <r_epik_Metal_State_Penalty>
-0

> <b_epik_Metal_Only>
0

> <s_lp_Force_Field>
OPLS_2005

> <r_lp_Energy>
83.483

> <b_lp_Chiralities_Consistent>
1

> <s_lp_Variant>
AV-unprocessed.smi:2520-8

> <Gold.Version>
5.8.1

> <Gold.Id.Protein>
6NUR|6NUR_protein|mol2

> <Gold.PLP.Fitness>
37.9612

> <Gold.PLP.PLP>
-29.0464

> <Gold.PLP.part.hbond>
-2.0000

> <Gold.PLP.part.metal>
0.0000

> <Gold.PLP.part.buried>
-2.2067

> <Gold.PLP.part.nonpolar>
-26.1923

> <Gold.PLP.part.repulsive>
0.5035

> <Gold.PLP.ligand.clash>
0.0000

> <Gold.PLP.ligand.torsion>
0.1717

> <Gold.PLP.Chemscore.Hbond>
1.9920

> <Gold.PLP.Chemscore.CHOScore>
1.0000

> <Gold.PLP.Chemscore.Metal>
0.0000

> <Gold.Chemscore.Hbonds>
donor molecule, donor type, donor heavy atom, donor atom, acceptor molecule, acceptor atom, score
      L1  H     3    22       P1  7948  0.98
      L1  H    10    26       P1  7948  1.00
      L1  C     7    25       P1  8028  1.00

> <Gold.PLP.Chemscore.Internal.Correction>
0.2821

> <Gold.Rescore>
     Score         DG    S(hbond)    S(metal)    S(lipo)     H(rot)  DE(clash)    DE(int)     intcor
     16.40     -17.77       1.90        0.00      72.86       1.00       0.02       1.35       ----

> <Gold.Chemscore.Fitness>
16.4002

> <Gold.Chemscore.DG>
-17.7747

> <Gold.Chemscore.ZeroCoef>
-5.4800

> <Gold.Chemscore.Hbond>
1.8953

> <Gold.Chemscore.Metal>
0.0000

> <Gold.Chemscore.Lipo>
72.8574

> <Gold.Chemscore.Internal_Hbond>
0.0000

> <Gold.Chemscore.DEClash>
0.0234

> <Gold.Chemscore.DEInternal>
1.3511

> <Gold.Chemscore.Rot>
1.0000

> <Gold.Chemscore.Internal.Correction>
   9.000000E+99

> <Gold.Chemscore.Hbonds>
donor molecule, donor type, donor heavy atom, donor atom, acceptor molecule, acceptor atom, score
      L1  H     3    22       P1  7948  0.93
      L1  H    10    26       P1  7948  0.94

> <Gold.Chemscore.Hbond.Weighted>
-6.3304

> <Gold.Chemscore.Metal.Weighted>
-0.0000

> <Gold.Chemscore.Lipo.Weighted>
-8.5243

> <Gold.Chemscore.Internal_Hbond.Weighted>
0.0000

> <Gold.Chemscore.DEClash.Weighted>
0.0234

> <Gold.Chemscore.DEInternal.Weighted>
1.3511

> <Gold.Chemscore.Rot.Weighted>
2.5600

> <Gold.Chemscore.Internal.Correction.Weighted>
   9.000000E+99

> <Gold.Protein.RotatedTorsions>
[ 6907 6896 6895 6894 ] final  111.34 input  -60.11 | X-H torsion
[ 7974 7965 7964 7962 ] final  -12.90 input  175.53 | X-H torsion
[ 8008 7997 7996 7995 ] final  108.85 input   59.86 | X-H torsion
[ 10167 10162 10161 10158 ] final -152.67 input  -65.29 | X-H torsion
[ 10718 10713 10712 10709 ] final  -40.55 input   66.30 | X-H torsion
[ 10763 10752 10751 10750 ] final  -19.49 input  -60.55 | X-H torsion
[ 11005 11000 10999 10996 ] final   10.39 input  -57.11 | X-H torsion

> <Gold.Protein.ActiveResidues>
 VAL166  LYS551  ARG553  GLY616  TRP617  ASP618  TYR619  PRO620  LYS621  CYS622 
 ASP623  PHE694  ASN695  SER759  ASP760  ASP761  ALA762  ILE779  LEU786  VAL792 
 PHE793  MET794  SER795  GLU796  ALA797  LYS798  CYS799  TRP800  GLU811  SER814 

> <Gold.Protein.RotatedAtoms>
  152.4974  133.8672  159.7279 H   0  0  0  0  0  0  0  0  0  0  0  0  # atno 6907 bound_to 6896
  150.9168  133.6920  159.2848 H   0  0  0  0  0  0  0  0  0  0  0  0  # atno 6908 bound_to 6896
  151.4311  135.1014  159.9695 H   0  0  0  0  0  0  0  0  0  0  0  0  # atno 6909 bound_to 6896
  146.2134  140.3125  142.8384 H   0  0  0  0  0  0  0  0  0  0  0  0  # atno 7974 bound_to 7965
  156.1935  140.3068  155.9380 H   0  0  0  0  0  0  0  0  0  0  0  0  # atno 8008 bound_to 7997
  155.3119  140.0451  157.3052 H   0  0  0  0  0  0  0  0  0  0  0  0  # atno 8009 bound_to 7997
  154.5481  140.2283  155.8539 H   0  0  0  0  0  0  0  0  0  0  0  0  # atno 8010 bound_to 7997
  139.7162  143.9030  152.2486 H   0  0  0  0  0  0  0  0  0  0  0  0  # atno 10167 bound_to 10162
  156.2801  130.4216  149.8346 H   0  0  0  0  0  0  0  0  0  0  0  0  # atno 10718 bound_to 10713
  153.6057  135.6998  153.5367 H   0  0  0  0  0  0  0  0  0  0  0  0  # atno 10763 bound_to 10752
  153.3059  135.4115  155.1293 H   0  0  0  0  0  0  0  0  0  0  0  0  # atno 10764 bound_to 10752
  154.8574  135.3660  154.5593 H   0  0  0  0  0  0  0  0  0  0  0  0  # atno 10765 bound_to 10752
  140.5150  134.0615  155.7828 H   0  0  0  0  0  0  0  0  0  0  0  0  # atno 11005 bound_to 11000
  144.8978  140.7604  143.5886 LP  0  0  0  0  0  0  0  0  0  0  0  0  # atno 17320 bound_to 7965
  145.3050  139.1837  143.4669 LP  0  0  0  0  0  0  0  0  0  0  0  0  # atno 17321 bound_to 7965
  139.8913  144.6964  150.8767 LP  0  0  0  0  0  0  0  0  0  0  0  0  # atno 17342 bound_to 10162
  140.7744  143.3584  151.1876 LP  0  0  0  0  0  0  0  0  0  0  0  0  # atno 17343 bound_to 10162
  156.5796  130.8460  151.3379 LP  0  0  0  0  0  0  0  0  0  0  0  0  # atno 17370 bound_to 10713
  157.7312  130.9696  150.1867 LP  0  0  0  0  0  0  0  0  0  0  0  0  # atno 17371 bound_to 10713
  141.1365  133.9212  157.2422 LP  0  0  0  0  0  0  0  0  0  0  0  0  # atno 17394 bound_to 11000
  139.9638  135.0147  156.9331 LP  0  0  0  0  0  0  0  0  0  0  0  0  # atno 17395 bound_to 11000

$$$$
