AV-unprocessed.smi:2124|AV-procd|sdf|8654|dock9
  -GOLD-   2272011403D 1   1.00000     0.00000
 Structure written by MMmdl.
 47 49  0  0  0  0  0  0  0  0  1 V2000
  144.2520  143.5069  158.4090 C   0  0  0  0  0  0  0  0  0  0  0  0
  145.1486  142.9803  157.3087 C   0  0  0  0  0  0  0  0  0  0  0  0
  145.1111  143.3985  156.0863 N   0  0  0  0  0  0  0  0  0  0  0  0
  145.9958  142.8379  155.1546 C   0  0  0  0  0  0  0  0  0  0  0  0
  145.8951  143.3880  153.7424 C   0  0  0  0  0  0  0  0  0  0  0  0
  146.8827  141.8619  155.5081 C   0  0  0  0  0  0  0  0  0  0  0  0
  147.8679  141.2317  154.5252 C   0  0  0  0  0  0  0  0  0  0  0  0
  149.3320  141.1993  154.9725 C   0  0  0  0  0  0  0  0  0  0  0  0
  150.1270  140.4123  154.4584 O   0  0  0  0  0  0  0  0  0  0  0  0
  149.6730  142.0714  155.9332 N   0  0  0  0  0  0  0  0  0  0  0  0
  151.0137  142.2463  156.4892 C   0  0  2  0  0  0  0  0  0  0  0  0
  151.5079  140.8930  157.0313 C   0  0  0  0  0  0  0  0  0  0  0  0
  150.9804  143.3548  157.5706 C   0  0  2  0  0  0  0  0  0  0  0  0
  152.2075  144.3012  157.5278 C   0  0  0  0  0  0  0  0  0  0  0  0
  152.7415  144.2579  158.9699 C   0  0  1  0  0  0  0  0  0  0  0  0
  151.7507  144.9681  159.9097 C   0  0  0  0  0  0  0  0  0  0  0  0
  150.5768  143.9736  159.9756 C   0  0  0  0  0  0  0  0  0  0  0  0
  151.0340  142.8434  159.0328 C   0  0  2  0  0  0  0  0  0  0  0  0
  152.5298  142.7934  159.3277 C   0  0  0  0  0  0  0  0  0  0  0  0
  146.9173  141.3921  156.9063 C   0  0  0  0  0  0  0  0  0  0  0  0
  147.6813  140.5268  157.3313 O   0  0  0  0  0  0  0  0  0  0  0  0
  146.0330  141.9908  157.7352 N   0  0  0  0  0  0  0  0  0  0  0  0
  146.0196  141.7063  158.7036 H   0  0  0  0  0  0  0  0  0  0  0  0
  144.3903  144.5824  158.5220 H   0  0  0  0  0  0  0  0  0  0  0  0
  144.4684  143.0328  159.3675 H   0  0  0  0  0  0  0  0  0  0  0  0
  143.2067  143.3190  158.1631 H   0  0  0  0  0  0  0  0  0  0  0  0
  145.5063  142.6271  153.0657 H   0  0  0  0  0  0  0  0  0  0  0  0
  146.8721  143.7085  153.3803 H   0  0  0  0  0  0  0  0  0  0  0  0
  145.2269  144.2489  153.6997 H   0  0  0  0  0  0  0  0  0  0  0  0
  147.5431  140.2186  154.2823 H   0  0  0  0  0  0  0  0  0  0  0  0
  147.8273  141.7694  153.5784 H   0  0  0  0  0  0  0  0  0  0  0  0
  148.9515  142.6782  156.2947 H   0  0  0  0  0  0  0  0  0  0  0  0
  151.6901  142.5637  155.6938 H   0  0  0  0  0  0  0  0  0  0  0  0
  152.5382  140.9468  157.3806 H   0  0  0  0  0  0  0  0  0  0  0  0
  151.4766  140.1258  156.2569 H   0  0  0  0  0  0  0  0  0  0  0  0
  150.8913  140.5490  157.8621 H   0  0  0  0  0  0  0  0  0  0  0  0
  150.0691  143.9373  157.4237 H   0  0  0  0  0  0  0  0  0  0  0  0
  152.9741  143.9344  156.8434 H   0  0  0  0  0  0  0  0  0  0  0  0
  151.9422  145.3108  157.2120 H   0  0  0  0  0  0  0  0  0  0  0  0
  153.7681  144.6126  159.0661 H   0  0  0  0  0  0  0  0  0  0  0  0
  152.1866  145.1131  160.8988 H   0  0  0  0  0  0  0  0  0  0  0  0
  151.4489  145.9448  159.5293 H   0  0  0  0  0  0  0  0  0  0  0  0
  150.4503  143.6000  160.9925 H   0  0  0  0  0  0  0  0  0  0  0  0
  149.6315  144.4209  159.6664 H   0  0  0  0  0  0  0  0  0  0  0  0
  150.5048  141.9082  159.2114 H   0  0  0  0  0  0  0  0  0  0  0  0
  153.0803  142.1054  158.6841 H   0  0  0  0  0  0  0  0  0  0  0  0
  152.7580  142.5655  160.3705 H   0  0  0  0  0  0  0  0  0  0  0  0
  1  2  1  0  0  0  0
  1 24  1  0  0  0  0
  1 25  1  0  0  0  0
  1 26  1  0  0  0  0
  2 22  1  0  0  0  0
  2  3  2  0  0  0  0
  3  4  1  0  0  0  0
  4  5  1  0  0  0  0
  4  6  2  0  0  0  0
  5 27  1  0  0  0  0
  5 28  1  0  0  0  0
  5 29  1  0  0  0  0
  6  7  1  0  0  0  0
  6 20  1  0  0  0  0
  7  8  1  0  0  0  0
  7 30  1  0  0  0  0
  7 31  1  0  0  0  0
  8  9  2  0  0  0  0
  8 10  1  0  0  0  0
 10 11  1  0  0  0  0
 10 32  1  0  0  0  0
 11 12  1  0  0  0  0
 11 13  1  0  0  0  0
 11 33  1  0  0  0  0
 12 34  1  0  0  0  0
 12 35  1  0  0  0  0
 12 36  1  0  0  0  0
 13 18  1  0  0  0  0
 13 14  1  0  0  0  0
 13 37  1  0  0  0  0
 14 15  1  0  0  0  0
 14 38  1  0  0  0  0
 14 39  1  0  0  0  0
 15 19  1  0  0  0  0
 15 16  1  0  0  0  0
 15 40  1  0  0  0  0
 16 17  1  0  0  0  0
 16 41  1  0  0  0  0
 16 42  1  0  0  0  0
 17 18  1  0  0  0  0
 17 43  1  0  0  0  0
 17 44  1  0  0  0  0
 18 19  1  0  0  0  0
 18 45  1  0  0  0  0
 19 46  1  0  0  0  0
 19 47  1  0  0  0  0
 20 21  2  0  0  0  0
 20 22  1  0  0  0  0
 22 23  1  0  0  0  0
M  END
> <s_m_source_file>
AV-unprocessed.smi

> <i_m_source_file_index>
2124

> <i_lp_mmshare_version>
43012

> <i_f3d_flags>
0

> <s_epik_input>
W0NIM11jMW5jKFtDSDNdKWMoYyg9TylbbkhdMSlbQ0gyXUMoPU8pW05IXVtDQEhdKFtDSDNdKVtDQEhdKFtDSDJdW0NASF0yMylbQ0BIXShbQ0gyXTMpW0NIMl1bQ0gyXTI=

> <s_epik_cmdline>
J2VwaWtfcHl0aG9uJywgJy1waCcsICc3LjAnLCAnLXRuJywgJzgnLCAnLW1hJywgJzIwMCcsICctbWV0YWxfYmluZGluZycsICctaW1hZScsICc8aW5maWxlLm1hZT4nLCAnLW9tYWUnLCAnPG91dGZpbGUubWFlPic=

> <r_lp_tautomer_probability>
0.839158

> <r_epik_Ionization_Penalty>
0.000383628

> <r_epik_Ionization_Penalty_Charging>
0.00035045

> <r_epik_Ionization_Penalty_Neutral>
3.31781e-05

> <r_epik_State_Penalty>
0.09125

> <r_epik_Charging_Adjusted_Penalty>
0.0916005

> <i_epik_Tot_Q>
0

> <i_epik_Tot_abs_Q>
0

> <r_epik_Metal_State_Penalty>
0.255229

> <b_epik_Metal_Only>
0

> <s_lp_Force_Field>
OPLS_2005

> <r_lp_Energy>
52.554

> <b_lp_Chiralities_Consistent>
1

> <s_lp_Variant>
AV-unprocessed.smi:2124-5

> <Gold.Version>
5.8.1

> <Gold.Id.Protein>
6NUR|6NUR_protein|mol2

> <Gold.PLP.Fitness>
45.6492

> <Gold.PLP.PLP>
-44.4145

> <Gold.PLP.part.hbond>
-2.0000

> <Gold.PLP.part.metal>
0.0000

> <Gold.PLP.part.buried>
-6.4490

> <Gold.PLP.part.nonpolar>
-36.4958

> <Gold.PLP.part.repulsive>
0.4374

> <Gold.PLP.ligand.clash>
0.0000

> <Gold.PLP.ligand.torsion>
1.5546

> <Gold.PLP.Chemscore.Hbond>
1.4400

> <Gold.PLP.Chemscore.CHOScore>
0.0000

> <Gold.PLP.Chemscore.Metal>
0.0000

> <Gold.Chemscore.Hbonds>
donor molecule, donor type, donor heavy atom, donor atom, acceptor molecule, acceptor atom, score
      L1  H    10    32       P1  8028  0.29
      P1  H  7989  7998       L1     9  0.93

> <Gold.PLP.Chemscore.Internal.Correction>
0.0239

> <Gold.Rescore>
     Score         DG    S(hbond)    S(metal)    S(lipo)     H(rot)  DE(clash)    DE(int)     intcor
     16.75     -19.74       1.41        0.00     117.70       1.65       0.11       2.88       ----

> <Gold.Chemscore.Fitness>
16.7492

> <Gold.Chemscore.DG>
-19.7352

> <Gold.Chemscore.ZeroCoef>
-5.4800

> <Gold.Chemscore.Hbond>
1.4122

> <Gold.Chemscore.Metal>
0.0000

> <Gold.Chemscore.Lipo>
117.7002

> <Gold.Chemscore.Internal_Hbond>
0.0000

> <Gold.Chemscore.DEClash>
0.1062

> <Gold.Chemscore.DEInternal>
2.8797

> <Gold.Chemscore.Rot>
1.6534

> <Gold.Chemscore.Internal.Correction>
   9.000000E+99

> <Gold.Chemscore.Hbonds>
donor molecule, donor type, donor heavy atom, donor atom, acceptor molecule, acceptor atom, score
      L1  H    10    32       P1  8028  0.29
      P1  H  7989  7998       L1     9  0.91

> <Gold.Chemscore.Hbond.Weighted>
-4.7168

> <Gold.Chemscore.Metal.Weighted>
-0.0000

> <Gold.Chemscore.Lipo.Weighted>
-13.7709

> <Gold.Chemscore.Internal_Hbond.Weighted>
0.0000

> <Gold.Chemscore.DEClash.Weighted>
0.1062

> <Gold.Chemscore.DEInternal.Weighted>
2.8797

> <Gold.Chemscore.Rot.Weighted>
4.2326

> <Gold.Chemscore.Internal.Correction.Weighted>
   9.000000E+99

> <Gold.Protein.RotatedTorsions>
[ 6907 6896 6895 6894 ] final   29.60 input  -60.11 | X-H torsion
[ 7974 7965 7964 7962 ] final  -14.40 input  175.53 | X-H torsion
[ 8008 7997 7996 7995 ] final   86.22 input   59.86 | X-H torsion
[ 10167 10162 10161 10158 ] final  140.02 input  -65.29 | X-H torsion
[ 10718 10713 10712 10709 ] final  -88.46 input   66.30 | X-H torsion
[ 10763 10752 10751 10750 ] final  -47.66 input  -60.55 | X-H torsion
[ 11005 11000 10999 10996 ] final   13.55 input  -57.11 | X-H torsion

> <Gold.Protein.ActiveResidues>
 VAL166  LYS551  ARG553  GLY616  TRP617  ASP618  TYR619  PRO620  LYS621  CYS622 
 ASP623  PHE694  ASN695  SER759  ASP760  ASP761  ALA762  ILE779  LEU786  VAL792 
 PHE793  MET794  SER795  GLU796  ALA797  LYS798  CYS799  TRP800  GLU811  SER814 

> <Gold.Protein.RotatedAtoms>
  152.0339  134.9751  160.0572 H   0  0  0  0  0  0  0  0  0  0  0  0  # atno 6907 bound_to 6896
  152.1217  133.4352  159.4687 H   0  0  0  0  0  0  0  0  0  0  0  0  # atno 6908 bound_to 6896
  150.6849  134.2445  159.4529 H   0  0  0  0  0  0  0  0  0  0  0  0  # atno 6909 bound_to 6896
  146.2075  140.3343  142.8402 H   0  0  0  0  0  0  0  0  0  0  0  0  # atno 7974 bound_to 7965
  155.9600  140.3394  155.6482 H   0  0  0  0  0  0  0  0  0  0  0  0  # atno 8008 bound_to 7997
  155.6811  140.0738  157.2503 H   0  0  0  0  0  0  0  0  0  0  0  0  # atno 8009 bound_to 7997
  154.4141  140.1674  156.1970 H   0  0  0  0  0  0  0  0  0  0  0  0  # atno 8010 bound_to 7997
  139.5061  144.6259  151.5937 H   0  0  0  0  0  0  0  0  0  0  0  0  # atno 10167 bound_to 10162
  155.9983  130.4836  150.5023 H   0  0  0  0  0  0  0  0  0  0  0  0  # atno 10718 bound_to 10713
  154.0651  135.6612  153.4817 H   0  0  0  0  0  0  0  0  0  0  0  0  # atno 10763 bound_to 10752
  153.0412  135.5144  154.7622 H   0  0  0  0  0  0  0  0  0  0  0  0  # atno 10764 bound_to 10752
  154.6670  135.3023  154.9759 H   0  0  0  0  0  0  0  0  0  0  0  0  # atno 10765 bound_to 10752
  140.4794  134.0950  155.7748 H   0  0  0  0  0  0  0  0  0  0  0  0  # atno 11005 bound_to 11000
  144.8830  140.7425  143.5975 LP  0  0  0  0  0  0  0  0  0  0  0  0  # atno 17320 bound_to 7965
  145.3264  139.1772  143.4560 LP  0  0  0  0  0  0  0  0  0  0  0  0  # atno 17321 bound_to 7965
  140.5976  143.9668  150.6365 LP  0  0  0  0  0  0  0  0  0  0  0  0  # atno 17342 bound_to 10162
  140.2869  143.3351  152.1099 LP  0  0  0  0  0  0  0  0  0  0  0  0  # atno 17343 bound_to 10162
  157.3006  131.0644  151.2071 LP  0  0  0  0  0  0  0  0  0  0  0  0  # atno 17370 bound_to 10713
  157.3052  130.6862  149.6185 LP  0  0  0  0  0  0  0  0  0  0  0  0  # atno 17371 bound_to 10713
  141.1538  133.8920  157.2029 LP  0  0  0  0  0  0  0  0  0  0  0  0  # atno 17394 bound_to 11000
  139.9835  135.0090  156.9808 LP  0  0  0  0  0  0  0  0  0  0  0  0  # atno 17395 bound_to 11000

$$$$
