AV-unprocessed.smi:143|AV-procd|sdf|1193|dock10
  -GOLD-   2262018353D 1   1.00000     0.00000
 Structure written by MMmdl.
 38 40  0  0  0  0  0  0  0  0  1 V2000
  151.0443  136.8985  160.3525 O   0  0  0  0  0  0  0  0  0  0  0  0
  152.1870  137.3427  160.4815 C   0  0  0  0  0  0  0  0  0  0  0  0
  152.9814  137.8029  159.2406 C   0  0  0  0  0  0  0  0  0  0  0  0
  152.3070  138.8524  158.4842 N   0  0  0  0  0  0  0  0  0  0  0  0
  151.7828  138.5157  157.2107 C   0  0  0  0  0  0  0  0  0  0  0  0
  151.8872  137.3824  156.7382 O   0  0  0  0  0  0  0  0  0  0  0  0
  151.1028  139.6101  156.5268 C   0  0  0  0  0  0  0  0  0  0  0  0
  150.5565  139.4009  155.3171 F   0  0  0  0  0  0  0  0  0  0  0  0
  151.0077  140.8332  157.0917 C   0  0  0  0  0  0  0  0  0  0  0  0
  151.5430  141.1399  158.3295 N   0  0  0  0  0  0  0  0  0  0  0  0
  151.3372  142.5247  158.8989 C   0  0  2  0  0  0  0  0  0  0  0  0
  150.5679  143.4717  157.9581 C   0  0  0  0  0  0  0  0  0  0  0  0
  151.5401  144.6244  157.7670 C   0  0  0  0  0  0  0  0  0  0  0  0
  152.4587  144.4978  158.9772 C   0  0  0  0  0  0  0  0  0  0  0  0
  152.5854  143.0946  159.1459 O   0  0  0  0  0  0  0  0  0  0  0  0
  152.1877  140.1308  159.0822 C   0  0  0  0  0  0  0  0  0  0  0  0
  152.6152  140.3561  160.2158 O   0  0  0  0  0  0  0  0  0  0  0  0
  152.8622  137.4522  161.8079 C   0  0  0  0  0  0  0  0  0  0  0  0
  153.8990  138.3993  161.9805 C   0  0  0  0  0  0  0  0  0  0  0  0
  154.5577  138.5260  163.2189 C   0  0  0  0  0  0  0  0  0  0  0  0
  154.1910  137.7032  164.2997 C   0  0  0  0  0  0  0  0  0  0  0  0
  155.0817  137.8724  165.9730 Br  0  0  0  0  0  0  0  0  0  0  0  0
  153.1645  136.7543  164.1399 C   0  0  0  0  0  0  0  0  0  0  0  0
  152.5036  136.6279  162.9024 C   0  0  0  0  0  0  0  0  0  0  0  0
  153.9688  138.1728  159.5209 H   0  0  0  0  0  0  0  0  0  0  0  0
  153.1651  136.9695  158.5607 H   0  0  0  0  0  0  0  0  0  0  0  0
  150.4876  141.6039  156.5418 H   0  0  0  0  0  0  0  0  0  0  0  0
  150.8132  142.3864  159.8457 H   0  0  0  0  0  0  0  0  0  0  0  0
  150.2831  142.9933  157.0206 H   0  0  0  0  0  0  0  0  0  0  0  0
  149.6615  143.8032  158.4655 H   0  0  0  0  0  0  0  0  0  0  0  0
  152.1124  144.4854  156.8494 H   0  0  0  0  0  0  0  0  0  0  0  0
  151.0446  145.5940  157.7118 H   0  0  0  0  0  0  0  0  0  0  0  0
  153.4271  144.9743  158.8242 H   0  0  0  0  0  0  0  0  0  0  0  0
  151.9955  144.9318  159.8648 H   0  0  0  0  0  0  0  0  0  0  0  0
  154.1989  139.0427  161.1657 H   0  0  0  0  0  0  0  0  0  0  0  0
  155.3452  139.2554  163.3381 H   0  0  0  0  0  0  0  0  0  0  0  0
  152.8824  136.1205  164.9676 H   0  0  0  0  0  0  0  0  0  0  0  0
  151.7236  135.8864  162.8184 H   0  0  0  0  0  0  0  0  0  0  0  0
  1  2  2  0  0  0  0
  2  3  1  0  0  0  0
  2 18  1  0  0  0  0
  3  4  1  0  0  0  0
  3 25  1  0  0  0  0
  3 26  1  0  0  0  0
  4 16  1  0  0  0  0
  4  5  1  0  0  0  0
  5  6  2  0  0  0  0
  5  7  1  0  0  0  0
  7  8  1  0  0  0  0
  7  9  2  0  0  0  0
  9 10  1  0  0  0  0
  9 27  1  0  0  0  0
 10 11  1  0  0  0  0
 10 16  1  0  0  0  0
 11 15  1  0  0  0  0
 11 12  1  0  0  0  0
 11 28  1  0  0  0  0
 12 13  1  0  0  0  0
 12 29  1  0  0  0  0
 12 30  1  0  0  0  0
 13 14  1  0  0  0  0
 13 31  1  0  0  0  0
 13 32  1  0  0  0  0
 14 15  1  0  0  0  0
 14 33  1  0  0  0  0
 14 34  1  0  0  0  0
 16 17  2  0  0  0  0
 18 24  1  0  0  0  0
 18 19  2  0  0  0  0
 19 20  1  0  0  0  0
 19 35  1  0  0  0  0
 20 21  2  0  0  0  0
 20 36  1  0  0  0  0
 21 22  1  0  0  0  0
 21 23  1  0  0  0  0
 23 24  2  0  0  0  0
 23 37  1  0  0  0  0
 24 38  1  0  0  0  0
M  END
> <s_m_source_file>
AV-unprocessed.smi

> <i_m_source_file_index>
143

> <i_lp_mmshare_version>
43012

> <i_f3d_flags>
0

> <s_epik_input>
W2NIXTFbY0hdYyhCcilbY0hdW2NIXWMxQyg9TylbQ0gyXW4yYyg9TyljKEYpW2NIXW4oYzI9TylbQ0BASF0zW0NIMl1bQ0gyXVtDSDJdTzM=

> <s_epik_cmdline>
J2VwaWtfcHl0aG9uJywgJy1waCcsICc3LjAnLCAnLXRuJywgJzgnLCAnLW1hJywgJzIwMCcsICctbWV0YWxfYmluZGluZycsICctaW1hZScsICc8aW5maWxlLm1hZT4nLCAnLW9tYWUnLCAnPG91dGZpbGUubWFlPic=

> <r_lp_tautomer_probability>
1

> <r_epik_Ionization_Penalty>
4.7008e-09

> <r_epik_Ionization_Penalty_Charging>
4.69459e-09

> <r_epik_Ionization_Penalty_Neutral>
6.21034e-12

> <r_epik_State_Penalty>
-0

> <r_epik_Charging_Adjusted_Penalty>
4.69459e-09

> <i_epik_Tot_Q>
0

> <i_epik_Tot_abs_Q>
0

> <r_epik_Metal_State_Penalty>
-0

> <b_epik_Metal_Only>
0

> <s_epik_Chemistry_Notes>
This compound contains an acetal/aminal-like group ( X-CH(R)-Y where X, Y are N, S, or O) that may be acid/base labile, releasing an aldehyde.

> <s_lp_Force_Field>
OPLS_2005

> <r_lp_Energy>
36.1645

> <b_lp_Chiralities_Consistent>
1

> <s_lp_Variant>
AV-unprocessed.smi:143-1

> <Gold.Version>
5.8.1

> <Gold.Id.Protein>
6NUR|6NUR_protein|mol2

> <Gold.PLP.Fitness>
46.4075

> <Gold.PLP.PLP>
-44.0948

> <Gold.PLP.part.hbond>
-1.0000

> <Gold.PLP.part.metal>
0.0000

> <Gold.PLP.part.buried>
-3.7548

> <Gold.PLP.part.nonpolar>
-39.2327

> <Gold.PLP.part.repulsive>
0.0000

> <Gold.PLP.ligand.clash>
0.0000

> <Gold.PLP.ligand.torsion>
0.3581

> <Gold.PLP.Chemscore.Hbond>
1.0000

> <Gold.PLP.Chemscore.CHOScore>
0.0000

> <Gold.PLP.Chemscore.Metal>
0.0000

> <Gold.Chemscore.Hbonds>
donor molecule, donor type, donor heavy atom, donor atom, acceptor molecule, acceptor atom, score
      P1  H  6896  6909       L1     1  0.80

> <Gold.PLP.Chemscore.Internal.Correction>
0.0289

> <Gold.Rescore>
     Score         DG    S(hbond)    S(metal)    S(lipo)     H(rot)  DE(clash)    DE(int)     intcor
     14.74     -15.16       1.00        0.00      88.68       1.58       0.05       0.37       ----

> <Gold.Chemscore.Fitness>
14.7397

> <Gold.Chemscore.DG>
-15.1591

> <Gold.Chemscore.ZeroCoef>
-5.4800

> <Gold.Chemscore.Hbond>
0.9997

> <Gold.Chemscore.Metal>
0.0000

> <Gold.Chemscore.Lipo>
88.6840

> <Gold.Chemscore.Internal_Hbond>
0.0000

> <Gold.Chemscore.DEClash>
0.0479

> <Gold.Chemscore.DEInternal>
0.3716

> <Gold.Chemscore.Rot>
1.5765

> <Gold.Chemscore.Internal.Correction>
   9.000000E+99

> <Gold.Chemscore.Hbonds>
donor molecule, donor type, donor heavy atom, donor atom, acceptor molecule, acceptor atom, score
      P1  H  6896  6909       L1     1  0.12

> <Gold.Chemscore.Hbond.Weighted>
-3.3390

> <Gold.Chemscore.Metal.Weighted>
-0.0000

> <Gold.Chemscore.Lipo.Weighted>
-10.3760

> <Gold.Chemscore.Internal_Hbond.Weighted>
0.0000

> <Gold.Chemscore.DEClash.Weighted>
0.0479

> <Gold.Chemscore.DEInternal.Weighted>
0.3716

> <Gold.Chemscore.Rot.Weighted>
4.0359

> <Gold.Chemscore.Internal.Correction.Weighted>
   9.000000E+99

> <Gold.Protein.RotatedTorsions>
[ 6907 6896 6895 6894 ] final  119.58 input  -60.11 | X-H torsion
[ 7974 7965 7964 7962 ] final  140.01 input  175.53 | X-H torsion
[ 8008 7997 7996 7995 ] final  -29.17 input   59.86 | X-H torsion
[ 10167 10162 10161 10158 ] final   34.14 input  -65.29 | X-H torsion
[ 10718 10713 10712 10709 ] final  168.93 input   66.30 | X-H torsion
[ 10763 10752 10751 10750 ] final -125.00 input  -60.55 | X-H torsion
[ 11005 11000 10999 10996 ] final  152.38 input  -57.11 | X-H torsion

> <Gold.Protein.ActiveResidues>
 VAL166  LYS551  ARG553  GLY616  TRP617  ASP618  TYR619  PRO620  LYS621  CYS622 
 ASP623  PHE694  ASN695  SER759  ASP760  ASP761  ALA762  ILE779  LEU786  VAL792 
 PHE793  MET794  SER795  GLU796  ALA797  LYS798  CYS799  TRP800  GLU811  SER814 

> <Gold.Protein.RotatedAtoms>
  152.4461  133.7539  159.6708 H   0  0  0  0  0  0  0  0  0  0  0  0  # atno 6907 bound_to 6896
  150.8361  133.8000  159.3085 H   0  0  0  0  0  0  0  0  0  0  0  0  # atno 6908 bound_to 6896
  151.5639  135.1067  160.0031 H   0  0  0  0  0  0  0  0  0  0  0  0  # atno 6909 bound_to 6896
  144.9226  139.5148  143.5656 H   0  0  0  0  0  0  0  0  0  0  0  0  # atno 7974 bound_to 7965
  154.4301  140.1825  156.1205 H   0  0  0  0  0  0  0  0  0  0  0  0  # atno 8008 bound_to 7997
  156.0146  140.3347  155.6951 H   0  0  0  0  0  0  0  0  0  0  0  0  # atno 8009 bound_to 7997
  155.6062  140.0645  157.2710 H   0  0  0  0  0  0  0  0  0  0  0  0  # atno 8010 bound_to 7997
  140.4343  144.1280  150.6164 H   0  0  0  0  0  0  0  0  0  0  0  0  # atno 10167 bound_to 10162
  157.0300  131.0257  151.2747 H   0  0  0  0  0  0  0  0  0  0  0  0  # atno 10718 bound_to 10713
  154.8730  135.4044  154.3197 H   0  0  0  0  0  0  0  0  0  0  0  0  # atno 10763 bound_to 10752
  153.4027  135.7018  153.6420 H   0  0  0  0  0  0  0  0  0  0  0  0  # atno 10764 bound_to 10752
  153.5156  135.3698  155.2578 H   0  0  0  0  0  0  0  0  0  0  0  0  # atno 10765 bound_to 10752
  140.1303  134.8806  157.2194 H   0  0  0  0  0  0  0  0  0  0  0  0  # atno 11005 bound_to 11000
  146.3212  139.8117  142.8944 LP  0  0  0  0  0  0  0  0  0  0  0  0  # atno 17320 bound_to 7965
  145.3271  141.0258  143.3467 LP  0  0  0  0  0  0  0  0  0  0  0  0  # atno 17321 bound_to 7965
  140.4392  143.2534  151.9495 LP  0  0  0  0  0  0  0  0  0  0  0  0  # atno 17342 bound_to 10162
  139.4786  144.5671  151.8148 LP  0  0  0  0  0  0  0  0  0  0  0  0  # atno 17343 bound_to 10162
  157.5185  130.7983  149.7782 LP  0  0  0  0  0  0  0  0  0  0  0  0  # atno 17370 bound_to 10713
  156.0073  130.3850  150.2387 LP  0  0  0  0  0  0  0  0  0  0  0  0  # atno 17371 bound_to 10713
  140.2851  134.3305  155.7331 LP  0  0  0  0  0  0  0  0  0  0  0  0  # atno 17394 bound_to 11000
  141.2169  133.7501  156.9421 LP  0  0  0  0  0  0  0  0  0  0  0  0  # atno 17395 bound_to 11000

$$$$
