AV-unprocessed.smi:1604|AV-procd|sdf|6450|dock2
  -GOLD-   22720 7103D 1   1.00000     0.00000
 Structure written by MMmdl.
 47 49  0  0  0  0  0  0  0  0  2 V2000
  150.1336  134.1076  155.6782 O   0  0  0  0  0  0  0  0  0  0  0  0
  149.7360  134.6829  154.6656 C   0  0  0  0  0  0  0  0  0  0  0  0
  149.0165  134.1062  153.6887 N   0  0  0  0  0  0  0  0  0  0  0  0
  148.6011  132.7476  153.5913 C   0  0  0  0  0  0  0  0  0  0  0  0
  149.3804  131.6845  154.1155 C   0  0  0  0  0  0  0  0  0  0  0  0
  148.9311  130.3562  153.9852 C   0  0  0  0  0  0  0  0  0  0  0  0
  147.7148  130.1093  153.3244 C   0  0  0  0  0  0  0  0  0  0  0  0
  147.0048  131.1410  152.8225 N   0  3  0  0  0  0  0  0  0  0  0  0
  147.3867  132.4386  152.9197 C   0  0  0  0  0  0  0  0  0  0  0  0
  146.5764  133.4338  152.3334 N   0  0  0  0  0  0  0  0  0  0  0  0
  146.5023  133.3586  150.8765 C   0  0  0  0  0  0  0  0  0  0  0  0
  145.0694  133.7370  150.4944 C   0  0  0  0  0  0  0  0  0  0  0  0
  144.2681  133.3508  151.7313 C   0  0  0  0  0  0  0  0  0  0  0  0
  145.2369  133.6803  152.8651 C   0  0  0  0  0  0  0  0  0  0  0  0
  149.9593  135.9812  154.3997 N   0  0  0  0  0  0  0  0  0  0  0  0
  150.6618  136.9655  155.2349 C   0  0  1  0  0  0  0  0  0  0  0  0
  151.0171  138.2592  154.4606 C   0  0  0  0  0  0  0  0  0  0  0  0
  152.2447  139.0024  155.0103 C   0  0  0  0  0  0  0  0  0  0  0  0
  152.0810  139.5397  156.4393 C   0  0  0  0  0  0  0  0  0  0  0  0
  151.9428  138.4354  157.5005 C   0  0  0  0  0  0  0  0  0  0  0  0
  150.6004  137.8699  157.5557 N   0  0  0  0  0  0  0  0  0  0  0  0
  149.9577  137.1974  156.5886 C   0  0  0  0  0  0  0  0  0  0  0  0
  148.8188  136.7722  156.7793 O   0  0  0  0  0  0  0  0  0  0  0  0
  148.6647  134.7230  152.9714 H   0  0  0  0  0  0  0  0  0  0  0  0
  150.3249  131.8652  154.6060 H   0  0  0  0  0  0  0  0  0  0  0  0
  149.5154  129.5389  154.3821 H   0  0  0  0  0  0  0  0  0  0  0  0
  147.2953  129.1250  153.1749 H   0  0  0  0  0  0  0  0  0  0  0  0
  147.2247  134.0285  150.4094 H   0  0  0  0  0  0  0  0  0  0  0  0
  146.7215  132.3437  150.5402 H   0  0  0  0  0  0  0  0  0  0  0  0
  145.0005  134.8140  150.3341 H   0  0  0  0  0  0  0  0  0  0  0  0
  144.7255  133.2380  149.5881 H   0  0  0  0  0  0  0  0  0  0  0  0
  143.3207  133.8845  151.8126 H   0  0  0  0  0  0  0  0  0  0  0  0
  144.0571  132.2805  151.7192 H   0  0  0  0  0  0  0  0  0  0  0  0
  144.9983  133.1285  153.7742 H   0  0  0  0  0  0  0  0  0  0  0  0
  145.1700  134.7400  153.1134 H   0  0  0  0  0  0  0  0  0  0  0  0
  149.5958  136.3376  153.5282 H   0  0  0  0  0  0  0  0  0  0  0  0
  151.6008  136.4622  155.4681 H   0  0  0  0  0  0  0  0  0  0  0  0
  151.2299  138.0095  153.4201 H   0  0  0  0  0  0  0  0  0  0  0  0
  150.1619  138.9360  154.4373 H   0  0  0  0  0  0  0  0  0  0  0  0
  153.1187  138.3516  154.9623 H   0  0  0  0  0  0  0  0  0  0  0  0
  152.4646  139.8410  154.3489 H   0  0  0  0  0  0  0  0  0  0  0  0
  152.9638  140.1338  156.6780 H   0  0  0  0  0  0  0  0  0  0  0  0
  151.2360  140.2276  156.4931 H   0  0  0  0  0  0  0  0  0  0  0  0
  152.6813  137.6471  157.3488 H   0  0  0  0  0  0  0  0  0  0  0  0
  152.1480  138.8597  158.4835 H   0  0  0  0  0  0  0  0  0  0  0  0
  150.1020  138.0025  158.4242 H   0  0  0  0  0  0  0  0  0  0  0  0
  146.1321  130.9310  152.3377 H   0  0  0  0  0  0  0  0  0  0  0  0
  1  2  2  0  0  0  0
  2  3  1  0  0  0  0
  2 15  1  0  0  0  0
  3  4  1  0  0  0  0
  3 24  1  0  0  0  0
  4  9  1  0  0  0  0
  4  5  2  0  0  0  0
  5  6  1  0  0  0  0
  5 25  1  0  0  0  0
  6  7  2  0  0  0  0
  6 26  1  0  0  0  0
  7  8  1  0  0  0  0
  7 27  1  0  0  0  0
  8  9  2  0  0  0  0
  8 47  1  0  0  0  0
  9 10  1  0  0  0  0
 10 14  1  0  0  0  0
 10 11  1  0  0  0  0
 11 12  1  0  0  0  0
 11 28  1  0  0  0  0
 11 29  1  0  0  0  0
 12 13  1  0  0  0  0
 12 30  1  0  0  0  0
 12 31  1  0  0  0  0
 13 14  1  0  0  0  0
 13 32  1  0  0  0  0
 13 33  1  0  0  0  0
 14 34  1  0  0  0  0
 14 35  1  0  0  0  0
 15 16  1  0  0  0  0
 15 36  1  0  0  0  0
 16 22  1  0  0  0  0
 16 17  1  0  0  0  0
 16 37  1  0  0  0  0
 17 18  1  0  0  0  0
 17 38  1  0  0  0  0
 17 39  1  0  0  0  0
 18 19  1  0  0  0  0
 18 40  1  0  0  0  0
 18 41  1  0  0  0  0
 19 20  1  0  0  0  0
 19 42  1  0  0  0  0
 19 43  1  0  0  0  0
 20 21  1  0  0  0  0
 20 44  1  0  0  0  0
 20 45  1  0  0  0  0
 21 22  1  0  0  0  0
 21 46  1  0  0  0  0
 22 23  2  0  0  0  0
M  CHG  1   8   1
M  END
> <s_m_source_file>
AV-unprocessed.smi

> <i_m_source_file_index>
1604

> <i_lp_mmshare_version>
43012

> <i_f3d_flags>
0

> <s_epik_input>
Tz1DMVtOSF1bQ0gyXVtDSDJdW0NIMl1bQ0gyXVtDQEhdMVtOSF1DKD1PKVtOSF1jMltjSF1bY0hdW2NIXW5jMk4zW0NIMl1bQ0gyXVtDSDJdW0NIMl0z

> <s_epik_cmdline>
J2VwaWtfcHl0aG9uJywgJy1waCcsICc3LjAnLCAnLXRuJywgJzgnLCAnLW1hJywgJzIwMCcsICctbWV0YWxfYmluZGluZycsICctaW1hZScsICc8aW5maWxlLm1hZT4nLCAnLW9tYWUnLCAnPG91dGZpbGUubWFlPic=

> <r_lp_tautomer_probability>
0.999994

> <r_epik_Ionization_Penalty>
1.20452

> <r_epik_Ionization_Penalty_Charging>
1.2045

> <r_epik_Ionization_Penalty_Neutral>
1.88134e-05

> <r_epik_State_Penalty>
1.2704

> <r_epik_Charging_Adjusted_Penalty>
2.4749

> <i_epik_Tot_Q>
1

> <i_epik_Tot_abs_Q>
1

> <r_epik_Metal_State_Penalty>
1.34433

> <b_epik_Metal_Only>
0

> <s_lp_Force_Field>
OPLS_2005

> <r_lp_Energy>
47.2667

> <b_lp_Chiralities_Consistent>
1

> <s_lp_Variant>
AV-unprocessed.smi:1604-4

> <Gold.Version>
5.8.1

> <Gold.Id.Protein>
6NUR|6NUR_protein|mol2

> <Gold.PLP.Fitness>
40.5242

> <Gold.PLP.PLP>
-35.1503

> <Gold.PLP.part.hbond>
-2.9771

> <Gold.PLP.part.metal>
0.0000

> <Gold.PLP.part.buried>
-3.4081

> <Gold.PLP.part.nonpolar>
-28.9052

> <Gold.PLP.part.repulsive>
0.2495

> <Gold.PLP.ligand.clash>
0.0000

> <Gold.PLP.ligand.torsion>
0.3527

> <Gold.PLP.Chemscore.Hbond>
1.9600

> <Gold.PLP.Chemscore.CHOScore>
0.0000

> <Gold.PLP.Chemscore.Metal>
0.0000

> <Gold.Chemscore.Hbonds>
donor molecule, donor type, donor heavy atom, donor atom, acceptor molecule, acceptor atom, score
      L1  H     3    24       P1  7948  0.91
      L1  H    15    36       P1  7948  1.00

> <Gold.PLP.Chemscore.Internal.Correction>
0.1993

> <Gold.Rescore>
     Score         DG    S(hbond)    S(metal)    S(lipo)     H(rot)  DE(clash)    DE(int)     intcor
     13.97     -15.46       1.42        0.00      72.35       1.26       0.00       1.49       ----

> <Gold.Chemscore.Fitness>
13.9667

> <Gold.Chemscore.DG>
-15.4604

> <Gold.Chemscore.ZeroCoef>
-5.4800

> <Gold.Chemscore.Hbond>
1.4168

> <Gold.Chemscore.Metal>
0.0000

> <Gold.Chemscore.Lipo>
72.3507

> <Gold.Chemscore.Internal_Hbond>
0.0000

> <Gold.Chemscore.DEClash>
0.0029

> <Gold.Chemscore.DEInternal>
1.4908

> <Gold.Chemscore.Rot>
1.2566

> <Gold.Chemscore.Internal.Correction>
   9.000000E+99

> <Gold.Chemscore.Hbonds>
donor molecule, donor type, donor heavy atom, donor atom, acceptor molecule, acceptor atom, score
      L1  H     3    24       P1  7948  0.20
      L1  H    15    36       P1  7948  0.49

> <Gold.Chemscore.Hbond.Weighted>
-4.7322

> <Gold.Chemscore.Metal.Weighted>
-0.0000

> <Gold.Chemscore.Lipo.Weighted>
-8.4650

> <Gold.Chemscore.Internal_Hbond.Weighted>
0.0000

> <Gold.Chemscore.DEClash.Weighted>
0.0029

> <Gold.Chemscore.DEInternal.Weighted>
1.4908

> <Gold.Chemscore.Rot.Weighted>
3.2168

> <Gold.Chemscore.Internal.Correction.Weighted>
   9.000000E+99

> <Gold.Protein.RotatedTorsions>
[ 6907 6896 6895 6894 ] final  -29.67 input  -60.11 | X-H torsion
[ 7974 7965 7964 7962 ] final   -9.34 input  175.53 | X-H torsion
[ 8008 7997 7996 7995 ] final -103.29 input   59.86 | X-H torsion
[ 10167 10162 10161 10158 ] final  -37.80 input  -65.29 | X-H torsion
[ 10718 10713 10712 10709 ] final  -93.78 input   66.30 | X-H torsion
[ 10763 10752 10751 10750 ] final   11.90 input  -60.55 | X-H torsion
[ 11005 11000 10999 10996 ] final  -24.61 input  -57.11 | X-H torsion

> <Gold.Protein.ActiveResidues>
 VAL166  LYS551  ARG553  GLY616  TRP617  ASP618  TYR619  PRO620  LYS621  CYS622 
 ASP623  PHE694  ASN695  SER759  ASP760  ASP761  ALA762  ILE779  LEU786  VAL792 
 PHE793  MET794  SER795  GLU796  ALA797  LYS798  CYS799  TRP800  GLU811  SER814 

> <Gold.Protein.RotatedAtoms>
  151.1160  135.0053  159.8515 H   0  0  0  0  0  0  0  0  0  0  0  0  # atno 6907 bound_to 6896
  152.5445  134.1779  159.8634 H   0  0  0  0  0  0  0  0  0  0  0  0  # atno 6908 bound_to 6896
  151.1833  133.4666  159.2627 H   0  0  0  0  0  0  0  0  0  0  0  0  # atno 6909 bound_to 6896
  146.2254  140.2602  142.8351 H   0  0  0  0  0  0  0  0  0  0  0  0  # atno 7974 bound_to 7965
  154.8687  140.0423  157.1711 H   0  0  0  0  0  0  0  0  0  0  0  0  # atno 8008 bound_to 7997
  154.8762  140.2965  155.5431 H   0  0  0  0  0  0  0  0  0  0  0  0  # atno 8009 bound_to 7997
  156.2999  140.2420  156.3758 H   0  0  0  0  0  0  0  0  0  0  0  0  # atno 8010 bound_to 7997
  140.7109  143.3318  151.2552 H   0  0  0  0  0  0  0  0  0  0  0  0  # atno 10167 bound_to 10162
  156.0018  130.5041  150.5828 H   0  0  0  0  0  0  0  0  0  0  0  0  # atno 10718 bound_to 10713
  153.1878  135.6837  153.8393 H   0  0  0  0  0  0  0  0  0  0  0  0  # atno 10763 bound_to 10752
  153.7703  135.3197  155.3352 H   0  0  0  0  0  0  0  0  0  0  0  0  # atno 10764 bound_to 10752
  154.8099  135.4724  154.0586 H   0  0  0  0  0  0  0  0  0  0  0  0  # atno 10765 bound_to 10752
  140.8861  133.7620  156.0362 H   0  0  0  0  0  0  0  0  0  0  0  0  # atno 11005 bound_to 11000
  144.9345  140.8011  143.5668 LP  0  0  0  0  0  0  0  0  0  0  0  0  # atno 17320 bound_to 7965
  145.2548  139.2016  143.4923 LP  0  0  0  0  0  0  0  0  0  0  0  0  # atno 17321 bound_to 7965
  139.6802  143.9867  152.2804 LP  0  0  0  0  0  0  0  0  0  0  0  0  # atno 17342 bound_to 10162
  139.9495  144.6630  150.8186 LP  0  0  0  0  0  0  0  0  0  0  0  0  # atno 17343 bound_to 10162
  157.3705  131.0765  151.1561 LP  0  0  0  0  0  0  0  0  0  0  0  0  # atno 17370 bound_to 10713
  157.2316  130.6528  149.5852 LP  0  0  0  0  0  0  0  0  0  0  0  0  # atno 17371 bound_to 10713
  140.8403  134.3074  157.5316 LP  0  0  0  0  0  0  0  0  0  0  0  0  # atno 17394 bound_to 11000
  139.8724  134.9412  156.3791 LP  0  0  0  0  0  0  0  0  0  0  0  0  # atno 17395 bound_to 11000

$$$$
