AV-unprocessed.smi:240|AV-procd|sdf|1836|dock3
  -GOLD-   2262020443D 1   1.00000     0.00000
 Structure written by MMmdl.
 55 59  0  0  0  0  0  0  0  0  1 V2000
  144.0126  140.2884  155.4139 O   0  0  0  0  0  0  0  0  0  0  0  0
  144.9795  141.2931  155.6384 C   0  0  2  0  0  0  0  0  0  0  0  0
  144.4822  142.6469  155.1354 C   0  0  0  0  0  0  0  0  0  0  0  0
  145.7581  143.4750  154.9785 C   0  0  0  0  0  0  0  0  0  0  0  0
  146.8766  142.4724  154.6545 C   0  0  0  0  0  0  0  0  0  0  0  0
  146.2774  141.0631  154.8413 C   0  0  1  0  0  0  0  0  0  0  0  0
  147.2786  140.0008  155.3998 C   0  0  1  0  0  0  0  0  0  0  0  0
  147.4632  140.0870  156.9377 C   0  0  0  0  0  0  0  0  0  0  0  0
  148.4108  139.1215  157.3752 O   0  0  0  0  0  0  0  0  0  0  0  0
  147.9632  137.7984  157.1162 C   0  0  0  0  0  0  0  0  0  0  0  0
  147.8171  137.6110  155.6007 C   0  0  0  0  0  0  0  0  0  0  0  0
  146.9251  138.6192  155.0352 N   0  0  0  0  0  0  0  0  0  0  0  0
  146.7116  138.3490  153.7254 C   0  0  0  0  0  0  0  0  0  0  0  0
  147.0123  139.2730  152.7738 N   0  0  0  0  0  0  0  0  0  0  0  0
  146.8003  138.9968  151.4836 C   0  0  0  0  0  0  0  0  0  0  0  0
  146.3127  137.8802  150.9376 N   0  0  0  0  0  0  0  0  0  0  0  0
  146.0274  136.9463  151.8905 C   0  0  0  0  0  0  0  0  0  0  0  0
  146.2015  137.0963  153.2941 C   0  0  0  0  0  0  0  0  0  0  0  0
  145.8077  135.9378  153.9510 N   0  0  0  0  0  0  0  0  0  0  0  0
  145.4164  135.1473  152.9889 C   0  0  0  0  0  0  0  0  0  0  0  0
  145.5195  135.6702  151.7190 N   0  0  0  0  0  0  0  0  0  0  0  0
  145.1518  135.0151  150.4732 C   0  0  0  0  0  0  0  0  0  0  0  0
  144.3407  133.7076  150.6614 C   0  0  2  0  0  0  0  0  0  0  0  0
  143.1539  133.9969  151.3773 O   0  0  0  0  0  0  0  0  0  0  0  0
  145.1030  132.5965  151.3804 C   0  0  0  0  0  0  0  0  0  0  0  0
  145.7481  131.8459  150.2258 C   0  0  0  0  0  0  0  0  0  0  0  0
  144.7137  131.8205  149.2561 O   0  0  0  0  0  0  0  0  0  0  0  0
  144.0008  133.0537  149.3068 C   0  0  0  0  0  0  0  0  0  0  0  0
  143.6325  140.4220  154.5592 H   0  0  0  0  0  0  0  0  0  0  0  0
  145.1737  141.3711  156.7069 H   0  0  0  0  0  0  0  0  0  0  0  0
  144.0029  142.5345  154.1614 H   0  0  0  0  0  0  0  0  0  0  0  0
  143.7610  143.1086  155.8104 H   0  0  0  0  0  0  0  0  0  0  0  0
  145.6547  144.2440  154.2124 H   0  0  0  0  0  0  0  0  0  0  0  0
  145.9837  143.9787  155.9194 H   0  0  0  0  0  0  0  0  0  0  0  0
  147.2290  142.5985  153.6300 H   0  0  0  0  0  0  0  0  0  0  0  0
  147.7332  142.6564  155.3008 H   0  0  0  0  0  0  0  0  0  0  0  0
  145.9734  140.7681  153.8367 H   0  0  0  0  0  0  0  0  0  0  0  0
  148.2519  140.2058  154.9515 H   0  0  0  0  0  0  0  0  0  0  0  0
  147.8271  141.0676  157.2388 H   0  0  0  0  0  0  0  0  0  0  0  0
  146.5265  139.9215  157.4695 H   0  0  0  0  0  0  0  0  0  0  0  0
  148.6919  137.0919  157.5137 H   0  0  0  0  0  0  0  0  0  0  0  0
  147.0190  137.6074  157.6289 H   0  0  0  0  0  0  0  0  0  0  0  0
  148.7963  137.6851  155.1251 H   0  0  0  0  0  0  0  0  0  0  0  0
  147.4346  136.6105  155.3934 H   0  0  0  0  0  0  0  0  0  0  0  0
  147.0577  139.7833  150.7894 H   0  0  0  0  0  0  0  0  0  0  0  0
  145.0410  134.1523  153.1797 H   0  0  0  0  0  0  0  0  0  0  0  0
  144.5826  135.7260  149.8725 H   0  0  0  0  0  0  0  0  0  0  0  0
  146.0660  134.8135  149.9135 H   0  0  0  0  0  0  0  0  0  0  0  0
  142.5242  134.3647  150.7760 H   0  0  0  0  0  0  0  0  0  0  0  0
  145.8233  132.9418  152.1206 H   0  0  0  0  0  0  0  0  0  0  0  0
  144.4114  131.9235  151.8904 H   0  0  0  0  0  0  0  0  0  0  0  0
  146.6096  132.3900  149.8354 H   0  0  0  0  0  0  0  0  0  0  0  0
  146.0677  130.8406  150.5004 H   0  0  0  0  0  0  0  0  0  0  0  0
  142.9352  132.8479  149.1963 H   0  0  0  0  0  0  0  0  0  0  0  0
  144.2980  133.6830  148.4668 H   0  0  0  0  0  0  0  0  0  0  0  0
  1  2  1  0  0  0  0
  1 29  1  0  0  0  0
  2  6  1  0  0  0  0
  2  3  1  0  0  0  0
  2 30  1  0  0  0  0
  3  4  1  0  0  0  0
  3 31  1  0  0  0  0
  3 32  1  0  0  0  0
  4  5  1  0  0  0  0
  4 33  1  0  0  0  0
  4 34  1  0  0  0  0
  5  6  1  0  0  0  0
  5 35  1  0  0  0  0
  5 36  1  0  0  0  0
  6  7  1  0  0  0  0
  6 37  1  0  0  0  0
  7 12  1  0  0  0  0
  7  8  1  0  0  0  0
  7 38  1  0  0  0  0
  8  9  1  0  0  0  0
  8 39  1  0  0  0  0
  8 40  1  0  0  0  0
  9 10  1  0  0  0  0
 10 11  1  0  0  0  0
 10 41  1  0  0  0  0
 10 42  1  0  0  0  0
 11 12  1  0  0  0  0
 11 43  1  0  0  0  0
 11 44  1  0  0  0  0
 12 13  1  0  0  0  0
 13 18  1  0  0  0  0
 13 14  2  0  0  0  0
 14 15  1  0  0  0  0
 15 16  2  0  0  0  0
 15 45  1  0  0  0  0
 16 17  1  0  0  0  0
 17 21  1  0  0  0  0
 17 18  2  0  0  0  0
 18 19  1  0  0  0  0
 19 20  2  0  0  0  0
 20 21  1  0  0  0  0
 20 46  1  0  0  0  0
 21 22  1  0  0  0  0
 22 23  1  0  0  0  0
 22 47  1  0  0  0  0
 22 48  1  0  0  0  0
 23 28  1  0  0  0  0
 23 24  1  0  0  0  0
 23 25  1  0  0  0  0
 24 49  1  0  0  0  0
 25 26  1  0  0  0  0
 25 50  1  0  0  0  0
 25 51  1  0  0  0  0
 26 27  1  0  0  0  0
 26 52  1  0  0  0  0
 26 53  1  0  0  0  0
 27 28  1  0  0  0  0
 28 54  1  0  0  0  0
 28 55  1  0  0  0  0
M  END
> <s_m_source_file>
AV-unprocessed.smi

> <i_m_source_file_index>
240

> <i_lp_mmshare_version>
43012

> <i_f3d_flags>
0

> <s_epik_input>
W09IXVtDQEBIXTFbQ0gyXVtDSDJdW0NIMl1bQ0BIXTFbQ0BASF0yW0NIMl1PW0NIMl1bQ0gyXU4yYyhuW2NIXW4zKWMoYzM0KW5bY0hdbjRbQ0gyXVtDQEBdNShbT0hdKVtDSDJdW0NIMl1PW0NIMl01

> <s_epik_cmdline>
J2VwaWtfcHl0aG9uJywgJy1waCcsICc3LjAnLCAnLXRuJywgJzgnLCAnLW1hJywgJzIwMCcsICctbWV0YWxfYmluZGluZycsICctaW1hZScsICc8aW5maWxlLm1hZT4nLCAnLW9tYWUnLCAnPG91dGZpbGUubWFlPic=

> <r_lp_tautomer_probability>
1

> <r_epik_Ionization_Penalty>
0.000130618

> <r_epik_Ionization_Penalty_Charging>
0

> <r_epik_Ionization_Penalty_Neutral>
0.000130618

> <r_epik_State_Penalty>
-0

> <r_epik_Charging_Adjusted_Penalty>
0

> <i_epik_Tot_Q>
0

> <i_epik_Tot_abs_Q>
0

> <r_epik_Metal_State_Penalty>
-0

> <b_epik_Metal_Only>
0

> <s_lp_Force_Field>
OPLS_2005

> <r_lp_Energy>
59.7423

> <b_lp_Chiralities_Consistent>
1

> <s_lp_Variant>
AV-unprocessed.smi:240-13

> <Gold.Version>
5.8.1

> <Gold.Id.Protein>
6NUR|6NUR_protein|mol2

> <Gold.PLP.Fitness>
40.1874

> <Gold.PLP.PLP>
-33.0317

> <Gold.PLP.part.hbond>
-3.9300

> <Gold.PLP.part.metal>
0.0000

> <Gold.PLP.part.buried>
0.0141

> <Gold.PLP.part.nonpolar>
-31.3925

> <Gold.PLP.part.repulsive>
3.0474

> <Gold.PLP.ligand.clash>
0.0000

> <Gold.PLP.ligand.torsion>
0.6368

> <Gold.PLP.Chemscore.Hbond>
2.2727

> <Gold.PLP.Chemscore.CHOScore>
0.4735

> <Gold.PLP.Chemscore.Metal>
0.0000

> <Gold.Chemscore.Hbonds>
donor molecule, donor type, donor heavy atom, donor atom, acceptor molecule, acceptor atom, score
      L1  H     1    29       P1 10175  0.96
      L1  H    24    49       P1 10186  1.00
      P1  H  7954  7966       L1    16  0.15
      P1  H 10785 10796       L1    27  0.12
      L1  C    15    45       P1  7957  0.47

> <Gold.PLP.Chemscore.Internal.Correction>
0.1906

> <Gold.Rescore>
     Score         DG    S(hbond)    S(metal)    S(lipo)     H(rot)  DE(clash)    DE(int)     intcor
      6.27     -12.10       1.77        0.00      71.80       3.00       2.89       2.95       ----

> <Gold.Chemscore.Fitness>
6.2670

> <Gold.Chemscore.DG>
-12.1038

> <Gold.Chemscore.ZeroCoef>
-5.4800

> <Gold.Chemscore.Hbond>
1.7703

> <Gold.Chemscore.Metal>
0.0000

> <Gold.Chemscore.Lipo>
71.8038

> <Gold.Chemscore.Internal_Hbond>
0.0000

> <Gold.Chemscore.DEClash>
2.8883

> <Gold.Chemscore.DEInternal>
2.9486

> <Gold.Chemscore.Rot>
3.0039

> <Gold.Chemscore.Internal.Correction>
   9.000000E+99

> <Gold.Chemscore.Hbonds>
donor molecule, donor type, donor heavy atom, donor atom, acceptor molecule, acceptor atom, score
      L1  H     1    29       P1 10175  0.89
      L1  H    24    49       P1 10186  0.25
      P1  H 10785 10796       L1    27  0.09

> <Gold.Chemscore.Hbond.Weighted>
-5.9127

> <Gold.Chemscore.Metal.Weighted>
-0.0000

> <Gold.Chemscore.Lipo.Weighted>
-8.4010

> <Gold.Chemscore.Internal_Hbond.Weighted>
0.0000

> <Gold.Chemscore.DEClash.Weighted>
2.8883

> <Gold.Chemscore.DEInternal.Weighted>
2.9486

> <Gold.Chemscore.Rot.Weighted>
7.6899

> <Gold.Chemscore.Internal.Correction.Weighted>
   9.000000E+99

> <Gold.Protein.RotatedTorsions>
[ 6907 6896 6895 6894 ] final   28.71 input  -60.11 | X-H torsion
[ 7974 7965 7964 7962 ] final    6.47 input  175.53 | X-H torsion
[ 8008 7997 7996 7995 ] final  151.14 input   59.86 | X-H torsion
[ 10167 10162 10161 10158 ] final   89.55 input  -65.29 | X-H torsion
[ 10718 10713 10712 10709 ] final   79.03 input   66.30 | X-H torsion
[ 10763 10752 10751 10750 ] final   49.82 input  -60.55 | X-H torsion
[ 11005 11000 10999 10996 ] final   56.56 input  -57.11 | X-H torsion

> <Gold.Protein.ActiveResidues>
 VAL166  LYS551  ARG553  GLY616  TRP617  ASP618  TYR619  PRO620  LYS621  CYS622 
 ASP623  PHE694  ASN695  SER759  ASP760  ASP761  ALA762  ILE779  LEU786  VAL792 
 PHE793  MET794  SER795  GLU796  ALA797  LYS798  CYS799  TRP800  GLU811  SER814 

> <Gold.Protein.RotatedAtoms>
  152.0209  134.9823  160.0570 H   0  0  0  0  0  0  0  0  0  0  0  0  # atno 6907 bound_to 6896
  152.1338  133.4419  159.4742 H   0  0  0  0  0  0  0  0  0  0  0  0  # atno 6908 bound_to 6896
  150.6858  134.2306  159.4476 H   0  0  0  0  0  0  0  0  0  0  0  0  # atno 6909 bound_to 6896
  146.2434  140.0228  142.8396 H   0  0  0  0  0  0  0  0  0  0  0  0  # atno 7974 bound_to 7965
  156.2686  140.2056  156.6128 H   0  0  0  0  0  0  0  0  0  0  0  0  # atno 8008 bound_to 7997
  154.6818  140.0539  157.0297 H   0  0  0  0  0  0  0  0  0  0  0  0  # atno 8009 bound_to 7997
  155.0990  140.3204  155.4555 H   0  0  0  0  0  0  0  0  0  0  0  0  # atno 8010 bound_to 7997
  139.8561  144.6568  150.9112 H   0  0  0  0  0  0  0  0  0  0  0  0  # atno 10167 bound_to 10162
  157.6764  130.9895  150.1873 H   0  0  0  0  0  0  0  0  0  0  0  0  # atno 10718 bound_to 10713
  152.9786  135.5899  154.4152 H   0  0  0  0  0  0  0  0  0  0  0  0  # atno 10763 bound_to 10752
  154.3783  135.2767  155.2228 H   0  0  0  0  0  0  0  0  0  0  0  0  # atno 10764 bound_to 10752
  154.4153  135.6072  153.6032 H   0  0  0  0  0  0  0  0  0  0  0  0  # atno 10765 bound_to 10752
  140.0520  134.5724  155.9252 H   0  0  0  0  0  0  0  0  0  0  0  0  # atno 11005 bound_to 11000
  145.1225  140.9471  143.4592 LP  0  0  0  0  0  0  0  0  0  0  0  0  # atno 17320 bound_to 7965
  145.0467  139.3215  143.5949 LP  0  0  0  0  0  0  0  0  0  0  0  0  # atno 17321 bound_to 7965
  140.7781  143.3784  151.1521 LP  0  0  0  0  0  0  0  0  0  0  0  0  # atno 17342 bound_to 10162
  139.7418  143.8913  152.3052 LP  0  0  0  0  0  0  0  0  0  0  0  0  # atno 17343 bound_to 10162
  156.2592  130.3709  149.8149 LP  0  0  0  0  0  0  0  0  0  0  0  0  # atno 17370 bound_to 10713
  156.5899  130.8502  151.3405 LP  0  0  0  0  0  0  0  0  0  0  0  0  # atno 17371 bound_to 10713
  141.1934  133.6579  156.5549 LP  0  0  0  0  0  0  0  0  0  0  0  0  # atno 17394 bound_to 11000
  140.3903  134.7446  157.4717 LP  0  0  0  0  0  0  0  0  0  0  0  0  # atno 17395 bound_to 11000

$$$$
