AV-unprocessed.smi:2190|AV-procd|sdf|8888|dock7
  -GOLD-   2272012 93D 1   1.00000     0.00000
 Structure written by MMmdl.
 46 48  0  0  0  0  0  0  0  0  1 V2000
  147.6324  132.1285  160.4275 C   0  0  0  0  0  0  0  0  0  0  0  0
  147.4864  133.4844  161.0870 C   0  0  0  0  0  0  0  0  0  0  0  0
  146.7993  133.6106  162.3096 C   0  0  0  0  0  0  0  0  0  0  0  0
  146.6701  134.8732  162.9153 C   0  0  0  0  0  0  0  0  0  0  0  0
  147.2265  136.0161  162.3042 C   0  0  0  0  0  0  0  0  0  0  0  0
  147.0787  137.3700  162.9727 C   0  0  0  0  0  0  0  0  0  0  0  0
  147.9198  135.9038  161.0766 C   0  0  0  0  0  0  0  0  0  0  0  0
  148.4415  137.0602  160.5333 O   0  0  0  0  0  0  0  0  0  0  0  0
  149.3067  136.9538  159.4107 C   0  0  0  0  0  0  0  0  0  0  0  0
  149.3438  138.3055  158.6800 C   0  0  2  0  0  0  0  0  0  0  0  0
  148.0146  138.7386  158.4660 O   0  0  0  0  0  0  0  0  0  0  0  0
  150.0674  138.2017  157.3214 C   0  0  0  0  0  0  0  0  0  0  0  0
  150.3183  139.5004  156.7091 N   0  0  0  0  0  0  0  0  0  0  0  0
  150.0473  139.8900  155.4376 C   0  0  0  0  0  0  0  0  0  0  0  0
  149.4058  138.9535  154.4526 C   0  0  0  0  0  0  0  0  0  0  0  0
  150.2010  137.8325  154.1226 O   0  0  0  0  0  0  0  0  0  0  0  0
  150.3782  141.1484  155.1377 N   0  0  0  0  0  0  0  0  0  0  0  0
  150.9112  141.6164  156.3221 C   0  0  0  0  0  0  0  0  0  0  0  0
  151.4428  142.8836  156.6522 C   0  0  0  0  0  0  0  0  0  0  0  0
  151.9357  143.1351  157.9494 C   0  0  0  0  0  0  0  0  0  0  0  0
  151.9037  142.1255  158.9329 C   0  0  0  0  0  0  0  0  0  0  0  0
  151.3777  140.8561  158.6249 C   0  0  0  0  0  0  0  0  0  0  0  0
  150.8873  140.6098  157.3281 C   0  0  0  0  0  0  0  0  0  0  0  0
  148.0440  134.6250  160.4752 C   0  0  0  0  0  0  0  0  0  0  0  0
  147.0210  131.3758  160.9261 H   0  0  0  0  0  0  0  0  0  0  0  0
  148.6722  131.8027  160.4628 H   0  0  0  0  0  0  0  0  0  0  0  0
  147.3230  132.1786  159.3832 H   0  0  0  0  0  0  0  0  0  0  0  0
  146.3698  132.7422  162.7875 H   0  0  0  0  0  0  0  0  0  0  0  0
  146.1413  134.9600  163.8532 H   0  0  0  0  0  0  0  0  0  0  0  0
  146.5752  138.0700  162.3052 H   0  0  0  0  0  0  0  0  0  0  0  0
  148.0594  137.7767  163.2211 H   0  0  0  0  0  0  0  0  0  0  0  0
  146.4972  137.3012  163.8924 H   0  0  0  0  0  0  0  0  0  0  0  0
  150.3077  136.7138  159.7728 H   0  0  0  0  0  0  0  0  0  0  0  0
  148.9954  136.1555  158.7343 H   0  0  0  0  0  0  0  0  0  0  0  0
  149.8532  139.0405  159.3033 H   0  0  0  0  0  0  0  0  0  0  0  0
  148.0036  139.6833  158.4557 H   0  0  0  0  0  0  0  0  0  0  0  0
  151.0183  137.6812  157.4375 H   0  0  0  0  0  0  0  0  0  0  0  0
  149.4805  137.5986  156.6272 H   0  0  0  0  0  0  0  0  0  0  0  0
  148.4608  138.5930  154.8577 H   0  0  0  0  0  0  0  0  0  0  0  0
  149.1824  139.5002  153.5363 H   0  0  0  0  0  0  0  0  0  0  0  0
  149.8468  137.4313  153.3439 H   0  0  0  0  0  0  0  0  0  0  0  0
  151.4710  143.6632  155.9054 H   0  0  0  0  0  0  0  0  0  0  0  0
  152.3407  144.1070  158.1904 H   0  0  0  0  0  0  0  0  0  0  0  0
  152.2838  142.3260  159.9240 H   0  0  0  0  0  0  0  0  0  0  0  0
  151.3542  140.0809  159.3759 H   0  0  0  0  0  0  0  0  0  0  0  0
  148.5665  134.4928  159.5401 H   0  0  0  0  0  0  0  0  0  0  0  0
  1  2  1  0  0  0  0
  1 25  1  0  0  0  0
  1 26  1  0  0  0  0
  1 27  1  0  0  0  0
  2 24  1  0  0  0  0
  2  3  2  0  0  0  0
  3  4  1  0  0  0  0
  3 28  1  0  0  0  0
  4  5  2  0  0  0  0
  4 29  1  0  0  0  0
  5  6  1  0  0  0  0
  5  7  1  0  0  0  0
  6 30  1  0  0  0  0
  6 31  1  0  0  0  0
  6 32  1  0  0  0  0
  7  8  1  0  0  0  0
  7 24  2  0  0  0  0
  8  9  1  0  0  0  0
  9 10  1  0  0  0  0
  9 33  1  0  0  0  0
  9 34  1  0  0  0  0
 10 11  1  0  0  0  0
 10 12  1  0  0  0  0
 10 35  1  0  0  0  0
 11 36  1  0  0  0  0
 12 13  1  0  0  0  0
 12 37  1  0  0  0  0
 12 38  1  0  0  0  0
 13 23  1  0  0  0  0
 13 14  1  0  0  0  0
 14 15  1  0  0  0  0
 14 17  2  0  0  0  0
 15 16  1  0  0  0  0
 15 39  1  0  0  0  0
 15 40  1  0  0  0  0
 16 41  1  0  0  0  0
 17 18  1  0  0  0  0
 18 23  2  0  0  0  0
 18 19  1  0  0  0  0
 19 20  2  0  0  0  0
 19 42  1  0  0  0  0
 20 21  1  0  0  0  0
 20 43  1  0  0  0  0
 21 22  2  0  0  0  0
 21 44  1  0  0  0  0
 22 23  1  0  0  0  0
 22 45  1  0  0  0  0
 24 46  1  0  0  0  0
M  END
> <s_m_source_file>
AV-unprocessed.smi

> <i_m_source_file_index>
2190

> <i_lp_mmshare_version>
43012

> <i_f3d_flags>
0

> <s_epik_input>
W0NIM11jMVtjSF1bY0hdYyhbQ0gzXSljKFtjSF0xKU9bQ0gyXVtDQEhdKFtPSF0pW0NIMl1uKGMobjIpW0NIMl1bT0hdKWMoYzIzKVtjSF1bY0hdW2NIXVtjSF0z

> <s_epik_cmdline>
J2VwaWtfcHl0aG9uJywgJy1waCcsICc3LjAnLCAnLXRuJywgJzgnLCAnLW1hJywgJzIwMCcsICctbWV0YWxfYmluZGluZycsICctaW1hZScsICc8aW5maWxlLm1hZT4nLCAnLW9tYWUnLCAnPG91dGZpbGUubWFlPic=

> <r_lp_tautomer_probability>
1

> <r_epik_Ionization_Penalty>
0.0555874

> <r_epik_Ionization_Penalty_Charging>
0

> <r_epik_Ionization_Penalty_Neutral>
0.0555874

> <r_epik_State_Penalty>
0.0478234

> <r_epik_Charging_Adjusted_Penalty>
0.0478234

> <i_epik_Tot_Q>
0

> <i_epik_Tot_abs_Q>
0

> <r_epik_Metal_State_Penalty>
4.98044e-05

> <b_epik_Metal_Only>
0

> <s_lp_Force_Field>
OPLS_2005

> <r_lp_Energy>
17.5677

> <b_lp_Chiralities_Consistent>
1

> <s_lp_Variant>
AV-unprocessed.smi:2190-1

> <Gold.Version>
5.8.1

> <Gold.Id.Protein>
6NUR|6NUR_protein|mol2

> <Gold.PLP.Fitness>
52.6238

> <Gold.PLP.PLP>
-45.2984

> <Gold.PLP.part.hbond>
-5.1777

> <Gold.PLP.part.metal>
0.0000

> <Gold.PLP.part.buried>
-3.1511

> <Gold.PLP.part.nonpolar>
-36.8966

> <Gold.PLP.part.repulsive>
0.1071

> <Gold.PLP.ligand.clash>
0.0000

> <Gold.PLP.ligand.torsion>
0.4000

> <Gold.PLP.Chemscore.Hbond>
2.6905

> <Gold.PLP.Chemscore.CHOScore>
0.0000

> <Gold.PLP.Chemscore.Metal>
0.0000

> <Gold.Chemscore.Hbonds>
donor molecule, donor type, donor heavy atom, donor atom, acceptor molecule, acceptor atom, score
      L1  H    16    41       P1  7948  0.91
      P1  H  6931  6943       L1     8  0.80
      P1  H  6934  6947       L1     8  0.12
      P1  H  7989  7998       L1    17  0.58

> <Gold.PLP.Chemscore.Internal.Correction>
0.0538

> <Gold.Rescore>
     Score         DG    S(hbond)    S(metal)    S(lipo)     H(rot)  DE(clash)    DE(int)     intcor
     17.40     -18.32       1.70        0.00     125.96       2.96       0.49       0.43       ----

> <Gold.Chemscore.Fitness>
17.4017

> <Gold.Chemscore.DG>
-18.3226

> <Gold.Chemscore.ZeroCoef>
-5.4800

> <Gold.Chemscore.Hbond>
1.6983

> <Gold.Chemscore.Metal>
0.0000

> <Gold.Chemscore.Lipo>
125.9645

> <Gold.Chemscore.Internal_Hbond>
0.0000

> <Gold.Chemscore.DEClash>
0.4887

> <Gold.Chemscore.DEInternal>
0.4322

> <Gold.Chemscore.Rot>
2.9561

> <Gold.Chemscore.Internal.Correction>
   9.000000E+99

> <Gold.Chemscore.Hbonds>
donor molecule, donor type, donor heavy atom, donor atom, acceptor molecule, acceptor atom, score
      L1  H    16    41       P1  7948  0.49
      P1  H  6931  6943       L1     8  0.58
      P1  H  6934  6947       L1     8  0.12
      P1  H  7989  7998       L1    17  0.21

> <Gold.Chemscore.Hbond.Weighted>
-5.6724

> <Gold.Chemscore.Metal.Weighted>
-0.0000

> <Gold.Chemscore.Lipo.Weighted>
-14.7379

> <Gold.Chemscore.Internal_Hbond.Weighted>
0.0000

> <Gold.Chemscore.DEClash.Weighted>
0.4887

> <Gold.Chemscore.DEInternal.Weighted>
0.4322

> <Gold.Chemscore.Rot.Weighted>
7.5677

> <Gold.Chemscore.Internal.Correction.Weighted>
   9.000000E+99

> <Gold.Protein.RotatedTorsions>
[ 6907 6896 6895 6894 ] final   53.88 input  -60.11 | X-H torsion
[ 7974 7965 7964 7962 ] final  114.58 input  175.53 | X-H torsion
[ 8008 7997 7996 7995 ] final  -17.67 input   59.86 | X-H torsion
[ 10167 10162 10161 10158 ] final  -35.16 input  -65.29 | X-H torsion
[ 10718 10713 10712 10709 ] final  -70.05 input   66.30 | X-H torsion
[ 10763 10752 10751 10750 ] final   37.24 input  -60.55 | X-H torsion
[ 11005 11000 10999 10996 ] final  -53.68 input  -57.11 | X-H torsion

> <Gold.Protein.ActiveResidues>
 VAL166  LYS551  ARG553  GLY616  TRP617  ASP618  TYR619  PRO620  LYS621  CYS622 
 ASP623  PHE694  ASN695  SER759  ASP760  ASP761  ALA762  ILE779  LEU786  VAL792 
 PHE793  MET794  SER795  GLU796  ALA797  LYS798  CYS799  TRP800  GLU811  SER814 

> <Gold.Protein.RotatedAtoms>
  152.3382  134.7170  160.0270 H   0  0  0  0  0  0  0  0  0  0  0  0  # atno 6907 bound_to 6896
  151.7564  133.3325  159.3413 H   0  0  0  0  0  0  0  0  0  0  0  0  # atno 6908 bound_to 6896
  150.7463  134.6078  159.6115 H   0  0  0  0  0  0  0  0  0  0  0  0  # atno 6909 bound_to 6896
  145.2027  139.2944  143.4310 H   0  0  0  0  0  0  0  0  0  0  0  0  # atno 7974 bound_to 7965
  154.4961  140.2136  155.9444 H   0  0  0  0  0  0  0  0  0  0  0  0  # atno 8008 bound_to 7997
  156.1372  140.3186  155.8407 H   0  0  0  0  0  0  0  0  0  0  0  0  # atno 8009 bound_to 7997
  155.4187  140.0495  157.3018 H   0  0  0  0  0  0  0  0  0  0  0  0  # atno 8010 bound_to 7997
  140.7171  143.3496  151.2183 H   0  0  0  0  0  0  0  0  0  0  0  0  # atno 10167 bound_to 10162
  156.0426  130.4324  150.2238 H   0  0  0  0  0  0  0  0  0  0  0  0  # atno 10718 bound_to 10713
  153.0045  135.6283  154.2113 H   0  0  0  0  0  0  0  0  0  0  0  0  # atno 10763 bound_to 10752
  154.1856  135.2811  155.3040 H   0  0  0  0  0  0  0  0  0  0  0  0  # atno 10764 bound_to 10752
  154.5800  135.5650  153.7236 H   0  0  0  0  0  0  0  0  0  0  0  0  # atno 10765 bound_to 10752
  141.0988  133.6621  156.4209 H   0  0  0  0  0  0  0  0  0  0  0  0  # atno 11005 bound_to 11000
  146.3414  140.2277  142.8592 LP  0  0  0  0  0  0  0  0  0  0  0  0  # atno 17320 bound_to 7965
  144.9932  140.8566  143.5326 LP  0  0  0  0  0  0  0  0  0  0  0  0  # atno 17321 bound_to 7965
  139.7024  143.9511  152.2911 LP  0  0  0  0  0  0  0  0  0  0  0  0  # atno 17342 bound_to 10162
  139.9208  144.6800  150.8463 LP  0  0  0  0  0  0  0  0  0  0  0  0  # atno 17343 bound_to 10162
  157.0331  131.0013  151.3306 LP  0  0  0  0  0  0  0  0  0  0  0  0  # atno 17370 bound_to 10713
  157.5263  130.8030  149.7866 LP  0  0  0  0  0  0  0  0  0  0  0  0  # atno 17371 bound_to 10713
  140.5073  134.6428  157.5271 LP  0  0  0  0  0  0  0  0  0  0  0  0  # atno 17394 bound_to 11000
  139.9833  134.7102  155.9819 LP  0  0  0  0  0  0  0  0  0  0  0  0  # atno 17395 bound_to 11000

$$$$
