AV-unprocessed.smi:2440|AV-procd|sdf|9616|dock7
  -GOLD-   2272013253D 1   1.00000     0.00000
 Structure written by MMmdl.
 52 54  0  0  0  0  0  0  0  0  2 V2000
  147.8732  132.9911  151.8390 C   0  0  0  0  0  0  0  0  0  0  0  0
  146.5131  133.0660  151.1674 C   0  0  0  0  0  0  0  0  0  0  0  0
  145.9638  131.9168  150.5583 C   0  0  0  0  0  0  0  0  0  0  0  0
  144.7651  131.9007  149.9399 N   0  0  0  0  0  0  0  0  0  0  0  0
  144.0614  133.0507  149.9030 C   0  0  0  0  0  0  0  0  0  0  0  0
  144.5123  134.2547  150.4781 C   0  0  0  0  0  0  0  0  0  0  0  0
  145.7639  134.2673  151.1399 C   0  0  0  0  0  0  0  0  0  0  0  0
  146.3191  135.4373  151.7312 N   0  0  0  0  0  0  0  0  0  0  0  0
  145.6848  136.5420  152.1603 C   0  0  0  0  0  0  0  0  0  0  0  0
  144.4664  136.7155  152.1416 O   0  0  0  0  0  0  0  0  0  0  0  0
  146.5554  137.4423  152.6405 N   0  0  0  0  0  0  0  0  0  0  0  0
  146.2130  138.7504  153.1934 C   0  0  2  0  0  0  0  0  0  0  0  0
  147.3125  139.7701  152.8444 C   0  0  0  0  0  0  0  0  0  0  0  0
  147.0628  141.1160  153.5517 C   0  0  0  0  0  0  0  0  0  0  0  0
  146.9762  140.9551  155.0321 N   0  3  2  0  0  0  0  0  0  0  0  0
  148.2733  140.6432  155.7279 C   0  0  0  0  0  0  0  0  0  0  0  0
  148.1866  140.9051  157.2562 C   0  0  0  0  0  0  0  0  0  0  0  0
  149.5180  140.6595  157.9833 C   0  0  0  0  0  0  0  0  0  0  0  0
  150.6478  141.4988  157.3803 C   0  0  0  0  0  0  0  0  0  0  0  0
  150.7829  141.2063  155.8835 C   0  0  0  0  0  0  0  0  0  0  0  0
  149.4603  141.4548  155.1411 C   0  0  0  0  0  0  0  0  0  0  0  0
  145.8417  140.0406  155.3520 C   0  0  0  0  0  0  0  0  0  0  0  0
  146.0299  138.6478  154.7191 C   0  0  0  0  0  0  0  0  0  0  0  0
  148.2964  131.9886  151.7679 H   0  0  0  0  0  0  0  0  0  0  0  0
  147.7902  133.2474  152.8956 H   0  0  0  0  0  0  0  0  0  0  0  0
  148.5704  133.6849  151.3684 H   0  0  0  0  0  0  0  0  0  0  0  0
  146.5019  130.9803  150.5642 H   0  0  0  0  0  0  0  0  0  0  0  0
  143.1107  133.0139  149.3918 H   0  0  0  0  0  0  0  0  0  0  0  0
  143.9008  135.1392  150.3881 H   0  0  0  0  0  0  0  0  0  0  0  0
  147.3137  135.4028  151.8994 H   0  0  0  0  0  0  0  0  0  0  0  0
  147.5361  137.2031  152.6202 H   0  0  0  0  0  0  0  0  0  0  0  0
  145.2765  139.1132  152.7655 H   0  0  0  0  0  0  0  0  0  0  0  0
  148.2931  139.3805  153.1198 H   0  0  0  0  0  0  0  0  0  0  0  0
  147.3407  139.9245  151.7649 H   0  0  0  0  0  0  0  0  0  0  0  0
  147.8011  141.8584  153.2569 H   0  0  0  0  0  0  0  0  0  0  0  0
  146.1148  141.5255  153.2002 H   0  0  0  0  0  0  0  0  0  0  0  0
  148.4984  139.5860  155.5867 H   0  0  0  0  0  0  0  0  0  0  0  0
  147.8593  141.9300  157.4367 H   0  0  0  0  0  0  0  0  0  0  0  0
  147.4520  140.2539  157.7263 H   0  0  0  0  0  0  0  0  0  0  0  0
  149.4102  140.8926  159.0431 H   0  0  0  0  0  0  0  0  0  0  0  0
  149.7772  139.6016  157.9251 H   0  0  0  0  0  0  0  0  0  0  0  0
  150.4459  142.5595  157.5348 H   0  0  0  0  0  0  0  0  0  0  0  0
  151.5873  141.2829  157.8898 H   0  0  0  0  0  0  0  0  0  0  0  0
  151.5706  141.8272  155.4554 H   0  0  0  0  0  0  0  0  0  0  0  0
  151.0941  140.1707  155.7397 H   0  0  0  0  0  0  0  0  0  0  0  0
  149.6371  141.1940  154.0990 H   0  0  0  0  0  0  0  0  0  0  0  0
  149.2267  142.5203  155.1645 H   0  0  0  0  0  0  0  0  0  0  0  0
  145.6598  139.9628  156.4215 H   0  0  0  0  0  0  0  0  0  0  0  0
  144.9280  140.4849  154.9545 H   0  0  0  0  0  0  0  0  0  0  0  0
  145.1630  138.0249  154.9439 H   0  0  0  0  0  0  0  0  0  0  0  0
  146.8864  138.1461  155.1709 H   0  0  0  0  0  0  0  0  0  0  0  0
  146.7041  141.8610  155.3870 H   0  0  0  0  0  0  0  0  0  0  0  0
  1  2  1  0  0  0  0
  1 24  1  0  0  0  0
  1 25  1  0  0  0  0
  1 26  1  0  0  0  0
  2  7  1  0  0  0  0
  2  3  2  0  0  0  0
  3  4  1  0  0  0  0
  3 27  1  0  0  0  0
  4  5  2  0  0  0  0
  5  6  1  0  0  0  0
  5 28  1  0  0  0  0
  6  7  2  0  0  0  0
  6 29  1  0  0  0  0
  7  8  1  0  0  0  0
  8  9  1  0  0  0  0
  8 30  1  0  0  0  0
  9 10  2  0  0  0  0
  9 11  1  0  0  0  0
 11 12  1  0  0  0  0
 11 31  1  0  0  0  0
 12 23  1  0  0  0  0
 12 13  1  0  0  0  0
 12 32  1  0  0  0  0
 13 14  1  0  0  0  0
 13 33  1  0  0  0  0
 13 34  1  0  0  0  0
 14 15  1  0  0  0  0
 14 35  1  0  0  0  0
 14 36  1  0  0  0  0
 15 16  1  0  0  0  0
 15 22  1  0  0  0  0
 15 52  1  0  0  0  0
 16 21  1  0  0  0  0
 16 17  1  0  0  0  0
 16 37  1  0  0  0  0
 17 18  1  0  0  0  0
 17 38  1  0  0  0  0
 17 39  1  0  0  0  0
 18 19  1  0  0  0  0
 18 40  1  0  0  0  0
 18 41  1  0  0  0  0
 19 20  1  0  0  0  0
 19 42  1  0  0  0  0
 19 43  1  0  0  0  0
 20 21  1  0  0  0  0
 20 44  1  0  0  0  0
 20 45  1  0  0  0  0
 21 46  1  0  0  0  0
 21 47  1  0  0  0  0
 22 23  1  0  0  0  0
 22 48  1  0  0  0  0
 22 49  1  0  0  0  0
 23 50  1  0  0  0  0
 23 51  1  0  0  0  0
M  CHG  1  15   1
M  END
> <s_m_source_file>
AV-unprocessed.smi

> <i_m_source_file_index>
2440

> <i_lp_mmshare_version>
43012

> <i_f3d_flags>
0

> <s_epik_input>
W0NIM11jMVtjSF1uW2NIXVtjSF1jMVtOSF1DKD1PKVtOSF1bQ0hdMltDSDJdW0NIMl1OKFtDSDJdW0NIMl0yKVtDSF0zW0NIMl1bQ0gyXVtDSDJdW0NIMl1bQ0gyXTM=

> <s_epik_cmdline>
J2VwaWtfcHl0aG9uJywgJy1waCcsICc3LjAnLCAnLXRuJywgJzgnLCAnLW1hJywgJzIwMCcsICctbWV0YWxfYmluZGluZycsICctaW1hZScsICc8aW5maWxlLm1hZT4nLCAnLW9tYWUnLCAnPG91dGZpbGUubWFlPic=

> <r_epik_Ionization_Penalty>
0.180356

> <r_epik_Ionization_Penalty_Charging>
0.00171891

> <r_epik_Ionization_Penalty_Neutral>
0.178637

> <r_epik_State_Penalty>
0.173134

> <r_epik_Charging_Adjusted_Penalty>
0.174853

> <i_epik_Tot_Q>
1

> <i_epik_Tot_abs_Q>
1

> <r_epik_Metal_State_Penalty>
0.131816

> <b_epik_Metal_Only>
0

> <s_lp_Force_Field>
OPLS_2005

> <r_lp_Energy>
36.8114

> <b_lp_Chiralities_Consistent>
1

> <s_lp_Variant>
AV-unprocessed.smi:2440-2

> <Gold.Version>
5.8.1

> <Gold.Id.Protein>
6NUR|6NUR_protein|mol2

> <Gold.PLP.Fitness>
44.0563

> <Gold.PLP.PLP>
-34.2015

> <Gold.PLP.part.hbond>
-2.0841

> <Gold.PLP.part.metal>
0.0000

> <Gold.PLP.part.buried>
-1.4663

> <Gold.PLP.part.nonpolar>
-31.6297

> <Gold.PLP.part.repulsive>
1.0654

> <Gold.PLP.ligand.clash>
0.0000

> <Gold.PLP.ligand.torsion>
0.6777

> <Gold.PLP.Chemscore.Hbond>
1.9360

> <Gold.PLP.Chemscore.CHOScore>
1.7858

> <Gold.PLP.Chemscore.Metal>
0.0000

> <Gold.Chemscore.Hbonds>
donor molecule, donor type, donor heavy atom, donor atom, acceptor molecule, acceptor atom, score
      L1  H     8    30       P1  7948  0.99
      L1  H    11    31       P1  7948  0.99
      L1  C     3    27       P1 10747  0.86
      L1  C     5    28       P1 10186  0.99

> <Gold.PLP.Chemscore.Internal.Correction>
0.0449

> <Gold.Rescore>
     Score         DG    S(hbond)    S(metal)    S(lipo)     H(rot)  DE(clash)    DE(int)     intcor
     16.41     -20.45       1.92        0.00      98.66       1.17       2.35       1.70       ----

> <Gold.Chemscore.Fitness>
16.4087

> <Gold.Chemscore.DG>
-20.4522

> <Gold.Chemscore.ZeroCoef>
-5.4800

> <Gold.Chemscore.Hbond>
1.9246

> <Gold.Chemscore.Metal>
0.0000

> <Gold.Chemscore.Lipo>
98.6606

> <Gold.Chemscore.Internal_Hbond>
0.0000

> <Gold.Chemscore.DEClash>
2.3485

> <Gold.Chemscore.DEInternal>
1.6950

> <Gold.Chemscore.Rot>
1.1715

> <Gold.Chemscore.Internal.Correction>
   9.000000E+99

> <Gold.Chemscore.Hbonds>
donor molecule, donor type, donor heavy atom, donor atom, acceptor molecule, acceptor atom, score
      L1  H     8    30       P1  7948  0.94
      L1  H    11    31       P1  7948  0.93

> <Gold.Chemscore.Hbond.Weighted>
-6.4281

> <Gold.Chemscore.Metal.Weighted>
-0.0000

> <Gold.Chemscore.Lipo.Weighted>
-11.5433

> <Gold.Chemscore.Internal_Hbond.Weighted>
0.0000

> <Gold.Chemscore.DEClash.Weighted>
2.3485

> <Gold.Chemscore.DEInternal.Weighted>
1.6950

> <Gold.Chemscore.Rot.Weighted>
2.9991

> <Gold.Chemscore.Internal.Correction.Weighted>
   9.000000E+99

> <Gold.Protein.RotatedTorsions>
[ 6907 6896 6895 6894 ] final  -97.27 input  -60.11 | X-H torsion
[ 7974 7965 7964 7962 ] final   19.92 input  175.53 | X-H torsion
[ 8008 7997 7996 7995 ] final   24.05 input   59.86 | X-H torsion
[ 10167 10162 10161 10158 ] final -167.47 input  -65.29 | X-H torsion
[ 10718 10713 10712 10709 ] final  147.32 input   66.30 | X-H torsion
[ 10763 10752 10751 10750 ] final -137.60 input  -60.55 | X-H torsion
[ 11005 11000 10999 10996 ] final  -34.22 input  -57.11 | X-H torsion

> <Gold.Protein.ActiveResidues>
 VAL166  LYS551  ARG553  GLY616  TRP617  ASP618  TYR619  PRO620  LYS621  CYS622 
 ASP623  PHE694  ASN695  SER759  ASP760  ASP761  ALA762  ILE779  LEU786  VAL792 
 PHE793  MET794  SER795  GLU796  ALA797  LYS798  CYS799  TRP800  GLU811  SER814 

> <Gold.Protein.RotatedAtoms>
  150.7011  134.1375  159.4092 H   0  0  0  0  0  0  0  0  0  0  0  0  # atno 6907 bound_to 6896
  151.9360  135.0233  160.0542 H   0  0  0  0  0  0  0  0  0  0  0  0  # atno 6908 bound_to 6896
  152.2135  133.4894  159.5160 H   0  0  0  0  0  0  0  0  0  0  0  0  # atno 6909 bound_to 6896
  146.2131  139.8243  142.8673 H   0  0  0  0  0  0  0  0  0  0  0  0  # atno 7974 bound_to 7965
  154.9902  140.3113  155.4909 H   0  0  0  0  0  0  0  0  0  0  0  0  # atno 8008 bound_to 7997
  156.2941  140.2250  156.4947 H   0  0  0  0  0  0  0  0  0  0  0  0  # atno 8009 bound_to 7997
  154.7710  140.0452  157.1039 H   0  0  0  0  0  0  0  0  0  0  0  0  # atno 8010 bound_to 7997
  139.6047  144.0937  152.1780 H   0  0  0  0  0  0  0  0  0  0  0  0  # atno 10167 bound_to 10162
  157.3223  131.0906  151.1230 H   0  0  0  0  0  0  0  0  0  0  0  0  # atno 10718 bound_to 10713
  154.8658  135.3637  154.5250 H   0  0  0  0  0  0  0  0  0  0  0  0  # atno 10763 bound_to 10752
  153.5878  135.7016  153.5441 H   0  0  0  0  0  0  0  0  0  0  0  0  # atno 10764 bound_to 10752
  153.3400  135.4100  155.1526 H   0  0  0  0  0  0  0  0  0  0  0  0  # atno 10765 bound_to 10752
  140.9699  133.7115  156.1506 H   0  0  0  0  0  0  0  0  0  0  0  0  # atno 11005 bound_to 11000
  145.3063  141.0208  143.3580 LP  0  0  0  0  0  0  0  0  0  0  0  0  # atno 17320 bound_to 7965
  144.8968  139.4701  143.6651 LP  0  0  0  0  0  0  0  0  0  0  0  0  # atno 17321 bound_to 7965
  140.0542  144.5909  150.7313 LP  0  0  0  0  0  0  0  0  0  0  0  0  # atno 17342 bound_to 10162
  140.7276  143.2653  151.4066 LP  0  0  0  0  0  0  0  0  0  0  0  0  # atno 17343 bound_to 10162
  157.2510  130.6614  149.5931 LP  0  0  0  0  0  0  0  0  0  0  0  0  # atno 17370 bound_to 10713
  155.9687  130.4538  150.5827 LP  0  0  0  0  0  0  0  0  0  0  0  0  # atno 17371 bound_to 10713
  140.7344  134.4219  157.5562 LP  0  0  0  0  0  0  0  0  0  0  0  0  # atno 17394 bound_to 11000
  139.8908  134.8795  156.2350 LP  0  0  0  0  0  0  0  0  0  0  0  0  # atno 17395 bound_to 11000

$$$$
