AV-unprocessed.smi:20|AV-procd|sdf|117|dock2
  -GOLD-   2262015283D 1   1.00000     0.00000
 Structure written by MMmdl.
 57 61  0  0  0  0  0  0  0  0  1 V2000
  143.2045  136.8823  152.6211 O   0  0  0  0  0  0  0  0  0  0  0  0
  144.0239  136.1949  152.0162 C   0  0  0  0  0  0  0  0  0  0  0  0
  144.3267  134.7460  152.3578 C   0  0  0  0  0  0  0  0  0  0  0  0
  145.1037  134.2395  151.1184 C   0  0  2  0  0  0  0  0  0  0  0  0
  144.1627  133.5492  150.0947 C   0  0  0  0  0  0  0  0  0  0  0  0
  143.6932  132.1662  150.5791 C   0  0  0  0  0  0  0  0  0  0  0  0
  144.8859  131.2847  150.9752 C   0  0  0  0  0  0  0  0  0  0  0  0
  145.7422  131.9748  151.9373 N   0  0  0  0  0  0  0  0  0  0  0  0
  146.5930  131.1648  152.6169 C   0  0  0  0  0  0  0  0  0  0  0  0
  146.2922  129.8484  152.7815 N   0  0  0  0  0  0  0  0  0  0  0  0
  147.1206  129.0454  153.4556 C   0  0  0  0  0  0  0  0  0  0  0  0
  148.2842  129.3441  154.0361 N   0  0  0  0  0  0  0  0  0  0  0  0
  148.5936  130.6616  153.8704 C   0  0  0  0  0  0  0  0  0  0  0  0
  147.8132  131.6325  153.1815 C   0  0  0  0  0  0  0  0  0  0  0  0
  148.4590  132.8635  153.2096 N   0  0  0  0  0  0  0  0  0  0  0  0
  149.5534  132.6350  153.8835 C   0  0  0  0  0  0  0  0  0  0  0  0
  149.7110  131.3397  154.3227 N   0  0  0  0  0  0  0  0  0  0  0  0
  150.8253  130.8029  155.0833 C   0  0  0  0  0  0  0  0  0  0  0  0
  151.5283  129.5968  154.4051 C   0  0  2  0  0  0  0  0  0  0  0  0
  150.7513  128.2716  154.6132 C   0  0  0  0  0  0  0  0  0  0  0  0
  151.4259  127.1676  154.0458 O   0  0  0  0  0  0  0  0  0  0  0  0
  152.9903  129.4672  154.9072 C   0  0  1  0  0  0  0  0  0  0  0  0
  153.9949  129.0166  153.8479 C   0  0  0  0  0  0  0  0  0  0  0  0
  155.2997  129.7313  154.2133 C   0  0  0  0  0  0  0  0  0  0  0  0
  155.0143  130.4763  155.3877 O   0  0  0  0  0  0  0  0  0  0  0  0
  153.6294  130.7732  155.3853 C   0  0  0  0  0  0  0  0  0  0  0  0
  146.2511  133.2730  151.4904 C   0  0  0  0  0  0  0  0  0  0  0  0
  145.6595  135.5497  150.5113 C   0  0  0  0  0  0  0  0  0  0  0  0
  144.7676  136.5897  150.9858 N   0  0  0  0  0  0  0  0  0  0  0  0
  144.9425  134.7247  153.2576 H   0  0  0  0  0  0  0  0  0  0  0  0
  143.4128  134.1888  152.5613 H   0  0  0  0  0  0  0  0  0  0  0  0
  143.2995  134.1790  149.8754 H   0  0  0  0  0  0  0  0  0  0  0  0
  144.6903  133.4184  149.1488 H   0  0  0  0  0  0  0  0  0  0  0  0
  143.0198  132.2705  151.4297 H   0  0  0  0  0  0  0  0  0  0  0  0
  143.1158  131.6754  149.7954 H   0  0  0  0  0  0  0  0  0  0  0  0
  144.5198  130.3376  151.3699 H   0  0  0  0  0  0  0  0  0  0  0  0
  145.4783  131.0455  150.0911 H   0  0  0  0  0  0  0  0  0  0  0  0
  146.8058  128.0160  153.5426 H   0  0  0  0  0  0  0  0  0  0  0  0
  150.2780  133.4107  154.0840 H   0  0  0  0  0  0  0  0  0  0  0  0
  151.5267  131.6229  155.2349 H   0  0  0  0  0  0  0  0  0  0  0  0
  150.4658  130.5196  156.0733 H   0  0  0  0  0  0  0  0  0  0  0  0
  151.5770  129.7927  153.3328 H   0  0  0  0  0  0  0  0  0  0  0  0
  150.6320  128.0436  155.6715 H   0  0  0  0  0  0  0  0  0  0  0  0
  149.7471  128.3416  154.1943 H   0  0  0  0  0  0  0  0  0  0  0  0
  151.7131  127.4042  153.1770 H   0  0  0  0  0  0  0  0  0  0  0  0
  153.0251  128.7558  155.7342 H   0  0  0  0  0  0  0  0  0  0  0  0
  154.1155  127.9328  153.8446 H   0  0  0  0  0  0  0  0  0  0  0  0
  153.6798  129.3188  152.8482 H   0  0  0  0  0  0  0  0  0  0  0  0
  156.1180  129.0341  154.3947 H   0  0  0  0  0  0  0  0  0  0  0  0
  155.6026  130.4105  153.4157 H   0  0  0  0  0  0  0  0  0  0  0  0
  153.4303  131.5922  154.6917 H   0  0  0  0  0  0  0  0  0  0  0  0
  153.2978  131.0718  156.3800 H   0  0  0  0  0  0  0  0  0  0  0  0
  146.8960  133.1160  150.6244 H   0  0  0  0  0  0  0  0  0  0  0  0
  146.8710  133.7214  152.2686 H   0  0  0  0  0  0  0  0  0  0  0  0
  146.6632  135.7677  150.8796 H   0  0  0  0  0  0  0  0  0  0  0  0
  145.7026  135.5333  149.4219 H   0  0  0  0  0  0  0  0  0  0  0  0
  144.7387  137.5146  150.5816 H   0  0  0  0  0  0  0  0  0  0  0  0
  1  2  2  0  0  0  0
  2 29  1  0  0  0  0
  2  3  1  0  0  0  0
  3  4  1  0  0  0  0
  3 30  1  0  0  0  0
  3 31  1  0  0  0  0
  4 27  1  0  0  0  0
  4  5  1  0  0  0  0
  4 28  1  0  0  0  0
  5  6  1  0  0  0  0
  5 32  1  0  0  0  0
  5 33  1  0  0  0  0
  6  7  1  0  0  0  0
  6 34  1  0  0  0  0
  6 35  1  0  0  0  0
  7  8  1  0  0  0  0
  7 36  1  0  0  0  0
  7 37  1  0  0  0  0
  8  9  1  0  0  0  0
  8 27  1  0  0  0  0
  9 14  1  0  0  0  0
  9 10  2  0  0  0  0
 10 11  1  0  0  0  0
 11 12  2  0  0  0  0
 11 38  1  0  0  0  0
 12 13  1  0  0  0  0
 13 17  1  0  0  0  0
 13 14  2  0  0  0  0
 14 15  1  0  0  0  0
 15 16  2  0  0  0  0
 16 17  1  0  0  0  0
 16 39  1  0  0  0  0
 17 18  1  0  0  0  0
 18 19  1  0  0  0  0
 18 40  1  0  0  0  0
 18 41  1  0  0  0  0
 19 20  1  0  0  0  0
 19 22  1  0  0  0  0
 19 42  1  0  0  0  0
 20 21  1  0  0  0  0
 20 43  1  0  0  0  0
 20 44  1  0  0  0  0
 21 45  1  0  0  0  0
 22 26  1  0  0  0  0
 22 23  1  0  0  0  0
 22 46  1  0  0  0  0
 23 24  1  0  0  0  0
 23 47  1  0  0  0  0
 23 48  1  0  0  0  0
 24 25  1  0  0  0  0
 24 49  1  0  0  0  0
 24 50  1  0  0  0  0
 25 26  1  0  0  0  0
 26 51  1  0  0  0  0
 26 52  1  0  0  0  0
 27 53  1  0  0  0  0
 27 54  1  0  0  0  0
 28 29  1  0  0  0  0
 28 55  1  0  0  0  0
 28 56  1  0  0  0  0
 29 57  1  0  0  0  0
M  END
> <s_m_source_file>
AV-unprocessed.smi

> <i_m_source_file_index>
20

> <i_lp_mmshare_version>
43012

> <i_f3d_flags>
0

> <s_epik_input>
W0NIMl0xW05IXUMoPU8pW0NIMl1bQ0BAXTEyW0NIMl1bQ0gyXVtDSDJdTihbQ0gyXTIpYyhuW2NIXW4zKWMoYzM0KW5bY0hdbjRbQ0gyXVtDQEhdKFtDSDJdW09IXSlbQ0BASF01W0NIMl1bQ0gyXU9bQ0gyXTU=

> <s_epik_cmdline>
J2VwaWtfcHl0aG9uJywgJy1waCcsICc3LjAnLCAnLXRuJywgJzgnLCAnLW1hJywgJzIwMCcsICctbWV0YWxfYmluZGluZycsICctaW1hZScsICc8aW5maWxlLm1hZT4nLCAnLW9tYWUnLCAnPG91dGZpbGUubWFlPic=

> <r_lp_tautomer_probability>
1

> <r_epik_Ionization_Penalty>
0.0019697

> <r_epik_Ionization_Penalty_Charging>
0

> <r_epik_Ionization_Penalty_Neutral>
0.0019697

> <r_epik_State_Penalty>
0.00113613

> <r_epik_Charging_Adjusted_Penalty>
0.00113613

> <i_epik_Tot_Q>
0

> <i_epik_Tot_abs_Q>
0

> <r_epik_Metal_State_Penalty>
-0

> <b_epik_Metal_Only>
0

> <s_lp_Force_Field>
OPLS_2005

> <r_lp_Energy>
58.6133

> <b_lp_Chiralities_Consistent>
1

> <s_lp_Variant>
AV-unprocessed.smi:20-5

> <Gold.Version>
5.8.1

> <Gold.Id.Protein>
6NUR|6NUR_protein|mol2

> <Gold.PLP.Fitness>
54.1677

> <Gold.PLP.PLP>
-51.1001

> <Gold.PLP.part.hbond>
-1.7105

> <Gold.PLP.part.metal>
0.0000

> <Gold.PLP.part.buried>
-9.7349

> <Gold.PLP.part.nonpolar>
-41.4980

> <Gold.PLP.part.repulsive>
0.7308

> <Gold.PLP.ligand.clash>
0.0000

> <Gold.PLP.ligand.torsion>
1.6329

> <Gold.PLP.Chemscore.Hbond>
1.9440

> <Gold.PLP.Chemscore.CHOScore>
0.0000

> <Gold.PLP.Chemscore.Metal>
0.0000

> <Gold.Chemscore.Hbonds>
donor molecule, donor type, donor heavy atom, donor atom, acceptor molecule, acceptor atom, score
      L1  H    21    45       P1 10737  0.96
      L1  H    29    57       P1 10171  0.93

> <Gold.PLP.Chemscore.Internal.Correction>
0.5013

> <Gold.Rescore>
     Score         DG    S(hbond)    S(metal)    S(lipo)     H(rot)  DE(clash)    DE(int)     intcor
     11.36     -16.06       1.94        0.00      94.95       2.74       0.06       4.64       ----

> <Gold.Chemscore.Fitness>
11.3639

> <Gold.Chemscore.DG>
-16.0604

> <Gold.Chemscore.ZeroCoef>
-5.4800

> <Gold.Chemscore.Hbond>
1.9429

> <Gold.Chemscore.Metal>
0.0000

> <Gold.Chemscore.Lipo>
94.9511

> <Gold.Chemscore.Internal_Hbond>
0.0000

> <Gold.Chemscore.DEClash>
0.0580

> <Gold.Chemscore.DEInternal>
4.6384

> <Gold.Chemscore.Rot>
2.7415

> <Gold.Chemscore.Internal.Correction>
   9.000000E+99

> <Gold.Chemscore.Hbonds>
donor molecule, donor type, donor heavy atom, donor atom, acceptor molecule, acceptor atom, score
      L1  H    21    45       P1 10737  0.91
      L1  H    29    57       P1 10171  0.87

> <Gold.Chemscore.Hbond.Weighted>
-6.4893

> <Gold.Chemscore.Metal.Weighted>
-0.0000

> <Gold.Chemscore.Lipo.Weighted>
-11.1093

> <Gold.Chemscore.Internal_Hbond.Weighted>
0.0000

> <Gold.Chemscore.DEClash.Weighted>
0.0580

> <Gold.Chemscore.DEInternal.Weighted>
4.6384

> <Gold.Chemscore.Rot.Weighted>
7.0182

> <Gold.Chemscore.Internal.Correction.Weighted>
   9.000000E+99

> <Gold.Protein.RotatedTorsions>
[ 6907 6896 6895 6894 ] final    7.74 input  -60.11 | X-H torsion
[ 7974 7965 7964 7962 ] final   70.53 input  175.53 | X-H torsion
[ 8008 7997 7996 7995 ] final  144.26 input   59.86 | X-H torsion
[ 10167 10162 10161 10158 ] final   67.20 input  -65.29 | X-H torsion
[ 10718 10713 10712 10709 ] final    0.04 input   66.30 | X-H torsion
[ 10763 10752 10751 10750 ] final  -76.68 input  -60.55 | X-H torsion
[ 11005 11000 10999 10996 ] final  109.92 input  -57.11 | X-H torsion

> <Gold.Protein.ActiveResidues>
 VAL166  LYS551  ARG553  GLY616  TRP617  ASP618  TYR619  PRO620  LYS621  CYS622 
 ASP623  PHE694  ASN695  SER759  ASP760  ASP761  ALA762  ILE779  LEU786  VAL792 
 PHE793  MET794  SER795  GLU796  ALA797  LYS798  CYS799  TRP800  GLU811  SER814 

> <Gold.Protein.RotatedAtoms>
  151.6947  135.0940  160.0239 H   0  0  0  0  0  0  0  0  0  0  0  0  # atno 6907 bound_to 6896
  152.3757  133.6473  159.6130 H   0  0  0  0  0  0  0  0  0  0  0  0  # atno 6908 bound_to 6896
  150.7707  133.9114  159.3412 H   0  0  0  0  0  0  0  0  0  0  0  0  # atno 6909 bound_to 6896
  145.7771  139.2870  143.1287 H   0  0  0  0  0  0  0  0  0  0  0  0  # atno 7974 bound_to 7965
  156.2912  140.2240  156.5024 H   0  0  0  0  0  0  0  0  0  0  0  0  # atno 8008 bound_to 7997
  154.7678  140.0468  157.1048 H   0  0  0  0  0  0  0  0  0  0  0  0  # atno 8009 bound_to 7997
  154.9911  140.3090  155.4909 H   0  0  0  0  0  0  0  0  0  0  0  0  # atno 8010 bound_to 7997
  140.0921  144.4979  150.7092 H   0  0  0  0  0  0  0  0  0  0  0  0  # atno 10167 bound_to 10162
  156.8275  130.5477  149.5690 H   0  0  0  0  0  0  0  0  0  0  0  0  # atno 10718 bound_to 10713
  154.5031  135.5789  153.6546 H   0  0  0  0  0  0  0  0  0  0  0  0  # atno 10763 bound_to 10752
  152.9882  135.6140  154.2977 H   0  0  0  0  0  0  0  0  0  0  0  0  # atno 10764 bound_to 10752
  154.2886  135.2849  155.2644 H   0  0  0  0  0  0  0  0  0  0  0  0  # atno 10765 bound_to 10752
  139.8871  134.9471  156.6199 H   0  0  0  0  0  0  0  0  0  0  0  0  # atno 11005 bound_to 11000
  146.0112  140.8434  142.9970 LP  0  0  0  0  0  0  0  0  0  0  0  0  # atno 17320 bound_to 7965
  144.6802  140.2492  143.7334 LP  0  0  0  0  0  0  0  0  0  0  0  0  # atno 17321 bound_to 7965
  140.7023  143.2443  151.4828 LP  0  0  0  0  0  0  0  0  0  0  0  0  # atno 17342 bound_to 10162
  139.5719  144.1909  152.1848 LP  0  0  0  0  0  0  0  0  0  0  0  0  # atno 17343 bound_to 10162
  156.0953  130.5927  150.9803 LP  0  0  0  0  0  0  0  0  0  0  0  0  # atno 17370 bound_to 10713
  157.6424  131.0908  150.8223 LP  0  0  0  0  0  0  0  0  0  0  0  0  # atno 17371 bound_to 10713
  140.7747  133.8709  155.8519 LP  0  0  0  0  0  0  0  0  0  0  0  0  # atno 17394 bound_to 11000
  140.9812  134.1403  157.4493 LP  0  0  0  0  0  0  0  0  0  0  0  0  # atno 17395 bound_to 11000

$$$$
