AV-unprocessed.smi:2268|AV-procd|sdf|9150|dock1
  -GOLD-   2272012353D 1   1.00000     0.00000
 Structure written by MMmdl.
 37 38  0  0  0  0  0  0  0  0  1 V2000
  152.9378  140.5828  159.0769 C   0  0  0  0  0  0  0  0  0  0  0  0
  152.5585  141.8486  159.8260 C   0  0  0  0  0  0  0  0  0  0  0  0
  152.9823  141.9909  161.1653 C   0  0  0  0  0  0  0  0  0  0  0  0
  152.6440  143.1378  161.9060 C   0  0  0  0  0  0  0  0  0  0  0  0
  153.0563  143.2622  163.1897 F   0  0  0  0  0  0  0  0  0  0  0  0
  151.8739  144.1524  161.3122 C   0  0  0  0  0  0  0  0  0  0  0  0
  151.4481  144.0200  159.9778 C   0  0  0  0  0  0  0  0  0  0  0  0
  151.7892  142.8768  159.2177 C   0  0  0  0  0  0  0  0  0  0  0  0
  151.3020  142.7727  157.7722 C   0  0  2  0  0  0  0  0  0  0  0  0
  151.4040  144.0144  157.1011 O   0  0  0  0  0  0  0  0  0  0  0  0
  149.8304  142.3039  157.7204 C   0  0  0  0  0  0  0  0  0  0  0  0
  149.5494  141.4542  156.5496 N   0  0  0  0  0  0  0  0  0  0  0  0
  148.3745  141.7465  155.8371 C   0  0  0  0  0  0  0  0  0  0  0  0
  148.0276  141.0705  154.7910 N   0  0  0  0  0  0  0  0  0  0  0  0
  148.8326  140.0202  154.3413 C   0  0  0  0  0  0  0  0  0  0  0  0
  148.3351  139.2960  153.1028 C   0  0  0  0  0  0  0  0  0  0  0  0
  149.9841  139.6864  154.9854 C   0  0  0  0  0  0  0  0  0  0  0  0
  150.9014  138.5539  154.5410 C   0  0  0  0  0  0  0  0  0  0  0  0
  150.3907  140.4459  156.1787 C   0  0  0  0  0  0  0  0  0  0  0  0
  151.4212  140.1985  156.8073 O   0  0  0  0  0  0  0  0  0  0  0  0
  153.4585  139.8771  159.7248 H   0  0  0  0  0  0  0  0  0  0  0  0
  153.5972  140.8139  158.2402 H   0  0  0  0  0  0  0  0  0  0  0  0
  152.0476  140.0835  158.6954 H   0  0  0  0  0  0  0  0  0  0  0  0
  153.5698  141.2156  161.6352 H   0  0  0  0  0  0  0  0  0  0  0  0
  151.6083  145.0321  161.8796 H   0  0  0  0  0  0  0  0  0  0  0  0
  150.8516  144.8068  159.5394 H   0  0  0  0  0  0  0  0  0  0  0  0
  151.9334  142.0789  157.2198 H   0  0  0  0  0  0  0  0  0  0  0  0
  150.5510  144.2427  156.7644 H   0  0  0  0  0  0  0  0  0  0  0  0
  149.6078  141.7270  158.6202 H   0  0  0  0  0  0  0  0  0  0  0  0
  149.1565  143.1614  157.7776 H   0  0  0  0  0  0  0  0  0  0  0  0
  147.7848  142.5794  156.2241 H   0  0  0  0  0  0  0  0  0  0  0  0
  148.1580  138.2426  153.3208 H   0  0  0  0  0  0  0  0  0  0  0  0
  149.0674  139.3681  152.2984 H   0  0  0  0  0  0  0  0  0  0  0  0
  147.3997  139.7245  152.7410 H   0  0  0  0  0  0  0  0  0  0  0  0
  151.8945  138.9423  154.3132 H   0  0  0  0  0  0  0  0  0  0  0  0
  150.5424  138.0325  153.6553 H   0  0  0  0  0  0  0  0  0  0  0  0
  151.0013  137.8162  155.3379 H   0  0  0  0  0  0  0  0  0  0  0  0
  1  2  1  0  0  0  0
  1 21  1  0  0  0  0
  1 22  1  0  0  0  0
  1 23  1  0  0  0  0
  2  8  1  0  0  0  0
  2  3  2  0  0  0  0
  3  4  1  0  0  0  0
  3 24  1  0  0  0  0
  4  5  1  0  0  0  0
  4  6  2  0  0  0  0
  6  7  1  0  0  0  0
  6 25  1  0  0  0  0
  7  8  2  0  0  0  0
  7 26  1  0  0  0  0
  8  9  1  0  0  0  0
  9 10  1  0  0  0  0
  9 11  1  0  0  0  0
  9 27  1  0  0  0  0
 10 28  1  0  0  0  0
 11 12  1  0  0  0  0
 11 29  1  0  0  0  0
 11 30  1  0  0  0  0
 12 19  1  0  0  0  0
 12 13  1  0  0  0  0
 13 14  2  0  0  0  0
 13 31  1  0  0  0  0
 14 15  1  0  0  0  0
 15 16  1  0  0  0  0
 15 17  2  0  0  0  0
 16 32  1  0  0  0  0
 16 33  1  0  0  0  0
 16 34  1  0  0  0  0
 17 18  1  0  0  0  0
 17 19  1  0  0  0  0
 18 35  1  0  0  0  0
 18 36  1  0  0  0  0
 18 37  1  0  0  0  0
 19 20  2  0  0  0  0
M  END
> <s_m_source_file>
AV-unprocessed.smi

> <i_m_source_file_index>
2268

> <i_lp_mmshare_version>
43012

> <i_f3d_flags>
0

> <s_epik_input>
W0NIM11jMVtjSF1jKEYpW2NIXVtjSF1jMVtDQEhdKFtPSF0pW0NIMl1uMltjSF1uYyhbQ0gzXSljKFtDSDNdKWMyPU8=

> <s_epik_cmdline>
J2VwaWtfcHl0aG9uJywgJy1waCcsICc3LjAnLCAnLXRuJywgJzgnLCAnLW1hJywgJzIwMCcsICctbWV0YWxfYmluZGluZycsICctaW1hZScsICc8aW5maWxlLm1hZT4nLCAnLW9tYWUnLCAnPG91dGZpbGUubWFlPic=

> <r_lp_tautomer_probability>
1

> <r_epik_Ionization_Penalty>
5.07449e-05

> <r_epik_Ionization_Penalty_Charging>
7.56727e-08

> <r_epik_Ionization_Penalty_Neutral>
5.06692e-05

> <r_epik_State_Penalty>
-0

> <r_epik_Charging_Adjusted_Penalty>
7.56727e-08

> <i_epik_Tot_Q>
0

> <i_epik_Tot_abs_Q>
0

> <r_epik_Metal_State_Penalty>
-0

> <b_epik_Metal_Only>
0

> <s_lp_Force_Field>
OPLS_2005

> <r_lp_Energy>
19.9067

> <b_lp_Chiralities_Consistent>
1

> <s_lp_Variant>
AV-unprocessed.smi:2268-1

> <Gold.Version>
5.8.1

> <Gold.Id.Protein>
6NUR|6NUR_protein|mol2

> <Gold.PLP.Fitness>
45.8028

> <Gold.PLP.PLP>
-43.4436

> <Gold.PLP.part.hbond>
-1.0000

> <Gold.PLP.part.metal>
0.0000

> <Gold.PLP.part.buried>
-0.4409

> <Gold.PLP.part.nonpolar>
-42.0892

> <Gold.PLP.part.repulsive>
0.1057

> <Gold.PLP.ligand.clash>
0.0000

> <Gold.PLP.ligand.torsion>
1.1739

> <Gold.PLP.Chemscore.Hbond>
1.0000

> <Gold.PLP.Chemscore.CHOScore>
0.5569

> <Gold.PLP.Chemscore.Metal>
0.0000

> <Gold.Chemscore.Hbonds>
donor molecule, donor type, donor heavy atom, donor atom, acceptor molecule, acceptor atom, score
      L1  H    10    28       P1  8028  1.00
      L1  C    13    31       P1  8028  0.62

> <Gold.PLP.Chemscore.Internal.Correction>
0.0364

> <Gold.Rescore>
     Score         DG    S(hbond)    S(metal)    S(lipo)     H(rot)  DE(clash)    DE(int)     intcor
     12.11     -17.39       0.98        0.00     117.08       1.98       2.03       3.25       ----

> <Gold.Chemscore.Fitness>
12.1118

> <Gold.Chemscore.DG>
-17.3906

> <Gold.Chemscore.ZeroCoef>
-5.4800

> <Gold.Chemscore.Hbond>
0.9841

> <Gold.Chemscore.Metal>
0.0000

> <Gold.Chemscore.Lipo>
117.0816

> <Gold.Chemscore.Internal_Hbond>
0.0000

> <Gold.Chemscore.DEClash>
2.0319

> <Gold.Chemscore.DEInternal>
3.2470

> <Gold.Chemscore.Rot>
1.9823

> <Gold.Chemscore.Internal.Correction>
   9.000000E+99

> <Gold.Chemscore.Hbonds>
donor molecule, donor type, donor heavy atom, donor atom, acceptor molecule, acceptor atom, score
      L1  H    10    28       P1  8028  0.92

> <Gold.Chemscore.Hbond.Weighted>
-3.2868

> <Gold.Chemscore.Metal.Weighted>
-0.0000

> <Gold.Chemscore.Lipo.Weighted>
-13.6985

> <Gold.Chemscore.Internal_Hbond.Weighted>
0.0000

> <Gold.Chemscore.DEClash.Weighted>
2.0319

> <Gold.Chemscore.DEInternal.Weighted>
3.2470

> <Gold.Chemscore.Rot.Weighted>
5.0748

> <Gold.Chemscore.Internal.Correction.Weighted>
   9.000000E+99

> <Gold.Protein.RotatedTorsions>
[ 6907 6896 6895 6894 ] final   98.76 input  -60.11 | X-H torsion
[ 7974 7965 7964 7962 ] final   16.50 input  175.53 | X-H torsion
[ 8008 7997 7996 7995 ] final  -17.30 input   59.86 | X-H torsion
[ 10167 10162 10161 10158 ] final   -8.16 input  -65.29 | X-H torsion
[ 10718 10713 10712 10709 ] final -118.99 input   66.30 | X-H torsion
[ 10763 10752 10751 10750 ] final    6.74 input  -60.55 | X-H torsion
[ 11005 11000 10999 10996 ] final  -91.73 input  -57.11 | X-H torsion

> <Gold.Protein.ActiveResidues>
 VAL166  LYS551  ARG553  GLY616  TRP617  ASP618  TYR619  PRO620  LYS621  CYS622 
 ASP623  PHE694  ASN695  SER759  ASP760  ASP761  ALA762  ILE779  LEU786  VAL792 
 PHE793  MET794  SER795  GLU796  ALA797  LYS798  CYS799  TRP800  GLU811  SER814 

> <Gold.Protein.RotatedAtoms>
  152.5404  134.0532  159.8118 H   0  0  0  0  0  0  0  0  0  0  0  0  # atno 6907 bound_to 6896
  151.0670  133.5489  159.2637 H   0  0  0  0  0  0  0  0  0  0  0  0  # atno 6908 bound_to 6896
  151.2366  135.0582  159.9062 H   0  0  0  0  0  0  0  0  0  0  0  0  # atno 6909 bound_to 6896
  146.2247  139.8738  142.8582 H   0  0  0  0  0  0  0  0  0  0  0  0  # atno 7974 bound_to 7965
  154.4988  140.2146  155.9390 H   0  0  0  0  0  0  0  0  0  0  0  0  # atno 8008 bound_to 7997
  156.1406  140.3180  155.8458 H   0  0  0  0  0  0  0  0  0  0  0  0  # atno 8009 bound_to 7997
  155.4126  140.0491  157.3021 H   0  0  0  0  0  0  0  0  0  0  0  0  # atno 8010 bound_to 7997
  140.7051  143.6000  150.8807 H   0  0  0  0  0  0  0  0  0  0  0  0  # atno 10167 bound_to 10162
  156.1148  130.6277  150.9361 H   0  0  0  0  0  0  0  0  0  0  0  0  # atno 10718 bound_to 10713
  153.2442  135.6907  153.7749 H   0  0  0  0  0  0  0  0  0  0  0  0  # atno 10763 bound_to 10752
  153.6868  135.3319  155.3193 H   0  0  0  0  0  0  0  0  0  0  0  0  # atno 10764 bound_to 10752
  154.8368  135.4535  154.1375 H   0  0  0  0  0  0  0  0  0  0  0  0  # atno 10765 bound_to 10752
  141.1538  133.7774  156.9920 H   0  0  0  0  0  0  0  0  0  0  0  0  # atno 11005 bound_to 11000
  145.2581  141.0067  143.3842 LP  0  0  0  0  0  0  0  0  0  0  0  0  # atno 17320 bound_to 7965
  144.9320  139.4287  143.6490 LP  0  0  0  0  0  0  0  0  0  0  0  0  # atno 17321 bound_to 7965
  139.9724  143.6041  152.2969 LP  0  0  0  0  0  0  0  0  0  0  0  0  # atno 17342 bound_to 10162
  139.6633  144.7662  151.1921 LP  0  0  0  0  0  0  0  0  0  0  0  0  # atno 17343 bound_to 10162
  157.6330  131.0919  150.8403 LP  0  0  0  0  0  0  0  0  0  0  0  0  # atno 17370 bound_to 10713
  156.8508  130.5080  149.5312 LP  0  0  0  0  0  0  0  0  0  0  0  0  # atno 17371 bound_to 10713
  140.0996  134.9543  157.1903 LP  0  0  0  0  0  0  0  0  0  0  0  0  # atno 17394 bound_to 11000
  140.3336  134.2783  155.7224 LP  0  0  0  0  0  0  0  0  0  0  0  0  # atno 17395 bound_to 11000

$$$$
