AV-unprocessed.smi:2800|AV-procd|sdf|10794|dock3
  -GOLD-   2272015223D 1   1.00000     0.00000
 Structure written by MMmdl.
 51 52  0  0  0  0  0  0  0  0  1 V2000
  151.1229  137.8780  154.2802 C   0  0  0  0  0  0  0  0  0  0  0  0
  150.4381  139.1350  154.7878 C   0  0  0  0  0  0  0  0  0  0  0  0
  151.1733  139.8943  155.6287 N   0  0  0  0  0  0  0  0  0  0  0  0
  150.6417  141.0358  156.1245 C   0  0  0  0  0  0  0  0  0  0  0  0
  151.4372  141.7873  157.0113 N   0  0  0  0  0  0  0  0  0  0  0  0
  151.1513  143.1799  157.3179 C   0  0  0  0  0  0  0  0  0  0  0  0
  152.1907  143.5620  158.3708 C   0  0  0  0  0  0  0  0  0  0  0  0
  152.4099  142.2545  159.1325 C   0  0  0  0  0  0  0  0  0  0  0  0
  152.2182  141.1652  158.0706 C   0  0  0  0  0  0  0  0  0  0  0  0
  149.3366  141.4570  155.7812 C   0  0  0  0  0  0  0  0  0  0  0  0
  148.5685  140.6654  154.9069 C   0  0  0  0  0  0  0  0  0  0  0  0
  149.1172  139.4634  154.4017 C   0  0  0  0  0  0  0  0  0  0  0  0
  148.4243  138.5962  153.5111 N   0  0  0  0  0  0  0  0  0  0  0  0
  147.1010  138.3927  153.3991 C   0  0  0  0  0  0  0  0  0  0  0  0
  146.2293  139.0065  154.0136 O   0  0  0  0  0  0  0  0  0  0  0  0
  146.8425  137.4069  152.5282 N   0  0  0  0  0  0  0  0  0  0  0  0
  145.5190  136.8796  152.1873 C   0  0  1  0  0  0  0  0  0  0  0  0
  145.4836  136.5590  150.6717 C   0  0  0  0  0  0  0  0  0  0  0  0
  146.1653  137.5435  149.9223 O   0  0  0  0  0  0  0  0  0  0  0  0
  145.1341  135.7047  153.1467 C   0  0  0  0  0  0  0  0  0  0  0  0
  143.7220  135.1496  152.8502 C   0  0  0  0  0  0  0  0  0  0  0  0
  145.1913  136.1550  154.6209 C   0  0  0  0  0  0  0  0  0  0  0  0
  146.1484  134.5518  152.9732 C   0  0  0  0  0  0  0  0  0  0  0  0
  144.7950  137.6788  152.3612 H   0  0  0  0  0  0  0  0  0  0  0  0
  150.5729  136.9921  154.5985 H   0  0  0  0  0  0  0  0  0  0  0  0
  152.1427  137.7961  154.6585 H   0  0  0  0  0  0  0  0  0  0  0  0
  151.1685  137.8838  153.1908 H   0  0  0  0  0  0  0  0  0  0  0  0
  151.2222  143.8122  156.4322 H   0  0  0  0  0  0  0  0  0  0  0  0
  150.1423  143.2629  157.7235 H   0  0  0  0  0  0  0  0  0  0  0  0
  153.1183  143.8629  157.8818 H   0  0  0  0  0  0  0  0  0  0  0  0
  151.8649  144.3815  159.0116 H   0  0  0  0  0  0  0  0  0  0  0  0
  153.3837  142.2033  159.6200 H   0  0  0  0  0  0  0  0  0  0  0  0
  151.6447  142.1518  159.9032 H   0  0  0  0  0  0  0  0  0  0  0  0
  151.7197  140.2916  158.4921 H   0  0  0  0  0  0  0  0  0  0  0  0
  153.1784  140.8497  157.6615 H   0  0  0  0  0  0  0  0  0  0  0  0
  148.9124  142.3667  156.1785 H   0  0  0  0  0  0  0  0  0  0  0  0
  147.5799  141.0021  154.6372 H   0  0  0  0  0  0  0  0  0  0  0  0
  149.0108  137.9732  152.9757 H   0  0  0  0  0  0  0  0  0  0  0  0
  147.6281  136.9646  152.0745 H   0  0  0  0  0  0  0  0  0  0  0  0
  145.9953  135.6169  150.4702 H   0  0  0  0  0  0  0  0  0  0  0  0
  144.4679  136.4436  150.2966 H   0  0  0  0  0  0  0  0  0  0  0  0
  145.5386  138.1895  149.6344 H   0  0  0  0  0  0  0  0  0  0  0  0
  143.4818  134.3195  153.5155 H   0  0  0  0  0  0  0  0  0  0  0  0
  143.6352  134.7742  151.8305 H   0  0  0  0  0  0  0  0  0  0  0  0
  142.9475  135.9023  152.9916 H   0  0  0  0  0  0  0  0  0  0  0  0
  144.4250  136.8962  154.8481 H   0  0  0  0  0  0  0  0  0  0  0  0
  146.1600  136.5917  154.8663 H   0  0  0  0  0  0  0  0  0  0  0  0
  145.0299  135.3164  155.2994 H   0  0  0  0  0  0  0  0  0  0  0  0
  145.9390  133.7307  153.6598 H   0  0  0  0  0  0  0  0  0  0  0  0
  147.1676  134.8869  153.1692 H   0  0  0  0  0  0  0  0  0  0  0  0
  146.1285  134.1366  151.9651 H   0  0  0  0  0  0  0  0  0  0  0  0
  1  2  1  0  0  0  0
  1 25  1  0  0  0  0
  1 26  1  0  0  0  0
  1 27  1  0  0  0  0
  2 12  1  0  0  0  0
  2  3  2  0  0  0  0
  3  4  1  0  0  0  0
  4  5  1  0  0  0  0
  4 10  2  0  0  0  0
  5  9  1  0  0  0  0
  5  6  1  0  0  0  0
  6  7  1  0  0  0  0
  6 28  1  0  0  0  0
  6 29  1  0  0  0  0
  7  8  1  0  0  0  0
  7 30  1  0  0  0  0
  7 31  1  0  0  0  0
  8  9  1  0  0  0  0
  8 32  1  0  0  0  0
  8 33  1  0  0  0  0
  9 34  1  0  0  0  0
  9 35  1  0  0  0  0
 10 11  1  0  0  0  0
 10 36  1  0  0  0  0
 11 12  2  0  0  0  0
 11 37  1  0  0  0  0
 12 13  1  0  0  0  0
 13 14  1  0  0  0  0
 13 38  1  0  0  0  0
 14 15  2  0  0  0  0
 14 16  1  0  0  0  0
 16 17  1  0  0  0  0
 16 39  1  0  0  0  0
 17 24  1  0  0  0  0
 17 18  1  0  0  0  0
 17 20  1  0  0  0  0
 18 19  1  0  0  0  0
 18 40  1  0  0  0  0
 18 41  1  0  0  0  0
 19 42  1  0  0  0  0
 20 21  1  0  0  0  0
 20 22  1  0  0  0  0
 20 23  1  0  0  0  0
 21 43  1  0  0  0  0
 21 44  1  0  0  0  0
 21 45  1  0  0  0  0
 22 46  1  0  0  0  0
 22 47  1  0  0  0  0
 22 48  1  0  0  0  0
 23 49  1  0  0  0  0
 23 50  1  0  0  0  0
 23 51  1  0  0  0  0
M  END
> <s_m_source_file>
AV-unprocessed.smi

> <i_m_source_file_index>
2800

> <i_lp_mmshare_version>
43012

> <i_f3d_flags>
0

> <s_epik_input>
W0NIMl0xW0NIMl1bQ0gyXVtDSDJdTjFjKG5jMltDSDNdKVtjSF1bY0hdYzJbTkhdQyg9TylbTkhdW0NASF0oW0NIMl1bT0hdKUMoW0NIM10pKFtDSDNdKVtDSDNd

> <s_epik_cmdline>
J2VwaWtfcHl0aG9uJywgJy1waCcsICc3LjAnLCAnLXRuJywgJzgnLCAnLW1hJywgJzIwMCcsICctbWV0YWxfYmluZGluZycsICctaW1hZScsICc8aW5maWxlLm1hZT4nLCAnLW9tYWUnLCAnPG91dGZpbGUubWFlPic=

> <r_lp_tautomer_probability>
1

> <r_epik_Ionization_Penalty>
0.307546

> <r_epik_Ionization_Penalty_Charging>
0

> <r_epik_Ionization_Penalty_Neutral>
0.307546

> <r_epik_State_Penalty>
0.300796

> <r_epik_Charging_Adjusted_Penalty>
0.300796

> <i_epik_Tot_Q>
0

> <i_epik_Tot_abs_Q>
0

> <r_epik_Metal_State_Penalty>
0.196869

> <b_epik_Metal_Only>
0

> <s_lp_Force_Field>
OPLS_2005

> <r_lp_Energy>
35.7383

> <b_lp_Chiralities_Consistent>
1

> <s_lp_Variant>
AV-unprocessed.smi:2800-2

> <Gold.Version>
5.8.1

> <Gold.Id.Protein>
6NUR|6NUR_protein|mol2

> <Gold.PLP.Fitness>
46.6689

> <Gold.PLP.PLP>
-38.9499

> <Gold.PLP.part.hbond>
-4.8677

> <Gold.PLP.part.metal>
0.0000

> <Gold.PLP.part.buried>
-3.2516

> <Gold.PLP.part.nonpolar>
-33.2759

> <Gold.PLP.part.repulsive>
0.2510

> <Gold.PLP.ligand.clash>
0.0000

> <Gold.PLP.ligand.torsion>
1.1003

> <Gold.PLP.Chemscore.Hbond>
3.2231

> <Gold.PLP.Chemscore.CHOScore>
0.0000

> <Gold.PLP.Chemscore.Metal>
0.0000

> <Gold.Chemscore.Hbonds>
donor molecule, donor type, donor heavy atom, donor atom, acceptor molecule, acceptor atom, score
      L1  H    13    38       P1  7948  0.84
      L1  H    16    39       P1  7948  0.96
      L1  H    19    42       P1 10171  0.83
      P1  H  7954  7966       L1    19  0.58

> <Gold.PLP.Chemscore.Internal.Correction>
0.2505

> <Gold.Rescore>
     Score         DG    S(hbond)    S(metal)    S(lipo)     H(rot)  DE(clash)    DE(int)     intcor
     19.05     -22.65       3.20        0.00      97.38       1.92       1.46       2.14       ----

> <Gold.Chemscore.Fitness>
19.0518

> <Gold.Chemscore.DG>
-22.6542

> <Gold.Chemscore.ZeroCoef>
-5.4800

> <Gold.Chemscore.Hbond>
3.2042

> <Gold.Chemscore.Metal>
0.0000

> <Gold.Chemscore.Lipo>
97.3765

> <Gold.Chemscore.Internal_Hbond>
0.0000

> <Gold.Chemscore.DEClash>
1.4605

> <Gold.Chemscore.DEInternal>
2.1419

> <Gold.Chemscore.Rot>
1.9222

> <Gold.Chemscore.Internal.Correction>
   9.000000E+99

> <Gold.Chemscore.Hbonds>
donor molecule, donor type, donor heavy atom, donor atom, acceptor molecule, acceptor atom, score
      L1  H    13    38       P1  7948  0.77
      L1  H    16    39       P1  7948  0.90
      L1  H    19    42       P1 10171  0.83
      P1  H  7954  7966       L1    19  0.55

> <Gold.Chemscore.Hbond.Weighted>
-10.7019

> <Gold.Chemscore.Metal.Weighted>
-0.0000

> <Gold.Chemscore.Lipo.Weighted>
-11.3931

> <Gold.Chemscore.Internal_Hbond.Weighted>
0.0000

> <Gold.Chemscore.DEClash.Weighted>
1.4605

> <Gold.Chemscore.DEInternal.Weighted>
2.1419

> <Gold.Chemscore.Rot.Weighted>
4.9208

> <Gold.Chemscore.Internal.Correction.Weighted>
   9.000000E+99

> <Gold.Protein.RotatedTorsions>
[ 6907 6896 6895 6894 ] final  -52.33 input  -60.11 | X-H torsion
[ 7974 7965 7964 7962 ] final -152.29 input  175.53 | X-H torsion
[ 8008 7997 7996 7995 ] final  -34.06 input   59.86 | X-H torsion
[ 10167 10162 10161 10158 ] final -142.94 input  -65.29 | X-H torsion
[ 10718 10713 10712 10709 ] final   98.00 input   66.30 | X-H torsion
[ 10763 10752 10751 10750 ] final   76.47 input  -60.55 | X-H torsion
[ 11005 11000 10999 10996 ] final  -46.03 input  -57.11 | X-H torsion

> <Gold.Protein.ActiveResidues>
 VAL166  LYS551  ARG553  GLY616  TRP617  ASP618  TYR619  PRO620  LYS621  CYS622 
 ASP623  PHE694  ASN695  SER759  ASP760  ASP761  ALA762  ILE779  LEU786  VAL792 
 PHE793  MET794  SER795  GLU796  ALA797  LYS798  CYS799  TRP800  GLU811  SER814 

> <Gold.Protein.RotatedAtoms>
  150.8528  134.7858  159.7021 H   0  0  0  0  0  0  0  0  0  0  0  0  # atno 6907 bound_to 6896
  152.4588  134.5228  159.9797 H   0  0  0  0  0  0  0  0  0  0  0  0  # atno 6908 bound_to 6896
  151.5346  133.3405  159.2960 H   0  0  0  0  0  0  0  0  0  0  0  0  # atno 6909 bound_to 6896
  144.7802  140.4682  143.5844 H   0  0  0  0  0  0  0  0  0  0  0  0  # atno 7974 bound_to 7965
  154.4131  140.1694  156.1988 H   0  0  0  0  0  0  0  0  0  0  0  0  # atno 8008 bound_to 7997
  155.9541  140.3398  155.6410 H   0  0  0  0  0  0  0  0  0  0  0  0  # atno 8009 bound_to 7997
  155.6832  140.0725  157.2467 H   0  0  0  0  0  0  0  0  0  0  0  0  # atno 8010 bound_to 7997
  139.8040  143.7794  152.2660 H   0  0  0  0  0  0  0  0  0  0  0  0  # atno 10167 bound_to 10162
  157.6903  131.0627  150.4730 H   0  0  0  0  0  0  0  0  0  0  0  0  # atno 10718 bound_to 10713
  153.0728  135.4950  154.8340 H   0  0  0  0  0  0  0  0  0  0  0  0  # atno 10763 bound_to 10752
  154.7046  135.3008  154.9293 H   0  0  0  0  0  0  0  0  0  0  0  0  # atno 10764 bound_to 10752
  154.0006  135.6767  153.4812 H   0  0  0  0  0  0  0  0  0  0  0  0  # atno 10765 bound_to 10752
  141.0553  133.6728  156.3097 H   0  0  0  0  0  0  0  0  0  0  0  0  # atno 11005 bound_to 11000
  145.6071  139.1509  143.3096 LP  0  0  0  0  0  0  0  0  0  0  0  0  # atno 17320 bound_to 7965
  146.2006  140.6189  142.9104 LP  0  0  0  0  0  0  0  0  0  0  0  0  # atno 17321 bound_to 7965
  139.7923  144.7406  150.9938 LP  0  0  0  0  0  0  0  0  0  0  0  0  # atno 17342 bound_to 10162
  140.7819  143.4430  151.0524 LP  0  0  0  0  0  0  0  0  0  0  0  0  # atno 17343 bound_to 10162
  156.5066  130.4129  149.6324 LP  0  0  0  0  0  0  0  0  0  0  0  0  # atno 17370 bound_to 10713
  156.3279  130.7315  151.2239 LP  0  0  0  0  0  0  0  0  0  0  0  0  # atno 17371 bound_to 10713
  140.5976  134.5588  157.5511 LP  0  0  0  0  0  0  0  0  0  0  0  0  # atno 17394 bound_to 11000
  139.9385  134.7831  156.0740 LP  0  0  0  0  0  0  0  0  0  0  0  0  # atno 17395 bound_to 11000

$$$$
