AV-unprocessed.smi:2026|AV-procd|sdf|8201|dock6
  -GOLD-   2272010463D 1   1.00000     0.00000
 Structure written by MMmdl.
 46 48  0  0  0  0  0  0  0  0  1 V2000
  151.8693  144.6416  160.0110 C   0  0  0  0  0  0  0  0  0  0  0  0
  152.5909  143.3509  160.3551 C   0  0  0  0  0  0  0  0  0  0  0  0
  152.8609  142.4188  159.3270 C   0  0  0  0  0  0  0  0  0  0  0  0
  153.5328  141.2079  159.6053 C   0  0  0  0  0  0  0  0  0  0  0  0
  153.8996  140.1661  158.7696 N   0  0  0  0  0  0  0  0  0  0  0  0
  154.4929  139.3337  159.6217 C   0  0  0  0  0  0  0  0  0  0  0  0
  154.5518  139.7146  160.9119 N   0  0  0  0  0  0  0  0  0  0  0  0
  155.1329  138.9923  162.0266 C   0  0  0  0  0  0  0  0  0  0  0  0
  155.6643  139.9460  163.1160 C   0  0  2  0  0  0  0  0  0  0  0  0
  157.0325  140.2108  162.8817 O   0  0  0  0  0  0  0  0  0  0  0  0
  155.5037  139.4041  164.5518 C   0  0  0  0  0  0  0  0  0  0  0  0
  155.8957  140.3896  165.5675 N   0  0  0  0  0  0  0  0  0  0  0  0
  156.4429  140.0830  166.7577 C   0  0  0  0  0  0  0  0  0  0  0  0
  156.7081  138.9564  167.1739 O   0  0  0  0  0  0  0  0  0  0  0  0
  156.6463  141.2215  167.4336 N   0  0  0  0  0  0  0  0  0  0  0  0
  156.2195  142.3979  166.7007 C   0  0  0  0  0  0  0  0  0  0  0  0
  155.0757  143.1180  167.4378 C   0  0  0  0  0  0  0  0  0  0  0  0
  157.4105  143.3303  166.4163 C   0  0  0  0  0  0  0  0  0  0  0  0
  155.7271  141.7127  165.4356 C   0  0  0  0  0  0  0  0  0  0  0  0
  155.2477  142.3098  164.4716 O   0  0  0  0  0  0  0  0  0  0  0  0
  153.9268  140.9546  160.9508 C   0  0  0  0  0  0  0  0  0  0  0  0
  153.6635  141.8722  161.9822 C   0  0  0  0  0  0  0  0  0  0  0  0
  152.9922  143.0765  161.6876 C   0  0  0  0  0  0  0  0  0  0  0  0
  152.7152  144.0613  162.8100 C   0  0  0  0  0  0  0  0  0  0  0  0
  151.7019  144.7306  158.9373 H   0  0  0  0  0  0  0  0  0  0  0  0
  152.4540  145.5050  160.3291 H   0  0  0  0  0  0  0  0  0  0  0  0
  150.8992  144.6780  160.5072 H   0  0  0  0  0  0  0  0  0  0  0  0
  152.5542  142.6272  158.3125 H   0  0  0  0  0  0  0  0  0  0  0  0
  154.9090  138.3939  159.2892 H   0  0  0  0  0  0  0  0  0  0  0  0
  154.3548  138.3431  162.4274 H   0  0  0  0  0  0  0  0  0  0  0  0
  155.9251  138.3382  161.6600 H   0  0  0  0  0  0  0  0  0  0  0  0
  155.1439  140.9013  163.0420 H   0  0  0  0  0  0  0  0  0  0  0  0
  157.1359  140.4909  161.9853 H   0  0  0  0  0  0  0  0  0  0  0  0
  154.4769  139.0701  164.7110 H   0  0  0  0  0  0  0  0  0  0  0  0
  156.1234  138.5146  164.6801 H   0  0  0  0  0  0  0  0  0  0  0  0
  157.0432  141.2691  168.3608 H   0  0  0  0  0  0  0  0  0  0  0  0
  154.7261  143.9846  166.8754 H   0  0  0  0  0  0  0  0  0  0  0  0
  155.4017  143.4713  168.4165 H   0  0  0  0  0  0  0  0  0  0  0  0
  154.2192  142.4612  167.5957 H   0  0  0  0  0  0  0  0  0  0  0  0
  157.0956  144.2170  165.8646 H   0  0  0  0  0  0  0  0  0  0  0  0
  158.1827  142.8331  165.8275 H   0  0  0  0  0  0  0  0  0  0  0  0
  157.8725  143.6685  167.3442 H   0  0  0  0  0  0  0  0  0  0  0  0
  153.9810  141.6513  162.9904 H   0  0  0  0  0  0  0  0  0  0  0  0
  153.0300  143.6624  163.7752 H   0  0  0  0  0  0  0  0  0  0  0  0
  151.6498  144.2836  162.8726 H   0  0  0  0  0  0  0  0  0  0  0  0
  153.2548  144.9930  162.6399 H   0  0  0  0  0  0  0  0  0  0  0  0
  1  2  1  0  0  0  0
  1 25  1  0  0  0  0
  1 26  1  0  0  0  0
  1 27  1  0  0  0  0
  2 23  1  0  0  0  0
  2  3  2  0  0  0  0
  3  4  1  0  0  0  0
  3 28  1  0  0  0  0
  4 21  2  0  0  0  0
  4  5  1  0  0  0  0
  5  6  2  0  0  0  0
  6  7  1  0  0  0  0
  6 29  1  0  0  0  0
  7  8  1  0  0  0  0
  7 21  1  0  0  0  0
  8  9  1  0  0  0  0
  8 30  1  0  0  0  0
  8 31  1  0  0  0  0
  9 10  1  0  0  0  0
  9 11  1  0  0  0  0
  9 32  1  0  0  0  0
 10 33  1  0  0  0  0
 11 12  1  0  0  0  0
 11 34  1  0  0  0  0
 11 35  1  0  0  0  0
 12 19  1  0  0  0  0
 12 13  1  0  0  0  0
 13 14  2  0  0  0  0
 13 15  1  0  0  0  0
 15 16  1  0  0  0  0
 15 36  1  0  0  0  0
 16 17  1  0  0  0  0
 16 18  1  0  0  0  0
 16 19  1  0  0  0  0
 17 37  1  0  0  0  0
 17 38  1  0  0  0  0
 17 39  1  0  0  0  0
 18 40  1  0  0  0  0
 18 41  1  0  0  0  0
 18 42  1  0  0  0  0
 19 20  2  0  0  0  0
 21 22  1  0  0  0  0
 22 23  2  0  0  0  0
 22 43  1  0  0  0  0
 23 24  1  0  0  0  0
 24 44  1  0  0  0  0
 24 45  1  0  0  0  0
 24 46  1  0  0  0  0
M  END
> <s_m_source_file>
AV-unprocessed.smi

> <i_m_source_file_index>
2026

> <i_lp_mmshare_version>
43012

> <i_f3d_flags>
0

> <s_epik_input>
W0NIM11jKFtjSF0xKWMoW0NIM10pW2NIXWMoYzEyKW4oW2NIXW4yKVtDSDJdW0NASF0oW09IXSlbQ0gyXU4oQzM9TylDKD1PKVtOSF1DMyhbQ0gzXSlbQ0gzXQ==

> <s_epik_cmdline>
J2VwaWtfcHl0aG9uJywgJy1waCcsICc3LjAnLCAnLXRuJywgJzgnLCAnLW1hJywgJzIwMCcsICctbWV0YWxfYmluZGluZycsICctaW1hZScsICc8aW5maWxlLm1hZT4nLCAnLW9tYWUnLCAnPG91dGZpbGUubWFlPic=

> <r_lp_tautomer_probability>
1

> <r_epik_Ionization_Penalty>
0.103994

> <r_epik_Ionization_Penalty_Charging>
0

> <r_epik_Ionization_Penalty_Neutral>
0.103994

> <r_epik_State_Penalty>
0.0938482

> <r_epik_Charging_Adjusted_Penalty>
0.0938482

> <i_epik_Tot_Q>
0

> <i_epik_Tot_abs_Q>
0

> <r_epik_Metal_State_Penalty>
0.106997

> <b_epik_Metal_Only>
0

> <s_lp_Force_Field>
OPLS_2005

> <r_lp_Energy>
21.0149

> <b_lp_Chiralities_Consistent>
1

> <s_lp_Variant>
AV-unprocessed.smi:2026-1

> <Gold.Version>
5.8.1

> <Gold.Id.Protein>
6NUR|6NUR_protein|mol2

> <Gold.PLP.Fitness>
49.3036

> <Gold.PLP.PLP>
-48.8617

> <Gold.PLP.part.hbond>
-3.9649

> <Gold.PLP.part.metal>
0.0000

> <Gold.PLP.part.buried>
-1.8788

> <Gold.PLP.part.nonpolar>
-42.3872

> <Gold.PLP.part.repulsive>
0.1017

> <Gold.PLP.ligand.clash>
0.0034

> <Gold.PLP.ligand.torsion>
1.1990

> <Gold.PLP.Chemscore.Hbond>
0.9440

> <Gold.PLP.Chemscore.CHOScore>
0.0000

> <Gold.PLP.Chemscore.Metal>
0.0000

> <Gold.Chemscore.Hbonds>
donor molecule, donor type, donor heavy atom, donor atom, acceptor molecule, acceptor atom, score
      P1  H  7997  8008       L1     5  0.94

> <Gold.PLP.Chemscore.Internal.Correction>
0.0113

> <Gold.Rescore>
     Score         DG    S(hbond)    S(metal)    S(lipo)     H(rot)  DE(clash)    DE(int)     intcor
     11.47     -17.29       0.97        0.00     126.53       2.44       2.87       2.95       ----

> <Gold.Chemscore.Fitness>
11.4731

> <Gold.Chemscore.DG>
-17.2892

> <Gold.Chemscore.ZeroCoef>
-5.4800

> <Gold.Chemscore.Hbond>
0.9702

> <Gold.Chemscore.Metal>
0.0000

> <Gold.Chemscore.Lipo>
126.5339

> <Gold.Chemscore.Internal_Hbond>
0.0000

> <Gold.Chemscore.DEClash>
2.8651

> <Gold.Chemscore.DEInternal>
2.9509

> <Gold.Chemscore.Rot>
2.4358

> <Gold.Chemscore.Internal.Correction>
   9.000000E+99

> <Gold.Chemscore.Hbonds>
donor molecule, donor type, donor heavy atom, donor atom, acceptor molecule, acceptor atom, score
      P1  H  7997  8008       L1     5  0.45

> <Gold.Chemscore.Hbond.Weighted>
-3.2404

> <Gold.Chemscore.Metal.Weighted>
-0.0000

> <Gold.Chemscore.Lipo.Weighted>
-14.8045

> <Gold.Chemscore.Internal_Hbond.Weighted>
0.0000

> <Gold.Chemscore.DEClash.Weighted>
2.8651

> <Gold.Chemscore.DEInternal.Weighted>
2.9509

> <Gold.Chemscore.Rot.Weighted>
6.2357

> <Gold.Chemscore.Internal.Correction.Weighted>
   9.000000E+99

> <Gold.Protein.RotatedTorsions>
[ 6907 6896 6895 6894 ] final -158.36 input  -60.11 | X-H torsion
[ 7974 7965 7964 7962 ] final -143.28 input  175.53 | X-H torsion
[ 8008 7997 7996 7995 ] final -106.67 input   59.86 | X-H torsion
[ 10167 10162 10161 10158 ] final   12.30 input  -65.29 | X-H torsion
[ 10718 10713 10712 10709 ] final  106.00 input   66.30 | X-H torsion
[ 10763 10752 10751 10750 ] final -156.02 input  -60.55 | X-H torsion
[ 11005 11000 10999 10996 ] final  -73.87 input  -57.11 | X-H torsion

> <Gold.Protein.ActiveResidues>
 VAL166  LYS551  ARG553  GLY616  TRP617  ASP618  TYR619  PRO620  LYS621  CYS622 
 ASP623  PHE694  ASN695  SER759  ASP760  ASP761  ALA762  ILE779  LEU786  VAL792 
 PHE793  MET794  SER795  GLU796  ALA797  LYS798  CYS799  TRP800  GLU811  SER814 

> <Gold.Protein.RotatedAtoms>
  151.3170  133.4056  159.2651 H   0  0  0  0  0  0  0  0  0  0  0  0  # atno 6907 bound_to 6896
  151.0066  134.9365  159.7994 H   0  0  0  0  0  0  0  0  0  0  0  0  # atno 6908 bound_to 6896
  152.5289  134.3135  159.9174 H   0  0  0  0  0  0  0  0  0  0  0  0  # atno 6909 bound_to 6896
  144.8381  140.5853  143.5471 H   0  0  0  0  0  0  0  0  0  0  0  0  # atno 7974 bound_to 7965
  154.9180  140.0408  157.1982 H   0  0  0  0  0  0  0  0  0  0  0  0  # atno 8008 bound_to 7997
  154.8282  140.2895  155.5719 H   0  0  0  0  0  0  0  0  0  0  0  0  # atno 8009 bound_to 7997
  156.2985  140.2506  156.3202 H   0  0  0  0  0  0  0  0  0  0  0  0  # atno 8010 bound_to 7997
  140.6076  143.8474  150.7031 H   0  0  0  0  0  0  0  0  0  0  0  0  # atno 10167 bound_to 10162
  157.6685  131.0840  150.5940 H   0  0  0  0  0  0  0  0  0  0  0  0  # atno 10718 bound_to 10713
  154.7744  135.3155  154.8122 H   0  0  0  0  0  0  0  0  0  0  0  0  # atno 10763 bound_to 10752
  153.8849  135.6831  153.4768 H   0  0  0  0  0  0  0  0  0  0  0  0  # atno 10764 bound_to 10752
  153.1365  135.4757  154.9365 H   0  0  0  0  0  0  0  0  0  0  0  0  # atno 10765 bound_to 10752
  141.1628  133.6892  156.7277 H   0  0  0  0  0  0  0  0  0  0  0  0  # atno 11005 bound_to 11000
  145.4753  139.1500  143.3792 LP  0  0  0  0  0  0  0  0  0  0  0  0  # atno 17320 bound_to 7965
  146.2677  140.4887  142.8827 LP  0  0  0  0  0  0  0  0  0  0  0  0  # atno 17321 bound_to 7965
  140.2035  143.3940  152.1773 LP  0  0  0  0  0  0  0  0  0  0  0  0  # atno 17342 bound_to 10162
  139.5337  144.7187  151.4967 LP  0  0  0  0  0  0  0  0  0  0  0  0  # atno 17343 bound_to 10162
  156.6241  130.4414  149.5811 LP  0  0  0  0  0  0  0  0  0  0  0  0  # atno 17370 bound_to 10713
  156.2333  130.6807  151.1485 LP  0  0  0  0  0  0  0  0  0  0  0  0  # atno 17371 bound_to 10713
  140.2768  134.8348  157.3897 LP  0  0  0  0  0  0  0  0  0  0  0  0  # atno 17394 bound_to 11000
  140.1470  134.4898  155.7989 LP  0  0  0  0  0  0  0  0  0  0  0  0  # atno 17395 bound_to 11000

$$$$
