AV-unprocessed.smi:1151|AV-procd|sdf|4896|dock3
  -GOLD-   22720 3473D 1   1.00000     0.00000
 Structure written by MMmdl.
 35 36  0  0  0  0  0  0  0  0  1 V2000
  152.6871  143.2267  161.4312 C   0  0  0  0  0  0  0  0  0  0  0  0
  152.2148  143.4876  160.0419 C   0  0  0  0  0  0  0  0  0  0  0  0
  151.9123  142.5209  159.1715 N   0  0  0  0  0  0  0  0  0  0  0  0
  151.4932  143.0220  157.9352 C   0  0  0  0  0  0  0  0  0  0  0  0
  151.1239  142.0783  156.8272 C   0  0  0  0  0  0  0  0  0  0  0  0
  150.1459  140.9683  157.2641 C   0  0  0  0  0  0  0  0  0  0  0  0
  149.3384  140.4560  156.1608 N   0  0  0  0  0  0  0  0  0  0  0  0
  148.0120  140.2586  156.1998 C   0  0  0  0  0  0  0  0  0  0  0  0
  147.3314  140.4481  157.2083 O   0  0  0  0  0  0  0  0  0  0  0  0
  147.3540  139.7929  154.8945 C   0  0  1  0  0  0  0  0  0  0  0  0
  147.5477  140.8235  153.7696 C   0  0  0  0  0  0  0  0  0  0  0  0
  146.8414  140.3726  152.4809 C   0  0  0  0  0  0  0  0  0  0  0  0
  147.1002  138.9010  152.1251 C   0  0  0  0  0  0  0  0  0  0  0  0
  146.8710  138.5058  150.9844 O   0  0  0  0  0  0  0  0  0  0  0  0
  147.5391  138.0653  153.0827 N   0  0  0  0  0  0  0  0  0  0  0  0
  147.9260  138.4321  154.4451 C   0  0  0  0  0  0  0  0  0  0  0  0
  151.4836  144.3939  157.8824 C   0  0  0  0  0  0  0  0  0  0  0  0
  152.0078  145.1058  159.3828 S   0  0  0  0  0  0  0  0  0  0  0  0
  152.3911  142.2282  161.7545 H   0  0  0  0  0  0  0  0  0  0  0  0
  152.2559  143.9563  162.1167 H   0  0  0  0  0  0  0  0  0  0  0  0
  153.7736  143.3027  161.4753 H   0  0  0  0  0  0  0  0  0  0  0  0
  150.6863  142.6318  155.9959 H   0  0  0  0  0  0  0  0  0  0  0  0
  152.0273  141.6192  156.4241 H   0  0  0  0  0  0  0  0  0  0  0  0
  150.7116  140.1273  157.6662 H   0  0  0  0  0  0  0  0  0  0  0  0
  149.5025  141.3215  158.0714 H   0  0  0  0  0  0  0  0  0  0  0  0
  149.8197  140.2742  155.2919 H   0  0  0  0  0  0  0  0  0  0  0  0
  146.2820  139.6771  155.0665 H   0  0  0  0  0  0  0  0  0  0  0  0
  147.1590  141.7959  154.0754 H   0  0  0  0  0  0  0  0  0  0  0  0
  148.6105  140.9667  153.5662 H   0  0  0  0  0  0  0  0  0  0  0  0
  145.7642  140.4997  152.5928 H   0  0  0  0  0  0  0  0  0  0  0  0
  147.1449  141.0075  151.6476 H   0  0  0  0  0  0  0  0  0  0  0  0
  147.6669  137.0969  152.8266 H   0  0  0  0  0  0  0  0  0  0  0  0
  149.0164  138.4394  154.4836 H   0  0  0  0  0  0  0  0  0  0  0  0
  147.5962  137.6446  155.1236 H   0  0  0  0  0  0  0  0  0  0  0  0
  151.2086  145.0253  157.0505 H   0  0  0  0  0  0  0  0  0  0  0  0
  1  2  1  0  0  0  0
  1 19  1  0  0  0  0
  1 20  1  0  0  0  0
  1 21  1  0  0  0  0
  2 18  1  0  0  0  0
  2  3  2  0  0  0  0
  3  4  1  0  0  0  0
  4  5  1  0  0  0  0
  4 17  2  0  0  0  0
  5  6  1  0  0  0  0
  5 22  1  0  0  0  0
  5 23  1  0  0  0  0
  6  7  1  0  0  0  0
  6 24  1  0  0  0  0
  6 25  1  0  0  0  0
  7  8  1  0  0  0  0
  7 26  1  0  0  0  0
  8  9  2  0  0  0  0
  8 10  1  0  0  0  0
 10 16  1  0  0  0  0
 10 11  1  0  0  0  0
 10 27  1  0  0  0  0
 11 12  1  0  0  0  0
 11 28  1  0  0  0  0
 11 29  1  0  0  0  0
 12 13  1  0  0  0  0
 12 30  1  0  0  0  0
 12 31  1  0  0  0  0
 13 14  2  0  0  0  0
 13 15  1  0  0  0  0
 15 16  1  0  0  0  0
 15 32  1  0  0  0  0
 16 33  1  0  0  0  0
 16 34  1  0  0  0  0
 17 18  1  0  0  0  0
 17 35  1  0  0  0  0
M  END
> <s_m_source_file>
AV-unprocessed.smi

> <i_m_source_file_index>
1151

> <i_lp_mmshare_version>
43012

> <i_f3d_flags>
0

> <s_epik_input>
W0NIM11jMW5jKFtjSF1zMSlbQ0gyXVtDSDJdW05IXUMoPU8pW0NAQEhdMltDSDJdW0NIMl1DKD1PKVtOSF1bQ0gyXTI=

> <s_epik_cmdline>
J2VwaWtfcHl0aG9uJywgJy1waCcsICc3LjAnLCAnLXRuJywgJzgnLCAnLW1hJywgJzIwMCcsICctbWV0YWxfYmluZGluZycsICctaW1hZScsICc8aW5maWxlLm1hZT4nLCAnLW9tYWUnLCAnPG91dGZpbGUubWFlPic=

> <r_epik_Ionization_Penalty>
0.00105008

> <r_epik_Ionization_Penalty_Charging>
0

> <r_epik_Ionization_Penalty_Neutral>
0.00105008

> <r_epik_State_Penalty>
0.000686749

> <r_epik_Charging_Adjusted_Penalty>
0.000686749

> <i_epik_Tot_Q>
0

> <i_epik_Tot_abs_Q>
0

> <r_epik_Metal_State_Penalty>
-0

> <b_epik_Metal_Only>
0

> <s_lp_Force_Field>
OPLS_2005

> <r_lp_Energy>
7.51238

> <b_lp_Chiralities_Consistent>
1

> <s_lp_Variant>
AV-unprocessed.smi:1151-2

> <Gold.Version>
5.8.1

> <Gold.Id.Protein>
6NUR|6NUR_protein|mol2

> <Gold.PLP.Fitness>
40.2944

> <Gold.PLP.PLP>
-32.5292

> <Gold.PLP.part.hbond>
-2.0949

> <Gold.PLP.part.metal>
0.0000

> <Gold.PLP.part.buried>
-1.9184

> <Gold.PLP.part.nonpolar>
-29.9980

> <Gold.PLP.part.repulsive>
0.6810

> <Gold.PLP.ligand.clash>
0.0000

> <Gold.PLP.ligand.torsion>
0.3409

> <Gold.PLP.Chemscore.Hbond>
1.8400

> <Gold.PLP.Chemscore.CHOScore>
0.9696

> <Gold.PLP.Chemscore.Metal>
0.0000

> <Gold.Chemscore.Hbonds>
donor molecule, donor type, donor heavy atom, donor atom, acceptor molecule, acceptor atom, score
      L1  H    15    32       P1  7948  0.64
      P1  H  7954  7966       L1    14  1.00
      L1  C    17    35       P1  8028  0.56

> <Gold.PLP.Chemscore.Internal.Correction>
0.0184

> <Gold.Rescore>
     Score         DG    S(hbond)    S(metal)    S(lipo)     H(rot)  DE(clash)    DE(int)     intcor
     16.90     -18.10       1.73        0.00      95.67       1.70       0.74       0.46       ----

> <Gold.Chemscore.Fitness>
16.8988

> <Gold.Chemscore.DG>
-18.1010

> <Gold.Chemscore.ZeroCoef>
-5.4800

> <Gold.Chemscore.Hbond>
1.7287

> <Gold.Chemscore.Metal>
0.0000

> <Gold.Chemscore.Lipo>
95.6713

> <Gold.Chemscore.Internal_Hbond>
0.0000

> <Gold.Chemscore.DEClash>
0.7434

> <Gold.Chemscore.DEInternal>
0.4588

> <Gold.Chemscore.Rot>
1.6978

> <Gold.Chemscore.Internal.Correction>
   9.000000E+99

> <Gold.Chemscore.Hbonds>
donor molecule, donor type, donor heavy atom, donor atom, acceptor molecule, acceptor atom, score
      L1  H    15    32       P1  7948  0.64
      P1  H  7954  7966       L1    14  0.96

> <Gold.Chemscore.Hbond.Weighted>
-5.7739

> <Gold.Chemscore.Metal.Weighted>
-0.0000

> <Gold.Chemscore.Lipo.Weighted>
-11.1935

> <Gold.Chemscore.Internal_Hbond.Weighted>
0.0000

> <Gold.Chemscore.DEClash.Weighted>
0.7434

> <Gold.Chemscore.DEInternal.Weighted>
0.4588

> <Gold.Chemscore.Rot.Weighted>
4.3463

> <Gold.Chemscore.Internal.Correction.Weighted>
   9.000000E+99

> <Gold.Protein.RotatedTorsions>
[ 6907 6896 6895 6894 ] final  -23.57 input  -60.11 | X-H torsion
[ 7974 7965 7964 7962 ] final   64.93 input  175.53 | X-H torsion
[ 8008 7997 7996 7995 ] final  -36.86 input   59.86 | X-H torsion
[ 10167 10162 10161 10158 ] final   11.89 input  -65.29 | X-H torsion
[ 10718 10713 10712 10709 ] final -159.67 input   66.30 | X-H torsion
[ 10763 10752 10751 10750 ] final -164.15 input  -60.55 | X-H torsion
[ 11005 11000 10999 10996 ] final -155.30 input  -57.11 | X-H torsion

> <Gold.Protein.ActiveResidues>
 VAL166  LYS551  ARG553  GLY616  TRP617  ASP618  TYR619  PRO620  LYS621  CYS622 
 ASP623  PHE694  ASN695  SER759  ASP760  ASP761  ALA762  ILE779  LEU786  VAL792 
 PHE793  MET794  SER795  GLU796  ALA797  LYS798  CYS799  TRP800  GLU811  SER814 

> <Gold.Protein.RotatedAtoms>
  151.2021  135.0447  159.8876 H   0  0  0  0  0  0  0  0  0  0  0  0  # atno 6907 bound_to 6896
  152.5432  134.0838  159.8257 H   0  0  0  0  0  0  0  0  0  0  0  0  # atno 6908 bound_to 6896
  151.0980  133.5217  159.2643 H   0  0  0  0  0  0  0  0  0  0  0  0  # atno 6909 bound_to 6896
  145.8445  139.3215  143.0912 H   0  0  0  0  0  0  0  0  0  0  0  0  # atno 7974 bound_to 7965
  154.4064  140.1619  156.2443 H   0  0  0  0  0  0  0  0  0  0  0  0  # atno 8008 bound_to 7997
  155.9174  140.3423  155.6123 H   0  0  0  0  0  0  0  0  0  0  0  0  # atno 8009 bound_to 7997
  155.7263  140.0774  157.2299 H   0  0  0  0  0  0  0  0  0  0  0  0  # atno 8010 bound_to 7997
  140.6103  143.8422  150.7058 H   0  0  0  0  0  0  0  0  0  0  0  0  # atno 10167 bound_to 10162
  156.5713  130.8690  151.2838 H   0  0  0  0  0  0  0  0  0  0  0  0  # atno 10718 bound_to 10713
  154.7055  135.2996  154.9276 H   0  0  0  0  0  0  0  0  0  0  0  0  # atno 10763 bound_to 10752
  154.0195  135.6684  153.4775 H   0  0  0  0  0  0  0  0  0  0  0  0  # atno 10764 bound_to 10752
  153.0714  135.5059  154.8224 H   0  0  0  0  0  0  0  0  0  0  0  0  # atno 10765 bound_to 10752
  140.6880  134.4072  157.5221 H   0  0  0  0  0  0  0  0  0  0  0  0  # atno 11005 bound_to 11000
  145.9428  140.8967  143.0299 LP  0  0  0  0  0  0  0  0  0  0  0  0  # atno 17320 bound_to 7965
  144.6732  140.1572  143.7425 LP  0  0  0  0  0  0  0  0  0  0  0  0  # atno 17321 bound_to 7965
  140.1988  143.3976  152.1807 LP  0  0  0  0  0  0  0  0  0  0  0  0  # atno 17342 bound_to 10162
  139.5356  144.7206  151.4905 LP  0  0  0  0  0  0  0  0  0  0  0  0  # atno 17343 bound_to 10162
  157.7347  130.9751  150.2044 LP  0  0  0  0  0  0  0  0  0  0  0  0  # atno 17370 bound_to 10713
  156.2712  130.3722  149.8030 LP  0  0  0  0  0  0  0  0  0  0  0  0  # atno 17371 bound_to 10713
  139.8932  134.8737  156.2236 LP  0  0  0  0  0  0  0  0  0  0  0  0  # atno 17394 bound_to 11000
  141.0264  133.7012  156.1355 LP  0  0  0  0  0  0  0  0  0  0  0  0  # atno 17395 bound_to 11000

$$$$
