AV-unprocessed.smi:102|AV-procd|sdf|966|dock3
  -GOLD-   2262017513D 1   1.00000     0.00000
 Structure written by MMmdl.
 43 44  0  0  0  0  0  0  0  0  2 V2000
  146.6303  133.6862  152.6887 C   0  0  0  0  0  0  0  0  0  0  0  0
  145.9315  134.5273  153.7487 C   0  0  0  0  0  0  0  0  0  0  0  0
  145.0016  135.2816  153.4623 O   0  0  0  0  0  0  0  0  0  0  0  0
  146.4478  134.3399  154.9699 O   0  0  0  0  0  0  0  0  0  0  0  0
  145.9386  135.0677  156.0770 C   0  0  0  0  0  0  0  0  0  0  0  0
  146.8936  134.9574  157.2766 C   0  0  1  0  0  0  0  0  0  0  0  0
  148.2410  135.1409  156.8796 O   0  0  0  0  0  0  0  0  0  0  0  0
  148.9938  135.4437  158.0101 C   0  0  1  0  0  0  0  0  0  0  0  0
  150.1429  136.3323  157.5938 N   0  0  0  0  0  0  0  0  0  0  0  0
  150.3139  137.5496  158.2277 C   0  0  0  0  0  0  0  0  0  0  0  0
  151.3463  138.3611  157.9207 C   0  0  0  0  0  0  0  0  0  0  0  0
  151.4820  139.5401  158.5521 F   0  0  0  0  0  0  0  0  0  0  0  0
  152.3127  137.9479  156.9051 C   0  0  0  0  0  0  0  0  0  0  0  0
  153.2451  138.6973  156.6189 O   0  0  0  0  0  0  0  0  0  0  0  0
  152.1357  136.7310  156.3144 N   0  5  0  0  0  0  0  0  0  0  0  0
  151.0991  135.9005  156.6304 C   0  0  0  0  0  0  0  0  0  0  0  0
  150.9565  134.7892  156.1218 O   0  0  0  0  0  0  0  0  0  0  0  0
  148.0674  136.1043  159.0498 C   0  0  2  0  0  0  0  0  0  0  0  0
  148.1950  135.4446  160.3028 O   0  0  0  0  0  0  0  0  0  0  0  0
  147.6673  135.9935  161.4112 C   0  0  0  0  0  0  0  0  0  0  0  0
  147.2660  134.9471  162.4422 C   0  0  0  0  0  0  0  0  0  0  0  0
  147.4961  137.1954  161.6152 O   0  0  0  0  0  0  0  0  0  0  0  0
  146.6696  135.9094  158.4649 C   0  0  1  0  0  0  0  0  0  0  0  0
  146.1523  137.1881  158.1133 O   0  0  0  0  0  0  0  0  0  0  0  0
  146.7935  137.9769  157.2343 C   0  0  0  0  0  0  0  0  0  0  0  0
  146.0819  139.3066  157.0250 C   0  0  0  0  0  0  0  0  0  0  0  0
  147.8422  137.7106  156.6472 O   0  0  0  0  0  0  0  0  0  0  0  0
  147.6835  133.5535  152.9381 H   0  0  0  0  0  0  0  0  0  0  0  0
  146.5654  134.1705  151.7145 H   0  0  0  0  0  0  0  0  0  0  0  0
  146.1643  132.7032  152.6201 H   0  0  0  0  0  0  0  0  0  0  0  0
  145.8004  136.1173  155.8139 H   0  0  0  0  0  0  0  0  0  0  0  0
  144.9595  134.6672  156.3418 H   0  0  0  0  0  0  0  0  0  0  0  0
  146.8262  133.9401  157.6651 H   0  0  0  0  0  0  0  0  0  0  0  0
  149.4422  134.5215  158.3834 H   0  0  0  0  0  0  0  0  0  0  0  0
  149.6094  137.8644  158.9833 H   0  0  0  0  0  0  0  0  0  0  0  0
  148.3167  137.1615  159.1522 H   0  0  0  0  0  0  0  0  0  0  0  0
  148.0759  134.2338  162.5964 H   0  0  0  0  0  0  0  0  0  0  0  0
  146.3836  134.4035  162.1040 H   0  0  0  0  0  0  0  0  0  0  0  0
  147.0360  135.4198  163.3971 H   0  0  0  0  0  0  0  0  0  0  0  0
  146.0188  135.4310  159.1985 H   0  0  0  0  0  0  0  0  0  0  0  0
  145.5881  139.6254  157.9435 H   0  0  0  0  0  0  0  0  0  0  0  0
  145.3298  139.2118  156.2419 H   0  0  0  0  0  0  0  0  0  0  0  0
  146.7942  140.0778  156.7315 H   0  0  0  0  0  0  0  0  0  0  0  0
  1  2  1  0  0  0  0
  1 28  1  0  0  0  0
  1 29  1  0  0  0  0
  1 30  1  0  0  0  0
  2  3  2  0  0  0  0
  2  4  1  0  0  0  0
  4  5  1  0  0  0  0
  5  6  1  0  0  0  0
  5 31  1  0  0  0  0
  5 32  1  0  0  0  0
  6 23  1  0  0  0  0
  6  7  1  0  0  0  0
  6 33  1  0  0  0  0
  7  8  1  0  0  0  0
  8  9  1  0  0  0  0
  8 18  1  0  0  0  0
  8 34  1  0  0  0  0
  9 16  1  0  0  0  0
  9 10  1  0  0  0  0
 10 11  2  0  0  0  0
 10 35  1  0  0  0  0
 11 12  1  0  0  0  0
 11 13  1  0  0  0  0
 13 14  2  0  0  0  0
 13 15  1  0  0  0  0
 15 16  1  0  0  0  0
 16 17  2  0  0  0  0
 18 19  1  0  0  0  0
 18 23  1  0  0  0  0
 18 36  1  0  0  0  0
 19 20  1  0  0  0  0
 20 21  1  0  0  0  0
 20 22  2  0  0  0  0
 21 37  1  0  0  0  0
 21 38  1  0  0  0  0
 21 39  1  0  0  0  0
 23 24  1  0  0  0  0
 23 40  1  0  0  0  0
 24 25  1  0  0  0  0
 25 26  1  0  0  0  0
 25 27  2  0  0  0  0
 26 41  1  0  0  0  0
 26 42  1  0  0  0  0
 26 43  1  0  0  0  0
M  CHG  1  15  -1
M  END
> <s_m_source_file>
AV-unprocessed.smi

> <i_m_source_file_index>
102

> <i_lp_mmshare_version>
43012

> <i_f3d_flags>
0

> <s_epik_input>
W0NIM11DKD1PKU9bQ0gyXVtDQEBIXTFPW0NASF0oW0NAQEhdKE9DKD1PKVtDSDNdKVtDQEhdMU9DKD1PKVtDSDNdKW4yW2NIXWMoRiljKD1PKVtuSF1jMj1P

> <s_epik_cmdline>
J2VwaWtfcHl0aG9uJywgJy1waCcsICc3LjAnLCAnLXRuJywgJzgnLCAnLW1hJywgJzIwMCcsICctbWV0YWxfYmluZGluZycsICctaW1hZScsICc8aW5maWxlLm1hZT4nLCAnLW9tYWUnLCAnPG91dGZpbGUubWFlPic=

> <r_epik_Ionization_Penalty>
1.40304

> <r_epik_Ionization_Penalty_Charging>
1.43915e-08

> <r_epik_Ionization_Penalty_Neutral>
1.40304

> <r_epik_State_Penalty>
1.48536

> <r_epik_Charging_Adjusted_Penalty>
1.48536

> <i_epik_Tot_Q>
-1

> <i_epik_Tot_abs_Q>
1

> <r_epik_Metal_State_Penalty>
0.00663881

> <b_epik_Metal_Only>
0

> <s_epik_Chemistry_Notes>
This compound has an ester and may undergo hydrolysis at high or low pH. This compound contains an acetal/aminal-like group ( X-CH(R)-Y where X, Y are N, S, or O) that may be acid/base labile, releasing an aldehyde.

> <s_lp_Force_Field>
OPLS_2005

> <r_lp_Energy>
16.3749

> <b_lp_Chiralities_Consistent>
1

> <s_lp_Variant>
AV-unprocessed.smi:102-22

> <Gold.Version>
5.8.1

> <Gold.Id.Protein>
6NUR|6NUR_protein|mol2

> <Gold.PLP.Fitness>
35.9518

> <Gold.PLP.PLP>
-22.7034

> <Gold.PLP.part.hbond>
-4.0000

> <Gold.PLP.part.metal>
0.0000

> <Gold.PLP.part.buried>
-4.7021

> <Gold.PLP.part.nonpolar>
-14.1426

> <Gold.PLP.part.repulsive>
0.1299

> <Gold.PLP.ligand.clash>
0.0000

> <Gold.PLP.ligand.torsion>
0.6605

> <Gold.PLP.Chemscore.Hbond>
4.7920

> <Gold.PLP.Chemscore.CHOScore>
0.0000

> <Gold.PLP.Chemscore.Metal>
0.0000

> <Gold.Chemscore.Hbonds>
donor molecule, donor type, donor heavy atom, donor atom, acceptor molecule, acceptor atom, score
      P1  H  6931  6943       L1    22  0.94
      P1  H  6934  6947       L1    22  0.82
      P1  H  7997  8008       L1    14  0.99
      P1  H 10752 10764       L1    15  1.85

> <Gold.PLP.Chemscore.Internal.Correction>
0.1935

> <Gold.Rescore>
     Score         DG    S(hbond)    S(metal)    S(lipo)     H(rot)  DE(clash)    DE(int)     intcor
      1.27      -9.11       3.31        0.00      23.87       4.00       0.00       7.84       ----

> <Gold.Chemscore.Fitness>
1.2718

> <Gold.Chemscore.DG>
-9.1085

> <Gold.Chemscore.ZeroCoef>
-5.4800

> <Gold.Chemscore.Hbond>
3.3124

> <Gold.Chemscore.Metal>
0.0000

> <Gold.Chemscore.Lipo>
23.8680

> <Gold.Chemscore.Internal_Hbond>
0.0000

> <Gold.Chemscore.DEClash>
0.0000

> <Gold.Chemscore.DEInternal>
7.8368

> <Gold.Chemscore.Rot>
3.9951

> <Gold.Chemscore.Internal.Correction>
   9.000000E+99

> <Gold.Chemscore.Hbonds>
donor molecule, donor type, donor heavy atom, donor atom, acceptor molecule, acceptor atom, score
      P1  H  6931  6943       L1    22  0.87
      P1  H  6934  6947       L1    22  0.80
      P1  H  7997  8008       L1    14  0.94
      P1  H 10752 10764       L1    15  0.22

> <Gold.Chemscore.Hbond.Weighted>
-11.0634

> <Gold.Chemscore.Metal.Weighted>
-0.0000

> <Gold.Chemscore.Lipo.Weighted>
-2.7926

> <Gold.Chemscore.Internal_Hbond.Weighted>
0.0000

> <Gold.Chemscore.DEClash.Weighted>
0.0000

> <Gold.Chemscore.DEInternal.Weighted>
7.8368

> <Gold.Chemscore.Rot.Weighted>
10.2274

> <Gold.Chemscore.Internal.Correction.Weighted>
   9.000000E+99

> <Gold.Protein.RotatedTorsions>
[ 6907 6896 6895 6894 ] final  -49.02 input  -60.11 | X-H torsion
[ 7974 7965 7964 7962 ] final  -17.63 input  175.53 | X-H torsion
[ 8008 7997 7996 7995 ] final  -45.13 input   59.86 | X-H torsion
[ 10167 10162 10161 10158 ] final  -70.05 input  -65.29 | X-H torsion
[ 10718 10713 10712 10709 ] final -147.65 input   66.30 | X-H torsion
[ 10763 10752 10751 10750 ] final  -18.49 input  -60.55 | X-H torsion
[ 11005 11000 10999 10996 ] final  -91.07 input  -57.11 | X-H torsion

> <Gold.Protein.ActiveResidues>
 VAL166  LYS551  ARG553  GLY616  TRP617  ASP618  TYR619  PRO620  LYS621  CYS622 
 ASP623  PHE694  ASN695  SER759  ASP760  ASP761  ALA762  ILE779  LEU786  VAL792 
 PHE793  MET794  SER795  GLU796  ALA797  LYS798  CYS799  TRP800  GLU811  SER814 

> <Gold.Protein.RotatedAtoms>
  150.8847  134.8243  159.7250 H   0  0  0  0  0  0  0  0  0  0  0  0  # atno 6907 bound_to 6896
  152.4800  134.4741  159.9654 H   0  0  0  0  0  0  0  0  0  0  0  0  # atno 6908 bound_to 6896
  151.4811  133.3507  159.2874 H   0  0  0  0  0  0  0  0  0  0  0  0  # atno 6909 bound_to 6896
  146.1932  140.3806  142.8450 H   0  0  0  0  0  0  0  0  0  0  0  0  # atno 7974 bound_to 7965
  154.3999  140.1404  156.3796 H   0  0  0  0  0  0  0  0  0  0  0  0  # atno 8008 bound_to 7997
  155.8016  140.3475  155.5385 H   0  0  0  0  0  0  0  0  0  0  0  0  # atno 8009 bound_to 7997
  155.8477  140.0936  157.1685 H   0  0  0  0  0  0  0  0  0  0  0  0  # atno 8010 bound_to 7997
  140.5383  143.2316  151.7137 H   0  0  0  0  0  0  0  0  0  0  0  0  # atno 10167 bound_to 10162
  156.4102  130.7977  151.2194 H   0  0  0  0  0  0  0  0  0  0  0  0  # atno 10718 bound_to 10713
  153.5901  135.7002  153.5427 H   0  0  0  0  0  0  0  0  0  0  0  0  # atno 10763 bound_to 10752
  153.3186  135.4080  155.1397 H   0  0  0  0  0  0  0  0  0  0  0  0  # atno 10764 bound_to 10752
  154.8602  135.3690  154.5433 H   0  0  0  0  0  0  0  0  0  0  0  0  # atno 10765 bound_to 10752
  141.1552  133.7732  156.9828 H   0  0  0  0  0  0  0  0  0  0  0  0  # atno 11005 bound_to 11000
  144.8527  140.7025  143.6158 LP  0  0  0  0  0  0  0  0  0  0  0  0  # atno 17320 bound_to 7965
  145.3727  139.1655  143.4323 LP  0  0  0  0  0  0  0  0  0  0  0  0  # atno 17321 bound_to 7965
  139.4979  144.4009  152.0182 LP  0  0  0  0  0  0  0  0  0  0  0  0  # atno 17342 bound_to 10162
  140.3116  144.3531  150.6032 LP  0  0  0  0  0  0  0  0  0  0  0  0  # atno 17343 bound_to 10162
  157.7507  131.0260  150.3943 LP  0  0  0  0  0  0  0  0  0  0  0  0  # atno 17370 bound_to 10713
  156.4239  130.3958  149.6806 LP  0  0  0  0  0  0  0  0  0  0  0  0  # atno 17371 bound_to 10713
  140.1054  134.9509  157.1987 LP  0  0  0  0  0  0  0  0  0  0  0  0  # atno 17394 bound_to 11000
  140.3263  134.2860  155.7236 LP  0  0  0  0  0  0  0  0  0  0  0  0  # atno 17395 bound_to 11000

$$$$
