AV-unprocessed.smi:3303|AV-procd|sdf|12658|dock3
  -GOLD-   2272018593D 1   1.00000     0.00000
 Structure written by MMmdl.
 45 46  0  0  0  0  0  0  0  0  3 V2000
  150.4221  137.8725  154.4170 C   0  0  0  0  0  0  0  0  0  0  0  0
  149.2509  138.7189  154.9591 C   0  0  1  0  0  0  0  0  0  0  0  0
  148.3693  139.2540  153.8140 C   0  0  0  0  0  0  0  0  0  0  0  0
  147.5851  138.1739  153.1571 N   0  3  2  0  0  0  0  0  0  0  0  0
  146.8645  138.6936  151.9694 C   0  0  0  0  0  0  0  0  0  0  0  0
  146.7126  137.4404  154.1241 C   0  0  1  0  0  0  0  0  0  0  0  0
  145.9334  136.2868  153.4619 C   0  0  0  0  0  0  0  0  0  0  0  0
  147.5421  136.8900  155.3063 C   0  0  0  0  0  0  0  0  0  0  0  0
  148.3663  137.9942  155.9964 C   0  0  1  0  0  0  0  0  0  0  0  0
  149.1784  137.4832  157.1268 N   0  3  0  0  0  0  0  0  0  0  0  0
  148.4348  136.7237  158.1534 C   0  0  0  0  0  0  0  0  0  0  0  0
  148.9222  137.0841  159.5635 C   0  0  0  0  0  0  0  0  0  0  0  0
  148.0295  136.5023  160.6430 C   0  0  0  0  0  0  0  0  0  0  0  0
  147.7960  135.1125  160.7156 C   0  0  0  0  0  0  0  0  0  0  0  0
  146.9559  134.6266  161.7365 C   0  0  0  0  0  0  0  0  0  0  0  0
  146.3839  135.5444  162.6385 C   0  0  0  0  0  0  0  0  0  0  0  0
  146.6782  136.9131  162.4793 C   0  0  0  0  0  0  0  0  0  0  0  0
  147.4823  137.3895  161.5038 N   0  0  0  0  0  0  0  0  0  0  0  0
  150.0782  136.9835  153.8883 H   0  0  0  0  0  0  0  0  0  0  0  0
  151.0877  137.5461  155.2162 H   0  0  0  0  0  0  0  0  0  0  0  0
  151.0265  138.4514  153.7180 H   0  0  0  0  0  0  0  0  0  0  0  0
  149.6964  139.5832  155.4541 H   0  0  0  0  0  0  0  0  0  0  0  0
  147.6810  140.0094  154.1973 H   0  0  0  0  0  0  0  0  0  0  0  0
  148.9972  139.7565  153.0766 H   0  0  0  0  0  0  0  0  0  0  0  0
  146.0396  139.3433  152.2645 H   0  0  0  0  0  0  0  0  0  0  0  0
  146.4682  137.8857  151.3550 H   0  0  0  0  0  0  0  0  0  0  0  0
  147.5353  139.2684  151.3301 H   0  0  0  0  0  0  0  0  0  0  0  0
  145.9858  138.1513  154.5213 H   0  0  0  0  0  0  0  0  0  0  0  0
  145.3796  135.7138  154.2060 H   0  0  0  0  0  0  0  0  0  0  0  0
  146.6030  135.5964  152.9478 H   0  0  0  0  0  0  0  0  0  0  0  0
  145.1989  136.6468  152.7418 H   0  0  0  0  0  0  0  0  0  0  0  0
  146.8625  136.4297  156.0233 H   0  0  0  0  0  0  0  0  0  0  0  0
  148.1994  136.0917  154.9599 H   0  0  0  0  0  0  0  0  0  0  0  0
  147.6736  138.7316  156.4062 H   0  0  0  0  0  0  0  0  0  0  0  0
  149.9236  136.9058  156.7639 H   0  0  0  0  0  0  0  0  0  0  0  0
  147.3700  136.9431  158.0631 H   0  0  0  0  0  0  0  0  0  0  0  0
  148.5612  135.6539  157.9872 H   0  0  0  0  0  0  0  0  0  0  0  0
  149.9421  136.7253  159.7093 H   0  0  0  0  0  0  0  0  0  0  0  0
  148.9581  138.1681  159.6832 H   0  0  0  0  0  0  0  0  0  0  0  0
  148.2490  134.4319  160.0095 H   0  0  0  0  0  0  0  0  0  0  0  0
  146.7539  133.5696  161.8258 H   0  0  0  0  0  0  0  0  0  0  0  0
  145.7356  135.2077  163.4339 H   0  0  0  0  0  0  0  0  0  0  0  0
  146.2557  137.6447  163.1519 H   0  0  0  0  0  0  0  0  0  0  0  0
  149.5914  138.2808  157.5894 H   0  0  0  0  0  0  0  0  0  0  0  0
  148.2577  137.5059  152.8079 H   0  0  0  0  0  0  0  0  0  0  0  0
  1  2  1  0  0  0  0
  1 19  1  0  0  0  0
  1 20  1  0  0  0  0
  1 21  1  0  0  0  0
  2  9  1  0  0  0  0
  2  3  1  0  0  0  0
  2 22  1  0  0  0  0
  3  4  1  0  0  0  0
  3 23  1  0  0  0  0
  3 24  1  0  0  0  0
  4  5  1  0  0  0  0
  4  6  1  0  0  0  0
  4 45  1  0  0  0  0
  5 25  1  0  0  0  0
  5 26  1  0  0  0  0
  5 27  1  0  0  0  0
  6  7  1  0  0  0  0
  6  8  1  0  0  0  0
  6 28  1  0  0  0  0
  7 29  1  0  0  0  0
  7 30  1  0  0  0  0
  7 31  1  0  0  0  0
  8  9  1  0  0  0  0
  8 32  1  0  0  0  0
  8 33  1  0  0  0  0
  9 10  1  0  0  0  0
  9 34  1  0  0  0  0
 10 11  1  0  0  0  0
 10 35  1  0  0  0  0
 10 44  1  0  0  0  0
 11 12  1  0  0  0  0
 11 36  1  0  0  0  0
 11 37  1  0  0  0  0
 12 13  1  0  0  0  0
 12 38  1  0  0  0  0
 12 39  1  0  0  0  0
 13 18  1  0  0  0  0
 13 14  2  0  0  0  0
 14 15  1  0  0  0  0
 14 40  1  0  0  0  0
 15 16  2  0  0  0  0
 15 41  1  0  0  0  0
 16 17  1  0  0  0  0
 16 42  1  0  0  0  0
 17 18  2  0  0  0  0
 17 43  1  0  0  0  0
M  CHG  1   4   1
M  CHG  1  10   1
M  END
> <s_m_source_file>
AV-unprocessed.smi

> <i_m_source_file_index>
3303

> <i_lp_mmshare_version>
43012

> <i_f3d_flags>
0

> <s_epik_input>
W0NIM11bQ0BASF0xW0NIMl1OKFtDSDNdKVtDQEBIXShbQ0gzXSlbQ0gyXVtDQEhdMVtOSF1bQ0gyXVtDSDJdYzJbY0hdW2NIXVtjSF1bY0hdbjI=

> <s_epik_cmdline>
J2VwaWtfcHl0aG9uJywgJy1waCcsICc3LjAnLCAnLXRuJywgJzgnLCAnLW1hJywgJzIwMCcsICctbWV0YWxfYmluZGluZycsICctaW1hZScsICc8aW5maWxlLm1hZT4nLCAnLW9tYWUnLCAnPG91dGZpbGUubWFlPic=

> <r_epik_Ionization_Penalty>
0.0769462

> <r_epik_Ionization_Penalty_Charging>
0.0759813

> <r_epik_Ionization_Penalty_Neutral>
0.000964829

> <r_epik_State_Penalty>
0.0654373

> <r_epik_Charging_Adjusted_Penalty>
0.141419

> <i_epik_Tot_Q>
2

> <i_epik_Tot_abs_Q>
2

> <r_epik_Metal_State_Penalty>
0.0656439

> <b_epik_Metal_Only>
0

> <s_lp_Force_Field>
OPLS_2005

> <r_lp_Energy>
30.9153

> <b_lp_Chiralities_Consistent>
1

> <s_lp_Variant>
AV-unprocessed.smi:3303-2

> <Gold.Version>
5.8.1

> <Gold.Id.Protein>
6NUR|6NUR_protein|mol2

> <Gold.PLP.Fitness>
41.1165

> <Gold.PLP.PLP>
-30.3618

> <Gold.PLP.part.hbond>
-3.0000

> <Gold.PLP.part.metal>
0.0000

> <Gold.PLP.part.buried>
-1.8861

> <Gold.PLP.part.nonpolar>
-25.5874

> <Gold.PLP.part.repulsive>
0.0394

> <Gold.PLP.ligand.clash>
0.0000

> <Gold.PLP.ligand.torsion>
0.3282

> <Gold.PLP.Chemscore.Hbond>
3.8000

> <Gold.PLP.Chemscore.CHOScore>
0.0000

> <Gold.PLP.Chemscore.Metal>
0.0000

> <Gold.Chemscore.Hbonds>
donor molecule, donor type, donor heavy atom, donor atom, acceptor molecule, acceptor atom, score
      L1  H     4    45       P1  7948  2.00
      P1  H  6931  6943       L1    18  0.71
      P1  H  6934  6947       L1    18  0.83

> <Gold.PLP.Chemscore.Internal.Correction>
0.0111

> <Gold.Rescore>
     Score         DG    S(hbond)    S(metal)    S(lipo)     H(rot)  DE(clash)    DE(int)     intcor
     18.00     -18.35       2.22        0.00      76.80       1.37       0.00       0.35       ----

> <Gold.Chemscore.Fitness>
17.9977

> <Gold.Chemscore.DG>
-18.3489

> <Gold.Chemscore.ZeroCoef>
-5.4800

> <Gold.Chemscore.Hbond>
2.2163

> <Gold.Chemscore.Metal>
0.0000

> <Gold.Chemscore.Lipo>
76.7956

> <Gold.Chemscore.Internal_Hbond>
0.0000

> <Gold.Chemscore.DEClash>
0.0000

> <Gold.Chemscore.DEInternal>
0.3512

> <Gold.Chemscore.Rot>
1.3744

> <Gold.Chemscore.Internal.Correction>
   9.000000E+99

> <Gold.Chemscore.Hbonds>
donor molecule, donor type, donor heavy atom, donor atom, acceptor molecule, acceptor atom, score
      L1  H     4    45       P1  7948  1.00
      P1  H  6931  6943       L1    18  0.12
      P1  H  6934  6947       L1    18  0.74

> <Gold.Chemscore.Hbond.Weighted>
-7.4023

> <Gold.Chemscore.Metal.Weighted>
-0.0000

> <Gold.Chemscore.Lipo.Weighted>
-8.9851

> <Gold.Chemscore.Internal_Hbond.Weighted>
0.0000

> <Gold.Chemscore.DEClash.Weighted>
0.0000

> <Gold.Chemscore.DEInternal.Weighted>
0.3512

> <Gold.Chemscore.Rot.Weighted>
3.5185

> <Gold.Chemscore.Internal.Correction.Weighted>
   9.000000E+99

> <Gold.Protein.RotatedTorsions>
[ 6907 6896 6895 6894 ] final   87.82 input  -60.11 | X-H torsion
[ 7974 7965 7964 7962 ] final   44.54 input  175.53 | X-H torsion
[ 8008 7997 7996 7995 ] final   30.62 input   59.86 | X-H torsion
[ 10167 10162 10161 10158 ] final -124.78 input  -65.29 | X-H torsion
[ 10718 10713 10712 10709 ] final  158.76 input   66.30 | X-H torsion
[ 10763 10752 10751 10750 ] final -135.76 input  -60.55 | X-H torsion
[ 11005 11000 10999 10996 ] final   83.40 input  -57.11 | X-H torsion

> <Gold.Protein.ActiveResidues>
 VAL166  LYS551  ARG553  GLY616  TRP617  ASP618  TYR619  PRO620  LYS621  CYS622 
 ASP623  PHE694  ASN695  SER759  ASP760  ASP761  ALA762  ILE779  LEU786  VAL792 
 PHE793  MET794  SER795  GLU796  ALA797  LYS798  CYS799  TRP800  GLU811  SER814 

> <Gold.Protein.RotatedAtoms>
  152.5416  134.2217  159.8790 H   0  0  0  0  0  0  0  0  0  0  0  0  # atno 6907 bound_to 6896
  151.2194  133.4504  159.2608 H   0  0  0  0  0  0  0  0  0  0  0  0  # atno 6908 bound_to 6896
  151.0820  134.9877  159.8416 H   0  0  0  0  0  0  0  0  0  0  0  0  # atno 6909 bound_to 6896
  146.0560  139.5063  142.9688 H   0  0  0  0  0  0  0  0  0  0  0  0  # atno 7974 bound_to 7965
  155.0934  140.3222  155.4567 H   0  0  0  0  0  0  0  0  0  0  0  0  # atno 8008 bound_to 7997
  156.2736  140.2074  156.6007 H   0  0  0  0  0  0  0  0  0  0  0  0  # atno 8009 bound_to 7997
  154.6886  140.0519  157.0327 H   0  0  0  0  0  0  0  0  0  0  0  0  # atno 8010 bound_to 7997
  139.9891  143.5660  152.2349 H   0  0  0  0  0  0  0  0  0  0  0  0  # atno 10167 bound_to 10162
  157.1735  131.0615  151.2170 H   0  0  0  0  0  0  0  0  0  0  0  0  # atno 10718 bound_to 10713
  154.8697  135.3693  154.4951 H   0  0  0  0  0  0  0  0  0  0  0  0  # atno 10763 bound_to 10752
  153.5595  135.7023  153.5559 H   0  0  0  0  0  0  0  0  0  0  0  0  # atno 10764 bound_to 10752
  153.3641  135.4038  155.1704 H   0  0  0  0  0  0  0  0  0  0  0  0  # atno 10765 bound_to 10752
  139.9032  134.8142  156.2304 H   0  0  0  0  0  0  0  0  0  0  0  0  # atno 11005 bound_to 11000
  145.6643  141.0232  143.1692 LP  0  0  0  0  0  0  0  0  0  0  0  0  # atno 17320 bound_to 7965
  144.7148  139.8237  143.7402 LP  0  0  0  0  0  0  0  0  0  0  0  0  # atno 17321 bound_to 7965
  139.6353  144.7649  151.2451 LP  0  0  0  0  0  0  0  0  0  0  0  0  # atno 17342 bound_to 10162
  140.7461  143.6409  150.8336 LP  0  0  0  0  0  0  0  0  0  0  0  0  # atno 17343 bound_to 10162
  157.4021  130.7339  149.6774 LP  0  0  0  0  0  0  0  0  0  0  0  0  # atno 17370 bound_to 10713
  155.9735  130.4118  150.3999 LP  0  0  0  0  0  0  0  0  0  0  0  0  # atno 17371 bound_to 10713
  141.0349  133.6969  156.1494 LP  0  0  0  0  0  0  0  0  0  0  0  0  # atno 17394 bound_to 11000
  140.7042  134.4531  157.5585 LP  0  0  0  0  0  0  0  0  0  0  0  0  # atno 17395 bound_to 11000

$$$$
