AV-unprocessed.smi:703|AV-procd|sdf|3428|dock5
  -GOLD-   22720 0413D 1   1.00000     0.00000
 Structure written by MMmdl.
 38 39  0  0  0  0  0  0  0  0  2 V2000
  151.3392  145.2543  159.1101 C   0  0  0  0  0  0  0  0  0  0  0  0
  151.8484  144.3592  157.9723 C   0  0  0  0  0  0  0  0  0  0  0  0
  150.7621  143.5605  157.3574 N   0  3  1  0  0  0  0  0  0  0  0  0
  151.2126  142.4715  156.4655 C   0  0  0  0  0  0  0  0  0  0  0  0
  150.0757  141.4461  156.4492 C   0  0  2  0  0  0  0  0  0  0  0  0
  149.0266  141.7723  155.3733 C   0  0  0  0  0  0  0  0  0  0  0  0
  149.5017  141.5426  157.8692 C   0  0  1  0  0  0  0  0  0  0  0  0
  150.1600  140.5633  158.7402 N   0  0  0  0  0  0  0  0  0  0  0  0
  150.2210  138.9194  158.2188 S   0  0  0  0  0  0  0  0  0  0  0  0
  150.2071  138.0677  159.4183 O   0  0  0  0  0  0  0  0  0  0  0  0
  149.1882  138.7486  157.1861 O   0  0  0  0  0  0  0  0  0  0  0  0
  151.8850  138.8056  157.4369 C   0  0  0  0  0  0  0  0  0  0  0  0
  151.7469  138.2547  156.0470 C   0  0  0  0  0  0  0  0  0  0  0  0
  151.7237  138.9633  154.8141 C   0  0  0  0  0  0  0  0  0  0  0  0
  151.5834  137.9757  153.8821 C   0  0  0  0  0  0  0  0  0  0  0  0
  151.5202  136.7609  154.4830 O   0  0  0  0  0  0  0  0  0  0  0  0
  151.6236  136.9497  155.8658 N   0  0  0  0  0  0  0  0  0  0  0  0
  149.8092  142.9795  158.3310 C   0  0  0  0  0  0  0  0  0  0  0  0
  152.1668  145.7854  159.5808 H   0  0  0  0  0  0  0  0  0  0  0  0
  150.8420  144.6663  159.8821 H   0  0  0  0  0  0  0  0  0  0  0  0
  150.6337  146.0032  158.7494 H   0  0  0  0  0  0  0  0  0  0  0  0
  152.3478  144.9593  157.2100 H   0  0  0  0  0  0  0  0  0  0  0  0
  152.5976  143.6763  158.3750 H   0  0  0  0  0  0  0  0  0  0  0  0
  151.4661  142.8410  155.4712 H   0  0  0  0  0  0  0  0  0  0  0  0
  152.1075  142.0075  156.8836 H   0  0  0  0  0  0  0  0  0  0  0  0
  150.4664  140.4486  156.2416 H   0  0  0  0  0  0  0  0  0  0  0  0
  148.5948  142.7630  155.5188 H   0  0  0  0  0  0  0  0  0  0  0  0
  148.2105  141.0493  155.3926 H   0  0  0  0  0  0  0  0  0  0  0  0
  149.4658  141.7436  154.3756 H   0  0  0  0  0  0  0  0  0  0  0  0
  148.4291  141.3423  157.8750 H   0  0  0  0  0  0  0  0  0  0  0  0
  151.0867  140.8875  159.0171 H   0  0  0  0  0  0  0  0  0  0  0  0
  152.3343  139.7990  157.4309 H   0  0  0  0  0  0  0  0  0  0  0  0
  152.5113  138.1592  158.0511 H   0  0  0  0  0  0  0  0  0  0  0  0
  151.8025  140.0261  154.6405 H   0  0  0  0  0  0  0  0  0  0  0  0
  151.5159  137.9763  152.8044 H   0  0  0  0  0  0  0  0  0  0  0  0
  150.2119  143.0000  159.3451 H   0  0  0  0  0  0  0  0  0  0  0  0
  148.9039  143.5872  158.3334 H   0  0  0  0  0  0  0  0  0  0  0  0
  150.2162  144.1885  156.7844 H   0  0  0  0  0  0  0  0  0  0  0  0
  1  2  1  0  0  0  0
  1 19  1  0  0  0  0
  1 20  1  0  0  0  0
  1 21  1  0  0  0  0
  2  3  1  0  0  0  0
  2 22  1  0  0  0  0
  2 23  1  0  0  0  0
  3 18  1  0  0  0  0
  3  4  1  0  0  0  0
  3 38  1  0  0  0  0
  4  5  1  0  0  0  0
  4 24  1  0  0  0  0
  4 25  1  0  0  0  0
  5  6  1  0  0  0  0
  5  7  1  0  0  0  0
  5 26  1  0  0  0  0
  6 27  1  0  0  0  0
  6 28  1  0  0  0  0
  6 29  1  0  0  0  0
  7  8  1  0  0  0  0
  7 18  1  0  0  0  0
  7 30  1  0  0  0  0
  8  9  1  0  0  0  0
  8 31  1  0  0  0  0
  9 10  2  0  0  0  0
  9 11  2  0  0  0  0
  9 12  1  0  0  0  0
 12 13  1  0  0  0  0
 12 32  1  0  0  0  0
 12 33  1  0  0  0  0
 13 17  2  0  0  0  0
 13 14  1  0  0  0  0
 14 15  2  0  0  0  0
 14 34  1  0  0  0  0
 15 16  1  0  0  0  0
 15 35  1  0  0  0  0
 16 17  1  0  0  0  0
 18 36  1  0  0  0  0
 18 37  1  0  0  0  0
M  CHG  1   3   1
M  END
> <s_m_source_file>
AV-unprocessed.smi

> <i_m_source_file_index>
703

> <i_lp_mmshare_version>
43012

> <i_f3d_flags>
0

> <s_epik_input>
W0NIM11bQ0gyXU4xW0NIMl1bQ0BASF0oW0NIM10pW0NASF0oW0NIMl0xKVtOSF1TKD1PKSg9TylbQ0gyXWMyW2NIXVtjSF1vbjI=

> <s_epik_cmdline>
J2VwaWtfcHl0aG9uJywgJy1waCcsICc3LjAnLCAnLXRuJywgJzgnLCAnLW1hJywgJzIwMCcsICctbWV0YWxfYmluZGluZycsICctaW1hZScsICc8aW5maWxlLm1hZT4nLCAnLW9tYWUnLCAnPG91dGZpbGUubWFlPic=

> <r_epik_Ionization_Penalty>
0.00324529

> <r_epik_Ionization_Penalty_Charging>
0.0019384

> <r_epik_Ionization_Penalty_Neutral>
0.00130689

> <r_epik_State_Penalty>
0.00218682

> <r_epik_Charging_Adjusted_Penalty>
0.00412522

> <i_epik_Tot_Q>
1

> <i_epik_Tot_abs_Q>
1

> <r_epik_Metal_State_Penalty>
0.310831

> <b_epik_Metal_Only>
0

> <s_lp_Force_Field>
OPLS_2005

> <r_lp_Energy>
19.6453

> <b_lp_Chiralities_Consistent>
1

> <s_lp_Variant>
AV-unprocessed.smi:703-3

> <Gold.Version>
5.8.1

> <Gold.Id.Protein>
6NUR|6NUR_protein|mol2

> <Gold.PLP.Fitness>
38.2931

> <Gold.PLP.PLP>
-28.3941

> <Gold.PLP.part.hbond>
-3.9272

> <Gold.PLP.part.metal>
0.0000

> <Gold.PLP.part.buried>
-3.3719

> <Gold.PLP.part.nonpolar>
-21.6353

> <Gold.PLP.part.repulsive>
0.1572

> <Gold.PLP.ligand.clash>
0.0000

> <Gold.PLP.ligand.torsion>
1.0593

> <Gold.PLP.Chemscore.Hbond>
3.0000

> <Gold.PLP.Chemscore.CHOScore>
0.9491

> <Gold.PLP.Chemscore.Metal>
0.0000

> <Gold.Chemscore.Hbonds>
donor molecule, donor type, donor heavy atom, donor atom, acceptor molecule, acceptor atom, score
      L1  H     3    38       P1  8028  2.00
      P1  H 10752 10764       L1    16  0.75
      L1  C    15    35       P1  7949  0.89

> <Gold.PLP.Chemscore.Internal.Correction>
0.1703

> <Gold.Rescore>
     Score         DG    S(hbond)    S(metal)    S(lipo)     H(rot)  DE(clash)    DE(int)     intcor
     13.54     -16.28       1.77        0.00      84.30       1.94       0.68       2.06       ----

> <Gold.Chemscore.Fitness>
13.5416

> <Gold.Chemscore.DG>
-16.2832

> <Gold.Chemscore.ZeroCoef>
-5.4800

> <Gold.Chemscore.Hbond>
1.7686

> <Gold.Chemscore.Metal>
0.0000

> <Gold.Chemscore.Lipo>
84.2960

> <Gold.Chemscore.Internal_Hbond>
0.0000

> <Gold.Chemscore.DEClash>
0.6849

> <Gold.Chemscore.DEInternal>
2.0568

> <Gold.Chemscore.Rot>
1.9400

> <Gold.Chemscore.Internal.Correction>
   9.000000E+99

> <Gold.Chemscore.Hbonds>
donor molecule, donor type, donor heavy atom, donor atom, acceptor molecule, acceptor atom, score
      L1  H     3    38       P1  8028  0.97
      P1  H 10752 10764       L1    16  0.09

> <Gold.Chemscore.Hbond.Weighted>
-5.9071

> <Gold.Chemscore.Metal.Weighted>
-0.0000

> <Gold.Chemscore.Lipo.Weighted>
-9.8626

> <Gold.Chemscore.Internal_Hbond.Weighted>
0.0000

> <Gold.Chemscore.DEClash.Weighted>
0.6849

> <Gold.Chemscore.DEInternal.Weighted>
2.0568

> <Gold.Chemscore.Rot.Weighted>
4.9665

> <Gold.Chemscore.Internal.Correction.Weighted>
   9.000000E+99

> <Gold.Protein.RotatedTorsions>
[ 6907 6896 6895 6894 ] final  112.42 input  -60.11 | X-H torsion
[ 7974 7965 7964 7962 ] final -106.05 input  175.53 | X-H torsion
[ 8008 7997 7996 7995 ] final  150.07 input   59.86 | X-H torsion
[ 10167 10162 10161 10158 ] final -177.50 input  -65.29 | X-H torsion
[ 10718 10713 10712 10709 ] final   30.40 input   66.30 | X-H torsion
[ 10763 10752 10751 10750 ] final  -71.46 input  -60.55 | X-H torsion
[ 11005 11000 10999 10996 ] final  -39.20 input  -57.11 | X-H torsion

> <Gold.Protein.ActiveResidues>
 VAL166  LYS551  ARG553  GLY616  TRP617  ASP618  TYR619  PRO620  LYS621  CYS622 
 ASP623  PHE694  ASN695  SER759  ASP760  ASP761  ALA762  ILE779  LEU786  VAL792 
 PHE793  MET794  SER795  GLU796  ALA797  LYS798  CYS799  TRP800  GLU811  SER814 

> <Gold.Protein.RotatedAtoms>
  152.4917  133.8519  159.7205 H   0  0  0  0  0  0  0  0  0  0  0  0  # atno 6907 bound_to 6896
  150.9053  133.7056  159.2875 H   0  0  0  0  0  0  0  0  0  0  0  0  # atno 6908 bound_to 6896
  151.4484  135.1031  159.9743 H   0  0  0  0  0  0  0  0  0  0  0  0  # atno 6909 bound_to 6896
  145.2227  140.9140  143.3250 H   0  0  0  0  0  0  0  0  0  0  0  0  # atno 7974 bound_to 7965
  156.2730  140.2085  156.5958 H   0  0  0  0  0  0  0  0  0  0  0  0  # atno 8008 bound_to 7997
  154.6946  140.0527  157.0421 H   0  0  0  0  0  0  0  0  0  0  0  0  # atno 8009 bound_to 7997
  155.0819  140.3187  155.4602 H   0  0  0  0  0  0  0  0  0  0  0  0  # atno 8010 bound_to 7997
  139.5477  144.2192  152.1019 H   0  0  0  0  0  0  0  0  0  0  0  0  # atno 10167 bound_to 10162
  157.2591  130.7152  149.6445 H   0  0  0  0  0  0  0  0  0  0  0  0  # atno 10718 bound_to 10713
  154.4320  135.5961  153.6075 H   0  0  0  0  0  0  0  0  0  0  0  0  # atno 10763 bound_to 10752
  152.9799  135.5977  154.3827 H   0  0  0  0  0  0  0  0  0  0  0  0  # atno 10764 bound_to 10752
  154.3667  135.2841  155.2268 H   0  0  0  0  0  0  0  0  0  0  0  0  # atno 10765 bound_to 10752
  141.0084  133.6920  156.2155 H   0  0  0  0  0  0  0  0  0  0  0  0  # atno 11005 bound_to 11000
  144.9750  139.3841  143.6290 LP  0  0  0  0  0  0  0  0  0  0  0  0  # atno 17320 bound_to 7965
  146.3372  139.8865  142.8816 LP  0  0  0  0  0  0  0  0  0  0  0  0  # atno 17321 bound_to 7965
  140.1681  144.4961  150.6594 LP  0  0  0  0  0  0  0  0  0  0  0  0  # atno 17342 bound_to 10162
  140.6730  143.2293  151.5577 LP  0  0  0  0  0  0  0  0  0  0  0  0  # atno 17343 bound_to 10162
  155.9664  130.4403  150.5294 LP  0  0  0  0  0  0  0  0  0  0  0  0  # atno 17370 bound_to 10713
  157.3194  131.0679  151.1942 LP  0  0  0  0  0  0  0  0  0  0  0  0  # atno 17371 bound_to 10713
  140.6774  134.4803  157.5588 LP  0  0  0  0  0  0  0  0  0  0  0  0  # atno 17394 bound_to 11000
  139.9076  134.8415  156.1647 LP  0  0  0  0  0  0  0  0  0  0  0  0  # atno 17395 bound_to 11000

$$$$
