AV-unprocessed.smi:927|AV-procd|sdf|4188|dock4
  -GOLD-   22720 2 93D 1   1.00000     0.00000
 Structure written by MMmdl.
 21 21  0  0  0  0  0  0  0  0  2 V2000
  145.6038  138.3144  151.7831 N   0  3  0  0  0  0  0  0  0  0  0  0
  145.5124  136.8800  152.1087 C   0  0  0  0  0  0  0  0  0  0  0  0
  144.8306  136.0802  150.9841 C   0  0  1  0  0  0  0  0  0  0  0  0
  145.3060  136.5514  149.7379 O   0  0  0  0  0  0  0  0  0  0  0  0
  145.0679  134.5872  151.1486 C   0  0  0  0  0  0  0  0  0  0  0  0
  143.9894  133.6781  151.2101 C   0  0  0  0  0  0  0  0  0  0  0  0
  144.2722  132.3055  151.3584 C   0  0  0  0  0  0  0  0  0  0  0  0
  145.5262  131.8122  151.4421 N   0  0  0  0  0  0  0  0  0  0  0  0
  146.5541  132.6853  151.3802 C   0  0  0  0  0  0  0  0  0  0  0  0
  146.3802  134.0763  151.2333 C   0  0  0  0  0  0  0  0  0  0  0  0
  146.5064  138.6687  152.0652 H   0  0  0  0  0  0  0  0  0  0  0  0
  144.8754  138.8189  152.2678 H   0  0  0  0  0  0  0  0  0  0  0  0
  146.5138  136.4950  152.3056 H   0  0  0  0  0  0  0  0  0  0  0  0
  144.9450  136.7807  153.0348 H   0  0  0  0  0  0  0  0  0  0  0  0
  143.7554  136.2632  151.0120 H   0  0  0  0  0  0  0  0  0  0  0  0
  145.6767  135.8221  149.2634 H   0  0  0  0  0  0  0  0  0  0  0  0
  142.9667  134.0198  151.1448 H   0  0  0  0  0  0  0  0  0  0  0  0
  143.4694  131.5848  151.4095 H   0  0  0  0  0  0  0  0  0  0  0  0
  147.5458  132.2631  151.4486 H   0  0  0  0  0  0  0  0  0  0  0  0
  147.2385  134.7305  151.1878 H   0  0  0  0  0  0  0  0  0  0  0  0
  145.4900  138.4356  150.7866 H   0  0  0  0  0  0  0  0  0  0  0  0
  1  2  1  0  0  0  0
  1 11  1  0  0  0  0
  1 12  1  0  0  0  0
  1 21  1  0  0  0  0
  2  3  1  0  0  0  0
  2 13  1  0  0  0  0
  2 14  1  0  0  0  0
  3  4  1  0  0  0  0
  3  5  1  0  0  0  0
  3 15  1  0  0  0  0
  4 16  1  0  0  0  0
  5 10  1  0  0  0  0
  5  6  2  0  0  0  0
  6  7  1  0  0  0  0
  6 17  1  0  0  0  0
  7  8  2  0  0  0  0
  7 18  1  0  0  0  0
  8  9  1  0  0  0  0
  9 10  2  0  0  0  0
  9 19  1  0  0  0  0
 10 20  1  0  0  0  0
M  CHG  1   1   1
M  END
> <s_m_source_file>
AV-unprocessed.smi

> <i_m_source_file_index>
927

> <i_lp_mmshare_version>
43012

> <i_f3d_flags>
0

> <s_epik_input>
W05IMl1bQ0gyXVtDQEhdKFtPSF0pYzFbY0hdW2NIXW5bY0hdW2NIXTE=

> <s_epik_cmdline>
J2VwaWtfcHl0aG9uJywgJy1waCcsICc3LjAnLCAnLXRuJywgJzgnLCAnLW1hJywgJzIwMCcsICctbWV0YWxfYmluZGluZycsICctaW1hZScsICc8aW5maWxlLm1hZT4nLCAnLW9tYWUnLCAnPG91dGZpbGUubWFlPic=

> <r_epik_Ionization_Penalty>
0.0159363

> <r_epik_Ionization_Penalty_Charging>
0.0140431

> <r_epik_Ionization_Penalty_Neutral>
0.00189321

> <r_epik_State_Penalty>
0.0109628

> <r_epik_Charging_Adjusted_Penalty>
0.0250059

> <i_epik_Tot_Q>
1

> <i_epik_Tot_abs_Q>
1

> <r_epik_Metal_State_Penalty>
0.0113463

> <b_epik_Metal_Only>
0

> <s_lp_Force_Field>
OPLS_2005

> <r_lp_Energy>
4.52461

> <b_lp_Chiralities_Consistent>
1

> <s_lp_Variant>
AV-unprocessed.smi:927-2

> <Gold.Version>
5.8.1

> <Gold.Id.Protein>
6NUR|6NUR_protein|mol2

> <Gold.PLP.Fitness>
34.2817

> <Gold.PLP.PLP>
-20.9818

> <Gold.PLP.part.hbond>
-3.8433

> <Gold.PLP.part.metal>
0.0000

> <Gold.PLP.part.buried>
-2.5280

> <Gold.PLP.part.nonpolar>
-14.9218

> <Gold.PLP.part.repulsive>
0.1687

> <Gold.PLP.ligand.clash>
0.0000

> <Gold.PLP.ligand.torsion>
0.1933

> <Gold.PLP.Chemscore.Hbond>
3.5600

> <Gold.PLP.Chemscore.CHOScore>
1.0000

> <Gold.PLP.Chemscore.Metal>
0.0000

> <Gold.Chemscore.Hbonds>
donor molecule, donor type, donor heavy atom, donor atom, acceptor molecule, acceptor atom, score
      L1  H     1    12       P1 10175  1.98
      L1  H     1    21       P1 10171  0.58
      L1  H     4    16       P1  7921  1.00
      L1  C     9    19       P1 10747  1.00

> <Gold.PLP.Chemscore.Internal.Correction>
0.0065

> <Gold.Rescore>
     Score         DG    S(hbond)    S(metal)    S(lipo)     H(rot)  DE(clash)    DE(int)     intcor
     13.55     -14.08       2.56        0.00      42.09       1.90       0.34       0.19       ----

> <Gold.Chemscore.Fitness>
13.5493

> <Gold.Chemscore.DG>
-14.0817

> <Gold.Chemscore.ZeroCoef>
-5.4800

> <Gold.Chemscore.Hbond>
2.5558

> <Gold.Chemscore.Metal>
0.0000

> <Gold.Chemscore.Lipo>
42.0897

> <Gold.Chemscore.Internal_Hbond>
0.0000

> <Gold.Chemscore.DEClash>
0.3406

> <Gold.Chemscore.DEInternal>
0.1919

> <Gold.Chemscore.Rot>
1.8981

> <Gold.Chemscore.Internal.Correction>
   9.000000E+99

> <Gold.Chemscore.Hbonds>
donor molecule, donor type, donor heavy atom, donor atom, acceptor molecule, acceptor atom, score
      L1  H     1    12       P1 10175  0.87
      L1  H     1    21       P1 10171  0.58
      L1  H     4    16       P1  7921  0.97

> <Gold.Chemscore.Hbond.Weighted>
-8.5364

> <Gold.Chemscore.Metal.Weighted>
-0.0000

> <Gold.Chemscore.Lipo.Weighted>
-4.9245

> <Gold.Chemscore.Internal_Hbond.Weighted>
0.0000

> <Gold.Chemscore.DEClash.Weighted>
0.3406

> <Gold.Chemscore.DEInternal.Weighted>
0.1919

> <Gold.Chemscore.Rot.Weighted>
4.8592

> <Gold.Chemscore.Internal.Correction.Weighted>
   9.000000E+99

> <Gold.Protein.RotatedTorsions>
[ 6907 6896 6895 6894 ] final    8.31 input  -60.11 | X-H torsion
[ 7974 7965 7964 7962 ] final   50.77 input  175.53 | X-H torsion
[ 8008 7997 7996 7995 ] final  -80.43 input   59.86 | X-H torsion
[ 10167 10162 10161 10158 ] final  -24.43 input  -65.29 | X-H torsion
[ 10718 10713 10712 10709 ] final   51.20 input   66.30 | X-H torsion
[ 10763 10752 10751 10750 ] final  -82.04 input  -60.55 | X-H torsion
[ 11005 11000 10999 10996 ] final  103.23 input  -57.11 | X-H torsion

> <Gold.Protein.ActiveResidues>
 VAL166  LYS551  ARG553  GLY616  TRP617  ASP618  TYR619  PRO620  LYS621  CYS622 
 ASP623  PHE694  ASN695  SER759  ASP760  ASP761  ALA762  ILE779  LEU786  VAL792 
 PHE793  MET794  SER795  GLU796  ALA797  LYS798  CYS799  TRP800  GLU811  SER814 

> <Gold.Protein.RotatedAtoms>
  151.7040  135.0925  160.0255 H   0  0  0  0  0  0  0  0  0  0  0  0  # atno 6907 bound_to 6896
  152.3703  133.6406  159.6090 H   0  0  0  0  0  0  0  0  0  0  0  0  # atno 6908 bound_to 6896
  150.7668  133.9197  159.3436 H   0  0  0  0  0  0  0  0  0  0  0  0  # atno 6909 bound_to 6896
  145.9979  139.4407  143.0033 H   0  0  0  0  0  0  0  0  0  0  0  0  # atno 7974 bound_to 7965
  154.5882  140.0663  156.9202 H   0  0  0  0  0  0  0  0  0  0  0  0  # atno 8008 bound_to 7997
  155.2341  140.3339  155.4281 H   0  0  0  0  0  0  0  0  0  0  0  0  # atno 8009 bound_to 7997
  156.2238  140.1810  156.7398 H   0  0  0  0  0  0  0  0  0  0  0  0  # atno 8010 bound_to 7997
  140.7288  143.4354  151.0738 H   0  0  0  0  0  0  0  0  0  0  0  0  # atno 10167 bound_to 10162
  157.4958  130.8405  149.8257 H   0  0  0  0  0  0  0  0  0  0  0  0  # atno 10718 bound_to 10713
  154.5709  135.5605  153.7094 H   0  0  0  0  0  0  0  0  0  0  0  0  # atno 10763 bound_to 10752
  153.0048  135.6296  154.2116 H   0  0  0  0  0  0  0  0  0  0  0  0  # atno 10764 bound_to 10752
  154.2056  135.2876  155.2956 H   0  0  0  0  0  0  0  0  0  0  0  0  # atno 10765 bound_to 10752
  139.8782  134.9255  156.5178 H   0  0  0  0  0  0  0  0  0  0  0  0  # atno 11005 bound_to 11000
  145.7532  140.9964  143.1239 LP  0  0  0  0  0  0  0  0  0  0  0  0  # atno 17320 bound_to 7965
  144.6909  139.9240  143.7469 LP  0  0  0  0  0  0  0  0  0  0  0  0  # atno 17321 bound_to 7965
  139.8015  143.8077  152.3163 LP  0  0  0  0  0  0  0  0  0  0  0  0  # atno 17342 bound_to 10162
  139.8095  144.7341  150.9716 LP  0  0  0  0  0  0  0  0  0  0  0  0  # atno 17343 bound_to 10162
  156.0200  130.3799  150.1992 LP  0  0  0  0  0  0  0  0  0  0  0  0  # atno 17370 bound_to 10713
  157.0182  130.9971  151.3347 LP  0  0  0  0  0  0  0  0  0  0  0  0  # atno 17371 bound_to 10713
  140.8473  133.8159  155.9133 LP  0  0  0  0  0  0  0  0  0  0  0  0  # atno 17394 bound_to 11000
  140.9179  134.2178  157.4945 LP  0  0  0  0  0  0  0  0  0  0  0  0  # atno 17395 bound_to 11000

$$$$
