AV-unprocessed.smi:3012|AV-procd|sdf|11463|dock1
  -GOLD-   2272016403D 1   1.00000     0.00000
 Structure written by MMmdl.
 16 16  0  0  0  0  0  0  0  0  3 V2000
  153.7979  139.3375  154.7420 O   0  0  0  0  0  0  0  0  0  0  0  0
  152.8264  138.5491  154.7650 C   0  0  0  0  0  0  0  0  0  0  0  0
  152.6342  137.6239  153.9444 O   0  5  0  0  0  0  0  0  0  0  0  0
  151.8205  138.7334  155.9096 C   0  0  0  0  0  0  0  0  0  0  0  0
  151.1138  140.0883  155.9431 C   0  0  0  0  0  0  0  0  0  0  0  0
  151.2307  140.9117  157.0554 C   0  0  0  0  0  0  0  0  0  0  0  0
  150.5198  142.1851  157.0744 C   0  0  0  0  0  0  0  0  0  0  0  0
  150.5624  142.9898  158.0034 O   0  0  0  0  0  0  0  0  0  0  0  0
  149.7841  142.4203  155.9598 N   0  0  0  0  0  0  0  0  0  0  0  0
  149.6602  141.6019  154.8829 C   0  0  0  0  0  0  0  0  0  0  0  0
  148.9391  141.9832  153.9633 O   0  0  0  0  0  0  0  0  0  0  0  0
  150.3309  140.4137  154.8800 N   0  5  0  0  0  0  0  0  0  0  0  0
  149.2746  143.2907  155.9271 H   0  0  0  0  0  0  0  0  0  0  0  0
  151.0920  137.9243  155.8408 H   0  0  0  0  0  0  0  0  0  0  0  0
  152.3424  138.5820  156.8554 H   0  0  0  0  0  0  0  0  0  0  0  0
  151.8410  140.6218  157.8982 H   0  0  0  0  0  0  0  0  0  0  0  0
  1  2  2  0  0  0  0
  2  3  1  0  0  0  0
  2  4  1  0  0  0  0
  4  5  1  0  0  0  0
  4 14  1  0  0  0  0
  4 15  1  0  0  0  0
  5 12  1  0  0  0  0
  5  6  2  0  0  0  0
  6  7  1  0  0  0  0
  6 16  1  0  0  0  0
  7  8  2  0  0  0  0
  7  9  1  0  0  0  0
  9 13  1  0  0  0  0
  9 10  1  0  0  0  0
 10 11  2  0  0  0  0
 10 12  1  0  0  0  0
M  CHG  1   3  -1
M  CHG  1  12  -1
M  END
> <s_m_source_file>
AV-unprocessed.smi

> <i_m_source_file_index>
3012

> <i_lp_mmshare_version>
43012

> <i_f3d_flags>
0

> <s_epik_input>
Tz1DKFtPSF0pW0NIMl1jMVtjSF1jKD1PKVtuSF1jKD1PKVtuSF0x

> <s_epik_cmdline>
J2VwaWtfcHl0aG9uJywgJy1waCcsICc3LjAnLCAnLXRuJywgJzgnLCAnLW1hJywgJzIwMCcsICctbWV0YWxfYmluZGluZycsICctaW1hZScsICc8aW5maWxlLm1hZT4nLCAnLW9tYWUnLCAnPG91dGZpbGUubWFlPic=

> <r_lp_tautomer_probability>
1

> <r_epik_Ionization_Penalty>
4.12951

> <r_epik_Ionization_Penalty_Charging>
0.000885541

> <r_epik_Ionization_Penalty_Neutral>
4.12862

> <r_epik_State_Penalty>
4.12806

> <r_epik_Charging_Adjusted_Penalty>
4.12895

> <i_epik_Tot_Q>
-2

> <i_epik_Tot_abs_Q>
2

> <r_epik_Metal_State_Penalty>
0.707998

> <b_epik_Metal_Only>
1

> <s_lp_Force_Field>
OPLS_2005

> <r_lp_Energy>
11.7888

> <b_lp_Chiralities_Consistent>
1

> <s_lp_Variant>
AV-unprocessed.smi:3012-3

> <Gold.Version>
5.8.1

> <Gold.Id.Protein>
6NUR|6NUR_protein|mol2

> <Gold.PLP.Fitness>
39.0602

> <Gold.PLP.PLP>
-21.8331

> <Gold.PLP.part.hbond>
-5.0996

> <Gold.PLP.part.metal>
0.0000

> <Gold.PLP.part.buried>
-4.0512

> <Gold.PLP.part.nonpolar>
-14.7432

> <Gold.PLP.part.repulsive>
0.7112

> <Gold.PLP.ligand.clash>
0.0000

> <Gold.PLP.ligand.torsion>
0.0039

> <Gold.PLP.Chemscore.Hbond>
5.7433

> <Gold.PLP.Chemscore.CHOScore>
0.0000

> <Gold.PLP.Chemscore.Metal>
0.0000

> <Gold.Chemscore.Hbonds>
donor molecule, donor type, donor heavy atom, donor atom, acceptor molecule, acceptor atom, score
      L1  H     9    13       P1  8028  0.94
      P1  H  7989  7998       L1    12  0.85
      P1  H  7997  8010       L1     1  2.00
      P1  H  8011  8017       L1    11  0.43
      P1  H 10752 10765       L1     3  1.28

> <Gold.PLP.Chemscore.Internal.Correction>
0.0051

> <Gold.Rescore>
     Score         DG    S(hbond)    S(metal)    S(lipo)     H(rot)  DE(clash)    DE(int)     intcor
     14.11     -14.31       3.30        0.00      17.97       1.68       0.19       0.01       ----

> <Gold.Chemscore.Fitness>
14.1076

> <Gold.Chemscore.DG>
-14.3087

> <Gold.Chemscore.ZeroCoef>
-5.4800

> <Gold.Chemscore.Hbond>
3.3050

> <Gold.Chemscore.Metal>
0.0000

> <Gold.Chemscore.Lipo>
17.9719

> <Gold.Chemscore.Internal_Hbond>
0.0000

> <Gold.Chemscore.DEClash>
0.1917

> <Gold.Chemscore.DEInternal>
0.0094

> <Gold.Chemscore.Rot>
1.6846

> <Gold.Chemscore.Internal.Correction>
   9.000000E+99

> <Gold.Chemscore.Hbonds>
donor molecule, donor type, donor heavy atom, donor atom, acceptor molecule, acceptor atom, score
      L1  H     9    13       P1  8028  0.90
      P1  H  7989  7998       L1    12  0.05
      P1  H  7997  8010       L1     1  0.92
      P1  H  8011  8017       L1    11  0.41
      P1  H 10752 10765       L1     3  0.63

> <Gold.Chemscore.Hbond.Weighted>
-11.0386

> <Gold.Chemscore.Metal.Weighted>
-0.0000

> <Gold.Chemscore.Lipo.Weighted>
-2.1027

> <Gold.Chemscore.Internal_Hbond.Weighted>
0.0000

> <Gold.Chemscore.DEClash.Weighted>
0.1917

> <Gold.Chemscore.DEInternal.Weighted>
0.0094

> <Gold.Chemscore.Rot.Weighted>
4.3126

> <Gold.Chemscore.Internal.Correction.Weighted>
   9.000000E+99

> <Gold.Protein.RotatedTorsions>
[ 6907 6896 6895 6894 ] final   48.43 input  -60.11 | X-H torsion
[ 7974 7965 7964 7962 ] final  -65.31 input  175.53 | X-H torsion
[ 8008 7997 7996 7995 ] final  104.41 input   59.86 | X-H torsion
[ 10167 10162 10161 10158 ] final  -13.74 input  -65.29 | X-H torsion
[ 10718 10713 10712 10709 ] final  132.01 input   66.30 | X-H torsion
[ 10763 10752 10751 10750 ] final  146.58 input  -60.55 | X-H torsion
[ 11005 11000 10999 10996 ] final -167.05 input  -57.11 | X-H torsion

> <Gold.Protein.ActiveResidues>
 VAL166  LYS551  ARG553  GLY616  TRP617  ASP618  TYR619  PRO620  LYS621  CYS622 
 ASP623  PHE694  ASN695  SER759  ASP760  ASP761  ALA762  ILE779  LEU786  VAL792 
 PHE793  MET794  SER795  GLU796  ALA797  LYS798  CYS799  TRP800  GLU811  SER814 

> <Gold.Protein.RotatedAtoms>
  152.2794  134.7846  160.0399 H   0  0  0  0  0  0  0  0  0  0  0  0  # atno 6907 bound_to 6896
  151.8430  133.3421  159.3657 H   0  0  0  0  0  0  0  0  0  0  0  0  # atno 6908 bound_to 6896
  150.7183  134.5301  159.5740 H   0  0  0  0  0  0  0  0  0  0  0  0  # atno 6909 bound_to 6896
  145.7559  140.8886  143.0455 H   0  0  0  0  0  0  0  0  0  0  0  0  # atno 7974 bound_to 7965
  156.1571  140.3148  155.8743 H   0  0  0  0  0  0  0  0  0  0  0  0  # atno 8008 bound_to 7997
  155.3857  140.0490  157.3059 H   0  0  0  0  0  0  0  0  0  0  0  0  # atno 8009 bound_to 7997
  154.5111  140.2165  155.9166 H   0  0  0  0  0  0  0  0  0  0  0  0  # atno 8010 bound_to 7997
  140.7188  143.5395  150.9426 H   0  0  0  0  0  0  0  0  0  0  0  0  # atno 10167 bound_to 10162
  157.4912  131.1090  150.9554 H   0  0  0  0  0  0  0  0  0  0  0  0  # atno 10718 bound_to 10713
  154.0243  135.2903  155.3377 H   0  0  0  0  0  0  0  0  0  0  0  0  # atno 10763 bound_to 10752
  154.7027  135.5182  153.8553 H   0  0  0  0  0  0  0  0  0  0  0  0  # atno 10764 bound_to 10752
  153.0668  135.6633  154.0461 H   0  0  0  0  0  0  0  0  0  0  0  0  # atno 10765 bound_to 10752
  140.5576  134.5366  157.5136 H   0  0  0  0  0  0  0  0  0  0  0  0  # atno 11005 bound_to 11000
  144.6840  139.9655  143.7481 LP  0  0  0  0  0  0  0  0  0  0  0  0  # atno 17320 bound_to 7965
  146.0312  139.3336  143.0754 LP  0  0  0  0  0  0  0  0  0  0  0  0  # atno 17321 bound_to 7965
  139.9117  143.6712  152.3114 LP  0  0  0  0  0  0  0  0  0  0  0  0  # atno 17342 bound_to 10162
  139.7097  144.7622  151.1132 LP  0  0  0  0  0  0  0  0  0  0  0  0  # atno 17343 bound_to 10162
  157.0255  130.5690  149.5336 LP  0  0  0  0  0  0  0  0  0  0  0  0  # atno 17370 bound_to 10713
  156.0175  130.5269  150.8177 LP  0  0  0  0  0  0  0  0  0  0  0  0  # atno 17371 bound_to 10713
  139.9424  134.7763  156.0646 LP  0  0  0  0  0  0  0  0  0  0  0  0  # atno 17394 bound_to 11000
  141.1134  133.6635  156.3034 LP  0  0  0  0  0  0  0  0  0  0  0  0  # atno 17395 bound_to 11000

$$$$
