AV-unprocessed.smi:767|AV-procd|sdf|3672|dock9
  -GOLD-   22720 1 83D 1   1.00000     0.00000
 Structure written by MMmdl.
 48 50  0  0  0  0  0  0  0  0  2 V2000
  155.1061  140.2781  162.0849 C   0  0  0  0  0  0  0  0  0  0  0  0
  154.3205  141.3521  161.3637 C   0  0  0  0  0  0  0  0  0  0  0  0
  154.4306  141.5560  159.9722 C   0  0  0  0  0  0  0  0  0  0  0  0
  153.6510  142.5582  159.3595 C   0  0  0  0  0  0  0  0  0  0  0  0
  152.7813  143.3410  160.1507 C   0  0  0  0  0  0  0  0  0  0  0  0
  151.8922  144.3968  159.5147 C   0  0  0  0  0  0  0  0  0  0  0  0
  152.0705  144.5270  157.9880 C   0  0  0  0  0  0  0  0  0  0  0  0
  151.0273  143.8286  157.2386 N   0  0  0  0  0  0  0  0  0  0  0  0
  150.7764  142.5126  157.3034 C   0  0  0  0  0  0  0  0  0  0  0  0
  151.3927  141.7265  158.0236 O   0  0  0  0  0  0  0  0  0  0  0  0
  149.7946  142.1468  156.4700 N   0  0  0  0  0  0  0  0  0  0  0  0
  149.3724  140.7655  156.2712 C   0  0  1  0  0  0  0  0  0  0  0  0
  147.8654  140.5762  156.4356 C   0  0  2  0  0  0  0  0  0  0  0  0
  147.0025  139.8570  157.4101 C   0  0  0  0  0  0  0  0  0  0  0  0
  146.0675  139.1554  156.3889 C   0  0  0  0  0  0  0  0  0  0  0  0
  146.6781  139.3521  155.0901 O   0  0  0  0  0  0  0  0  0  0  0  0
  148.0521  139.4983  155.3835 C   0  0  1  0  0  0  0  0  0  0  0  0
  149.1417  140.3913  154.7577 C   0  0  0  0  0  0  0  0  0  0  0  0
  148.6875  141.4760  153.7600 C   0  0  0  0  0  0  0  0  0  0  0  0
  150.3031  139.6542  154.0898 C   0  0  0  0  0  0  0  0  0  0  0  0
  152.7304  143.1065  161.5418 C   0  0  0  0  0  0  0  0  0  0  0  0
  153.4866  142.1302  162.0891 N   0  3  0  0  0  0  0  0  0  0  0  0
  155.4441  139.5100  161.3884 H   0  0  0  0  0  0  0  0  0  0  0  0
  154.4910  139.7962  162.8456 H   0  0  0  0  0  0  0  0  0  0  0  0
  155.9810  140.7112  162.5700 H   0  0  0  0  0  0  0  0  0  0  0  0
  155.0925  140.9439  159.3771 H   0  0  0  0  0  0  0  0  0  0  0  0
  153.7119  142.7112  158.2919 H   0  0  0  0  0  0  0  0  0  0  0  0
  150.8531  144.1571  159.7419 H   0  0  0  0  0  0  0  0  0  0  0  0
  152.0890  145.3610  159.9855 H   0  0  0  0  0  0  0  0  0  0  0  0
  152.1028  145.5799  157.7026 H   0  0  0  0  0  0  0  0  0  0  0  0
  153.0345  144.1090  157.6982 H   0  0  0  0  0  0  0  0  0  0  0  0
  150.4631  144.3885  156.6160 H   0  0  0  0  0  0  0  0  0  0  0  0
  149.3350  142.8559  155.9175 H   0  0  0  0  0  0  0  0  0  0  0  0
  149.9587  140.0319  156.8327 H   0  0  0  0  0  0  0  0  0  0  0  0
  147.3317  141.4545  156.0651 H   0  0  0  0  0  0  0  0  0  0  0  0
  147.5690  139.1396  158.0057 H   0  0  0  0  0  0  0  0  0  0  0  0
  146.4640  140.5297  158.0783 H   0  0  0  0  0  0  0  0  0  0  0  0
  145.9783  138.0914  156.6112 H   0  0  0  0  0  0  0  0  0  0  0  0
  145.0661  139.5869  156.3896 H   0  0  0  0  0  0  0  0  0  0  0  0
  148.4651  138.5618  155.7759 H   0  0  0  0  0  0  0  0  0  0  0  0
  148.4756  141.0462  152.7805 H   0  0  0  0  0  0  0  0  0  0  0  0
  149.4592  142.2314  153.6197 H   0  0  0  0  0  0  0  0  0  0  0  0
  147.7833  142.0000  154.0634 H   0  0  0  0  0  0  0  0  0  0  0  0
  149.9915  139.1666  153.1657 H   0  0  0  0  0  0  0  0  0  0  0  0
  150.7129  138.8806  154.7398 H   0  0  0  0  0  0  0  0  0  0  0  0
  151.1203  140.3338  153.8470 H   0  0  0  0  0  0  0  0  0  0  0  0
  152.0916  143.6482  162.2243 H   0  0  0  0  0  0  0  0  0  0  0  0
  153.4191  141.9680  163.0941 H   0  0  0  0  0  0  0  0  0  0  0  0
  1  2  1  0  0  0  0
  1 23  1  0  0  0  0
  1 24  1  0  0  0  0
  1 25  1  0  0  0  0
  2 22  1  0  0  0  0
  2  3  2  0  0  0  0
  3  4  1  0  0  0  0
  3 26  1  0  0  0  0
  4  5  2  0  0  0  0
  4 27  1  0  0  0  0
  5  6  1  0  0  0  0
  5 21  1  0  0  0  0
  6  7  1  0  0  0  0
  6 28  1  0  0  0  0
  6 29  1  0  0  0  0
  7  8  1  0  0  0  0
  7 30  1  0  0  0  0
  7 31  1  0  0  0  0
  8  9  1  0  0  0  0
  8 32  1  0  0  0  0
  9 10  2  0  0  0  0
  9 11  1  0  0  0  0
 11 12  1  0  0  0  0
 11 33  1  0  0  0  0
 12 18  1  0  0  0  0
 12 13  1  0  0  0  0
 12 34  1  0  0  0  0
 13 17  1  0  0  0  0
 13 14  1  0  0  0  0
 13 35  1  0  0  0  0
 14 15  1  0  0  0  0
 14 36  1  0  0  0  0
 14 37  1  0  0  0  0
 15 16  1  0  0  0  0
 15 38  1  0  0  0  0
 15 39  1  0  0  0  0
 16 17  1  0  0  0  0
 17 18  1  0  0  0  0
 17 40  1  0  0  0  0
 18 19  1  0  0  0  0
 18 20  1  0  0  0  0
 19 41  1  0  0  0  0
 19 42  1  0  0  0  0
 19 43  1  0  0  0  0
 20 44  1  0  0  0  0
 20 45  1  0  0  0  0
 20 46  1  0  0  0  0
 21 22  2  0  0  0  0
 21 47  1  0  0  0  0
 22 48  1  0  0  0  0
M  CHG  1  22   1
M  END
> <s_m_source_file>
AV-unprocessed.smi

> <i_m_source_file_index>
767

> <i_lp_mmshare_version>
43012

> <i_f3d_flags>
0

> <s_epik_input>
W0NIM11jMVtjSF1bY0hdYyhbY0hdbjEpW0NIMl1bQ0gyXVtOSF1DKD1PKVtOSF1bQ0BIXTJDKFtDSDNdKShbQ0gzXSlbQ0BIXShbQ0BASF0yMylPW0NIMl1bQ0gyXTM=

> <s_epik_cmdline>
J2VwaWtfcHl0aG9uJywgJy1waCcsICc3LjAnLCAnLXRuJywgJzgnLCAnLW1hJywgJzIwMCcsICctbWV0YWxfYmluZGluZycsICctaW1hZScsICc8aW5maWxlLm1hZT4nLCAnLW9tYWUnLCAnPG91dGZpbGUubWFlPic=

> <r_epik_Ionization_Penalty>
1.41853

> <r_epik_Ionization_Penalty_Charging>
1.41848

> <r_epik_Ionization_Penalty_Neutral>
5.17407e-05

> <r_epik_State_Penalty>
1.50205

> <r_epik_Charging_Adjusted_Penalty>
2.92053

> <i_epik_Tot_Q>
1

> <i_epik_Tot_abs_Q>
1

> <r_epik_Metal_State_Penalty>
1.5544

> <b_epik_Metal_Only>
0

> <s_lp_Force_Field>
OPLS_2005

> <r_lp_Energy>
61.237

> <b_lp_Chiralities_Consistent>
1

> <s_lp_Variant>
AV-unprocessed.smi:767-16

> <Gold.Version>
5.8.1

> <Gold.Id.Protein>
6NUR|6NUR_protein|mol2

> <Gold.PLP.Fitness>
50.5758

> <Gold.PLP.PLP>
-45.1381

> <Gold.PLP.part.hbond>
-2.0000

> <Gold.PLP.part.metal>
0.0000

> <Gold.PLP.part.buried>
-4.4270

> <Gold.PLP.part.nonpolar>
-38.9478

> <Gold.PLP.part.repulsive>
0.1946

> <Gold.PLP.ligand.clash>
0.0000

> <Gold.PLP.ligand.torsion>
0.4184

> <Gold.PLP.Chemscore.Hbond>
2.0000

> <Gold.PLP.Chemscore.CHOScore>
0.0000

> <Gold.PLP.Chemscore.Metal>
0.0000

> <Gold.Chemscore.Hbonds>
donor molecule, donor type, donor heavy atom, donor atom, acceptor molecule, acceptor atom, score
      L1  H     8    32       P1  8028  1.00
      L1  H    11    33       P1  8028  0.98

> <Gold.PLP.Chemscore.Internal.Correction>
0.2744

> <Gold.Rescore>
     Score         DG    S(hbond)    S(metal)    S(lipo)     H(rot)  DE(clash)    DE(int)     intcor
     19.89     -21.94       1.88        0.00     120.22       1.52       0.13       1.91       ----

> <Gold.Chemscore.Fitness>
19.8918

> <Gold.Chemscore.DG>
-21.9362

> <Gold.Chemscore.ZeroCoef>
-5.4800

> <Gold.Chemscore.Hbond>
1.8833

> <Gold.Chemscore.Metal>
0.0000

> <Gold.Chemscore.Lipo>
120.2175

> <Gold.Chemscore.Internal_Hbond>
0.0000

> <Gold.Chemscore.DEClash>
0.1320

> <Gold.Chemscore.DEInternal>
1.9125

> <Gold.Chemscore.Rot>
1.5233

> <Gold.Chemscore.Internal.Correction>
   9.000000E+99

> <Gold.Chemscore.Hbonds>
donor molecule, donor type, donor heavy atom, donor atom, acceptor molecule, acceptor atom, score
      L1  H     8    32       P1  8028  0.96
      L1  H    11    33       P1  8028  0.93

> <Gold.Chemscore.Hbond.Weighted>
-6.2903

> <Gold.Chemscore.Metal.Weighted>
-0.0000

> <Gold.Chemscore.Lipo.Weighted>
-14.0655

> <Gold.Chemscore.Internal_Hbond.Weighted>
0.0000

> <Gold.Chemscore.DEClash.Weighted>
0.1320

> <Gold.Chemscore.DEInternal.Weighted>
1.9125

> <Gold.Chemscore.Rot.Weighted>
3.8995

> <Gold.Chemscore.Internal.Correction.Weighted>
   9.000000E+99

> <Gold.Protein.RotatedTorsions>
[ 6907 6896 6895 6894 ] final   84.45 input  -60.11 | X-H torsion
[ 7974 7965 7964 7962 ] final  -50.18 input  175.53 | X-H torsion
[ 8008 7997 7996 7995 ] final    9.09 input   59.86 | X-H torsion
[ 10167 10162 10161 10158 ] final -165.69 input  -65.29 | X-H torsion
[ 10718 10713 10712 10709 ] final -149.43 input   66.30 | X-H torsion
[ 10763 10752 10751 10750 ] final  178.20 input  -60.55 | X-H torsion
[ 11005 11000 10999 10996 ] final -162.41 input  -57.11 | X-H torsion

> <Gold.Protein.ActiveResidues>
 VAL166  LYS551  ARG553  GLY616  TRP617  ASP618  TYR619  PRO620  LYS621  CYS622 
 ASP623  PHE694  ASN695  SER759  ASP760  ASP761  ALA762  ILE779  LEU786  VAL792 
 PHE793  MET794  SER795  GLU796  ALA797  LYS798  CYS799  TRP800  GLU811  SER814 

> <Gold.Protein.RotatedAtoms>
  152.5352  134.2738  159.8981 H   0  0  0  0  0  0  0  0  0  0  0  0  # atno 6907 bound_to 6896
  151.2694  133.4256  159.2628 H   0  0  0  0  0  0  0  0  0  0  0  0  # atno 6908 bound_to 6896
  151.0381  134.9602  159.8203 H   0  0  0  0  0  0  0  0  0  0  0  0  # atno 6909 bound_to 6896
  145.9326  140.7736  142.9592 H   0  0  0  0  0  0  0  0  0  0  0  0  # atno 7974 bound_to 7965
  154.7754  140.2809  155.6105 H   0  0  0  0  0  0  0  0  0  0  0  0  # atno 8008 bound_to 7997
  156.2941  140.2633  156.2495 H   0  0  0  0  0  0  0  0  0  0  0  0  # atno 8009 bound_to 7997
  154.9848  140.0374  157.2283 H   0  0  0  0  0  0  0  0  0  0  0  0  # atno 8010 bound_to 7997
  139.6165  144.0710  152.1892 H   0  0  0  0  0  0  0  0  0  0  0  0  # atno 10167 bound_to 10162
  156.4331  130.8085  151.2313 H   0  0  0  0  0  0  0  0  0  0  0  0  # atno 10718 bound_to 10713
  154.5045  135.2785  155.1393 H   0  0  0  0  0  0  0  0  0  0  0  0  # atno 10763 bound_to 10752
  154.3014  135.6247  153.5430 H   0  0  0  0  0  0  0  0  0  0  0  0  # atno 10764 bound_to 10752
  152.9908  135.5697  154.5496 H   0  0  0  0  0  0  0  0  0  0  0  0  # atno 10765 bound_to 10752
  140.6096  134.4863  157.5214 H   0  0  0  0  0  0  0  0  0  0  0  0  # atno 11005 bound_to 11000
  144.6767  140.2151  143.7372 LP  0  0  0  0  0  0  0  0  0  0  0  0  # atno 17320 bound_to 7965
  145.8406  139.2128  143.1829 LP  0  0  0  0  0  0  0  0  0  0  0  0  # atno 17321 bound_to 7965
  140.0341  144.6058  150.7464 LP  0  0  0  0  0  0  0  0  0  0  0  0  # atno 17342 bound_to 10162
  140.7354  143.2740  151.3798 LP  0  0  0  0  0  0  0  0  0  0  0  0  # atno 17343 bound_to 10162
  157.7508  131.0192  150.3657 LP  0  0  0  0  0  0  0  0  0  0  0  0  # atno 17370 bound_to 10713
  156.3999  130.3914  149.6968 LP  0  0  0  0  0  0  0  0  0  0  0  0  # atno 17371 bound_to 10713
  139.9198  134.8172  156.1248 LP  0  0  0  0  0  0  0  0  0  0  0  0  # atno 17394 bound_to 11000
  141.0817  133.6751  156.2350 LP  0  0  0  0  0  0  0  0  0  0  0  0  # atno 17395 bound_to 11000

$$$$
