AV-unprocessed.smi:794|AV-procd|sdf|3758|dock6
  -GOLD-   22720 1193D 1   1.00000     0.00000
 Structure written by MMmdl.
 41 43  0  0  0  0  0  0  0  0  1 V2000
  147.3609  136.8821  163.3569 C   0  0  0  0  0  0  0  0  0  0  0  0
  147.4815  136.3112  161.9772 C   0  0  0  0  0  0  0  0  0  0  0  0
  147.8920  137.1332  160.9234 N   0  0  0  0  0  0  0  0  0  0  0  0
  147.9521  136.4751  159.7614 C   0  0  0  0  0  0  0  0  0  0  0  0
  148.3414  137.0599  158.5278 N   0  0  0  0  0  0  0  0  0  0  0  0
  148.0358  138.2807  158.0545 C   0  0  0  0  0  0  0  0  0  0  0  0
  147.3445  139.1178  158.6356 O   0  0  0  0  0  0  0  0  0  0  0  0
  148.5797  138.4832  156.8465 N   0  0  0  0  0  0  0  0  0  0  0  0
  148.4240  139.7035  156.0574 C   0  0  2  0  0  0  0  0  0  0  0  0
  149.2142  139.6806  154.7246 C   0  0  2  0  0  0  0  0  0  0  0  0
  150.6943  139.3028  154.9504 C   0  0  0  0  0  0  0  0  0  0  0  0
  151.2515  140.5431  155.6731 C   0  0  0  0  0  0  0  0  0  0  0  0
  150.0271  141.4766  155.7413 C   0  0  1  0  0  0  0  0  0  0  0  0
  149.3360  141.1676  154.4180 C   0  0  0  0  0  0  0  0  0  0  0  0
  149.0252  140.9341  156.7872 C   0  0  1  0  0  0  0  0  0  0  0  0
  147.9700  141.9782  157.2001 C   0  0  0  0  0  0  0  0  0  0  0  0
  148.5955  143.0857  157.8131 O   0  0  0  0  0  0  0  0  0  0  0  0
  147.5002  134.7837  159.8863 S   0  0  0  0  0  0  0  0  0  0  0  0
  147.2311  135.0129  161.5967 C   0  0  0  0  0  0  0  0  0  0  0  0
  146.7852  133.8805  162.4607 C   0  0  0  0  0  0  0  0  0  0  0  0
  146.3902  136.6499  163.7953 H   0  0  0  0  0  0  0  0  0  0  0  0
  147.4690  137.9672  163.3561 H   0  0  0  0  0  0  0  0  0  0  0  0
  148.1269  136.4751  164.0170 H   0  0  0  0  0  0  0  0  0  0  0  0
  148.9201  136.4813  157.9372 H   0  0  0  0  0  0  0  0  0  0  0  0
  149.1371  137.7459  156.4407 H   0  0  0  0  0  0  0  0  0  0  0  0
  147.3647  139.8684  155.8490 H   0  0  0  0  0  0  0  0  0  0  0  0
  148.7312  139.0932  153.9429 H   0  0  0  0  0  0  0  0  0  0  0  0
  150.8285  138.3857  155.5243 H   0  0  0  0  0  0  0  0  0  0  0  0
  151.2013  139.1628  153.9948 H   0  0  0  0  0  0  0  0  0  0  0  0
  151.6506  140.3066  156.6600 H   0  0  0  0  0  0  0  0  0  0  0  0
  152.0540  140.9963  155.0895 H   0  0  0  0  0  0  0  0  0  0  0  0
  150.2941  142.5240  155.8865 H   0  0  0  0  0  0  0  0  0  0  0  0
  149.9556  141.3812  153.5450 H   0  0  0  0  0  0  0  0  0  0  0  0
  148.3726  141.6652  154.2976 H   0  0  0  0  0  0  0  0  0  0  0  0
  149.5736  140.6371  157.6834 H   0  0  0  0  0  0  0  0  0  0  0  0
  147.4270  142.3339  156.3241 H   0  0  0  0  0  0  0  0  0  0  0  0
  147.2344  141.5558  157.8848 H   0  0  0  0  0  0  0  0  0  0  0  0
  148.7784  143.7332  157.1495 H   0  0  0  0  0  0  0  0  0  0  0  0
  147.4742  133.7348  163.2928 H   0  0  0  0  0  0  0  0  0  0  0  0
  146.7376  132.9481  161.8979 H   0  0  0  0  0  0  0  0  0  0  0  0
  145.7947  134.0756  162.8722 H   0  0  0  0  0  0  0  0  0  0  0  0
  1  2  1  0  0  0  0
  1 21  1  0  0  0  0
  1 22  1  0  0  0  0
  1 23  1  0  0  0  0
  2 19  2  0  0  0  0
  2  3  1  0  0  0  0
  3  4  2  0  0  0  0
  4  5  1  0  0  0  0
  4 18  1  0  0  0  0
  5  6  1  0  0  0  0
  5 24  1  0  0  0  0
  6  7  2  0  0  0  0
  6  8  1  0  0  0  0
  8  9  1  0  0  0  0
  8 25  1  0  0  0  0
  9 15  1  0  0  0  0
  9 10  1  0  0  0  0
  9 26  1  0  0  0  0
 10 14  1  0  0  0  0
 10 11  1  0  0  0  0
 10 27  1  0  0  0  0
 11 12  1  0  0  0  0
 11 28  1  0  0  0  0
 11 29  1  0  0  0  0
 12 13  1  0  0  0  0
 12 30  1  0  0  0  0
 12 31  1  0  0  0  0
 13 14  1  0  0  0  0
 13 15  1  0  0  0  0
 13 32  1  0  0  0  0
 14 33  1  0  0  0  0
 14 34  1  0  0  0  0
 15 16  1  0  0  0  0
 15 35  1  0  0  0  0
 16 17  1  0  0  0  0
 16 36  1  0  0  0  0
 16 37  1  0  0  0  0
 17 38  1  0  0  0  0
 18 19  1  0  0  0  0
 19 20  1  0  0  0  0
 20 39  1  0  0  0  0
 20 40  1  0  0  0  0
 20 41  1  0  0  0  0
M  END
> <s_m_source_file>
AV-unprocessed.smi

> <i_m_source_file_index>
794

> <i_lp_mmshare_version>
43012

> <i_f3d_flags>
0

> <s_epik_input>
W0NIM11jMW5jKHNjMVtDSDNdKVtOSF1DKD1PKVtOSF1bQ0BIXShbQ0BASF0yMylbQ0BIXShbQ0gyXVtPSF0pW0NAQEhdKFtDSDJdMylbQ0gyXVtDSDJdMg==

> <s_epik_cmdline>
J2VwaWtfcHl0aG9uJywgJy1waCcsICc3LjAnLCAnLXRuJywgJzgnLCAnLW1hJywgJzIwMCcsICctbWV0YWxfYmluZGluZycsICctaW1hZScsICc8aW5maWxlLm1hZT4nLCAnLW9tYWUnLCAnPG91dGZpbGUubWFlPic=

> <r_lp_tautomer_probability>
0.999

> <r_epik_Ionization_Penalty>
0.000713029

> <r_epik_Ionization_Penalty_Charging>
0

> <r_epik_Ionization_Penalty_Neutral>
0.000713029

> <r_epik_State_Penalty>
0.000177984

> <r_epik_Charging_Adjusted_Penalty>
0.000177984

> <i_epik_Tot_Q>
0

> <i_epik_Tot_abs_Q>
0

> <r_epik_Metal_State_Penalty>
-0

> <b_epik_Metal_Only>
0

> <s_lp_Force_Field>
OPLS_2005

> <r_lp_Energy>
47.0696

> <b_lp_Chiralities_Consistent>
1

> <s_lp_Variant>
AV-unprocessed.smi:794-3

> <Gold.Version>
5.8.1

> <Gold.Id.Protein>
6NUR|6NUR_protein|mol2

> <Gold.PLP.Fitness>
43.0117

> <Gold.PLP.PLP>
-35.7376

> <Gold.PLP.part.hbond>
-4.9154

> <Gold.PLP.part.metal>
0.0000

> <Gold.PLP.part.buried>
0.1472

> <Gold.PLP.part.nonpolar>
-30.6537

> <Gold.PLP.part.repulsive>
0.1390

> <Gold.PLP.ligand.clash>
0.0000

> <Gold.PLP.ligand.torsion>
0.3122

> <Gold.PLP.Chemscore.Hbond>
2.6267

> <Gold.PLP.Chemscore.CHOScore>
0.0000

> <Gold.PLP.Chemscore.Metal>
0.0000

> <Gold.Chemscore.Hbonds>
donor molecule, donor type, donor heavy atom, donor atom, acceptor molecule, acceptor atom, score
      L1  H    17    38       P1  8028  0.85
      P1  H  6931  6943       L1     3  0.84
      P1  H  6934  6947       L1     3  0.82

> <Gold.PLP.Chemscore.Internal.Correction>
0.0183

> <Gold.Rescore>
     Score         DG    S(hbond)    S(metal)    S(lipo)     H(rot)  DE(clash)    DE(int)     intcor
     15.43     -16.32       1.69        0.00      83.46       1.78       0.53       0.36       ----

> <Gold.Chemscore.Fitness>
15.4349

> <Gold.Chemscore.DG>
-16.3239

> <Gold.Chemscore.ZeroCoef>
-5.4800

> <Gold.Chemscore.Hbond>
1.6874

> <Gold.Chemscore.Metal>
0.0000

> <Gold.Chemscore.Lipo>
83.4552

> <Gold.Chemscore.Internal_Hbond>
0.0000

> <Gold.Chemscore.DEClash>
0.5252

> <Gold.Chemscore.DEInternal>
0.3638

> <Gold.Chemscore.Rot>
1.7798

> <Gold.Chemscore.Internal.Correction>
   9.000000E+99

> <Gold.Chemscore.Hbonds>
donor molecule, donor type, donor heavy atom, donor atom, acceptor molecule, acceptor atom, score
      L1  H    17    38       P1  8028  0.15
      P1  H  6931  6943       L1     3  0.16
      P1  H  6934  6947       L1     3  0.69

> <Gold.Chemscore.Hbond.Weighted>
-5.6358

> <Gold.Chemscore.Metal.Weighted>
-0.0000

> <Gold.Chemscore.Lipo.Weighted>
-9.7643

> <Gold.Chemscore.Internal_Hbond.Weighted>
0.0000

> <Gold.Chemscore.DEClash.Weighted>
0.5252

> <Gold.Chemscore.DEInternal.Weighted>
0.3638

> <Gold.Chemscore.Rot.Weighted>
4.5562

> <Gold.Chemscore.Internal.Correction.Weighted>
   9.000000E+99

> <Gold.Protein.RotatedTorsions>
[ 6907 6896 6895 6894 ] final -112.73 input  -60.11 | X-H torsion
[ 7974 7965 7964 7962 ] final  107.50 input  175.53 | X-H torsion
[ 8008 7997 7996 7995 ] final  -85.27 input   59.86 | X-H torsion
[ 10167 10162 10161 10158 ] final   10.34 input  -65.29 | X-H torsion
[ 10718 10713 10712 10709 ] final -129.75 input   66.30 | X-H torsion
[ 10763 10752 10751 10750 ] final  -82.34 input  -60.55 | X-H torsion
[ 11005 11000 10999 10996 ] final -162.50 input  -57.11 | X-H torsion

> <Gold.Protein.ActiveResidues>
 VAL166  LYS551  ARG553  GLY616  TRP617  ASP618  TYR619  PRO620  LYS621  CYS622 
 ASP623  PHE694  ASN695  SER759  ASP760  ASP761  ALA762  ILE779  LEU786  VAL792 
 PHE793  MET794  SER795  GLU796  ALA797  LYS798  CYS799  TRP800  GLU811  SER814 

> <Gold.Protein.RotatedAtoms>
  150.7778  133.9048  159.3351 H   0  0  0  0  0  0  0  0  0  0  0  0  # atno 6907 bound_to 6896
  151.6918  135.0943  160.0244 H   0  0  0  0  0  0  0  0  0  0  0  0  # atno 6908 bound_to 6896
  152.3820  133.6521  159.6204 H   0  0  0  0  0  0  0  0  0  0  0  0  # atno 6909 bound_to 6896
  145.2928  139.2594  143.3855 H   0  0  0  0  0  0  0  0  0  0  0  0  # atno 7974 bound_to 7965
  154.6389  140.0594  156.9822 H   0  0  0  0  0  0  0  0  0  0  0  0  # atno 8008 bound_to 7997
  155.1548  140.3277  155.4405 H   0  0  0  0  0  0  0  0  0  0  0  0  # atno 8009 bound_to 7997
  156.2521  140.1941  156.6658 H   0  0  0  0  0  0  0  0  0  0  0  0  # atno 8010 bound_to 7997
  140.6200  143.8225  150.7164 H   0  0  0  0  0  0  0  0  0  0  0  0  # atno 10167 bound_to 10162
  156.2077  130.6898  151.0614 H   0  0  0  0  0  0  0  0  0  0  0  0  # atno 10718 bound_to 10713
  154.5745  135.5595  153.7127 H   0  0  0  0  0  0  0  0  0  0  0  0  # atno 10763 bound_to 10752
  153.0060  135.6305  154.2068 H   0  0  0  0  0  0  0  0  0  0  0  0  # atno 10764 bound_to 10752
  154.2008  135.2878  155.2971 H   0  0  0  0  0  0  0  0  0  0  0  0  # atno 10765 bound_to 10752
  140.6086  134.4873  157.5213 H   0  0  0  0  0  0  0  0  0  0  0  0  # atno 11005 bound_to 11000
  146.3179  140.3423  142.8649 LP  0  0  0  0  0  0  0  0  0  0  0  0  # atno 17320 bound_to 7965
  144.9158  140.7811  143.5779 LP  0  0  0  0  0  0  0  0  0  0  0  0  # atno 17321 bound_to 7965
  140.1813  143.4112  152.1931 LP  0  0  0  0  0  0  0  0  0  0  0  0  # atno 17342 bound_to 10162
  139.5431  144.7274  151.4671 LP  0  0  0  0  0  0  0  0  0  0  0  0  # atno 17343 bound_to 10162
  157.7021  131.0771  150.6785 LP  0  0  0  0  0  0  0  0  0  0  0  0  # atno 17370 bound_to 10713
  156.6844  130.4576  149.5618 LP  0  0  0  0  0  0  0  0  0  0  0  0  # atno 17371 bound_to 10713
  139.9202  134.8165  156.1237 LP  0  0  0  0  0  0  0  0  0  0  0  0  # atno 17394 bound_to 11000
  141.0823  133.6749  156.2363 LP  0  0  0  0  0  0  0  0  0  0  0  0  # atno 17395 bound_to 11000

$$$$
