AV-unprocessed.smi:1692|AV-procd|sdf|6778|dock2
  -GOLD-   22720 7533D 1   1.00000     0.00000
 Structure written by MMmdl.
 46 47  0  0  0  0  0  0  0  0  2 V2000
  148.0809  134.3637  154.3932 C   0  0  0  0  0  0  0  0  0  0  0  0
  147.9319  135.3842  155.5359 C   0  0  2  0  0  0  0  0  0  0  0  0
  147.5650  136.8007  155.0524 C   0  0  0  0  0  0  0  0  0  0  0  0
  148.7250  137.4681  154.4150 N   0  3  1  0  0  0  0  0  0  0  0  0
  148.3809  138.8109  153.8847 C   0  0  0  0  0  0  0  0  0  0  0  0
  148.6047  139.9304  154.9199 C   0  0  0  0  0  0  0  0  0  0  0  0
  149.0965  141.2580  154.3132 C   0  0  0  0  0  0  0  0  0  0  0  0
  149.3616  142.2788  155.3239 N   0  0  0  0  0  0  0  0  0  0  0  0
  150.1408  142.1179  156.4041 C   0  0  0  0  0  0  0  0  0  0  0  0
  150.7007  141.0570  156.6821 O   0  0  0  0  0  0  0  0  0  0  0  0
  150.2172  143.2503  157.1252 N   0  0  0  0  0  0  0  0  0  0  0  0
  150.9261  143.4718  158.3365 C   0  0  0  0  0  0  0  0  0  0  0  0
  150.9322  144.8100  158.7909 C   0  0  0  0  0  0  0  0  0  0  0  0
  151.6084  145.1340  159.9831 C   0  0  0  0  0  0  0  0  0  0  0  0
  152.2608  144.1096  160.6920 C   0  0  0  0  0  0  0  0  0  0  0  0
  152.2044  142.8034  160.1720 C   0  0  0  0  0  0  0  0  0  0  0  0
  151.5564  142.4907  159.0298 N   0  0  0  0  0  0  0  0  0  0  0  0
  149.8840  137.4752  155.3399 C   0  0  0  0  0  0  0  0  0  0  0  0
  150.2317  136.0410  155.7782 C   0  0  1  0  0  0  0  0  0  0  0  0
  151.3655  136.0145  156.8094 C   0  0  0  0  0  0  0  0  0  0  0  0
  149.0875  135.4335  156.3723 O   0  0  0  0  0  0  0  0  0  0  0  0
  147.1403  134.2479  153.8542 H   0  0  0  0  0  0  0  0  0  0  0  0
  148.3592  133.3838  154.7813 H   0  0  0  0  0  0  0  0  0  0  0  0
  148.8353  134.6620  153.6659 H   0  0  0  0  0  0  0  0  0  0  0  0
  147.1179  135.0298  156.1689 H   0  0  0  0  0  0  0  0  0  0  0  0
  146.7284  136.7477  154.3542 H   0  0  0  0  0  0  0  0  0  0  0  0
  147.2313  137.4033  155.8990 H   0  0  0  0  0  0  0  0  0  0  0  0
  149.0160  139.0109  153.0217 H   0  0  0  0  0  0  0  0  0  0  0  0
  147.3530  138.8169  153.5192 H   0  0  0  0  0  0  0  0  0  0  0  0
  147.6741  140.1349  155.4481 H   0  0  0  0  0  0  0  0  0  0  0  0
  149.3130  139.5927  155.6777 H   0  0  0  0  0  0  0  0  0  0  0  0
  149.9747  141.0886  153.6876 H   0  0  0  0  0  0  0  0  0  0  0  0
  148.3275  141.6528  153.6487 H   0  0  0  0  0  0  0  0  0  0  0  0
  148.9410  143.1844  155.1738 H   0  0  0  0  0  0  0  0  0  0  0  0
  149.7139  144.0480  156.7661 H   0  0  0  0  0  0  0  0  0  0  0  0
  150.4266  145.5853  158.2333 H   0  0  0  0  0  0  0  0  0  0  0  0
  151.6260  146.1512  160.3458 H   0  0  0  0  0  0  0  0  0  0  0  0
  152.7905  144.3186  161.6096 H   0  0  0  0  0  0  0  0  0  0  0  0
  152.6922  141.9882  160.6857 H   0  0  0  0  0  0  0  0  0  0  0  0
  150.7529  137.9226  154.8585 H   0  0  0  0  0  0  0  0  0  0  0  0
  149.6508  138.0901  156.2109 H   0  0  0  0  0  0  0  0  0  0  0  0
  150.5502  135.4597  154.9127 H   0  0  0  0  0  0  0  0  0  0  0  0
  152.2749  136.4604  156.4055 H   0  0  0  0  0  0  0  0  0  0  0  0
  151.6001  134.9913  157.1037 H   0  0  0  0  0  0  0  0  0  0  0  0
  151.0939  136.5657  157.7102 H   0  0  0  0  0  0  0  0  0  0  0  0
  148.9787  136.8981  153.6207 H   0  0  0  0  0  0  0  0  0  0  0  0
  1  2  1  0  0  0  0
  1 22  1  0  0  0  0
  1 23  1  0  0  0  0
  1 24  1  0  0  0  0
  2 21  1  0  0  0  0
  2  3  1  0  0  0  0
  2 25  1  0  0  0  0
  3  4  1  0  0  0  0
  3 26  1  0  0  0  0
  3 27  1  0  0  0  0
  4  5  1  0  0  0  0
  4 18  1  0  0  0  0
  4 46  1  0  0  0  0
  5  6  1  0  0  0  0
  5 28  1  0  0  0  0
  5 29  1  0  0  0  0
  6  7  1  0  0  0  0
  6 30  1  0  0  0  0
  6 31  1  0  0  0  0
  7  8  1  0  0  0  0
  7 32  1  0  0  0  0
  7 33  1  0  0  0  0
  8  9  1  0  0  0  0
  8 34  1  0  0  0  0
  9 10  2  0  0  0  0
  9 11  1  0  0  0  0
 11 12  1  0  0  0  0
 11 35  1  0  0  0  0
 12 17  1  0  0  0  0
 12 13  2  0  0  0  0
 13 14  1  0  0  0  0
 13 36  1  0  0  0  0
 14 15  2  0  0  0  0
 14 37  1  0  0  0  0
 15 16  1  0  0  0  0
 15 38  1  0  0  0  0
 16 17  2  0  0  0  0
 16 39  1  0  0  0  0
 18 19  1  0  0  0  0
 18 40  1  0  0  0  0
 18 41  1  0  0  0  0
 19 20  1  0  0  0  0
 19 21  1  0  0  0  0
 19 42  1  0  0  0  0
 20 43  1  0  0  0  0
 20 44  1  0  0  0  0
 20 45  1  0  0  0  0
M  CHG  1   4   1
M  END
> <s_m_source_file>
AV-unprocessed.smi

> <i_m_source_file_index>
1692

> <i_lp_mmshare_version>
43012

> <i_f3d_flags>
0

> <s_epik_input>
W0NIM11bQ0BASF0xW0NIMl1OKFtDSDJdW0NASF0oTzEpW0NIM10pW0NIMl1bQ0gyXVtDSDJdW05IXUMoPU8pW05IXWMyW2NIXVtjSF1bY0hdW2NIXW4y

> <s_epik_cmdline>
J2VwaWtfcHl0aG9uJywgJy1waCcsICc3LjAnLCAnLXRuJywgJzgnLCAnLW1hJywgJzIwMCcsICctbWV0YWxfYmluZGluZycsICctaW1hZScsICc8aW5maWxlLm1hZT4nLCAnLW9tYWUnLCAnPG91dGZpbGUubWFlPic=

> <r_epik_Ionization_Penalty>
0.270538

> <r_epik_Ionization_Penalty_Charging>
0.270496

> <r_epik_Ionization_Penalty_Neutral>
4.22978e-05

> <r_epik_State_Penalty>
0.262618

> <r_epik_Charging_Adjusted_Penalty>
0.533114

> <i_epik_Tot_Q>
1

> <i_epik_Tot_abs_Q>
1

> <r_epik_Metal_State_Penalty>
0.262618

> <b_epik_Metal_Only>
0

> <s_lp_Force_Field>
OPLS_2005

> <r_lp_Energy>
21.1516

> <b_lp_Chiralities_Consistent>
1

> <s_lp_Variant>
AV-unprocessed.smi:1692-1

> <Gold.Version>
5.8.1

> <Gold.Id.Protein>
6NUR|6NUR_protein|mol2

> <Gold.PLP.Fitness>
45.2750

> <Gold.PLP.PLP>
-34.4450

> <Gold.PLP.part.hbond>
-3.0000

> <Gold.PLP.part.metal>
0.0000

> <Gold.PLP.part.buried>
-3.1371

> <Gold.PLP.part.nonpolar>
-28.3708

> <Gold.PLP.part.repulsive>
0.2622

> <Gold.PLP.ligand.clash>
0.0000

> <Gold.PLP.ligand.torsion>
0.6046

> <Gold.PLP.Chemscore.Hbond>
4.0000

> <Gold.PLP.Chemscore.CHOScore>
0.0000

> <Gold.PLP.Chemscore.Metal>
0.0000

> <Gold.Chemscore.Hbonds>
donor molecule, donor type, donor heavy atom, donor atom, acceptor molecule, acceptor atom, score
      L1  H     4    46       P1  7948  2.00
      L1  H     8    34       P1  8028  0.94
      L1  H    11    35       P1  8028  0.98

> <Gold.PLP.Chemscore.Internal.Correction>
0.0392

> <Gold.Rescore>
     Score         DG    S(hbond)    S(metal)    S(lipo)     H(rot)  DE(clash)    DE(int)     intcor
     17.99     -20.94       2.95        0.00      86.90       1.78       0.03       2.92       ----

> <Gold.Chemscore.Fitness>
17.9873

> <Gold.Chemscore.DG>
-20.9395

> <Gold.Chemscore.ZeroCoef>
-5.4800

> <Gold.Chemscore.Hbond>
2.9499

> <Gold.Chemscore.Metal>
0.0000

> <Gold.Chemscore.Lipo>
86.8970

> <Gold.Chemscore.Internal_Hbond>
0.0000

> <Gold.Chemscore.DEClash>
0.0306

> <Gold.Chemscore.DEInternal>
2.9215

> <Gold.Chemscore.Rot>
1.7814

> <Gold.Chemscore.Internal.Correction>
   9.000000E+99

> <Gold.Chemscore.Hbonds>
donor molecule, donor type, donor heavy atom, donor atom, acceptor molecule, acceptor atom, score
      L1  H     4    46       P1  7948  0.99
      L1  H     8    34       P1  8028  0.90
      L1  H    11    35       P1  8028  0.83

> <Gold.Chemscore.Hbond.Weighted>
-9.8528

> <Gold.Chemscore.Metal.Weighted>
-0.0000

> <Gold.Chemscore.Lipo.Weighted>
-10.1669

> <Gold.Chemscore.Internal_Hbond.Weighted>
0.0000

> <Gold.Chemscore.DEClash.Weighted>
0.0306

> <Gold.Chemscore.DEInternal.Weighted>
2.9215

> <Gold.Chemscore.Rot.Weighted>
4.5603

> <Gold.Chemscore.Internal.Correction.Weighted>
   9.000000E+99

> <Gold.Protein.RotatedTorsions>
[ 6907 6896 6895 6894 ] final   60.50 input  -60.11 | X-H torsion
[ 7974 7965 7964 7962 ] final  -53.25 input  175.53 | X-H torsion
[ 8008 7997 7996 7995 ] final   90.73 input   59.86 | X-H torsion
[ 10167 10162 10161 10158 ] final   36.19 input  -65.29 | X-H torsion
[ 10718 10713 10712 10709 ] final  -79.97 input   66.30 | X-H torsion
[ 10763 10752 10751 10750 ] final  153.89 input  -60.55 | X-H torsion
[ 11005 11000 10999 10996 ] final -156.69 input  -57.11 | X-H torsion

> <Gold.Protein.ActiveResidues>
 VAL166  LYS551  ARG553  GLY616  TRP617  ASP618  TYR619  PRO620  LYS621  CYS622 
 ASP623  PHE694  ASN695  SER759  ASP760  ASP761  ALA762  ILE779  LEU786  VAL792 
 PHE793  MET794  SER795  GLU796  ALA797  LYS798  CYS799  TRP800  GLU811  SER814 

> <Gold.Protein.RotatedAtoms>
  152.4008  134.6289  160.0070 H   0  0  0  0  0  0  0  0  0  0  0  0  # atno 6907 bound_to 6896
  151.6495  133.3316  159.3156 H   0  0  0  0  0  0  0  0  0  0  0  0  # atno 6908 bound_to 6896
  150.7909  134.6974  159.6575 H   0  0  0  0  0  0  0  0  0  0  0  0  # atno 6909 bound_to 6896
  145.8989  140.8010  142.9753 H   0  0  0  0  0  0  0  0  0  0  0  0  # atno 7974 bound_to 7965
  156.0154  140.3346  155.6984 H   0  0  0  0  0  0  0  0  0  0  0  0  # atno 8008 bound_to 7997
  155.6098  140.0664  157.2727 H   0  0  0  0  0  0  0  0  0  0  0  0  # atno 8009 bound_to 7997
  154.4296  140.1795  156.1248 H   0  0  0  0  0  0  0  0  0  0  0  0  # atno 8010 bound_to 7997
  140.4151  144.1538  150.6142 H   0  0  0  0  0  0  0  0  0  0  0  0  # atno 10167 bound_to 10162
  156.0080  130.4561  150.3730 H   0  0  0  0  0  0  0  0  0  0  0  0  # atno 10718 bound_to 10713
  154.1434  135.2819  155.3155 H   0  0  0  0  0  0  0  0  0  0  0  0  # atno 10763 bound_to 10752
  154.6270  135.5448  153.7641 H   0  0  0  0  0  0  0  0  0  0  0  0  # atno 10764 bound_to 10752
  153.0243  135.6453  154.1580 H   0  0  0  0  0  0  0  0  0  0  0  0  # atno 10765 bound_to 10752
  140.6728  134.4229  157.5231 H   0  0  0  0  0  0  0  0  0  0  0  0  # atno 11005 bound_to 11000
  144.6734  140.1646  143.7419 LP  0  0  0  0  0  0  0  0  0  0  0  0  # atno 17320 bound_to 7965
  145.8815  139.2325  143.1602 LP  0  0  0  0  0  0  0  0  0  0  0  0  # atno 17321 bound_to 7965
  140.4595  143.2454  151.9239 LP  0  0  0  0  0  0  0  0  0  0  0  0  # atno 17342 bound_to 10162
  139.4782  144.5482  151.8426 LP  0  0  0  0  0  0  0  0  0  0  0  0  # atno 17343 bound_to 10162
  157.1813  131.0393  151.2747 LP  0  0  0  0  0  0  0  0  0  0  0  0  # atno 17370 bound_to 10713
  157.4143  130.7402  149.6863 LP  0  0  0  0  0  0  0  0  0  0  0  0  # atno 17371 bound_to 10713
  139.8976  134.8632  156.2037 LP  0  0  0  0  0  0  0  0  0  0  0  0  # atno 17394 bound_to 11000
  141.0379  133.6953  156.1545 LP  0  0  0  0  0  0  0  0  0  0  0  0  # atno 17395 bound_to 11000

$$$$
