AV-unprocessed.smi:3348|AV-procd|sdf|12923|dock5
  -GOLD-   2272019343D 1   1.00000     0.00000
 Structure written by MMmdl.
 46 47  0  0  0  0  0  0  0  0  1 V2000
  151.6385  139.2133  153.7222 C   0  0  0  0  0  0  0  0  0  0  0  0
  150.7013  139.7949  154.7900 C   0  0  2  0  0  0  0  0  0  0  0  0
  150.3754  141.2748  154.4590 C   0  0  0  0  0  0  0  0  0  0  0  0
  148.9604  141.5711  154.3062 N   0  0  0  0  0  0  0  0  0  0  0  0
  148.2436  141.7199  153.1366 C   0  0  0  0  0  0  0  0  0  0  0  0
  146.9455  141.9644  153.4811 C   0  0  0  0  0  0  0  0  0  0  0  0
  146.9606  141.9227  154.9031 C   0  0  0  0  0  0  0  0  0  0  0  0
  148.1644  141.6746  155.3934 N   0  0  0  0  0  0  0  0  0  0  0  0
  151.3309  139.6262  156.1057 N   0  0  0  0  0  0  0  0  0  0  0  0
  152.7590  139.9303  156.1771 C   0  0  0  0  0  0  0  0  0  0  0  0
  153.1315  140.5243  157.5457 C   0  0  0  0  0  0  0  0  0  0  0  0
  152.3421  141.6625  157.8739 O   0  0  0  0  0  0  0  0  0  0  0  0
  152.8312  142.4560  158.9504 C   0  0  2  0  0  0  0  0  0  0  0  0
  152.9768  141.5330  160.1743 C   0  0  0  0  0  0  0  0  0  0  0  0
  153.4148  142.3190  161.4175 C   0  0  0  0  0  0  0  0  0  0  0  0
  152.4340  143.4636  161.7127 C   0  0  0  0  0  0  0  0  0  0  0  0
  152.2704  144.3854  160.4936 C   0  0  0  0  0  0  0  0  0  0  0  0
  151.8380  143.6047  159.2350 C   0  0  1  0  0  0  0  0  0  0  0  0
  151.6961  144.5498  158.0309 C   0  0  0  0  0  0  0  0  0  0  0  0
  151.1863  139.2657  152.7314 H   0  0  0  0  0  0  0  0  0  0  0  0
  151.8607  138.1645  153.9223 H   0  0  0  0  0  0  0  0  0  0  0  0
  152.5848  139.7545  153.6848 H   0  0  0  0  0  0  0  0  0  0  0  0
  149.7853  139.2041  154.7514 H   0  0  0  0  0  0  0  0  0  0  0  0
  150.7936  141.9332  155.2216 H   0  0  0  0  0  0  0  0  0  0  0  0
  150.8550  141.5558  153.5206 H   0  0  0  0  0  0  0  0  0  0  0  0
  148.7131  141.6458  152.1669 H   0  0  0  0  0  0  0  0  0  0  0  0
  146.1114  142.1396  152.8181 H   0  0  0  0  0  0  0  0  0  0  0  0
  146.1377  142.0594  155.5889 H   0  0  0  0  0  0  0  0  0  0  0  0
  150.8349  140.1846  156.7929 H   0  0  0  0  0  0  0  0  0  0  0  0
  153.3646  139.0512  155.9758 H   0  0  0  0  0  0  0  0  0  0  0  0
  153.0092  140.6573  155.4038 H   0  0  0  0  0  0  0  0  0  0  0  0
  153.0214  139.7707  158.3267 H   0  0  0  0  0  0  0  0  0  0  0  0
  154.1818  140.8170  157.5513 H   0  0  0  0  0  0  0  0  0  0  0  0
  153.8048  142.8927  158.7190 H   0  0  0  0  0  0  0  0  0  0  0  0
  152.0260  141.0374  160.3752 H   0  0  0  0  0  0  0  0  0  0  0  0
  153.6946  140.7404  159.9644 H   0  0  0  0  0  0  0  0  0  0  0  0
  153.4786  141.6510  162.2767 H   0  0  0  0  0  0  0  0  0  0  0  0
  154.4164  142.7219  161.2621 H   0  0  0  0  0  0  0  0  0  0  0  0
  151.4636  143.0508  161.9909 H   0  0  0  0  0  0  0  0  0  0  0  0
  152.7826  144.0396  162.5704 H   0  0  0  0  0  0  0  0  0  0  0  0
  151.5388  145.1618  160.7207 H   0  0  0  0  0  0  0  0  0  0  0  0
  153.2133  144.8993  160.3012 H   0  0  0  0  0  0  0  0  0  0  0  0
  150.8580  143.1672  159.4311 H   0  0  0  0  0  0  0  0  0  0  0  0
  152.6517  145.0053  157.7693 H   0  0  0  0  0  0  0  0  0  0  0  0
  150.9908  145.3537  158.2433 H   0  0  0  0  0  0  0  0  0  0  0  0
  151.3291  144.0194  157.1519 H   0  0  0  0  0  0  0  0  0  0  0  0
  1  2  1  0  0  0  0
  1 20  1  0  0  0  0
  1 21  1  0  0  0  0
  1 22  1  0  0  0  0
  2  3  1  0  0  0  0
  2  9  1  0  0  0  0
  2 23  1  0  0  0  0
  3  4  1  0  0  0  0
  3 24  1  0  0  0  0
  3 25  1  0  0  0  0
  4  8  1  0  0  0  0
  4  5  1  0  0  0  0
  5  6  2  0  0  0  0
  5 26  1  0  0  0  0
  6  7  1  0  0  0  0
  6 27  1  0  0  0  0
  7  8  2  0  0  0  0
  7 28  1  0  0  0  0
  9 10  1  0  0  0  0
  9 29  1  0  0  0  0
 10 11  1  0  0  0  0
 10 30  1  0  0  0  0
 10 31  1  0  0  0  0
 11 12  1  0  0  0  0
 11 32  1  0  0  0  0
 11 33  1  0  0  0  0
 12 13  1  0  0  0  0
 13 18  1  0  0  0  0
 13 14  1  0  0  0  0
 13 34  1  0  0  0  0
 14 15  1  0  0  0  0
 14 35  1  0  0  0  0
 14 36  1  0  0  0  0
 15 16  1  0  0  0  0
 15 37  1  0  0  0  0
 15 38  1  0  0  0  0
 16 17  1  0  0  0  0
 16 39  1  0  0  0  0
 16 40  1  0  0  0  0
 17 18  1  0  0  0  0
 17 41  1  0  0  0  0
 17 42  1  0  0  0  0
 18 19  1  0  0  0  0
 18 43  1  0  0  0  0
 19 44  1  0  0  0  0
 19 45  1  0  0  0  0
 19 46  1  0  0  0  0
M  END
> <s_m_source_file>
AV-unprocessed.smi

> <i_m_source_file_index>
3348

> <i_lp_mmshare_version>
43012

> <i_f3d_flags>
0

> <s_epik_input>
bjFbY0hdW2NIXVtjSF1uMVtDSDJdW0NAQEhdKFtDSDNdKVtOSF1bQ0gyXVtDSDJdT1tDQEBIXTJbQ0gyXVtDSDJdW0NIMl1bQ0gyXVtDQEhdMltDSDNd

> <s_epik_cmdline>
J2VwaWtfcHl0aG9uJywgJy1waCcsICc3LjAnLCAnLXRuJywgJzgnLCAnLW1hJywgJzIwMCcsICctbWV0YWxfYmluZGluZycsICctaW1hZScsICc8aW5maWxlLm1hZT4nLCAnLW9tYWUnLCAnPG91dGZpbGUubWFlPic=

> <r_lp_tautomer_probability>
1

> <r_epik_Ionization_Penalty>
2.46945

> <r_epik_Ionization_Penalty_Charging>
0

> <r_epik_Ionization_Penalty_Neutral>
2.46945

> <r_epik_State_Penalty>
2.6322

> <r_epik_Charging_Adjusted_Penalty>
2.6322

> <i_epik_Tot_Q>
0

> <i_epik_Tot_abs_Q>
0

> <r_epik_Metal_State_Penalty>
2.63217

> <b_epik_Metal_Only>
0

> <s_lp_Force_Field>
OPLS_2005

> <r_lp_Energy>
18.2161

> <b_lp_Chiralities_Consistent>
1

> <s_lp_Variant>
AV-unprocessed.smi:3348-9

> <Gold.Version>
5.8.1

> <Gold.Id.Protein>
6NUR|6NUR_protein|mol2

> <Gold.PLP.Fitness>
46.4652

> <Gold.PLP.PLP>
-46.1273

> <Gold.PLP.part.hbond>
0.0000

> <Gold.PLP.part.metal>
0.0000

> <Gold.PLP.part.buried>
-4.0180

> <Gold.PLP.part.nonpolar>
-41.8145

> <Gold.PLP.part.repulsive>
0.7487

> <Gold.PLP.ligand.clash>
0.0000

> <Gold.PLP.ligand.torsion>
1.4269

> <Gold.PLP.Chemscore.Hbond>
0.0000

> <Gold.PLP.Chemscore.CHOScore>
1.0000

> <Gold.PLP.Chemscore.Metal>
0.0000

> <Gold.Chemscore.Hbonds>
donor molecule, donor type, donor heavy atom, donor atom, acceptor molecule, acceptor atom, score
      L1  C     5    26       P1  7957  1.00

> <Gold.PLP.Chemscore.Internal.Correction>
0.1916

> <Gold.Rescore>
     Score         DG    S(hbond)    S(metal)    S(lipo)     H(rot)  DE(clash)    DE(int)     intcor
     14.83     -16.43       0.00        0.00     131.28       1.72       0.03       1.56       ----

> <Gold.Chemscore.Fitness>
14.8323

> <Gold.Chemscore.DG>
-16.4271

> <Gold.Chemscore.ZeroCoef>
-5.4800

> <Gold.Chemscore.Hbond>
0.0000

> <Gold.Chemscore.Metal>
0.0000

> <Gold.Chemscore.Lipo>
131.2790

> <Gold.Chemscore.Internal_Hbond>
0.0000

> <Gold.Chemscore.DEClash>
0.0339

> <Gold.Chemscore.DEInternal>
1.5609

> <Gold.Chemscore.Rot>
1.7237

> <Gold.Chemscore.Internal.Correction>
   9.000000E+99

> <Gold.Chemscore.Hbond.Weighted>
-0.0000

> <Gold.Chemscore.Metal.Weighted>
-0.0000

> <Gold.Chemscore.Lipo.Weighted>
-15.3596

> <Gold.Chemscore.Internal_Hbond.Weighted>
0.0000

> <Gold.Chemscore.DEClash.Weighted>
0.0339

> <Gold.Chemscore.DEInternal.Weighted>
1.5609

> <Gold.Chemscore.Rot.Weighted>
4.4126

> <Gold.Chemscore.Internal.Correction.Weighted>
   9.000000E+99

> <Gold.Protein.RotatedTorsions>
[ 6907 6896 6895 6894 ] final   -5.32 input  -60.11 | X-H torsion
[ 7974 7965 7964 7962 ] final  123.45 input  175.53 | X-H torsion
[ 8008 7997 7996 7995 ] final  -83.83 input   59.86 | X-H torsion
[ 10167 10162 10161 10158 ] final -103.28 input  -65.29 | X-H torsion
[ 10718 10713 10712 10709 ] final   76.29 input   66.30 | X-H torsion
[ 10763 10752 10751 10750 ] final   63.78 input  -60.55 | X-H torsion
[ 11005 11000 10999 10996 ] final  140.85 input  -57.11 | X-H torsion

> <Gold.Protein.ActiveResidues>
 VAL166  LYS551  ARG553  GLY616  TRP617  ASP618  TYR619  PRO620  LYS621  CYS622 
 ASP623  PHE694  ASN695  SER759  ASP760  ASP761  ALA762  ILE779  LEU786  VAL792 
 PHE793  MET794  SER795  GLU796  ALA797  LYS798  CYS799  TRP800  GLU811  SER814 

> <Gold.Protein.RotatedAtoms>
  151.4835  135.1053  159.9783 H   0  0  0  0  0  0  0  0  0  0  0  0  # atno 6907 bound_to 6896
  152.4770  133.8157  159.7038 H   0  0  0  0  0  0  0  0  0  0  0  0  # atno 6908 bound_to 6896
  150.8814  133.7305  159.2957 H   0  0  0  0  0  0  0  0  0  0  0  0  # atno 6909 bound_to 6896
  145.0958  139.3554  143.4837 H   0  0  0  0  0  0  0  0  0  0  0  0  # atno 7974 bound_to 7965
  154.6233  140.0613  156.9642 H   0  0  0  0  0  0  0  0  0  0  0  0  # atno 8008 bound_to 7997
  155.1782  140.3297  155.4361 H   0  0  0  0  0  0  0  0  0  0  0  0  # atno 8009 bound_to 7997
  156.2443  140.1902  156.6880 H   0  0  0  0  0  0  0  0  0  0  0  0  # atno 8010 bound_to 7997
  140.2217  143.3671  152.0964 H   0  0  0  0  0  0  0  0  0  0  0  0  # atno 10167 bound_to 10162
  157.6668  130.9767  150.1476 H   0  0  0  0  0  0  0  0  0  0  0  0  # atno 10718 bound_to 10713
  153.0030  135.5417  154.6405 H   0  0  0  0  0  0  0  0  0  0  0  0  # atno 10763 bound_to 10752
  154.5662  135.2838  155.0874 H   0  0  0  0  0  0  0  0  0  0  0  0  # atno 10764 bound_to 10752
  154.2058  135.6476  153.5153 H   0  0  0  0  0  0  0  0  0  0  0  0  # atno 10765 bound_to 10752
  140.0357  134.9330  157.0749 H   0  0  0  0  0  0  0  0  0  0  0  0  # atno 11005 bound_to 11000
  146.3531  140.0813  142.8617 LP  0  0  0  0  0  0  0  0  0  0  0  0  # atno 17320 bound_to 7965
  145.1013  140.9347  143.4711 LP  0  0  0  0  0  0  0  0  0  0  0  0  # atno 17321 bound_to 7965
  139.5142  144.6944  151.5671 LP  0  0  0  0  0  0  0  0  0  0  0  0  # atno 17342 bound_to 10162
  140.6250  143.9185  150.6557 LP  0  0  0  0  0  0  0  0  0  0  0  0  # atno 17343 bound_to 10162
  156.2283  130.3680  149.8474 LP  0  0  0  0  0  0  0  0  0  0  0  0  # atno 17370 bound_to 10713
  156.6308  130.8665  151.3495 LP  0  0  0  0  0  0  0  0  0  0  0  0  # atno 17371 bound_to 10713
  140.4151  134.1940  155.7163 LP  0  0  0  0  0  0  0  0  0  0  0  0  # atno 17394 bound_to 11000
  141.1856  133.8319  157.1098 LP  0  0  0  0  0  0  0  0  0  0  0  0  # atno 17395 bound_to 11000

$$$$
