AV-unprocessed.smi:12|AV-procd|sdf|68|dock5
  -GOLD-   2262015193D 1   1.00000     0.00000
 Structure written by MMmdl.
 41 44  0  0  0  0  0  0  0  0  1 V2000
  151.7048  144.7235  160.3530 C   0  0  0  0  0  0  0  0  0  0  0  0
  152.2093  143.2928  160.3004 C   0  0  0  0  0  0  0  0  0  0  0  0
  152.0380  142.5177  159.2036 C   0  0  0  0  0  0  0  0  0  0  0  0
  152.5022  141.2321  159.2112 N   0  0  0  0  0  0  0  0  0  0  0  0
  153.1702  140.7363  160.3517 C   0  0  0  0  0  0  0  0  0  0  0  0
  153.3752  141.4146  161.4377 N   0  0  0  0  0  0  0  0  0  0  0  0
  152.9036  142.7404  161.4906 C   0  0  0  0  0  0  0  0  0  0  0  0
  153.0677  143.4210  162.5021 O   0  0  0  0  0  0  0  0  0  0  0  0
  153.5545  139.4525  160.1129 O   0  0  0  0  0  0  0  0  0  0  0  0
  153.1265  139.0506  158.8035 C   0  0  1  0  0  0  0  0  0  0  0  0
  152.0149  138.0101  158.9127 C   0  0  2  0  0  0  0  0  0  0  0  0
  152.1203  137.0593  157.8695 O   0  0  0  0  0  0  0  0  0  0  0  0
  150.7300  138.8446  158.8177 C   0  0  2  0  0  0  0  0  0  0  0  0
  149.4836  138.0994  158.3219 C   0  0  0  0  0  0  0  0  0  0  0  0
  148.8642  137.4599  159.4255 O   0  0  0  0  0  0  0  0  0  0  0  0
  148.6806  136.1260  159.4188 C   0  0  0  0  0  0  0  0  0  0  0  0
  149.1560  135.3759  158.5638 O   0  0  0  0  0  0  0  0  0  0  0  0
  147.8444  135.6513  160.5590 C   0  0  0  0  0  0  0  0  0  0  0  0
  147.3298  136.5925  161.4809 C   0  0  0  0  0  0  0  0  0  0  0  0
  146.5369  136.1733  162.5667 C   0  0  0  0  0  0  0  0  0  0  0  0
  146.2506  134.8073  162.7452 C   0  0  0  0  0  0  0  0  0  0  0  0
  146.7577  133.8609  161.8359 C   0  0  0  0  0  0  0  0  0  0  0  0
  147.5498  134.2784  160.7485 C   0  0  0  0  0  0  0  0  0  0  0  0
  151.0908  139.8936  157.9279 O   0  0  0  0  0  0  0  0  0  0  0  0
  152.4264  140.2476  158.1270 C   0  0  1  0  0  0  0  0  0  0  0  0
  151.2228  145.0081  159.4173 H   0  0  0  0  0  0  0  0  0  0  0  0
  152.5297  145.4141  160.5310 H   0  0  0  0  0  0  0  0  0  0  0  0
  150.9770  144.8411  161.1565 H   0  0  0  0  0  0  0  0  0  0  0  0
  151.5341  142.8966  158.3265 H   0  0  0  0  0  0  0  0  0  0  0  0
  153.9777  138.7135  158.2098 H   0  0  0  0  0  0  0  0  0  0  0  0
  152.0642  137.4661  159.8567 H   0  0  0  0  0  0  0  0  0  0  0  0
  153.0220  137.0179  157.5894 H   0  0  0  0  0  0  0  0  0  0  0  0
  150.5277  139.2788  159.7988 H   0  0  0  0  0  0  0  0  0  0  0  0
  148.7871  138.7850  157.8373 H   0  0  0  0  0  0  0  0  0  0  0  0
  149.7726  137.3449  157.5888 H   0  0  0  0  0  0  0  0  0  0  0  0
  147.5364  137.6467  161.3644 H   0  0  0  0  0  0  0  0  0  0  0  0
  146.1478  136.9016  163.2629 H   0  0  0  0  0  0  0  0  0  0  0  0
  145.6430  134.4859  163.5785 H   0  0  0  0  0  0  0  0  0  0  0  0
  146.5394  132.8119  161.9718 H   0  0  0  0  0  0  0  0  0  0  0  0
  147.9247  133.5256  160.0705 H   0  0  0  0  0  0  0  0  0  0  0  0
  152.9340  140.6962  157.2727 H   0  0  0  0  0  0  0  0  0  0  0  0
  1  2  1  0  0  0  0
  1 26  1  0  0  0  0
  1 27  1  0  0  0  0
  1 28  1  0  0  0  0
  2  7  1  0  0  0  0
  2  3  2  0  0  0  0
  3  4  1  0  0  0  0
  3 29  1  0  0  0  0
  4 25  1  0  0  0  0
  4  5  1  0  0  0  0
  5  6  2  0  0  0  0
  5  9  1  0  0  0  0
  6  7  1  0  0  0  0
  7  8  2  0  0  0  0
  9 10  1  0  0  0  0
 10 25  1  0  0  0  0
 10 11  1  0  0  0  0
 10 30  1  0  0  0  0
 11 12  1  0  0  0  0
 11 13  1  0  0  0  0
 11 31  1  0  0  0  0
 12 32  1  0  0  0  0
 13 14  1  0  0  0  0
 13 24  1  0  0  0  0
 13 33  1  0  0  0  0
 14 15  1  0  0  0  0
 14 34  1  0  0  0  0
 14 35  1  0  0  0  0
 15 16  1  0  0  0  0
 16 17  2  0  0  0  0
 16 18  1  0  0  0  0
 18 23  1  0  0  0  0
 18 19  2  0  0  0  0
 19 20  1  0  0  0  0
 19 36  1  0  0  0  0
 20 21  2  0  0  0  0
 20 37  1  0  0  0  0
 21 22  1  0  0  0  0
 21 38  1  0  0  0  0
 22 23  2  0  0  0  0
 22 39  1  0  0  0  0
 23 40  1  0  0  0  0
 24 25  1  0  0  0  0
 25 41  1  0  0  0  0
M  END
> <s_m_source_file>
AV-unprocessed.smi

> <i_m_source_file_index>
12

> <i_lp_mmshare_version>
43012

> <i_f3d_flags>
0

> <s_epik_input>
W0NIM11jKFtjSF0xKWMoPU8pbmMobjEyKU9bQ0BIXTNbQ0BASF0yT1tDQEBIXShbQ0BASF0zW09IXSlbQ0gyXU9DKD1PKWM0W2NIXVtjSF1bY0hdW2NIXVtjSF00

> <s_epik_cmdline>
J2VwaWtfcHl0aG9uJywgJy1waCcsICc3LjAnLCAnLXRuJywgJzgnLCAnLW1hJywgJzIwMCcsICctbWV0YWxfYmluZGluZycsICctaW1hZScsICc8aW5maWxlLm1hZT4nLCAnLW9tYWUnLCAnPG91dGZpbGUubWFlPic=

> <r_lp_tautomer_probability>
0.933681

> <r_epik_Ionization_Penalty>
0.00399549

> <r_epik_Ionization_Penalty_Charging>
3.09373e-09

> <r_epik_Ionization_Penalty_Neutral>
0.00399549

> <r_epik_State_Penalty>
0.00284953

> <r_epik_Charging_Adjusted_Penalty>
0.00284953

> <i_epik_Tot_Q>
0

> <i_epik_Tot_abs_Q>
0

> <r_epik_Metal_State_Penalty>
-0

> <b_epik_Metal_Only>
0

> <s_epik_Chemistry_Notes>
This compound has an ester and may undergo hydrolysis at high or low pH. This compound contains an acetal/aminal-like group ( X-CH(R)-Y where X, Y are N, S, or O) that may be acid/base labile, releasing an aldehyde.

> <s_lp_Force_Field>
OPLS_2005

> <r_lp_Energy>
39.7302

> <b_lp_Chiralities_Consistent>
1

> <s_lp_Variant>
AV-unprocessed.smi:12-8

> <Gold.Version>
5.8.1

> <Gold.Id.Protein>
6NUR|6NUR_protein|mol2

> <Gold.PLP.Fitness>
48.5337

> <Gold.PLP.PLP>
-46.9251

> <Gold.PLP.part.hbond>
-2.1948

> <Gold.PLP.part.metal>
0.0000

> <Gold.PLP.part.buried>
-5.3897

> <Gold.PLP.part.nonpolar>
-40.4692

> <Gold.PLP.part.repulsive>
0.1494

> <Gold.PLP.ligand.clash>
0.0000

> <Gold.PLP.ligand.torsion>
0.7019

> <Gold.PLP.Chemscore.Hbond>
1.0000

> <Gold.PLP.Chemscore.CHOScore>
0.0000

> <Gold.PLP.Chemscore.Metal>
0.0000

> <Gold.Chemscore.Hbonds>
donor molecule, donor type, donor heavy atom, donor atom, acceptor molecule, acceptor atom, score
      P1  H  6896  6908       L1    17  1.00

> <Gold.PLP.Chemscore.Internal.Correction>
0.0124

> <Gold.Rescore>
     Score         DG    S(hbond)    S(metal)    S(lipo)     H(rot)  DE(clash)    DE(int)     intcor
     13.26     -14.29       0.97        0.00      95.32       2.18       0.25       0.78       ----

> <Gold.Chemscore.Fitness>
13.2616

> <Gold.Chemscore.DG>
-14.2886

> <Gold.Chemscore.ZeroCoef>
-5.4800

> <Gold.Chemscore.Hbond>
0.9692

> <Gold.Chemscore.Metal>
0.0000

> <Gold.Chemscore.Lipo>
95.3182

> <Gold.Chemscore.Internal_Hbond>
0.0000

> <Gold.Chemscore.DEClash>
0.2451

> <Gold.Chemscore.DEInternal>
0.7820

> <Gold.Chemscore.Rot>
2.1800

> <Gold.Chemscore.Internal.Correction>
   9.000000E+99

> <Gold.Chemscore.Hbonds>
donor molecule, donor type, donor heavy atom, donor atom, acceptor molecule, acceptor atom, score
      P1  H  6896  6908       L1    17  0.44

> <Gold.Chemscore.Hbond.Weighted>
-3.2372

> <Gold.Chemscore.Metal.Weighted>
-0.0000

> <Gold.Chemscore.Lipo.Weighted>
-11.1522

> <Gold.Chemscore.Internal_Hbond.Weighted>
0.0000

> <Gold.Chemscore.DEClash.Weighted>
0.2451

> <Gold.Chemscore.DEInternal.Weighted>
0.7820

> <Gold.Chemscore.Rot.Weighted>
5.5807

> <Gold.Chemscore.Internal.Correction.Weighted>
   9.000000E+99

> <Gold.Protein.RotatedTorsions>
[ 6907 6896 6895 6894 ] final  163.41 input  -60.11 | X-H torsion
[ 7974 7965 7964 7962 ] final   99.64 input  175.53 | X-H torsion
[ 8008 7997 7996 7995 ] final   64.05 input   59.86 | X-H torsion
[ 10167 10162 10161 10158 ] final -165.33 input  -65.29 | X-H torsion
[ 10718 10713 10712 10709 ] final    1.70 input   66.30 | X-H torsion
[ 10763 10752 10751 10750 ] final -179.53 input  -60.55 | X-H torsion
[ 11005 11000 10999 10996 ] final  113.15 input  -57.11 | X-H torsion

> <Gold.Protein.ActiveResidues>
 VAL166  LYS551  ARG553  GLY616  TRP617  ASP618  TYR619  PRO620  LYS621  CYS622 
 ASP623  PHE694  ASN695  SER759  ASP760  ASP761  ALA762  ILE779  LEU786  VAL792 
 PHE793  MET794  SER795  GLU796  ALA797  LYS798  CYS799  TRP800  GLU811  SER814 

> <Gold.Protein.RotatedAtoms>
  151.9256  133.3597  159.3912 H   0  0  0  0  0  0  0  0  0  0  0  0  # atno 6907 bound_to 6896
  150.7028  134.4590  159.5381 H   0  0  0  0  0  0  0  0  0  0  0  0  # atno 6908 bound_to 6896
  152.2222  134.8402  160.0535 H   0  0  0  0  0  0  0  0  0  0  0  0  # atno 6909 bound_to 6896
  145.3962  139.2355  143.3325 H   0  0  0  0  0  0  0  0  0  0  0  0  # atno 7974 bound_to 7965
  155.6400  140.3497  155.4711 H   0  0  0  0  0  0  0  0  0  0  0  0  # atno 8008 bound_to 7997
  155.9934  140.1198  157.0640 H   0  0  0  0  0  0  0  0  0  0  0  0  # atno 8009 bound_to 7997
  154.4226  140.1115  156.5583 H   0  0  0  0  0  0  0  0  0  0  0  0  # atno 8010 bound_to 7997
  139.6189  144.0663  152.1914 H   0  0  0  0  0  0  0  0  0  0  0  0  # atno 10167 bound_to 10162
  156.8521  130.5557  149.5669 H   0  0  0  0  0  0  0  0  0  0  0  0  # atno 10718 bound_to 10713
  154.5339  135.2801  155.1155 H   0  0  0  0  0  0  0  0  0  0  0  0  # atno 10763 bound_to 10752
  154.2664  135.6312  153.5297 H   0  0  0  0  0  0  0  0  0  0  0  0  # atno 10764 bound_to 10752
  152.9963  135.5618  154.5860 H   0  0  0  0  0  0  0  0  0  0  0  0  # atno 10765 bound_to 10752
  139.8945  134.9544  156.6694 H   0  0  0  0  0  0  0  0  0  0  0  0  # atno 11005 bound_to 11000
  146.2774  140.4652  142.8790 LP  0  0  0  0  0  0  0  0  0  0  0  0  # atno 17320 bound_to 7965
  144.8406  140.6850  143.6232 LP  0  0  0  0  0  0  0  0  0  0  0  0  # atno 17321 bound_to 7965
  140.0300  144.6088  150.7495 LP  0  0  0  0  0  0  0  0  0  0  0  0  # atno 17342 bound_to 10162
  140.7369  143.2759  151.3743 LP  0  0  0  0  0  0  0  0  0  0  0  0  # atno 17343 bound_to 10162
  156.0822  130.5830  150.9584 LP  0  0  0  0  0  0  0  0  0  0  0  0  # atno 17370 bound_to 10713
  157.6297  131.0922  150.8465 LP  0  0  0  0  0  0  0  0  0  0  0  0  # atno 17371 bound_to 10713
  140.7385  133.8998  155.8261 LP  0  0  0  0  0  0  0  0  0  0  0  0  # atno 17394 bound_to 11000
  141.0097  134.1038  157.4234 LP  0  0  0  0  0  0  0  0  0  0  0  0  # atno 17395 bound_to 11000

$$$$
