AV-unprocessed.smi:15|AV-procd|sdf|86|dock9
  -GOLD-   2262015223D 1   1.00000     0.00000
 Structure written by MMmdl.
 53 56  0  0  0  0  0  0  0  0  1 V2000
  153.6948  140.4526  159.1777 C   0  0  0  0  0  0  0  0  0  0  0  0
  152.2720  140.0246  158.7952 C   0  0  0  0  0  0  0  0  0  0  0  0
  151.7998  140.6615  157.5658 N   0  0  0  0  0  0  0  0  0  0  0  0
  151.0642  141.9262  157.6258 C   0  0  0  0  0  0  0  0  0  0  0  0
  151.8615  143.0606  158.2972 C   0  0  1  0  0  0  0  0  0  0  0  0
  151.4379  144.4559  157.8454 C   0  0  0  0  0  0  0  0  0  0  0  0
  151.8557  145.3469  159.0054 C   0  0  0  0  0  0  0  0  0  0  0  0
  152.0781  144.3700  160.1637 C   0  0  0  0  0  0  0  0  0  0  0  0
  151.5965  143.1209  159.6903 O   0  0  0  0  0  0  0  0  0  0  0  0
  151.4177  139.8438  156.5552 C   0  0  0  0  0  0  0  0  0  0  0  0
  150.9361  140.4267  155.4279 N   0  0  0  0  0  0  0  0  0  0  0  0
  150.5219  139.6733  154.4054 C   0  0  0  0  0  0  0  0  0  0  0  0
  150.4946  138.3430  154.3062 N   0  0  0  0  0  0  0  0  0  0  0  0
  150.9679  137.7515  155.4403 C   0  0  0  0  0  0  0  0  0  0  0  0
  151.4484  138.4193  156.6025 C   0  0  0  0  0  0  0  0  0  0  0  0
  151.8266  137.4838  157.5591 N   0  0  0  0  0  0  0  0  0  0  0  0
  151.5914  136.3323  156.9924 C   0  0  0  0  0  0  0  0  0  0  0  0
  151.0791  136.4000  155.7169 N   0  0  0  0  0  0  0  0  0  0  0  0
  150.7198  135.2782  154.8623 C   0  0  0  0  0  0  0  0  0  0  0  0
  149.2140  134.9120  154.9254 C   0  0  2  0  0  0  0  0  0  0  0  0
  148.4800  135.9987  154.3844 O   0  0  0  0  0  0  0  0  0  0  0  0
  148.7029  134.6607  156.3408 C   0  0  0  0  0  0  0  0  0  0  0  0
  147.5384  133.7087  156.1172 C   0  0  0  0  0  0  0  0  0  0  0  0
  148.0293  132.8560  155.0977 O   0  0  0  0  0  0  0  0  0  0  0  0
  148.7814  133.6274  154.1632 C   0  0  2  0  0  0  0  0  0  0  0  0
  149.9082  132.7285  153.6291 C   0  0  0  0  0  0  0  0  0  0  0  0
  154.0376  139.9008  160.0531 H   0  0  0  0  0  0  0  0  0  0  0  0
  153.7469  141.5133  159.4231 H   0  0  0  0  0  0  0  0  0  0  0  0
  154.3963  140.2567  158.3663 H   0  0  0  0  0  0  0  0  0  0  0  0
  152.2645  138.9412  158.6666 H   0  0  0  0  0  0  0  0  0  0  0  0
  151.5882  140.2456  159.6145 H   0  0  0  0  0  0  0  0  0  0  0  0
  150.8058  142.2224  156.6099 H   0  0  0  0  0  0  0  0  0  0  0  0
  150.1111  141.7879  158.1377 H   0  0  0  0  0  0  0  0  0  0  0  0
  152.9339  142.9389  158.1359 H   0  0  0  0  0  0  0  0  0  0  0  0
  151.8933  144.7478  156.8988 H   0  0  0  0  0  0  0  0  0  0  0  0
  150.3544  144.4992  157.7252 H   0  0  0  0  0  0  0  0  0  0  0  0
  152.7753  145.8886  158.7810 H   0  0  0  0  0  0  0  0  0  0  0  0
  151.0812  146.0795  159.2343 H   0  0  0  0  0  0  0  0  0  0  0  0
  153.1408  144.2813  160.3931 H   0  0  0  0  0  0  0  0  0  0  0  0
  151.5573  144.6702  161.0731 H   0  0  0  0  0  0  0  0  0  0  0  0
  150.1558  140.2140  153.5450 H   0  0  0  0  0  0  0  0  0  0  0  0
  151.7871  135.3947  157.4922 H   0  0  0  0  0  0  0  0  0  0  0  0
  151.0087  135.5245  153.8398 H   0  0  0  0  0  0  0  0  0  0  0  0
  151.3336  134.4279  155.1596 H   0  0  0  0  0  0  0  0  0  0  0  0
  148.5197  135.9459  153.4417 H   0  0  0  0  0  0  0  0  0  0  0  0
  149.4649  134.1482  156.9292 H   0  0  0  0  0  0  0  0  0  0  0  0
  148.4218  135.5679  156.8779 H   0  0  0  0  0  0  0  0  0  0  0  0
  147.2690  133.1510  157.0141 H   0  0  0  0  0  0  0  0  0  0  0  0
  146.6559  134.2417  155.7605 H   0  0  0  0  0  0  0  0  0  0  0  0
  148.1212  133.8808  153.3316 H   0  0  0  0  0  0  0  0  0  0  0  0
  150.5240  133.2515  152.8976 H   0  0  0  0  0  0  0  0  0  0  0  0
  149.4959  131.8478  153.1363 H   0  0  0  0  0  0  0  0  0  0  0  0
  150.5554  132.3779  154.4332 H   0  0  0  0  0  0  0  0  0  0  0  0
  1  2  1  0  0  0  0
  1 27  1  0  0  0  0
  1 28  1  0  0  0  0
  1 29  1  0  0  0  0
  2  3  1  0  0  0  0
  2 30  1  0  0  0  0
  2 31  1  0  0  0  0
  3  4  1  0  0  0  0
  3 10  1  0  0  0  0
  4  5  1  0  0  0  0
  4 32  1  0  0  0  0
  4 33  1  0  0  0  0
  5  9  1  0  0  0  0
  5  6  1  0  0  0  0
  5 34  1  0  0  0  0
  6  7  1  0  0  0  0
  6 35  1  0  0  0  0
  6 36  1  0  0  0  0
  7  8  1  0  0  0  0
  7 37  1  0  0  0  0
  7 38  1  0  0  0  0
  8  9  1  0  0  0  0
  8 39  1  0  0  0  0
  8 40  1  0  0  0  0
 10 15  1  0  0  0  0
 10 11  2  0  0  0  0
 11 12  1  0  0  0  0
 12 13  2  0  0  0  0
 12 41  1  0  0  0  0
 13 14  1  0  0  0  0
 14 18  1  0  0  0  0
 14 15  2  0  0  0  0
 15 16  1  0  0  0  0
 16 17  2  0  0  0  0
 17 18  1  0  0  0  0
 17 42  1  0  0  0  0
 18 19  1  0  0  0  0
 19 20  1  0  0  0  0
 19 43  1  0  0  0  0
 19 44  1  0  0  0  0
 20 25  1  0  0  0  0
 20 21  1  0  0  0  0
 20 22  1  0  0  0  0
 21 45  1  0  0  0  0
 22 23  1  0  0  0  0
 22 46  1  0  0  0  0
 22 47  1  0  0  0  0
 23 24  1  0  0  0  0
 23 48  1  0  0  0  0
 23 49  1  0  0  0  0
 24 25  1  0  0  0  0
 25 26  1  0  0  0  0
 25 50  1  0  0  0  0
 26 51  1  0  0  0  0
 26 52  1  0  0  0  0
 26 53  1  0  0  0  0
M  END
> <s_m_source_file>
AV-unprocessed.smi

> <i_m_source_file_index>
15

> <i_lp_mmshare_version>
43012

> <i_f3d_flags>
0

> <s_epik_input>
TzFbQ0gyXVtDSDJdW0NIMl1bQ0BIXTFbQ0gyXU4oW0NIMl1bQ0gzXSljKG5bY0hdbjIpYyhjMjMpbltjSF1uM1tDSDJdW0NAQF00KFtPSF0pW0NIMl1bQ0gyXU9bQ0BIXTRbQ0gzXQ==

> <s_epik_cmdline>
J2VwaWtfcHl0aG9uJywgJy1waCcsICc3LjAnLCAnLXRuJywgJzgnLCAnLW1hJywgJzIwMCcsICctbWV0YWxfYmluZGluZycsICctaW1hZScsICc8aW5maWxlLm1hZT4nLCAnLW9tYWUnLCAnPG91dGZpbGUubWFlPic=

> <r_lp_tautomer_probability>
1

> <r_epik_Ionization_Penalty>
0.00360814

> <r_epik_Ionization_Penalty_Charging>
0

> <r_epik_Ionization_Penalty_Neutral>
0.00360814

> <r_epik_State_Penalty>
0.00237482

> <r_epik_Charging_Adjusted_Penalty>
0.00237482

> <i_epik_Tot_Q>
0

> <i_epik_Tot_abs_Q>
0

> <r_epik_Metal_State_Penalty>
-0

> <b_epik_Metal_Only>
0

> <s_lp_Force_Field>
OPLS_2005

> <r_lp_Energy>
45.3604

> <b_lp_Chiralities_Consistent>
1

> <s_lp_Variant>
AV-unprocessed.smi:15-8

> <Gold.Version>
5.8.1

> <Gold.Id.Protein>
6NUR|6NUR_protein|mol2

> <Gold.PLP.Fitness>
46.3119

> <Gold.PLP.PLP>
-41.9037

> <Gold.PLP.part.hbond>
-2.0000

> <Gold.PLP.part.metal>
0.0000

> <Gold.PLP.part.buried>
-5.2757

> <Gold.PLP.part.nonpolar>
-34.9010

> <Gold.PLP.part.repulsive>
0.2441

> <Gold.PLP.ligand.clash>
0.0000

> <Gold.PLP.ligand.torsion>
1.2817

> <Gold.PLP.Chemscore.Hbond>
1.0000

> <Gold.PLP.Chemscore.CHOScore>
1.0000

> <Gold.PLP.Chemscore.Metal>
0.0000

> <Gold.Chemscore.Hbonds>
donor molecule, donor type, donor heavy atom, donor atom, acceptor molecule, acceptor atom, score
      L1  H    21    45       P1  7948  1.00
      L1  C    12    41       P1  7957  1.00

> <Gold.PLP.Chemscore.Internal.Correction>
0.9716

> <Gold.Rescore>
     Score         DG    S(hbond)    S(metal)    S(lipo)     H(rot)  DE(clash)    DE(int)     intcor
     11.38     -14.05       1.00        0.00      98.26       2.44       0.03       2.64       ----

> <Gold.Chemscore.Fitness>
11.3841

> <Gold.Chemscore.DG>
-14.0462

> <Gold.Chemscore.ZeroCoef>
-5.4800

> <Gold.Chemscore.Hbond>
0.9954

> <Gold.Chemscore.Metal>
0.0000

> <Gold.Chemscore.Lipo>
98.2565

> <Gold.Chemscore.Internal_Hbond>
0.0000

> <Gold.Chemscore.DEClash>
0.0270

> <Gold.Chemscore.DEInternal>
2.6351

> <Gold.Chemscore.Rot>
2.4431

> <Gold.Chemscore.Internal.Correction>
   9.000000E+99

> <Gold.Chemscore.Hbonds>
donor molecule, donor type, donor heavy atom, donor atom, acceptor molecule, acceptor atom, score
      L1  H    21    45       P1  7948  1.00

> <Gold.Chemscore.Hbond.Weighted>
-3.3246

> <Gold.Chemscore.Metal.Weighted>
-0.0000

> <Gold.Chemscore.Lipo.Weighted>
-11.4960

> <Gold.Chemscore.Internal_Hbond.Weighted>
0.0000

> <Gold.Chemscore.DEClash.Weighted>
0.0270

> <Gold.Chemscore.DEInternal.Weighted>
2.6351

> <Gold.Chemscore.Rot.Weighted>
6.2544

> <Gold.Chemscore.Internal.Correction.Weighted>
   9.000000E+99

> <Gold.Protein.RotatedTorsions>
[ 6907 6896 6895 6894 ] final -140.79 input  -60.11 | X-H torsion
[ 7974 7965 7964 7962 ] final  -12.53 input  175.53 | X-H torsion
[ 8008 7997 7996 7995 ] final   43.55 input   59.86 | X-H torsion
[ 10167 10162 10161 10158 ] final  141.70 input  -65.29 | X-H torsion
[ 10718 10713 10712 10709 ] final  -79.70 input   66.30 | X-H torsion
[ 10763 10752 10751 10750 ] final   26.32 input  -60.55 | X-H torsion
[ 11005 11000 10999 10996 ] final  -59.18 input  -57.11 | X-H torsion

> <Gold.Protein.ActiveResidues>
 VAL166  LYS551  ARG553  GLY616  TRP617  ASP618  TYR619  PRO620  LYS621  CYS622 
 ASP623  PHE694  ASN695  SER759  ASP760  ASP761  ALA762  ILE779  LEU786  VAL792 
 PHE793  MET794  SER795  GLU796  ALA797  LYS798  CYS799  TRP800  GLU811  SER814 

> <Gold.Protein.RotatedAtoms>
  151.0653  133.5510  159.2630 H   0  0  0  0  0  0  0  0  0  0  0  0  # atno 6907 bound_to 6896
  151.2470  135.0608  159.9057 H   0  0  0  0  0  0  0  0  0  0  0  0  # atno 6908 bound_to 6896
  152.5404  134.0419  159.8125 H   0  0  0  0  0  0  0  0  0  0  0  0  # atno 6909 bound_to 6896
  146.2148  140.3071  142.8379 H   0  0  0  0  0  0  0  0  0  0  0  0  # atno 7974 bound_to 7965
  155.3046  140.3387  155.4246 H   0  0  0  0  0  0  0  0  0  0  0  0  # atno 8008 bound_to 7997
  156.1985  140.1724  156.7988 H   0  0  0  0  0  0  0  0  0  0  0  0  # atno 8009 bound_to 7997
  154.5529  140.0702  156.8680 H   0  0  0  0  0  0  0  0  0  0  0  0  # atno 8010 bound_to 7997
  139.5013  144.6154  151.6175 H   0  0  0  0  0  0  0  0  0  0  0  0  # atno 10167 bound_to 10162
  156.0086  130.4553  150.3688 H   0  0  0  0  0  0  0  0  0  0  0  0  # atno 10718 bound_to 10713
  153.0630  135.6563  154.0418 H   0  0  0  0  0  0  0  0  0  0  0  0  # atno 10763 bound_to 10752
  154.0081  135.2931  155.3397 H   0  0  0  0  0  0  0  0  0  0  0  0  # atno 10764 bound_to 10752
  154.6977  135.5257  153.8550 H   0  0  0  0  0  0  0  0  0  0  0  0  # atno 10765 bound_to 10752
  141.1237  133.6615  156.5032 H   0  0  0  0  0  0  0  0  0  0  0  0  # atno 11005 bound_to 11000
  144.9015  140.7648  143.5864 LP  0  0  0  0  0  0  0  0  0  0  0  0  # atno 17320 bound_to 7965
  145.2997  139.1854  143.4696 LP  0  0  0  0  0  0  0  0  0  0  0  0  # atno 17321 bound_to 7965
  140.5841  143.9895  150.6285 LP  0  0  0  0  0  0  0  0  0  0  0  0  # atno 17342 bound_to 10162
  140.3054  143.3233  152.0931 LP  0  0  0  0  0  0  0  0  0  0  0  0  # atno 17343 bound_to 10162
  157.1774  131.0383  151.2765 LP  0  0  0  0  0  0  0  0  0  0  0  0  # atno 17370 bound_to 10713
  157.4176  130.7419  149.6888 LP  0  0  0  0  0  0  0  0  0  0  0  0  # atno 17371 bound_to 10713
  140.4429  134.6999  157.5001 LP  0  0  0  0  0  0  0  0  0  0  0  0  # atno 17394 bound_to 11000
  140.0217  134.6537  155.9230 LP  0  0  0  0  0  0  0  0  0  0  0  0  # atno 17395 bound_to 11000

$$$$
