AV-unprocessed.smi:1481|AV-procd|sdf|5987|dock7
  -GOLD-   22720 6 83D 1   1.00000     0.00000
 Structure written by MMmdl.
 39 40  0  0  0  0  0  0  0  0  1 V2000
  145.0429  137.7939  153.3179 O   0  0  0  0  0  0  0  0  0  0  0  0
  146.1568  137.4825  152.8956 C   0  0  0  0  0  0  0  0  0  0  0  0
  147.1629  138.3510  152.7212 N   0  0  0  0  0  0  0  0  0  0  0  0
  147.0910  139.7777  153.0219 C   0  0  0  0  0  0  0  0  0  0  0  0
  148.0602  140.2423  154.1004 C   0  0  0  0  0  0  0  0  0  0  0  0
  147.6250  140.9230  155.2569 C   0  0  0  0  0  0  0  0  0  0  0  0
  148.5767  141.3244  156.2132 C   0  0  0  0  0  0  0  0  0  0  0  0
  149.9440  141.0335  155.9923 C   0  0  0  0  0  0  0  0  0  0  0  0
  150.9171  141.4350  156.9336 N   0  0  0  0  0  0  0  0  0  0  0  0
  150.8849  142.8190  157.4035 C   0  0  0  0  0  0  0  0  0  0  0  0
  152.1653  143.1495  158.1886 C   0  0  0  0  0  0  0  0  0  0  0  0
  152.3321  142.2143  159.2488 O   0  0  0  0  0  0  0  0  0  0  0  0
  152.4733  140.8839  158.7624 C   0  0  0  0  0  0  0  0  0  0  0  0
  151.2061  140.4714  157.9934 C   0  0  0  0  0  0  0  0  0  0  0  0
  150.3555  140.3635  154.8874 N   0  0  0  0  0  0  0  0  0  0  0  0
  149.4393  139.9827  153.9727 C   0  0  0  0  0  0  0  0  0  0  0  0
  146.5139  136.2340  152.5666 N   0  0  0  0  0  0  0  0  0  0  0  0
  145.6580  135.0589  152.6935 C   0  0  0  0  0  0  0  0  0  0  0  0
  145.2914  134.4641  151.3232 C   0  0  0  0  0  0  0  0  0  0  0  0
  144.8131  135.4308  150.5411 F   0  0  0  0  0  0  0  0  0  0  0  0
  146.3730  133.9427  150.7437 F   0  0  0  0  0  0  0  0  0  0  0  0
  144.3609  133.5176  151.4463 F   0  0  0  0  0  0  0  0  0  0  0  0
  148.0421  138.0020  152.3686 H   0  0  0  0  0  0  0  0  0  0  0  0
  147.3088  140.3292  152.1070 H   0  0  0  0  0  0  0  0  0  0  0  0
  146.0701  140.0405  153.3048 H   0  0  0  0  0  0  0  0  0  0  0  0
  146.5788  141.1368  155.4177 H   0  0  0  0  0  0  0  0  0  0  0  0
  148.2466  141.8354  157.1051 H   0  0  0  0  0  0  0  0  0  0  0  0
  150.7937  143.5029  156.5588 H   0  0  0  0  0  0  0  0  0  0  0  0
  150.0098  142.9648  158.0387 H   0  0  0  0  0  0  0  0  0  0  0  0
  153.0382  143.1340  157.5340 H   0  0  0  0  0  0  0  0  0  0  0  0
  152.0999  144.1536  158.6078 H   0  0  0  0  0  0  0  0  0  0  0  0
  153.3561  140.8099  158.1248 H   0  0  0  0  0  0  0  0  0  0  0  0
  152.6343  140.2131  159.6063 H   0  0  0  0  0  0  0  0  0  0  0  0
  150.3542  140.4312  158.6735 H   0  0  0  0  0  0  0  0  0  0  0  0
  151.3443  139.4654  157.5998 H   0  0  0  0  0  0  0  0  0  0  0  0
  149.8218  139.4568  153.1104 H   0  0  0  0  0  0  0  0  0  0  0  0
  147.4532  136.0784  152.2312 H   0  0  0  0  0  0  0  0  0  0  0  0
  146.1332  134.3036  153.3219 H   0  0  0  0  0  0  0  0  0  0  0  0
  144.7502  135.3629  153.2153 H   0  0  0  0  0  0  0  0  0  0  0  0
  1  2  2  0  0  0  0
  2  3  1  0  0  0  0
  2 17  1  0  0  0  0
  3  4  1  0  0  0  0
  3 23  1  0  0  0  0
  4  5  1  0  0  0  0
  4 24  1  0  0  0  0
  4 25  1  0  0  0  0
  5 16  1  0  0  0  0
  5  6  2  0  0  0  0
  6  7  1  0  0  0  0
  6 26  1  0  0  0  0
  7  8  2  0  0  0  0
  7 27  1  0  0  0  0
  8  9  1  0  0  0  0
  8 15  1  0  0  0  0
  9 14  1  0  0  0  0
  9 10  1  0  0  0  0
 10 11  1  0  0  0  0
 10 28  1  0  0  0  0
 10 29  1  0  0  0  0
 11 12  1  0  0  0  0
 11 30  1  0  0  0  0
 11 31  1  0  0  0  0
 12 13  1  0  0  0  0
 13 14  1  0  0  0  0
 13 32  1  0  0  0  0
 13 33  1  0  0  0  0
 14 34  1  0  0  0  0
 14 35  1  0  0  0  0
 15 16  2  0  0  0  0
 16 36  1  0  0  0  0
 17 18  1  0  0  0  0
 17 37  1  0  0  0  0
 18 19  1  0  0  0  0
 18 38  1  0  0  0  0
 18 39  1  0  0  0  0
 19 20  1  0  0  0  0
 19 21  1  0  0  0  0
 19 22  1  0  0  0  0
M  END
> <s_m_source_file>
AV-unprocessed.smi

> <i_m_source_file_index>
1481

> <i_lp_mmshare_version>
43012

> <i_f3d_flags>
0

> <s_epik_input>
RkMoRikoRilbQ0gyXVtOSF1DKD1PKVtOSF1bQ0gyXWMxW2NIXVtjSF1jKG5bY0hdMSlOMltDSDJdW0NIMl1PW0NIMl1bQ0gyXTI=

> <s_epik_cmdline>
J2VwaWtfcHl0aG9uJywgJy1waCcsICc3LjAnLCAnLXRuJywgJzgnLCAnLW1hJywgJzIwMCcsICctbWV0YWxfYmluZGluZycsICctaW1hZScsICc8aW5maWxlLm1hZT4nLCAnLW9tYWUnLCAnPG91dGZpbGUubWFlPic=

> <r_lp_tautomer_probability>
1

> <r_epik_Ionization_Penalty>
0.00288034

> <r_epik_Ionization_Penalty_Charging>
0

> <r_epik_Ionization_Penalty_Neutral>
0.00288034

> <r_epik_State_Penalty>
0.00199456

> <r_epik_Charging_Adjusted_Penalty>
0.00199456

> <i_epik_Tot_Q>
0

> <i_epik_Tot_abs_Q>
0

> <r_epik_Metal_State_Penalty>
-0

> <b_epik_Metal_Only>
0

> <s_lp_Force_Field>
OPLS_2005

> <r_lp_Energy>
12.6538

> <b_lp_Chiralities_Consistent>
1

> <s_lp_Variant>
AV-unprocessed.smi:1481-1

> <Gold.Version>
5.8.1

> <Gold.Id.Protein>
6NUR|6NUR_protein|mol2

> <Gold.PLP.Fitness>
42.8108

> <Gold.PLP.PLP>
-33.5399

> <Gold.PLP.part.hbond>
-3.0000

> <Gold.PLP.part.metal>
0.0000

> <Gold.PLP.part.buried>
-3.3839

> <Gold.PLP.part.nonpolar>
-28.1454

> <Gold.PLP.part.repulsive>
0.8164

> <Gold.PLP.ligand.clash>
0.0000

> <Gold.PLP.ligand.torsion>
0.5926

> <Gold.PLP.Chemscore.Hbond>
2.4800

> <Gold.PLP.Chemscore.CHOScore>
0.8906

> <Gold.PLP.Chemscore.Metal>
0.0000

> <Gold.Chemscore.Hbonds>
donor molecule, donor type, donor heavy atom, donor atom, acceptor molecule, acceptor atom, score
      L1  H     3    23       P1  7948  0.82
      L1  H    17    37       P1  7948  1.00
      P1  H  7989  7998       L1    15  0.60
      L1  C    16    36       P1  7957  0.93

> <Gold.PLP.Chemscore.Internal.Correction>
0.3441

> <Gold.Rescore>
     Score         DG    S(hbond)    S(metal)    S(lipo)     H(rot)  DE(clash)    DE(int)     intcor
     13.73     -14.41       1.89        0.00      68.10       2.09       0.04       0.64       ----

> <Gold.Chemscore.Fitness>
13.7324

> <Gold.Chemscore.DG>
-14.4076

> <Gold.Chemscore.ZeroCoef>
-5.4800

> <Gold.Chemscore.Hbond>
1.8892

> <Gold.Chemscore.Metal>
0.0000

> <Gold.Chemscore.Lipo>
68.1026

> <Gold.Chemscore.Internal_Hbond>
0.0000

> <Gold.Chemscore.DEClash>
0.0351

> <Gold.Chemscore.DEInternal>
0.6401

> <Gold.Chemscore.Rot>
2.0899

> <Gold.Chemscore.Internal.Correction>
   9.000000E+99

> <Gold.Chemscore.Hbonds>
donor molecule, donor type, donor heavy atom, donor atom, acceptor molecule, acceptor atom, score
      L1  H     3    23       P1  7948  0.76
      L1  H    17    37       P1  7948  0.93
      P1  H  7989  7998       L1    15  0.04

> <Gold.Chemscore.Hbond.Weighted>
-6.3098

> <Gold.Chemscore.Metal.Weighted>
-0.0000

> <Gold.Chemscore.Lipo.Weighted>
-7.9680

> <Gold.Chemscore.Internal_Hbond.Weighted>
0.0000

> <Gold.Chemscore.DEClash.Weighted>
0.0351

> <Gold.Chemscore.DEInternal.Weighted>
0.6401

> <Gold.Chemscore.Rot.Weighted>
5.3502

> <Gold.Chemscore.Internal.Correction.Weighted>
   9.000000E+99

> <Gold.Protein.RotatedTorsions>
[ 6907 6896 6895 6894 ] final  -92.65 input  -60.11 | X-H torsion
[ 7974 7965 7964 7962 ] final   -3.47 input  175.53 | X-H torsion
[ 8008 7997 7996 7995 ] final   86.47 input   59.86 | X-H torsion
[ 10167 10162 10161 10158 ] final  163.59 input  -65.29 | X-H torsion
[ 10718 10713 10712 10709 ] final -131.60 input   66.30 | X-H torsion
[ 10763 10752 10751 10750 ] final  179.10 input  -60.55 | X-H torsion
[ 11005 11000 10999 10996 ] final  170.35 input  -57.11 | X-H torsion

> <Gold.Protein.ActiveResidues>
 VAL166  LYS551  ARG553  GLY616  TRP617  ASP618  TYR619  PRO620  LYS621  CYS622 
 ASP623  PHE694  ASN695  SER759  ASP760  ASP761  ALA762  ILE779  LEU786  VAL792 
 PHE793  MET794  SER795  GLU796  ALA797  LYS798  CYS799  TRP800  GLU811  SER814 

> <Gold.Protein.RotatedAtoms>
  150.6909  134.2089  159.4351 H   0  0  0  0  0  0  0  0  0  0  0  0  # atno 6907 bound_to 6896
  152.0052  134.9904  160.0575 H   0  0  0  0  0  0  0  0  0  0  0  0  # atno 6908 bound_to 6896
  152.1541  133.4505  159.4865 H   0  0  0  0  0  0  0  0  0  0  0  0  # atno 6909 bound_to 6896
  146.2389  140.1726  142.8332 H   0  0  0  0  0  0  0  0  0  0  0  0  # atno 7974 bound_to 7965
  155.9632  140.3391  155.6509 H   0  0  0  0  0  0  0  0  0  0  0  0  # atno 8008 bound_to 7997
  155.6771  140.0733  157.2517 H   0  0  0  0  0  0  0  0  0  0  0  0  # atno 8009 bound_to 7997
  154.4148  140.1681  156.1929 H   0  0  0  0  0  0  0  0  0  0  0  0  # atno 8010 bound_to 7997
  139.4876  144.4322  151.9057 H   0  0  0  0  0  0  0  0  0  0  0  0  # atno 10167 bound_to 10162
  156.2260  130.7008  151.0808 H   0  0  0  0  0  0  0  0  0  0  0  0  # atno 10718 bound_to 10713
  154.5162  135.2791  155.1301 H   0  0  0  0  0  0  0  0  0  0  0  0  # atno 10763 bound_to 10752
  154.2876  135.6273  153.5376 H   0  0  0  0  0  0  0  0  0  0  0  0  # atno 10764 bound_to 10752
  152.9928  135.5666  154.5640 H   0  0  0  0  0  0  0  0  0  0  0  0  # atno 10765 bound_to 10752
  140.3075  134.7544  157.3965 H   0  0  0  0  0  0  0  0  0  0  0  0  # atno 11005 bound_to 11000
  144.9999  140.8622  143.5288 LP  0  0  0  0  0  0  0  0  0  0  0  0  # atno 17320 bound_to 7965
  145.1744  139.2386  143.5325 LP  0  0  0  0  0  0  0  0  0  0  0  0  # atno 17321 bound_to 7965
  140.3770  144.2784  150.5913 LP  0  0  0  0  0  0  0  0  0  0  0  0  # atno 17342 bound_to 10162
  140.5268  143.2252  151.8302 LP  0  0  0  0  0  0  0  0  0  0  0  0  # atno 17343 bound_to 10162
  157.7111  131.0734  150.6498 LP  0  0  0  0  0  0  0  0  0  0  0  0  # atno 17370 bound_to 10713
  156.6563  130.4499  149.5702 LP  0  0  0  0  0  0  0  0  0  0  0  0  # atno 17371 bound_to 10713
  140.1054  134.5416  155.8314 LP  0  0  0  0  0  0  0  0  0  0  0  0  # atno 17394 bound_to 11000
  141.2115  133.6708  156.6589 LP  0  0  0  0  0  0  0  0  0  0  0  0  # atno 17395 bound_to 11000

$$$$
