AV-unprocessed.smi:1046|AV-procd|sdf|4554|dock6
  -GOLD-   22720 2583D 1   1.00000     0.00000
 Structure written by MMmdl.
 54 56  0  0  0  0  0  0  0  0  3 V2000
  153.2426  142.9202  161.6114 C   0  0  0  0  0  0  0  0  0  0  0  0
  152.5887  142.5614  160.2886 C   0  0  0  0  0  0  0  0  0  0  0  0
  152.5704  141.2101  159.8752 C   0  0  0  0  0  0  0  0  0  0  0  0
  151.9730  140.8354  158.6519 C   0  0  0  0  0  0  0  0  0  0  0  0
  151.8415  139.5916  158.0584 N   0  0  0  0  0  0  0  0  0  0  0  0
  151.1984  139.8962  156.9351 C   0  0  0  0  0  0  0  0  0  0  0  0
  150.8908  141.1921  156.7336 N   0  0  0  0  0  0  0  0  0  0  0  0
  150.1955  141.7638  155.5946 C   0  0  0  0  0  0  0  0  0  0  0  0
  149.3731  140.7143  154.8226 C   0  0  2  0  0  0  0  0  0  0  0  0
  150.2327  139.9855  153.9672 O   0  0  0  0  0  0  0  0  0  0  0  0
  148.2660  141.3697  153.9734 C   0  0  0  0  0  0  0  0  0  0  0  0
  147.3690  142.2455  154.7714 N   0  3  2  0  0  0  0  0  0  0  0  0
  146.9784  141.6248  156.0614 C   0  0  0  0  0  0  0  0  0  0  0  0
  146.1320  142.5878  156.9128 C   0  0  0  0  0  0  0  0  0  0  0  0
  144.9365  143.0545  156.1655 N   0  3  1  0  0  0  0  0  0  0  0  0
  144.0383  143.9265  156.9657 C   0  0  0  0  0  0  0  0  0  0  0  0
  144.6761  145.2863  157.2993 C   0  0  0  0  0  0  0  0  0  0  0  0
  143.8454  146.0042  158.1871 O   0  0  0  0  0  0  0  0  0  0  0  0
  145.3274  143.6768  154.8767 C   0  0  0  0  0  0  0  0  0  0  0  0
  146.1732  142.7136  154.0246 C   0  0  0  0  0  0  0  0  0  0  0  0
  151.3904  141.8575  157.8475 C   0  0  0  0  0  0  0  0  0  0  0  0
  151.4031  143.2054  158.2470 C   0  0  0  0  0  0  0  0  0  0  0  0
  152.0028  143.5624  159.4728 C   0  0  0  0  0  0  0  0  0  0  0  0
  152.0112  145.0205  159.8966 C   0  0  0  0  0  0  0  0  0  0  0  0
  153.6491  142.0383  162.1076 H   0  0  0  0  0  0  0  0  0  0  0  0
  152.5173  143.3777  162.2846 H   0  0  0  0  0  0  0  0  0  0  0  0
  154.0615  143.6227  161.4544 H   0  0  0  0  0  0  0  0  0  0  0  0
  153.0174  140.4476  160.4962 H   0  0  0  0  0  0  0  0  0  0  0  0
  150.9309  139.1322  156.2195 H   0  0  0  0  0  0  0  0  0  0  0  0
  149.5446  142.5586  155.9613 H   0  0  0  0  0  0  0  0  0  0  0  0
  150.9272  142.2377  154.9382 H   0  0  0  0  0  0  0  0  0  0  0  0
  148.9399  140.0191  155.5408 H   0  0  0  0  0  0  0  0  0  0  0  0
  149.7711  139.8034  153.1617 H   0  0  0  0  0  0  0  0  0  0  0  0
  148.7014  141.9481  153.1571 H   0  0  0  0  0  0  0  0  0  0  0  0
  147.6796  140.5773  153.5048 H   0  0  0  0  0  0  0  0  0  0  0  0
  146.4218  140.7059  155.8695 H   0  0  0  0  0  0  0  0  0  0  0  0
  147.8718  141.3434  156.6203 H   0  0  0  0  0  0  0  0  0  0  0  0
  145.8330  142.0807  157.8294 H   0  0  0  0  0  0  0  0  0  0  0  0
  146.7342  143.4479  157.2103 H   0  0  0  0  0  0  0  0  0  0  0  0
  143.0979  144.0693  156.4315 H   0  0  0  0  0  0  0  0  0  0  0  0
  143.7822  143.4311  157.9036 H   0  0  0  0  0  0  0  0  0  0  0  0
  145.6716  145.1819  157.7294 H   0  0  0  0  0  0  0  0  0  0  0  0
  144.7882  145.8732  156.3873 H   0  0  0  0  0  0  0  0  0  0  0  0
  143.4829  145.3992  158.8177 H   0  0  0  0  0  0  0  0  0  0  0  0
  144.4340  143.9599  154.3185 H   0  0  0  0  0  0  0  0  0  0  0  0
  145.8853  144.5947  155.0701 H   0  0  0  0  0  0  0  0  0  0  0  0
  146.4698  143.2236  153.1090 H   0  0  0  0  0  0  0  0  0  0  0  0
  145.5709  141.8542  153.7253 H   0  0  0  0  0  0  0  0  0  0  0  0
  150.9557  143.9585  157.6155 H   0  0  0  0  0  0  0  0  0  0  0  0
  151.4934  145.6492  159.1717 H   0  0  0  0  0  0  0  0  0  0  0  0
  153.0349  145.3849  159.9848 H   0  0  0  0  0  0  0  0  0  0  0  0
  151.5152  145.1430  160.8596 H   0  0  0  0  0  0  0  0  0  0  0  0
  147.9154  143.0634  155.0035 H   0  0  0  0  0  0  0  0  0  0  0  0
  144.3916  142.2362  155.9316 H   0  0  0  0  0  0  0  0  0  0  0  0
  1  2  1  0  0  0  0
  1 25  1  0  0  0  0
  1 26  1  0  0  0  0
  1 27  1  0  0  0  0
  2 23  1  0  0  0  0
  2  3  2  0  0  0  0
  3  4  1  0  0  0  0
  3 28  1  0  0  0  0
  4 21  2  0  0  0  0
  4  5  1  0  0  0  0
  5  6  2  0  0  0  0
  6  7  1  0  0  0  0
  6 29  1  0  0  0  0
  7  8  1  0  0  0  0
  7 21  1  0  0  0  0
  8  9  1  0  0  0  0
  8 30  1  0  0  0  0
  8 31  1  0  0  0  0
  9 10  1  0  0  0  0
  9 11  1  0  0  0  0
  9 32  1  0  0  0  0
 10 33  1  0  0  0  0
 11 12  1  0  0  0  0
 11 34  1  0  0  0  0
 11 35  1  0  0  0  0
 12 20  1  0  0  0  0
 12 13  1  0  0  0  0
 12 53  1  0  0  0  0
 13 14  1  0  0  0  0
 13 36  1  0  0  0  0
 13 37  1  0  0  0  0
 14 15  1  0  0  0  0
 14 38  1  0  0  0  0
 14 39  1  0  0  0  0
 15 16  1  0  0  0  0
 15 19  1  0  0  0  0
 15 54  1  0  0  0  0
 16 17  1  0  0  0  0
 16 40  1  0  0  0  0
 16 41  1  0  0  0  0
 17 18  1  0  0  0  0
 17 42  1  0  0  0  0
 17 43  1  0  0  0  0
 18 44  1  0  0  0  0
 19 20  1  0  0  0  0
 19 45  1  0  0  0  0
 19 46  1  0  0  0  0
 20 47  1  0  0  0  0
 20 48  1  0  0  0  0
 21 22  1  0  0  0  0
 22 23  2  0  0  0  0
 22 49  1  0  0  0  0
 23 24  1  0  0  0  0
 24 50  1  0  0  0  0
 24 51  1  0  0  0  0
 24 52  1  0  0  0  0
M  CHG  1  12   1
M  CHG  1  15   1
M  END
> <s_m_source_file>
AV-unprocessed.smi

> <i_m_source_file_index>
1046

> <i_lp_mmshare_version>
43012

> <i_f3d_flags>
0

> <s_epik_input>
W0NIM11jKFtjSF0xKWMoW0NIM10pW2NIXWMoYzEyKW4oW2NIXW4yKVtDSDJdW0NASF0oW09IXSlbQ0gyXU4zW0NIMl1bQ0gyXU4oW0NIMl1bQ0gyXTMpW0NIMl1bQ0gyXVtPSF0=

> <s_epik_cmdline>
J2VwaWtfcHl0aG9uJywgJy1waCcsICc3LjAnLCAnLXRuJywgJzgnLCAnLW1hJywgJzIwMCcsICctbWV0YWxfYmluZGluZycsICctaW1hZScsICc8aW5maWxlLm1hZT4nLCAnLW9tYWUnLCAnPG91dGZpbGUubWFlPic=

> <r_epik_Ionization_Penalty>
3.17398

> <r_epik_Ionization_Penalty_Charging>
3.09061

> <r_epik_Ionization_Penalty_Neutral>
0.0833726

> <r_epik_State_Penalty>
2.17606

> <r_epik_Charging_Adjusted_Penalty>
5.26667

> <i_epik_Tot_Q>
2

> <i_epik_Tot_abs_Q>
2

> <r_epik_Metal_State_Penalty>
2.08587

> <b_epik_Metal_Only>
0

> <s_lp_Force_Field>
OPLS_2005

> <r_lp_Energy>
27.9633

> <b_lp_Chiralities_Consistent>
1

> <s_lp_Variant>
AV-unprocessed.smi:1046-7

> <Gold.Version>
5.8.1

> <Gold.Id.Protein>
6NUR|6NUR_protein|mol2

> <Gold.PLP.Fitness>
61.4105

> <Gold.PLP.PLP>
-50.3976

> <Gold.PLP.part.hbond>
-3.0000

> <Gold.PLP.part.metal>
0.0000

> <Gold.PLP.part.buried>
-6.9447

> <Gold.PLP.part.nonpolar>
-40.2504

> <Gold.PLP.part.repulsive>
0.1187

> <Gold.PLP.ligand.clash>
0.0000

> <Gold.PLP.ligand.torsion>
0.6086

> <Gold.PLP.Chemscore.Hbond>
3.9920

> <Gold.PLP.Chemscore.CHOScore>
0.0000

> <Gold.PLP.Chemscore.Metal>
0.0000

> <Gold.Chemscore.Hbonds>
donor molecule, donor type, donor heavy atom, donor atom, acceptor molecule, acceptor atom, score
      L1  H    10    33       P1  7957  0.98
      L1  H    12    53       P1  8028  2.00
      P1  H  7989  7998       L1    10  0.98

> <Gold.PLP.Chemscore.Internal.Correction>
0.2540

> <Gold.Rescore>
     Score         DG    S(hbond)    S(metal)    S(lipo)     H(rot)  DE(clash)    DE(int)     intcor
     18.76     -19.43       2.28        0.00     126.01       3.28       0.08       0.60       ----

> <Gold.Chemscore.Fitness>
18.7581

> <Gold.Chemscore.DG>
-19.4335

> <Gold.Chemscore.ZeroCoef>
-5.4800

> <Gold.Chemscore.Hbond>
2.2796

> <Gold.Chemscore.Metal>
0.0000

> <Gold.Chemscore.Lipo>
126.0127

> <Gold.Chemscore.Internal_Hbond>
0.0000

> <Gold.Chemscore.DEClash>
0.0789

> <Gold.Chemscore.DEInternal>
0.5966

> <Gold.Chemscore.Rot>
3.2828

> <Gold.Chemscore.Internal.Correction>
   9.000000E+99

> <Gold.Chemscore.Hbonds>
donor molecule, donor type, donor heavy atom, donor atom, acceptor molecule, acceptor atom, score
      L1  H    10    33       P1  7957  0.88
      L1  H    12    53       P1  8028  0.83
      P1  H  7989  7998       L1    10  0.37

> <Gold.Chemscore.Hbond.Weighted>
-7.6140

> <Gold.Chemscore.Metal.Weighted>
-0.0000

> <Gold.Chemscore.Lipo.Weighted>
-14.7435

> <Gold.Chemscore.Internal_Hbond.Weighted>
0.0000

> <Gold.Chemscore.DEClash.Weighted>
0.0789

> <Gold.Chemscore.DEInternal.Weighted>
0.5966

> <Gold.Chemscore.Rot.Weighted>
8.4039

> <Gold.Chemscore.Internal.Correction.Weighted>
   9.000000E+99

> <Gold.Protein.RotatedTorsions>
[ 6907 6896 6895 6894 ] final -111.80 input  -60.11 | X-H torsion
[ 7974 7965 7964 7962 ] final  -82.38 input  175.53 | X-H torsion
[ 8008 7997 7996 7995 ] final   65.95 input   59.86 | X-H torsion
[ 10167 10162 10161 10158 ] final  -98.63 input  -65.29 | X-H torsion
[ 10718 10713 10712 10709 ] final  -93.32 input   66.30 | X-H torsion
[ 10763 10752 10751 10750 ] final  173.40 input  -60.55 | X-H torsion
[ 11005 11000 10999 10996 ] final  -82.05 input  -57.11 | X-H torsion

> <Gold.Protein.ActiveResidues>
 VAL166  LYS551  ARG553  GLY616  TRP617  ASP618  TYR619  PRO620  LYS621  CYS622 
 ASP623  PHE694  ASN695  SER759  ASP760  ASP761  ALA762  ILE779  LEU786  VAL792 
 PHE793  MET794  SER795  GLU796  ALA797  LYS798  CYS799  TRP800  GLU811  SER814 

> <Gold.Protein.RotatedAtoms>
  150.7715  133.9182  159.3389 H   0  0  0  0  0  0  0  0  0  0  0  0  # atno 6907 bound_to 6896
  151.7067  135.0918  160.0270 H   0  0  0  0  0  0  0  0  0  0  0  0  # atno 6908 bound_to 6896
  152.3734  133.6411  159.6140 H   0  0  0  0  0  0  0  0  0  0  0  0  # atno 6909 bound_to 6896
  145.5341  140.9518  143.1587 H   0  0  0  0  0  0  0  0  0  0  0  0  # atno 7974 bound_to 7965
  155.6697  140.3497  155.4814 H   0  0  0  0  0  0  0  0  0  0  0  0  # atno 8008 bound_to 7997
  155.9698  140.1153  157.0845 H   0  0  0  0  0  0  0  0  0  0  0  0  # atno 8009 bound_to 7997
  154.4163  140.1159  156.5278 H   0  0  0  0  0  0  0  0  0  0  0  0  # atno 8010 bound_to 7997
  140.2709  143.3344  152.0535 H   0  0  0  0  0  0  0  0  0  0  0  0  # atno 10167 bound_to 10162
  156.0012  130.5022  150.5759 H   0  0  0  0  0  0  0  0  0  0  0  0  # atno 10718 bound_to 10713
  154.4395  135.2761  155.1857 H   0  0  0  0  0  0  0  0  0  0  0  0  # atno 10763 bound_to 10752
  154.3729  135.6104  153.5753 H   0  0  0  0  0  0  0  0  0  0  0  0  # atno 10764 bound_to 10752
  152.9840  135.5862  154.4720 H   0  0  0  0  0  0  0  0  0  0  0  0  # atno 10765 bound_to 10752
  141.1664  133.7226  156.8514 H   0  0  0  0  0  0  0  0  0  0  0  0  # atno 11005 bound_to 11000
  144.7611  139.6955  143.7234 LP  0  0  0  0  0  0  0  0  0  0  0  0  # atno 17320 bound_to 7965
  146.2025  139.5328  142.9734 LP  0  0  0  0  0  0  0  0  0  0  0  0  # atno 17321 bound_to 7965
  139.4989  144.6656  151.6363 LP  0  0  0  0  0  0  0  0  0  0  0  0  # atno 17342 bound_to 10162
  140.5890  143.9813  150.6313 LP  0  0  0  0  0  0  0  0  0  0  0  0  # atno 17343 bound_to 10162
  157.3646  131.0755  151.1608 LP  0  0  0  0  0  0  0  0  0  0  0  0  # atno 17370 bound_to 10713
  157.2381  130.6556  149.5878 LP  0  0  0  0  0  0  0  0  0  0  0  0  # atno 17371 bound_to 10713
  140.1913  134.8964  157.3063 LP  0  0  0  0  0  0  0  0  0  0  0  0  # atno 17394 bound_to 11000
  140.2287  134.3935  155.7531 LP  0  0  0  0  0  0  0  0  0  0  0  0  # atno 17395 bound_to 11000

$$$$
