AV-unprocessed.smi:1831|AV-procd|sdf|7458|dock6
  -GOLD-   22720 9153D 1   1.00000     0.00000
 Structure written by MMmdl.
 41 42  0  0  0  0  0  0  0  0  2 V2000
  146.9726  142.4659  154.1342 C   0  0  0  0  0  0  0  0  0  0  0  0
  146.8285  141.0020  153.8958 C   0  0  0  0  0  0  0  0  0  0  0  0
  146.4226  140.1532  154.8476 N   0  0  0  0  0  0  0  0  0  0  0  0
  146.3662  138.8427  154.3945 N   0  0  0  0  0  0  0  0  0  0  0  0
  146.7336  138.7417  153.1098 C   0  0  0  0  0  0  0  0  0  0  0  0
  146.7675  137.5159  152.3931 N   0  0  0  0  0  0  0  0  0  0  0  0
  145.7354  136.7279  152.0435 C   0  0  0  0  0  0  0  0  0  0  0  0
  144.5510  136.9515  152.2939 O   0  0  0  0  0  0  0  0  0  0  0  0
  146.1541  135.6471  151.3705 N   0  0  0  0  0  0  0  0  0  0  0  0
  145.2720  134.6189  150.8311 C   0  0  0  0  0  0  0  0  0  0  0  0
  145.9814  133.2568  150.7573 C   0  0  2  0  0  0  0  0  0  0  0  0
  145.0270  132.0709  150.6396 C   0  0  0  0  0  0  0  0  0  0  0  0
  145.8087  130.8798  151.2087 C   0  0  0  0  0  0  0  0  0  0  0  0
  146.9892  131.4297  151.9224 N   0  3  2  0  0  0  0  0  0  0  0  0
  147.3251  130.7547  153.2081 C   0  0  0  0  0  0  0  0  0  0  0  0
  148.6013  131.3395  153.8432 C   0  0  0  0  0  0  0  0  0  0  0  0
  147.5011  129.2376  153.0083 C   0  0  0  0  0  0  0  0  0  0  0  0
  146.7952  132.8944  152.0001 C   0  0  0  0  0  0  0  0  0  0  0  0
  147.1876  140.2543  152.3439 S   0  0  0  0  0  0  0  0  0  0  0  0
  146.1460  142.8331  154.7432 H   0  0  0  0  0  0  0  0  0  0  0  0
  146.9736  143.0060  153.1874 H   0  0  0  0  0  0  0  0  0  0  0  0
  147.9090  142.6678  154.6542 H   0  0  0  0  0  0  0  0  0  0  0  0
  147.6850  137.2087  152.1068 H   0  0  0  0  0  0  0  0  0  0  0  0
  147.1438  135.5421  151.2004 H   0  0  0  0  0  0  0  0  0  0  0  0
  144.3727  134.5344  151.4441 H   0  0  0  0  0  0  0  0  0  0  0  0
  144.9488  134.9262  149.8357 H   0  0  0  0  0  0  0  0  0  0  0  0
  146.6473  133.2447  149.8922 H   0  0  0  0  0  0  0  0  0  0  0  0
  144.1383  132.2434  151.2486 H   0  0  0  0  0  0  0  0  0  0  0  0
  144.6954  131.9027  149.6144 H   0  0  0  0  0  0  0  0  0  0  0  0
  145.1634  130.2997  151.8702 H   0  0  0  0  0  0  0  0  0  0  0  0
  146.1520  130.2166  150.4142 H   0  0  0  0  0  0  0  0  0  0  0  0
  146.4990  130.9164  153.9024 H   0  0  0  0  0  0  0  0  0  0  0  0
  148.8616  130.8055  154.7575 H   0  0  0  0  0  0  0  0  0  0  0  0
  148.4803  132.3879  154.1165 H   0  0  0  0  0  0  0  0  0  0  0  0
  149.4523  131.2646  153.1653 H   0  0  0  0  0  0  0  0  0  0  0  0
  147.7700  128.7489  153.9454 H   0  0  0  0  0  0  0  0  0  0  0  0
  148.2906  129.0227  152.2873 H   0  0  0  0  0  0  0  0  0  0  0  0
  146.5882  128.7595  152.6534 H   0  0  0  0  0  0  0  0  0  0  0  0
  147.7467  133.4256  152.0359 H   0  0  0  0  0  0  0  0  0  0  0  0
  146.2323  133.1426  152.9019 H   0  0  0  0  0  0  0  0  0  0  0  0
  147.7754  131.2910  151.3035 H   0  0  0  0  0  0  0  0  0  0  0  0
  1  2  1  0  0  0  0
  1 20  1  0  0  0  0
  1 21  1  0  0  0  0
  1 22  1  0  0  0  0
  2 19  1  0  0  0  0
  2  3  2  0  0  0  0
  3  4  1  0  0  0  0
  4  5  2  0  0  0  0
  5  6  1  0  0  0  0
  5 19  1  0  0  0  0
  6  7  1  0  0  0  0
  6 23  1  0  0  0  0
  7  8  2  0  0  0  0
  7  9  1  0  0  0  0
  9 10  1  0  0  0  0
  9 24  1  0  0  0  0
 10 11  1  0  0  0  0
 10 25  1  0  0  0  0
 10 26  1  0  0  0  0
 11 18  1  0  0  0  0
 11 12  1  0  0  0  0
 11 27  1  0  0  0  0
 12 13  1  0  0  0  0
 12 28  1  0  0  0  0
 12 29  1  0  0  0  0
 13 14  1  0  0  0  0
 13 30  1  0  0  0  0
 13 31  1  0  0  0  0
 14 15  1  0  0  0  0
 14 18  1  0  0  0  0
 14 41  1  0  0  0  0
 15 16  1  0  0  0  0
 15 17  1  0  0  0  0
 15 32  1  0  0  0  0
 16 33  1  0  0  0  0
 16 34  1  0  0  0  0
 16 35  1  0  0  0  0
 17 36  1  0  0  0  0
 17 37  1  0  0  0  0
 17 38  1  0  0  0  0
 18 39  1  0  0  0  0
 18 40  1  0  0  0  0
M  CHG  1  14   1
M  END
> <s_m_source_file>
AV-unprocessed.smi

> <i_m_source_file_index>
1831

> <i_lp_mmshare_version>
43012

> <i_f3d_flags>
0

> <s_epik_input>
W0NIM11jMW5uYyhzMSlbTkhdQyg9TylbTkhdW0NIMl1bQ0BASF0yW0NIMl1bQ0gyXU4oW0NIMl0yKVtDSF0oW0NIM10pW0NIM10=

> <s_epik_cmdline>
J2VwaWtfcHl0aG9uJywgJy1waCcsICc3LjAnLCAnLXRuJywgJzgnLCAnLW1hJywgJzIwMCcsICctbWV0YWxfYmluZGluZycsICctaW1hZScsICc8aW5maWxlLm1hZT4nLCAnLW9tYWUnLCAnPG91dGZpbGUubWFlPic=

> <r_lp_tautomer_probability>
1

> <r_epik_Ionization_Penalty>
0.00080807

> <r_epik_Ionization_Penalty_Charging>
0.000218981

> <r_epik_Ionization_Penalty_Neutral>
0.00058909

> <r_epik_State_Penalty>
-0

> <r_epik_Charging_Adjusted_Penalty>
0.000218981

> <i_epik_Tot_Q>
1

> <i_epik_Tot_abs_Q>
1

> <r_epik_Metal_State_Penalty>
0.236062

> <b_epik_Metal_Only>
0

> <s_lp_Force_Field>
OPLS_2005

> <r_lp_Energy>
30.7631

> <b_lp_Chiralities_Consistent>
1

> <s_lp_Variant>
AV-unprocessed.smi:1831-3

> <Gold.Version>
5.8.1

> <Gold.Id.Protein>
6NUR|6NUR_protein|mol2

> <Gold.PLP.Fitness>
39.1661

> <Gold.PLP.PLP>
-32.4791

> <Gold.PLP.part.hbond>
-3.0000

> <Gold.PLP.part.metal>
0.0000

> <Gold.PLP.part.buried>
-3.2209

> <Gold.PLP.part.nonpolar>
-27.4850

> <Gold.PLP.part.repulsive>
0.9373

> <Gold.PLP.ligand.clash>
0.0000

> <Gold.PLP.ligand.torsion>
0.9706

> <Gold.PLP.Chemscore.Hbond>
2.8640

> <Gold.PLP.Chemscore.CHOScore>
0.0000

> <Gold.PLP.Chemscore.Metal>
0.0000

> <Gold.Chemscore.Hbonds>
donor molecule, donor type, donor heavy atom, donor atom, acceptor molecule, acceptor atom, score
      L1  H     6    23       P1  7948  1.00
      L1  H     9    24       P1  7948  0.85
      L1  H    14    41       P1 10747  1.00

> <Gold.PLP.Chemscore.Internal.Correction>
0.0363

> <Gold.Rescore>
     Score         DG    S(hbond)    S(metal)    S(lipo)     H(rot)  DE(clash)    DE(int)     intcor
     18.81     -19.82       2.93        0.00      72.60       1.54       0.01       1.00       ----

> <Gold.Chemscore.Fitness>
18.8058

> <Gold.Chemscore.DG>
-19.8188

> <Gold.Chemscore.ZeroCoef>
-5.4800

> <Gold.Chemscore.Hbond>
2.9301

> <Gold.Chemscore.Metal>
0.0000

> <Gold.Chemscore.Lipo>
72.5958

> <Gold.Chemscore.Internal_Hbond>
0.0000

> <Gold.Chemscore.DEClash>
0.0149

> <Gold.Chemscore.DEInternal>
0.9981

> <Gold.Chemscore.Rot>
1.5396

> <Gold.Chemscore.Internal.Correction>
   9.000000E+99

> <Gold.Chemscore.Hbonds>
donor molecule, donor type, donor heavy atom, donor atom, acceptor molecule, acceptor atom, score
      L1  H     6    23       P1  7948  0.98
      L1  H     9    24       P1  7948  0.74
      L1  H    14    41       P1 10747  1.00

> <Gold.Chemscore.Hbond.Weighted>
-9.7864

> <Gold.Chemscore.Metal.Weighted>
-0.0000

> <Gold.Chemscore.Lipo.Weighted>
-8.4937

> <Gold.Chemscore.Internal_Hbond.Weighted>
0.0000

> <Gold.Chemscore.DEClash.Weighted>
0.0149

> <Gold.Chemscore.DEInternal.Weighted>
0.9981

> <Gold.Chemscore.Rot.Weighted>
3.9413

> <Gold.Chemscore.Internal.Correction.Weighted>
   9.000000E+99

> <Gold.Protein.RotatedTorsions>
[ 6907 6896 6895 6894 ] final -155.07 input  -60.11 | X-H torsion
[ 7974 7965 7964 7962 ] final  133.54 input  175.53 | X-H torsion
[ 8008 7997 7996 7995 ] final  -41.56 input   59.86 | X-H torsion
[ 10167 10162 10161 10158 ] final  -78.85 input  -65.29 | X-H torsion
[ 10718 10713 10712 10709 ] final   15.74 input   66.30 | X-H torsion
[ 10763 10752 10751 10750 ] final   79.16 input  -60.55 | X-H torsion
[ 11005 11000 10999 10996 ] final   54.55 input  -57.11 | X-H torsion

> <Gold.Protein.ActiveResidues>
 VAL166  LYS551  ARG553  GLY616  TRP617  ASP618  TYR619  PRO620  LYS621  CYS622 
 ASP623  PHE694  ASN695  SER759  ASP760  ASP761  ALA762  ILE779  LEU786  VAL792 
 PHE793  MET794  SER795  GLU796  ALA797  LYS798  CYS799  TRP800  GLU811  SER814 

> <Gold.Protein.RotatedAtoms>
  151.2670  133.4273  159.2618 H   0  0  0  0  0  0  0  0  0  0  0  0  # atno 6907 bound_to 6896
  151.0479  134.9653  159.8206 H   0  0  0  0  0  0  0  0  0  0  0  0  # atno 6908 bound_to 6896
  152.5377  134.2626  159.8993 H   0  0  0  0  0  0  0  0  0  0  0  0  # atno 6909 bound_to 6896
  144.9854  139.4461  143.5365 H   0  0  0  0  0  0  0  0  0  0  0  0  # atno 7974 bound_to 7965
  154.4003  140.1496  156.3211 H   0  0  0  0  0  0  0  0  0  0  0  0  # atno 8008 bound_to 7997
  155.8529  140.3457  155.5683 H   0  0  0  0  0  0  0  0  0  0  0  0  # atno 8009 bound_to 7997
  155.7965  140.0864  157.1971 H   0  0  0  0  0  0  0  0  0  0  0  0  # atno 8010 bound_to 7997
  140.4646  143.2444  151.8297 H   0  0  0  0  0  0  0  0  0  0  0  0  # atno 10167 bound_to 10162
  157.0579  130.6296  149.5780 H   0  0  0  0  0  0  0  0  0  0  0  0  # atno 10718 bound_to 10713
  153.0930  135.4850  154.8726 H   0  0  0  0  0  0  0  0  0  0  0  0  # atno 10763 bound_to 10752
  154.7292  135.3056  154.8922 H   0  0  0  0  0  0  0  0  0  0  0  0  # atno 10764 bound_to 10752
  153.9563  135.6817  153.4798 H   0  0  0  0  0  0  0  0  0  0  0  0  # atno 10765 bound_to 10752
  140.0677  134.5513  155.9080 H   0  0  0  0  0  0  0  0  0  0  0  0  # atno 11005 bound_to 11000
  146.3418  139.9153  142.8774 LP  0  0  0  0  0  0  0  0  0  0  0  0  # atno 17320 bound_to 7965
  145.2361  140.9991  143.3963 LP  0  0  0  0  0  0  0  0  0  0  0  0  # atno 17321 bound_to 7965
  139.4810  144.4966  151.9115 LP  0  0  0  0  0  0  0  0  0  0  0  0  # atno 17342 bound_to 10162
  140.4052  144.2441  150.5891 LP  0  0  0  0  0  0  0  0  0  0  0  0  # atno 17343 bound_to 10162
  155.9987  130.5062  150.7582 LP  0  0  0  0  0  0  0  0  0  0  0  0  # atno 17370 bound_to 10713
  157.4978  131.0916  151.0350 LP  0  0  0  0  0  0  0  0  0  0  0  0  # atno 17371 bound_to 10713
  141.1999  133.6609  156.5871 LP  0  0  0  0  0  0  0  0  0  0  0  0  # atno 17394 bound_to 11000
  140.3673  134.7636  157.4575 LP  0  0  0  0  0  0  0  0  0  0  0  0  # atno 17395 bound_to 11000

$$$$
