AV-unprocessed.smi:438|AV-procd|sdf|2572|dock2
  -GOLD-   2262022553D 1   1.00000     0.00000
 Structure written by MMmdl.
 47 48  0  0  0  0  0  0  0  0  2 V2000
  147.6842  132.7806  161.1377 C   0  0  0  0  0  0  0  0  0  0  0  0
  147.6271  134.2973  161.1528 C   0  0  0  0  0  0  0  0  0  0  0  0
  148.5478  134.9490  160.3152 N   0  0  0  0  0  0  0  0  0  0  0  0
  148.5535  136.2260  160.2548 C   0  0  0  0  0  0  0  0  0  0  0  0
  149.7387  137.0730  159.1902 S   0  0  0  0  0  0  0  0  0  0  0  0
  148.7685  138.3596  158.3446 C   0  0  0  0  0  0  0  0  0  0  0  0
  148.9950  138.3676  156.8331 C   0  0  0  0  0  0  0  0  0  0  0  0
  149.9228  137.7198  156.3483 O   0  0  0  0  0  0  0  0  0  0  0  0
  148.1374  139.0972  156.1020 N   0  0  0  0  0  0  0  0  0  0  0  0
  148.1042  139.1788  154.6404 C   0  0  1  0  0  0  0  0  0  0  0  0
  146.7210  139.6862  154.1850 C   0  0  0  0  0  0  0  0  0  0  0  0
  146.5124  141.1763  154.5061 C   0  0  0  0  0  0  0  0  0  0  0  0
  147.6372  142.0376  153.9157 C   0  0  0  0  0  0  0  0  0  0  0  0
  149.0141  141.5560  154.3984 C   0  0  0  0  0  0  0  0  0  0  0  0
  149.2403  140.0671  154.0665 C   0  0  1  0  0  0  0  0  0  0  0  0
  150.6487  139.6050  154.4772 C   0  0  0  0  0  0  0  0  0  0  0  0
  147.6913  137.0294  160.9639 N   0  5  0  0  0  0  0  0  0  0  0  0
  146.7842  136.4746  161.8171 C   0  0  0  0  0  0  0  0  0  0  0  0
  146.0074  137.1598  162.4814 O   0  0  0  0  0  0  0  0  0  0  0  0
  146.7521  135.0049  161.9234 C   0  0  0  0  0  0  0  0  0  0  0  0
  145.7283  134.3592  162.8584 C   0  0  0  0  0  0  0  0  0  0  0  0
  144.2811  134.4880  162.3530 C   0  0  0  0  0  0  0  0  0  0  0  0
  143.7102  133.2155  162.1302 O   0  0  0  0  0  0  0  0  0  0  0  0
  147.9741  132.3975  162.1161 H   0  0  0  0  0  0  0  0  0  0  0  0
  148.4082  132.4247  160.4054 H   0  0  0  0  0  0  0  0  0  0  0  0
  146.7157  132.3603  160.8677 H   0  0  0  0  0  0  0  0  0  0  0  0
  149.0801  139.3278  158.7366 H   0  0  0  0  0  0  0  0  0  0  0  0
  147.7102  138.2561  158.5879 H   0  0  0  0  0  0  0  0  0  0  0  0
  147.4081  139.5909  156.5960 H   0  0  0  0  0  0  0  0  0  0  0  0
  148.2226  138.1734  154.2325 H   0  0  0  0  0  0  0  0  0  0  0  0
  146.6231  139.5384  153.1089 H   0  0  0  0  0  0  0  0  0  0  0  0
  145.9304  139.0912  154.6451 H   0  0  0  0  0  0  0  0  0  0  0  0
  145.5469  141.5070  154.1228 H   0  0  0  0  0  0  0  0  0  0  0  0
  146.4806  141.3207  155.5856 H   0  0  0  0  0  0  0  0  0  0  0  0
  147.5952  141.9989  152.8264 H   0  0  0  0  0  0  0  0  0  0  0  0
  147.4901  143.0815  154.1940 H   0  0  0  0  0  0  0  0  0  0  0  0
  149.7925  142.1630  153.9346 H   0  0  0  0  0  0  0  0  0  0  0  0
  149.1014  141.7152  155.4739 H   0  0  0  0  0  0  0  0  0  0  0  0
  149.1923  139.9728  152.9806 H   0  0  0  0  0  0  0  0  0  0  0  0
  150.8200  139.7304  155.5466 H   0  0  0  0  0  0  0  0  0  0  0  0
  151.4149  140.1770  153.9538 H   0  0  0  0  0  0  0  0  0  0  0  0
  150.8015  138.5529  154.2347 H   0  0  0  0  0  0  0  0  0  0  0  0
  145.7985  134.7753  163.8624 H   0  0  0  0  0  0  0  0  0  0  0  0
  145.9792  133.3043  162.9742 H   0  0  0  0  0  0  0  0  0  0  0  0
  143.6642  135.0393  163.0630 H   0  0  0  0  0  0  0  0  0  0  0  0
  144.2613  135.0437  161.4154 H   0  0  0  0  0  0  0  0  0  0  0  0
  142.7776  133.3207  162.0208 H   0  0  0  0  0  0  0  0  0  0  0  0
  1 24  1  0  0  0  0
  1 25  1  0  0  0  0
  1 26  1  0  0  0  0
  1  2  1  0  0  0  0
  2 20  2  0  0  0  0
  2  3  1  0  0  0  0
  3  4  2  0  0  0  0
  4  5  1  0  0  0  0
  4 17  1  0  0  0  0
  5  6  1  0  0  0  0
  6  7  1  0  0  0  0
  6 27  1  0  0  0  0
  6 28  1  0  0  0  0
  7  8  2  0  0  0  0
  7  9  1  0  0  0  0
  9 10  1  0  0  0  0
  9 29  1  0  0  0  0
 10 15  1  0  0  0  0
 10 11  1  0  0  0  0
 10 30  1  0  0  0  0
 11 12  1  0  0  0  0
 11 31  1  0  0  0  0
 11 32  1  0  0  0  0
 12 13  1  0  0  0  0
 12 33  1  0  0  0  0
 12 34  1  0  0  0  0
 13 14  1  0  0  0  0
 13 35  1  0  0  0  0
 13 36  1  0  0  0  0
 14 15  1  0  0  0  0
 14 37  1  0  0  0  0
 14 38  1  0  0  0  0
 15 16  1  0  0  0  0
 15 39  1  0  0  0  0
 16 40  1  0  0  0  0
 16 41  1  0  0  0  0
 16 42  1  0  0  0  0
 17 18  1  0  0  0  0
 18 19  2  0  0  0  0
 18 20  1  0  0  0  0
 20 21  1  0  0  0  0
 21 22  1  0  0  0  0
 21 43  1  0  0  0  0
 21 44  1  0  0  0  0
 22 23  1  0  0  0  0
 22 45  1  0  0  0  0
 22 46  1  0  0  0  0
 23 47  1  0  0  0  0
M  CHG  1  17  -1
M  END
> <s_m_source_file>
AV-unprocessed.smi

> <i_m_source_file_index>
438

> <i_lp_mmshare_version>
43012

> <i_f3d_flags>
0

> <s_epik_input>
W09IXVtDSDJdW0NIMl1jMWMoW09IXSluYyhuYzFbQ0gzXSlTW0NIMl1DKD1PKVtOSF1bQ0BASF0yW0NIMl1bQ0gyXVtDSDJdW0NIMl1bQ0BIXTJbQ0gzXQ==

> <s_epik_cmdline>
J2VwaWtfcHl0aG9uJywgJy1waCcsICc3LjAnLCAnLXRuJywgJzgnLCAnLW1hJywgJzIwMCcsICctbWV0YWxfYmluZGluZycsICctaW1hZScsICc8aW5maWxlLm1hZT4nLCAnLW9tYWUnLCAnPG91dGZpbGUubWFlPic=

> <r_lp_tautomer_probability>
1

> <r_epik_Ionization_Penalty>
3.69231

> <r_epik_Ionization_Penalty_Charging>
0.00434774

> <r_epik_Ionization_Penalty_Neutral>
3.68796

> <r_epik_State_Penalty>
2.13826

> <r_epik_Charging_Adjusted_Penalty>
2.14261

> <i_epik_Tot_Q>
-1

> <i_epik_Tot_abs_Q>
1

> <r_epik_Metal_State_Penalty>
0.260979

> <b_epik_Metal_Only>
0

> <s_lp_Force_Field>
OPLS_2005

> <r_lp_Energy>
18.1923

> <b_lp_Chiralities_Consistent>
1

> <s_lp_Variant>
AV-unprocessed.smi:438-10

> <Gold.Version>
5.8.1

> <Gold.Id.Protein>
6NUR|6NUR_protein|mol2

> <Gold.PLP.Fitness>
43.3265

> <Gold.PLP.PLP>
-34.0979

> <Gold.PLP.part.hbond>
-3.5277

> <Gold.PLP.part.metal>
0.0000

> <Gold.PLP.part.buried>
3.2080

> <Gold.PLP.part.nonpolar>
-32.7076

> <Gold.PLP.part.repulsive>
0.0083

> <Gold.PLP.ligand.clash>
0.0000

> <Gold.PLP.ligand.torsion>
1.4096

> <Gold.PLP.Chemscore.Hbond>
3.9740

> <Gold.PLP.Chemscore.CHOScore>
0.0000

> <Gold.PLP.Chemscore.Metal>
0.0000

> <Gold.Chemscore.Hbonds>
donor molecule, donor type, donor heavy atom, donor atom, acceptor molecule, acceptor atom, score
      P1  H  6896  6907       L1     3  0.29
      P1  H  6931  6943       L1    17  1.87
      P1  H  6934  6947       L1    17  1.75

> <Gold.PLP.Chemscore.Internal.Correction>
0.1258

> <Gold.Rescore>
     Score         DG    S(hbond)    S(metal)    S(lipo)     H(rot)  DE(clash)    DE(int)     intcor
      8.57     -11.33       0.90        0.00      85.48       2.79       0.06       2.70       ----

> <Gold.Chemscore.Fitness>
8.5694

> <Gold.Chemscore.DG>
-11.3289

> <Gold.Chemscore.ZeroCoef>
-5.4800

> <Gold.Chemscore.Hbond>
0.8974

> <Gold.Chemscore.Metal>
0.0000

> <Gold.Chemscore.Lipo>
85.4783

> <Gold.Chemscore.Internal_Hbond>
0.0000

> <Gold.Chemscore.DEClash>
0.0595

> <Gold.Chemscore.DEInternal>
2.7001

> <Gold.Chemscore.Rot>
2.7927

> <Gold.Chemscore.Internal.Correction>
   9.000000E+99

> <Gold.Chemscore.Hbonds>
donor molecule, donor type, donor heavy atom, donor atom, acceptor molecule, acceptor atom, score
      P1  H  6896  6907       L1     3  0.07
      P1  H  6931  6943       L1    17  0.18
      P1  H  6934  6947       L1    17  0.36

> <Gold.Chemscore.Hbond.Weighted>
-2.9972

> <Gold.Chemscore.Metal.Weighted>
-0.0000

> <Gold.Chemscore.Lipo.Weighted>
-10.0010

> <Gold.Chemscore.Internal_Hbond.Weighted>
0.0000

> <Gold.Chemscore.DEClash.Weighted>
0.0595

> <Gold.Chemscore.DEInternal.Weighted>
2.7001

> <Gold.Chemscore.Rot.Weighted>
7.1492

> <Gold.Chemscore.Internal.Correction.Weighted>
   9.000000E+99

> <Gold.Protein.RotatedTorsions>
[ 6907 6896 6895 6894 ] final  -74.03 input  -60.11 | X-H torsion
[ 7974 7965 7964 7962 ] final  -91.70 input  175.53 | X-H torsion
[ 8008 7997 7996 7995 ] final  -44.74 input   59.86 | X-H torsion
[ 10167 10162 10161 10158 ] final   55.64 input  -65.29 | X-H torsion
[ 10718 10713 10712 10709 ] final   13.93 input   66.30 | X-H torsion
[ 10763 10752 10751 10750 ] final  155.17 input  -60.55 | X-H torsion
[ 11005 11000 10999 10996 ] final  179.28 input  -57.11 | X-H torsion

> <Gold.Protein.ActiveResidues>
 VAL166  LYS551  ARG553  GLY616  TRP617  ASP618  TYR619  PRO620  LYS621  CYS622 
 ASP623  PHE694  ASN695  SER759  ASP760  ASP761  ALA762  ILE779  LEU786  VAL792 
 PHE793  MET794  SER795  GLU796  ALA797  LYS798  CYS799  TRP800  GLU811  SER814 

> <Gold.Protein.RotatedAtoms>
  150.7108  134.4929  159.5524 H   0  0  0  0  0  0  0  0  0  0  0  0  # atno 6907 bound_to 6896
  152.2543  134.8097  160.0450 H   0  0  0  0  0  0  0  0  0  0  0  0  # atno 6908 bound_to 6896
  151.8834  133.3465  159.3810 H   0  0  0  0  0  0  0  0  0  0  0  0  # atno 6909 bound_to 6896
  145.4096  140.9544  143.2241 H   0  0  0  0  0  0  0  0  0  0  0  0  # atno 7974 bound_to 7965
  154.3998  140.1414  156.3732 H   0  0  0  0  0  0  0  0  0  0  0  0  # atno 8008 bound_to 7997
  155.8073  140.3474  155.5416 H   0  0  0  0  0  0  0  0  0  0  0  0  # atno 8009 bound_to 7997
  155.8423  140.0928  157.1717 H   0  0  0  0  0  0  0  0  0  0  0  0  # atno 8010 bound_to 7997
  140.2173  144.3826  150.6464 H   0  0  0  0  0  0  0  0  0  0  0  0  # atno 10167 bound_to 10162
  157.0317  130.6195  149.5736 H   0  0  0  0  0  0  0  0  0  0  0  0  # atno 10718 bound_to 10713
  154.1640  135.2808  155.3100 H   0  0  0  0  0  0  0  0  0  0  0  0  # atno 10763 bound_to 10752
  154.6125  135.5494  153.7492 H   0  0  0  0  0  0  0  0  0  0  0  0  # atno 10764 bound_to 10752
  153.0184  135.6419  154.1782 H   0  0  0  0  0  0  0  0  0  0  0  0  # atno 10765 bound_to 10752
  140.4045  134.6748  157.4580 H   0  0  0  0  0  0  0  0  0  0  0  0  # atno 11005 bound_to 11000
  144.8318  139.5616  143.6940 LP  0  0  0  0  0  0  0  0  0  0  0  0  # atno 17320 bound_to 7965
  146.2711  139.6638  142.9295 LP  0  0  0  0  0  0  0  0  0  0  0  0  # atno 17321 bound_to 7965
  140.6281  143.2184  151.6555 LP  0  0  0  0  0  0  0  0  0  0  0  0  # atno 17342 bound_to 10162
  139.5157  144.3369  152.0775 LP  0  0  0  0  0  0  0  0  0  0  0  0  # atno 17343 bound_to 10162
  156.0067  130.5155  150.7854 LP  0  0  0  0  0  0  0  0  0  0  0  0  # atno 17370 bound_to 10713
  157.5172  131.0929  151.0124 LP  0  0  0  0  0  0  0  0  0  0  0  0  # atno 17371 bound_to 10713
  140.0312  134.6403  155.9104 LP  0  0  0  0  0  0  0  0  0  0  0  0  # atno 17394 bound_to 11000
  141.1844  133.6553  156.5157 LP  0  0  0  0  0  0  0  0  0  0  0  0  # atno 17395 bound_to 11000

$$$$
