AV-unprocessed.smi:17|AV-procd|sdf|106|dock9
  -GOLD-   2262015263D 1   1.00000     0.00000
 Structure written by MMmdl.
 57 59  0  0  0  0  0  0  0  0  1 V2000
  146.9616  136.8741  158.1878 C   0  0  0  0  0  0  0  0  0  0  0  0
  148.3649  136.4919  158.6872 C   0  0  0  0  0  0  0  0  0  0  0  0
  149.3005  136.1640  157.6087 N   0  0  0  0  0  0  0  0  0  0  0  0
  149.2715  134.8729  157.1883 C   0  0  0  0  0  0  0  0  0  0  0  0
  149.5647  133.9138  158.1015 N   0  0  0  0  0  0  0  0  0  0  0  0
  149.5702  132.6257  157.7489 C   0  0  0  0  0  0  0  0  0  0  0  0
  149.3171  132.0870  156.5550 N   0  0  0  0  0  0  0  0  0  0  0  0
  149.0241  133.0453  155.6298 C   0  0  0  0  0  0  0  0  0  0  0  0
  148.9868  134.4505  155.8565 C   0  0  0  0  0  0  0  0  0  0  0  0
  148.6643  135.1073  154.6750 N   0  0  0  0  0  0  0  0  0  0  0  0
  148.5182  134.1481  153.8036 C   0  0  0  0  0  0  0  0  0  0  0  0
  148.6993  132.8746  154.2941 N   0  0  0  0  0  0  0  0  0  0  0  0
  148.5961  131.6275  153.5492 C   0  0  0  0  0  0  0  0  0  0  0  0
  147.1425  131.1166  153.3500 C   0  0  1  0  0  0  0  0  0  0  0  0
  146.2104  131.5325  154.5123 C   0  0  0  0  0  0  0  0  0  0  0  0
  146.0600  130.4807  155.4423 O   0  0  0  0  0  0  0  0  0  0  0  0
  146.5477  131.5350  151.9793 C   0  0  1  0  0  0  0  0  0  0  0  0
  145.1633  130.9781  151.6911 C   0  0  0  0  0  0  0  0  0  0  0  0
  144.6743  131.8885  150.5707 C   0  0  0  0  0  0  0  0  0  0  0  0
  145.2676  133.1568  150.8224 O   0  0  0  0  0  0  0  0  0  0  0  0
  146.2675  133.0348  151.8289 C   0  0  0  0  0  0  0  0  0  0  0  0
  150.6286  136.7942  157.6827 C   0  0  1  0  0  0  0  0  0  0  0  0
  151.4918  136.5307  156.4339 C   0  0  0  0  0  0  0  0  0  0  0  0
  150.5889  138.2988  158.0284 C   0  0  0  0  0  0  0  0  0  0  0  0
  152.2858  139.0177  158.1482 S   0  0  0  0  0  0  0  0  0  0  0  0
  151.9586  140.6103  159.0064 C   0  0  0  0  0  0  0  0  0  0  0  0
  153.1026  138.1739  159.0332 O   0  0  0  0  0  0  0  0  0  0  0  0
  152.7611  139.3104  156.7875 O   0  0  0  0  0  0  0  0  0  0  0  0
  146.3298  137.1818  159.0209 H   0  0  0  0  0  0  0  0  0  0  0  0
  146.4628  136.0412  157.6917 H   0  0  0  0  0  0  0  0  0  0  0  0
  147.0096  137.7056  157.4838 H   0  0  0  0  0  0  0  0  0  0  0  0
  148.7697  137.3357  159.2469 H   0  0  0  0  0  0  0  0  0  0  0  0
  148.2976  135.6677  159.3964 H   0  0  0  0  0  0  0  0  0  0  0  0
  149.8130  131.9275  158.5363 H   0  0  0  0  0  0  0  0  0  0  0  0
  148.2680  134.3496  152.7730 H   0  0  0  0  0  0  0  0  0  0  0  0
  149.0877  131.7651  152.5861 H   0  0  0  0  0  0  0  0  0  0  0  0
  149.1890  130.8730  154.0673 H   0  0  0  0  0  0  0  0  0  0  0  0
  147.1903  130.0265  153.3549 H   0  0  0  0  0  0  0  0  0  0  0  0
  146.5796  132.4229  155.0214 H   0  0  0  0  0  0  0  0  0  0  0  0
  145.2133  131.7723  154.1454 H   0  0  0  0  0  0  0  0  0  0  0  0
  145.2320  130.0536  155.2807 H   0  0  0  0  0  0  0  0  0  0  0  0
  147.2219  131.2366  151.1754 H   0  0  0  0  0  0  0  0  0  0  0  0
  145.1630  129.9284  151.3993 H   0  0  0  0  0  0  0  0  0  0  0  0
  144.5200  131.0866  152.5655 H   0  0  0  0  0  0  0  0  0  0  0  0
  145.0267  131.5254  149.6045 H   0  0  0  0  0  0  0  0  0  0  0  0
  143.5871  131.9563  150.5326 H   0  0  0  0  0  0  0  0  0  0  0  0
  145.8703  133.4497  152.7562 H   0  0  0  0  0  0  0  0  0  0  0  0
  147.1584  133.6021  151.5598 H   0  0  0  0  0  0  0  0  0  0  0  0
  151.1482  136.3083  158.5092 H   0  0  0  0  0  0  0  0  0  0  0  0
  152.5077  136.8985  156.5803 H   0  0  0  0  0  0  0  0  0  0  0  0
  151.0906  137.0319  155.5527 H   0  0  0  0  0  0  0  0  0  0  0  0
  151.5648  135.4656  156.2135 H   0  0  0  0  0  0  0  0  0  0  0  0
  150.0784  138.8450  157.2353 H   0  0  0  0  0  0  0  0  0  0  0  0
  150.0445  138.5065  158.9487 H   0  0  0  0  0  0  0  0  0  0  0  0
  152.8965  141.1495  159.1364 H   0  0  0  0  0  0  0  0  0  0  0  0
  151.5153  140.4145  159.9824 H   0  0  0  0  0  0  0  0  0  0  0  0
  151.2751  141.2137  158.4097 H   0  0  0  0  0  0  0  0  0  0  0  0
  1  2  1  0  0  0  0
  1 29  1  0  0  0  0
  1 30  1  0  0  0  0
  1 31  1  0  0  0  0
  2  3  1  0  0  0  0
  2 32  1  0  0  0  0
  2 33  1  0  0  0  0
  3  4  1  0  0  0  0
  3 22  1  0  0  0  0
  4  9  1  0  0  0  0
  4  5  2  0  0  0  0
  5  6  1  0  0  0  0
  6  7  2  0  0  0  0
  6 34  1  0  0  0  0
  7  8  1  0  0  0  0
  8 12  1  0  0  0  0
  8  9  2  0  0  0  0
  9 10  1  0  0  0  0
 10 11  2  0  0  0  0
 11 12  1  0  0  0  0
 11 35  1  0  0  0  0
 12 13  1  0  0  0  0
 13 14  1  0  0  0  0
 13 36  1  0  0  0  0
 13 37  1  0  0  0  0
 14 15  1  0  0  0  0
 14 17  1  0  0  0  0
 14 38  1  0  0  0  0
 15 16  1  0  0  0  0
 15 39  1  0  0  0  0
 15 40  1  0  0  0  0
 16 41  1  0  0  0  0
 17 21  1  0  0  0  0
 17 18  1  0  0  0  0
 17 42  1  0  0  0  0
 18 19  1  0  0  0  0
 18 43  1  0  0  0  0
 18 44  1  0  0  0  0
 19 20  1  0  0  0  0
 19 45  1  0  0  0  0
 19 46  1  0  0  0  0
 20 21  1  0  0  0  0
 21 47  1  0  0  0  0
 21 48  1  0  0  0  0
 22 23  1  0  0  0  0
 22 24  1  0  0  0  0
 22 49  1  0  0  0  0
 23 50  1  0  0  0  0
 23 51  1  0  0  0  0
 23 52  1  0  0  0  0
 24 25  1  0  0  0  0
 24 53  1  0  0  0  0
 24 54  1  0  0  0  0
 25 26  1  0  0  0  0
 25 27  2  0  0  0  0
 25 28  2  0  0  0  0
 26 55  1  0  0  0  0
 26 56  1  0  0  0  0
 26 57  1  0  0  0  0
M  END
> <s_m_source_file>
AV-unprocessed.smi

> <i_m_source_file_index>
17

> <i_lp_mmshare_version>
43012

> <i_f3d_flags>
0

> <s_epik_input>
W0NIM11TKD1PKSg9TylbQ0gyXVtDQEBIXShbQ0gzXSlOKFtDSDJdW0NIM10pYyhuW2NIXW4xKWMoYzEyKW5bY0hdbjJbQ0gyXVtDQEhdKFtDSDJdW09IXSlbQ0BASF0zW0NIMl1bQ0gyXU9bQ0gyXTM=

> <s_epik_cmdline>
J2VwaWtfcHl0aG9uJywgJy1waCcsICc3LjAnLCAnLXRuJywgJzgnLCAnLW1hJywgJzIwMCcsICctbWV0YWxfYmluZGluZycsICctaW1hZScsICc8aW5maWxlLm1hZT4nLCAnLW9tYWUnLCAnPG91dGZpbGUubWFlPic=

> <r_lp_tautomer_probability>
1

> <r_epik_Ionization_Penalty>
0.00119955

> <r_epik_Ionization_Penalty_Charging>
0

> <r_epik_Ionization_Penalty_Neutral>
0.00119955

> <r_epik_State_Penalty>
0.000665399

> <r_epik_Charging_Adjusted_Penalty>
0.000665399

> <i_epik_Tot_Q>
0

> <i_epik_Tot_abs_Q>
0

> <r_epik_Metal_State_Penalty>
-0

> <b_epik_Metal_Only>
0

> <s_lp_Force_Field>
OPLS_2005

> <r_lp_Energy>
32.9267

> <b_lp_Chiralities_Consistent>
1

> <s_lp_Variant>
AV-unprocessed.smi:17-8

> <Gold.Version>
5.8.1

> <Gold.Id.Protein>
6NUR|6NUR_protein|mol2

> <Gold.PLP.Fitness>
37.4903

> <Gold.PLP.PLP>
-29.6935

> <Gold.PLP.part.hbond>
-3.0000

> <Gold.PLP.part.metal>
0.0000

> <Gold.PLP.part.buried>
-1.9305

> <Gold.PLP.part.nonpolar>
-25.2737

> <Gold.PLP.part.repulsive>
0.5754

> <Gold.PLP.ligand.clash>
0.0000

> <Gold.PLP.ligand.torsion>
2.5546

> <Gold.PLP.Chemscore.Hbond>
3.0000

> <Gold.PLP.Chemscore.CHOScore>
0.8407

> <Gold.PLP.Chemscore.Metal>
0.0000

> <Gold.Chemscore.Hbonds>
donor molecule, donor type, donor heavy atom, donor atom, acceptor molecule, acceptor atom, score
      L1  H    16    41       P1 10956  0.91
      P1  H  6896  6909       L1     5  1.00
      P1  H  7997  8008       L1    28  0.93
      L1  C    11    35       P1  7948  0.79

> <Gold.PLP.Chemscore.Internal.Correction>
1.3840

> <Gold.Rescore>
     Score         DG    S(hbond)    S(metal)    S(lipo)     H(rot)  DE(clash)    DE(int)     intcor
      8.03     -11.34       2.38        0.00      65.04       3.79       0.28       3.03       ----

> <Gold.Chemscore.Fitness>
8.0283

> <Gold.Chemscore.DG>
-11.3372

> <Gold.Chemscore.ZeroCoef>
-5.4800

> <Gold.Chemscore.Hbond>
2.3799

> <Gold.Chemscore.Metal>
0.0000

> <Gold.Chemscore.Lipo>
65.0367

> <Gold.Chemscore.Internal_Hbond>
0.0000

> <Gold.Chemscore.DEClash>
0.2813

> <Gold.Chemscore.DEInternal>
3.0276

> <Gold.Chemscore.Rot>
3.7894

> <Gold.Chemscore.Internal.Correction>
   9.000000E+99

> <Gold.Chemscore.Hbonds>
donor molecule, donor type, donor heavy atom, donor atom, acceptor molecule, acceptor atom, score
      L1  H    16    41       P1 10956  0.74
      P1  H  6896  6909       L1     5  0.40
      P1  H  7997  8008       L1    28  0.64

> <Gold.Chemscore.Hbond.Weighted>
-7.9489

> <Gold.Chemscore.Metal.Weighted>
-0.0000

> <Gold.Chemscore.Lipo.Weighted>
-7.6093

> <Gold.Chemscore.Internal_Hbond.Weighted>
0.0000

> <Gold.Chemscore.DEClash.Weighted>
0.2813

> <Gold.Chemscore.DEInternal.Weighted>
3.0276

> <Gold.Chemscore.Rot.Weighted>
9.7010

> <Gold.Chemscore.Internal.Correction.Weighted>
   9.000000E+99

> <Gold.Protein.RotatedTorsions>
[ 6907 6896 6895 6894 ] final   11.80 input  -60.11 | X-H torsion
[ 7974 7965 7964 7962 ] final  108.83 input  175.53 | X-H torsion
[ 8008 7997 7996 7995 ] final  -79.25 input   59.86 | X-H torsion
[ 10167 10162 10161 10158 ] final  121.62 input  -65.29 | X-H torsion
[ 10718 10713 10712 10709 ] final -110.60 input   66.30 | X-H torsion
[ 10763 10752 10751 10750 ] final  -76.95 input  -60.55 | X-H torsion
[ 11005 11000 10999 10996 ] final -119.56 input  -57.11 | X-H torsion

> <Gold.Protein.ActiveResidues>
 VAL166  LYS551  ARG553  GLY616  TRP617  ASP618  TYR619  PRO620  LYS621  CYS622 
 ASP623  PHE694  ASN695  SER759  ASP760  ASP761  ALA762  ILE779  LEU786  VAL792 
 PHE793  MET794  SER795  GLU796  ALA797  LYS798  CYS799  TRP800  GLU811  SER814 

> <Gold.Protein.RotatedAtoms>
  151.7601  135.0812  160.0343 H   0  0  0  0  0  0  0  0  0  0  0  0  # atno 6907 bound_to 6896
  152.3359  133.6007  159.5850 H   0  0  0  0  0  0  0  0  0  0  0  0  # atno 6908 bound_to 6896
  150.7450  133.9713  159.3588 H   0  0  0  0  0  0  0  0  0  0  0  0  # atno 6909 bound_to 6896
  145.2757  139.2651  143.3943 H   0  0  0  0  0  0  0  0  0  0  0  0  # atno 7974 bound_to 7965
  154.5767  140.0681  156.9044 H   0  0  0  0  0  0  0  0  0  0  0  0  # atno 8008 bound_to 7997
  155.2536  140.3353  155.4261 H   0  0  0  0  0  0  0  0  0  0  0  0  # atno 8009 bound_to 7997
  156.2159  140.1778  156.7575 H   0  0  0  0  0  0  0  0  0  0  0  0  # atno 8010 bound_to 7997
  139.5908  144.7024  151.3294 H   0  0  0  0  0  0  0  0  0  0  0  0  # atno 10167 bound_to 10162
  156.0600  130.5824  150.8260 H   0  0  0  0  0  0  0  0  0  0  0  0  # atno 10718 bound_to 10713
  154.5066  135.5780  153.6572 H   0  0  0  0  0  0  0  0  0  0  0  0  # atno 10763 bound_to 10752
  152.9889  135.6148  154.2933 H   0  0  0  0  0  0  0  0  0  0  0  0  # atno 10764 bound_to 10752
  154.2845  135.2850  155.2662 H   0  0  0  0  0  0  0  0  0  0  0  0  # atno 10765 bound_to 10752
  141.0207  134.0129  157.3287 H   0  0  0  0  0  0  0  0  0  0  0  0  # atno 11005 bound_to 11000
  146.3232  140.3211  142.8633 LP  0  0  0  0  0  0  0  0  0  0  0  0  # atno 17320 bound_to 7965
  144.9297  140.7961  143.5697 LP  0  0  0  0  0  0  0  0  0  0  0  0  # atno 17321 bound_to 7965
  140.7172  143.7235  150.7677 LP  0  0  0  0  0  0  0  0  0  0  0  0  # atno 17342 bound_to 10162
  140.0791  143.4986  152.2540 LP  0  0  0  0  0  0  0  0  0  0  0  0  # atno 17343 bound_to 10162
  157.5601  131.0945  150.9571 LP  0  0  0  0  0  0  0  0  0  0  0  0  # atno 17370 bound_to 10713
  156.9811  130.5527  149.5296 LP  0  0  0  0  0  0  0  0  0  0  0  0  # atno 17371 bound_to 10713
  139.9144  135.0195  156.7823 LP  0  0  0  0  0  0  0  0  0  0  0  0  # atno 17394 bound_to 11000
  140.6578  133.9673  155.7789 LP  0  0  0  0  0  0  0  0  0  0  0  0  # atno 17395 bound_to 11000

$$$$
