AV-unprocessed.smi:2027|AV-procd|sdf|8214|dock3
  -GOLD-   2272010473D 1   1.00000     0.00000
 Structure written by MMmdl.
 50 52  0  0  0  0  0  0  0  0  2 V2000
  152.2310  144.1178  160.8140 C   0  0  0  0  0  0  0  0  0  0  0  0
  152.0193  143.1252  159.6842 C   0  0  0  0  0  0  0  0  0  0  0  0
  150.9598  143.3367  158.7734 C   0  0  0  0  0  0  0  0  0  0  0  0
  150.7307  142.4391  157.7078 C   0  0  0  0  0  0  0  0  0  0  0  0
  149.7698  142.4533  156.7113 N   0  0  0  0  0  0  0  0  0  0  0  0
  150.0793  141.3576  156.0245 C   0  0  0  0  0  0  0  0  0  0  0  0
  151.1290  140.6337  156.4582 N   0  0  0  0  0  0  0  0  0  0  0  0
  151.6498  139.4121  155.8712 C   0  0  0  0  0  0  0  0  0  0  0  0
  150.5911  138.6536  155.0475 C   0  0  1  0  0  0  0  0  0  0  0  0
  150.3699  139.3290  153.8231 O   0  0  0  0  0  0  0  0  0  0  0  0
  151.0326  137.2115  154.7379 C   0  0  0  0  0  0  0  0  0  0  0  0
  149.8797  136.2719  154.7310 N   0  3  2  0  0  0  0  0  0  0  0  0
  148.8925  136.5727  155.7933 C   0  0  0  0  0  0  0  0  0  0  0  0
  150.2766  134.8418  154.7255 C   0  0  0  0  0  0  0  0  0  0  0  0
  149.0716  133.9440  154.6288 C   0  0  0  0  0  0  0  0  0  0  0  0
  148.6052  132.9968  155.5854 C   0  0  0  0  0  0  0  0  0  0  0  0
  147.5240  132.3499  155.1839 N   0  0  0  0  0  0  0  0  0  0  0  0
  147.2548  132.8667  153.9676 N   0  0  0  0  0  0  0  0  0  0  0  0
  146.1156  132.3783  153.2203 C   0  0  0  0  0  0  0  0  0  0  0  0
  148.1688  133.8335  153.6085 C   0  0  0  0  0  0  0  0  0  0  0  0
  151.5959  141.3136  157.5785 C   0  0  0  0  0  0  0  0  0  0  0  0
  152.6527  141.0915  158.4794 C   0  0  0  0  0  0  0  0  0  0  0  0
  152.8692  141.9997  159.5368 C   0  0  0  0  0  0  0  0  0  0  0  0
  154.0160  141.7543  160.5013 C   0  0  0  0  0  0  0  0  0  0  0  0
  151.4786  144.9068  160.7969 H   0  0  0  0  0  0  0  0  0  0  0  0
  153.2110  144.5880  160.7304 H   0  0  0  0  0  0  0  0  0  0  0  0
  152.1671  143.6172  161.7805 H   0  0  0  0  0  0  0  0  0  0  0  0
  150.3128  144.1943  158.8849 H   0  0  0  0  0  0  0  0  0  0  0  0
  149.5109  141.0641  155.1541 H   0  0  0  0  0  0  0  0  0  0  0  0
  152.5114  139.6640  155.2513 H   0  0  0  0  0  0  0  0  0  0  0  0
  152.0231  138.7790  156.6772 H   0  0  0  0  0  0  0  0  0  0  0  0
  149.6532  138.6457  155.6037 H   0  0  0  0  0  0  0  0  0  0  0  0
  149.8943  138.7559  153.2407 H   0  0  0  0  0  0  0  0  0  0  0  0
  151.5456  137.2095  153.7760 H   0  0  0  0  0  0  0  0  0  0  0  0
  151.7727  136.8717  155.4640 H   0  0  0  0  0  0  0  0  0  0  0  0
  149.3172  136.3952  156.7823 H   0  0  0  0  0  0  0  0  0  0  0  0
  148.0069  135.9454  155.6857 H   0  0  0  0  0  0  0  0  0  0  0  0
  148.5642  137.6108  155.7444 H   0  0  0  0  0  0  0  0  0  0  0  0
  150.9772  134.6651  153.9080 H   0  0  0  0  0  0  0  0  0  0  0  0
  150.8237  134.6182  155.6424 H   0  0  0  0  0  0  0  0  0  0  0  0
  149.0255  132.7547  156.5506 H   0  0  0  0  0  0  0  0  0  0  0  0
  145.9197  133.0305  152.3687 H   0  0  0  0  0  0  0  0  0  0  0  0
  145.2319  132.3570  153.8590 H   0  0  0  0  0  0  0  0  0  0  0  0
  146.3196  131.3709  152.8570 H   0  0  0  0  0  0  0  0  0  0  0  0
  148.1067  134.3515  152.6626 H   0  0  0  0  0  0  0  0  0  0  0  0
  153.2933  140.2311  158.3563 H   0  0  0  0  0  0  0  0  0  0  0  0
  154.5664  140.8489  160.2436 H   0  0  0  0  0  0  0  0  0  0  0  0
  153.6421  141.6399  161.5190 H   0  0  0  0  0  0  0  0  0  0  0  0
  154.7171  142.5890  160.4812 H   0  0  0  0  0  0  0  0  0  0  0  0
  149.4051  136.4223  153.8517 H   0  0  0  0  0  0  0  0  0  0  0  0
  1  2  1  0  0  0  0
  1 25  1  0  0  0  0
  1 26  1  0  0  0  0
  1 27  1  0  0  0  0
  2 23  1  0  0  0  0
  2  3  2  0  0  0  0
  3  4  1  0  0  0  0
  3 28  1  0  0  0  0
  4 21  2  0  0  0  0
  4  5  1  0  0  0  0
  5  6  2  0  0  0  0
  6  7  1  0  0  0  0
  6 29  1  0  0  0  0
  7  8  1  0  0  0  0
  7 21  1  0  0  0  0
  8  9  1  0  0  0  0
  8 30  1  0  0  0  0
  8 31  1  0  0  0  0
  9 10  1  0  0  0  0
  9 11  1  0  0  0  0
  9 32  1  0  0  0  0
 10 33  1  0  0  0  0
 11 12  1  0  0  0  0
 11 34  1  0  0  0  0
 11 35  1  0  0  0  0
 12 13  1  0  0  0  0
 12 14  1  0  0  0  0
 12 50  1  0  0  0  0
 13 36  1  0  0  0  0
 13 37  1  0  0  0  0
 13 38  1  0  0  0  0
 14 15  1  0  0  0  0
 14 39  1  0  0  0  0
 14 40  1  0  0  0  0
 15 20  2  0  0  0  0
 15 16  1  0  0  0  0
 16 17  2  0  0  0  0
 16 41  1  0  0  0  0
 17 18  1  0  0  0  0
 18 19  1  0  0  0  0
 18 20  1  0  0  0  0
 19 42  1  0  0  0  0
 19 43  1  0  0  0  0
 19 44  1  0  0  0  0
 20 45  1  0  0  0  0
 21 22  1  0  0  0  0
 22 23  2  0  0  0  0
 22 46  1  0  0  0  0
 23 24  1  0  0  0  0
 24 47  1  0  0  0  0
 24 48  1  0  0  0  0
 24 49  1  0  0  0  0
M  CHG  1  12   1
M  END
> <s_m_source_file>
AV-unprocessed.smi

> <i_m_source_file_index>
2027

> <i_lp_mmshare_version>
43012

> <i_f3d_flags>
0

> <s_epik_input>
W0NIM11jKFtjSF0xKWMoW0NIM10pW2NIXWMoYzEyKW4oW2NIXW4yKVtDSDJdW0NASF0oW09IXSlbQ0gyXU4oW0NIM10pW0NIMl1jM1tjSF1ubihbQ0gzXSlbY0hdMw==

> <s_epik_cmdline>
J2VwaWtfcHl0aG9uJywgJy1waCcsICc3LjAnLCAnLXRuJywgJzgnLCAnLW1hJywgJzIwMCcsICctbWV0YWxfYmluZGluZycsICctaW1hZScsICc8aW5maWxlLm1hZT4nLCAnLW9tYWUnLCAnPG91dGZpbGUubWFlPic=

> <r_lp_tautomer_probability>
1

> <r_epik_Ionization_Penalty>
0.646578

> <r_epik_Ionization_Penalty_Charging>
0.559419

> <r_epik_Ionization_Penalty_Neutral>
0.087159

> <r_epik_State_Penalty>
0.661677

> <r_epik_Charging_Adjusted_Penalty>
1.2211

> <i_epik_Tot_Q>
1

> <i_epik_Tot_abs_Q>
1

> <r_epik_Metal_State_Penalty>
0.649174

> <b_epik_Metal_Only>
0

> <s_lp_Force_Field>
OPLS_2005

> <r_lp_Energy>
10.2185

> <b_lp_Chiralities_Consistent>
1

> <s_lp_Variant>
AV-unprocessed.smi:2027-6

> <Gold.Version>
5.8.1

> <Gold.Id.Protein>
6NUR|6NUR_protein|mol2

> <Gold.PLP.Fitness>
52.0308

> <Gold.PLP.PLP>
-41.9633

> <Gold.PLP.part.hbond>
-3.0000

> <Gold.PLP.part.metal>
0.0000

> <Gold.PLP.part.buried>
-3.8481

> <Gold.PLP.part.nonpolar>
-38.2083

> <Gold.PLP.part.repulsive>
2.9267

> <Gold.PLP.ligand.clash>
0.0000

> <Gold.PLP.ligand.torsion>
1.0646

> <Gold.PLP.Chemscore.Hbond>
3.0000

> <Gold.PLP.Chemscore.CHOScore>
0.9997

> <Gold.PLP.Chemscore.Metal>
0.0000

> <Gold.Chemscore.Hbonds>
donor molecule, donor type, donor heavy atom, donor atom, acceptor molecule, acceptor atom, score
      L1  H    12    50       P1  7948  2.00
      P1  H  7989  7998       L1    10  1.00
      L1  C    20    45       P1  7948  1.00

> <Gold.PLP.Chemscore.Internal.Correction>
0.1977

> <Gold.Rescore>
     Score         DG    S(hbond)    S(metal)    S(lipo)     H(rot)  DE(clash)    DE(int)     intcor
     14.77     -19.02       1.64        0.00     123.71       2.50       1.97       2.29       ----

> <Gold.Chemscore.Fitness>
14.7709

> <Gold.Chemscore.DG>
-19.0250

> <Gold.Chemscore.ZeroCoef>
-5.4800

> <Gold.Chemscore.Hbond>
1.6415

> <Gold.Chemscore.Metal>
0.0000

> <Gold.Chemscore.Lipo>
123.7120

> <Gold.Chemscore.Internal_Hbond>
0.0000

> <Gold.Chemscore.DEClash>
1.9654

> <Gold.Chemscore.DEInternal>
2.2886

> <Gold.Chemscore.Rot>
2.5047

> <Gold.Chemscore.Internal.Correction>
   9.000000E+99

> <Gold.Chemscore.Hbonds>
donor molecule, donor type, donor heavy atom, donor atom, acceptor molecule, acceptor atom, score
      L1  H    10    33       P1  7957  0.01
      L1  H    12    50       P1  7948  0.79
      P1  H  7989  7998       L1    10  0.82

> <Gold.Chemscore.Hbond.Weighted>
-5.4827

> <Gold.Chemscore.Metal.Weighted>
-0.0000

> <Gold.Chemscore.Lipo.Weighted>
-14.4743

> <Gold.Chemscore.Internal_Hbond.Weighted>
0.0000

> <Gold.Chemscore.DEClash.Weighted>
1.9654

> <Gold.Chemscore.DEInternal.Weighted>
2.2886

> <Gold.Chemscore.Rot.Weighted>
6.4120

> <Gold.Chemscore.Internal.Correction.Weighted>
   9.000000E+99

> <Gold.Protein.RotatedTorsions>
[ 6907 6896 6895 6894 ] final -147.50 input  -60.11 | X-H torsion
[ 7974 7965 7964 7962 ] final   69.28 input  175.53 | X-H torsion
[ 8008 7997 7996 7995 ] final  -76.92 input   59.86 | X-H torsion
[ 10167 10162 10161 10158 ] final  102.57 input  -65.29 | X-H torsion
[ 10718 10713 10712 10709 ] final   91.56 input   66.30 | X-H torsion
[ 10763 10752 10751 10750 ] final   29.58 input  -60.55 | X-H torsion
[ 11005 11000 10999 10996 ] final   24.62 input  -57.11 | X-H torsion

> <Gold.Protein.ActiveResidues>
 VAL166  LYS551  ARG553  GLY616  TRP617  ASP618  TYR619  PRO620  LYS621  CYS622 
 ASP623  PHE694  ASN695  SER759  ASP760  ASP761  ALA762  ILE779  LEU786  VAL792 
 PHE793  MET794  SER795  GLU796  ALA797  LYS798  CYS799  TRP800  GLU811  SER814 

> <Gold.Protein.RotatedAtoms>
  151.1566  133.4872  159.2594 H   0  0  0  0  0  0  0  0  0  0  0  0  # atno 6907 bound_to 6896
  151.1498  135.0221  159.8673 H   0  0  0  0  0  0  0  0  0  0  0  0  # atno 6908 bound_to 6896
  152.5463  134.1451  159.8548 H   0  0  0  0  0  0  0  0  0  0  0  0  # atno 6909 bound_to 6896
  145.7924  139.2940  143.1202 H   0  0  0  0  0  0  0  0  0  0  0  0  # atno 7974 bound_to 7965
  154.5549  140.0719  156.8727 H   0  0  0  0  0  0  0  0  0  0  0  0  # atno 8008 bound_to 7997
  155.2922  140.3379  155.4234 H   0  0  0  0  0  0  0  0  0  0  0  0  # atno 8009 bound_to 7997
  156.1993  140.1715  156.7918 H   0  0  0  0  0  0  0  0  0  0  0  0  # atno 8010 bound_to 7997
  139.7338  144.7029  151.0680 H   0  0  0  0  0  0  0  0  0  0  0  0  # atno 10167 bound_to 10162
  157.6960  131.0412  150.3748 H   0  0  0  0  0  0  0  0  0  0  0  0  # atno 10718 bound_to 10713
  153.0422  135.6485  154.0913 H   0  0  0  0  0  0  0  0  0  0  0  0  # atno 10763 bound_to 10752
  154.0617  135.2887  155.3325 H   0  0  0  0  0  0  0  0  0  0  0  0  # atno 10764 bound_to 10752
  154.6653  135.5376  153.8134 H   0  0  0  0  0  0  0  0  0  0  0  0  # atno 10765 bound_to 10752
  140.3567  134.2169  155.7675 H   0  0  0  0  0  0  0  0  0  0  0  0  # atno 11005 bound_to 11000
  145.9963  140.8559  143.0041 LP  0  0  0  0  0  0  0  0  0  0  0  0  # atno 17320 bound_to 7965
  144.6780  140.2288  143.7358 LP  0  0  0  0  0  0  0  0  0  0  0  0  # atno 17321 bound_to 7965
  140.7775  143.5009  150.9772 LP  0  0  0  0  0  0  0  0  0  0  0  0  # atno 17342 bound_to 10162
  139.8698  143.7207  152.3167 LP  0  0  0  0  0  0  0  0  0  0  0  0  # atno 17343 bound_to 10162
  156.4169  130.3945  149.6852 LP  0  0  0  0  0  0  0  0  0  0  0  0  # atno 17370 bound_to 10713
  156.4117  130.7725  151.2738 LP  0  0  0  0  0  0  0  0  0  0  0  0  # atno 17371 bound_to 10713
  141.1996  133.8007  157.0528 LP  0  0  0  0  0  0  0  0  0  0  0  0  # atno 17394 bound_to 11000
  140.0659  134.9729  157.1385 LP  0  0  0  0  0  0  0  0  0  0  0  0  # atno 17395 bound_to 11000

$$$$
