AV-unprocessed.smi:984|AV-procd|sdf|4317|dock9
  -GOLD-   22720 2223D 1   1.00000     0.00000
 Structure written by MMmdl.
 34 34  0  0  0  0  0  0  0  0  1 V2000
  152.0230  144.0657  159.8329 C   0  0  0  0  0  0  0  0  0  0  0  0
  152.6219  142.8274  160.5075 C   0  0  0  0  0  0  0  0  0  0  0  0
  153.2880  141.8698  159.5027 C   0  0  0  0  0  0  0  0  0  0  0  0
  153.5538  140.4539  160.0497 C   0  0  0  0  0  0  0  0  0  0  0  0
  152.5592  139.4907  159.5867 N   0  0  0  0  0  0  0  0  0  0  0  0
  152.2021  139.3018  158.3072 C   0  0  0  0  0  0  0  0  0  0  0  0
  152.7371  139.8836  157.3630 O   0  0  0  0  0  0  0  0  0  0  0  0
  151.0616  138.3120  158.0543 C   0  0  0  0  0  0  0  0  0  0  0  0
  150.6925  138.3241  156.6435 N   0  0  0  0  0  0  0  0  0  0  0  0
  151.3353  137.6813  155.6555 C   0  0  0  0  0  0  0  0  0  0  0  0
  152.2537  136.8844  155.8436 O   0  0  0  0  0  0  0  0  0  0  0  0
  150.8885  138.0168  154.2323 C   0  0  0  0  0  0  0  0  0  0  0  0
  149.8587  139.0424  154.2497 N   0  0  0  0  0  0  0  0  0  0  0  0
  148.5943  139.0100  153.8229 C   0  0  0  0  0  0  0  0  0  0  0  0
  147.9477  140.1572  153.9765 N   0  0  0  0  0  0  0  0  0  0  0  0
  148.9406  140.9046  154.5442 C   0  0  0  0  0  0  0  0  0  0  0  0
  150.1061  140.2844  154.7299 N   0  0  0  0  0  0  0  0  0  0  0  0
  151.5550  144.7201  160.5686 H   0  0  0  0  0  0  0  0  0  0  0  0
  151.2617  143.7882  159.1033 H   0  0  0  0  0  0  0  0  0  0  0  0
  152.7907  144.6420  159.3160 H   0  0  0  0  0  0  0  0  0  0  0  0
  153.3471  143.1551  161.2526 H   0  0  0  0  0  0  0  0  0  0  0  0
  151.8376  142.2998  161.0513 H   0  0  0  0  0  0  0  0  0  0  0  0
  152.6496  141.7829  158.6228 H   0  0  0  0  0  0  0  0  0  0  0  0
  154.2247  142.3050  159.1523 H   0  0  0  0  0  0  0  0  0  0  0  0
  154.5648  140.1313  159.7956 H   0  0  0  0  0  0  0  0  0  0  0  0
  153.5099  140.4751  161.1387 H   0  0  0  0  0  0  0  0  0  0  0  0
  152.0739  138.9613  160.2965 H   0  0  0  0  0  0  0  0  0  0  0  0
  151.3666  137.3139  158.3725 H   0  0  0  0  0  0  0  0  0  0  0  0
  150.1853  138.5785  158.6465 H   0  0  0  0  0  0  0  0  0  0  0  0
  149.9459  138.9513  156.3808 H   0  0  0  0  0  0  0  0  0  0  0  0
  151.7340  138.3798  153.6463 H   0  0  0  0  0  0  0  0  0  0  0  0
  150.5089  137.1206  153.7389 H   0  0  0  0  0  0  0  0  0  0  0  0
  148.1424  138.1332  153.3823 H   0  0  0  0  0  0  0  0  0  0  0  0
  148.8010  141.9379  154.8261 H   0  0  0  0  0  0  0  0  0  0  0  0
  1  2  1  0  0  0  0
  1 18  1  0  0  0  0
  1 19  1  0  0  0  0
  1 20  1  0  0  0  0
  2  3  1  0  0  0  0
  2 21  1  0  0  0  0
  2 22  1  0  0  0  0
  3  4  1  0  0  0  0
  3 23  1  0  0  0  0
  3 24  1  0  0  0  0
  4  5  1  0  0  0  0
  4 25  1  0  0  0  0
  4 26  1  0  0  0  0
  5  6  1  0  0  0  0
  5 27  1  0  0  0  0
  6  7  2  0  0  0  0
  6  8  1  0  0  0  0
  8  9  1  0  0  0  0
  8 28  1  0  0  0  0
  8 29  1  0  0  0  0
  9 10  1  0  0  0  0
  9 30  1  0  0  0  0
 10 11  2  0  0  0  0
 10 12  1  0  0  0  0
 12 13  1  0  0  0  0
 12 31  1  0  0  0  0
 12 32  1  0  0  0  0
 13 17  1  0  0  0  0
 13 14  1  0  0  0  0
 14 15  2  0  0  0  0
 14 33  1  0  0  0  0
 15 16  1  0  0  0  0
 16 17  2  0  0  0  0
 16 34  1  0  0  0  0
M  END
> <s_m_source_file>
AV-unprocessed.smi

> <i_m_source_file_index>
984

> <i_lp_mmshare_version>
43012

> <i_f3d_flags>
0

> <s_epik_input>
W0NIM11bQ0gyXVtDSDJdW0NIMl1bTkhdQyg9TylbQ0gyXVtOSF1DKD1PKVtDSDJdbjFbY0hdbltjSF1uMQ==

> <s_epik_cmdline>
J2VwaWtfcHl0aG9uJywgJy1waCcsICc3LjAnLCAnLXRuJywgJzgnLCAnLW1hJywgJzIwMCcsICctbWV0YWxfYmluZGluZycsICctaW1hZScsICc8aW5maWxlLm1hZT4nLCAnLW9tYWUnLCAnPG91dGZpbGUubWFlPic=

> <r_lp_tautomer_probability>
1

> <r_epik_Ionization_Penalty>
7.27004e-06

> <r_epik_Ionization_Penalty_Charging>
0

> <r_epik_Ionization_Penalty_Neutral>
7.27004e-06

> <r_epik_State_Penalty>
-0

> <r_epik_Charging_Adjusted_Penalty>
0

> <i_epik_Tot_Q>
0

> <i_epik_Tot_abs_Q>
0

> <r_epik_Metal_State_Penalty>
-0

> <b_epik_Metal_Only>
0

> <s_lp_Force_Field>
OPLS_2005

> <r_lp_Energy>
2.39519

> <b_lp_Chiralities_Consistent>
1

> <s_lp_Variant>
AV-unprocessed.smi:984-1

> <Gold.Version>
5.8.1

> <Gold.Id.Protein>
6NUR|6NUR_protein|mol2

> <Gold.PLP.Fitness>
43.2324

> <Gold.PLP.PLP>
-31.6616

> <Gold.PLP.part.hbond>
-3.0000

> <Gold.PLP.part.metal>
0.0000

> <Gold.PLP.part.buried>
-1.1311

> <Gold.PLP.part.nonpolar>
-27.4544

> <Gold.PLP.part.repulsive>
0.8210

> <Gold.PLP.ligand.clash>
0.0000

> <Gold.PLP.ligand.torsion>
0.5849

> <Gold.PLP.Chemscore.Hbond>
2.9760

> <Gold.PLP.Chemscore.CHOScore>
1.2334

> <Gold.PLP.Chemscore.Metal>
0.0000

> <Gold.Chemscore.Hbonds>
donor molecule, donor type, donor heavy atom, donor atom, acceptor molecule, acceptor atom, score
      P1  H  7989  7998       L1    17  0.98
      P1  H  7997  8010       L1     7  1.00
      P1  H 10752 10764       L1    11  0.98
      L1  C    14    33       P1  7948  0.94
      L1  C    16    34       P1  8028  0.10

> <Gold.PLP.Chemscore.Internal.Correction>
0.1123

> <Gold.Rescore>
     Score         DG    S(hbond)    S(metal)    S(lipo)     H(rot)  DE(clash)    DE(int)     intcor
     11.42     -12.38       2.92        0.00      54.77       3.61       0.01       0.95       ----

> <Gold.Chemscore.Fitness>
11.4247

> <Gold.Chemscore.DG>
-12.3799

> <Gold.Chemscore.ZeroCoef>
-5.4800

> <Gold.Chemscore.Hbond>
2.9152

> <Gold.Chemscore.Metal>
0.0000

> <Gold.Chemscore.Lipo>
54.7651

> <Gold.Chemscore.Internal_Hbond>
0.0000

> <Gold.Chemscore.DEClash>
0.0089

> <Gold.Chemscore.DEInternal>
0.9463

> <Gold.Chemscore.Rot>
3.6111

> <Gold.Chemscore.Internal.Correction>
   9.000000E+99

> <Gold.Chemscore.Hbonds>
donor molecule, donor type, donor heavy atom, donor atom, acceptor molecule, acceptor atom, score
      P1  H  7989  7998       L1    17  0.24
      P1  H  7997  8010       L1     7  0.98
      P1  H 10752 10764       L1    11  0.93

> <Gold.Chemscore.Hbond.Weighted>
-9.7367

> <Gold.Chemscore.Metal.Weighted>
-0.0000

> <Gold.Chemscore.Lipo.Weighted>
-6.4075

> <Gold.Chemscore.Internal_Hbond.Weighted>
0.0000

> <Gold.Chemscore.DEClash.Weighted>
0.0089

> <Gold.Chemscore.DEInternal.Weighted>
0.9463

> <Gold.Chemscore.Rot.Weighted>
9.2444

> <Gold.Chemscore.Internal.Correction.Weighted>
   9.000000E+99

> <Gold.Protein.RotatedTorsions>
[ 6907 6896 6895 6894 ] final -146.85 input  -60.11 | X-H torsion
[ 7974 7965 7964 7962 ] final   78.49 input  175.53 | X-H torsion
[ 8008 7997 7996 7995 ] final   66.32 input   59.86 | X-H torsion
[ 10167 10162 10161 10158 ] final    2.28 input  -65.29 | X-H torsion
[ 10718 10713 10712 10709 ] final  -62.22 input   66.30 | X-H torsion
[ 10763 10752 10751 10750 ] final  -38.31 input  -60.55 | X-H torsion
[ 11005 11000 10999 10996 ] final -139.22 input  -57.11 | X-H torsion

> <Gold.Protein.ActiveResidues>
 VAL166  LYS551  ARG553  GLY616  TRP617  ASP618  TYR619  PRO620  LYS621  CYS622 
 ASP623  PHE694  ASN695  SER759  ASP760  ASP761  ALA762  ILE779  LEU786  VAL792 
 PHE793  MET794  SER795  GLU796  ALA797  LYS798  CYS799  TRP800  GLU811  SER814 

> <Gold.Protein.RotatedAtoms>
  151.1474  133.4930  159.2595 H   0  0  0  0  0  0  0  0  0  0  0  0  # atno 6907 bound_to 6896
  151.1590  135.0264  159.8712 H   0  0  0  0  0  0  0  0  0  0  0  0  # atno 6908 bound_to 6896
  152.5463  134.1350  159.8508 H   0  0  0  0  0  0  0  0  0  0  0  0  # atno 6909 bound_to 6896
  145.6764  139.2511  143.1839 H   0  0  0  0  0  0  0  0  0  0  0  0  # atno 7974 bound_to 7965
  155.6755  140.3497  155.4835 H   0  0  0  0  0  0  0  0  0  0  0  0  # atno 8008 bound_to 7997
  155.9651  140.1145  157.0884 H   0  0  0  0  0  0  0  0  0  0  0  0  # atno 8009 bound_to 7997
  154.4152  140.1168  156.5218 H   0  0  0  0  0  0  0  0  0  0  0  0  # atno 8010 bound_to 7997
  140.6642  143.7222  150.7796 H   0  0  0  0  0  0  0  0  0  0  0  0  # atno 10167 bound_to 10162
  156.0869  130.4206  150.1105 H   0  0  0  0  0  0  0  0  0  0  0  0  # atno 10718 bound_to 10713
  153.9108  135.6792  153.4751 H   0  0  0  0  0  0  0  0  0  0  0  0  # atno 10763 bound_to 10752
  153.1079  135.4797  154.8982 H   0  0  0  0  0  0  0  0  0  0  0  0  # atno 10764 bound_to 10752
  154.7528  135.3189  154.8481 H   0  0  0  0  0  0  0  0  0  0  0  0  # atno 10765 bound_to 10752
  140.8541  134.2250  157.4744 H   0  0  0  0  0  0  0  0  0  0  0  0  # atno 11005 bound_to 11000
  146.1001  140.7554  142.9553 LP  0  0  0  0  0  0  0  0  0  0  0  0  # atno 17320 bound_to 7965
  144.7040  140.3774  143.7133 LP  0  0  0  0  0  0  0  0  0  0  0  0  # atno 17321 bound_to 7965
  140.0897  143.4890  152.2485 LP  0  0  0  0  0  0  0  0  0  0  0  0  # atno 17342 bound_to 10162
  139.5886  144.7541  151.3458 LP  0  0  0  0  0  0  0  0  0  0  0  0  # atno 17343 bound_to 10162
  156.9123  130.9656  151.3561 LP  0  0  0  0  0  0  0  0  0  0  0  0  # atno 17370 bound_to 10713
  157.6007  130.8510  149.8797 LP  0  0  0  0  0  0  0  0  0  0  0  0  # atno 17371 bound_to 10713
  139.8705  134.9697  156.4677 LP  0  0  0  0  0  0  0  0  0  0  0  0  # atno 17394 bound_to 11000
  140.8757  133.7955  155.9412 LP  0  0  0  0  0  0  0  0  0  0  0  0  # atno 17395 bound_to 11000

$$$$
