AV-unprocessed.smi:3201|AV-procd|sdf|12239|dock8
  -GOLD-   2272018 73D 1   1.00000     0.00000
 Structure written by MMmdl.
 41 43  0  0  0  0  0  0  0  0  2 V2000
  153.0013  141.5111  159.5379 C   0  0  0  0  0  0  0  0  0  0  0  0
  152.4221  142.8665  159.7863 C   0  0  0  0  0  0  0  0  0  0  0  0
  151.8066  143.7459  158.9362 C   0  0  0  0  0  0  0  0  0  0  0  0
  151.5254  143.6030  157.4655 C   0  0  0  0  0  0  0  0  0  0  0  0
  150.7511  142.3133  157.1640 C   0  0  0  0  0  0  0  0  0  0  0  0
  150.0462  142.4090  155.8696 N   0  3  0  0  0  0  0  0  0  0  0  0
  149.0659  141.3301  155.6153 C   0  0  2  0  0  0  0  0  0  0  0  0
  149.2169  140.7572  154.1883 C   0  0  0  0  0  0  0  0  0  0  0  0
  147.8122  140.9474  153.5873 C   0  0  1  0  0  0  0  0  0  0  0  0
  146.8213  139.9914  154.2765 C   0  0  0  0  0  0  0  0  0  0  0  0
  146.6587  140.6210  155.6729 C   0  0  0  0  0  0  0  0  0  0  0  0
  147.6035  141.8362  155.6112 C   0  0  2  0  0  0  0  0  0  0  0  0
  147.4090  142.2960  154.1693 C   0  0  0  0  0  0  0  0  0  0  0  0
  151.4858  144.8532  159.7713 C   0  0  0  0  0  0  0  0  0  0  0  0
  151.8678  144.6791  161.0236 N   0  0  0  0  0  0  0  0  0  0  0  0
  152.4409  143.4581  161.0356 N   0  0  0  0  0  0  0  0  0  0  0  0
  152.9809  142.9376  162.2767 C   0  0  0  0  0  0  0  0  0  0  0  0
  152.9883  141.2635  158.4768 H   0  0  0  0  0  0  0  0  0  0  0  0
  152.4337  140.7456  160.0672 H   0  0  0  0  0  0  0  0  0  0  0  0
  154.0357  141.4620  159.8787 H   0  0  0  0  0  0  0  0  0  0  0  0
  150.9580  144.4602  157.1010 H   0  0  0  0  0  0  0  0  0  0  0  0
  152.4573  143.6040  156.8986 H   0  0  0  0  0  0  0  0  0  0  0  0
  151.4372  141.4656  157.1366 H   0  0  0  0  0  0  0  0  0  0  0  0
  150.0329  142.1192  157.9606 H   0  0  0  0  0  0  0  0  0  0  0  0
  149.5712  143.2985  155.8137 H   0  0  0  0  0  0  0  0  0  0  0  0
  149.2102  140.5417  156.3560 H   0  0  0  0  0  0  0  0  0  0  0  0
  149.9546  141.3128  153.6070 H   0  0  0  0  0  0  0  0  0  0  0  0
  149.5238  139.7105  154.1935 H   0  0  0  0  0  0  0  0  0  0  0  0
  147.7909  140.8899  152.4986 H   0  0  0  0  0  0  0  0  0  0  0  0
  145.8658  139.9745  153.7506 H   0  0  0  0  0  0  0  0  0  0  0  0
  147.1966  138.9684  154.3215 H   0  0  0  0  0  0  0  0  0  0  0  0
  145.6275  140.9402  155.8295 H   0  0  0  0  0  0  0  0  0  0  0  0
  146.9182  139.9301  156.4759 H   0  0  0  0  0  0  0  0  0  0  0  0
  147.3774  142.5887  156.3667 H   0  0  0  0  0  0  0  0  0  0  0  0
  148.0739  143.1108  153.8777 H   0  0  0  0  0  0  0  0  0  0  0  0
  146.3792  142.5757  153.9389 H   0  0  0  0  0  0  0  0  0  0  0  0
  150.9902  145.7748  159.5040 H   0  0  0  0  0  0  0  0  0  0  0  0
  152.5647  141.9493  162.4732 H   0  0  0  0  0  0  0  0  0  0  0  0
  152.7328  143.5951  163.1113 H   0  0  0  0  0  0  0  0  0  0  0  0
  154.0654  142.8589  162.1992 H   0  0  0  0  0  0  0  0  0  0  0  0
  150.7445  142.3716  155.1408 H   0  0  0  0  0  0  0  0  0  0  0  0
  1  2  1  0  0  0  0
  1 18  1  0  0  0  0
  1 19  1  0  0  0  0
  1 20  1  0  0  0  0
  2 16  1  0  0  0  0
  2  3  2  0  0  0  0
  3  4  1  0  0  0  0
  3 14  1  0  0  0  0
  4  5  1  0  0  0  0
  4 21  1  0  0  0  0
  4 22  1  0  0  0  0
  5  6  1  0  0  0  0
  5 23  1  0  0  0  0
  5 24  1  0  0  0  0
  6  7  1  0  0  0  0
  6 25  1  0  0  0  0
  6 41  1  0  0  0  0
  7 12  1  0  0  0  0
  7  8  1  0  0  0  0
  7 26  1  0  0  0  0
  8  9  1  0  0  0  0
  8 27  1  0  0  0  0
  8 28  1  0  0  0  0
  9 13  1  0  0  0  0
  9 10  1  0  0  0  0
  9 29  1  0  0  0  0
 10 11  1  0  0  0  0
 10 30  1  0  0  0  0
 10 31  1  0  0  0  0
 11 12  1  0  0  0  0
 11 32  1  0  0  0  0
 11 33  1  0  0  0  0
 12 13  1  0  0  0  0
 12 34  1  0  0  0  0
 13 35  1  0  0  0  0
 13 36  1  0  0  0  0
 14 15  2  0  0  0  0
 14 37  1  0  0  0  0
 15 16  1  0  0  0  0
 16 17  1  0  0  0  0
 17 38  1  0  0  0  0
 17 39  1  0  0  0  0
 17 40  1  0  0  0  0
M  CHG  1   6   1
M  END
> <s_m_source_file>
AV-unprocessed.smi

> <i_m_source_file_index>
3201

> <i_lp_mmshare_version>
43012

> <i_f3d_flags>
0

> <s_epik_input>
W0NIM11uMW5bY0hdYyhjMVtDSDNdKVtDSDJdW0NIMl1bTkhdW0NASF0oW0NIMl1bQ0BIXTIzKVtDQEhdKFtDSDJdMylbQ0gyXVtDSDJdMg==

> <s_epik_cmdline>
J2VwaWtfcHl0aG9uJywgJy1waCcsICc3LjAnLCAnLXRuJywgJzgnLCAnLW1hJywgJzIwMCcsICctbWV0YWxfYmluZGluZycsICctaW1hZScsICc8aW5maWxlLm1hZT4nLCAnLW9tYWUnLCAnPG91dGZpbGUubWFlPic=

> <r_lp_tautomer_probability>
1

> <r_epik_Ionization_Penalty>
0.000331174

> <r_epik_Ionization_Penalty_Charging>
0.000242709

> <r_epik_Ionization_Penalty_Neutral>
8.84659e-05

> <r_epik_State_Penalty>
-0

> <r_epik_Charging_Adjusted_Penalty>
0.000242709

> <i_epik_Tot_Q>
1

> <i_epik_Tot_abs_Q>
1

> <r_epik_Metal_State_Penalty>
-0

> <b_epik_Metal_Only>
0

> <s_lp_Force_Field>
OPLS_2005

> <r_lp_Energy>
49.8246

> <b_lp_Chiralities_Consistent>
1

> <s_lp_Variant>
AV-unprocessed.smi:3201-3

> <Gold.Version>
5.8.1

> <Gold.Id.Protein>
6NUR|6NUR_protein|mol2

> <Gold.PLP.Fitness>
47.0717

> <Gold.PLP.PLP>
-42.7604

> <Gold.PLP.part.hbond>
-1.0000

> <Gold.PLP.part.metal>
0.0000

> <Gold.PLP.part.buried>
-2.2224

> <Gold.PLP.part.nonpolar>
-38.8225

> <Gold.PLP.part.repulsive>
0.3296

> <Gold.PLP.ligand.clash>
0.0000

> <Gold.PLP.ligand.torsion>
0.8551

> <Gold.PLP.Chemscore.Hbond>
2.0000

> <Gold.PLP.Chemscore.CHOScore>
0.0000

> <Gold.PLP.Chemscore.Metal>
0.0000

> <Gold.Chemscore.Hbonds>
donor molecule, donor type, donor heavy atom, donor atom, acceptor molecule, acceptor atom, score
      L1  H     6    25       P1  8028  2.00

> <Gold.PLP.Chemscore.Internal.Correction>
0.0215

> <Gold.Rescore>
     Score         DG    S(hbond)    S(metal)    S(lipo)     H(rot)  DE(clash)    DE(int)     intcor
     17.91     -18.95       1.00        0.00     116.35       1.36       0.22       0.82       ----

> <Gold.Chemscore.Fitness>
17.9144

> <Gold.Chemscore.DG>
-18.9548

> <Gold.Chemscore.ZeroCoef>
-5.4800

> <Gold.Chemscore.Hbond>
1.0000

> <Gold.Chemscore.Metal>
0.0000

> <Gold.Chemscore.Lipo>
116.3541

> <Gold.Chemscore.Internal_Hbond>
0.0000

> <Gold.Chemscore.DEClash>
0.2242

> <Gold.Chemscore.DEInternal>
0.8163

> <Gold.Chemscore.Rot>
1.3588

> <Gold.Chemscore.Internal.Correction>
   9.000000E+99

> <Gold.Chemscore.Hbonds>
donor molecule, donor type, donor heavy atom, donor atom, acceptor molecule, acceptor atom, score
      L1  H     6    25       P1  8028  0.98

> <Gold.Chemscore.Hbond.Weighted>
-3.3400

> <Gold.Chemscore.Metal.Weighted>
-0.0000

> <Gold.Chemscore.Lipo.Weighted>
-13.6134

> <Gold.Chemscore.Internal_Hbond.Weighted>
0.0000

> <Gold.Chemscore.DEClash.Weighted>
0.2242

> <Gold.Chemscore.DEInternal.Weighted>
0.8163

> <Gold.Chemscore.Rot.Weighted>
3.4786

> <Gold.Chemscore.Internal.Correction.Weighted>
   9.000000E+99

> <Gold.Protein.RotatedTorsions>
[ 6907 6896 6895 6894 ] final  -87.22 input  -60.11 | X-H torsion
[ 7974 7965 7964 7962 ] final   14.34 input  175.53 | X-H torsion
[ 8008 7997 7996 7995 ] final -165.82 input   59.86 | X-H torsion
[ 10167 10162 10161 10158 ] final   49.67 input  -65.29 | X-H torsion
[ 10718 10713 10712 10709 ] final  -91.67 input   66.30 | X-H torsion
[ 10763 10752 10751 10750 ] final   14.60 input  -60.55 | X-H torsion
[ 11005 11000 10999 10996 ] final -104.29 input  -57.11 | X-H torsion

> <Gold.Protein.ActiveResidues>
 VAL166  LYS551  ARG553  GLY616  TRP617  ASP618  TYR619  PRO620  LYS621  CYS622 
 ASP623  PHE694  ASN695  SER759  ASP760  ASP761  ALA762  ILE779  LEU786  VAL792 
 PHE793  MET794  SER795  GLU796  ALA797  LYS798  CYS799  TRP800  GLU811  SER814 

> <Gold.Protein.RotatedAtoms>
  150.6866  134.2930  159.4674 H   0  0  0  0  0  0  0  0  0  0  0  0  # atno 6907 bound_to 6896
  152.0833  134.9454  160.0582 H   0  0  0  0  0  0  0  0  0  0  0  0  # atno 6908 bound_to 6896
  152.0798  133.4112  159.4533 H   0  0  0  0  0  0  0  0  0  0  0  0  # atno 6909 bound_to 6896
  146.2307  139.9056  142.8532 H   0  0  0  0  0  0  0  0  0  0  0  0  # atno 7974 bound_to 7965
  155.8551  140.0969  157.1649 H   0  0  0  0  0  0  0  0  0  0  0  0  # atno 8008 bound_to 7997
  154.3987  140.1375  156.3954 H   0  0  0  0  0  0  0  0  0  0  0  0  # atno 8009 bound_to 7997
  155.7918  140.3455  155.5356 H   0  0  0  0  0  0  0  0  0  0  0  0  # atno 8010 bound_to 7997
  140.2804  144.3162  150.6266 H   0  0  0  0  0  0  0  0  0  0  0  0  # atno 10167 bound_to 10162
  155.9995  130.4957  150.5510 H   0  0  0  0  0  0  0  0  0  0  0  0  # atno 10718 bound_to 10713
  153.1606  135.6795  153.8748 H   0  0  0  0  0  0  0  0  0  0  0  0  # atno 10763 bound_to 10752
  153.8144  135.3138  155.3405 H   0  0  0  0  0  0  0  0  0  0  0  0  # atno 10764 bound_to 10752
  154.7930  135.4824  154.0184 H   0  0  0  0  0  0  0  0  0  0  0  0  # atno 10765 bound_to 10752
  141.1107  133.8711  157.1592 H   0  0  0  0  0  0  0  0  0  0  0  0  # atno 11005 bound_to 11000
  145.2280  140.9962  143.4007 LP  0  0  0  0  0  0  0  0  0  0  0  0  # atno 17320 bound_to 7965
  144.9554  139.4037  143.6382 LP  0  0  0  0  0  0  0  0  0  0  0  0  # atno 17321 bound_to 7965
  140.5816  143.2172  151.7418 LP  0  0  0  0  0  0  0  0  0  0  0  0  # atno 17342 bound_to 10162
  139.4964  144.4072  152.0119 LP  0  0  0  0  0  0  0  0  0  0  0  0  # atno 17343 bound_to 10162
  157.3433  131.0720  151.1771 LP  0  0  0  0  0  0  0  0  0  0  0  0  # atno 17370 bound_to 10713
  157.2612  130.6660  149.5975 LP  0  0  0  0  0  0  0  0  0  0  0  0  # atno 17371 bound_to 10713
  140.0000  135.0031  157.0168 LP  0  0  0  0  0  0  0  0  0  0  0  0  # atno 17394 bound_to 11000
  140.4782  134.1316  155.7213 LP  0  0  0  0  0  0  0  0  0  0  0  0  # atno 17395 bound_to 11000

$$$$
