AV-unprocessed.smi:121|AV-procd|sdf|1139|dock1
  -GOLD-   2262018273D 1   1.00000     0.00000
 Structure written by MMmdl.
 37 39  0  0  0  0  0  0  0  0  1 V2000
  147.7412  137.2082  160.5222 N   0  0  0  0  0  0  0  0  0  0  0  0
  148.5171  137.1106  159.6694 C   0  0  0  0  0  0  0  0  0  0  0  0
  149.4913  136.9876  158.5980 C   0  0  0  0  0  0  0  0  0  0  0  0
  149.3742  135.9497  157.6518 C   0  0  0  0  0  0  0  0  0  0  0  0
  150.3234  135.8305  156.6191 C   0  0  0  0  0  0  0  0  0  0  0  0
  151.3880  136.7478  156.5301 C   0  0  0  0  0  0  0  0  0  0  0  0
  151.5109  137.7943  157.4678 C   0  0  0  0  0  0  0  0  0  0  0  0
  152.6831  138.7633  157.3387 C   0  0  0  0  0  0  0  0  0  0  0  0
  152.7225  139.8541  158.3008 N   0  0  0  0  0  0  0  0  0  0  0  0
  153.4696  139.6475  159.4859 C   0  0  0  0  0  0  0  0  0  0  0  0
  154.0555  138.5874  159.7131 O   0  0  0  0  0  0  0  0  0  0  0  0
  153.4930  140.7891  160.3933 C   0  0  0  0  0  0  0  0  0  0  0  0
  154.1544  140.6966  161.5593 F   0  0  0  0  0  0  0  0  0  0  0  0
  152.8623  141.9421  160.0818 C   0  0  0  0  0  0  0  0  0  0  0  0
  152.1622  142.1256  158.8998 N   0  0  0  0  0  0  0  0  0  0  0  0
  151.4803  143.4353  158.5624 C   0  0  2  0  0  0  0  0  0  0  0  0
  152.5118  144.5775  158.4777 C   0  0  0  0  0  0  0  0  0  0  0  0
  151.9277  145.6285  159.4007 C   0  0  0  0  0  0  0  0  0  0  0  0
  151.1567  144.7791  160.3996 C   0  0  0  0  0  0  0  0  0  0  0  0
  150.5767  143.7768  159.5749 O   0  0  0  0  0  0  0  0  0  0  0  0
  152.0660  141.0645  157.9732 C   0  0  0  0  0  0  0  0  0  0  0  0
  151.4484  141.2080  156.9152 O   0  0  0  0  0  0  0  0  0  0  0  0
  150.5565  137.9062  158.5059 C   0  0  0  0  0  0  0  0  0  0  0  0
  148.5605  135.2412  157.7136 H   0  0  0  0  0  0  0  0  0  0  0  0
  150.2354  135.0344  155.8947 H   0  0  0  0  0  0  0  0  0  0  0  0
  152.1120  136.6470  155.7347 H   0  0  0  0  0  0  0  0  0  0  0  0
  153.6240  138.2157  157.3992 H   0  0  0  0  0  0  0  0  0  0  0  0
  152.6977  139.2168  156.3457 H   0  0  0  0  0  0  0  0  0  0  0  0
  152.9204  142.7443  160.8009 H   0  0  0  0  0  0  0  0  0  0  0  0
  150.9360  143.2529  157.6337 H   0  0  0  0  0  0  0  0  0  0  0  0
  153.4813  144.2417  158.8498 H   0  0  0  0  0  0  0  0  0  0  0  0
  152.6278  144.9249  157.4507 H   0  0  0  0  0  0  0  0  0  0  0  0
  152.6866  146.2557  159.8693 H   0  0  0  0  0  0  0  0  0  0  0  0
  151.2413  146.2726  158.8496 H   0  0  0  0  0  0  0  0  0  0  0  0
  151.8325  144.3264  161.1268 H   0  0  0  0  0  0  0  0  0  0  0  0
  150.3974  145.3448  160.9396 H   0  0  0  0  0  0  0  0  0  0  0  0
  150.6353  138.6947  159.2397 H   0  0  0  0  0  0  0  0  0  0  0  0
  1  2  3  0  0  0  0
  2  3  1  0  0  0  0
  3 23  1  0  0  0  0
  3  4  2  0  0  0  0
  4  5  1  0  0  0  0
  4 24  1  0  0  0  0
  5  6  2  0  0  0  0
  5 25  1  0  0  0  0
  6  7  1  0  0  0  0
  6 26  1  0  0  0  0
  7  8  1  0  0  0  0
  7 23  2  0  0  0  0
  8  9  1  0  0  0  0
  8 27  1  0  0  0  0
  8 28  1  0  0  0  0
  9 21  1  0  0  0  0
  9 10  1  0  0  0  0
 10 11  2  0  0  0  0
 10 12  1  0  0  0  0
 12 13  1  0  0  0  0
 12 14  2  0  0  0  0
 14 15  1  0  0  0  0
 14 29  1  0  0  0  0
 15 16  1  0  0  0  0
 15 21  1  0  0  0  0
 16 20  1  0  0  0  0
 16 17  1  0  0  0  0
 16 30  1  0  0  0  0
 17 18  1  0  0  0  0
 17 31  1  0  0  0  0
 17 32  1  0  0  0  0
 18 19  1  0  0  0  0
 18 33  1  0  0  0  0
 18 34  1  0  0  0  0
 19 20  1  0  0  0  0
 19 35  1  0  0  0  0
 19 36  1  0  0  0  0
 21 22  2  0  0  0  0
 23 37  1  0  0  0  0
M  END
> <s_m_source_file>
AV-unprocessed.smi

> <i_m_source_file_index>
121

> <i_lp_mmshare_version>
43012

> <i_f3d_flags>
0

> <s_epik_input>
TiNDYzFbY0hdW2NIXVtjSF1jKFtjSF0xKVtDSDJdbjJjKD1PKWMoRilbY0hdbihjMj1PKVtDQEBIXTNbQ0gyXVtDSDJdW0NIMl1PMw==

> <s_epik_cmdline>
J2VwaWtfcHl0aG9uJywgJy1waCcsICc3LjAnLCAnLXRuJywgJzgnLCAnLW1hJywgJzIwMCcsICctbWV0YWxfYmluZGluZycsICctaW1hZScsICc8aW5maWxlLm1hZT4nLCAnLW9tYWUnLCAnPG91dGZpbGUubWFlPic=

> <r_lp_tautomer_probability>
1

> <r_epik_Ionization_Penalty>
1.69864e-08

> <r_epik_Ionization_Penalty_Charging>
1.69802e-08

> <r_epik_Ionization_Penalty_Neutral>
6.20402e-12

> <r_epik_State_Penalty>
-0

> <r_epik_Charging_Adjusted_Penalty>
1.69802e-08

> <i_epik_Tot_Q>
0

> <i_epik_Tot_abs_Q>
0

> <r_epik_Metal_State_Penalty>
-0

> <b_epik_Metal_Only>
0

> <s_epik_Chemistry_Notes>
This compound contains an acetal/aminal-like group ( X-CH(R)-Y where X, Y are N, S, or O) that may be acid/base labile, releasing an aldehyde.

> <s_lp_Force_Field>
OPLS_2005

> <r_lp_Energy>
32.9852

> <b_lp_Chiralities_Consistent>
1

> <s_lp_Variant>
AV-unprocessed.smi:121-1

> <Gold.Version>
5.8.1

> <Gold.Id.Protein>
6NUR|6NUR_protein|mol2

> <Gold.PLP.Fitness>
46.7686

> <Gold.PLP.PLP>
-42.8327

> <Gold.PLP.part.hbond>
-2.0000

> <Gold.PLP.part.metal>
0.0000

> <Gold.PLP.part.buried>
-3.2119

> <Gold.PLP.part.nonpolar>
-37.0630

> <Gold.PLP.part.repulsive>
0.1173

> <Gold.PLP.ligand.clash>
0.0000

> <Gold.PLP.ligand.torsion>
0.3916

> <Gold.PLP.Chemscore.Hbond>
1.5688

> <Gold.PLP.Chemscore.CHOScore>
0.0000

> <Gold.PLP.Chemscore.Metal>
0.0000

> <Gold.Chemscore.Hbonds>
donor molecule, donor type, donor heavy atom, donor atom, acceptor molecule, acceptor atom, score
      P1  H  6931  6943       L1     1  0.41
      P1  H  6934  6947       L1     1  0.90

> <Gold.PLP.Chemscore.Internal.Correction>
0.0126

> <Gold.Rescore>
     Score         DG    S(hbond)    S(metal)    S(lipo)     H(rot)  DE(clash)    DE(int)     intcor
     13.86     -14.28       0.95        0.00      82.86       1.59       0.04       0.38       ----

> <Gold.Chemscore.Fitness>
13.8599

> <Gold.Chemscore.DG>
-14.2807

> <Gold.Chemscore.ZeroCoef>
-5.4800

> <Gold.Chemscore.Hbond>
0.9497

> <Gold.Chemscore.Metal>
0.0000

> <Gold.Chemscore.Lipo>
82.8584

> <Gold.Chemscore.Internal_Hbond>
0.0000

> <Gold.Chemscore.DEClash>
0.0419

> <Gold.Chemscore.DEInternal>
0.3790

> <Gold.Chemscore.Rot>
1.5882

> <Gold.Chemscore.Internal.Correction>
   9.000000E+99

> <Gold.Chemscore.Hbonds>
donor molecule, donor type, donor heavy atom, donor atom, acceptor molecule, acceptor atom, score
      P1  H  6931  6943       L1     1  0.06
      P1  H  6934  6947       L1     1  0.79

> <Gold.Chemscore.Hbond.Weighted>
-3.1720

> <Gold.Chemscore.Metal.Weighted>
-0.0000

> <Gold.Chemscore.Lipo.Weighted>
-9.6944

> <Gold.Chemscore.Internal_Hbond.Weighted>
0.0000

> <Gold.Chemscore.DEClash.Weighted>
0.0419

> <Gold.Chemscore.DEInternal.Weighted>
0.3790

> <Gold.Chemscore.Rot.Weighted>
4.0657

> <Gold.Chemscore.Internal.Correction.Weighted>
   9.000000E+99

> <Gold.Protein.RotatedTorsions>
[ 6907 6896 6895 6894 ] final  121.71 input  -60.11 | X-H torsion
[ 7974 7965 7964 7962 ] final -119.89 input  175.53 | X-H torsion
[ 8008 7997 7996 7995 ] final  105.04 input   59.86 | X-H torsion
[ 10167 10162 10161 10158 ] final  114.25 input  -65.29 | X-H torsion
[ 10718 10713 10712 10709 ] final  127.49 input   66.30 | X-H torsion
[ 10763 10752 10751 10750 ] final   23.12 input  -60.55 | X-H torsion
[ 11005 11000 10999 10996 ] final   15.31 input  -57.11 | X-H torsion

> <Gold.Protein.ActiveResidues>
 VAL166  LYS551  ARG553  GLY616  TRP617  ASP618  TYR619  PRO620  LYS621  CYS622 
 ASP623  PHE694  ASN695  SER759  ASP760  ASP761  ALA762  ILE779  LEU786  VAL792 
 PHE793  MET794  SER795  GLU796  ALA797  LYS798  CYS799  TRP800  GLU811  SER814 

> <Gold.Protein.RotatedAtoms>
  152.4300  133.7262  159.6560 H   0  0  0  0  0  0  0  0  0  0  0  0  # atno 6907 bound_to 6896
  150.8179  133.8294  159.3158 H   0  0  0  0  0  0  0  0  0  0  0  0  # atno 6908 bound_to 6896
  151.5985  135.1051  160.0106 H   0  0  0  0  0  0  0  0  0  0  0  0  # atno 6909 bound_to 6896
  145.0575  140.8265  143.4172 H   0  0  0  0  0  0  0  0  0  0  0  0  # atno 7974 bound_to 7965
  156.1625  140.3137  155.8831 H   0  0  0  0  0  0  0  0  0  0  0  0  # atno 8008 bound_to 7997
  155.3754  140.0484  157.3062 H   0  0  0  0  0  0  0  0  0  0  0  0  # atno 8009 bound_to 7997
  154.5160  140.2181  155.9076 H   0  0  0  0  0  0  0  0  0  0  0  0  # atno 8010 bound_to 7997
  139.6402  144.7123  151.2252 H   0  0  0  0  0  0  0  0  0  0  0  0  # atno 10167 bound_to 10162
  157.5328  131.1098  150.8982 H   0  0  0  0  0  0  0  0  0  0  0  0  # atno 10718 bound_to 10713
  153.0863  135.6634  153.9943 H   0  0  0  0  0  0  0  0  0  0  0  0  # atno 10763 bound_to 10752
  153.9552  135.2980  155.3438 H   0  0  0  0  0  0  0  0  0  0  0  0  # atno 10764 bound_to 10752
  154.7271  135.5139  153.8976 H   0  0  0  0  0  0  0  0  0  0  0  0  # atno 10765 bound_to 10752
  140.4598  134.1139  155.7715 H   0  0  0  0  0  0  0  0  0  0  0  0  # atno 11005 bound_to 11000
  145.1450  139.2549  143.5470 LP  0  0  0  0  0  0  0  0  0  0  0  0  # atno 17320 bound_to 7965
  146.3522  140.1137  142.8603 LP  0  0  0  0  0  0  0  0  0  0  0  0  # atno 17321 bound_to 7965
  140.7487  143.6325  150.8410 LP  0  0  0  0  0  0  0  0  0  0  0  0  # atno 17342 bound_to 10162
  139.9961  143.5794  152.2892 LP  0  0  0  0  0  0  0  0  0  0  0  0  # atno 17343 bound_to 10162
  156.9559  130.5437  149.5284 LP  0  0  0  0  0  0  0  0  0  0  0  0  # atno 17370 bound_to 10713
  156.0435  130.5515  150.8827 LP  0  0  0  0  0  0  0  0  0  0  0  0  # atno 17371 bound_to 10713
  141.1626  133.8763  157.1804 LP  0  0  0  0  0  0  0  0  0  0  0  0  # atno 17394 bound_to 11000
  139.9953  135.0049  157.0068 LP  0  0  0  0  0  0  0  0  0  0  0  0  # atno 17395 bound_to 11000

$$$$
