AV-unprocessed.smi:157|AV-procd|sdf|1317|dock3
  -GOLD-   2262019 13D 1   1.00000     0.00000
 Structure written by MMmdl.
 36 38  0  0  0  0  0  0  0  0  2 V2000
  152.8455  135.5064  157.7823 O   0  0  0  0  0  0  0  0  0  0  0  0
  153.3985  136.7267  157.3375 C   0  0  0  0  0  0  0  0  0  0  0  0
  152.2862  137.7668  157.1168 C   0  0  1  0  0  0  0  0  0  0  0  0
  152.8320  139.0375  156.7728 O   0  0  0  0  0  0  0  0  0  0  0  0
  151.9488  139.7371  155.9452 C   0  0  2  0  0  0  0  0  0  0  0  0
  151.5460  141.0017  156.6328 N   0  0  0  0  0  0  0  0  0  0  0  0
  150.6752  141.9258  156.1737 C   0  0  0  0  0  0  0  0  0  0  0  0
  150.5057  142.9611  156.9788 N   0  3  0  0  0  0  0  0  0  0  0  0
  151.3163  142.7428  158.0723 C   0  0  0  0  0  0  0  0  0  0  0  0
  151.9640  141.5286  157.8329 C   0  0  0  0  0  0  0  0  0  0  0  0
  152.9104  140.8468  158.6127 N   0  0  0  0  0  0  0  0  0  0  0  0
  153.5632  141.4106  159.5765 C   0  0  0  0  0  0  0  0  0  0  0  0
  153.4305  142.6901  160.0906 N   0  0  0  0  0  0  0  0  0  0  0  0
  152.1444  143.2795  160.4195 C   0  0  0  0  0  0  0  0  0  0  0  0
  151.3418  143.7339  159.1930 C   0  0  1  0  0  0  0  0  0  0  0  0
  151.8140  144.9996  158.7825 O   0  0  0  0  0  0  0  0  0  0  0  0
  150.7212  138.8497  155.7159 C   0  0  0  0  0  0  0  0  0  0  0  0
  151.2684  137.4678  156.0069 C   0  0  1  0  0  0  0  0  0  0  0  0
  151.8735  136.9153  154.8531 O   0  0  0  0  0  0  0  0  0  0  0  0
  151.7419  137.9092  158.0523 H   0  0  0  0  0  0  0  0  0  0  0  0
  152.4528  140.0433  155.0279 H   0  0  0  0  0  0  0  0  0  0  0  0
  150.3111  143.8918  159.5125 H   0  0  0  0  0  0  0  0  0  0  0  0
  150.4876  136.7866  156.3468 H   0  0  0  0  0  0  0  0  0  0  0  0
  151.9653  135.4345  157.4451 H   0  0  0  0  0  0  0  0  0  0  0  0
  154.0947  137.0839  158.0966 H   0  0  0  0  0  0  0  0  0  0  0  0
  153.9786  136.5599  156.4297 H   0  0  0  0  0  0  0  0  0  0  0  0
  150.1644  141.8251  155.2328 H   0  0  0  0  0  0  0  0  0  0  0  0
  154.3336  140.8393  160.0966 H   0  0  0  0  0  0  0  0  0  0  0  0
  154.1605  143.0414  160.6943 H   0  0  0  0  0  0  0  0  0  0  0  0
  151.5689  142.5236  160.9561 H   0  0  0  0  0  0  0  0  0  0  0  0
  152.2844  144.1044  161.1192 H   0  0  0  0  0  0  0  0  0  0  0  0
  152.7017  145.1019  159.0907 H   0  0  0  0  0  0  0  0  0  0  0  0
  149.9430  139.1002  156.4391 H   0  0  0  0  0  0  0  0  0  0  0  0
  150.3198  138.9753  154.7095 H   0  0  0  0  0  0  0  0  0  0  0  0
  151.7404  137.5106  154.1309 H   0  0  0  0  0  0  0  0  0  0  0  0
  149.8986  143.7555  156.8206 H   0  0  0  0  0  0  0  0  0  0  0  0
  1  2  1  0  0  0  0
  1 24  1  0  0  0  0
  2  3  1  0  0  0  0
  2 25  1  0  0  0  0
  2 26  1  0  0  0  0
  3 20  1  0  0  0  0
  3 18  1  0  0  0  0
  3  4  1  0  0  0  0
  4  5  1  0  0  0  0
  5 21  1  0  0  0  0
  5  6  1  0  0  0  0
  5 17  1  0  0  0  0
  6 10  1  0  0  0  0
  6  7  1  0  0  0  0
  7  8  2  0  0  0  0
  7 27  1  0  0  0  0
  8  9  1  0  0  0  0
  8 36  1  0  0  0  0
  9 15  1  0  0  0  0
  9 10  2  0  0  0  0
 10 11  1  0  0  0  0
 11 12  2  0  0  0  0
 12 13  1  0  0  0  0
 12 28  1  0  0  0  0
 13 14  1  0  0  0  0
 13 29  1  0  0  0  0
 14 15  1  0  0  0  0
 14 30  1  0  0  0  0
 14 31  1  0  0  0  0
 15 22  1  0  0  0  0
 15 16  1  0  0  0  0
 16 32  1  0  0  0  0
 17 18  1  0  0  0  0
 17 33  1  0  0  0  0
 17 34  1  0  0  0  0
 18 23  1  0  0  0  0
 18 19  1  0  0  0  0
 19 35  1  0  0  0  0
M  CHG  1   8   1
M  END
> <s_m_source_file>
AV-unprocessed.smi

> <i_m_source_file_index>
157

> <i_lp_mmshare_version>
43012

> <i_f3d_flags>
0

> <s_epik_input>
W09IXVtDSDJdW0NASF0xT1tDQEhdKFtDSDJdW0NAQEhdMVtPSF0pbihbY0hdbjIpYyhjMjMpTj1bQ0hdW05IXVtDSDJdW0NASF0zW09IXQ==

> <s_epik_cmdline>
J2VwaWtfcHl0aG9uJywgJy1waCcsICc3LjAnLCAnLXRuJywgJzgnLCAnLW1hJywgJzIwMCcsICctbWV0YWxfYmluZGluZycsICctaW1hZScsICc8aW5maWxlLm1hZT4nLCAnLW9tYWUnLCAnPG91dGZpbGUubWFlPic=

> <r_epik_Ionization_Penalty>
1.68594

> <r_epik_Ionization_Penalty_Charging>
0

> <r_epik_Ionization_Penalty_Neutral>
1.68594

> <r_epik_State_Penalty>
1.79006

> <r_epik_Charging_Adjusted_Penalty>
1.79006

> <i_epik_Tot_Q>
1

> <i_epik_Tot_abs_Q>
1

> <r_epik_Metal_State_Penalty>
5.85324

> <b_epik_Metal_Only>
0

> <s_epik_Chemistry_Notes>
This compound has an imine and may undergo hydrolysis. This compound contains an acetal/aminal-like group ( X-CH(R)-Y where X, Y are N, S, or O) that may be acid/base labile, releasing an aldehyde.

> <s_lp_Force_Field>
OPLS_2005

> <r_lp_Energy>
54.1398

> <b_lp_Chiralities_Consistent>
1

> <s_lp_Variant>
AV-unprocessed.smi:157-27

> <Gold.Version>
5.8.1

> <Gold.Id.Protein>
6NUR|6NUR_protein|mol2

> <Gold.PLP.Fitness>
42.7975

> <Gold.PLP.PLP>
-30.7976

> <Gold.PLP.part.hbond>
-4.2424

> <Gold.PLP.part.metal>
0.0000

> <Gold.PLP.part.buried>
-7.2433

> <Gold.PLP.part.nonpolar>
-19.1859

> <Gold.PLP.part.repulsive>
0.0513

> <Gold.PLP.ligand.clash>
0.0000

> <Gold.PLP.ligand.torsion>
0.0213

> <Gold.PLP.Chemscore.Hbond>
4.0117

> <Gold.PLP.Chemscore.CHOScore>
0.0000

> <Gold.PLP.Chemscore.Metal>
0.0000

> <Gold.Chemscore.Hbonds>
donor molecule, donor type, donor heavy atom, donor atom, acceptor molecule, acceptor atom, score
      L1  H     8    36       P1  8028  1.98
      P1  H  7997  8009       L1     4  1.00
      P1  H 10752 10764       L1    19  1.00

> <Gold.PLP.Chemscore.Internal.Correction>
0.0074

> <Gold.Rescore>
     Score         DG    S(hbond)    S(metal)    S(lipo)     H(rot)  DE(clash)    DE(int)     intcor
      9.30     -11.24       2.75        0.00      50.90       3.67       0.24       1.69       ----

> <Gold.Chemscore.Fitness>
9.3048

> <Gold.Chemscore.DG>
-11.2370

> <Gold.Chemscore.ZeroCoef>
-5.4800

> <Gold.Chemscore.Hbond>
2.7505

> <Gold.Chemscore.Metal>
0.0000

> <Gold.Chemscore.Lipo>
50.8979

> <Gold.Chemscore.Internal_Hbond>
0.0000

> <Gold.Chemscore.DEClash>
0.2439

> <Gold.Chemscore.DEInternal>
1.6883

> <Gold.Chemscore.Rot>
3.6659

> <Gold.Chemscore.Internal.Correction>
   9.000000E+99

> <Gold.Chemscore.Hbonds>
donor molecule, donor type, donor heavy atom, donor atom, acceptor molecule, acceptor atom, score
      L1  H     8    36       P1  8028  0.93
      P1  H  7997  8009       L1     4  0.40
      P1  H 10752 10764       L1    19  0.83

> <Gold.Chemscore.Hbond.Weighted>
-9.1868

> <Gold.Chemscore.Metal.Weighted>
-0.0000

> <Gold.Chemscore.Lipo.Weighted>
-5.9551

> <Gold.Chemscore.Internal_Hbond.Weighted>
0.0000

> <Gold.Chemscore.DEClash.Weighted>
0.2439

> <Gold.Chemscore.DEInternal.Weighted>
1.6883

> <Gold.Chemscore.Rot.Weighted>
9.3848

> <Gold.Chemscore.Internal.Correction.Weighted>
   9.000000E+99

> <Gold.Protein.RotatedTorsions>
[ 6907 6896 6895 6894 ] final  -30.98 input  -60.11 | X-H torsion
[ 7974 7965 7964 7962 ] final  -30.29 input  175.53 | X-H torsion
[ 8008 7997 7996 7995 ] final  177.54 input   59.86 | X-H torsion
[ 10167 10162 10161 10158 ] final  123.99 input  -65.29 | X-H torsion
[ 10718 10713 10712 10709 ] final  139.47 input   66.30 | X-H torsion
[ 10763 10752 10751 10750 ] final  -66.92 input  -60.55 | X-H torsion
[ 11005 11000 10999 10996 ] final   11.57 input  -57.11 | X-H torsion

> <Gold.Protein.ActiveResidues>
 VAL166  LYS551  ARG553  GLY616  TRP617  ASP618  TYR619  PRO620  LYS621  CYS622 
 ASP623  PHE694  ASN695  SER759  ASP760  ASP761  ALA762  ILE779  LEU786  VAL792 
 PHE793  MET794  SER795  GLU796  ALA797  LYS798  CYS799  TRP800  GLU811  SER814 

> <Gold.Protein.RotatedAtoms>
  151.0983  134.9957  159.8435 H   0  0  0  0  0  0  0  0  0  0  0  0  # atno 6907 bound_to 6896
  152.5435  134.1981  159.8711 H   0  0  0  0  0  0  0  0  0  0  0  0  # atno 6908 bound_to 6896
  151.2023  133.4560  159.2630 H   0  0  0  0  0  0  0  0  0  0  0  0  # atno 6909 bound_to 6896
  146.1153  140.5522  142.8759 H   0  0  0  0  0  0  0  0  0  0  0  0  # atno 7974 bound_to 7965
  156.0645  140.1356  156.9902 H   0  0  0  0  0  0  0  0  0  0  0  0  # atno 8008 bound_to 7997
  154.4499  140.0984  156.6637 H   0  0  0  0  0  0  0  0  0  0  0  0  # atno 8009 bound_to 7997
  155.5325  140.3459  155.4431 H   0  0  0  0  0  0  0  0  0  0  0  0  # atno 8010 bound_to 7997
  139.5767  144.6967  151.3634 H   0  0  0  0  0  0  0  0  0  0  0  0  # atno 10167 bound_to 10162
  157.4140  131.1031  151.0424 H   0  0  0  0  0  0  0  0  0  0  0  0  # atno 10718 bound_to 10713
  154.3670  135.6103  153.5720 H   0  0  0  0  0  0  0  0  0  0  0  0  # atno 10763 bound_to 10752
  152.9791  135.5829  154.4567 H   0  0  0  0  0  0  0  0  0  0  0  0  # atno 10764 bound_to 10752
  154.4314  135.2848  155.1887 H   0  0  0  0  0  0  0  0  0  0  0  0  # atno 10765 bound_to 10752
  140.5017  134.0739  155.7795 H   0  0  0  0  0  0  0  0  0  0  0  0  # atno 11005 bound_to 11000
  144.7548  140.5280  143.6777 LP  0  0  0  0  0  0  0  0  0  0  0  0  # atno 17320 bound_to 7965
  145.5578  139.1478  143.3358 LP  0  0  0  0  0  0  0  0  0  0  0  0  # atno 17321 bound_to 7965
  140.7049  143.7538  150.7465 LP  0  0  0  0  0  0  0  0  0  0  0  0  # atno 17342 bound_to 10162
  140.1060  143.4744  152.2398 LP  0  0  0  0  0  0  0  0  0  0  0  0  # atno 17343 bound_to 10162
  157.1378  130.6130  149.5547 LP  0  0  0  0  0  0  0  0  0  0  0  0  # atno 17370 bound_to 10713
  155.9859  130.4892  150.7055 LP  0  0  0  0  0  0  0  0  0  0  0  0  # atno 17371 bound_to 10713
  141.1432  133.9102  157.2278 LP  0  0  0  0  0  0  0  0  0  0  0  0  # atno 17394 bound_to 11000
  139.9709  135.0128  156.9510 LP  0  0  0  0  0  0  0  0  0  0  0  0  # atno 17395 bound_to 11000

$$$$
