AV-unprocessed.smi:271|AV-procd|sdf|2050|dock3
  -GOLD-   2262021283D 1   1.00000     0.00000
 Structure written by MMmdl.
 58 60  0  0  0  0  0  0  0  0  1 V2000
  146.6964  133.2012  151.1871 C   0  0  0  0  0  0  0  0  0  0  0  0
  145.1727  133.3942  151.1438 C   0  0  0  0  0  0  0  0  0  0  0  0
  144.5104  132.2553  150.3499 C   0  0  0  0  0  0  0  0  0  0  0  0
  144.8148  134.7836  150.5806 C   0  0  0  0  0  0  0  0  0  0  0  0
  145.4260  135.9524  151.3820 C   0  0  0  0  0  0  0  0  0  0  0  0
  145.0912  135.9262  152.8059 N   0  0  0  0  0  0  0  0  0  0  0  0
  143.7158  136.3064  153.1205 C   0  0  0  0  0  0  0  0  0  0  0  0
  142.6739  135.2933  152.6196 C   0  0  0  0  0  0  0  0  0  0  0  0
  141.4379  135.3233  153.4150 C   0  0  0  0  0  0  0  0  0  0  0  0
  140.4652  135.3464  154.0408 N   0  0  0  0  0  0  0  0  0  0  0  0
  146.0003  136.5484  153.5907 C   0  0  0  0  0  0  0  0  0  0  0  0
  146.3765  135.9106  154.7263 N   0  0  0  0  0  0  0  0  0  0  0  0
  147.2765  136.4718  155.5389 C   0  0  0  0  0  0  0  0  0  0  0  0
  147.9106  137.6384  155.4032 N   0  0  0  0  0  0  0  0  0  0  0  0
  147.5348  138.2814  154.2602 C   0  0  0  0  0  0  0  0  0  0  0  0
  146.5875  137.8138  153.3071 C   0  0  0  0  0  0  0  0  0  0  0  0
  146.4506  138.7393  152.2806 N   0  0  0  0  0  0  0  0  0  0  0  0
  147.2725  139.6986  152.6071 C   0  0  0  0  0  0  0  0  0  0  0  0
  147.9795  139.4991  153.7724 N   0  0  0  0  0  0  0  0  0  0  0  0
  148.9610  140.3962  154.3668 C   0  0  0  0  0  0  0  0  0  0  0  0
  149.7096  139.8062  155.5943 C   0  0  1  0  0  0  0  0  0  0  0  0
  150.6663  138.6573  155.1965 C   0  0  0  0  0  0  0  0  0  0  0  0
  151.8627  139.1678  154.6466 O   0  0  0  0  0  0  0  0  0  0  0  0
  150.4454  140.8948  156.4198 C   0  0  2  0  0  0  0  0  0  0  0  0
  151.2053  140.3792  157.6311 C   0  0  0  0  0  0  0  0  0  0  0  0
  151.3792  141.6360  158.4797 C   0  0  0  0  0  0  0  0  0  0  0  0
  150.2815  142.4829  158.1571 O   0  0  0  0  0  0  0  0  0  0  0  0
  149.5186  141.9048  157.1049 C   0  0  0  0  0  0  0  0  0  0  0  0
  147.1305  133.2510  150.1880 H   0  0  0  0  0  0  0  0  0  0  0  0
  146.9592  132.2336  151.6161 H   0  0  0  0  0  0  0  0  0  0  0  0
  147.1743  133.9691  151.7961 H   0  0  0  0  0  0  0  0  0  0  0  0
  144.8107  133.3415  152.1716 H   0  0  0  0  0  0  0  0  0  0  0  0
  144.8080  132.2780  149.3011 H   0  0  0  0  0  0  0  0  0  0  0  0
  143.4231  132.3147  150.3897 H   0  0  0  0  0  0  0  0  0  0  0  0
  144.7925  131.2822  150.7533 H   0  0  0  0  0  0  0  0  0  0  0  0
  145.1697  134.8530  149.5514 H   0  0  0  0  0  0  0  0  0  0  0  0
  143.7290  134.8770  150.5335 H   0  0  0  0  0  0  0  0  0  0  0  0
  146.5096  135.9687  151.2684 H   0  0  0  0  0  0  0  0  0  0  0  0
  145.0625  136.8923  150.9648 H   0  0  0  0  0  0  0  0  0  0  0  0
  143.6095  136.4484  154.1968 H   0  0  0  0  0  0  0  0  0  0  0  0
  143.5130  137.2749  152.6621 H   0  0  0  0  0  0  0  0  0  0  0  0
  142.4076  135.5010  151.5830 H   0  0  0  0  0  0  0  0  0  0  0  0
  143.0608  134.2748  152.6601 H   0  0  0  0  0  0  0  0  0  0  0  0
  147.5261  135.9042  156.4233 H   0  0  0  0  0  0  0  0  0  0  0  0
  147.3880  140.5808  151.9955 H   0  0  0  0  0  0  0  0  0  0  0  0
  149.6680  140.6896  153.5909 H   0  0  0  0  0  0  0  0  0  0  0  0
  148.4502  141.3168  154.6509 H   0  0  0  0  0  0  0  0  0  0  0  0
  148.9489  139.3753  156.2473 H   0  0  0  0  0  0  0  0  0  0  0  0
  150.8968  138.0169  156.0480 H   0  0  0  0  0  0  0  0  0  0  0  0
  150.2185  138.0185  154.4363 H   0  0  0  0  0  0  0  0  0  0  0  0
  152.5444  138.5230  154.7573 H   0  0  0  0  0  0  0  0  0  0  0  0
  151.1500  141.4325  155.7840 H   0  0  0  0  0  0  0  0  0  0  0  0
  150.6057  139.6459  158.1725 H   0  0  0  0  0  0  0  0  0  0  0  0
  152.1609  139.9186  157.3796 H   0  0  0  0  0  0  0  0  0  0  0  0
  151.4085  141.4121  159.5462 H   0  0  0  0  0  0  0  0  0  0  0  0
  152.3032  142.1517  158.2160 H   0  0  0  0  0  0  0  0  0  0  0  0
  149.1474  142.6737  156.4283 H   0  0  0  0  0  0  0  0  0  0  0  0
  148.6561  141.4003  157.5431 H   0  0  0  0  0  0  0  0  0  0  0  0
  1  2  1  0  0  0  0
  1 29  1  0  0  0  0
  1 30  1  0  0  0  0
  1 31  1  0  0  0  0
  2  3  1  0  0  0  0
  2  4  1  0  0  0  0
  2 32  1  0  0  0  0
  3 33  1  0  0  0  0
  3 34  1  0  0  0  0
  3 35  1  0  0  0  0
  4  5  1  0  0  0  0
  4 36  1  0  0  0  0
  4 37  1  0  0  0  0
  5  6  1  0  0  0  0
  5 38  1  0  0  0  0
  5 39  1  0  0  0  0
  6  7  1  0  0  0  0
  6 11  1  0  0  0  0
  7  8  1  0  0  0  0
  7 40  1  0  0  0  0
  7 41  1  0  0  0  0
  8  9  1  0  0  0  0
  8 42  1  0  0  0  0
  8 43  1  0  0  0  0
  9 10  3  0  0  0  0
 11 16  1  0  0  0  0
 11 12  2  0  0  0  0
 12 13  1  0  0  0  0
 13 14  2  0  0  0  0
 13 44  1  0  0  0  0
 14 15  1  0  0  0  0
 15 19  1  0  0  0  0
 15 16  2  0  0  0  0
 16 17  1  0  0  0  0
 17 18  2  0  0  0  0
 18 19  1  0  0  0  0
 18 45  1  0  0  0  0
 19 20  1  0  0  0  0
 20 21  1  0  0  0  0
 20 46  1  0  0  0  0
 20 47  1  0  0  0  0
 21 22  1  0  0  0  0
 21 24  1  0  0  0  0
 21 48  1  0  0  0  0
 22 23  1  0  0  0  0
 22 49  1  0  0  0  0
 22 50  1  0  0  0  0
 23 51  1  0  0  0  0
 24 28  1  0  0  0  0
 24 25  1  0  0  0  0
 24 52  1  0  0  0  0
 25 26  1  0  0  0  0
 25 53  1  0  0  0  0
 25 54  1  0  0  0  0
 26 27  1  0  0  0  0
 26 55  1  0  0  0  0
 26 56  1  0  0  0  0
 27 28  1  0  0  0  0
 28 57  1  0  0  0  0
 28 58  1  0  0  0  0
M  END
> <s_m_source_file>
AV-unprocessed.smi

> <i_m_source_file_index>
271

> <i_lp_mmshare_version>
43012

> <i_f3d_flags>
0

> <s_epik_input>
W0NIM11bQ0hdKFtDSDNdKVtDSDJdW0NIMl1OKFtDSDJdW0NIMl1DI04pYyhuW2NIXW4xKWMoYzEyKW5bY0hdbjJbQ0gyXVtDQEhdKFtDSDJdW09IXSlbQ0BASF0zW0NIMl1bQ0gyXU9bQ0gyXTM=

> <s_epik_cmdline>
J2VwaWtfcHl0aG9uJywgJy1waCcsICc3LjAnLCAnLXRuJywgJzgnLCAnLW1hJywgJzIwMCcsICctbWV0YWxfYmluZGluZycsICctaW1hZScsICc8aW5maWxlLm1hZT4nLCAnLW9tYWUnLCAnPG91dGZpbGUubWFlPic=

> <r_lp_tautomer_probability>
1

> <r_epik_Ionization_Penalty>
0.000825874

> <r_epik_Ionization_Penalty_Charging>
0

> <r_epik_Ionization_Penalty_Neutral>
0.000825874

> <r_epik_State_Penalty>
0.000396768

> <r_epik_Charging_Adjusted_Penalty>
0.000396768

> <i_epik_Tot_Q>
0

> <i_epik_Tot_abs_Q>
0

> <r_epik_Metal_State_Penalty>
-0

> <b_epik_Metal_Only>
0

> <s_lp_Force_Field>
OPLS_2005

> <r_lp_Energy>
35.3128

> <b_lp_Chiralities_Consistent>
1

> <s_lp_Variant>
AV-unprocessed.smi:271-2

> <Gold.Version>
5.8.1

> <Gold.Id.Protein>
6NUR|6NUR_protein|mol2

> <Gold.PLP.Fitness>
46.5035

> <Gold.PLP.PLP>
-41.5790

> <Gold.PLP.part.hbond>
-2.9680

> <Gold.PLP.part.metal>
0.0000

> <Gold.PLP.part.buried>
-4.2068

> <Gold.PLP.part.nonpolar>
-35.4259

> <Gold.PLP.part.repulsive>
0.8238

> <Gold.PLP.ligand.clash>
0.0000

> <Gold.PLP.ligand.torsion>
1.3337

> <Gold.PLP.Chemscore.Hbond>
1.9920

> <Gold.PLP.Chemscore.CHOScore>
0.2479

> <Gold.PLP.Chemscore.Metal>
0.0000

> <Gold.Chemscore.Hbonds>
donor molecule, donor type, donor heavy atom, donor atom, acceptor molecule, acceptor atom, score
      P1  H  7989  7998       L1    23  0.95
      P1  H 11000 11005       L1    10  1.00
      L1  C    18    45       P1  7957  0.34

> <Gold.PLP.Chemscore.Internal.Correction>
0.8722

> <Gold.Rescore>
     Score         DG    S(hbond)    S(metal)    S(lipo)     H(rot)  DE(clash)    DE(int)     intcor
      8.16     -12.06       1.94        0.00      83.42       3.77       0.05       3.86       ----

> <Gold.Chemscore.Fitness>
8.1582

> <Gold.Chemscore.DG>
-12.0637

> <Gold.Chemscore.ZeroCoef>
-5.4800

> <Gold.Chemscore.Hbond>
1.9373

> <Gold.Chemscore.Metal>
0.0000

> <Gold.Chemscore.Lipo>
83.4190

> <Gold.Chemscore.Internal_Hbond>
0.0000

> <Gold.Chemscore.DEClash>
0.0483

> <Gold.Chemscore.DEInternal>
3.8572

> <Gold.Chemscore.Rot>
3.7683

> <Gold.Chemscore.Internal.Correction>
   9.000000E+99

> <Gold.Chemscore.Hbonds>
donor molecule, donor type, donor heavy atom, donor atom, acceptor molecule, acceptor atom, score
      P1  H  7989  7998       L1    23  0.78
      P1  H 11000 11005       L1    10  0.98

> <Gold.Chemscore.Hbond.Weighted>
-6.4704

> <Gold.Chemscore.Metal.Weighted>
-0.0000

> <Gold.Chemscore.Lipo.Weighted>
-9.7600

> <Gold.Chemscore.Internal_Hbond.Weighted>
0.0000

> <Gold.Chemscore.DEClash.Weighted>
0.0483

> <Gold.Chemscore.DEInternal.Weighted>
3.8572

> <Gold.Chemscore.Rot.Weighted>
9.6468

> <Gold.Chemscore.Internal.Correction.Weighted>
   9.000000E+99

> <Gold.Protein.RotatedTorsions>
[ 6907 6896 6895 6894 ] final   20.89 input  -60.11 | X-H torsion
[ 7974 7965 7964 7962 ] final -119.61 input  175.53 | X-H torsion
[ 8008 7997 7996 7995 ] final  -37.96 input   59.86 | X-H torsion
[ 10167 10162 10161 10158 ] final  -97.76 input  -65.29 | X-H torsion
[ 10718 10713 10712 10709 ] final -130.52 input   66.30 | X-H torsion
[ 10763 10752 10751 10750 ] final -100.19 input  -60.55 | X-H torsion
[ 11005 11000 10999 10996 ] final   45.15 input  -57.11 | X-H torsion

> <Gold.Protein.ActiveResidues>
 VAL166  LYS551  ARG553  GLY616  TRP617  ASP618  TYR619  PRO620  LYS621  CYS622 
 ASP623  PHE694  ASN695  SER759  ASP760  ASP761  ALA762  ILE779  LEU786  VAL792 
 PHE793  MET794  SER795  GLU796  ALA797  LYS798  CYS799  TRP800  GLU811  SER814 

> <Gold.Protein.RotatedAtoms>
  151.9033  135.0369  160.0508 H   0  0  0  0  0  0  0  0  0  0  0  0  # atno 6907 bound_to 6896
  152.2340  133.5076  159.5240 H   0  0  0  0  0  0  0  0  0  0  0  0  # atno 6908 bound_to 6896
  150.7033  134.1095  159.4037 H   0  0  0  0  0  0  0  0  0  0  0  0  # atno 6909 bound_to 6896
  145.0606  140.8287  143.4154 H   0  0  0  0  0  0  0  0  0  0  0  0  # atno 7974 bound_to 7965
  154.4044  140.1590  156.2621 H   0  0  0  0  0  0  0  0  0  0  0  0  # atno 8008 bound_to 7997
  155.9027  140.3432  155.6016 H   0  0  0  0  0  0  0  0  0  0  0  0  # atno 8009 bound_to 7997
  155.7429  140.0795  157.2228 H   0  0  0  0  0  0  0  0  0  0  0  0  # atno 8010 bound_to 7997
  140.2800  143.3288  152.0450 H   0  0  0  0  0  0  0  0  0  0  0  0  # atno 10167 bound_to 10162
  156.2153  130.6944  151.0696 H   0  0  0  0  0  0  0  0  0  0  0  0  # atno 10718 bound_to 10713
  154.7559  135.4944  153.9374 H   0  0  0  0  0  0  0  0  0  0  0  0  # atno 10763 bound_to 10752
  153.1195  135.6728  153.9367 H   0  0  0  0  0  0  0  0  0  0  0  0  # atno 10764 bound_to 10752
  153.9103  135.3099  155.3427 H   0  0  0  0  0  0  0  0  0  0  0  0  # atno 10765 bound_to 10752
  140.1486  134.4491  155.8398 H   0  0  0  0  0  0  0  0  0  0  0  0  # atno 11005 bound_to 11000
  145.1413  139.2570  143.5488 LP  0  0  0  0  0  0  0  0  0  0  0  0  # atno 17320 bound_to 7965
  146.3524  140.1091  142.8604 LP  0  0  0  0  0  0  0  0  0  0  0  0  # atno 17321 bound_to 7965
  139.4965  144.6598  151.6491 LP  0  0  0  0  0  0  0  0  0  0  0  0  # atno 17342 bound_to 10162
  140.5819  143.9931  150.6273 LP  0  0  0  0  0  0  0  0  0  0  0  0  # atno 17343 bound_to 10162
  157.7060  131.0756  150.6665 LP  0  0  0  0  0  0  0  0  0  0  0  0  # atno 17370 bound_to 10713
  156.6726  130.4544  149.5652 LP  0  0  0  0  0  0  0  0  0  0  0  0  # atno 17371 bound_to 10713
  141.2196  133.6863  156.7379 LP  0  0  0  0  0  0  0  0  0  0  0  0  # atno 17394 bound_to 11000
  140.2633  134.8450  157.3779 LP  0  0  0  0  0  0  0  0  0  0  0  0  # atno 17395 bound_to 11000

$$$$
