AV-unprocessed.smi:14|AV-procd|sdf|77|dock6
  -GOLD-   2262015203D 1   1.00000     0.00000
 Structure written by MMmdl.
 57 60  0  0  0  0  0  0  0  0  1 V2000
  151.1374  129.4596  154.8792 N   0  0  0  0  0  0  0  0  0  0  0  0
  150.1021  129.9759  154.8853 C   0  0  0  0  0  0  0  0  0  0  0  0
  148.7856  130.6319  154.8929 C   0  0  0  0  0  0  0  0  0  0  0  0
  148.6523  131.7824  153.8798 C   0  0  0  0  0  0  0  0  0  0  0  0
  147.8935  132.9261  154.3848 N   0  0  0  0  0  0  0  0  0  0  0  0
  146.6528  133.2868  153.6947 C   0  0  0  0  0  0  0  0  0  0  0  0
  146.7745  133.2464  152.1544 C   0  0  2  0  0  0  0  0  0  0  0  0
  146.1539  134.4519  151.4689 C   0  0  0  0  0  0  0  0  0  0  0  0
  144.6763  134.0761  151.3730 C   0  0  0  0  0  0  0  0  0  0  0  0
  144.6251  132.6524  151.4062 O   0  0  0  0  0  0  0  0  0  0  0  0
  145.9379  132.1215  151.5469 C   0  0  0  0  0  0  0  0  0  0  0  0
  148.6612  133.9215  154.8973 C   0  0  0  0  0  0  0  0  0  0  0  0
  149.9176  133.6490  155.3404 N   0  0  0  0  0  0  0  0  0  0  0  0
  150.6747  134.6203  155.8584 C   0  0  0  0  0  0  0  0  0  0  0  0
  150.3761  135.9098  156.0286 N   0  0  0  0  0  0  0  0  0  0  0  0
  149.1160  136.1888  155.5878 C   0  0  0  0  0  0  0  0  0  0  0  0
  148.2017  135.2627  155.0114 C   0  0  0  0  0  0  0  0  0  0  0  0
  147.0242  135.9130  154.6645 N   0  0  0  0  0  0  0  0  0  0  0  0
  147.2283  137.1513  155.0208 C   0  0  0  0  0  0  0  0  0  0  0  0
  148.4514  137.4037  155.6014 N   0  0  0  0  0  0  0  0  0  0  0  0
  148.9390  138.6888  156.0829 C   0  0  0  0  0  0  0  0  0  0  0  0
  149.5746  139.6087  154.9927 C   0  0  0  0  0  0  0  0  0  0  0  0
  148.4506  140.0750  154.0258 C   0  0  0  0  0  0  0  0  0  0  0  0
  148.8966  140.9879  153.0423 O   0  0  0  0  0  0  0  0  0  0  0  0
  150.2286  140.8329  155.6846 C   0  0  0  0  0  0  0  0  0  0  0  0
  151.5122  140.4661  156.4545 C   0  0  0  0  0  0  0  0  0  0  0  0
  152.4353  139.8151  155.5899 O   0  0  0  0  0  0  0  0  0  0  0  0
  151.9331  138.5980  155.0520 C   0  0  0  0  0  0  0  0  0  0  0  0
  150.6875  138.8822  154.1937 C   0  0  0  0  0  0  0  0  0  0  0  0
  148.0491  129.8613  154.6647 H   0  0  0  0  0  0  0  0  0  0  0  0
  148.5772  130.9737  155.9070 H   0  0  0  0  0  0  0  0  0  0  0  0
  149.6444  132.1213  153.5800 H   0  0  0  0  0  0  0  0  0  0  0  0
  148.1860  131.4073  152.9695 H   0  0  0  0  0  0  0  0  0  0  0  0
  145.8529  132.6188  154.0159 H   0  0  0  0  0  0  0  0  0  0  0  0
  146.3498  134.2854  154.0113 H   0  0  0  0  0  0  0  0  0  0  0  0
  147.8195  133.1304  151.8664 H   0  0  0  0  0  0  0  0  0  0  0  0
  146.3205  135.3940  151.9921 H   0  0  0  0  0  0  0  0  0  0  0  0
  146.5710  134.5539  150.4661 H   0  0  0  0  0  0  0  0  0  0  0  0
  144.1243  134.4634  152.2299 H   0  0  0  0  0  0  0  0  0  0  0  0
  144.2122  134.4681  150.4677 H   0  0  0  0  0  0  0  0  0  0  0  0
  146.3143  131.8673  150.5552 H   0  0  0  0  0  0  0  0  0  0  0  0
  145.9403  131.2116  152.1478 H   0  0  0  0  0  0  0  0  0  0  0  0
  151.6600  134.3209  156.1840 H   0  0  0  0  0  0  0  0  0  0  0  0
  146.4836  137.9194  154.8720 H   0  0  0  0  0  0  0  0  0  0  0  0
  148.1043  139.2052  156.5589 H   0  0  0  0  0  0  0  0  0  0  0  0
  149.6421  138.4810  156.8877 H   0  0  0  0  0  0  0  0  0  0  0  0
  148.0148  139.2258  153.5000 H   0  0  0  0  0  0  0  0  0  0  0  0
  147.6433  140.5502  154.5841 H   0  0  0  0  0  0  0  0  0  0  0  0
  148.6828  140.6398  152.1901 H   0  0  0  0  0  0  0  0  0  0  0  0
  150.5007  141.5844  154.9430 H   0  0  0  0  0  0  0  0  0  0  0  0
  149.5177  141.3183  156.3543 H   0  0  0  0  0  0  0  0  0  0  0  0
  151.9811  141.3714  156.8403 H   0  0  0  0  0  0  0  0  0  0  0  0
  151.3008  139.8380  157.3198 H   0  0  0  0  0  0  0  0  0  0  0  0
  152.7101  138.1446  154.4365 H   0  0  0  0  0  0  0  0  0  0  0  0
  151.7191  137.8905  155.8534 H   0  0  0  0  0  0  0  0  0  0  0  0
  150.3166  137.9615  153.7452 H   0  0  0  0  0  0  0  0  0  0  0  0
  151.0058  139.5035  153.3561 H   0  0  0  0  0  0  0  0  0  0  0  0
  1  2  3  0  0  0  0
  2  3  1  0  0  0  0
  3  4  1  0  0  0  0
  3 30  1  0  0  0  0
  3 31  1  0  0  0  0
  4  5  1  0  0  0  0
  4 32  1  0  0  0  0
  4 33  1  0  0  0  0
  5  6  1  0  0  0  0
  5 12  1  0  0  0  0
  6  7  1  0  0  0  0
  6 34  1  0  0  0  0
  6 35  1  0  0  0  0
  7 11  1  0  0  0  0
  7  8  1  0  0  0  0
  7 36  1  0  0  0  0
  8  9  1  0  0  0  0
  8 37  1  0  0  0  0
  8 38  1  0  0  0  0
  9 10  1  0  0  0  0
  9 39  1  0  0  0  0
  9 40  1  0  0  0  0
 10 11  1  0  0  0  0
 11 41  1  0  0  0  0
 11 42  1  0  0  0  0
 12 17  1  0  0  0  0
 12 13  2  0  0  0  0
 13 14  1  0  0  0  0
 14 15  2  0  0  0  0
 14 43  1  0  0  0  0
 15 16  1  0  0  0  0
 16 20  1  0  0  0  0
 16 17  2  0  0  0  0
 17 18  1  0  0  0  0
 18 19  2  0  0  0  0
 19 20  1  0  0  0  0
 19 44  1  0  0  0  0
 20 21  1  0  0  0  0
 21 22  1  0  0  0  0
 21 45  1  0  0  0  0
 21 46  1  0  0  0  0
 22 29  1  0  0  0  0
 22 23  1  0  0  0  0
 22 25  1  0  0  0  0
 23 24  1  0  0  0  0
 23 47  1  0  0  0  0
 23 48  1  0  0  0  0
 24 49  1  0  0  0  0
 25 26  1  0  0  0  0
 25 50  1  0  0  0  0
 25 51  1  0  0  0  0
 26 27  1  0  0  0  0
 26 52  1  0  0  0  0
 26 53  1  0  0  0  0
 27 28  1  0  0  0  0
 28 29  1  0  0  0  0
 28 54  1  0  0  0  0
 28 55  1  0  0  0  0
 29 56  1  0  0  0  0
 29 57  1  0  0  0  0
M  END
> <s_m_source_file>
AV-unprocessed.smi

> <i_m_source_file_index>
14

> <i_lp_mmshare_version>
43012

> <i_f3d_flags>
0

> <s_epik_input>
W0NIMl0xT1tDSDJdW0NIMl1bQ0BIXTFbQ0gyXU4oW0NIMl1bQ0gyXUMjTiljKG5bY0hdbjIpYyhjMjMpbltjSF1uM1tDSDJdQzQoW0NIMl1bT0hdKVtDSDJdW0NIMl1PW0NIMl1bQ0gyXTQ=

> <s_epik_cmdline>
J2VwaWtfcHl0aG9uJywgJy1waCcsICc3LjAnLCAnLXRuJywgJzgnLCAnLW1hJywgJzIwMCcsICctbWV0YWxfYmluZGluZycsICctaW1hZScsICc8aW5maWxlLm1hZT4nLCAnLW9tYWUnLCAnPG91dGZpbGUubWFlPic=

> <r_lp_tautomer_probability>
1

> <r_epik_Ionization_Penalty>
0.000542547

> <r_epik_Ionization_Penalty_Charging>
0

> <r_epik_Ionization_Penalty_Neutral>
0.000542547

> <r_epik_State_Penalty>
0.000265709

> <r_epik_Charging_Adjusted_Penalty>
0.000265709

> <i_epik_Tot_Q>
0

> <i_epik_Tot_abs_Q>
0

> <r_epik_Metal_State_Penalty>
-0

> <b_epik_Metal_Only>
0

> <s_lp_Force_Field>
OPLS_2005

> <r_lp_Energy>
44.4286

> <b_lp_Chiralities_Consistent>
1

> <s_lp_Variant>
AV-unprocessed.smi:14-1

> <Gold.Version>
5.8.1

> <Gold.Id.Protein>
6NUR|6NUR_protein|mol2

> <Gold.PLP.Fitness>
46.3027

> <Gold.PLP.PLP>
-42.4751

> <Gold.PLP.part.hbond>
-3.2221

> <Gold.PLP.part.metal>
0.0000

> <Gold.PLP.part.buried>
-4.1977

> <Gold.PLP.part.nonpolar>
-34.7490

> <Gold.PLP.part.repulsive>
0.4390

> <Gold.PLP.ligand.clash>
0.0000

> <Gold.PLP.ligand.torsion>
1.9002

> <Gold.PLP.Chemscore.Hbond>
2.1277

> <Gold.PLP.Chemscore.CHOScore>
0.0000

> <Gold.PLP.Chemscore.Metal>
0.0000

> <Gold.Chemscore.Hbonds>
donor molecule, donor type, donor heavy atom, donor atom, acceptor molecule, acceptor atom, score
      L1  H    24    49       P1  7957  0.54
      P1  H  7997  8008       L1    27  0.98
      P1  H  8011  8017       L1    24  0.60

> <Gold.PLP.Chemscore.Internal.Correction>
1.2449

> <Gold.Rescore>
     Score         DG    S(hbond)    S(metal)    S(lipo)     H(rot)  DE(clash)    DE(int)     intcor
      8.61     -12.09       1.53        0.00      84.04       3.26       0.38       3.10       ----

> <Gold.Chemscore.Fitness>
8.6129

> <Gold.Chemscore.DG>
-12.0897

> <Gold.Chemscore.ZeroCoef>
-5.4800

> <Gold.Chemscore.Hbond>
1.5302

> <Gold.Chemscore.Metal>
0.0000

> <Gold.Chemscore.Lipo>
84.0373

> <Gold.Chemscore.Internal_Hbond>
0.0000

> <Gold.Chemscore.DEClash>
0.3758

> <Gold.Chemscore.DEInternal>
3.1010

> <Gold.Chemscore.Rot>
3.2553

> <Gold.Chemscore.Internal.Correction>
   9.000000E+99

> <Gold.Chemscore.Hbonds>
donor molecule, donor type, donor heavy atom, donor atom, acceptor molecule, acceptor atom, score
      L1  H    24    49       P1  7957  0.52
      P1  H  7997  8008       L1    27  0.82
      P1  H  8011  8017       L1    24  0.04

> <Gold.Chemscore.Hbond.Weighted>
-5.1109

> <Gold.Chemscore.Metal.Weighted>
-0.0000

> <Gold.Chemscore.Lipo.Weighted>
-9.8324

> <Gold.Chemscore.Internal_Hbond.Weighted>
0.0000

> <Gold.Chemscore.DEClash.Weighted>
0.3758

> <Gold.Chemscore.DEInternal.Weighted>
3.1010

> <Gold.Chemscore.Rot.Weighted>
8.3336

> <Gold.Chemscore.Internal.Correction.Weighted>
   9.000000E+99

> <Gold.Protein.RotatedTorsions>
[ 6907 6896 6895 6894 ] final   13.62 input  -60.11 | X-H torsion
[ 7974 7965 7964 7962 ] final  134.47 input  175.53 | X-H torsion
[ 8008 7997 7996 7995 ] final  -21.78 input   59.86 | X-H torsion
[ 10167 10162 10161 10158 ] final -113.87 input  -65.29 | X-H torsion
[ 10718 10713 10712 10709 ] final  -17.60 input   66.30 | X-H torsion
[ 10763 10752 10751 10750 ] final  -88.05 input  -60.55 | X-H torsion
[ 11005 11000 10999 10996 ] final  -97.64 input  -57.11 | X-H torsion

> <Gold.Protein.ActiveResidues>
 VAL166  LYS551  ARG553  GLY616  TRP617  ASP618  TYR619  PRO620  LYS621  CYS622 
 ASP623  PHE694  ASN695  SER759  ASP760  ASP761  ALA762  ILE779  LEU786  VAL792 
 PHE793  MET794  SER795  GLU796  ALA797  LYS798  CYS799  TRP800  GLU811  SER814 

> <Gold.Protein.RotatedAtoms>
  151.7893  135.0740  160.0384 H   0  0  0  0  0  0  0  0  0  0  0  0  # atno 6907 bound_to 6896
  152.3168  133.5806  159.5726 H   0  0  0  0  0  0  0  0  0  0  0  0  # atno 6908 bound_to 6896
  150.7348  133.9987  159.3673 H   0  0  0  0  0  0  0  0  0  0  0  0  # atno 6909 bound_to 6896
  144.9760  139.4555  143.5409 H   0  0  0  0  0  0  0  0  0  0  0  0  # atno 7974 bound_to 7965
  154.4684  140.2025  156.0057 H   0  0  0  0  0  0  0  0  0  0  0  0  # atno 8008 bound_to 7997
  156.0968  140.3250  155.7860 H   0  0  0  0  0  0  0  0  0  0  0  0  # atno 8009 bound_to 7997
  155.4864  140.0542  157.2951 H   0  0  0  0  0  0  0  0  0  0  0  0  # atno 8010 bound_to 7997
  140.1072  143.4560  152.1775 H   0  0  0  0  0  0  0  0  0  0  0  0  # atno 10167 bound_to 10162
  156.5713  130.4750  149.6361 H   0  0  0  0  0  0  0  0  0  0  0  0  # atno 10718 bound_to 10713
  154.6403  135.5391  153.7782 H   0  0  0  0  0  0  0  0  0  0  0  0  # atno 10763 bound_to 10752
  153.0330  135.6457  154.1169 H   0  0  0  0  0  0  0  0  0  0  0  0  # atno 10764 bound_to 10752
  154.1094  135.2928  155.3214 H   0  0  0  0  0  0  0  0  0  0  0  0  # atno 10765 bound_to 10752
  141.1372  133.8186  157.0733 H   0  0  0  0  0  0  0  0  0  0  0  0  # atno 11005 bound_to 11000
  146.3395  139.9003  142.8795 LP  0  0  0  0  0  0  0  0  0  0  0  0  # atno 17320 bound_to 7965
  145.2490  141.0037  143.3892 LP  0  0  0  0  0  0  0  0  0  0  0  0  # atno 17321 bound_to 7965
  139.5639  144.7423  151.4077 LP  0  0  0  0  0  0  0  0  0  0  0  0  # atno 17342 bound_to 10162
  140.6946  143.7781  150.7306 LP  0  0  0  0  0  0  0  0  0  0  0  0  # atno 17343 bound_to 10162
  156.2712  130.7018  151.1816 LP  0  0  0  0  0  0  0  0  0  0  0  0  # atno 17370 bound_to 10713
  157.7347  131.0579  150.5508 LP  0  0  0  0  0  0  0  0  0  0  0  0  # atno 17371 bound_to 10713
  140.0498  134.9811  157.1115 LP  0  0  0  0  0  0  0  0  0  0  0  0  # atno 17394 bound_to 11000
  140.4008  134.2085  155.7163 LP  0  0  0  0  0  0  0  0  0  0  0  0  # atno 17395 bound_to 11000

$$$$
