AV-unprocessed.smi:1679|AV-procd|sdf|6734|dock1
  -GOLD-   22720 7483D 1   1.00000     0.00000
 Structure written by MMmdl.
 44 45  0  0  0  0  0  0  0  0  2 V2000
  154.0055  140.1200  160.0593 C   0  0  0  0  0  0  0  0  0  0  0  0
  152.9239  141.1790  159.7996 C   0  0  1  0  0  0  0  0  0  0  0  0
  153.5343  142.5395  159.4104 C   0  0  0  0  0  0  0  0  0  0  0  0
  152.4475  143.6100  159.2260 C   0  0  0  0  0  0  0  0  0  0  0  0
  151.4032  143.1680  158.1901 C   0  0  0  0  0  0  0  0  0  0  0  0
  150.7946  141.8034  158.5559 C   0  0  0  0  0  0  0  0  0  0  0  0
  151.8754  140.7243  158.7563 C   0  0  1  0  0  0  0  0  0  0  0  0
  152.4963  140.4959  157.4950 O   0  0  0  0  0  0  0  0  0  0  0  0
  151.5965  140.1536  156.4520 C   0  0  0  0  0  0  0  0  0  0  0  0
  151.9488  138.7583  155.9130 C   0  0  0  0  0  0  0  0  0  0  0  0
  150.9089  137.7742  156.1967 N   0  0  0  0  0  0  0  0  0  0  0  0
  150.6633  136.6731  155.4709 C   0  0  0  0  0  0  0  0  0  0  0  0
  151.3106  136.3659  154.4694 O   0  0  0  0  0  0  0  0  0  0  0  0
  149.5368  135.7605  155.9702 C   0  0  0  0  0  0  0  0  0  0  0  0
  149.7632  134.3556  155.5984 N   0  0  0  0  0  0  0  0  0  0  0  0
  149.4873  133.9752  154.2731 C   0  0  0  0  0  0  0  0  0  0  0  0
  149.6425  132.7057  153.8514 C   0  0  0  0  0  0  0  0  0  0  0  0
  150.1105  131.7125  154.8103 C   0  0  0  0  0  0  0  0  0  0  0  0
  150.2554  130.5478  154.4440 O   0  0  0  0  0  0  0  0  0  0  0  0
  150.3682  132.1315  156.0836 N   0  5  0  0  0  0  0  0  0  0  0  0
  150.2067  133.4264  156.4974 C   0  0  0  0  0  0  0  0  0  0  0  0
  150.4451  133.7827  157.6515 O   0  0  0  0  0  0  0  0  0  0  0  0
  154.5989  139.9307  159.1661 H   0  0  0  0  0  0  0  0  0  0  0  0
  153.5640  139.1742  160.3731 H   0  0  0  0  0  0  0  0  0  0  0  0
  154.6902  140.4422  160.8444 H   0  0  0  0  0  0  0  0  0  0  0  0
  152.3970  141.3208  160.7445 H   0  0  0  0  0  0  0  0  0  0  0  0
  154.2425  142.8643  160.1733 H   0  0  0  0  0  0  0  0  0  0  0  0
  154.1030  142.4388  158.4856 H   0  0  0  0  0  0  0  0  0  0  0  0
  151.9579  143.8016  160.1816 H   0  0  0  0  0  0  0  0  0  0  0  0
  152.9024  144.5513  158.9171 H   0  0  0  0  0  0  0  0  0  0  0  0
  150.6153  143.9175  158.1143 H   0  0  0  0  0  0  0  0  0  0  0  0
  151.8689  143.1102  157.2056 H   0  0  0  0  0  0  0  0  0  0  0  0
  150.2121  141.9044  159.4724 H   0  0  0  0  0  0  0  0  0  0  0  0
  150.0941  141.4892  157.7816 H   0  0  0  0  0  0  0  0  0  0  0  0
  151.3810  139.8191  159.1148 H   0  0  0  0  0  0  0  0  0  0  0  0
  150.5648  140.1800  156.8036 H   0  0  0  0  0  0  0  0  0  0  0  0
  151.6791  140.8873  155.6492 H   0  0  0  0  0  0  0  0  0  0  0  0
  152.1215  138.8055  154.8369 H   0  0  0  0  0  0  0  0  0  0  0  0
  152.8802  138.4124  156.3617 H   0  0  0  0  0  0  0  0  0  0  0  0
  150.3216  137.9502  156.9990 H   0  0  0  0  0  0  0  0  0  0  0  0
  149.4795  135.8542  157.0553 H   0  0  0  0  0  0  0  0  0  0  0  0
  148.5702  136.1127  155.6051 H   0  0  0  0  0  0  0  0  0  0  0  0
  149.1378  134.7704  153.6311 H   0  0  0  0  0  0  0  0  0  0  0  0
  149.4228  132.4286  152.8310 H   0  0  0  0  0  0  0  0  0  0  0  0
  1  2  1  0  0  0  0
  1 23  1  0  0  0  0
  1 24  1  0  0  0  0
  1 25  1  0  0  0  0
  2  7  1  0  0  0  0
  2  3  1  0  0  0  0
  2 26  1  0  0  0  0
  3  4  1  0  0  0  0
  3 27  1  0  0  0  0
  3 28  1  0  0  0  0
  4  5  1  0  0  0  0
  4 29  1  0  0  0  0
  4 30  1  0  0  0  0
  5  6  1  0  0  0  0
  5 31  1  0  0  0  0
  5 32  1  0  0  0  0
  6  7  1  0  0  0  0
  6 33  1  0  0  0  0
  6 34  1  0  0  0  0
  7  8  1  0  0  0  0
  7 35  1  0  0  0  0
  8  9  1  0  0  0  0
  9 10  1  0  0  0  0
  9 36  1  0  0  0  0
  9 37  1  0  0  0  0
 10 11  1  0  0  0  0
 10 38  1  0  0  0  0
 10 39  1  0  0  0  0
 11 12  1  0  0  0  0
 11 40  1  0  0  0  0
 12 13  2  0  0  0  0
 12 14  1  0  0  0  0
 14 15  1  0  0  0  0
 14 41  1  0  0  0  0
 14 42  1  0  0  0  0
 15 21  1  0  0  0  0
 15 16  1  0  0  0  0
 16 17  2  0  0  0  0
 16 43  1  0  0  0  0
 17 18  1  0  0  0  0
 17 44  1  0  0  0  0
 18 19  2  0  0  0  0
 18 20  1  0  0  0  0
 20 21  1  0  0  0  0
 21 22  2  0  0  0  0
M  CHG  1  20  -1
M  END
> <s_m_source_file>
AV-unprocessed.smi

> <i_m_source_file_index>
1679

> <i_lp_mmshare_version>
43012

> <i_f3d_flags>
0

> <s_epik_input>
W0NIM11bQ0BASF0xW0NIMl1bQ0gyXVtDSDJdW0NIMl1bQ0BIXTFPW0NIMl1bQ0gyXVtOSF1DKD1PKVtDSDJdbjJbY0hdW2NIXWMoPU8pW25IXWMyPU8=

> <s_epik_cmdline>
J2VwaWtfcHl0aG9uJywgJy1waCcsICc3LjAnLCAnLXRuJywgJzgnLCAnLW1hJywgJzIwMCcsICctbWV0YWxfYmluZGluZycsICctaW1hZScsICc8aW5maWxlLm1hZT4nLCAnLW9tYWUnLCAnPG91dGZpbGUubWFlPic=

> <r_lp_tautomer_probability>
0.999537

> <r_epik_Ionization_Penalty>
3.07454

> <r_epik_Ionization_Penalty_Charging>
2.80088e-08

> <r_epik_Ionization_Penalty_Neutral>
3.07454

> <r_epik_State_Penalty>
3.07357

> <r_epik_Charging_Adjusted_Penalty>
3.07357

> <i_epik_Tot_Q>
-1

> <i_epik_Tot_abs_Q>
1

> <r_epik_Metal_State_Penalty>
0.45948

> <b_epik_Metal_Only>
1

> <s_lp_Force_Field>
OPLS_2005

> <r_lp_Energy>
19.3996

> <b_lp_Chiralities_Consistent>
1

> <s_lp_Variant>
AV-unprocessed.smi:1679-6

> <Gold.Version>
5.8.1

> <Gold.Id.Protein>
6NUR|6NUR_protein|mol2

> <Gold.PLP.Fitness>
46.8973

> <Gold.PLP.PLP>
-38.5943

> <Gold.PLP.part.hbond>
-3.0000

> <Gold.PLP.part.metal>
0.0000

> <Gold.PLP.part.buried>
-3.4158

> <Gold.PLP.part.nonpolar>
-32.1104

> <Gold.PLP.part.repulsive>
0.8528

> <Gold.PLP.ligand.clash>
0.0000

> <Gold.PLP.ligand.torsion>
1.5313

> <Gold.PLP.Chemscore.Hbond>
2.8143

> <Gold.PLP.Chemscore.CHOScore>
0.9345

> <Gold.PLP.Chemscore.Metal>
0.0000

> <Gold.Chemscore.Hbonds>
donor molecule, donor type, donor heavy atom, donor atom, acceptor molecule, acceptor atom, score
      P1  H  6896  6908       L1    22  0.83
      P1  H  7997  8009       L1     8  0.73
      P1  H 10752 10765       L1    13  1.00
      L1  C    16    43       P1  7948  0.88

> <Gold.PLP.Chemscore.Internal.Correction>
0.1191

> <Gold.Rescore>
     Score         DG    S(hbond)    S(metal)    S(lipo)     H(rot)  DE(clash)    DE(int)     intcor
     15.92     -18.68       2.63        0.00      91.35       2.45       0.14       2.62       ----

> <Gold.Chemscore.Fitness>
15.9155

> <Gold.Chemscore.DG>
-18.6779

> <Gold.Chemscore.ZeroCoef>
-5.4800

> <Gold.Chemscore.Hbond>
2.6285

> <Gold.Chemscore.Metal>
0.0000

> <Gold.Chemscore.Lipo>
91.3516

> <Gold.Chemscore.Internal_Hbond>
0.0000

> <Gold.Chemscore.DEClash>
0.1401

> <Gold.Chemscore.DEInternal>
2.6223

> <Gold.Chemscore.Rot>
2.4490

> <Gold.Chemscore.Internal.Correction>
   9.000000E+99

> <Gold.Chemscore.Hbonds>
donor molecule, donor type, donor heavy atom, donor atom, acceptor molecule, acceptor atom, score
      P1  H  6896  6908       L1    22  0.83
      P1  H  7997  8009       L1     8  0.32
      P1  H 10752 10765       L1    13  1.00

> <Gold.Chemscore.Hbond.Weighted>
-8.7792

> <Gold.Chemscore.Metal.Weighted>
-0.0000

> <Gold.Chemscore.Lipo.Weighted>
-10.6881

> <Gold.Chemscore.Internal_Hbond.Weighted>
0.0000

> <Gold.Chemscore.DEClash.Weighted>
0.1401

> <Gold.Chemscore.DEInternal.Weighted>
2.6223

> <Gold.Chemscore.Rot.Weighted>
6.2694

> <Gold.Chemscore.Internal.Correction.Weighted>
   9.000000E+99

> <Gold.Protein.RotatedTorsions>
[ 6907 6896 6895 6894 ] final  123.63 input  -60.11 | X-H torsion
[ 7974 7965 7964 7962 ] final   66.60 input  175.53 | X-H torsion
[ 8008 7997 7996 7995 ] final  178.39 input   59.86 | X-H torsion
[ 10167 10162 10161 10158 ] final  -34.95 input  -65.29 | X-H torsion
[ 10718 10713 10712 10709 ] final   19.67 input   66.30 | X-H torsion
[ 10763 10752 10751 10750 ] final  169.60 input  -60.55 | X-H torsion
[ 11005 11000 10999 10996 ] final   50.77 input  -57.11 | X-H torsion

> <Gold.Protein.ActiveResidues>
 VAL166  LYS551  ARG553  GLY616  TRP617  ASP618  TYR619  PRO620  LYS621  CYS622 
 ASP623  PHE694  ASN695  SER759  ASP760  ASP761  ALA762  ILE779  LEU786  VAL792 
 PHE793  MET794  SER795  GLU796  ALA797  LYS798  CYS799  TRP800  GLU811  SER814 

> <Gold.Protein.RotatedAtoms>
  152.4145  133.7016  159.6426 H   0  0  0  0  0  0  0  0  0  0  0  0  # atno 6907 bound_to 6896
  150.8023  133.8564  159.3228 H   0  0  0  0  0  0  0  0  0  0  0  0  # atno 6908 bound_to 6896
  151.6298  135.1026  160.0171 H   0  0  0  0  0  0  0  0  0  0  0  0  # atno 6909 bound_to 6896
  145.8247  139.3104  143.1023 H   0  0  0  0  0  0  0  0  0  0  0  0  # atno 7974 bound_to 7965
  156.0551  140.1334  157.0005 H   0  0  0  0  0  0  0  0  0  0  0  0  # atno 8008 bound_to 7997
  154.4454  140.1003  156.6505 H   0  0  0  0  0  0  0  0  0  0  0  0  # atno 8009 bound_to 7997
  155.5463  140.3462  155.4460 H   0  0  0  0  0  0  0  0  0  0  0  0  # atno 8010 bound_to 7997
  140.7175  143.3512  151.2152 H   0  0  0  0  0  0  0  0  0  0  0  0  # atno 10167 bound_to 10162
  157.1138  130.6520  149.5904 H   0  0  0  0  0  0  0  0  0  0  0  0  # atno 10718 bound_to 10713
  154.3855  135.2753  155.2186 H   0  0  0  0  0  0  0  0  0  0  0  0  # atno 10763 bound_to 10752
  154.4274  135.5985  153.6051 H   0  0  0  0  0  0  0  0  0  0  0  0  # atno 10764 bound_to 10752
  152.9833  135.5987  154.4103 H   0  0  0  0  0  0  0  0  0  0  0  0  # atno 10765 bound_to 10752
  140.0989  134.5108  155.8781 H   0  0  0  0  0  0  0  0  0  0  0  0  # atno 11005 bound_to 11000
  145.9637  140.8816  143.0198 LP  0  0  0  0  0  0  0  0  0  0  0  0  # atno 17320 bound_to 7965
  144.6744  140.1848  143.7402 LP  0  0  0  0  0  0  0  0  0  0  0  0  # atno 17321 bound_to 7965
  139.7043  143.9481  152.2919 LP  0  0  0  0  0  0  0  0  0  0  0  0  # atno 17342 bound_to 10162
  139.9185  144.6814  150.8487 LP  0  0  0  0  0  0  0  0  0  0  0  0  # atno 17343 bound_to 10162
  155.9844  130.4869  150.6982 LP  0  0  0  0  0  0  0  0  0  0  0  0  # atno 17370 bound_to 10713
  157.4536  131.0875  151.0820 LP  0  0  0  0  0  0  0  0  0  0  0  0  # atno 17371 bound_to 10713
  141.2100  133.6690  156.6479 LP  0  0  0  0  0  0  0  0  0  0  0  0  # atno 17394 bound_to 11000
  140.3247  134.7978  157.4280 LP  0  0  0  0  0  0  0  0  0  0  0  0  # atno 17395 bound_to 11000

$$$$
