AV-unprocessed.smi:484|AV-procd|sdf|2687|dock6
  -GOLD-   2262023113D 1   1.00000     0.00000
 Structure written by MMmdl.
 46 48  0  0  0  0  0  0  0  0  1 V2000
  141.4066  145.7399  155.5450 C   0  0  0  0  0  0  0  0  0  0  0  0
  142.7193  146.4271  155.1533 C   0  0  0  0  0  0  0  0  0  0  0  0
  143.8078  145.4290  154.8070 C   0  0  0  0  0  0  0  0  0  0  0  0
  144.3407  145.3848  153.5035 C   0  0  0  0  0  0  0  0  0  0  0  0
  145.3464  144.4533  153.1825 C   0  0  0  0  0  0  0  0  0  0  0  0
  145.8361  143.5553  154.1525 C   0  0  0  0  0  0  0  0  0  0  0  0
  146.8210  142.6790  153.7513 O   0  0  0  0  0  0  0  0  0  0  0  0
  147.0803  141.5390  154.5612 C   0  0  0  0  0  0  0  0  0  0  0  0
  148.5963  141.3187  154.6855 C   0  0  2  0  0  0  0  0  0  0  0  0
  149.1678  141.2881  153.3930 O   0  0  0  0  0  0  0  0  0  0  0  0
  148.9742  140.0686  155.5064 C   0  0  0  0  0  0  0  0  0  0  0  0
  150.3036  140.1650  156.0936 N   0  0  0  0  0  0  0  0  0  0  0  0
  151.4075  139.4358  155.7928 C   0  0  0  0  0  0  0  0  0  0  0  0
  151.4002  138.3726  154.7374 C   0  0  0  0  0  0  0  0  0  0  0  0
  151.7689  137.1057  155.2386 O   0  0  0  0  0  0  0  0  0  0  0  0
  152.5051  139.7287  156.4912 N   0  0  0  0  0  0  0  0  0  0  0  0
  152.0749  140.7466  157.3198 C   0  0  0  0  0  0  0  0  0  0  0  0
  152.7714  141.4875  158.3015 C   0  0  0  0  0  0  0  0  0  0  0  0
  152.1133  142.4968  159.0344 C   0  0  0  0  0  0  0  0  0  0  0  0
  150.7525  142.7794  158.7968 C   0  0  0  0  0  0  0  0  0  0  0  0
  150.0400  142.0530  157.8235 C   0  0  0  0  0  0  0  0  0  0  0  0
  150.7013  141.0461  157.0947 C   0  0  0  0  0  0  0  0  0  0  0  0
  145.2959  143.6042  155.4625 C   0  0  0  0  0  0  0  0  0  0  0  0
  144.2889  144.5350  155.7843 C   0  0  0  0  0  0  0  0  0  0  0  0
  140.6407  146.4759  155.7901 H   0  0  0  0  0  0  0  0  0  0  0  0
  141.5432  145.0984  156.4163 H   0  0  0  0  0  0  0  0  0  0  0  0
  141.0268  145.1227  154.7301 H   0  0  0  0  0  0  0  0  0  0  0  0
  142.5526  147.0856  154.3001 H   0  0  0  0  0  0  0  0  0  0  0  0
  143.0605  147.0644  155.9699 H   0  0  0  0  0  0  0  0  0  0  0  0
  143.9783  146.0636  152.7452 H   0  0  0  0  0  0  0  0  0  0  0  0
  145.7467  144.4279  152.1796 H   0  0  0  0  0  0  0  0  0  0  0  0
  146.6313  141.6491  155.5500 H   0  0  0  0  0  0  0  0  0  0  0  0
  146.6369  140.6597  154.0911 H   0  0  0  0  0  0  0  0  0  0  0  0
  149.0151  142.1985  155.1741 H   0  0  0  0  0  0  0  0  0  0  0  0
  149.0643  140.4170  153.0414 H   0  0  0  0  0  0  0  0  0  0  0  0
  148.2466  139.9045  156.3012 H   0  0  0  0  0  0  0  0  0  0  0  0
  148.9406  139.1757  154.8814 H   0  0  0  0  0  0  0  0  0  0  0  0
  150.4009  138.2987  154.3070 H   0  0  0  0  0  0  0  0  0  0  0  0
  152.0708  138.6502  153.9247 H   0  0  0  0  0  0  0  0  0  0  0  0
  151.0104  136.7095  155.6389 H   0  0  0  0  0  0  0  0  0  0  0  0
  153.8138  141.2781  158.4907 H   0  0  0  0  0  0  0  0  0  0  0  0
  152.6554  143.0569  159.7824 H   0  0  0  0  0  0  0  0  0  0  0  0
  150.2559  143.5541  159.3623 H   0  0  0  0  0  0  0  0  0  0  0  0
  148.9974  142.2658  157.6405 H   0  0  0  0  0  0  0  0  0  0  0  0
  145.6358  142.9371  156.2399 H   0  0  0  0  0  0  0  0  0  0  0  0
  143.8856  144.5592  156.7862 H   0  0  0  0  0  0  0  0  0  0  0  0
  1  2  1  0  0  0  0
  1 25  1  0  0  0  0
  1 26  1  0  0  0  0
  1 27  1  0  0  0  0
  2  3  1  0  0  0  0
  2 28  1  0  0  0  0
  2 29  1  0  0  0  0
  3 24  1  0  0  0  0
  3  4  2  0  0  0  0
  4  5  1  0  0  0  0
  4 30  1  0  0  0  0
  5  6  2  0  0  0  0
  5 31  1  0  0  0  0
  6  7  1  0  0  0  0
  6 23  1  0  0  0  0
  7  8  1  0  0  0  0
  8  9  1  0  0  0  0
  8 32  1  0  0  0  0
  8 33  1  0  0  0  0
  9 10  1  0  0  0  0
  9 11  1  0  0  0  0
  9 34  1  0  0  0  0
 10 35  1  0  0  0  0
 11 12  1  0  0  0  0
 11 36  1  0  0  0  0
 11 37  1  0  0  0  0
 12 22  1  0  0  0  0
 12 13  1  0  0  0  0
 13 14  1  0  0  0  0
 13 16  2  0  0  0  0
 14 15  1  0  0  0  0
 14 38  1  0  0  0  0
 14 39  1  0  0  0  0
 15 40  1  0  0  0  0
 16 17  1  0  0  0  0
 17 22  2  0  0  0  0
 17 18  1  0  0  0  0
 18 19  2  0  0  0  0
 18 41  1  0  0  0  0
 19 20  1  0  0  0  0
 19 42  1  0  0  0  0
 20 21  2  0  0  0  0
 20 43  1  0  0  0  0
 21 22  1  0  0  0  0
 21 44  1  0  0  0  0
 23 24  2  0  0  0  0
 23 45  1  0  0  0  0
 24 46  1  0  0  0  0
M  END
> <s_m_source_file>
AV-unprocessed.smi

> <i_m_source_file_index>
484

> <i_lp_mmshare_version>
43012

> <i_f3d_flags>
0

> <s_epik_input>
W0NIM11bQ0gyXWMxW2NIXVtjSF1jKFtjSF1bY0hdMSlPW0NIMl1bQ0BIXShbT0hdKVtDSDJdbihjKG4yKVtDSDJdW09IXSljKGMyMylbY0hdW2NIXVtjSF1bY0hdMw==

> <s_epik_cmdline>
J2VwaWtfcHl0aG9uJywgJy1waCcsICc3LjAnLCAnLXRuJywgJzgnLCAnLW1hJywgJzIwMCcsICctbWV0YWxfYmluZGluZycsICctaW1hZScsICc8aW5maWxlLm1hZT4nLCAnLW9tYWUnLCAnPG91dGZpbGUubWFlPic=

> <r_lp_tautomer_probability>
1

> <r_epik_Ionization_Penalty>
0.0555463

> <r_epik_Ionization_Penalty_Charging>
0

> <r_epik_Ionization_Penalty_Neutral>
0.0555463

> <r_epik_State_Penalty>
0.0477854

> <r_epik_Charging_Adjusted_Penalty>
0.0477854

> <i_epik_Tot_Q>
0

> <i_epik_Tot_abs_Q>
0

> <r_epik_Metal_State_Penalty>
4.97632e-05

> <b_epik_Metal_Only>
0

> <s_lp_Force_Field>
OPLS_2005

> <r_lp_Energy>
15.7427

> <b_lp_Chiralities_Consistent>
1

> <s_lp_Variant>
AV-unprocessed.smi:484-1

> <Gold.Version>
5.8.1

> <Gold.Id.Protein>
6NUR|6NUR_protein|mol2

> <Gold.PLP.Fitness>
55.0443

> <Gold.PLP.PLP>
-46.2326

> <Gold.PLP.part.hbond>
-5.0000

> <Gold.PLP.part.metal>
0.0000

> <Gold.PLP.part.buried>
-7.0314

> <Gold.PLP.part.nonpolar>
-34.8136

> <Gold.PLP.part.repulsive>
0.1858

> <Gold.PLP.ligand.clash>
0.0000

> <Gold.PLP.ligand.torsion>
0.8388

> <Gold.PLP.Chemscore.Hbond>
3.4485

> <Gold.PLP.Chemscore.CHOScore>
0.0000

> <Gold.PLP.Chemscore.Metal>
0.0000

> <Gold.Chemscore.Hbonds>
donor molecule, donor type, donor heavy atom, donor atom, acceptor molecule, acceptor atom, score
      L1  H    10    35       P1  7957  0.38
      P1  H  7997  8008       L1    16  1.00
      P1  H  8011  8017       L1    10  1.00
      P1  H 10752 10765       L1    15  1.00

> <Gold.PLP.Chemscore.Internal.Correction>
0.1437

> <Gold.Rescore>
     Score         DG    S(hbond)    S(metal)    S(lipo)     H(rot)  DE(clash)    DE(int)     intcor
     18.23     -19.82       2.42        0.00     120.86       3.08       0.82       0.77       ----

> <Gold.Chemscore.Fitness>
18.2285

> <Gold.Chemscore.DG>
-19.8246

> <Gold.Chemscore.ZeroCoef>
-5.4800

> <Gold.Chemscore.Hbond>
2.4205

> <Gold.Chemscore.Metal>
0.0000

> <Gold.Chemscore.Lipo>
120.8615

> <Gold.Chemscore.Internal_Hbond>
0.0000

> <Gold.Chemscore.DEClash>
0.8228

> <Gold.Chemscore.DEInternal>
0.7733

> <Gold.Chemscore.Rot>
3.0783

> <Gold.Chemscore.Internal.Correction>
   9.000000E+99

> <Gold.Chemscore.Hbonds>
donor molecule, donor type, donor heavy atom, donor atom, acceptor molecule, acceptor atom, score
      L1  H    10    35       P1  7957  0.37
      P1  H  7997  8008       L1    16  0.30
      P1  H  8011  8017       L1    10  0.85
      P1  H 10752 10765       L1    15  0.51

> <Gold.Chemscore.Hbond.Weighted>
-8.0843

> <Gold.Chemscore.Metal.Weighted>
-0.0000

> <Gold.Chemscore.Lipo.Weighted>
-14.1408

> <Gold.Chemscore.Internal_Hbond.Weighted>
0.0000

> <Gold.Chemscore.DEClash.Weighted>
0.8228

> <Gold.Chemscore.DEInternal.Weighted>
0.7733

> <Gold.Chemscore.Rot.Weighted>
7.8805

> <Gold.Chemscore.Internal.Correction.Weighted>
   9.000000E+99

> <Gold.Protein.RotatedTorsions>
[ 6907 6896 6895 6894 ] final -161.41 input  -60.11 | X-H torsion
[ 7974 7965 7964 7962 ] final  -74.66 input  175.53 | X-H torsion
[ 8008 7997 7996 7995 ] final  -41.17 input   59.86 | X-H torsion
[ 10167 10162 10161 10158 ] final  -86.09 input  -65.29 | X-H torsion
[ 10718 10713 10712 10709 ] final  124.80 input   66.30 | X-H torsion
[ 10763 10752 10751 10750 ] final -171.81 input  -60.55 | X-H torsion
[ 11005 11000 10999 10996 ] final  -95.20 input  -57.11 | X-H torsion

> <Gold.Protein.ActiveResidues>
 VAL166  LYS551  ARG553  GLY616  TRP617  ASP618  TYR619  PRO620  LYS621  CYS622 
 ASP623  PHE694  ASN695  SER759  ASP760  ASP761  ALA762  ILE779  LEU786  VAL792 
 PHE793  MET794  SER795  GLU796  ALA797  LYS798  CYS799  TRP800  GLU811  SER814 

> <Gold.Protein.RotatedAtoms>
  151.3642  133.3878  159.2692 H   0  0  0  0  0  0  0  0  0  0  0  0  # atno 6907 bound_to 6896
  150.9701  134.9077  159.7793 H   0  0  0  0  0  0  0  0  0  0  0  0  # atno 6908 bound_to 6896
  152.5181  134.3604  159.9335 H   0  0  0  0  0  0  0  0  0  0  0  0  # atno 6909 bound_to 6896
  145.6362  140.9324  143.1060 H   0  0  0  0  0  0  0  0  0  0  0  0  # atno 7974 bound_to 7965
  154.4006  140.1506  156.3147 H   0  0  0  0  0  0  0  0  0  0  0  0  # atno 8008 bound_to 7997
  155.8583  140.3454  155.5718 H   0  0  0  0  0  0  0  0  0  0  0  0  # atno 8009 bound_to 7997
  155.7908  140.0856  157.2000 H   0  0  0  0  0  0  0  0  0  0  0  0  # atno 8010 bound_to 7997
  140.3975  143.2677  151.9185 H   0  0  0  0  0  0  0  0  0  0  0  0  # atno 10167 bound_to 10162
  157.5555  131.1092  150.8628 H   0  0  0  0  0  0  0  0  0  0  0  0  # atno 10718 bound_to 10713
  154.6264  135.2881  155.0267 H   0  0  0  0  0  0  0  0  0  0  0  0  # atno 10763 bound_to 10752
  154.1444  135.6513  153.4953 H   0  0  0  0  0  0  0  0  0  0  0  0  # atno 10764 bound_to 10752
  153.0259  135.5340  154.7074 H   0  0  0  0  0  0  0  0  0  0  0  0  # atno 10765 bound_to 10752
  141.1449  133.8009  157.0402 H   0  0  0  0  0  0  0  0  0  0  0  0  # atno 11005 bound_to 11000
  144.7175  139.8146  143.7394 LP  0  0  0  0  0  0  0  0  0  0  0  0  # atno 17320 bound_to 7965
  146.1317  139.4354  143.0164 LP  0  0  0  0  0  0  0  0  0  0  0  0  # atno 17321 bound_to 7965
  139.4786  144.5667  151.8154 LP  0  0  0  0  0  0  0  0  0  0  0  0  # atno 17342 bound_to 10162
  140.4775  144.1498  150.5927 LP  0  0  0  0  0  0  0  0  0  0  0  0  # atno 17343 bound_to 10162
  156.9141  130.5291  149.5280 LP  0  0  0  0  0  0  0  0  0  0  0  0  # atno 17370 bound_to 10713
  156.0615  130.5667  150.9202 LP  0  0  0  0  0  0  0  0  0  0  0  0  # atno 17371 bound_to 10713
  140.0698  134.9709  157.1447 LP  0  0  0  0  0  0  0  0  0  0  0  0  # atno 17394 bound_to 11000
  140.3728  134.2372  155.7176 LP  0  0  0  0  0  0  0  0  0  0  0  0  # atno 17395 bound_to 11000

$$$$
