AV-unprocessed.smi:527|AV-procd|sdf|2826|dock4
  -GOLD-   2262023313D 1   1.00000     0.00000
 Structure written by MMmdl.
 43 44  0  0  0  0  0  0  0  0  2 V2000
  146.9498  142.0035  154.5096 C   0  0  0  0  0  0  0  0  0  0  0  0
  148.1575  141.3971  153.7657 C   0  0  1  0  0  0  0  0  0  0  0  0
  149.4196  141.3796  154.6515 C   0  0  0  0  0  0  0  0  0  0  0  0
  149.3391  140.3133  155.7552 C   0  0  0  0  0  0  0  0  0  0  0  0
  149.0766  138.9212  155.1639 C   0  0  0  0  0  0  0  0  0  0  0  0
  147.8165  138.9009  154.2727 C   0  0  2  0  0  0  0  0  0  0  0  0
  147.6597  137.5768  153.6725 N   0  0  0  0  0  0  0  0  0  0  0  0
  146.6103  136.7613  153.8535 C   0  0  0  0  0  0  0  0  0  0  0  0
  145.6435  137.0488  154.5627 O   0  0  0  0  0  0  0  0  0  0  0  0
  146.7651  135.6135  153.1651 N   0  0  0  0  0  0  0  0  0  0  0  0
  145.9733  134.5222  153.1991 C   0  0  0  0  0  0  0  0  0  0  0  0
  144.9555  134.4095  153.8873 O   0  0  0  0  0  0  0  0  0  0  0  0
  146.4260  133.3689  152.2941 C   0  0  0  0  0  0  0  0  0  0  0  0
  145.4755  133.0787  151.2124 N   0  0  0  0  0  0  0  0  0  0  0  0
  145.6473  132.2096  150.1649 C   0  0  0  0  0  0  0  0  0  0  0  0
  144.5066  132.2800  149.4074 C   0  0  0  0  0  0  0  0  0  0  0  0
  143.6870  133.1873  150.0238 N   0  3  0  0  0  0  0  0  0  0  0  0
  144.2777  133.6722  151.1209 C   0  0  0  0  0  0  0  0  0  0  0  0
  147.8956  139.9880  153.1693 C   0  0  1  0  0  0  0  0  0  0  0  0
  146.6830  139.9695  152.2175 C   0  0  0  0  0  0  0  0  0  0  0  0
  146.6200  141.3796  155.3396 H   0  0  0  0  0  0  0  0  0  0  0  0
  146.0987  142.1452  153.8442 H   0  0  0  0  0  0  0  0  0  0  0  0
  147.1981  142.9839  154.9168 H   0  0  0  0  0  0  0  0  0  0  0  0
  148.3689  142.0687  152.9325 H   0  0  0  0  0  0  0  0  0  0  0  0
  150.2922  141.1794  154.0281 H   0  0  0  0  0  0  0  0  0  0  0  0
  149.5856  142.3624  155.0939 H   0  0  0  0  0  0  0  0  0  0  0  0
  150.2681  140.3019  156.3257 H   0  0  0  0  0  0  0  0  0  0  0  0
  148.5505  140.5667  156.4641 H   0  0  0  0  0  0  0  0  0  0  0  0
  149.9448  138.6111  154.5804 H   0  0  0  0  0  0  0  0  0  0  0  0
  148.9776  138.1974  155.9738 H   0  0  0  0  0  0  0  0  0  0  0  0
  146.9437  139.1065  154.8945 H   0  0  0  0  0  0  0  0  0  0  0  0
  148.4040  137.2679  153.0646 H   0  0  0  0  0  0  0  0  0  0  0  0
  147.5667  135.5652  152.5534 H   0  0  0  0  0  0  0  0  0  0  0  0
  147.3880  133.6121  151.8408 H   0  0  0  0  0  0  0  0  0  0  0  0
  146.5615  132.4623  152.8862 H   0  0  0  0  0  0  0  0  0  0  0  0
  146.5464  131.6240  150.0374 H   0  0  0  0  0  0  0  0  0  0  0  0
  144.2247  131.7673  148.4991 H   0  0  0  0  0  0  0  0  0  0  0  0
  143.8691  134.4029  151.7959 H   0  0  0  0  0  0  0  0  0  0  0  0
  148.7654  139.7521  152.5534 H   0  0  0  0  0  0  0  0  0  0  0  0
  145.7437  140.0687  152.7616 H   0  0  0  0  0  0  0  0  0  0  0  0
  146.6340  139.0401  151.6500 H   0  0  0  0  0  0  0  0  0  0  0  0
  146.7393  140.7838  151.4945 H   0  0  0  0  0  0  0  0  0  0  0  0
  142.7678  133.4573  149.6967 H   0  0  0  0  0  0  0  0  0  0  0  0
  1  2  1  0  0  0  0
  1 21  1  0  0  0  0
  1 22  1  0  0  0  0
  1 23  1  0  0  0  0
  2 19  1  0  0  0  0
  2  3  1  0  0  0  0
  2 24  1  0  0  0  0
  3  4  1  0  0  0  0
  3 25  1  0  0  0  0
  3 26  1  0  0  0  0
  4  5  1  0  0  0  0
  4 27  1  0  0  0  0
  4 28  1  0  0  0  0
  5  6  1  0  0  0  0
  5 29  1  0  0  0  0
  5 30  1  0  0  0  0
  6  7  1  0  0  0  0
  6 19  1  0  0  0  0
  6 31  1  0  0  0  0
  7  8  1  0  0  0  0
  7 32  1  0  0  0  0
  8  9  2  0  0  0  0
  8 10  1  0  0  0  0
 10 11  1  0  0  0  0
 10 33  1  0  0  0  0
 11 12  2  0  0  0  0
 11 13  1  0  0  0  0
 13 14  1  0  0  0  0
 13 34  1  0  0  0  0
 13 35  1  0  0  0  0
 14 18  1  0  0  0  0
 14 15  1  0  0  0  0
 15 16  2  0  0  0  0
 15 36  1  0  0  0  0
 16 17  1  0  0  0  0
 16 37  1  0  0  0  0
 17 18  2  0  0  0  0
 17 43  1  0  0  0  0
 18 38  1  0  0  0  0
 19 20  1  0  0  0  0
 19 39  1  0  0  0  0
 20 40  1  0  0  0  0
 20 41  1  0  0  0  0
 20 42  1  0  0  0  0
M  CHG  1  17   1
M  END
> <s_m_source_file>
AV-unprocessed.smi

> <i_m_source_file_index>
527

> <i_lp_mmshare_version>
43012

> <i_f3d_flags>
0

> <s_epik_input>
W0NIM11bQ0BASF0xW0NIMl1bQ0gyXVtDSDJdW0NASF0oW0NASF0xW0NIM10pW05IXUMoPU8pW05IXUMoPU8pW0NIMl1uMltjSF1bY0hdbltjSF0y

> <s_epik_cmdline>
J2VwaWtfcHl0aG9uJywgJy1waCcsICc3LjAnLCAnLXRuJywgJzgnLCAnLW1hJywgJzIwMCcsICctbWV0YWxfYmluZGluZycsICctaW1hZScsICc8aW5maWxlLm1hZT4nLCAnLW9tYWUnLCAnPG91dGZpbGUubWFlPic=

> <r_lp_tautomer_probability>
1

> <r_epik_Ionization_Penalty>
0.816441

> <r_epik_Ionization_Penalty_Charging>
0

> <r_epik_Ionization_Penalty_Neutral>
0.816441

> <r_epik_State_Penalty>
0.849034

> <r_epik_Charging_Adjusted_Penalty>
0.849034

> <i_epik_Tot_Q>
1

> <i_epik_Tot_abs_Q>
1

> <r_epik_Metal_State_Penalty>
0.984327

> <b_epik_Metal_Only>
0

> <s_lp_Force_Field>
OPLS_2005

> <r_lp_Energy>
18.63

> <b_lp_Chiralities_Consistent>
1

> <s_lp_Variant>
AV-unprocessed.smi:527-12

> <Gold.Version>
5.8.1

> <Gold.Id.Protein>
6NUR|6NUR_protein|mol2

> <Gold.PLP.Fitness>
45.5145

> <Gold.PLP.PLP>
-30.7800

> <Gold.PLP.part.hbond>
-2.9974

> <Gold.PLP.part.metal>
0.0000

> <Gold.PLP.part.buried>
4.0685

> <Gold.PLP.part.nonpolar>
-30.6328

> <Gold.PLP.part.repulsive>
0.2297

> <Gold.PLP.ligand.clash>
0.0000

> <Gold.PLP.ligand.torsion>
0.0806

> <Gold.PLP.Chemscore.Hbond>
3.9600

> <Gold.PLP.Chemscore.CHOScore>
0.9996

> <Gold.PLP.Chemscore.Metal>
0.0000

> <Gold.Chemscore.Hbonds>
donor molecule, donor type, donor heavy atom, donor atom, acceptor molecule, acceptor atom, score
      L1  H     7    32       P1  7948  1.00
      L1  H    10    33       P1  7948  1.00
      L1  H    17    43       P1 10186  2.00
      L1  C    15    36       P1 10747  0.96

> <Gold.PLP.Chemscore.Internal.Correction>
0.0171

> <Gold.Rescore>
     Score         DG    S(hbond)    S(metal)    S(lipo)     H(rot)  DE(clash)    DE(int)     intcor
     16.35     -18.80       2.89        0.00      68.50       1.71       0.23       2.21       ----

> <Gold.Chemscore.Fitness>
16.3546

> <Gold.Chemscore.DG>
-18.7955

> <Gold.Chemscore.ZeroCoef>
-5.4800

> <Gold.Chemscore.Hbond>
2.8941

> <Gold.Chemscore.Metal>
0.0000

> <Gold.Chemscore.Lipo>
68.4993

> <Gold.Chemscore.Internal_Hbond>
0.0000

> <Gold.Chemscore.DEClash>
0.2342

> <Gold.Chemscore.DEInternal>
2.2067

> <Gold.Chemscore.Rot>
1.7052

> <Gold.Chemscore.Internal.Correction>
   9.000000E+99

> <Gold.Chemscore.Hbonds>
donor molecule, donor type, donor heavy atom, donor atom, acceptor molecule, acceptor atom, score
      L1  H     7    32       P1  7948  0.94
      L1  H    10    33       P1  7948  0.97
      L1  H    17    43       P1 10186  0.95

> <Gold.Chemscore.Hbond.Weighted>
-9.6663

> <Gold.Chemscore.Metal.Weighted>
-0.0000

> <Gold.Chemscore.Lipo.Weighted>
-8.0144

> <Gold.Chemscore.Internal_Hbond.Weighted>
0.0000

> <Gold.Chemscore.DEClash.Weighted>
0.2342

> <Gold.Chemscore.DEInternal.Weighted>
2.2067

> <Gold.Chemscore.Rot.Weighted>
4.3653

> <Gold.Chemscore.Internal.Correction.Weighted>
   9.000000E+99

> <Gold.Protein.RotatedTorsions>
[ 6907 6896 6895 6894 ] final  111.31 input  -60.11 | X-H torsion
[ 7974 7965 7964 7962 ] final  145.83 input  175.53 | X-H torsion
[ 8008 7997 7996 7995 ] final   -8.71 input   59.86 | X-H torsion
[ 10167 10162 10161 10158 ] final   -1.53 input  -65.29 | X-H torsion
[ 10718 10713 10712 10709 ] final  101.96 input   66.30 | X-H torsion
[ 10763 10752 10751 10750 ] final  -77.03 input  -60.55 | X-H torsion
[ 11005 11000 10999 10996 ] final  165.20 input  -57.11 | X-H torsion

> <Gold.Protein.ActiveResidues>
 VAL166  LYS551  ARG553  GLY616  TRP617  ASP618  TYR619  PRO620  LYS621  CYS622 
 ASP623  PHE694  ASN695  SER759  ASP760  ASP761  ALA762  ILE779  LEU786  VAL792 
 PHE793  MET794  SER795  GLU796  ALA797  LYS798  CYS799  TRP800  GLU811  SER814 

> <Gold.Protein.RotatedAtoms>
  152.4976  133.8676  159.7281 H   0  0  0  0  0  0  0  0  0  0  0  0  # atno 6907 bound_to 6896
  150.9171  133.6917  159.2847 H   0  0  0  0  0  0  0  0  0  0  0  0  # atno 6908 bound_to 6896
  151.4307  135.1013  159.9694 H   0  0  0  0  0  0  0  0  0  0  0  0  # atno 6909 bound_to 6896
  144.8720  139.5831  143.5882 H   0  0  0  0  0  0  0  0  0  0  0  0  # atno 7974 bound_to 7965
  154.5715  140.2374  155.8185 H   0  0  0  0  0  0  0  0  0  0  0  0  # atno 8008 bound_to 7997
  156.2110  140.3026  155.9691 H   0  0  0  0  0  0  0  0  0  0  0  0  # atno 8009 bound_to 7997
  155.2704  140.0418  157.2997 H   0  0  0  0  0  0  0  0  0  0  0  0  # atno 8010 bound_to 7997
  140.6814  143.6764  150.8142 H   0  0  0  0  0  0  0  0  0  0  0  0  # atno 10167 bound_to 10162
  157.6815  131.0740  150.5331 H   0  0  0  0  0  0  0  0  0  0  0  0  # atno 10718 bound_to 10713
  154.5076  135.5777  153.6580 H   0  0  0  0  0  0  0  0  0  0  0  0  # atno 10763 bound_to 10752
  152.9891  135.6151  154.2920 H   0  0  0  0  0  0  0  0  0  0  0  0  # atno 10764 bound_to 10752
  154.2833  135.2850  155.2667 H   0  0  0  0  0  0  0  0  0  0  0  0  # atno 10765 bound_to 10752
  140.2537  134.7957  157.3525 H   0  0  0  0  0  0  0  0  0  0  0  0  # atno 11005 bound_to 11000
  146.2937  139.7214  142.9142 LP  0  0  0  0  0  0  0  0  0  0  0  0  # atno 17320 bound_to 7965
  145.4112  141.0396  143.3016 LP  0  0  0  0  0  0  0  0  0  0  0  0  # atno 17321 bound_to 7965
  140.0465  143.5293  152.2693 LP  0  0  0  0  0  0  0  0  0  0  0  0  # atno 17342 bound_to 10162
  139.6139  144.7615  151.2890 LP  0  0  0  0  0  0  0  0  0  0  0  0  # atno 17343 bound_to 10162
  156.5641  130.4263  149.6049 LP  0  0  0  0  0  0  0  0  0  0  0  0  # atno 17370 bound_to 10713
  156.2796  130.7063  151.1884 LP  0  0  0  0  0  0  0  0  0  0  0  0  # atno 17371 bound_to 10713
  140.1533  134.4822  155.7946 LP  0  0  0  0  0  0  0  0  0  0  0  0  # atno 17394 bound_to 11000
  141.2198  133.6871  156.7416 LP  0  0  0  0  0  0  0  0  0  0  0  0  # atno 17395 bound_to 11000

$$$$
