AV-unprocessed.smi:924|AV-procd|sdf|4180|dock7
  -GOLD-   22720 2 83D 1   1.00000     0.00000
 Structure written by MMmdl.
 45 48  0  0  0  0  0  0  0  0  2 V2000
  147.5819  141.5050  155.6562 O   0  0  0  0  0  0  0  0  0  0  0  0
  148.8041  141.5286  155.5069 C   0  0  0  0  0  0  0  0  0  0  0  0
  149.4618  140.8580  154.2939 C   0  0  0  0  0  0  0  0  0  0  0  0
  150.1321  139.5958  154.6448 N   0  0  0  0  0  0  0  0  0  0  0  0
  151.5199  139.5259  154.4289 C   0  0  0  0  0  0  0  0  0  0  0  0
  152.2322  138.4240  154.7304 C   0  0  0  0  0  0  0  0  0  0  0  0
  151.5270  137.2803  155.2949 C   0  0  0  0  0  0  0  0  0  0  0  0
  152.1601  136.2632  155.5716 O   0  0  0  0  0  0  0  0  0  0  0  0
  150.1810  137.3981  155.4905 N   0  5  0  0  0  0  0  0  0  0  0  0
  149.4699  138.5278  155.1839 C   0  0  0  0  0  0  0  0  0  0  0  0
  148.2569  138.6138  155.3768 O   0  0  0  0  0  0  0  0  0  0  0  0
  149.6387  142.1254  156.3716 N   0  0  0  0  0  0  0  0  0  0  0  0
  149.2487  142.7720  157.6224 C   0  0  0  0  0  0  0  0  0  0  0  0
  150.4489  143.3542  158.4133 C   0  0  0  0  0  0  0  0  0  0  0  0
  151.3367  144.2700  157.5247 C   0  0  0  0  0  0  0  0  0  0  0  0
  152.5422  144.8001  158.3296 C   0  0  1  0  0  0  0  0  0  0  0  0
  152.0353  145.6171  159.5364 C   0  0  0  0  0  0  0  0  0  0  0  0
  151.1749  144.7090  160.4402 C   0  0  2  0  0  0  0  0  0  0  0  0
  152.0254  143.5240  160.9424 C   0  0  0  0  0  0  0  0  0  0  0  0
  152.5308  142.7137  159.7309 C   0  0  2  0  0  0  0  0  0  0  0  0
  153.3952  143.6151  158.8258 C   0  0  0  0  0  0  0  0  0  0  0  0
  151.3253  142.1816  158.9274 C   0  0  0  0  0  0  0  0  0  0  0  0
  149.9664  144.1777  159.6391 C   0  0  0  0  0  0  0  0  0  0  0  0
  148.7036  140.7114  153.5232 H   0  0  0  0  0  0  0  0  0  0  0  0
  150.1902  141.5392  153.8507 H   0  0  0  0  0  0  0  0  0  0  0  0
  151.9641  140.4194  154.0145 H   0  0  0  0  0  0  0  0  0  0  0  0
  153.2985  138.3888  154.5621 H   0  0  0  0  0  0  0  0  0  0  0  0
  150.6260  142.1040  156.1622 H   0  0  0  0  0  0  0  0  0  0  0  0
  148.5564  143.5748  157.3666 H   0  0  0  0  0  0  0  0  0  0  0  0
  148.6815  142.0817  158.2495 H   0  0  0  0  0  0  0  0  0  0  0  0
  151.6845  143.7233  156.6472 H   0  0  0  0  0  0  0  0  0  0  0  0
  150.7647  145.1186  157.1487 H   0  0  0  0  0  0  0  0  0  0  0  0
  153.1500  145.4402  157.6894 H   0  0  0  0  0  0  0  0  0  0  0  0
  152.8772  146.0225  160.0991 H   0  0  0  0  0  0  0  0  0  0  0  0
  151.4517  146.4730  159.1949 H   0  0  0  0  0  0  0  0  0  0  0  0
  150.8174  145.2841  161.2948 H   0  0  0  0  0  0  0  0  0  0  0  0
  152.8676  143.8861  161.5334 H   0  0  0  0  0  0  0  0  0  0  0  0
  151.4354  142.8880  161.6036 H   0  0  0  0  0  0  0  0  0  0  0  0
  153.1302  141.8735  160.0824 H   0  0  0  0  0  0  0  0  0  0  0  0
  153.7788  143.0446  157.9789 H   0  0  0  0  0  0  0  0  0  0  0  0
  154.2656  143.9786  159.3735 H   0  0  0  0  0  0  0  0  0  0  0  0
  150.7327  141.5133  159.5537 H   0  0  0  0  0  0  0  0  0  0  0  0
  151.6787  141.5790  158.0895 H   0  0  0  0  0  0  0  0  0  0  0  0
  149.3481  145.0178  159.3201 H   0  0  0  0  0  0  0  0  0  0  0  0
  149.3364  143.5626  160.2831 H   0  0  0  0  0  0  0  0  0  0  0  0
  1  2  2  0  0  0  0
  2  3  1  0  0  0  0
  2 12  1  0  0  0  0
  3  4  1  0  0  0  0
  3 24  1  0  0  0  0
  3 25  1  0  0  0  0
  4 10  1  0  0  0  0
  4  5  1  0  0  0  0
  5  6  2  0  0  0  0
  5 26  1  0  0  0  0
  6  7  1  0  0  0  0
  6 27  1  0  0  0  0
  7  8  2  0  0  0  0
  7  9  1  0  0  0  0
  9 10  1  0  0  0  0
 10 11  2  0  0  0  0
 12 13  1  0  0  0  0
 12 28  1  0  0  0  0
 13 14  1  0  0  0  0
 13 29  1  0  0  0  0
 13 30  1  0  0  0  0
 14 22  1  0  0  0  0
 14 23  1  0  0  0  0
 14 15  1  0  0  0  0
 15 16  1  0  0  0  0
 15 31  1  0  0  0  0
 15 32  1  0  0  0  0
 16 21  1  0  0  0  0
 16 17  1  0  0  0  0
 16 33  1  0  0  0  0
 17 18  1  0  0  0  0
 17 34  1  0  0  0  0
 17 35  1  0  0  0  0
 18 19  1  0  0  0  0
 18 23  1  0  0  0  0
 18 36  1  0  0  0  0
 19 20  1  0  0  0  0
 19 37  1  0  0  0  0
 19 38  1  0  0  0  0
 20 21  1  0  0  0  0
 20 22  1  0  0  0  0
 20 39  1  0  0  0  0
 21 40  1  0  0  0  0
 21 41  1  0  0  0  0
 22 42  1  0  0  0  0
 22 43  1  0  0  0  0
 23 44  1  0  0  0  0
 23 45  1  0  0  0  0
M  CHG  1   9  -1
M  END
> <s_m_source_file>
AV-unprocessed.smi

> <i_m_source_file_index>
924

> <i_lp_mmshare_version>
43012

> <i_f3d_flags>
0

> <s_epik_input>
Tz1jMVtuSF1jKD1PKVtjSF1bY0hdbjFbQ0gyXUMoPU8pW05IXVtDSDJdQzIzW0NIMl1bQ0BIXTRbQ0gyXVtDQEBIXShbQ0gyXTMpW0NIMl1bQ0BIXShbQ0gyXTQpW0NIMl0y

> <s_epik_cmdline>
J2VwaWtfcHl0aG9uJywgJy1waCcsICc3LjAnLCAnLXRuJywgJzgnLCAnLW1hJywgJzIwMCcsICctbWV0YWxfYmluZGluZycsICctaW1hZScsICc8aW5maWxlLm1hZT4nLCAnLW9tYWUnLCAnPG91dGZpbGUubWFlPic=

> <r_lp_tautomer_probability>
0.999537

> <r_epik_Ionization_Penalty>
3.12434

> <r_epik_Ionization_Penalty_Charging>
2.83226e-08

> <r_epik_Ionization_Penalty_Neutral>
3.12434

> <r_epik_State_Penalty>
3.12343

> <r_epik_Charging_Adjusted_Penalty>
3.12343

> <i_epik_Tot_Q>
-1

> <i_epik_Tot_abs_Q>
1

> <r_epik_Metal_State_Penalty>
0.463885

> <b_epik_Metal_Only>
1

> <s_lp_Force_Field>
OPLS_2005

> <r_lp_Energy>
43.5062

> <b_lp_Chiralities_Consistent>
1

> <s_lp_Variant>
AV-unprocessed.smi:924-2

> <Gold.Version>
5.8.1

> <Gold.Id.Protein>
6NUR|6NUR_protein|mol2

> <Gold.PLP.Fitness>
48.8554

> <Gold.PLP.PLP>
-46.2915

> <Gold.PLP.part.hbond>
-2.0000

> <Gold.PLP.part.metal>
0.0000

> <Gold.PLP.part.buried>
0.1571

> <Gold.PLP.part.nonpolar>
-43.5241

> <Gold.PLP.part.repulsive>
0.2380

> <Gold.PLP.ligand.clash>
0.0000

> <Gold.PLP.ligand.torsion>
0.2234

> <Gold.PLP.Chemscore.Hbond>
1.0000

> <Gold.PLP.Chemscore.CHOScore>
0.0000

> <Gold.PLP.Chemscore.Metal>
0.0000

> <Gold.Chemscore.Hbonds>
donor molecule, donor type, donor heavy atom, donor atom, acceptor molecule, acceptor atom, score
      P1  H 10752 10763       L1     8  0.52

> <Gold.PLP.Chemscore.Internal.Correction>
0.0106

> <Gold.Rescore>
     Score         DG    S(hbond)    S(metal)    S(lipo)     H(rot)  DE(clash)    DE(int)     intcor
     19.37     -20.05       0.99        0.00     137.64       1.90       0.31       0.37       ----

> <Gold.Chemscore.Fitness>
19.3691

> <Gold.Chemscore.DG>
-20.0510

> <Gold.Chemscore.ZeroCoef>
-5.4800

> <Gold.Chemscore.Hbond>
0.9943

> <Gold.Chemscore.Metal>
0.0000

> <Gold.Chemscore.Lipo>
137.6372

> <Gold.Chemscore.Internal_Hbond>
0.0000

> <Gold.Chemscore.DEClash>
0.3122

> <Gold.Chemscore.DEInternal>
0.3697

> <Gold.Chemscore.Rot>
1.8959

> <Gold.Chemscore.Internal.Correction>
   9.000000E+99

> <Gold.Chemscore.Hbonds>
donor molecule, donor type, donor heavy atom, donor atom, acceptor molecule, acceptor atom, score
      P1  H 10752 10763       L1     8  0.52

> <Gold.Chemscore.Hbond.Weighted>
-3.3209

> <Gold.Chemscore.Metal.Weighted>
-0.0000

> <Gold.Chemscore.Lipo.Weighted>
-16.1036

> <Gold.Chemscore.Internal_Hbond.Weighted>
0.0000

> <Gold.Chemscore.DEClash.Weighted>
0.3122

> <Gold.Chemscore.DEInternal.Weighted>
0.3697

> <Gold.Chemscore.Rot.Weighted>
4.8535

> <Gold.Chemscore.Internal.Correction.Weighted>
   9.000000E+99

> <Gold.Protein.RotatedTorsions>
[ 6907 6896 6895 6894 ] final  -21.50 input  -60.11 | X-H torsion
[ 7974 7965 7964 7962 ] final   47.13 input  175.53 | X-H torsion
[ 8008 7997 7996 7995 ] final -109.39 input   59.86 | X-H torsion
[ 10167 10162 10161 10158 ] final -132.74 input  -65.29 | X-H torsion
[ 10718 10713 10712 10709 ] final   58.87 input   66.30 | X-H torsion
[ 10763 10752 10751 10750 ] final   73.06 input  -60.55 | X-H torsion
[ 11005 11000 10999 10996 ] final  129.23 input  -57.11 | X-H torsion

> <Gold.Protein.ActiveResidues>
 VAL166  LYS551  ARG553  GLY616  TRP617  ASP618  TYR619  PRO620  LYS621  CYS622 
 ASP623  PHE694  ASN695  SER759  ASP760  ASP761  ALA762  ILE779  LEU786  VAL792 
 PHE793  MET794  SER795  GLU796  ALA797  LYS798  CYS799  TRP800  GLU811  SER814 

> <Gold.Protein.RotatedAtoms>
  151.2325  135.0559  159.8992 H   0  0  0  0  0  0  0  0  0  0  0  0  # atno 6907 bound_to 6896
  152.5403  134.0522  159.8125 H   0  0  0  0  0  0  0  0  0  0  0  0  # atno 6908 bound_to 6896
  151.0704  133.5422  159.2659 H   0  0  0  0  0  0  0  0  0  0  0  0  # atno 6909 bound_to 6896
  146.0326  139.4782  142.9828 H   0  0  0  0  0  0  0  0  0  0  0  0  # atno 7974 bound_to 7965
  154.9586  140.0399  157.2179 H   0  0  0  0  0  0  0  0  0  0  0  0  # atno 8008 bound_to 7997
  154.7910  140.2835  155.5969 H   0  0  0  0  0  0  0  0  0  0  0  0  # atno 8009 bound_to 7997
  156.2949  140.2573  156.2758 H   0  0  0  0  0  0  0  0  0  0  0  0  # atno 8010 bound_to 7997
  139.9055  143.6557  152.2586 H   0  0  0  0  0  0  0  0  0  0  0  0  # atno 10167 bound_to 10162
  157.5631  130.8850  149.9143 H   0  0  0  0  0  0  0  0  0  0  0  0  # atno 10718 bound_to 10713
  153.0497  135.5077  154.7836 H   0  0  0  0  0  0  0  0  0  0  0  0  # atno 10763 bound_to 10752
  154.6708  135.2953  154.9746 H   0  0  0  0  0  0  0  0  0  0  0  0  # atno 10764 bound_to 10752
  154.0565  135.6697  153.4859 H   0  0  0  0  0  0  0  0  0  0  0  0  # atno 10765 bound_to 10752
  139.9604  134.9603  156.9117 H   0  0  0  0  0  0  0  0  0  0  0  0  # atno 11005 bound_to 11000
  145.7016  141.0134  143.1501 LP  0  0  0  0  0  0  0  0  0  0  0  0  # atno 17320 bound_to 7965
  144.7037  139.8651  143.7436 LP  0  0  0  0  0  0  0  0  0  0  0  0  # atno 17321 bound_to 7965
  139.6988  144.7638  151.1309 LP  0  0  0  0  0  0  0  0  0  0  0  0  # atno 17342 bound_to 10162
  140.7697  143.5486  150.9230 LP  0  0  0  0  0  0  0  0  0  0  0  0  # atno 17343 bound_to 10162
  156.0681  130.3689  150.0834 LP  0  0  0  0  0  0  0  0  0  0  0  0  # atno 17370 bound_to 10713
  156.8996  130.9615  151.3578 LP  0  0  0  0  0  0  0  0  0  0  0  0  # atno 17371 bound_to 10713
  140.5514  134.0624  155.7370 LP  0  0  0  0  0  0  0  0  0  0  0  0  # atno 17394 bound_to 11000
  141.1280  133.9350  157.2595 LP  0  0  0  0  0  0  0  0  0  0  0  0  # atno 17395 bound_to 11000

$$$$
