AV-unprocessed.smi:270|AV-procd|sdf|2045|dock4
  -GOLD-   2262021273D 1   1.00000     0.00000
 Structure written by MMmdl.
 54 57  0  0  0  0  0  0  0  0  1 V2000
  145.8340  135.1084  151.4704 C   0  0  0  0  0  0  0  0  0  0  0  0
  146.5550  133.7824  151.1818 C   0  0  2  0  0  0  0  0  0  0  0  0
  145.8213  133.1064  150.1636 O   0  0  0  0  0  0  0  0  0  0  0  0
  145.9556  131.7087  150.3514 C   0  0  0  0  0  0  0  0  0  0  0  0
  145.8706  131.5726  151.8637 C   0  0  0  0  0  0  0  0  0  0  0  0
  146.6680  132.7750  152.3615 C   0  0  1  0  0  0  0  0  0  0  0  0
  148.0272  132.3820  152.4605 O   0  0  0  0  0  0  0  0  0  0  0  0
  146.2163  133.2877  153.7546 C   0  0  0  0  0  0  0  0  0  0  0  0
  146.9649  134.4481  154.2146 N   0  0  0  0  0  0  0  0  0  0  0  0
  146.4975  135.7372  154.3321 C   0  0  0  0  0  0  0  0  0  0  0  0
  147.3665  136.6061  154.7705 N   0  0  0  0  0  0  0  0  0  0  0  0
  148.5231  135.8623  154.9750 C   0  0  0  0  0  0  0  0  0  0  0  0
  149.8332  136.1838  155.4370 C   0  0  0  0  0  0  0  0  0  0  0  0
  150.2477  137.4874  155.8363 N   0  0  0  0  0  0  0  0  0  0  0  0
  150.4566  138.4551  154.7693 C   0  0  0  0  0  0  0  0  0  0  0  0
  151.7142  138.8973  155.5245 C   0  0  0  0  0  0  0  0  0  0  0  0
  151.5365  140.0702  156.3033 O   0  0  0  0  0  0  0  0  0  0  0  0
  152.3282  140.0761  157.4803 C   0  0  0  0  0  0  0  0  0  0  0  0
  152.1250  141.4119  158.2047 C   0  0  0  0  0  0  0  0  0  0  0  0
  151.3277  142.2189  157.7251 O   0  0  0  0  0  0  0  0  0  0  0  0
  152.8157  141.6588  159.3427 N   0  0  0  0  0  0  0  0  0  0  0  0
  152.6545  142.8851  160.1293 C   0  0  0  0  0  0  0  0  0  0  0  0
  153.7649  140.6759  159.8718 C   0  0  0  0  0  0  0  0  0  0  0  0
  151.5978  137.6275  156.3691 C   0  0  0  0  0  0  0  0  0  0  0  0
  150.7064  135.1454  155.5364 N   0  0  0  0  0  0  0  0  0  0  0  0
  150.3501  133.9056  155.1891 C   0  0  0  0  0  0  0  0  0  0  0  0
  149.1757  133.4749  154.7291 N   0  0  0  0  0  0  0  0  0  0  0  0
  148.2811  134.4987  154.6400 C   0  0  0  0  0  0  0  0  0  0  0  0
  146.3498  135.6844  152.2388 H   0  0  0  0  0  0  0  0  0  0  0  0
  144.8073  134.9430  151.7976 H   0  0  0  0  0  0  0  0  0  0  0  0
  145.7939  135.7258  150.5729 H   0  0  0  0  0  0  0  0  0  0  0  0
  147.5442  134.0104  150.7801 H   0  0  0  0  0  0  0  0  0  0  0  0
  145.1736  131.1547  149.8320 H   0  0  0  0  0  0  0  0  0  0  0  0
  146.9254  131.3758  149.9781 H   0  0  0  0  0  0  0  0  0  0  0  0
  144.8260  131.6653  152.1627 H   0  0  0  0  0  0  0  0  0  0  0  0
  146.2384  130.6138  152.2320 H   0  0  0  0  0  0  0  0  0  0  0  0
  148.2960  132.0224  151.6290 H   0  0  0  0  0  0  0  0  0  0  0  0
  145.1577  133.5507  153.7403 H   0  0  0  0  0  0  0  0  0  0  0  0
  146.3285  132.5048  154.5048 H   0  0  0  0  0  0  0  0  0  0  0  0
  145.4854  136.0155  154.0766 H   0  0  0  0  0  0  0  0  0  0  0  0
  150.6798  137.9971  153.8045 H   0  0  0  0  0  0  0  0  0  0  0  0
  149.6689  139.2062  154.7058 H   0  0  0  0  0  0  0  0  0  0  0  0
  152.6170  138.9119  154.9116 H   0  0  0  0  0  0  0  0  0  0  0  0
  152.0209  139.2577  158.1336 H   0  0  0  0  0  0  0  0  0  0  0  0
  153.3844  139.9240  157.2556 H   0  0  0  0  0  0  0  0  0  0  0  0
  153.0128  143.7502  159.5705 H   0  0  0  0  0  0  0  0  0  0  0  0
  153.2081  142.8529  161.0681 H   0  0  0  0  0  0  0  0  0  0  0  0
  151.6092  143.0528  160.3905 H   0  0  0  0  0  0  0  0  0  0  0  0
  153.2295  139.8717  160.3779 H   0  0  0  0  0  0  0  0  0  0  0  0
  154.4622  141.1155  160.5855 H   0  0  0  0  0  0  0  0  0  0  0  0
  154.3689  140.2344  159.0774 H   0  0  0  0  0  0  0  0  0  0  0  0
  151.6278  137.7945  157.4461 H   0  0  0  0  0  0  0  0  0  0  0  0
  152.2879  136.8466  156.0459 H   0  0  0  0  0  0  0  0  0  0  0  0
  151.1154  133.1513  155.2976 H   0  0  0  0  0  0  0  0  0  0  0  0
  1  2  1  0  0  0  0
  1 29  1  0  0  0  0
  1 30  1  0  0  0  0
  1 31  1  0  0  0  0
  2  6  1  0  0  0  0
  2  3  1  0  0  0  0
  2 32  1  0  0  0  0
  3  4  1  0  0  0  0
  4  5  1  0  0  0  0
  4 33  1  0  0  0  0
  4 34  1  0  0  0  0
  5  6  1  0  0  0  0
  5 35  1  0  0  0  0
  5 36  1  0  0  0  0
  6  7  1  0  0  0  0
  6  8  1  0  0  0  0
  7 37  1  0  0  0  0
  8  9  1  0  0  0  0
  8 38  1  0  0  0  0
  8 39  1  0  0  0  0
  9 28  1  0  0  0  0
  9 10  1  0  0  0  0
 10 11  2  0  0  0  0
 10 40  1  0  0  0  0
 11 12  1  0  0  0  0
 12 28  2  0  0  0  0
 12 13  1  0  0  0  0
 13 14  1  0  0  0  0
 13 25  2  0  0  0  0
 14 24  1  0  0  0  0
 14 15  1  0  0  0  0
 15 16  1  0  0  0  0
 15 41  1  0  0  0  0
 15 42  1  0  0  0  0
 16 17  1  0  0  0  0
 16 24  1  0  0  0  0
 16 43  1  0  0  0  0
 17 18  1  0  0  0  0
 18 19  1  0  0  0  0
 18 44  1  0  0  0  0
 18 45  1  0  0  0  0
 19 20  2  0  0  0  0
 19 21  1  0  0  0  0
 21 22  1  0  0  0  0
 21 23  1  0  0  0  0
 22 46  1  0  0  0  0
 22 47  1  0  0  0  0
 22 48  1  0  0  0  0
 23 49  1  0  0  0  0
 23 50  1  0  0  0  0
 23 51  1  0  0  0  0
 24 52  1  0  0  0  0
 24 53  1  0  0  0  0
 25 26  1  0  0  0  0
 26 27  2  0  0  0  0
 26 54  1  0  0  0  0
 27 28  1  0  0  0  0
M  END
> <s_m_source_file>
AV-unprocessed.smi

> <i_m_source_file_index>
270

> <i_lp_mmshare_version>
43012

> <i_f3d_flags>
0

> <s_epik_input>
W0NIMl0xW0NIMl1PW0NAQEhdKFtDSDNdKVtDQEBdMShbT0hdKVtDSDJdbihbY0hdbjIpYyhjMjMpbltjSF1uYzNONFtDSDJdW0NIXShbQ0gyXTQpT1tDSDJdQyg9TylOKFtDSDNdKVtDSDNd

> <s_epik_cmdline>
J2VwaWtfcHl0aG9uJywgJy1waCcsICc3LjAnLCAnLXRuJywgJzgnLCAnLW1hJywgJzIwMCcsICctbWV0YWxfYmluZGluZycsICctaW1hZScsICc8aW5maWxlLm1hZT4nLCAnLW9tYWUnLCAnPG91dGZpbGUubWFlPic=

> <r_lp_tautomer_probability>
1

> <r_epik_Ionization_Penalty>
0.00375854

> <r_epik_Ionization_Penalty_Charging>
0

> <r_epik_Ionization_Penalty_Neutral>
0.00375854

> <r_epik_State_Penalty>
-0

> <r_epik_Charging_Adjusted_Penalty>
0

> <i_epik_Tot_Q>
0

> <i_epik_Tot_abs_Q>
0

> <r_epik_Metal_State_Penalty>
-0

> <b_epik_Metal_Only>
0

> <s_lp_Force_Field>
OPLS_2005

> <r_lp_Energy>
54.2687

> <b_lp_Chiralities_Consistent>
1

> <s_lp_Variant>
AV-unprocessed.smi:270-1

> <Gold.Version>
5.8.1

> <Gold.Id.Protein>
6NUR|6NUR_protein|mol2

> <Gold.PLP.Fitness>
42.1524

> <Gold.PLP.PLP>
-38.6067

> <Gold.PLP.part.hbond>
-1.4081

> <Gold.PLP.part.metal>
0.0000

> <Gold.PLP.part.buried>
-6.6903

> <Gold.PLP.part.nonpolar>
-30.5651

> <Gold.PLP.part.repulsive>
0.6625

> <Gold.PLP.ligand.clash>
0.0000

> <Gold.PLP.ligand.torsion>
0.5069

> <Gold.PLP.Chemscore.Hbond>
1.3900

> <Gold.PLP.Chemscore.CHOScore>
0.0000

> <Gold.PLP.Chemscore.Metal>
0.0000

> <Gold.Chemscore.Hbonds>
donor molecule, donor type, donor heavy atom, donor atom, acceptor molecule, acceptor atom, score
      L1  H     7    37       P1 10747  1.00
      P1  H 10752 10763       L1    25  0.03

> <Gold.PLP.Chemscore.Internal.Correction>
0.3896

> <Gold.Rescore>
     Score         DG    S(hbond)    S(metal)    S(lipo)     H(rot)  DE(clash)    DE(int)     intcor
      7.76     -11.29       1.09        0.00      86.87       3.12       0.56       2.97       ----

> <Gold.Chemscore.Fitness>
7.7614

> <Gold.Chemscore.DG>
-11.2929

> <Gold.Chemscore.ZeroCoef>
-5.4800

> <Gold.Chemscore.Hbond>
1.0912

> <Gold.Chemscore.Metal>
0.0000

> <Gold.Chemscore.Lipo>
86.8718

> <Gold.Chemscore.Internal_Hbond>
0.0000

> <Gold.Chemscore.DEClash>
0.5567

> <Gold.Chemscore.DEInternal>
2.9749

> <Gold.Chemscore.Rot>
3.1234

> <Gold.Chemscore.Internal.Correction>
   9.000000E+99

> <Gold.Chemscore.Hbonds>
donor molecule, donor type, donor heavy atom, donor atom, acceptor molecule, acceptor atom, score
      L1  H     7    37       P1 10747  1.00
      P1  H 10752 10763       L1    25  0.05

> <Gold.Chemscore.Hbond.Weighted>
-3.6448

> <Gold.Chemscore.Metal.Weighted>
-0.0000

> <Gold.Chemscore.Lipo.Weighted>
-10.1640

> <Gold.Chemscore.Internal_Hbond.Weighted>
0.0000

> <Gold.Chemscore.DEClash.Weighted>
0.5567

> <Gold.Chemscore.DEInternal.Weighted>
2.9749

> <Gold.Chemscore.Rot.Weighted>
7.9959

> <Gold.Chemscore.Internal.Correction.Weighted>
   9.000000E+99

> <Gold.Protein.RotatedTorsions>
[ 6907 6896 6895 6894 ] final  -71.02 input  -60.11 | X-H torsion
[ 7974 7965 7964 7962 ] final  149.27 input  175.53 | X-H torsion
[ 8008 7997 7996 7995 ] final  -75.92 input   59.86 | X-H torsion
[ 10167 10162 10161 10158 ] final -118.54 input  -65.29 | X-H torsion
[ 10718 10713 10712 10709 ] final  104.29 input   66.30 | X-H torsion
[ 10763 10752 10751 10750 ] final   69.48 input  -60.55 | X-H torsion
[ 11005 11000 10999 10996 ] final   31.12 input  -57.11 | X-H torsion

> <Gold.Protein.ActiveResidues>
 VAL166  LYS551  ARG553  GLY616  TRP617  ASP618  TYR619  PRO620  LYS621  CYS622 
 ASP623  PHE694  ASN695  SER759  ASP760  ASP761  ALA762  ILE779  LEU786  VAL792 
 PHE793  MET794  SER795  GLU796  ALA797  LYS798  CYS799  TRP800  GLU811  SER814 

> <Gold.Protein.RotatedAtoms>
  150.7231  134.5369  159.5727 H   0  0  0  0  0  0  0  0  0  0  0  0  # atno 6907 bound_to 6896
  152.2889  134.7742  160.0391 H   0  0  0  0  0  0  0  0  0  0  0  0  # atno 6908 bound_to 6896
  151.8362  133.3381  159.3665 H   0  0  0  0  0  0  0  0  0  0  0  0  # atno 6909 bound_to 6896
  144.8451  139.6259  143.5999 H   0  0  0  0  0  0  0  0  0  0  0  0  # atno 7974 bound_to 7965
  154.5459  140.0736  156.8588 H   0  0  0  0  0  0  0  0  0  0  0  0  # atno 8008 bound_to 7997
  155.3088  140.3389  155.4226 H   0  0  0  0  0  0  0  0  0  0  0  0  # atno 8009 bound_to 7997
  156.1918  140.1689  156.8064 H   0  0  0  0  0  0  0  0  0  0  0  0  # atno 8010 bound_to 7997
  140.0564  143.5010  152.2055 H   0  0  0  0  0  0  0  0  0  0  0  0  # atno 10167 bound_to 10162
  157.6745  131.0800  150.5684 H   0  0  0  0  0  0  0  0  0  0  0  0  # atno 10718 bound_to 10713
  153.0289  135.5209  154.7295 H   0  0  0  0  0  0  0  0  0  0  0  0  # atno 10763 bound_to 10752
  154.6327  135.2902  155.0200 H   0  0  0  0  0  0  0  0  0  0  0  0  # atno 10764 bound_to 10752
  154.1146  135.6617  153.4944 H   0  0  0  0  0  0  0  0  0  0  0  0  # atno 10765 bound_to 10752
  140.2873  134.2905  155.7785 H   0  0  0  0  0  0  0  0  0  0  0  0  # atno 11005 bound_to 11000
  146.2737  139.6698  142.9278 LP  0  0  0  0  0  0  0  0  0  0  0  0  # atno 17320 bound_to 7965
  145.4614  141.0433  143.2749 LP  0  0  0  0  0  0  0  0  0  0  0  0  # atno 17321 bound_to 7965
  139.5921  144.7554  151.3376 LP  0  0  0  0  0  0  0  0  0  0  0  0  # atno 17342 bound_to 10162
  140.7192  143.7181  150.7717 LP  0  0  0  0  0  0  0  0  0  0  0  0  # atno 17343 bound_to 10162
  156.5986  130.4348  149.5906 LP  0  0  0  0  0  0  0  0  0  0  0  0  # atno 17370 bound_to 10713
  156.2525  130.6915  151.1658 LP  0  0  0  0  0  0  0  0  0  0  0  0  # atno 17371 bound_to 10713
  141.2152  133.7563  156.9571 LP  0  0  0  0  0  0  0  0  0  0  0  0  # atno 17394 bound_to 11000
  140.1228  134.9406  157.2228 LP  0  0  0  0  0  0  0  0  0  0  0  0  # atno 17395 bound_to 11000

$$$$
