AV-unprocessed.smi:1761|AV-procd|sdf|7097|dock2
  -GOLD-   22720 8313D 1   1.00000     0.00000
 Structure written by MMmdl.
 34 35  0  0  0  0  0  0  0  0  1 V2000
  150.6479  140.6322  156.6046 O   0  0  0  0  0  0  0  0  0  0  0  0
  150.1205  141.7276  156.4094 C   0  0  0  0  0  0  0  0  0  0  0  0
  150.3160  142.8299  157.1543 N   0  0  0  0  0  0  0  0  0  0  0  0
  151.1252  142.9758  158.3130 C   0  0  0  0  0  0  0  0  0  0  0  0
  151.3014  144.3063  158.7559 C   0  0  0  0  0  0  0  0  0  0  0  0
  152.0829  144.5583  159.9002 C   0  0  0  0  0  0  0  0  0  0  0  0
  152.6686  143.4717  160.5738 C   0  0  0  0  0  0  0  0  0  0  0  0
  152.4442  142.1787  160.0665 C   0  0  0  0  0  0  0  0  0  0  0  0
  151.6959  141.9350  158.9697 N   0  0  0  0  0  0  0  0  0  0  0  0
  149.2617  141.9660  155.4072 N   0  0  0  0  0  0  0  0  0  0  0  0
  148.8239  140.9838  154.4170 C   0  0  2  0  0  0  0  0  0  0  0  0
  147.5968  141.5076  153.6457 C   0  0  0  0  0  0  0  0  0  0  0  0
  147.1253  140.4913  152.5928 C   0  0  0  0  0  0  0  0  0  0  0  0
  146.8317  139.1225  153.2271 C   0  0  0  0  0  0  0  0  0  0  0  0
  148.0454  138.5916  154.0115 C   0  0  0  0  0  0  0  0  0  0  0  0
  148.5494  139.6019  155.0605 C   0  0  2  0  0  0  0  0  0  0  0  0
  147.5893  139.7089  156.0961 O   0  0  0  0  0  0  0  0  0  0  0  0
  149.8200  143.6596  156.8649 H   0  0  0  0  0  0  0  0  0  0  0  0
  150.8428  145.1296  158.2278 H   0  0  0  0  0  0  0  0  0  0  0  0
  152.2286  145.5679  160.2549 H   0  0  0  0  0  0  0  0  0  0  0  0
  153.2733  143.6251  161.4553 H   0  0  0  0  0  0  0  0  0  0  0  0
  152.8760  141.3171  160.5538 H   0  0  0  0  0  0  0  0  0  0  0  0
  148.8764  142.8950  155.3217 H   0  0  0  0  0  0  0  0  0  0  0  0
  149.6296  140.8616  153.6902 H   0  0  0  0  0  0  0  0  0  0  0  0
  146.7811  141.7199  154.3381 H   0  0  0  0  0  0  0  0  0  0  0  0
  147.8385  142.4518  153.1564 H   0  0  0  0  0  0  0  0  0  0  0  0
  146.2335  140.8654  152.0892 H   0  0  0  0  0  0  0  0  0  0  0  0
  147.8909  140.3803  151.8239 H   0  0  0  0  0  0  0  0  0  0  0  0
  145.9718  139.2064  153.8928 H   0  0  0  0  0  0  0  0  0  0  0  0
  146.5506  138.4081  152.4530 H   0  0  0  0  0  0  0  0  0  0  0  0
  147.7967  137.6431  154.4894 H   0  0  0  0  0  0  0  0  0  0  0  0
  148.8529  138.3755  153.3107 H   0  0  0  0  0  0  0  0  0  0  0  0
  149.4661  139.2154  155.5074 H   0  0  0  0  0  0  0  0  0  0  0  0
  146.8774  140.2475  155.7867 H   0  0  0  0  0  0  0  0  0  0  0  0
  1  2  2  0  0  0  0
  2  3  1  0  0  0  0
  2 10  1  0  0  0  0
  3  4  1  0  0  0  0
  3 18  1  0  0  0  0
  4  9  1  0  0  0  0
  4  5  2  0  0  0  0
  5  6  1  0  0  0  0
  5 19  1  0  0  0  0
  6  7  2  0  0  0  0
  6 20  1  0  0  0  0
  7  8  1  0  0  0  0
  7 21  1  0  0  0  0
  8  9  2  0  0  0  0
  8 22  1  0  0  0  0
 10 11  1  0  0  0  0
 10 23  1  0  0  0  0
 11 16  1  0  0  0  0
 11 12  1  0  0  0  0
 11 24  1  0  0  0  0
 12 13  1  0  0  0  0
 12 25  1  0  0  0  0
 12 26  1  0  0  0  0
 13 14  1  0  0  0  0
 13 27  1  0  0  0  0
 13 28  1  0  0  0  0
 14 15  1  0  0  0  0
 14 29  1  0  0  0  0
 14 30  1  0  0  0  0
 15 16  1  0  0  0  0
 15 31  1  0  0  0  0
 15 32  1  0  0  0  0
 16 17  1  0  0  0  0
 16 33  1  0  0  0  0
 17 34  1  0  0  0  0
M  END
> <s_m_source_file>
AV-unprocessed.smi

> <i_m_source_file_index>
1761

> <i_lp_mmshare_version>
43012

> <i_f3d_flags>
0

> <s_epik_input>
bjFbY0hdW2NIXVtjSF1bY0hdYzFbTkhdQyg9TylbTkhdW0NAQEhdMltDSDJdW0NIMl1bQ0gyXVtDSDJdW0NASF0yW09IXQ==

> <s_epik_cmdline>
J2VwaWtfcHl0aG9uJywgJy1waCcsICc3LjAnLCAnLXRuJywgJzgnLCAnLW1hJywgJzIwMCcsICctbWV0YWxfYmluZGluZycsICctaW1hZScsICc8aW5maWxlLm1hZT4nLCAnLW9tYWUnLCAnPG91dGZpbGUubWFlPic=

> <r_lp_tautomer_probability>
1

> <r_epik_Ionization_Penalty>
4.92589e-05

> <r_epik_Ionization_Penalty_Charging>
0

> <r_epik_Ionization_Penalty_Neutral>
4.92589e-05

> <r_epik_State_Penalty>
-0

> <r_epik_Charging_Adjusted_Penalty>
0

> <i_epik_Tot_Q>
0

> <i_epik_Tot_abs_Q>
0

> <r_epik_Metal_State_Penalty>
-0

> <b_epik_Metal_Only>
0

> <s_lp_Force_Field>
OPLS_2005

> <r_lp_Energy>
15.389

> <b_lp_Chiralities_Consistent>
1

> <s_lp_Variant>
AV-unprocessed.smi:1761-3

> <Gold.Version>
5.8.1

> <Gold.Id.Protein>
6NUR|6NUR_protein|mol2

> <Gold.PLP.Fitness>
39.5772

> <Gold.PLP.PLP>
-34.0294

> <Gold.PLP.part.hbond>
-2.0000

> <Gold.PLP.part.metal>
0.0000

> <Gold.PLP.part.buried>
-4.2997

> <Gold.PLP.part.nonpolar>
-28.6495

> <Gold.PLP.part.repulsive>
0.2026

> <Gold.PLP.ligand.clash>
0.0000

> <Gold.PLP.ligand.torsion>
0.2327

> <Gold.PLP.Chemscore.Hbond>
2.0000

> <Gold.PLP.Chemscore.CHOScore>
0.0000

> <Gold.PLP.Chemscore.Metal>
0.0000

> <Gold.Chemscore.Hbonds>
donor molecule, donor type, donor heavy atom, donor atom, acceptor molecule, acceptor atom, score
      L1  H     3    18       P1  8028  1.00
      L1  H    10    23       P1  8028  1.00

> <Gold.PLP.Chemscore.Internal.Correction>
0.0133

> <Gold.Rescore>
     Score         DG    S(hbond)    S(metal)    S(lipo)     H(rot)  DE(clash)    DE(int)     intcor
     15.57     -18.42       1.95        0.00      87.09       1.47       0.11       2.74       ----

> <Gold.Chemscore.Fitness>
15.5711

> <Gold.Chemscore.DG>
-18.4170

> <Gold.Chemscore.ZeroCoef>
-5.4800

> <Gold.Chemscore.Hbond>
1.9456

> <Gold.Chemscore.Metal>
0.0000

> <Gold.Chemscore.Lipo>
87.0914

> <Gold.Chemscore.Internal_Hbond>
0.0000

> <Gold.Chemscore.DEClash>
0.1080

> <Gold.Chemscore.DEInternal>
2.7379

> <Gold.Chemscore.Rot>
1.4653

> <Gold.Chemscore.Internal.Correction>
   9.000000E+99

> <Gold.Chemscore.Hbonds>
donor molecule, donor type, donor heavy atom, donor atom, acceptor molecule, acceptor atom, score
      L1  H     3    18       P1  8028  0.97
      L1  H    10    23       P1  8028  0.98

> <Gold.Chemscore.Hbond.Weighted>
-6.4984

> <Gold.Chemscore.Metal.Weighted>
-0.0000

> <Gold.Chemscore.Lipo.Weighted>
-10.1897

> <Gold.Chemscore.Internal_Hbond.Weighted>
0.0000

> <Gold.Chemscore.DEClash.Weighted>
0.1080

> <Gold.Chemscore.DEInternal.Weighted>
2.7379

> <Gold.Chemscore.Rot.Weighted>
3.7511

> <Gold.Chemscore.Internal.Correction.Weighted>
   9.000000E+99

> <Gold.Protein.RotatedTorsions>
[ 6907 6896 6895 6894 ] final  100.82 input  -60.11 | X-H torsion
[ 7974 7965 7964 7962 ] final  -95.96 input  175.53 | X-H torsion
[ 8008 7997 7996 7995 ] final  -22.33 input   59.86 | X-H torsion
[ 10167 10162 10161 10158 ] final  -54.30 input  -65.29 | X-H torsion
[ 10718 10713 10712 10709 ] final   47.06 input   66.30 | X-H torsion
[ 10763 10752 10751 10750 ] final   90.66 input  -60.55 | X-H torsion
[ 11005 11000 10999 10996 ] final -133.42 input  -57.11 | X-H torsion

> <Gold.Protein.ActiveResidues>
 VAL166  LYS551  ARG553  GLY616  TRP617  ASP618  TYR619  PRO620  LYS621  CYS622 
 ASP623  PHE694  ASN695  SER759  ASP760  ASP761  ALA762  ILE779  LEU786  VAL792 
 PHE793  MET794  SER795  GLU796  ALA797  LYS798  CYS799  TRP800  GLU811  SER814 

> <Gold.Protein.RotatedAtoms>
  152.5363  134.0219  159.7985 H   0  0  0  0  0  0  0  0  0  0  0  0  # atno 6907 bound_to 6896
  151.0404  133.5704  159.2659 H   0  0  0  0  0  0  0  0  0  0  0  0  # atno 6908 bound_to 6896
  151.2676  135.0681  159.9175 H   0  0  0  0  0  0  0  0  0  0  0  0  # atno 6909 bound_to 6896
  145.3532  140.9480  143.2542 H   0  0  0  0  0  0  0  0  0  0  0  0  # atno 7974 bound_to 7965
  154.4650  140.2010  156.0142 H   0  0  0  0  0  0  0  0  0  0  0  0  # atno 8008 bound_to 7997
  156.0911  140.3258  155.7788 H   0  0  0  0  0  0  0  0  0  0  0  0  # atno 8009 bound_to 7997
  155.4955  140.0549  157.2938 H   0  0  0  0  0  0  0  0  0  0  0  0  # atno 8010 bound_to 7997
  140.6438  143.2523  151.4916 H   0  0  0  0  0  0  0  0  0  0  0  0  # atno 10167 bound_to 10162
  157.4545  130.8159  149.7823 H   0  0  0  0  0  0  0  0  0  0  0  0  # atno 10718 bound_to 10713
  153.1999  135.4426  155.0254 H   0  0  0  0  0  0  0  0  0  0  0  0  # atno 10763 bound_to 10752
  154.8141  135.3307  154.7227 H   0  0  0  0  0  0  0  0  0  0  0  0  # atno 10764 bound_to 10752
  153.7674  135.6987  153.4969 H   0  0  0  0  0  0  0  0  0  0  0  0  # atno 10765 bound_to 10752
  140.9082  134.1602  157.4409 H   0  0  0  0  0  0  0  0  0  0  0  0  # atno 11005 bound_to 11000
  144.8702  139.5049  143.6771 LP  0  0  0  0  0  0  0  0  0  0  0  0  # atno 17320 bound_to 7965
  146.2959  139.7277  142.9127 LP  0  0  0  0  0  0  0  0  0  0  0  0  # atno 17321 bound_to 7965
  139.5648  144.2069  152.1747 LP  0  0  0  0  0  0  0  0  0  0  0  0  # atno 17342 bound_to 10162
  140.1348  144.5256  150.6780 LP  0  0  0  0  0  0  0  0  0  0  0  0  # atno 17343 bound_to 10162
  156.0001  130.3885  150.2638 LP  0  0  0  0  0  0  0  0  0  0  0  0  # atno 17370 bound_to 10713
  157.0812  131.0144  151.3156 LP  0  0  0  0  0  0  0  0  0  0  0  0  # atno 17371 bound_to 10713
  139.8753  134.9925  156.5600 LP  0  0  0  0  0  0  0  0  0  0  0  0  # atno 17394 bound_to 11000
  140.8144  133.8403  155.8839 LP  0  0  0  0  0  0  0  0  0  0  0  0  # atno 17395 bound_to 11000

$$$$
