AV-unprocessed.smi:218|AV-procd|sdf|1666|dock8
  -GOLD-   2262020 73D 1   1.00000     0.00000
 Structure written by MMmdl.
 54 57  0  0  0  0  0  0  0  0  1 V2000
  151.5085  141.5641  158.5679 C   0  0  0  0  0  0  0  0  0  0  0  0
  150.5927  140.7838  157.6173 C   0  0  0  0  0  0  0  0  0  0  0  0
  151.1433  140.7943  156.1809 C   0  0  0  0  0  0  0  0  0  0  0  0
  149.3113  141.4153  157.6631 O   0  0  0  0  0  0  0  0  0  0  0  0
  148.1992  140.7681  157.1591 C   0  0  0  0  0  0  0  0  0  0  0  0
  148.1826  140.4380  155.7883 C   0  0  0  0  0  0  0  0  0  0  0  0
  147.0479  139.7919  155.2553 C   0  0  0  0  0  0  0  0  0  0  0  0
  146.9737  139.4351  153.7808 C   0  0  0  0  0  0  0  0  0  0  0  0
  145.6501  139.0458  153.3061 N   0  0  0  0  0  0  0  0  0  0  0  0
  145.1751  137.7988  153.5201 C   0  0  0  0  0  0  0  0  0  0  0  0
  144.6674  137.4368  154.7273 N   0  0  0  0  0  0  0  0  0  0  0  0
  144.1899  136.2022  154.9084 C   0  0  0  0  0  0  0  0  0  0  0  0
  144.1181  135.1991  154.0313 N   0  0  0  0  0  0  0  0  0  0  0  0
  144.6240  135.5568  152.8157 C   0  0  0  0  0  0  0  0  0  0  0  0
  145.1696  136.8286  152.4843 C   0  0  0  0  0  0  0  0  0  0  0  0
  145.5847  136.8318  151.1591 N   0  0  0  0  0  0  0  0  0  0  0  0
  145.2931  135.6317  150.7339 C   0  0  0  0  0  0  0  0  0  0  0  0
  144.7112  134.7996  151.6645 N   0  0  0  0  0  0  0  0  0  0  0  0
  144.2662  133.3866  151.4694 C   0  0  2  0  0  0  0  0  0  0  0  0
  144.9996  132.5761  152.3310 O   0  0  0  0  0  0  0  0  0  0  0  0
  145.2263  131.3233  151.7024 C   0  0  2  0  0  0  0  0  0  0  0  0
  146.3864  130.5706  152.3769 C   0  0  0  0  0  0  0  0  0  0  0  0
  146.8520  129.5424  151.5296 O   0  0  0  0  0  0  0  0  0  0  0  0
  145.4448  131.7023  150.2290 C   0  0  2  0  0  0  0  0  0  0  0  0
  146.7925  132.0500  149.9721 O   0  0  0  0  0  0  0  0  0  0  0  0
  144.5346  132.9126  150.0298 C   0  0  1  0  0  0  0  0  0  0  0  0
  143.3374  132.5007  149.4003 O   0  0  0  0  0  0  0  0  0  0  0  0
  145.9724  139.4994  156.1171 C   0  0  0  0  0  0  0  0  0  0  0  0
  146.0822  139.8630  157.4730 C   0  0  0  0  0  0  0  0  0  0  0  0
  147.1635  140.4857  157.9883 N   0  0  0  0  0  0  0  0  0  0  0  0
  143.2106  133.3796  151.7458 H   0  0  0  0  0  0  0  0  0  0  0  0
  144.3082  130.7356  151.7679 H   0  0  0  0  0  0  0  0  0  0  0  0
  145.1917  130.8733  149.5661 H   0  0  0  0  0  0  0  0  0  0  0  0
  145.0043  133.6959  149.4319 H   0  0  0  0  0  0  0  0  0  0  0  0
  152.5097  141.1329  158.5913 H   0  0  0  0  0  0  0  0  0  0  0  0
  151.1176  141.5483  159.5855 H   0  0  0  0  0  0  0  0  0  0  0  0
  151.6001  142.6070  158.2626 H   0  0  0  0  0  0  0  0  0  0  0  0
  150.5410  139.7596  157.9897 H   0  0  0  0  0  0  0  0  0  0  0  0
  152.1362  140.3458  156.1414 H   0  0  0  0  0  0  0  0  0  0  0  0
  151.2215  141.8123  155.7980 H   0  0  0  0  0  0  0  0  0  0  0  0
  150.5053  140.2337  155.4985 H   0  0  0  0  0  0  0  0  0  0  0  0
  149.0250  140.6828  155.1582 H   0  0  0  0  0  0  0  0  0  0  0  0
  147.3463  140.2641  153.1775 H   0  0  0  0  0  0  0  0  0  0  0  0
  147.6526  138.6013  153.6020 H   0  0  0  0  0  0  0  0  0  0  0  0
  145.1393  139.7502  152.7935 H   0  0  0  0  0  0  0  0  0  0  0  0
  143.8077  135.9888  155.8958 H   0  0  0  0  0  0  0  0  0  0  0  0
  145.4950  135.3184  149.7200 H   0  0  0  0  0  0  0  0  0  0  0  0
  147.2217  131.2486  152.5544 H   0  0  0  0  0  0  0  0  0  0  0  0
  146.0875  130.1590  153.3417 H   0  0  0  0  0  0  0  0  0  0  0  0
  147.7322  129.7555  151.2585 H   0  0  0  0  0  0  0  0  0  0  0  0
  147.3511  131.3723  150.3205 H   0  0  0  0  0  0  0  0  0  0  0  0
  142.7283  133.2230  149.4128 H   0  0  0  0  0  0  0  0  0  0  0  0
  145.0838  139.0061  155.7517 H   0  0  0  0  0  0  0  0  0  0  0  0
  145.2775  139.6523  158.1620 H   0  0  0  0  0  0  0  0  0  0  0  0
  1  2  1  0  0  0  0
  1 35  1  0  0  0  0
  1 36  1  0  0  0  0
  1 37  1  0  0  0  0
  2  3  1  0  0  0  0
  2  4  1  0  0  0  0
  2 38  1  0  0  0  0
  3 39  1  0  0  0  0
  3 40  1  0  0  0  0
  3 41  1  0  0  0  0
  4  5  1  0  0  0  0
  5 30  1  0  0  0  0
  5  6  2  0  0  0  0
  6  7  1  0  0  0  0
  6 42  1  0  0  0  0
  7  8  1  0  0  0  0
  7 28  2  0  0  0  0
  8  9  1  0  0  0  0
  8 43  1  0  0  0  0
  8 44  1  0  0  0  0
  9 10  1  0  0  0  0
  9 45  1  0  0  0  0
 10 15  1  0  0  0  0
 10 11  2  0  0  0  0
 11 12  1  0  0  0  0
 12 13  2  0  0  0  0
 12 46  1  0  0  0  0
 13 14  1  0  0  0  0
 14 18  1  0  0  0  0
 14 15  2  0  0  0  0
 15 16  1  0  0  0  0
 16 17  2  0  0  0  0
 17 18  1  0  0  0  0
 17 47  1  0  0  0  0
 18 19  1  0  0  0  0
 19 31  1  0  0  0  0
 19 26  1  0  0  0  0
 19 20  1  0  0  0  0
 20 21  1  0  0  0  0
 21 32  1  0  0  0  0
 21 22  1  0  0  0  0
 21 24  1  0  0  0  0
 22 23  1  0  0  0  0
 22 48  1  0  0  0  0
 22 49  1  0  0  0  0
 23 50  1  0  0  0  0
 24 33  1  0  0  0  0
 24 25  1  0  0  0  0
 24 26  1  0  0  0  0
 25 51  1  0  0  0  0
 26 34  1  0  0  0  0
 26 27  1  0  0  0  0
 27 52  1  0  0  0  0
 28 29  1  0  0  0  0
 28 53  1  0  0  0  0
 29 30  2  0  0  0  0
 29 54  1  0  0  0  0
M  END
> <s_m_source_file>
AV-unprocessed.smi

> <i_m_source_file_index>
218

> <i_lp_mmshare_version>
43012

> <i_f3d_flags>
0

> <s_epik_input>
W0NIM11bQ0hdKFtDSDNdKU9jMVtjSF1jKFtjSF1bY0hdbjEpW0NIMl1bTkhdYyhuW2NIXW4yKWMoYzIzKW5bY0hdbjNbQ0BASF00T1tDQEhdKFtDSDJdW09IXSlbQ0BASF0oW09IXSlbQ0BIXTRbT0hd

> <s_epik_cmdline>
J2VwaWtfcHl0aG9uJywgJy1waCcsICc3LjAnLCAnLXRuJywgJzgnLCAnLW1hJywgJzIwMCcsICctbWV0YWxfYmluZGluZycsICctaW1hZScsICc8aW5maWxlLm1hZT4nLCAnLW9tYWUnLCAnPG91dGZpbGUubWFlPic=

> <r_lp_tautomer_probability>
1

> <r_epik_Ionization_Penalty>
0.00457014

> <r_epik_Ionization_Penalty_Charging>
0

> <r_epik_Ionization_Penalty_Neutral>
0.00457014

> <r_epik_State_Penalty>
-0

> <r_epik_Charging_Adjusted_Penalty>
0

> <i_epik_Tot_Q>
0

> <i_epik_Tot_abs_Q>
0

> <r_epik_Metal_State_Penalty>
-0

> <b_epik_Metal_Only>
0

> <s_epik_Chemistry_Notes>
This compound contains an acetal/aminal-like group ( X-CH(R)-Y where X, Y are N, S, or O) that may be acid/base labile, releasing an aldehyde.

> <s_lp_Force_Field>
OPLS_2005

> <r_lp_Energy>
40.0122

> <b_lp_Chiralities_Consistent>
1

> <s_lp_Variant>
AV-unprocessed.smi:218-5

> <Gold.Version>
5.8.1

> <Gold.Id.Protein>
6NUR|6NUR_protein|mol2

> <Gold.PLP.Fitness>
50.9687

> <Gold.PLP.PLP>
-38.6654

> <Gold.PLP.part.hbond>
-5.1360

> <Gold.PLP.part.metal>
0.0000

> <Gold.PLP.part.buried>
-10.1048

> <Gold.PLP.part.nonpolar>
-25.4721

> <Gold.PLP.part.repulsive>
2.9791

> <Gold.PLP.ligand.clash>
0.0000

> <Gold.PLP.ligand.torsion>
1.2251

> <Gold.PLP.Chemscore.Hbond>
3.8960

> <Gold.PLP.Chemscore.CHOScore>
1.0000

> <Gold.PLP.Chemscore.Metal>
0.0000

> <Gold.Chemscore.Hbonds>
donor molecule, donor type, donor heavy atom, donor atom, acceptor molecule, acceptor atom, score
      L1  H     9    45       P1 10175  0.96
      L1  H    23    50       P1 10747  1.00
      L1  H    25    51       P1 10747  0.80
      L1  H    27    52       P1 10186  0.83
      L1  C    17    47       P1  7921  1.00

> <Gold.PLP.Chemscore.Internal.Correction>
0.0654

> <Gold.Rescore>
     Score         DG    S(hbond)    S(metal)    S(lipo)     H(rot)  DE(clash)    DE(int)     intcor
     11.96     -14.70       3.93        0.00      73.97       4.90       1.41       1.32       ----

> <Gold.Chemscore.Fitness>
11.9650

> <Gold.Chemscore.DG>
-14.6965

> <Gold.Chemscore.ZeroCoef>
-5.4800

> <Gold.Chemscore.Hbond>
3.9263

> <Gold.Chemscore.Metal>
0.0000

> <Gold.Chemscore.Lipo>
73.9683

> <Gold.Chemscore.Internal_Hbond>
0.0000

> <Gold.Chemscore.DEClash>
1.4134

> <Gold.Chemscore.DEInternal>
1.3181

> <Gold.Chemscore.Rot>
4.9029

> <Gold.Chemscore.Internal.Correction>
   9.000000E+99

> <Gold.Chemscore.Hbonds>
donor molecule, donor type, donor heavy atom, donor atom, acceptor molecule, acceptor atom, score
      L1  H     9    45       P1 10175  0.92
      L1  H    23    50       P1 10747  0.94
      L1  H    25    51       P1 10747  0.80
      L1  H    27    52       P1 10186  0.82
      P1  H 10785 10796       L1    27  0.04

> <Gold.Chemscore.Hbond.Weighted>
-13.1137

> <Gold.Chemscore.Metal.Weighted>
-0.0000

> <Gold.Chemscore.Lipo.Weighted>
-8.6543

> <Gold.Chemscore.Internal_Hbond.Weighted>
0.0000

> <Gold.Chemscore.DEClash.Weighted>
1.4134

> <Gold.Chemscore.DEInternal.Weighted>
1.3181

> <Gold.Chemscore.Rot.Weighted>
12.5515

> <Gold.Chemscore.Internal.Correction.Weighted>
   9.000000E+99

> <Gold.Protein.RotatedTorsions>
[ 6907 6896 6895 6894 ] final -131.08 input  -60.11 | X-H torsion
[ 7974 7965 7964 7962 ] final  135.65 input  175.53 | X-H torsion
[ 8008 7997 7996 7995 ] final  -87.04 input   59.86 | X-H torsion
[ 10167 10162 10161 10158 ] final  139.85 input  -65.29 | X-H torsion
[ 10718 10713 10712 10709 ] final  -46.78 input   66.30 | X-H torsion
[ 10763 10752 10751 10750 ] final  144.03 input  -60.55 | X-H torsion
[ 11005 11000 10999 10996 ] final   40.15 input  -57.11 | X-H torsion

> <Gold.Protein.ActiveResidues>
 VAL166  LYS551  ARG553  GLY616  TRP617  ASP618  TYR619  PRO620  LYS621  CYS622 
 ASP623  PHE694  ASN695  SER759  ASP760  ASP761  ALA762  ILE779  LEU786  VAL792 
 PHE793  MET794  SER795  GLU796  ALA797  LYS798  CYS799  TRP800  GLU811  SER814 

> <Gold.Protein.RotatedAtoms>
  150.9470  133.6592  159.2779 H   0  0  0  0  0  0  0  0  0  0  0  0  # atno 6907 bound_to 6896
  151.3962  135.0962  159.9551 H   0  0  0  0  0  0  0  0  0  0  0  0  # atno 6908 bound_to 6896
  152.5094  133.8973  159.7478 H   0  0  0  0  0  0  0  0  0  0  0  0  # atno 6909 bound_to 6896
  144.9642  139.4676  143.5464 H   0  0  0  0  0  0  0  0  0  0  0  0  # atno 7974 bound_to 7965
  154.6587  140.0571  157.0038 H   0  0  0  0  0  0  0  0  0  0  0  0  # atno 8008 bound_to 7997
  155.1261  140.3252  155.4467 H   0  0  0  0  0  0  0  0  0  0  0  0  # atno 8009 bound_to 7997
  156.2609  140.1989  156.6381 H   0  0  0  0  0  0  0  0  0  0  0  0  # atno 8010 bound_to 7997
  139.5066  144.6270  151.5912 H   0  0  0  0  0  0  0  0  0  0  0  0  # atno 10167 bound_to 10162
  156.2149  130.4162  149.9067 H   0  0  0  0  0  0  0  0  0  0  0  0  # atno 10718 bound_to 10713
  153.9821  135.2940  155.3419 H   0  0  0  0  0  0  0  0  0  0  0  0  # atno 10763 bound_to 10752
  154.7263  135.5087  153.8894 H   0  0  0  0  0  0  0  0  0  0  0  0  # atno 10764 bound_to 10752
  153.0849  135.6690  154.0083 H   0  0  0  0  0  0  0  0  0  0  0  0  # atno 10765 bound_to 10752
  140.1959  134.3930  155.8122 H   0  0  0  0  0  0  0  0  0  0  0  0  # atno 11005 bound_to 11000
  146.3362  139.8812  142.8824 LP  0  0  0  0  0  0  0  0  0  0  0  0  # atno 17320 bound_to 7965
  145.2654  141.0091  143.3802 LP  0  0  0  0  0  0  0  0  0  0  0  0  # atno 17321 bound_to 7965
  140.5990  143.9644  150.6373 LP  0  0  0  0  0  0  0  0  0  0  0  0  # atno 17342 bound_to 10162
  140.2849  143.3364  152.1116 LP  0  0  0  0  0  0  0  0  0  0  0  0  # atno 17343 bound_to 10162
  156.6733  130.8829  151.3565 LP  0  0  0  0  0  0  0  0  0  0  0  0  # atno 17370 bound_to 10713
  157.7058  130.9383  150.0926 LP  0  0  0  0  0  0  0  0  0  0  0  0  # atno 17371 bound_to 10713
  141.2227  133.7069  156.8174 LP  0  0  0  0  0  0  0  0  0  0  0  0  # atno 17394 bound_to 11000
  140.2108  134.8829  157.3272 LP  0  0  0  0  0  0  0  0  0  0  0  0  # atno 17395 bound_to 11000

$$$$
