AV-unprocessed.smi:1838|AV-procd|sdf|7483|dock3
  -GOLD-   22720 9183D 1   1.00000     0.00000
 Structure written by MMmdl.
 35 36  0  0  0  0  0  0  0  0  1 V2000
  151.4890  138.2134  154.4806 C   0  0  0  0  0  0  0  0  0  0  0  0
  150.1395  138.2017  154.0276 O   0  0  0  0  0  0  0  0  0  0  0  0
  149.4099  139.3736  154.0953 C   0  0  0  0  0  0  0  0  0  0  0  0
  149.9967  140.4652  154.6477 N   0  0  0  0  0  0  0  0  0  0  0  0
  149.2885  141.6103  154.7164 C   0  0  0  0  0  0  0  0  0  0  0  0
  147.9698  141.7284  154.2426 C   0  0  0  0  0  0  0  0  0  0  0  0
  147.3583  140.5979  153.6695 C   0  0  0  0  0  0  0  0  0  0  0  0
  148.0884  139.3858  153.5887 C   0  0  0  0  0  0  0  0  0  0  0  0
  147.5849  138.1738  153.0345 N   0  0  0  0  0  0  0  0  0  0  0  0
  146.3190  137.7349  152.9246 C   0  0  0  0  0  0  0  0  0  0  0  0
  145.3131  138.3386  153.2951 O   0  0  0  0  0  0  0  0  0  0  0  0
  146.2802  136.5276  152.3434 N   0  0  0  0  0  0  0  0  0  0  0  0
  145.0717  135.7433  152.0963 C   0  0  1  0  0  0  0  0  0  0  0  0
  145.1392  135.0419  150.7265 C   0  0  0  0  0  0  0  0  0  0  0  0
  143.9615  134.0768  150.5650 C   0  0  0  0  0  0  0  0  0  0  0  0
  143.9608  133.0364  151.6967 C   0  0  0  0  0  0  0  0  0  0  0  0
  144.1827  133.6211  153.0203 N   0  0  0  0  0  0  0  0  0  0  0  0
  144.7514  134.8120  153.2793 C   0  0  0  0  0  0  0  0  0  0  0  0
  144.9770  135.1758  154.4324 O   0  0  0  0  0  0  0  0  0  0  0  0
  151.9167  137.2177  154.3651 H   0  0  0  0  0  0  0  0  0  0  0  0
  151.5530  138.4796  155.5369 H   0  0  0  0  0  0  0  0  0  0  0  0
  152.0996  138.9052  153.8984 H   0  0  0  0  0  0  0  0  0  0  0  0
  149.7882  142.4574  155.1626 H   0  0  0  0  0  0  0  0  0  0  0  0
  147.4379  142.6654  154.3172 H   0  0  0  0  0  0  0  0  0  0  0  0
  146.3472  140.6960  153.3102 H   0  0  0  0  0  0  0  0  0  0  0  0
  148.2932  137.5522  152.6716 H   0  0  0  0  0  0  0  0  0  0  0  0
  147.1551  136.1018  152.0742 H   0  0  0  0  0  0  0  0  0  0  0  0
  144.2268  136.4339  152.0658 H   0  0  0  0  0  0  0  0  0  0  0  0
  145.1278  135.7782  149.9220 H   0  0  0  0  0  0  0  0  0  0  0  0
  146.0766  134.4916  150.6329 H   0  0  0  0  0  0  0  0  0  0  0  0
  143.0271  134.6395  150.5828 H   0  0  0  0  0  0  0  0  0  0  0  0
  144.0058  133.5791  149.5957 H   0  0  0  0  0  0  0  0  0  0  0  0
  143.0196  132.4861  151.7015 H   0  0  0  0  0  0  0  0  0  0  0  0
  144.7501  132.3046  151.5212 H   0  0  0  0  0  0  0  0  0  0  0  0
  143.9418  133.0423  153.8120 H   0  0  0  0  0  0  0  0  0  0  0  0
  1  2  1  0  0  0  0
  1 20  1  0  0  0  0
  1 21  1  0  0  0  0
  1 22  1  0  0  0  0
  2  3  1  0  0  0  0
  3  8  1  0  0  0  0
  3  4  2  0  0  0  0
  4  5  1  0  0  0  0
  5  6  2  0  0  0  0
  5 23  1  0  0  0  0
  6  7  1  0  0  0  0
  6 24  1  0  0  0  0
  7  8  2  0  0  0  0
  7 25  1  0  0  0  0
  8  9  1  0  0  0  0
  9 10  1  0  0  0  0
  9 26  1  0  0  0  0
 10 11  2  0  0  0  0
 10 12  1  0  0  0  0
 12 13  1  0  0  0  0
 12 27  1  0  0  0  0
 13 18  1  0  0  0  0
 13 14  1  0  0  0  0
 13 28  1  0  0  0  0
 14 15  1  0  0  0  0
 14 29  1  0  0  0  0
 14 30  1  0  0  0  0
 15 16  1  0  0  0  0
 15 31  1  0  0  0  0
 15 32  1  0  0  0  0
 16 17  1  0  0  0  0
 16 33  1  0  0  0  0
 16 34  1  0  0  0  0
 17 18  1  0  0  0  0
 17 35  1  0  0  0  0
 18 19  2  0  0  0  0
M  END
> <s_m_source_file>
AV-unprocessed.smi

> <i_m_source_file_index>
1838

> <i_lp_mmshare_version>
43012

> <i_f3d_flags>
0

> <s_epik_input>
W0NIM11PYzFuW2NIXVtjSF1bY0hdYzFbTkhdQyg9TylbTkhdW0NAQEhdMltDSDJdW0NIMl1bQ0gyXVtOSF1DMj1P

> <s_epik_cmdline>
J2VwaWtfcHl0aG9uJywgJy1waCcsICc3LjAnLCAnLXRuJywgJzgnLCAnLW1hJywgJzIwMCcsICctbWV0YWxfYmluZGluZycsICctaW1hZScsICc8aW5maWxlLm1hZT4nLCAnLW9tYWUnLCAnPG91dGZpbGUubWFlPic=

> <r_lp_tautomer_probability>
1

> <r_epik_Ionization_Penalty>
8.30645e-05

> <r_epik_Ionization_Penalty_Charging>
0

> <r_epik_Ionization_Penalty_Neutral>
8.30645e-05

> <r_epik_State_Penalty>
-0

> <r_epik_Charging_Adjusted_Penalty>
0

> <i_epik_Tot_Q>
0

> <i_epik_Tot_abs_Q>
0

> <r_epik_Metal_State_Penalty>
-0

> <b_epik_Metal_Only>
0

> <s_lp_Force_Field>
OPLS_2005

> <r_lp_Energy>
12.0006

> <b_lp_Chiralities_Consistent>
1

> <s_lp_Variant>
AV-unprocessed.smi:1838-2

> <Gold.Version>
5.8.1

> <Gold.Id.Protein>
6NUR|6NUR_protein|mol2

> <Gold.PLP.Fitness>
41.3969

> <Gold.PLP.PLP>
-27.6857

> <Gold.PLP.part.hbond>
-4.0408

> <Gold.PLP.part.metal>
0.0000

> <Gold.PLP.part.buried>
-0.7450

> <Gold.PLP.part.nonpolar>
-25.8626

> <Gold.PLP.part.repulsive>
2.6223

> <Gold.PLP.ligand.clash>
0.0000

> <Gold.PLP.ligand.torsion>
0.4870

> <Gold.PLP.Chemscore.Hbond>
3.8953

> <Gold.PLP.Chemscore.CHOScore>
0.9851

> <Gold.PLP.Chemscore.Metal>
0.0000

> <Gold.Chemscore.Hbonds>
donor molecule, donor type, donor heavy atom, donor atom, acceptor molecule, acceptor atom, score
      L1  H     9    26       P1  7948  1.00
      L1  H    12    27       P1  7948  1.00
      L1  H    17    35       P1 10957  0.96
      P1  H  7989  7998       L1     4  0.90
      L1  C     5    23       P1  8028  0.97

> <Gold.PLP.Chemscore.Internal.Correction>
0.0442

> <Gold.Rescore>
     Score         DG    S(hbond)    S(metal)    S(lipo)     H(rot)  DE(clash)    DE(int)     intcor
     16.62     -19.33       3.14        0.00      57.94       1.33       1.43       1.28       ----

> <Gold.Chemscore.Fitness>
16.6170

> <Gold.Chemscore.DG>
-19.3329

> <Gold.Chemscore.ZeroCoef>
-5.4800

> <Gold.Chemscore.Hbond>
3.1368

> <Gold.Chemscore.Metal>
0.0000

> <Gold.Chemscore.Lipo>
57.9378

> <Gold.Chemscore.Internal_Hbond>
0.0000

> <Gold.Chemscore.DEClash>
1.4325

> <Gold.Chemscore.DEInternal>
1.2834

> <Gold.Chemscore.Rot>
1.3292

> <Gold.Chemscore.Internal.Correction>
   9.000000E+99

> <Gold.Chemscore.Hbonds>
donor molecule, donor type, donor heavy atom, donor atom, acceptor molecule, acceptor atom, score
      L1  H     9    26       P1  7948  0.99
      L1  H    12    27       P1  7948  0.94
      L1  H    17    35       P1 10957  0.83
      P1  H  7989  7998       L1     4  0.25

> <Gold.Chemscore.Hbond.Weighted>
-10.4768

> <Gold.Chemscore.Metal.Weighted>
-0.0000

> <Gold.Chemscore.Lipo.Weighted>
-6.7787

> <Gold.Chemscore.Internal_Hbond.Weighted>
0.0000

> <Gold.Chemscore.DEClash.Weighted>
1.4325

> <Gold.Chemscore.DEInternal.Weighted>
1.2834

> <Gold.Chemscore.Rot.Weighted>
3.4027

> <Gold.Chemscore.Internal.Correction.Weighted>
   9.000000E+99

> <Gold.Protein.RotatedTorsions>
[ 6907 6896 6895 6894 ] final -148.36 input  -60.11 | X-H torsion
[ 7974 7965 7964 7962 ] final  -22.51 input  175.53 | X-H torsion
[ 8008 7997 7996 7995 ] final  -39.29 input   59.86 | X-H torsion
[ 10167 10162 10161 10158 ] final  165.82 input  -65.29 | X-H torsion
[ 10718 10713 10712 10709 ] final   86.21 input   66.30 | X-H torsion
[ 10763 10752 10751 10750 ] final  162.43 input  -60.55 | X-H torsion
[ 11005 11000 10999 10996 ] final  -57.22 input  -57.11 | X-H torsion

> <Gold.Protein.ActiveResidues>
 VAL166  LYS551  ARG553  GLY616  TRP617  ASP618  TYR619  PRO620  LYS621  CYS622 
 ASP623  PHE694  ASN695  SER759  ASP760  ASP761  ALA762  ILE779  LEU786  VAL792 
 PHE793  MET794  SER795  GLU796  ALA797  LYS798  CYS799  TRP800  GLU811  SER814 

> <Gold.Protein.RotatedAtoms>
  151.1687  133.4798  159.2593 H   0  0  0  0  0  0  0  0  0  0  0  0  # atno 6907 bound_to 6896
  151.1378  135.0164  159.8622 H   0  0  0  0  0  0  0  0  0  0  0  0  # atno 6908 bound_to 6896
  152.5462  134.1584  159.8600 H   0  0  0  0  0  0  0  0  0  0  0  0  # atno 6909 bound_to 6896
  146.1671  140.4489  142.8547 H   0  0  0  0  0  0  0  0  0  0  0  0  # atno 7974 bound_to 7965
  154.4025  140.1555  156.2838 H   0  0  0  0  0  0  0  0  0  0  0  0  # atno 8008 bound_to 7997
  155.8846  140.3442  155.5890 H   0  0  0  0  0  0  0  0  0  0  0  0  # atno 8009 bound_to 7997
  155.7628  140.0820  157.2137 H   0  0  0  0  0  0  0  0  0  0  0  0  # atno 8010 bound_to 7997
  139.4913  144.4092  151.9319 H   0  0  0  0  0  0  0  0  0  0  0  0  # atno 10167 bound_to 10162
  157.6925  131.0206  150.2938 H   0  0  0  0  0  0  0  0  0  0  0  0  # atno 10718 bound_to 10713
  154.2783  135.2764  155.2708 H   0  0  0  0  0  0  0  0  0  0  0  0  # atno 10763 bound_to 10752
  154.5241  135.5748  153.6708 H   0  0  0  0  0  0  0  0  0  0  0  0  # atno 10764 bound_to 10752
  152.9933  135.6211  154.2941 H   0  0  0  0  0  0  0  0  0  0  0  0  # atno 10765 bound_to 10752
  141.1155  133.6610  156.4737 H   0  0  0  0  0  0  0  0  0  0  0  0  # atno 11005 bound_to 11000
  144.8108  140.6383  143.6416 LP  0  0  0  0  0  0  0  0  0  0  0  0  # atno 17320 bound_to 7965
  145.4438  139.1532  143.3956 LP  0  0  0  0  0  0  0  0  0  0  0  0  # atno 17321 bound_to 7965
  140.3533  144.3062  150.5945 LP  0  0  0  0  0  0  0  0  0  0  0  0  # atno 17342 bound_to 10162
  140.5466  143.2213  151.7996 LP  0  0  0  0  0  0  0  0  0  0  0  0  # atno 17343 bound_to 10162
  156.3465  130.3824  149.7365 LP  0  0  0  0  0  0  0  0  0  0  0  0  # atno 17370 bound_to 10713
  156.4857  130.8061  151.3074 LP  0  0  0  0  0  0  0  0  0  0  0  0  # atno 17371 bound_to 10713
  140.4657  134.6800  157.5106 LP  0  0  0  0  0  0  0  0  0  0  0  0  # atno 17394 bound_to 11000
  140.0075  134.6742  155.9432 LP  0  0  0  0  0  0  0  0  0  0  0  0  # atno 17395 bound_to 11000

$$$$
