AV-unprocessed.smi:618|AV-procd|sdf|3076|dock8
  -GOLD-   22720 0 03D 1   1.00000     0.00000
 Structure written by MMmdl.
 41 43  0  0  0  0  0  0  0  0  2 V2000
  146.3278  139.0509  154.3811 O   0  0  0  0  0  0  0  0  0  0  0  0
  147.0548  138.4826  153.5667 C   0  0  0  0  0  0  0  0  0  0  0  0
  146.6041  137.5868  152.6777 N   0  0  0  0  0  0  0  0  0  0  0  0
  145.2118  137.1728  152.5394 C   0  0  0  0  0  0  0  0  0  0  0  0
  145.0918  135.7053  152.0917 C   0  0  2  0  0  0  0  0  0  0  0  0
  145.6485  135.4893  150.6716 C   0  0  0  0  0  0  0  0  0  0  0  0
  145.4157  134.1066  150.1926 N   0  3  1  0  0  0  0  0  0  0  0  0
  146.3581  133.0735  150.6767 C   0  0  0  0  0  0  0  0  0  0  0  0
  145.5625  131.7603  150.7422 C   0  0  0  0  0  0  0  0  0  0  0  0
  144.1692  132.0988  150.2016 C   0  0  0  0  0  0  0  0  0  0  0  0
  144.0423  133.6083  150.4125 C   0  0  1  0  0  0  0  0  0  0  0  0
  143.5343  133.9598  151.8293 C   0  0  0  0  0  0  0  0  0  0  0  0
  143.7151  135.3447  152.0883 O   0  0  0  0  0  0  0  0  0  0  0  0
  148.3823  138.6557  153.4512 N   0  0  0  0  0  0  0  0  0  0  0  0
  149.2296  139.5276  154.1870 C   0  0  0  0  0  0  0  0  0  0  0  0
  148.6614  140.7002  154.7263 C   0  0  0  0  0  0  0  0  0  0  0  0
  149.4714  141.5744  155.4753 C   0  0  0  0  0  0  0  0  0  0  0  0
  150.8249  141.2353  155.6650 C   0  0  0  0  0  0  0  0  0  0  0  0
  151.3822  140.1104  155.1695 N   0  0  0  0  0  0  0  0  0  0  0  0
  150.5997  139.2773  154.4499 C   0  0  0  0  0  0  0  0  0  0  0  0
  147.2696  137.1641  152.0468 H   0  0  0  0  0  0  0  0  0  0  0  0
  144.7141  137.3151  153.4991 H   0  0  0  0  0  0  0  0  0  0  0  0
  144.7066  137.8289  151.8284 H   0  0  0  0  0  0  0  0  0  0  0  0
  145.6349  135.0736  152.7965 H   0  0  0  0  0  0  0  0  0  0  0  0
  145.1487  136.1692  149.9805 H   0  0  0  0  0  0  0  0  0  0  0  0
  146.7126  135.7236  150.6264 H   0  0  0  0  0  0  0  0  0  0  0  0
  147.2070  133.0015  149.9964 H   0  0  0  0  0  0  0  0  0  0  0  0
  146.7466  133.3238  151.6648 H   0  0  0  0  0  0  0  0  0  0  0  0
  146.0357  130.9619  150.1696 H   0  0  0  0  0  0  0  0  0  0  0  0
  145.4916  131.4226  151.7769 H   0  0  0  0  0  0  0  0  0  0  0  0
  144.1314  131.8769  149.1341 H   0  0  0  0  0  0  0  0  0  0  0  0
  143.3751  131.5279  150.6845 H   0  0  0  0  0  0  0  0  0  0  0  0
  143.3747  134.0526  149.6732 H   0  0  0  0  0  0  0  0  0  0  0  0
  142.4742  133.7205  151.9146 H   0  0  0  0  0  0  0  0  0  0  0  0
  144.0463  133.3760  152.5962 H   0  0  0  0  0  0  0  0  0  0  0  0
  148.8517  138.0559  152.7888 H   0  0  0  0  0  0  0  0  0  0  0  0
  147.6182  140.9317  154.5664 H   0  0  0  0  0  0  0  0  0  0  0  0
  149.0652  142.4827  155.8951 H   0  0  0  0  0  0  0  0  0  0  0  0
  151.4760  141.8817  156.2348 H   0  0  0  0  0  0  0  0  0  0  0  0
  151.0957  138.3842  154.1039 H   0  0  0  0  0  0  0  0  0  0  0  0
  145.5439  134.1228  149.1907 H   0  0  0  0  0  0  0  0  0  0  0  0
  1  2  2  0  0  0  0
  2  3  1  0  0  0  0
  2 14  1  0  0  0  0
  3  4  1  0  0  0  0
  3 21  1  0  0  0  0
  4  5  1  0  0  0  0
  4 22  1  0  0  0  0
  4 23  1  0  0  0  0
  5 13  1  0  0  0  0
  5  6  1  0  0  0  0
  5 24  1  0  0  0  0
  6  7  1  0  0  0  0
  6 25  1  0  0  0  0
  6 26  1  0  0  0  0
  7 11  1  0  0  0  0
  7  8  1  0  0  0  0
  7 41  1  0  0  0  0
  8  9  1  0  0  0  0
  8 27  1  0  0  0  0
  8 28  1  0  0  0  0
  9 10  1  0  0  0  0
  9 29  1  0  0  0  0
  9 30  1  0  0  0  0
 10 11  1  0  0  0  0
 10 31  1  0  0  0  0
 10 32  1  0  0  0  0
 11 12  1  0  0  0  0
 11 33  1  0  0  0  0
 12 13  1  0  0  0  0
 12 34  1  0  0  0  0
 12 35  1  0  0  0  0
 14 15  1  0  0  0  0
 14 36  1  0  0  0  0
 15 20  1  0  0  0  0
 15 16  2  0  0  0  0
 16 17  1  0  0  0  0
 16 37  1  0  0  0  0
 17 18  2  0  0  0  0
 17 38  1  0  0  0  0
 18 19  1  0  0  0  0
 18 39  1  0  0  0  0
 19 20  2  0  0  0  0
 20 40  1  0  0  0  0
M  CHG  1   7   1
M  END
> <s_m_source_file>
AV-unprocessed.smi

> <i_m_source_file_index>
618

> <i_lp_mmshare_version>
43012

> <i_f3d_flags>
0

> <s_epik_input>
W2NIXTFuW2NIXVtjSF1bY0hdYzFbTkhdQyg9TylbTkhdW0NIMl1bQ0BIXShbQ0gyXTIpT1tDSDJdW0NAQEhdKE4yMylbQ0gyXVtDSDJdW0NIMl0z

> <s_epik_cmdline>
J2VwaWtfcHl0aG9uJywgJy1waCcsICc3LjAnLCAnLXRuJywgJzgnLCAnLW1hJywgJzIwMCcsICctbWV0YWxfYmluZGluZycsICctaW1hZScsICc8aW5maWxlLm1hZT4nLCAnLW9tYWUnLCAnPG91dGZpbGUubWFlPic=

> <r_epik_Ionization_Penalty>
0.111044

> <r_epik_Ionization_Penalty_Charging>
0.10673

> <r_epik_Ionization_Penalty_Neutral>
0.00431361

> <r_epik_State_Penalty>
0.0978747

> <r_epik_Charging_Adjusted_Penalty>
0.204605

> <i_epik_Tot_Q>
1

> <i_epik_Tot_abs_Q>
1

> <r_epik_Metal_State_Penalty>
0.0947591

> <b_epik_Metal_Only>
0

> <s_lp_Force_Field>
OPLS_2005

> <r_lp_Energy>
38.5016

> <b_lp_Chiralities_Consistent>
1

> <s_lp_Variant>
AV-unprocessed.smi:618-3

> <Gold.Version>
5.8.1

> <Gold.Id.Protein>
6NUR|6NUR_protein|mol2

> <Gold.PLP.Fitness>
46.2983

> <Gold.PLP.PLP>
-37.8546

> <Gold.PLP.part.hbond>
-5.0000

> <Gold.PLP.part.metal>
0.0000

> <Gold.PLP.part.buried>
-3.8186

> <Gold.PLP.part.nonpolar>
-29.9341

> <Gold.PLP.part.repulsive>
0.4423

> <Gold.PLP.ligand.clash>
0.0000

> <Gold.PLP.ligand.torsion>
0.3640

> <Gold.PLP.Chemscore.Hbond>
3.0570

> <Gold.PLP.Chemscore.CHOScore>
0.0000

> <Gold.PLP.Chemscore.Metal>
0.0000

> <Gold.Chemscore.Hbonds>
donor molecule, donor type, donor heavy atom, donor atom, acceptor molecule, acceptor atom, score
      L1  H     3    21       P1  7948  0.96
      L1  H     7    41       P1  7921  1.00
      L1  H    14    36       P1  7948  0.99
      P1  H  7989  7998       L1    19  0.06

> <Gold.PLP.Chemscore.Internal.Correction>
0.0007

> <Gold.Rescore>
     Score         DG    S(hbond)    S(metal)    S(lipo)     H(rot)  DE(clash)    DE(int)     intcor
     20.60     -22.38       2.78        0.00      92.70       1.27       0.14       1.65       ----

> <Gold.Chemscore.Fitness>
20.5980

> <Gold.Chemscore.DG>
-22.3844

> <Gold.Chemscore.ZeroCoef>
-5.4800

> <Gold.Chemscore.Hbond>
2.7840

> <Gold.Chemscore.Metal>
0.0000

> <Gold.Chemscore.Lipo>
92.6972

> <Gold.Chemscore.Internal_Hbond>
0.0000

> <Gold.Chemscore.DEClash>
0.1355

> <Gold.Chemscore.DEInternal>
1.6508

> <Gold.Chemscore.Rot>
1.2656

> <Gold.Chemscore.Internal.Correction>
   9.000000E+99

> <Gold.Chemscore.Hbonds>
donor molecule, donor type, donor heavy atom, donor atom, acceptor molecule, acceptor atom, score
      L1  H     3    21       P1  7948  0.92
      L1  H     7    41       P1  7921  0.77
      L1  H    14    36       P1  7948  0.89

> <Gold.Chemscore.Hbond.Weighted>
-9.2987

> <Gold.Chemscore.Metal.Weighted>
-0.0000

> <Gold.Chemscore.Lipo.Weighted>
-10.8456

> <Gold.Chemscore.Internal_Hbond.Weighted>
0.0000

> <Gold.Chemscore.DEClash.Weighted>
0.1355

> <Gold.Chemscore.DEInternal.Weighted>
1.6508

> <Gold.Chemscore.Rot.Weighted>
3.2399

> <Gold.Chemscore.Internal.Correction.Weighted>
   9.000000E+99

> <Gold.Protein.RotatedTorsions>
[ 6907 6896 6895 6894 ] final   -3.00 input  -60.11 | X-H torsion
[ 7974 7965 7964 7962 ] final  -87.05 input  175.53 | X-H torsion
[ 8008 7997 7996 7995 ] final  -31.28 input   59.86 | X-H torsion
[ 10167 10162 10161 10158 ] final   20.13 input  -65.29 | X-H torsion
[ 10718 10713 10712 10709 ] final -124.17 input   66.30 | X-H torsion
[ 10763 10752 10751 10750 ] final  125.86 input  -60.55 | X-H torsion
[ 11005 11000 10999 10996 ] final  -42.21 input  -57.11 | X-H torsion

> <Gold.Protein.ActiveResidues>
 VAL166  LYS551  ARG553  GLY616  TRP617  ASP618  TYR619  PRO620  LYS621  CYS622 
 ASP623  PHE694  ASN695  SER759  ASP760  ASP761  ALA762  ILE779  LEU786  VAL792 
 PHE793  MET794  SER795  GLU796  ALA797  LYS798  CYS799  TRP800  GLU811  SER814 

> <Gold.Protein.RotatedAtoms>
  151.5208  135.1067  159.9877 H   0  0  0  0  0  0  0  0  0  0  0  0  # atno 6907 bound_to 6896
  152.4621  133.7841  159.6877 H   0  0  0  0  0  0  0  0  0  0  0  0  # atno 6908 bound_to 6896
  150.8588  133.7610  159.3025 H   0  0  0  0  0  0  0  0  0  0  0  0  # atno 6909 bound_to 6896
  145.4717  140.9559  143.1913 H   0  0  0  0  0  0  0  0  0  0  0  0  # atno 7974 bound_to 7965
  154.4219  140.1768  156.1542 H   0  0  0  0  0  0  0  0  0  0  0  0  # atno 8008 bound_to 7997
  155.9890  140.3370  155.6711 H   0  0  0  0  0  0  0  0  0  0  0  0  # atno 8009 bound_to 7997
  155.6397  140.0678  157.2613 H   0  0  0  0  0  0  0  0  0  0  0  0  # atno 8010 bound_to 7997
  140.5527  143.9480  150.6588 H   0  0  0  0  0  0  0  0  0  0  0  0  # atno 10167 bound_to 10162
  156.1564  130.6571  150.9988 H   0  0  0  0  0  0  0  0  0  0  0  0  # atno 10718 bound_to 10713
  153.6840  135.3310  155.3185 H   0  0  0  0  0  0  0  0  0  0  0  0  # atno 10763 bound_to 10752
  154.8458  135.4416  154.1577 H   0  0  0  0  0  0  0  0  0  0  0  0  # atno 10764 bound_to 10752
  153.2601  135.6990  153.7665 H   0  0  0  0  0  0  0  0  0  0  0  0  # atno 10765 bound_to 10752
  141.0299  133.6824  156.2563 H   0  0  0  0  0  0  0  0  0  0  0  0  # atno 11005 bound_to 11000
  144.7941  139.6269  143.7100 LP  0  0  0  0  0  0  0  0  0  0  0  0  # atno 17320 bound_to 7965
  146.2393  139.5968  142.9502 LP  0  0  0  0  0  0  0  0  0  0  0  0  # atno 17321 bound_to 7965
  140.2910  143.3324  152.1062 LP  0  0  0  0  0  0  0  0  0  0  0  0  # atno 17342 bound_to 10162
  139.5034  144.6755  151.6139 LP  0  0  0  0  0  0  0  0  0  0  0  0  # atno 17343 bound_to 10162
  157.6698  131.0864  150.7639 LP  0  0  0  0  0  0  0  0  0  0  0  0  # atno 17370 bound_to 10713
  156.7704  130.4827  149.5419 LP  0  0  0  0  0  0  0  0  0  0  0  0  # atno 17371 bound_to 10713
  140.6424  134.5152  157.5570 LP  0  0  0  0  0  0  0  0  0  0  0  0  # atno 17394 bound_to 11000
  139.9201  134.8166  156.1239 LP  0  0  0  0  0  0  0  0  0  0  0  0  # atno 17395 bound_to 11000

$$$$
