AV-unprocessed.smi:283|AV-procd|sdf|2147|dock2
  -GOLD-   2262021483D 1   1.00000     0.00000
 Structure written by MMmdl.
 48 51  0  0  0  0  0  0  0  0  1 V2000
  154.9762  141.2763  160.6463 C   0  0  0  0  0  0  0  0  0  0  0  0
  153.5550  141.0202  160.1278 C   0  0  2  0  0  0  0  0  0  0  0  0
  153.6138  140.3930  158.8078 N   0  0  0  0  0  0  0  0  0  0  0  0
  152.6563  139.5177  158.4295 C   0  0  0  0  0  0  0  0  0  0  0  0
  152.5260  138.4126  159.2014 N   0  0  0  0  0  0  0  0  0  0  0  0
  151.6379  137.4696  158.8751 C   0  0  0  0  0  0  0  0  0  0  0  0
  150.8053  137.4330  157.8332 N   0  0  0  0  0  0  0  0  0  0  0  0
  150.9220  138.5493  157.0570 C   0  0  0  0  0  0  0  0  0  0  0  0
  151.7998  139.6438  157.2974 C   0  0  0  0  0  0  0  0  0  0  0  0
  151.5948  140.6173  156.3280 N   0  0  0  0  0  0  0  0  0  0  0  0
  150.6723  140.1150  155.5553 C   0  0  0  0  0  0  0  0  0  0  0  0
  150.2513  138.8451  155.8873 N   0  0  0  0  0  0  0  0  0  0  0  0
  149.2224  137.9896  155.2082 C   0  0  1  0  0  0  0  0  0  0  0  0
  148.2331  137.6671  156.1441 O   0  0  0  0  0  0  0  0  0  0  0  0
  147.0857  138.4946  155.9718 C   0  0  1  0  0  0  0  0  0  0  0  0
  147.2208  139.7822  156.8179 C   0  0  0  0  0  0  0  0  0  0  0  0
  147.2821  139.4754  158.1953 O   0  0  0  0  0  0  0  0  0  0  0  0
  147.0505  138.6815  154.4491 C   0  0  1  0  0  0  0  0  0  0  0  0
  146.3514  139.8444  154.0496 O   0  0  0  0  0  0  0  0  0  0  0  0
  148.5234  138.7510  154.0603 C   0  0  2  0  0  0  0  0  0  0  0  0
  148.7213  138.1143  152.8135 O   0  0  0  0  0  0  0  0  0  0  0  0
  152.7242  142.3067  160.1914 C   0  0  0  0  0  0  0  0  0  0  0  0
  152.2921  142.9250  158.9946 C   0  0  0  0  0  0  0  0  0  0  0  0
  151.5092  144.0938  159.0311 C   0  0  0  0  0  0  0  0  0  0  0  0
  151.1584  144.6660  160.2668 C   0  0  0  0  0  0  0  0  0  0  0  0
  151.5992  144.0721  161.4634 C   0  0  0  0  0  0  0  0  0  0  0  0
  152.3830  142.9010  161.4331 C   0  0  0  0  0  0  0  0  0  0  0  0
  152.9068  142.2256  162.9363 Cl  0  0  0  0  0  0  0  0  0  0  0  0
  149.7753  137.1023  154.8972 H   0  0  0  0  0  0  0  0  0  0  0  0
  146.2117  137.9376  156.3127 H   0  0  0  0  0  0  0  0  0  0  0  0
  146.5779  137.8050  154.0023 H   0  0  0  0  0  0  0  0  0  0  0  0
  148.8668  139.7860  154.0231 H   0  0  0  0  0  0  0  0  0  0  0  0
  154.9565  141.6635  161.6655 H   0  0  0  0  0  0  0  0  0  0  0  0
  155.5019  142.0021  160.0249 H   0  0  0  0  0  0  0  0  0  0  0  0
  155.5634  140.3575  160.6560 H   0  0  0  0  0  0  0  0  0  0  0  0
  153.1113  140.2780  160.7886 H   0  0  0  0  0  0  0  0  0  0  0  0
  154.1595  140.9023  158.1283 H   0  0  0  0  0  0  0  0  0  0  0  0
  151.5966  136.6167  159.5363 H   0  0  0  0  0  0  0  0  0  0  0  0
  150.2865  140.6617  154.7076 H   0  0  0  0  0  0  0  0  0  0  0  0
  148.1493  140.2947  156.5677 H   0  0  0  0  0  0  0  0  0  0  0  0
  146.4052  140.4812  156.6294 H   0  0  0  0  0  0  0  0  0  0  0  0
  146.4054  139.5010  158.5476 H   0  0  0  0  0  0  0  0  0  0  0  0
  145.8529  139.6423  153.2724 H   0  0  0  0  0  0  0  0  0  0  0  0
  149.1058  138.7364  152.2152 H   0  0  0  0  0  0  0  0  0  0  0  0
  152.5524  142.4985  158.0369 H   0  0  0  0  0  0  0  0  0  0  0  0
  151.1773  144.5503  158.1104 H   0  0  0  0  0  0  0  0  0  0  0  0
  150.5570  145.5625  160.2968 H   0  0  0  0  0  0  0  0  0  0  0  0
  151.3352  144.5191  162.4106 H   0  0  0  0  0  0  0  0  0  0  0  0
  1  2  1  0  0  0  0
  1 33  1  0  0  0  0
  1 34  1  0  0  0  0
  1 35  1  0  0  0  0
  2  3  1  0  0  0  0
  2 22  1  0  0  0  0
  2 36  1  0  0  0  0
  3  4  1  0  0  0  0
  3 37  1  0  0  0  0
  4  9  1  0  0  0  0
  4  5  2  0  0  0  0
  5  6  1  0  0  0  0
  6  7  2  0  0  0  0
  6 38  1  0  0  0  0
  7  8  1  0  0  0  0
  8 12  1  0  0  0  0
  8  9  2  0  0  0  0
  9 10  1  0  0  0  0
 10 11  2  0  0  0  0
 11 12  1  0  0  0  0
 11 39  1  0  0  0  0
 12 13  1  0  0  0  0
 13 29  1  0  0  0  0
 13 20  1  0  0  0  0
 13 14  1  0  0  0  0
 14 15  1  0  0  0  0
 15 30  1  0  0  0  0
 15 16  1  0  0  0  0
 15 18  1  0  0  0  0
 16 17  1  0  0  0  0
 16 40  1  0  0  0  0
 16 41  1  0  0  0  0
 17 42  1  0  0  0  0
 18 31  1  0  0  0  0
 18 19  1  0  0  0  0
 18 20  1  0  0  0  0
 19 43  1  0  0  0  0
 20 32  1  0  0  0  0
 20 21  1  0  0  0  0
 21 44  1  0  0  0  0
 22 27  1  0  0  0  0
 22 23  2  0  0  0  0
 23 24  1  0  0  0  0
 23 45  1  0  0  0  0
 24 25  2  0  0  0  0
 24 46  1  0  0  0  0
 25 26  1  0  0  0  0
 25 47  1  0  0  0  0
 26 27  2  0  0  0  0
 26 48  1  0  0  0  0
 27 28  1  0  0  0  0
M  END
> <s_m_source_file>
AV-unprocessed.smi

> <i_m_source_file_index>
283

> <i_lp_mmshare_version>
43012

> <i_f3d_flags>
0

> <s_epik_input>
Q2xjMVtjSF1bY0hdW2NIXVtjSF1jMVtDQEhdKFtDSDNdKVtOSF1jKG5bY0hdbjIpYyhjMjMpbltjSF1uM1tDQEBIXTRPW0NASF0oW0NIMl1bT0hdKVtDQEBIXShbT0hdKVtDQEhdNFtPSF0=

> <s_epik_cmdline>
J2VwaWtfcHl0aG9uJywgJy1waCcsICc3LjAnLCAnLXRuJywgJzgnLCAnLW1hJywgJzIwMCcsICctbWV0YWxfYmluZGluZycsICctaW1hZScsICc8aW5maWxlLm1hZT4nLCAnLW9tYWUnLCAnPG91dGZpbGUubWFlPic=

> <r_lp_tautomer_probability>
1

> <r_epik_Ionization_Penalty>
0.000266407

> <r_epik_Ionization_Penalty_Charging>
0

> <r_epik_Ionization_Penalty_Neutral>
0.000266407

> <r_epik_State_Penalty>
-0

> <r_epik_Charging_Adjusted_Penalty>
0

> <i_epik_Tot_Q>
0

> <i_epik_Tot_abs_Q>
0

> <r_epik_Metal_State_Penalty>
-0

> <b_epik_Metal_Only>
0

> <s_epik_Chemistry_Notes>
This compound contains an acetal/aminal-like group ( X-CH(R)-Y where X, Y are N, S, or O) that may be acid/base labile, releasing an aldehyde.

> <s_lp_Force_Field>
OPLS_2005

> <r_lp_Energy>
42.7281

> <b_lp_Chiralities_Consistent>
1

> <s_lp_Variant>
AV-unprocessed.smi:283-23

> <Gold.Version>
5.8.1

> <Gold.Id.Protein>
6NUR|6NUR_protein|mol2

> <Gold.PLP.Fitness>
54.2536

> <Gold.PLP.PLP>
-50.4792

> <Gold.PLP.part.hbond>
-3.6937

> <Gold.PLP.part.metal>
0.0000

> <Gold.PLP.part.buried>
-6.1892

> <Gold.PLP.part.nonpolar>
-40.8734

> <Gold.PLP.part.repulsive>
1.1706

> <Gold.PLP.ligand.clash>
0.0000

> <Gold.PLP.ligand.torsion>
1.1670

> <Gold.PLP.Chemscore.Hbond>
1.9920

> <Gold.PLP.Chemscore.CHOScore>
0.0000

> <Gold.PLP.Chemscore.Metal>
0.0000

> <Gold.Chemscore.Hbonds>
donor molecule, donor type, donor heavy atom, donor atom, acceptor molecule, acceptor atom, score
      L1  H    21    44       P1  7957  1.00

> <Gold.PLP.Chemscore.Internal.Correction>
0.1323

> <Gold.Rescore>
     Score         DG    S(hbond)    S(metal)    S(lipo)     H(rot)  DE(clash)    DE(int)     intcor
     13.44     -14.61       1.85        0.00     114.70       4.10       0.13       1.03       ----

> <Gold.Chemscore.Fitness>
13.4418

> <Gold.Chemscore.DG>
-14.6070

> <Gold.Chemscore.ZeroCoef>
-5.4800

> <Gold.Chemscore.Hbond>
1.8549

> <Gold.Chemscore.Metal>
0.0000

> <Gold.Chemscore.Lipo>
114.6974

> <Gold.Chemscore.Internal_Hbond>
0.0000

> <Gold.Chemscore.DEClash>
0.1336

> <Gold.Chemscore.DEInternal>
1.0316

> <Gold.Chemscore.Rot>
4.0968

> <Gold.Chemscore.Internal.Correction>
   9.000000E+99

> <Gold.Chemscore.Hbonds>
donor molecule, donor type, donor heavy atom, donor atom, acceptor molecule, acceptor atom, score
      L1  H    19    43       P1 10175  0.02
      L1  H    21    44       P1  7957  0.74

> <Gold.Chemscore.Hbond.Weighted>
-6.1954

> <Gold.Chemscore.Metal.Weighted>
-0.0000

> <Gold.Chemscore.Lipo.Weighted>
-13.4196

> <Gold.Chemscore.Internal_Hbond.Weighted>
0.0000

> <Gold.Chemscore.DEClash.Weighted>
0.1336

> <Gold.Chemscore.DEInternal.Weighted>
1.0316

> <Gold.Chemscore.Rot.Weighted>
10.4879

> <Gold.Chemscore.Internal.Correction.Weighted>
   9.000000E+99

> <Gold.Protein.RotatedTorsions>
[ 6907 6896 6895 6894 ] final   38.27 input  -60.11 | X-H torsion
[ 7974 7965 7964 7962 ] final -104.57 input  175.53 | X-H torsion
[ 8008 7997 7996 7995 ] final -178.46 input   59.86 | X-H torsion
[ 10167 10162 10161 10158 ] final  127.79 input  -65.29 | X-H torsion
[ 10718 10713 10712 10709 ] final  -43.84 input   66.30 | X-H torsion
[ 10763 10752 10751 10750 ] final   87.47 input  -60.55 | X-H torsion
[ 11005 11000 10999 10996 ] final -128.15 input  -57.11 | X-H torsion

> <Gold.Protein.ActiveResidues>
 VAL166  LYS551  ARG553  GLY616  TRP617  ASP618  TYR619  PRO620  LYS621  CYS622 
 ASP623  PHE694  ASN695  SER759  ASP760  ASP761  ALA762  ILE779  LEU786  VAL792 
 PHE793  MET794  SER795  GLU796  ALA797  LYS798  CYS799  TRP800  GLU811  SER814 

> <Gold.Protein.RotatedAtoms>
  152.1542  134.8964  160.0545 H   0  0  0  0  0  0  0  0  0  0  0  0  # atno 6907 bound_to 6896
  151.9984  133.3811  159.4180 H   0  0  0  0  0  0  0  0  0  0  0  0  # atno 6908 bound_to 6896
  150.6879  134.3783  159.5066 H   0  0  0  0  0  0  0  0  0  0  0  0  # atno 6909 bound_to 6896
  145.2415  140.9207  143.3147 H   0  0  0  0  0  0  0  0  0  0  0  0  # atno 7974 bound_to 7965
  156.0191  140.1257  157.0376 H   0  0  0  0  0  0  0  0  0  0  0  0  # atno 8008 bound_to 7997
  154.4304  140.1072  156.6008 H   0  0  0  0  0  0  0  0  0  0  0  0  # atno 8009 bound_to 7997
  155.5971  140.3470  155.4585 H   0  0  0  0  0  0  0  0  0  0  0  0  # atno 8010 bound_to 7997
  139.5560  144.6849  151.4182 H   0  0  0  0  0  0  0  0  0  0  0  0  # atno 10167 bound_to 10162
  156.2447  130.4183  149.8719 H   0  0  0  0  0  0  0  0  0  0  0  0  # atno 10718 bound_to 10713
  153.1671  135.4542  154.9852 H   0  0  0  0  0  0  0  0  0  0  0  0  # atno 10763 bound_to 10752
  154.7940  135.3231  154.7713 H   0  0  0  0  0  0  0  0  0  0  0  0  # atno 10764 bound_to 10752
  153.8195  135.6948  153.4884 H   0  0  0  0  0  0  0  0  0  0  0  0  # atno 10765 bound_to 10752
  140.9540  134.1027  157.4034 H   0  0  0  0  0  0  0  0  0  0  0  0  # atno 11005 bound_to 11000
  144.9585  139.4006  143.6368 LP  0  0  0  0  0  0  0  0  0  0  0  0  # atno 17320 bound_to 7965
  146.3327  139.8626  142.8853 LP  0  0  0  0  0  0  0  0  0  0  0  0  # atno 17321 bound_to 7965
  140.6833  143.8033  150.7150 LP  0  0  0  0  0  0  0  0  0  0  0  0  # atno 17342 bound_to 10162
  140.1493  143.4372  152.2142 LP  0  0  0  0  0  0  0  0  0  0  0  0  # atno 17343 bound_to 10162
  156.6288  130.8657  151.3491 LP  0  0  0  0  0  0  0  0  0  0  0  0  # atno 17370 bound_to 10713
  157.7190  130.9534  150.1365 LP  0  0  0  0  0  0  0  0  0  0  0  0  # atno 17371 bound_to 10713
  139.8856  135.0074  156.6446 LP  0  0  0  0  0  0  0  0  0  0  0  0  # atno 17394 bound_to 11000
  140.7563  133.8855  155.8384 LP  0  0  0  0  0  0  0  0  0  0  0  0  # atno 17395 bound_to 11000

$$$$
