AV-unprocessed.smi:39|AV-procd|sdf|359|dock4
  -GOLD-   2262016193D 1   1.00000     0.00000
 Structure written by MMmdl.
 31 32  0  0  0  0  0  0  0  0  4 V2000
  150.5188  143.0911  158.4697 C   0  0  0  0  0  0  0  0  0  0  0  0
  150.9559  141.9541  157.5627 C   0  0  0  0  0  0  0  0  0  0  0  0
  150.3266  141.6767  156.3994 C   0  0  0  0  0  0  0  0  0  0  0  0
  150.7255  140.6369  155.5773 N   0  0  0  0  0  0  0  0  0  0  0  0
  149.9956  140.3376  154.2846 C   0  0  1  0  0  0  0  0  0  0  0  0
  149.0711  139.1303  154.4641 C   0  0  0  0  0  0  0  0  0  0  0  0
  147.7384  139.8007  154.7391 C   0  0  2  0  0  0  0  0  0  0  0  0
  146.5938  138.9448  154.4193 N   0  0  0  0  0  0  0  0  0  0  0  0
  146.5137  138.5483  153.2493 N   0  3  0  0  0  0  0  0  0  0  0  0
  146.4743  138.2982  152.1399 N   0  5  0  0  0  0  0  0  0  0  0  0
  147.8297  141.0266  153.8267 C   0  0  1  0  0  0  0  0  0  0  0  0
  146.9003  142.1758  154.2484 C   0  0  0  0  0  0  0  0  0  0  0  0
  147.0039  142.4006  155.6382 O   0  0  0  0  0  0  0  0  0  0  0  0
  149.1927  141.4313  153.9432 O   0  0  0  0  0  0  0  0  0  0  0  0
  151.8132  139.8127  155.9688 C   0  0  0  0  0  0  0  0  0  0  0  0
  152.1221  138.8733  155.2352 O   0  0  0  0  0  0  0  0  0  0  0  0
  152.4593  140.0896  157.1372 N   0  5  0  0  0  0  0  0  0  0  0  0
  152.0962  141.1181  157.9562 C   0  0  0  0  0  0  0  0  0  0  0  0
  152.6915  141.3600  159.0057 O   0  0  0  0  0  0  0  0  0  0  0  0
  150.7642  140.1983  153.5228 H   0  0  0  0  0  0  0  0  0  0  0  0
  147.7058  140.1298  155.7799 H   0  0  0  0  0  0  0  0  0  0  0  0
  147.6379  140.7254  152.7948 H   0  0  0  0  0  0  0  0  0  0  0  0
  149.6677  143.6279  158.0503 H   0  0  0  0  0  0  0  0  0  0  0  0
  151.3330  143.8030  158.6077 H   0  0  0  0  0  0  0  0  0  0  0  0
  150.2274  142.7067  159.4475 H   0  0  0  0  0  0  0  0  0  0  0  0
  149.4839  142.2868  156.1135 H   0  0  0  0  0  0  0  0  0  0  0  0
  149.0455  138.5738  153.5261 H   0  0  0  0  0  0  0  0  0  0  0  0
  149.4057  138.4638  155.2604 H   0  0  0  0  0  0  0  0  0  0  0  0
  147.1936  143.0988  153.7477 H   0  0  0  0  0  0  0  0  0  0  0  0
  145.8654  141.9739  153.9719 H   0  0  0  0  0  0  0  0  0  0  0  0
  147.7561  142.9497  155.7981 H   0  0  0  0  0  0  0  0  0  0  0  0
  1  2  1  0  0  0  0
  1 23  1  0  0  0  0
  1 24  1  0  0  0  0
  1 25  1  0  0  0  0
  2 18  1  0  0  0  0
  2  3  2  0  0  0  0
  3  4  1  0  0  0  0
  3 26  1  0  0  0  0
  4  5  1  0  0  0  0
  4 15  1  0  0  0  0
  5 20  1  0  0  0  0
  5 14  1  0  0  0  0
  5  6  1  0  0  0  0
  6  7  1  0  0  0  0
  6 27  1  0  0  0  0
  6 28  1  0  0  0  0
  7 21  1  0  0  0  0
  7  8  1  0  0  0  0
  7 11  1  0  0  0  0
  8  9  2  0  0  0  0
  9 10  2  0  0  0  0
 11 22  1  0  0  0  0
 11 12  1  0  0  0  0
 11 14  1  0  0  0  0
 12 13  1  0  0  0  0
 12 29  1  0  0  0  0
 12 30  1  0  0  0  0
 13 31  1  0  0  0  0
 15 16  2  0  0  0  0
 15 17  1  0  0  0  0
 17 18  1  0  0  0  0
 18 19  2  0  0  0  0
M  CHG  1   9   1
M  CHG  1  10  -1
M  CHG  1  17  -1
M  END
> <s_m_source_file>
AV-unprocessed.smi

> <i_m_source_file_index>
39

> <i_lp_mmshare_version>
43012

> <i_f3d_flags>
0

> <s_epik_input>
Tz1jMVtuSF1jKD1PKW4oW2NIXWMxW0NIM10pW0NASF0yW0NIMl1bQ0BIXShOPVtOK109W04tXSlbQ0BIXShPMilbQ0gyXVtPSF0=

> <s_epik_cmdline>
J2VwaWtfcHl0aG9uJywgJy1waCcsICc3LjAnLCAnLXRuJywgJzgnLCAnLW1hJywgJzIwMCcsICctbWV0YWxfYmluZGluZycsICctaW1hZScsICc8aW5maWxlLm1hZT4nLCAnLW9tYWUnLCAnPG91dGZpbGUubWFlPic=

> <r_lp_tautomer_probability>
0.999537

> <r_epik_Ionization_Penalty>
3.6393

> <r_epik_Ionization_Penalty_Charging>
9.76484e-08

> <r_epik_Ionization_Penalty_Neutral>
3.6393

> <r_epik_State_Penalty>
3.63887

> <r_epik_Charging_Adjusted_Penalty>
3.63887

> <i_epik_Tot_Q>
-1

> <i_epik_Tot_abs_Q>
3

> <r_epik_Metal_State_Penalty>
0.225911

> <b_epik_Metal_Only>
1

> <s_epik_Chemistry_Notes>
This compound contains an acetal/aminal-like group ( X-CH(R)-Y where X, Y are N, S, or O) that may be acid/base labile, releasing an aldehyde.

> <s_lp_Force_Field>
OPLS_2005

> <r_lp_Energy>
34.0218

> <b_lp_Chiralities_Consistent>
1

> <s_lp_Variant>
AV-unprocessed.smi:39-9

> <Gold.Version>
5.8.1

> <Gold.Id.Protein>
6NUR|6NUR_protein|mol2

> <Gold.PLP.Fitness>
41.9223

> <Gold.PLP.PLP>
-28.5649

> <Gold.PLP.part.hbond>
-4.0000

> <Gold.PLP.part.metal>
0.0000

> <Gold.PLP.part.buried>
-1.9972

> <Gold.PLP.part.nonpolar>
-23.4809

> <Gold.PLP.part.repulsive>
1.0104

> <Gold.PLP.ligand.clash>
0.0000

> <Gold.PLP.ligand.torsion>
0.4906

> <Gold.PLP.Chemscore.Hbond>
3.7680

> <Gold.PLP.Chemscore.CHOScore>
1.0000

> <Gold.PLP.Chemscore.Metal>
0.0000

> <Gold.Chemscore.Hbonds>
donor molecule, donor type, donor heavy atom, donor atom, acceptor molecule, acceptor atom, score
      L1  H    13    31       P1  8028  0.88
      P1  H  7997  8009       L1    17  2.00
      P1  H  8011  8017       L1    14  0.74
      L1  C     3    26       P1  8028  0.96

> <Gold.PLP.Chemscore.Internal.Correction>
0.0346

> <Gold.Rescore>
     Score         DG    S(hbond)    S(metal)    S(lipo)     H(rot)  DE(clash)    DE(int)     intcor
      8.19     -10.56       2.16        0.00      41.10       2.72       1.58       0.80       ----

> <Gold.Chemscore.Fitness>
8.1869

> <Gold.Chemscore.DG>
-10.5587

> <Gold.Chemscore.ZeroCoef>
-5.4800

> <Gold.Chemscore.Hbond>
2.1622

> <Gold.Chemscore.Metal>
0.0000

> <Gold.Chemscore.Lipo>
41.0966

> <Gold.Chemscore.Internal_Hbond>
0.0000

> <Gold.Chemscore.DEClash>
1.5753

> <Gold.Chemscore.DEInternal>
0.7966

> <Gold.Chemscore.Rot>
2.7153

> <Gold.Chemscore.Internal.Correction>
   9.000000E+99

> <Gold.Chemscore.Hbonds>
donor molecule, donor type, donor heavy atom, donor atom, acceptor molecule, acceptor atom, score
      L1  H    13    31       P1  8028  0.37
      P1  H  7997  8009       L1    17  0.34
      P1  H  8011  8017       L1    14  0.54

> <Gold.Chemscore.Hbond.Weighted>
-7.2216

> <Gold.Chemscore.Metal.Weighted>
-0.0000

> <Gold.Chemscore.Lipo.Weighted>
-4.8083

> <Gold.Chemscore.Internal_Hbond.Weighted>
0.0000

> <Gold.Chemscore.DEClash.Weighted>
1.5753

> <Gold.Chemscore.DEInternal.Weighted>
0.7966

> <Gold.Chemscore.Rot.Weighted>
6.9512

> <Gold.Chemscore.Internal.Correction.Weighted>
   9.000000E+99

> <Gold.Protein.RotatedTorsions>
[ 6907 6896 6895 6894 ] final   67.21 input  -60.11 | X-H torsion
[ 7974 7965 7964 7962 ] final  110.08 input  175.53 | X-H torsion
[ 8008 7997 7996 7995 ] final -177.83 input   59.86 | X-H torsion
[ 10167 10162 10161 10158 ] final -166.02 input  -65.29 | X-H torsion
[ 10718 10713 10712 10709 ] final -103.04 input   66.30 | X-H torsion
[ 10763 10752 10751 10750 ] final -148.84 input  -60.55 | X-H torsion
[ 11005 11000 10999 10996 ] final  145.98 input  -57.11 | X-H torsion

> <Gold.Protein.ActiveResidues>
 VAL166  LYS551  ARG553  GLY616  TRP617  ASP618  TYR619  PRO620  LYS621  CYS622 
 ASP623  PHE694  ASN695  SER759  ASP760  ASP761  ALA762  ILE779  LEU786  VAL792 
 PHE793  MET794  SER795  GLU796  ALA797  LYS798  CYS799  TRP800  GLU811  SER814 

> <Gold.Protein.RotatedAtoms>
  152.4536  134.5341  159.9819 H   0  0  0  0  0  0  0  0  0  0  0  0  # atno 6907 bound_to 6896
  151.5407  133.3427  159.2943 H   0  0  0  0  0  0  0  0  0  0  0  0  # atno 6908 bound_to 6896
  150.8472  134.7817  159.7043 H   0  0  0  0  0  0  0  0  0  0  0  0  # atno 6909 bound_to 6896
  145.2596  139.2708  143.4024 H   0  0  0  0  0  0  0  0  0  0  0  0  # atno 7974 bound_to 7965
  156.0116  140.1242  157.0448 H   0  0  0  0  0  0  0  0  0  0  0  0  # atno 8008 bound_to 7997
  154.4278  140.1086  156.5907 H   0  0  0  0  0  0  0  0  0  0  0  0  # atno 8009 bound_to 7997
  155.6071  140.3471  155.4613 H   0  0  0  0  0  0  0  0  0  0  0  0  # atno 8010 bound_to 7997
  139.6142  144.0752  152.1872 H   0  0  0  0  0  0  0  0  0  0  0  0  # atno 10167 bound_to 10162
  156.0250  130.5448  150.7196 H   0  0  0  0  0  0  0  0  0  0  0  0  # atno 10718 bound_to 10713
  154.8211  135.3324  154.7036 H   0  0  0  0  0  0  0  0  0  0  0  0  # atno 10763 bound_to 10752
  153.7668  135.6928  153.4919 H   0  0  0  0  0  0  0  0  0  0  0  0  # atno 10764 bound_to 10752
  153.2072  135.4495  155.0285 H   0  0  0  0  0  0  0  0  0  0  0  0  # atno 10765 bound_to 10752
  140.0756  134.9127  157.1416 H   0  0  0  0  0  0  0  0  0  0  0  0  # atno 11005 bound_to 11000
  146.3279  140.3009  142.8620 LP  0  0  0  0  0  0  0  0  0  0  0  0  # atno 17320 bound_to 7965
  144.9430  140.8099  143.5618 LP  0  0  0  0  0  0  0  0  0  0  0  0  # atno 17321 bound_to 7965
  140.0379  144.6030  150.7435 LP  0  0  0  0  0  0  0  0  0  0  0  0  # atno 17342 bound_to 10162
  140.7340  143.2723  151.3848 LP  0  0  0  0  0  0  0  0  0  0  0  0  # atno 17343 bound_to 10162
  157.4814  131.0903  151.0531 LP  0  0  0  0  0  0  0  0  0  0  0  0  # atno 17370 bound_to 10713
  157.0963  130.5963  149.5450 LP  0  0  0  0  0  0  0  0  0  0  0  0  # atno 17371 bound_to 10713
  140.3563  134.2543  155.7192 LP  0  0  0  0  0  0  0  0  0  0  0  0  # atno 17394 bound_to 11000
  141.2028  133.7928  157.0372 LP  0  0  0  0  0  0  0  0  0  0  0  0  # atno 17395 bound_to 11000

$$$$
