AV-unprocessed.smi:1417|AV-procd|sdf|5766|dock5
  -GOLD-   22720 5403D 1   1.00000     0.00000
 Structure written by MMmdl.
 40 41  0  0  0  0  0  0  0  0  2 V2000
  153.7371  129.0748  155.9869 C   0  0  0  0  0  0  0  0  0  0  0  0
  152.5023  129.8936  156.1466 C   0  0  0  0  0  0  0  0  0  0  0  0
  151.5087  130.2552  155.2813 C   0  0  0  0  0  0  0  0  0  0  0  0
  150.6422  131.0378  156.0991 C   0  0  0  0  0  0  0  0  0  0  0  0
  149.4390  131.6674  155.6880 N   0  0  0  0  0  0  0  0  0  0  0  0
  148.8534  131.6395  154.4791 C   0  0  0  0  0  0  0  0  0  0  0  0
  149.2735  131.0294  153.4960 O   0  0  0  0  0  0  0  0  0  0  0  0
  147.7309  132.3731  154.4663 N   0  0  0  0  0  0  0  0  0  0  0  0
  146.8609  132.5553  153.3081 C   0  0  2  0  0  0  0  0  0  0  0  0
  146.3186  131.2021  152.8114 C   0  0  0  0  0  0  0  0  0  0  0  0
  145.4913  131.3733  151.5278 C   0  0  0  0  0  0  0  0  0  0  0  0
  146.2910  132.0359  150.4635 N   0  3  1  0  0  0  0  0  0  0  0  0
  145.5906  132.0882  149.1547 C   0  0  0  0  0  0  0  0  0  0  0  0
  144.1430  132.5760  149.2752 C   0  0  0  0  0  0  0  0  0  0  0  0
  143.8491  133.7429  148.6977 N   0  0  0  0  0  0  0  0  0  0  0  0
  143.2978  131.9060  149.8660 O   0  0  0  0  0  0  0  0  0  0  0  0
  146.7829  133.3665  150.9023 C   0  0  0  0  0  0  0  0  0  0  0  0
  147.6373  133.2477  152.1760 C   0  0  0  0  0  0  0  0  0  0  0  0
  151.0724  131.1409  157.3430 N   0  0  0  0  0  0  0  0  0  0  0  0
  152.2652  130.4092  157.3828 O   0  0  0  0  0  0  0  0  0  0  0  0
  153.9612  128.9098  154.9328 H   0  0  0  0  0  0  0  0  0  0  0  0
  153.6187  128.1017  156.4636 H   0  0  0  0  0  0  0  0  0  0  0  0
  154.5944  129.5726  156.4405 H   0  0  0  0  0  0  0  0  0  0  0  0
  151.4318  129.9926  154.2372 H   0  0  0  0  0  0  0  0  0  0  0  0
  148.9722  132.2078  156.4014 H   0  0  0  0  0  0  0  0  0  0  0  0
  147.4590  132.8393  155.3198 H   0  0  0  0  0  0  0  0  0  0  0  0
  146.0217  133.1950  153.5891 H   0  0  0  0  0  0  0  0  0  0  0  0
  147.1461  130.5170  152.6195 H   0  0  0  0  0  0  0  0  0  0  0  0
  145.7038  130.7346  153.5815 H   0  0  0  0  0  0  0  0  0  0  0  0
  145.1510  130.3942  151.1896 H   0  0  0  0  0  0  0  0  0  0  0  0
  144.5969  131.9633  151.7346 H   0  0  0  0  0  0  0  0  0  0  0  0
  146.1505  132.7101  148.4540 H   0  0  0  0  0  0  0  0  0  0  0  0
  145.5466  131.0884  148.7208 H   0  0  0  0  0  0  0  0  0  0  0  0
  142.9114  134.1146  148.7475 H   0  0  0  0  0  0  0  0  0  0  0  0
  144.5716  134.2552  148.2115 H   0  0  0  0  0  0  0  0  0  0  0  0
  147.3839  133.8169  150.1114 H   0  0  0  0  0  0  0  0  0  0  0  0
  145.9354  134.0316  151.0756 H   0  0  0  0  0  0  0  0  0  0  0  0
  147.9602  134.2393  152.4956 H   0  0  0  0  0  0  0  0  0  0  0  0
  148.5447  132.6853  151.9496 H   0  0  0  0  0  0  0  0  0  0  0  0
  147.1114  131.4653  150.3151 H   0  0  0  0  0  0  0  0  0  0  0  0
  1  2  1  0  0  0  0
  1 21  1  0  0  0  0
  1 22  1  0  0  0  0
  1 23  1  0  0  0  0
  2 20  1  0  0  0  0
  2  3  2  0  0  0  0
  3  4  1  0  0  0  0
  3 24  1  0  0  0  0
  4  5  1  0  0  0  0
  4 19  2  0  0  0  0
  5  6  1  0  0  0  0
  5 25  1  0  0  0  0
  6  7  2  0  0  0  0
  6  8  1  0  0  0  0
  8  9  1  0  0  0  0
  8 26  1  0  0  0  0
  9 18  1  0  0  0  0
  9 10  1  0  0  0  0
  9 27  1  0  0  0  0
 10 11  1  0  0  0  0
 10 28  1  0  0  0  0
 10 29  1  0  0  0  0
 11 12  1  0  0  0  0
 11 30  1  0  0  0  0
 11 31  1  0  0  0  0
 12 13  1  0  0  0  0
 12 17  1  0  0  0  0
 12 40  1  0  0  0  0
 13 14  1  0  0  0  0
 13 32  1  0  0  0  0
 13 33  1  0  0  0  0
 14 15  1  0  0  0  0
 14 16  2  0  0  0  0
 15 34  1  0  0  0  0
 15 35  1  0  0  0  0
 17 18  1  0  0  0  0
 17 36  1  0  0  0  0
 17 37  1  0  0  0  0
 18 38  1  0  0  0  0
 18 39  1  0  0  0  0
 19 20  1  0  0  0  0
M  CHG  1  12   1
M  END
> <s_m_source_file>
AV-unprocessed.smi

> <i_m_source_file_index>
1417

> <i_lp_mmshare_version>
43012

> <i_f3d_flags>
0

> <s_epik_input>
W0NIM11jMVtjSF1jKG5vMSlbTkhdQyg9TylbTkhdW0NIXTJbQ0gyXVtDSDJdTihbQ0gyXVtDSDJdMilbQ0gyXUMoPU8pW05IMl0=

> <s_epik_cmdline>
J2VwaWtfcHl0aG9uJywgJy1waCcsICc3LjAnLCAnLXRuJywgJzgnLCAnLW1hJywgJzIwMCcsICctbWV0YWxfYmluZGluZycsICctaW1hZScsICc8aW5maWxlLm1hZT4nLCAnLW9tYWUnLCAnPG91dGZpbGUubWFlPic=

> <r_epik_Ionization_Penalty>
0.867698

> <r_epik_Ionization_Penalty_Charging>
0.867623

> <r_epik_Ionization_Penalty_Neutral>
7.46743e-05

> <r_epik_State_Penalty>
0.904669

> <r_epik_Charging_Adjusted_Penalty>
1.77229

> <i_epik_Tot_Q>
1

> <i_epik_Tot_abs_Q>
1

> <r_epik_Metal_State_Penalty>
0.930696

> <b_epik_Metal_Only>
0

> <s_lp_Force_Field>
OPLS_2005

> <r_lp_Energy>
11.2149

> <b_lp_Chiralities_Consistent>
1

> <s_lp_Variant>
AV-unprocessed.smi:1417-2

> <Gold.Version>
5.8.1

> <Gold.Id.Protein>
6NUR|6NUR_protein|mol2

> <Gold.PLP.Fitness>
40.6553

> <Gold.PLP.PLP>
-28.9777

> <Gold.PLP.part.hbond>
-4.0000

> <Gold.PLP.part.metal>
0.0000

> <Gold.PLP.part.buried>
-3.4600

> <Gold.PLP.part.nonpolar>
-22.4281

> <Gold.PLP.part.repulsive>
1.9907

> <Gold.PLP.ligand.clash>
0.0000

> <Gold.PLP.ligand.torsion>
0.1748

> <Gold.PLP.Chemscore.Hbond>
4.0000

> <Gold.PLP.Chemscore.CHOScore>
0.0000

> <Gold.PLP.Chemscore.Metal>
0.0000

> <Gold.Chemscore.Hbonds>
donor molecule, donor type, donor heavy atom, donor atom, acceptor molecule, acceptor atom, score
      L1  H    12    40       P1 10747  1.00
      L1  H    15    34       P1 10186  0.89
      L1  H    15    35       P1  7921  1.00
      P1  H 10785 10796       L1    16  0.84

> <Gold.PLP.Chemscore.Internal.Correction>
0.0273

> <Gold.Rescore>
     Score         DG    S(hbond)    S(metal)    S(lipo)     H(rot)  DE(clash)    DE(int)     intcor
     14.83     -19.91       3.78        0.00      60.25       2.05       1.26       3.82       ----

> <Gold.Chemscore.Fitness>
14.8272

> <Gold.Chemscore.DG>
-19.9105

> <Gold.Chemscore.ZeroCoef>
-5.4800

> <Gold.Chemscore.Hbond>
3.7779

> <Gold.Chemscore.Metal>
0.0000

> <Gold.Chemscore.Lipo>
60.2514

> <Gold.Chemscore.Internal_Hbond>
0.0000

> <Gold.Chemscore.DEClash>
1.2584

> <Gold.Chemscore.DEInternal>
3.8249

> <Gold.Chemscore.Rot>
2.0457

> <Gold.Chemscore.Internal.Correction>
   9.000000E+99

> <Gold.Chemscore.Hbonds>
donor molecule, donor type, donor heavy atom, donor atom, acceptor molecule, acceptor atom, score
      L1  H    12    40       P1 10747  0.99
      L1  H    15    34       P1 10186  0.85
      L1  H    15    35       P1  7921  1.00
      P1  H 10785 10796       L1    16  0.36

> <Gold.Chemscore.Hbond.Weighted>
-12.6182

> <Gold.Chemscore.Metal.Weighted>
-0.0000

> <Gold.Chemscore.Lipo.Weighted>
-7.0494

> <Gold.Chemscore.Internal_Hbond.Weighted>
0.0000

> <Gold.Chemscore.DEClash.Weighted>
1.2584

> <Gold.Chemscore.DEInternal.Weighted>
3.8249

> <Gold.Chemscore.Rot.Weighted>
5.2371

> <Gold.Chemscore.Internal.Correction.Weighted>
   9.000000E+99

> <Gold.Protein.RotatedTorsions>
[ 6907 6896 6895 6894 ] final   52.10 input  -60.11 | X-H torsion
[ 7974 7965 7964 7962 ] final  -94.59 input  175.53 | X-H torsion
[ 8008 7997 7996 7995 ] final  172.52 input   59.86 | X-H torsion
[ 10167 10162 10161 10158 ] final -133.61 input  -65.29 | X-H torsion
[ 10718 10713 10712 10709 ] final  146.66 input   66.30 | X-H torsion
[ 10763 10752 10751 10750 ] final -101.61 input  -60.55 | X-H torsion
[ 11005 11000 10999 10996 ] final -135.02 input  -57.11 | X-H torsion

> <Gold.Protein.ActiveResidues>
 VAL166  LYS551  ARG553  GLY616  TRP617  ASP618  TYR619  PRO620  LYS621  CYS622 
 ASP623  PHE694  ASN695  SER759  ASP760  ASP761  ALA762  ILE779  LEU786  VAL792 
 PHE793  MET794  SER795  GLU796  ALA797  LYS798  CYS799  TRP800  GLU811  SER814 

> <Gold.Protein.RotatedAtoms>
  152.3197  134.7396  160.0316 H   0  0  0  0  0  0  0  0  0  0  0  0  # atno 6907 bound_to 6896
  151.7849  133.3348  159.3490 H   0  0  0  0  0  0  0  0  0  0  0  0  # atno 6908 bound_to 6896
  150.7363  134.5828  159.5992 H   0  0  0  0  0  0  0  0  0  0  0  0  # atno 6909 bound_to 6896
  145.3713  140.9505  143.2446 H   0  0  0  0  0  0  0  0  0  0  0  0  # atno 7974 bound_to 7965
  156.1166  140.1484  156.9264 H   0  0  0  0  0  0  0  0  0  0  0  0  # atno 8008 bound_to 7997
  154.4805  140.0881  156.7408 H   0  0  0  0  0  0  0  0  0  0  0  0  # atno 8009 bound_to 7997
  155.4503  140.3434  155.4302 H   0  0  0  0  0  0  0  0  0  0  0  0  # atno 8010 bound_to 7997
  139.8965  143.6659  152.2603 H   0  0  0  0  0  0  0  0  0  0  0  0  # atno 10167 bound_to 10162
  157.3305  131.0919  151.1166 H   0  0  0  0  0  0  0  0  0  0  0  0  # atno 10718 bound_to 10713
  154.7671  135.4891  153.9576 H   0  0  0  0  0  0  0  0  0  0  0  0  # atno 10763 bound_to 10752
  153.1321  135.6755  153.9168 H   0  0  0  0  0  0  0  0  0  0  0  0  # atno 10764 bound_to 10752
  153.8868  135.3125  155.3425 H   0  0  0  0  0  0  0  0  0  0  0  0  # atno 10765 bound_to 10752
  140.8937  134.1779  157.4510 H   0  0  0  0  0  0  0  0  0  0  0  0  # atno 11005 bound_to 11000
  144.8575  139.5228  143.6828 LP  0  0  0  0  0  0  0  0  0  0  0  0  # atno 17320 bound_to 7965
  146.2884  139.7069  142.9179 LP  0  0  0  0  0  0  0  0  0  0  0  0  # atno 17321 bound_to 7965
  139.7063  144.7627  151.1188 LP  0  0  0  0  0  0  0  0  0  0  0  0  # atno 17342 bound_to 10162
  140.7716  143.5390  150.9334 LP  0  0  0  0  0  0  0  0  0  0  0  0  # atno 17343 bound_to 10162
  157.2417  130.6572  149.5892 LP  0  0  0  0  0  0  0  0  0  0  0  0  # atno 17370 bound_to 10713
  155.9695  130.4566  150.5932 LP  0  0  0  0  0  0  0  0  0  0  0  0  # atno 17371 bound_to 10713
  139.8733  134.9869  156.5345 LP  0  0  0  0  0  0  0  0  0  0  0  0  # atno 17394 bound_to 11000
  140.8316  133.8275  155.8989 LP  0  0  0  0  0  0  0  0  0  0  0  0  # atno 17395 bound_to 11000

$$$$
