AV-unprocessed.smi:1325|AV-procd|sdf|5472|dock1
  -GOLD-   22720 5 43D 1   1.00000     0.00000
 Structure written by MMmdl.
 35 36  0  0  0  0  0  0  0  0  1 V2000
  147.9600  141.6615  154.0472 C   0  0  0  0  0  0  0  0  0  0  0  0
  149.1785  141.0971  154.7265 C   0  0  0  0  0  0  0  0  0  0  0  0
  149.7823  141.8680  155.5700 N   0  0  0  0  0  0  0  0  0  0  0  0
  150.9123  141.4503  156.2463 N   0  0  0  0  0  0  0  0  0  0  0  0
  151.4762  142.4625  157.1483 C   0  0  0  0  0  0  0  0  0  0  0  0
  150.6076  142.6647  158.4095 C   0  0  2  0  0  0  0  0  0  0  0  0
  149.7869  143.8018  158.2280 O   0  0  0  0  0  0  0  0  0  0  0  0
  151.4746  142.8082  159.6512 C   0  0  0  0  0  0  0  0  0  0  0  0
  151.3819  143.9714  160.4453 C   0  0  0  0  0  0  0  0  0  0  0  0
  152.1765  144.1082  161.6005 C   0  0  0  0  0  0  0  0  0  0  0  0
  153.0667  143.0818  161.9695 C   0  0  0  0  0  0  0  0  0  0  0  0
  153.1613  141.9174  161.1836 C   0  0  0  0  0  0  0  0  0  0  0  0
  152.3672  141.7802  160.0284 C   0  0  0  0  0  0  0  0  0  0  0  0
  151.4925  140.2244  156.1052 C   0  0  0  0  0  0  0  0  0  0  0  0
  152.5023  139.8908  156.7267 O   0  0  0  0  0  0  0  0  0  0  0  0
  150.8025  139.3555  155.1490 C   0  0  0  0  0  0  0  0  0  0  0  0
  151.3783  138.0619  154.9696 C   0  0  0  0  0  0  0  0  0  0  0  0
  151.8256  137.0043  154.8225 N   0  0  0  0  0  0  0  0  0  0  0  0
  149.6926  139.7542  154.4785 C   0  0  0  0  0  0  0  0  0  0  0  0
  148.9403  138.8909  153.4750 C   0  0  0  0  0  0  0  0  0  0  0  0
  147.0795  141.0565  154.2649 H   0  0  0  0  0  0  0  0  0  0  0  0
  148.0964  141.6857  152.9659 H   0  0  0  0  0  0  0  0  0  0  0  0
  147.7479  142.6809  154.3736 H   0  0  0  0  0  0  0  0  0  0  0  0
  152.4626  142.1073  157.4536 H   0  0  0  0  0  0  0  0  0  0  0  0
  151.6679  143.4123  156.6454 H   0  0  0  0  0  0  0  0  0  0  0  0
  149.9518  141.8040  158.5481 H   0  0  0  0  0  0  0  0  0  0  0  0
  149.4930  143.8189  157.3301 H   0  0  0  0  0  0  0  0  0  0  0  0
  150.7000  144.7637  160.1730 H   0  0  0  0  0  0  0  0  0  0  0  0
  152.1022  145.0010  162.2038 H   0  0  0  0  0  0  0  0  0  0  0  0
  153.6754  143.1867  162.8554 H   0  0  0  0  0  0  0  0  0  0  0  0
  153.8423  141.1284  161.4671 H   0  0  0  0  0  0  0  0  0  0  0  0
  152.4440  140.8820  159.4333 H   0  0  0  0  0  0  0  0  0  0  0  0
  149.3916  137.9063  153.3569 H   0  0  0  0  0  0  0  0  0  0  0  0
  148.9302  139.3662  152.4935 H   0  0  0  0  0  0  0  0  0  0  0  0
  147.9088  138.7414  153.7955 H   0  0  0  0  0  0  0  0  0  0  0  0
  1  2  1  0  0  0  0
  1 21  1  0  0  0  0
  1 22  1  0  0  0  0
  1 23  1  0  0  0  0
  2 19  1  0  0  0  0
  2  3  2  0  0  0  0
  3  4  1  0  0  0  0
  4  5  1  0  0  0  0
  4 14  1  0  0  0  0
  5  6  1  0  0  0  0
  5 24  1  0  0  0  0
  5 25  1  0  0  0  0
  6  7  1  0  0  0  0
  6  8  1  0  0  0  0
  6 26  1  0  0  0  0
  7 27  1  0  0  0  0
  8 13  1  0  0  0  0
  8  9  2  0  0  0  0
  9 10  1  0  0  0  0
  9 28  1  0  0  0  0
 10 11  2  0  0  0  0
 10 29  1  0  0  0  0
 11 12  1  0  0  0  0
 11 30  1  0  0  0  0
 12 13  2  0  0  0  0
 12 31  1  0  0  0  0
 13 32  1  0  0  0  0
 14 15  2  0  0  0  0
 14 16  1  0  0  0  0
 16 17  1  0  0  0  0
 16 19  2  0  0  0  0
 17 18  3  0  0  0  0
 19 20  1  0  0  0  0
 20 33  1  0  0  0  0
 20 34  1  0  0  0  0
 20 35  1  0  0  0  0
M  END
> <s_m_source_file>
AV-unprocessed.smi

> <i_m_source_file_index>
1325

> <i_lp_mmshare_version>
43012

> <i_f3d_flags>
0

> <s_epik_input>
TiNDYyhjMVtDSDNdKWMoPU8pbihuYzFbQ0gzXSlbQ0gyXVtDQEhdKFtPSF0pYzJbY0hdW2NIXVtjSF1bY0hdW2NIXTI=

> <s_epik_cmdline>
J2VwaWtfcHl0aG9uJywgJy1waCcsICc3LjAnLCAnLXRuJywgJzgnLCAnLW1hJywgJzIwMCcsICctbWV0YWxfYmluZGluZycsICctaW1hZScsICc8aW5maWxlLm1hZT4nLCAnLW9tYWUnLCAnPG91dGZpbGUubWFlPic=

> <r_lp_tautomer_probability>
1

> <r_epik_Ionization_Penalty>
7.1854e-08

> <r_epik_Ionization_Penalty_Charging>
1.40848e-10

> <r_epik_Ionization_Penalty_Neutral>
7.17131e-08

> <r_epik_State_Penalty>
-0

> <r_epik_Charging_Adjusted_Penalty>
1.40848e-10

> <i_epik_Tot_Q>
0

> <i_epik_Tot_abs_Q>
0

> <r_epik_Metal_State_Penalty>
-0

> <b_epik_Metal_Only>
0

> <s_lp_Force_Field>
OPLS_2005

> <r_lp_Energy>
27.9871

> <b_lp_Chiralities_Consistent>
1

> <s_lp_Variant>
AV-unprocessed.smi:1325-1

> <Gold.Version>
5.8.1

> <Gold.Id.Protein>
6NUR|6NUR_protein|mol2

> <Gold.PLP.Fitness>
51.1254

> <Gold.PLP.PLP>
-44.0168

> <Gold.PLP.part.hbond>
-4.0000

> <Gold.PLP.part.metal>
0.0000

> <Gold.PLP.part.buried>
-0.8763

> <Gold.PLP.part.nonpolar>
-40.0854

> <Gold.PLP.part.repulsive>
1.3509

> <Gold.PLP.ligand.clash>
0.4831

> <Gold.PLP.ligand.torsion>
0.6964

> <Gold.PLP.Chemscore.Hbond>
2.9920

> <Gold.PLP.Chemscore.CHOScore>
0.0000

> <Gold.PLP.Chemscore.Metal>
0.0000

> <Gold.Chemscore.Hbonds>
donor molecule, donor type, donor heavy atom, donor atom, acceptor molecule, acceptor atom, score
      L1  H     7    27       P1  8028  1.00
      P1  H  7997  8008       L1    15  1.00
      P1  H 10752 10764       L1    18  0.98

> <Gold.PLP.Chemscore.Internal.Correction>
0.0084

> <Gold.Rescore>
     Score         DG    S(hbond)    S(metal)    S(lipo)     H(rot)  DE(clash)    DE(int)     intcor
     20.24     -23.55       2.72        0.00     118.50       1.90       2.69       0.62       ----

> <Gold.Chemscore.Fitness>
20.2408

> <Gold.Chemscore.DG>
-23.5516

> <Gold.Chemscore.ZeroCoef>
-5.4800

> <Gold.Chemscore.Hbond>
2.7195

> <Gold.Chemscore.Metal>
0.0000

> <Gold.Chemscore.Lipo>
118.5016

> <Gold.Chemscore.Internal_Hbond>
0.0000

> <Gold.Chemscore.DEClash>
2.6910

> <Gold.Chemscore.DEInternal>
0.6198

> <Gold.Chemscore.Rot>
1.9047

> <Gold.Chemscore.Internal.Correction>
   9.000000E+99

> <Gold.Chemscore.Hbonds>
donor molecule, donor type, donor heavy atom, donor atom, acceptor molecule, acceptor atom, score
      L1  H     7    27       P1  8028  0.52
      P1  H  7997  8008       L1    15  0.99
      P1  H 10752 10764       L1    18  0.92

> <Gold.Chemscore.Hbond.Weighted>
-9.0830

> <Gold.Chemscore.Metal.Weighted>
-0.0000

> <Gold.Chemscore.Lipo.Weighted>
-13.8647

> <Gold.Chemscore.Internal_Hbond.Weighted>
0.0000

> <Gold.Chemscore.DEClash.Weighted>
2.6910

> <Gold.Chemscore.DEInternal.Weighted>
0.6198

> <Gold.Chemscore.Rot.Weighted>
4.8760

> <Gold.Chemscore.Internal.Correction.Weighted>
   9.000000E+99

> <Gold.Protein.RotatedTorsions>
[ 6907 6896 6895 6894 ] final   22.47 input  -60.11 | X-H torsion
[ 7974 7965 7964 7962 ] final  -56.72 input  175.53 | X-H torsion
[ 8008 7997 7996 7995 ] final  -43.35 input   59.86 | X-H torsion
[ 10167 10162 10161 10158 ] final  159.85 input  -65.29 | X-H torsion
[ 10718 10713 10712 10709 ] final  146.66 input   66.30 | X-H torsion
[ 10763 10752 10751 10750 ] final  -79.10 input  -60.55 | X-H torsion
[ 11005 11000 10999 10996 ] final   39.26 input  -57.11 | X-H torsion

> <Gold.Protein.ActiveResidues>
 VAL166  LYS551  ARG553  GLY616  TRP617  ASP618  TYR619  PRO620  LYS621  CYS622 
 ASP623  PHE694  ASN695  SER759  ASP760  ASP761  ALA762  ILE779  LEU786  VAL792 
 PHE793  MET794  SER795  GLU796  ALA797  LYS798  CYS799  TRP800  GLU811  SER814 

> <Gold.Protein.RotatedAtoms>
  151.9276  135.0270  160.0526 H   0  0  0  0  0  0  0  0  0  0  0  0  # atno 6907 bound_to 6896
  152.2146  133.4932  159.5137 H   0  0  0  0  0  0  0  0  0  0  0  0  # atno 6908 bound_to 6896
  150.6984  134.1339  159.4123 H   0  0  0  0  0  0  0  0  0  0  0  0  # atno 6909 bound_to 6896
  145.8594  140.8296  142.9944 H   0  0  0  0  0  0  0  0  0  0  0  0  # atno 7974 bound_to 7965
  154.3997  140.1450  156.3504 H   0  0  0  0  0  0  0  0  0  0  0  0  # atno 8008 bound_to 7997
  155.8274  140.3467  155.5530 H   0  0  0  0  0  0  0  0  0  0  0  0  # atno 8009 bound_to 7997
  155.8224  140.0900  157.1831 H   0  0  0  0  0  0  0  0  0  0  0  0  # atno 8010 bound_to 7997
  139.4835  144.4690  151.8602 H   0  0  0  0  0  0  0  0  0  0  0  0  # atno 10167 bound_to 10162
  157.3305  131.0919  151.1166 H   0  0  0  0  0  0  0  0  0  0  0  0  # atno 10718 bound_to 10713
  154.5344  135.5707  153.6786 H   0  0  0  0  0  0  0  0  0  0  0  0  # atno 10763 bound_to 10752
  152.9947  135.6212  154.2586 H   0  0  0  0  0  0  0  0  0  0  0  0  # atno 10764 bound_to 10752
  154.2514  135.2859  155.2794 H   0  0  0  0  0  0  0  0  0  0  0  0  # atno 10765 bound_to 10752
  140.2045  134.3830  155.8079 H   0  0  0  0  0  0  0  0  0  0  0  0  # atno 11005 bound_to 11000
  144.6727  140.1073  143.7457 LP  0  0  0  0  0  0  0  0  0  0  0  0  # atno 17320 bound_to 7965
  145.9265  139.2579  143.1350 LP  0  0  0  0  0  0  0  0  0  0  0  0  # atno 17321 bound_to 7965
  140.4157  144.2309  150.5888 LP  0  0  0  0  0  0  0  0  0  0  0  0  # atno 17342 bound_to 10162
  140.4923  143.2343  151.8801 LP  0  0  0  0  0  0  0  0  0  0  0  0  # atno 17343 bound_to 10162
  157.2417  130.6572  149.5892 LP  0  0  0  0  0  0  0  0  0  0  0  0  # atno 17370 bound_to 10713
  155.9695  130.4566  150.5932 LP  0  0  0  0  0  0  0  0  0  0  0  0  # atno 17371 bound_to 10713
  141.2227  133.7111  156.8314 LP  0  0  0  0  0  0  0  0  0  0  0  0  # atno 17394 bound_to 11000
  140.2017  134.8892  157.3177 LP  0  0  0  0  0  0  0  0  0  0  0  0  # atno 17395 bound_to 11000

$$$$
