AV-unprocessed.smi:1756|AV-procd|sdf|7073|dock4
  -GOLD-   22720 8293D 1   1.00000     0.00000
 Structure written by MMmdl.
 37 38  0  0  0  0  0  0  0  0  2 V2000
  144.4417  136.0840  152.4054 O   0  0  0  0  0  0  0  0  0  0  0  0
  145.6555  136.0207  152.2125 C   0  0  0  0  0  0  0  0  0  0  0  0
  146.4750  137.0738  152.3427 N   0  0  0  0  0  0  0  0  0  0  0  0
  146.0680  138.4272  152.7081 C   0  0  0  0  0  0  0  0  0  0  0  0
  147.2696  139.3173  153.0737 C   0  0  2  0  0  0  0  0  0  0  0  0
  148.2401  138.6621  154.0803 C   0  0  0  0  0  0  0  0  0  0  0  0
  149.3503  139.6409  154.4791 C   0  0  0  0  0  0  0  0  0  0  0  0
  148.7327  140.9560  154.9643 C   0  0  0  0  0  0  0  0  0  0  0  0
  147.7474  141.4975  153.9175 C   0  0  0  0  0  0  0  0  0  0  0  0
  146.7503  140.5189  153.6399 O   0  0  0  0  0  0  0  0  0  0  0  0
  146.3481  134.9204  151.8663 N   0  0  0  0  0  0  0  0  0  0  0  0
  145.8964  133.6141  151.6084 C   0  0  0  0  0  0  0  0  0  0  0  0
  146.4910  132.4751  152.0613 C   0  0  0  0  0  0  0  0  0  0  0  0
  145.9637  131.1486  151.7664 C   0  0  0  0  0  0  0  0  0  0  0  0
  146.5541  129.8648  152.3226 C   0  0  0  0  0  0  0  0  0  0  0  0
  145.6443  129.1771  153.0132 F   0  0  0  0  0  0  0  0  0  0  0  0
  146.9873  129.0955  151.3251 F   0  0  0  0  0  0  0  0  0  0  0  0
  147.5857  130.1225  153.1268 F   0  0  0  0  0  0  0  0  0  0  0  0
  144.8049  131.1998  151.0164 C   0  0  0  0  0  0  0  0  0  0  0  0
  144.1597  132.2783  150.5206 N   0  5  0  0  0  0  0  0  0  0  0  0
  144.6658  133.5133  150.7961 C   0  0  0  0  0  0  0  0  0  0  0  0
  144.1210  134.5380  150.3833 O   0  0  0  0  0  0  0  0  0  0  0  0
  147.4594  136.9285  152.1723 H   0  0  0  0  0  0  0  0  0  0  0  0
  145.5538  138.8531  151.8461 H   0  0  0  0  0  0  0  0  0  0  0  0
  145.3383  138.4171  153.5196 H   0  0  0  0  0  0  0  0  0  0  0  0
  147.8083  139.5691  152.1583 H   0  0  0  0  0  0  0  0  0  0  0  0
  147.6911  138.3499  154.9696 H   0  0  0  0  0  0  0  0  0  0  0  0
  148.6858  137.7623  153.6564 H   0  0  0  0  0  0  0  0  0  0  0  0
  149.9805  139.2060  155.2553 H   0  0  0  0  0  0  0  0  0  0  0  0
  149.9953  139.8325  153.6209 H   0  0  0  0  0  0  0  0  0  0  0  0
  148.2087  140.7901  155.9066 H   0  0  0  0  0  0  0  0  0  0  0  0
  149.5141  141.6895  155.1642 H   0  0  0  0  0  0  0  0  0  0  0  0
  147.2615  142.3988  154.2915 H   0  0  0  0  0  0  0  0  0  0  0  0
  148.2670  141.7746  152.9989 H   0  0  0  0  0  0  0  0  0  0  0  0
  147.3493  135.0287  151.7949 H   0  0  0  0  0  0  0  0  0  0  0  0
  147.3775  132.5139  152.6715 H   0  0  0  0  0  0  0  0  0  0  0  0
  144.3200  130.2277  150.7840 H   0  0  0  0  0  0  0  0  0  0  0  0
  1  2  2  0  0  0  0
  2  3  1  0  0  0  0
  2 11  1  0  0  0  0
  3  4  1  0  0  0  0
  3 23  1  0  0  0  0
  4  5  1  0  0  0  0
  4 24  1  0  0  0  0
  4 25  1  0  0  0  0
  5 10  1  0  0  0  0
  5  6  1  0  0  0  0
  5 26  1  0  0  0  0
  6  7  1  0  0  0  0
  6 27  1  0  0  0  0
  6 28  1  0  0  0  0
  7  8  1  0  0  0  0
  7 29  1  0  0  0  0
  7 30  1  0  0  0  0
  8  9  1  0  0  0  0
  8 31  1  0  0  0  0
  8 32  1  0  0  0  0
  9 10  1  0  0  0  0
  9 33  1  0  0  0  0
  9 34  1  0  0  0  0
 11 12  1  0  0  0  0
 11 35  1  0  0  0  0
 12 21  1  0  0  0  0
 12 13  2  0  0  0  0
 13 14  1  0  0  0  0
 13 36  1  0  0  0  0
 14 15  1  0  0  0  0
 14 19  2  0  0  0  0
 15 16  1  0  0  0  0
 15 17  1  0  0  0  0
 15 18  1  0  0  0  0
 19 20  1  0  0  0  0
 19 37  1  0  0  0  0
 20 21  1  0  0  0  0
 21 22  2  0  0  0  0
M  CHG  1  20  -1
M  END
> <s_m_source_file>
AV-unprocessed.smi

> <i_m_source_file_index>
1756

> <i_lp_mmshare_version>
43012

> <i_f3d_flags>
0

> <s_epik_input>
Tz1jMVtuSF1bY0hdYyhDKEYpKEYpRilbY0hdYzFbTkhdQyg9TylbTkhdW0NIMl1bQ0BASF0yW0NIMl1bQ0gyXVtDSDJdW0NIMl1PMg==

> <s_epik_cmdline>
J2VwaWtfcHl0aG9uJywgJy1waCcsICc3LjAnLCAnLXRuJywgJzgnLCAnLW1hJywgJzIwMCcsICctbWV0YWxfYmluZGluZycsICctaW1hZScsICc8aW5maWxlLm1hZT4nLCAnLW9tYWUnLCAnPG91dGZpbGUubWFlPic=

> <r_lp_tautomer_probability>
1

> <r_epik_Ionization_Penalty>
3.16985

> <r_epik_Ionization_Penalty_Charging>
0.174782

> <r_epik_Ionization_Penalty_Neutral>
2.99507

> <r_epik_State_Penalty>
2.99125

> <r_epik_Charging_Adjusted_Penalty>
3.16603

> <i_epik_Tot_Q>
-1

> <i_epik_Tot_abs_Q>
1

> <r_epik_Metal_State_Penalty>
0.453096

> <b_epik_Metal_Only>
1

> <s_lp_Force_Field>
OPLS_2005

> <r_lp_Energy>
21.0117

> <b_lp_Chiralities_Consistent>
1

> <s_lp_Variant>
AV-unprocessed.smi:1756-3

> <Gold.Version>
5.8.1

> <Gold.Id.Protein>
6NUR|6NUR_protein|mol2

> <Gold.PLP.Fitness>
38.4940

> <Gold.PLP.PLP>
-33.5859

> <Gold.PLP.part.hbond>
-2.0000

> <Gold.PLP.part.metal>
0.0000

> <Gold.PLP.part.buried>
0.1253

> <Gold.PLP.part.nonpolar>
-33.2868

> <Gold.PLP.part.repulsive>
0.7950

> <Gold.PLP.ligand.clash>
0.0000

> <Gold.PLP.ligand.torsion>
0.5594

> <Gold.PLP.Chemscore.Hbond>
1.9920

> <Gold.PLP.Chemscore.CHOScore>
0.0000

> <Gold.PLP.Chemscore.Metal>
0.0000

> <Gold.Chemscore.Hbonds>
donor molecule, donor type, donor heavy atom, donor atom, acceptor molecule, acceptor atom, score
      L1  H     3    23       P1  7948  1.00
      L1  H    11    35       P1  7948  1.00

> <Gold.PLP.Chemscore.Internal.Correction>
0.0510

> <Gold.Rescore>
     Score         DG    S(hbond)    S(metal)    S(lipo)     H(rot)  DE(clash)    DE(int)     intcor
     12.62     -16.87       1.88        0.00      72.52       1.32       0.84       3.40       ----

> <Gold.Chemscore.Fitness>
12.6246

> <Gold.Chemscore.DG>
-16.8681

> <Gold.Chemscore.ZeroCoef>
-5.4800

> <Gold.Chemscore.Hbond>
1.8845

> <Gold.Chemscore.Metal>
0.0000

> <Gold.Chemscore.Lipo>
72.5241

> <Gold.Chemscore.Internal_Hbond>
0.0000

> <Gold.Chemscore.DEClash>
0.8435

> <Gold.Chemscore.DEInternal>
3.4000

> <Gold.Chemscore.Rot>
1.3248

> <Gold.Chemscore.Internal.Correction>
   9.000000E+99

> <Gold.Chemscore.Hbonds>
donor molecule, donor type, donor heavy atom, donor atom, acceptor molecule, acceptor atom, score
      L1  H     3    23       P1  7948  1.00
      L1  H    11    35       P1  7948  0.82

> <Gold.Chemscore.Hbond.Weighted>
-6.2943

> <Gold.Chemscore.Metal.Weighted>
-0.0000

> <Gold.Chemscore.Lipo.Weighted>
-8.4853

> <Gold.Chemscore.Internal_Hbond.Weighted>
0.0000

> <Gold.Chemscore.DEClash.Weighted>
0.8435

> <Gold.Chemscore.DEInternal.Weighted>
3.4000

> <Gold.Chemscore.Rot.Weighted>
3.3915

> <Gold.Chemscore.Internal.Correction.Weighted>
   9.000000E+99

> <Gold.Protein.RotatedTorsions>
[ 6907 6896 6895 6894 ] final -140.53 input  -60.11 | X-H torsion
[ 7974 7965 7964 7962 ] final  -34.37 input  175.53 | X-H torsion
[ 8008 7997 7996 7995 ] final  -64.28 input   59.86 | X-H torsion
[ 10167 10162 10161 10158 ] final -110.17 input  -65.29 | X-H torsion
[ 10718 10713 10712 10709 ] final   46.90 input   66.30 | X-H torsion
[ 10763 10752 10751 10750 ] final  146.10 input  -60.55 | X-H torsion
[ 11005 11000 10999 10996 ] final   -0.03 input  -57.11 | X-H torsion

> <Gold.Protein.ActiveResidues>
 VAL166  LYS551  ARG553  GLY616  TRP617  ASP618  TYR619  PRO620  LYS621  CYS622 
 ASP623  PHE694  ASN695  SER759  ASP760  ASP761  ALA762  ILE779  LEU786  VAL792 
 PHE793  MET794  SER795  GLU796  ALA797  LYS798  CYS799  TRP800  GLU811  SER814 

> <Gold.Protein.RotatedAtoms>
  151.0619  133.5537  159.2633 H   0  0  0  0  0  0  0  0  0  0  0  0  # atno 6907 bound_to 6896
  151.2509  135.0621  159.9071 H   0  0  0  0  0  0  0  0  0  0  0  0  # atno 6908 bound_to 6896
  152.5399  134.0379  159.8108 H   0  0  0  0  0  0  0  0  0  0  0  0  # atno 6909 bound_to 6896
  146.0835  140.6030  142.8897 H   0  0  0  0  0  0  0  0  0  0  0  0  # atno 7974 bound_to 7965
  154.4602  140.0957  156.6873 H   0  0  0  0  0  0  0  0  0  0  0  0  # atno 8008 bound_to 7997
  155.5016  140.3474  155.4354 H   0  0  0  0  0  0  0  0  0  0  0  0  # atno 8009 bound_to 7997
  156.0856  140.1384  156.9646 H   0  0  0  0  0  0  0  0  0  0  0  0  # atno 8010 bound_to 7997
  140.1474  143.4228  152.1519 H   0  0  0  0  0  0  0  0  0  0  0  0  # atno 10167 bound_to 10162
  157.4529  130.8149  149.7807 H   0  0  0  0  0  0  0  0  0  0  0  0  # atno 10718 bound_to 10713
  154.0163  135.2910  155.3386 H   0  0  0  0  0  0  0  0  0  0  0  0  # atno 10763 bound_to 10752
  154.7073  135.5164  153.8617 H   0  0  0  0  0  0  0  0  0  0  0  0  # atno 10764 bound_to 10752
  153.0701  135.6644  154.0389 H   0  0  0  0  0  0  0  0  0  0  0  0  # atno 10765 bound_to 10752
  140.6318  133.9568  155.8278 H   0  0  0  0  0  0  0  0  0  0  0  0  # atno 11005 bound_to 11000
  144.7309  140.4669  143.6938 LP  0  0  0  0  0  0  0  0  0  0  0  0  # atno 17320 bound_to 7965
  145.6174  139.1520  143.3042 LP  0  0  0  0  0  0  0  0  0  0  0  0  # atno 17321 bound_to 7965
  139.5442  144.7284  151.4636 LP  0  0  0  0  0  0  0  0  0  0  0  0  # atno 17342 bound_to 10162
  140.6723  143.8266  150.7015 LP  0  0  0  0  0  0  0  0  0  0  0  0  # atno 17343 bound_to 10162
  155.9995  130.3888  150.2663 LP  0  0  0  0  0  0  0  0  0  0  0  0  # atno 17370 bound_to 10713
  157.0836  131.0150  151.3147 LP  0  0  0  0  0  0  0  0  0  0  0  0  # atno 17371 bound_to 10713
  141.0670  134.0262  157.3580 LP  0  0  0  0  0  0  0  0  0  0  0  0  # atno 17394 bound_to 11000
  139.9113  135.0190  156.7703 LP  0  0  0  0  0  0  0  0  0  0  0  0  # atno 17395 bound_to 11000

$$$$
