AV-unprocessed.smi:2729|AV-procd|sdf|10527|dock2
  -GOLD-   2272014573D 1   1.00000     0.00000
 Structure written by MMmdl.
 33 34  0  0  0  0  0  0  0  0  1 V2000
  150.2211  131.3573  155.0568 C   0  0  0  0  0  0  0  0  0  0  0  0
  149.7579  132.7958  155.3688 C   0  0  2  0  0  0  0  0  0  0  0  0
  149.0419  133.3662  154.2188 N   0  0  0  0  0  0  0  0  0  0  0  0
  147.8813  132.9643  153.6756 C   0  0  0  0  0  0  0  0  0  0  0  0
  147.2120  132.0236  154.1010 O   0  0  0  0  0  0  0  0  0  0  0  0
  147.5515  133.7365  152.6265 N   0  0  0  0  0  0  0  0  0  0  0  0
  146.4215  133.6316  151.7715 C   0  0  0  0  0  0  0  0  0  0  0  0
  145.7189  132.4272  151.5238 C   0  0  0  0  0  0  0  0  0  0  0  0
  144.6256  132.4487  150.6367 C   0  0  0  0  0  0  0  0  0  0  0  0
  144.2793  133.6692  150.0255 C   0  0  0  0  0  0  0  0  0  0  0  0
  144.9479  134.8214  150.2418 N   0  0  0  0  0  0  0  0  0  0  0  0
  145.9956  134.7930  151.0927 C   0  0  0  0  0  0  0  0  0  0  0  0
  150.9457  133.7009  155.7921 C   0  0  0  0  0  0  0  0  0  0  0  0
  150.4097  134.9711  156.4629 C   0  0  0  0  0  0  0  0  0  0  0  0
  148.8721  134.4654  157.3165 S   0  0  0  0  0  0  0  0  0  0  0  0
  149.1276  134.3283  158.7584 O   0  0  0  0  0  0  0  0  0  0  0  0
  147.7588  135.2877  156.8188 O   0  0  0  0  0  0  0  0  0  0  0  0
  148.7813  132.7953  156.5623 C   0  0  0  0  0  0  0  0  0  0  0  0
  150.6884  130.8956  155.9271 H   0  0  0  0  0  0  0  0  0  0  0  0
  150.9545  131.3288  154.2511 H   0  0  0  0  0  0  0  0  0  0  0  0
  149.3808  130.7267  154.7640 H   0  0  0  0  0  0  0  0  0  0  0  0
  149.4938  134.1543  153.7785 H   0  0  0  0  0  0  0  0  0  0  0  0
  148.1562  134.5251  152.4478 H   0  0  0  0  0  0  0  0  0  0  0  0
  146.0025  131.4916  151.9798 H   0  0  0  0  0  0  0  0  0  0  0  0
  144.0682  131.5483  150.4257 H   0  0  0  0  0  0  0  0  0  0  0  0
  143.4466  133.7202  149.3396 H   0  0  0  0  0  0  0  0  0  0  0  0
  146.5083  135.7327  151.2389 H   0  0  0  0  0  0  0  0  0  0  0  0
  151.5472  133.1628  156.5261 H   0  0  0  0  0  0  0  0  0  0  0  0
  151.6212  133.9397  154.9710 H   0  0  0  0  0  0  0  0  0  0  0  0
  151.1121  135.4068  157.1737 H   0  0  0  0  0  0  0  0  0  0  0  0
  150.1526  135.7246  155.7181 H   0  0  0  0  0  0  0  0  0  0  0  0
  147.7517  132.5589  156.2911 H   0  0  0  0  0  0  0  0  0  0  0  0
  149.0991  132.0823  157.3241 H   0  0  0  0  0  0  0  0  0  0  0  0
  1  2  1  0  0  0  0
  1 19  1  0  0  0  0
  1 20  1  0  0  0  0
  1 21  1  0  0  0  0
  2 18  1  0  0  0  0
  2  3  1  0  0  0  0
  2 13  1  0  0  0  0
  3  4  1  0  0  0  0
  3 22  1  0  0  0  0
  4  5  2  0  0  0  0
  4  6  1  0  0  0  0
  6  7  1  0  0  0  0
  6 23  1  0  0  0  0
  7 12  1  0  0  0  0
  7  8  2  0  0  0  0
  8  9  1  0  0  0  0
  8 24  1  0  0  0  0
  9 10  2  0  0  0  0
  9 25  1  0  0  0  0
 10 11  1  0  0  0  0
 10 26  1  0  0  0  0
 11 12  2  0  0  0  0
 12 27  1  0  0  0  0
 13 14  1  0  0  0  0
 13 28  1  0  0  0  0
 13 29  1  0  0  0  0
 14 15  1  0  0  0  0
 14 30  1  0  0  0  0
 14 31  1  0  0  0  0
 15 16  2  0  0  0  0
 15 17  2  0  0  0  0
 15 18  1  0  0  0  0
 18 32  1  0  0  0  0
 18 33  1  0  0  0  0
M  END
> <s_m_source_file>
AV-unprocessed.smi

> <i_m_source_file_index>
2729

> <i_lp_mmshare_version>
43012

> <i_f3d_flags>
0

> <s_epik_input>
Tz1TKD1PKShbQ0gyXTEpW0NIMl1bQ0gyXVtDQEBdMShbQ0gzXSlbTkhdQyg9TylbTkhdYzJbY0hdW2NIXVtjSF1uW2NIXTI=

> <s_epik_cmdline>
J2VwaWtfcHl0aG9uJywgJy1waCcsICc3LjAnLCAnLXRuJywgJzgnLCAnLW1hJywgJzIwMCcsICctbWV0YWxfYmluZGluZycsICctaW1hZScsICc8aW5maWxlLm1hZT4nLCAnLW9tYWUnLCAnPG91dGZpbGUubWFlPic=

> <r_epik_Ionization_Penalty>
0.00438887

> <r_epik_Ionization_Penalty_Charging>
0

> <r_epik_Ionization_Penalty_Neutral>
0.00438887

> <r_epik_State_Penalty>
0.00314315

> <r_epik_Charging_Adjusted_Penalty>
0.00314315

> <i_epik_Tot_Q>
0

> <i_epik_Tot_abs_Q>
0

> <r_epik_Metal_State_Penalty>
-0

> <b_epik_Metal_Only>
0

> <s_lp_Force_Field>
OPLS_2005

> <r_lp_Energy>
5.04322

> <b_lp_Chiralities_Consistent>
1

> <s_lp_Variant>
AV-unprocessed.smi:2729-2

> <Gold.Version>
5.8.1

> <Gold.Id.Protein>
6NUR|6NUR_protein|mol2

> <Gold.PLP.Fitness>
34.1982

> <Gold.PLP.PLP>
-22.5749

> <Gold.PLP.part.hbond>
-2.0000

> <Gold.PLP.part.metal>
0.0000

> <Gold.PLP.part.buried>
-5.1223

> <Gold.PLP.part.nonpolar>
-16.8208

> <Gold.PLP.part.repulsive>
1.8677

> <Gold.PLP.ligand.clash>
0.0000

> <Gold.PLP.ligand.torsion>
0.1913

> <Gold.PLP.Chemscore.Hbond>
2.0000

> <Gold.PLP.Chemscore.CHOScore>
1.9969

> <Gold.PLP.Chemscore.Metal>
0.0000

> <Gold.Chemscore.Hbonds>
donor molecule, donor type, donor heavy atom, donor atom, acceptor molecule, acceptor atom, score
      L1  H     6    23       P1  7948  1.00
      P1  H  6896  6908       L1    16  1.00
      L1  C    10    26       P1 10186  0.97
      L1  C    12    27       P1  7948  1.00

> <Gold.PLP.Chemscore.Internal.Correction>
0.0150

> <Gold.Rescore>
     Score         DG    S(hbond)    S(metal)    S(lipo)     H(rot)  DE(clash)    DE(int)     intcor
     15.32     -16.79       2.08        0.00      59.25       1.00       0.29       1.18       ----

> <Gold.Chemscore.Fitness>
15.3234

> <Gold.Chemscore.DG>
-16.7932

> <Gold.Chemscore.ZeroCoef>
-5.4800

> <Gold.Chemscore.Hbond>
2.0781

> <Gold.Chemscore.Metal>
0.0000

> <Gold.Chemscore.Lipo>
59.2511

> <Gold.Chemscore.Internal_Hbond>
0.0000

> <Gold.Chemscore.DEClash>
0.2946

> <Gold.Chemscore.DEInternal>
1.1751

> <Gold.Chemscore.Rot>
1.0000

> <Gold.Chemscore.Internal.Correction>
   9.000000E+99

> <Gold.Chemscore.Hbonds>
donor molecule, donor type, donor heavy atom, donor atom, acceptor molecule, acceptor atom, score
      L1  H     6    23       P1  7948  0.30
      P1  H  6896  6908       L1    16  0.94

> <Gold.Chemscore.Hbond.Weighted>
-6.9408

> <Gold.Chemscore.Metal.Weighted>
-0.0000

> <Gold.Chemscore.Lipo.Weighted>
-6.9324

> <Gold.Chemscore.Internal_Hbond.Weighted>
0.0000

> <Gold.Chemscore.DEClash.Weighted>
0.2946

> <Gold.Chemscore.DEInternal.Weighted>
1.1751

> <Gold.Chemscore.Rot.Weighted>
2.5600

> <Gold.Chemscore.Internal.Correction.Weighted>
   9.000000E+99

> <Gold.Protein.RotatedTorsions>
[ 6907 6896 6895 6894 ] final  129.65 input  -60.11 | X-H torsion
[ 7974 7965 7964 7962 ] final   29.04 input  175.53 | X-H torsion
[ 8008 7997 7996 7995 ] final   79.30 input   59.86 | X-H torsion
[ 10167 10162 10161 10158 ] final -161.60 input  -65.29 | X-H torsion
[ 10718 10713 10712 10709 ] final -142.67 input   66.30 | X-H torsion
[ 10763 10752 10751 10750 ] final  -56.03 input  -60.55 | X-H torsion
[ 11005 11000 10999 10996 ] final  -90.95 input  -57.11 | X-H torsion

> <Gold.Protein.ActiveResidues>
 VAL166  LYS551  ARG553  GLY616  TRP617  ASP618  TYR619  PRO620  LYS621  CYS622 
 ASP623  PHE694  ASN695  SER759  ASP760  ASP761  ALA762  ILE779  LEU786  VAL792 
 PHE793  MET794  SER795  GLU796  ALA797  LYS798  CYS799  TRP800  GLU811  SER814 

> <Gold.Protein.RotatedAtoms>
  152.3603  133.6288  159.6009 H   0  0  0  0  0  0  0  0  0  0  0  0  # atno 6907 bound_to 6896
  150.7596  133.9435  159.3472 H   0  0  0  0  0  0  0  0  0  0  0  0  # atno 6908 bound_to 6896
  151.7274  135.0883  160.0345 H   0  0  0  0  0  0  0  0  0  0  0  0  # atno 6909 bound_to 6896
  146.1694  139.6975  142.8978 H   0  0  0  0  0  0  0  0  0  0  0  0  # atno 7974 bound_to 7965
  155.8678  140.3450  155.5800 H   0  0  0  0  0  0  0  0  0  0  0  0  # atno 8008 bound_to 7997
  155.7861  140.0865  157.2053 H   0  0  0  0  0  0  0  0  0  0  0  0  # atno 8009 bound_to 7997
  154.4015  140.1492  156.3096 H   0  0  0  0  0  0  0  0  0  0  0  0  # atno 8010 bound_to 7997
  139.6453  144.0183  152.2123 H   0  0  0  0  0  0  0  0  0  0  0  0  # atno 10167 bound_to 10162
  156.3487  130.7676  151.1825 H   0  0  0  0  0  0  0  0  0  0  0  0  # atno 10718 bound_to 10713
  154.2001  135.6412  153.5084 H   0  0  0  0  0  0  0  0  0  0  0  0  # atno 10763 bound_to 10752
  153.0014  135.5449  154.6324 H   0  0  0  0  0  0  0  0  0  0  0  0  # atno 10764 bound_to 10752
  154.5735  135.2919  155.0777 H   0  0  0  0  0  0  0  0  0  0  0  0  # atno 10765 bound_to 10752
  141.1555  133.7724  156.9810 H   0  0  0  0  0  0  0  0  0  0  0  0  # atno 11005 bound_to 11000
  145.4380  141.0420  143.2873 LP  0  0  0  0  0  0  0  0  0  0  0  0  # atno 17320 bound_to 7965
  144.8141  139.5909  143.7016 LP  0  0  0  0  0  0  0  0  0  0  0  0  # atno 17321 bound_to 7965
  139.9883  144.6380  150.7837 LP  0  0  0  0  0  0  0  0  0  0  0  0  # atno 17342 bound_to 10162
  140.7512  143.2968  151.3184 LP  0  0  0  0  0  0  0  0  0  0  0  0  # atno 17343 bound_to 10162
  157.7458  131.0434  150.4740 LP  0  0  0  0  0  0  0  0  0  0  0  0  # atno 17370 bound_to 10713
  156.4932  130.4100  149.6395 LP  0  0  0  0  0  0  0  0  0  0  0  0  # atno 17371 bound_to 10713
  140.1066  134.9503  157.2002 LP  0  0  0  0  0  0  0  0  0  0  0  0  # atno 17394 bound_to 11000
  140.3249  134.2875  155.7239 LP  0  0  0  0  0  0  0  0  0  0  0  0  # atno 17395 bound_to 11000

$$$$
