AV-unprocessed.smi:2889|AV-procd|sdf|11111|dock10
  -GOLD-   2272015583D 1   1.00000     0.00000
 Structure written by MMmdl.
 36 37  0  0  0  0  0  0  0  0  1 V2000
  154.4553  140.4526  161.3605 C   0  0  0  0  0  0  0  0  0  0  0  0
  153.8088  140.8209  159.7064 S   0  0  0  0  0  0  0  0  0  0  0  0
  152.5956  142.1279  160.0786 C   0  0  1  0  0  0  0  0  0  0  0  0
  153.0988  142.9715  161.2652 C   0  0  0  0  0  0  0  0  0  0  0  0
  152.1373  144.1212  161.6017 C   0  0  0  0  0  0  0  0  0  0  0  0
  151.8996  145.0149  160.3767 C   0  0  0  0  0  0  0  0  0  0  0  0
  151.3763  144.1928  159.1905 C   0  0  0  0  0  0  0  0  0  0  0  0
  152.3208  143.0245  158.8475 C   0  0  2  0  0  0  0  0  0  0  0  0
  151.7262  142.2373  157.7657 N   0  0  0  0  0  0  0  0  0  0  0  0
  150.4676  141.1207  158.1454 S   0  0  0  0  0  0  0  0  0  0  0  0
  151.0417  140.0706  159.0014 O   0  0  0  0  0  0  0  0  0  0  0  0
  149.3192  141.9136  158.6098 O   0  0  0  0  0  0  0  0  0  0  0  0
  150.0704  140.4034  156.4927 C   0  0  0  0  0  0  0  0  0  0  0  0
  151.2933  139.7585  155.9011 C   0  0  0  0  0  0  0  0  0  0  0  0
  151.4027  139.0026  154.7007 C   0  0  0  0  0  0  0  0  0  0  0  0
  152.7254  138.6688  154.6531 C   0  0  0  0  0  0  0  0  0  0  0  0
  153.3798  139.1665  155.7321 O   0  0  0  0  0  0  0  0  0  0  0  0
  152.4568  139.8591  156.5240 N   0  0  0  0  0  0  0  0  0  0  0  0
  155.2406  139.7000  161.2929 H   0  0  0  0  0  0  0  0  0  0  0  0
  153.6711  140.0679  162.0113 H   0  0  0  0  0  0  0  0  0  0  0  0
  154.8775  141.3493  161.8141 H   0  0  0  0  0  0  0  0  0  0  0  0
  151.6662  141.6460  160.3857 H   0  0  0  0  0  0  0  0  0  0  0  0
  153.2308  142.3376  162.1425 H   0  0  0  0  0  0  0  0  0  0  0  0
  154.0823  143.3821  161.0319 H   0  0  0  0  0  0  0  0  0  0  0  0
  151.1873  143.7153  161.9511 H   0  0  0  0  0  0  0  0  0  0  0  0
  152.5411  144.7149  162.4221 H   0  0  0  0  0  0  0  0  0  0  0  0
  151.1902  145.8052  160.6241 H   0  0  0  0  0  0  0  0  0  0  0  0
  152.8302  145.5101  160.0968 H   0  0  0  0  0  0  0  0  0  0  0  0
  150.3847  143.8064  159.4312 H   0  0  0  0  0  0  0  0  0  0  0  0
  151.2507  144.8410  158.3222 H   0  0  0  0  0  0  0  0  0  0  0  0
  153.2730  143.4323  158.5043 H   0  0  0  0  0  0  0  0  0  0  0  0
  151.4563  142.8387  156.9878 H   0  0  0  0  0  0  0  0  0  0  0  0
  149.2750  139.6707  156.6328 H   0  0  0  0  0  0  0  0  0  0  0  0
  149.6798  141.1922  155.8506 H   0  0  0  0  0  0  0  0  0  0  0  0
  150.6341  138.7515  153.9851 H   0  0  0  0  0  0  0  0  0  0  0  0
  153.3249  138.1074  153.9517 H   0  0  0  0  0  0  0  0  0  0  0  0
  1  2  1  0  0  0  0
  1 19  1  0  0  0  0
  1 20  1  0  0  0  0
  1 21  1  0  0  0  0
  2  3  1  0  0  0  0
  3  8  1  0  0  0  0
  3  4  1  0  0  0  0
  3 22  1  0  0  0  0
  4  5  1  0  0  0  0
  4 23  1  0  0  0  0
  4 24  1  0  0  0  0
  5  6  1  0  0  0  0
  5 25  1  0  0  0  0
  5 26  1  0  0  0  0
  6  7  1  0  0  0  0
  6 27  1  0  0  0  0
  6 28  1  0  0  0  0
  7  8  1  0  0  0  0
  7 29  1  0  0  0  0
  7 30  1  0  0  0  0
  8  9  1  0  0  0  0
  8 31  1  0  0  0  0
  9 10  1  0  0  0  0
  9 32  1  0  0  0  0
 10 11  2  0  0  0  0
 10 12  2  0  0  0  0
 10 13  1  0  0  0  0
 13 14  1  0  0  0  0
 13 33  1  0  0  0  0
 13 34  1  0  0  0  0
 14 18  2  0  0  0  0
 14 15  1  0  0  0  0
 15 16  2  0  0  0  0
 15 35  1  0  0  0  0
 16 17  1  0  0  0  0
 16 36  1  0  0  0  0
 17 18  1  0  0  0  0
M  END
> <s_m_source_file>
AV-unprocessed.smi

> <i_m_source_file_index>
2889

> <i_lp_mmshare_version>
43012

> <i_f3d_flags>
0

> <s_epik_input>
W0NIM11TW0NAQEhdMVtDSDJdW0NIMl1bQ0gyXVtDSDJdW0NASF0xW05IXVMoPU8pKD1PKVtDSDJdYzJbY0hdW2NIXW9uMg==

> <s_epik_cmdline>
J2VwaWtfcHl0aG9uJywgJy1waCcsICc3LjAnLCAnLXRuJywgJzgnLCAnLW1hJywgJzIwMCcsICctbWV0YWxfYmluZGluZycsICctaW1hZScsICc8aW5maWxlLm1hZT4nLCAnLW9tYWUnLCAnPG91dGZpbGUubWFlPic=

> <r_lp_tautomer_probability>
1

> <r_epik_Ionization_Penalty>
0.000229547

> <r_epik_Ionization_Penalty_Charging>
0

> <r_epik_Ionization_Penalty_Neutral>
0.000229547

> <r_epik_State_Penalty>
-0

> <r_epik_Charging_Adjusted_Penalty>
0

> <i_epik_Tot_Q>
0

> <i_epik_Tot_abs_Q>
0

> <r_epik_Metal_State_Penalty>
0.145979

> <b_epik_Metal_Only>
0

> <s_lp_Force_Field>
OPLS_2005

> <r_lp_Energy>
3.91212

> <b_lp_Chiralities_Consistent>
1

> <s_lp_Variant>
AV-unprocessed.smi:2889-4

> <Gold.Version>
5.8.1

> <Gold.Id.Protein>
6NUR|6NUR_protein|mol2

> <Gold.PLP.Fitness>
44.2295

> <Gold.PLP.PLP>
-42.8780

> <Gold.PLP.part.hbond>
-2.2140

> <Gold.PLP.part.metal>
0.0000

> <Gold.PLP.part.buried>
-4.5419

> <Gold.PLP.part.nonpolar>
-35.2456

> <Gold.PLP.part.repulsive>
0.0726

> <Gold.PLP.ligand.clash>
0.0000

> <Gold.PLP.ligand.torsion>
0.5297

> <Gold.PLP.Chemscore.Hbond>
0.7488

> <Gold.PLP.Chemscore.CHOScore>
0.0000

> <Gold.PLP.Chemscore.Metal>
0.0000

> <Gold.Chemscore.Hbonds>
donor molecule, donor type, donor heavy atom, donor atom, acceptor molecule, acceptor atom, score
      P1  H  7997  8008       L1    17  0.75

> <Gold.PLP.Chemscore.Internal.Correction>
0.1643

> <Gold.Rescore>
     Score         DG    S(hbond)    S(metal)    S(lipo)     H(rot)  DE(clash)    DE(int)     intcor
     10.36     -16.09       0.47        0.00     116.76       1.81       0.18       5.55       ----

> <Gold.Chemscore.Fitness>
10.3619

> <Gold.Chemscore.DG>
-16.0915

> <Gold.Chemscore.ZeroCoef>
-5.4800

> <Gold.Chemscore.Hbond>
0.4712

> <Gold.Chemscore.Metal>
0.0000

> <Gold.Chemscore.Lipo>
116.7582

> <Gold.Chemscore.Internal_Hbond>
0.0000

> <Gold.Chemscore.DEClash>
0.1792

> <Gold.Chemscore.DEInternal>
5.5505

> <Gold.Chemscore.Rot>
1.8058

> <Gold.Chemscore.Internal.Correction>
   9.000000E+99

> <Gold.Chemscore.Hbonds>
donor molecule, donor type, donor heavy atom, donor atom, acceptor molecule, acceptor atom, score
      P1  H  7997  8008       L1    17  0.14

> <Gold.Chemscore.Hbond.Weighted>
-1.5737

> <Gold.Chemscore.Metal.Weighted>
-0.0000

> <Gold.Chemscore.Lipo.Weighted>
-13.6607

> <Gold.Chemscore.Internal_Hbond.Weighted>
0.0000

> <Gold.Chemscore.DEClash.Weighted>
0.1792

> <Gold.Chemscore.DEInternal.Weighted>
5.5505

> <Gold.Chemscore.Rot.Weighted>
4.6228

> <Gold.Chemscore.Internal.Correction.Weighted>
   9.000000E+99

> <Gold.Protein.RotatedTorsions>
[ 6907 6896 6895 6894 ] final   98.19 input  -60.11 | X-H torsion
[ 7974 7965 7964 7962 ] final  151.14 input  175.53 | X-H torsion
[ 8008 7997 7996 7995 ] final   -8.51 input   59.86 | X-H torsion
[ 10167 10162 10161 10158 ] final -179.12 input  -65.29 | X-H torsion
[ 10718 10713 10712 10709 ] final  -10.55 input   66.30 | X-H torsion
[ 10763 10752 10751 10750 ] final -170.36 input  -60.55 | X-H torsion
[ 11005 11000 10999 10996 ] final -118.79 input  -57.11 | X-H torsion

> <Gold.Protein.ActiveResidues>
 VAL166  LYS551  ARG553  GLY616  TRP617  ASP618  TYR619  PRO620  LYS621  CYS622 
 ASP623  PHE694  ASN695  SER759  ASP760  ASP761  ALA762  ILE779  LEU786  VAL792 
 PHE793  MET794  SER795  GLU796  ALA797  LYS798  CYS799  TRP800  GLU811  SER814 

> <Gold.Protein.RotatedAtoms>
  152.5413  134.0619  159.8155 H   0  0  0  0  0  0  0  0  0  0  0  0  # atno 6907 bound_to 6896
  151.0745  133.5431  159.2632 H   0  0  0  0  0  0  0  0  0  0  0  0  # atno 6908 bound_to 6896
  151.2282  135.0552  159.9031 H   0  0  0  0  0  0  0  0  0  0  0  0  # atno 6909 bound_to 6896
  144.8313  139.6499  143.6057 H   0  0  0  0  0  0  0  0  0  0  0  0  # atno 7974 bound_to 7965
  154.5735  140.2379  155.8157 H   0  0  0  0  0  0  0  0  0  0  0  0  # atno 8008 bound_to 7997
  156.2125  140.3022  155.9721 H   0  0  0  0  0  0  0  0  0  0  0  0  # atno 8009 bound_to 7997
  155.2670  140.0417  157.2993 H   0  0  0  0  0  0  0  0  0  0  0  0  # atno 8010 bound_to 7997
  139.5401  144.2388  152.0876 H   0  0  0  0  0  0  0  0  0  0  0  0  # atno 10167 bound_to 10162
  156.6719  130.5011  149.5998 H   0  0  0  0  0  0  0  0  0  0  0  0  # atno 10718 bound_to 10713
  154.6424  135.2900  155.0087 H   0  0  0  0  0  0  0  0  0  0  0  0  # atno 10763 bound_to 10752
  154.1209  135.6548  153.4907 H   0  0  0  0  0  0  0  0  0  0  0  0  # atno 10764 bound_to 10752
  153.0333  135.5287  154.7296 H   0  0  0  0  0  0  0  0  0  0  0  0  # atno 10765 bound_to 10752
  141.0261  134.0052  157.3212 H   0  0  0  0  0  0  0  0  0  0  0  0  # atno 11005 bound_to 11000
  146.2616  139.6423  142.9358 LP  0  0  0  0  0  0  0  0  0  0  0  0  # atno 17320 bound_to 7965
  145.4889  141.0438  143.2604 LP  0  0  0  0  0  0  0  0  0  0  0  0  # atno 17321 bound_to 7965
  140.1865  144.4794  150.6501 LP  0  0  0  0  0  0  0  0  0  0  0  0  # atno 17342 bound_to 10162
  140.6626  143.2257  151.5819 LP  0  0  0  0  0  0  0  0  0  0  0  0  # atno 17343 bound_to 10162
  156.1932  130.6573  151.1085 LP  0  0  0  0  0  0  0  0  0  0  0  0  # atno 17370 bound_to 10713
  157.7074  131.0750  150.6619 LP  0  0  0  0  0  0  0  0  0  0  0  0  # atno 17371 bound_to 10713
  139.9177  135.0198  156.7944 LP  0  0  0  0  0  0  0  0  0  0  0  0  # atno 17394 bound_to 11000
  140.6489  133.9750  155.7745 LP  0  0  0  0  0  0  0  0  0  0  0  0  # atno 17395 bound_to 11000

$$$$
