AV-unprocessed.smi:1830|AV-procd|sdf|7445|dock2
  -GOLD-   22720 9133D 1   1.00000     0.00000
 Structure written by MMmdl.
 54 57  0  0  0  0  0  0  0  0  3 V2000
  146.1567  136.9967  153.7189 O   0  0  0  0  0  0  0  0  0  0  0  0
  145.5139  138.0055  153.4294 C   0  0  0  0  0  0  0  0  0  0  0  0
  146.0694  139.2150  153.2705 N   0  0  0  0  0  0  0  0  0  0  0  0
  147.4912  139.5052  153.4242 C   0  0  0  0  0  0  0  0  0  0  0  0
  147.7719  141.0249  153.4316 C   0  0  1  0  0  0  0  0  0  0  0  0
  146.9142  141.7927  154.4671 C   0  0  0  0  0  0  0  0  0  0  0  0
  147.4550  141.5524  155.8180 N   0  3  2  0  0  0  0  0  0  0  0  0
  146.7809  142.1937  156.9602 C   0  0  0  0  0  0  0  0  0  0  0  0
  147.8595  142.2819  158.0582 C   0  0  0  0  0  0  0  0  0  0  0  0
  149.1685  141.8161  157.3960 C   0  0  0  0  0  0  0  0  0  0  0  0
  148.8645  141.9389  155.9062 C   0  0  1  0  0  0  0  0  0  0  0  0
  149.6805  141.0816  154.9321 C   0  0  0  0  0  0  0  0  0  0  0  0
  149.1693  141.3033  153.6146 O   0  0  0  0  0  0  0  0  0  0  0  0
  144.1881  138.0432  153.2166 N   0  0  0  0  0  0  0  0  0  0  0  0
  143.2661  136.9584  153.2532 C   0  0  0  0  0  0  0  0  0  0  0  0
  141.9567  137.1055  153.7785 C   0  0  0  0  0  0  0  0  0  0  0  0
  141.0667  136.0146  153.7565 C   0  0  0  0  0  0  0  0  0  0  0  0
  141.4947  134.7963  153.2003 C   0  0  0  0  0  0  0  0  0  0  0  0
  142.7414  134.6929  152.6948 N   0  3  0  0  0  0  0  0  0  0  0  0
  143.6401  135.7083  152.6875 C   0  0  0  0  0  0  0  0  0  0  0  0
  144.9258  135.4780  152.1529 N   0  0  0  0  0  0  0  0  0  0  0  0
  145.6755  134.4240  152.8322 C   0  0  0  0  0  0  0  0  0  0  0  0
  146.4754  133.6940  151.7513 C   0  0  0  0  0  0  0  0  0  0  0  0
  145.6434  133.9178  150.4947 C   0  0  0  0  0  0  0  0  0  0  0  0
  145.0974  135.3282  150.7084 C   0  0  0  0  0  0  0  0  0  0  0  0
  145.4688  139.9902  153.0299 H   0  0  0  0  0  0  0  0  0  0  0  0
  147.8573  139.0533  154.3478 H   0  0  0  0  0  0  0  0  0  0  0  0
  148.0307  139.0097  152.6176 H   0  0  0  0  0  0  0  0  0  0  0  0
  147.5084  141.4120  152.4468 H   0  0  0  0  0  0  0  0  0  0  0  0
  146.9386  142.8622  154.2527 H   0  0  0  0  0  0  0  0  0  0  0  0
  145.8704  141.4804  154.4186 H   0  0  0  0  0  0  0  0  0  0  0  0
  146.4454  143.1944  156.6827 H   0  0  0  0  0  0  0  0  0  0  0  0
  145.9099  141.6174  157.2736 H   0  0  0  0  0  0  0  0  0  0  0  0
  147.9486  143.3088  158.4145 H   0  0  0  0  0  0  0  0  0  0  0  0
  147.6138  141.6566  158.9173 H   0  0  0  0  0  0  0  0  0  0  0  0
  150.0322  142.4081  157.7011 H   0  0  0  0  0  0  0  0  0  0  0  0
  149.3648  140.7751  157.6565 H   0  0  0  0  0  0  0  0  0  0  0  0
  148.9580  142.9894  155.6217 H   0  0  0  0  0  0  0  0  0  0  0  0
  150.7308  141.3722  154.9580 H   0  0  0  0  0  0  0  0  0  0  0  0
  149.6360  140.0244  155.1946 H   0  0  0  0  0  0  0  0  0  0  0  0
  143.8121  138.9237  152.8965 H   0  0  0  0  0  0  0  0  0  0  0  0
  141.6131  138.0450  154.1841 H   0  0  0  0  0  0  0  0  0  0  0  0
  140.0678  136.1144  154.1556 H   0  0  0  0  0  0  0  0  0  0  0  0
  140.8816  133.9087  153.1399 H   0  0  0  0  0  0  0  0  0  0  0  0
  146.3327  134.8369  153.5978 H   0  0  0  0  0  0  0  0  0  0  0  0
  144.9889  133.7295  153.3193 H   0  0  0  0  0  0  0  0  0  0  0  0
  147.4531  134.1632  151.6329 H   0  0  0  0  0  0  0  0  0  0  0  0
  146.6325  132.6393  151.9790 H   0  0  0  0  0  0  0  0  0  0  0  0
  146.2210  133.8201  149.5751 H   0  0  0  0  0  0  0  0  0  0  0  0
  144.8221  133.2007  150.4593 H   0  0  0  0  0  0  0  0  0  0  0  0
  144.1976  135.5061  150.1198 H   0  0  0  0  0  0  0  0  0  0  0  0
  145.8351  136.0637  150.3857 H   0  0  0  0  0  0  0  0  0  0  0  0
  147.4189  140.5573  155.9872 H   0  0  0  0  0  0  0  0  0  0  0  0
  143.0244  133.7966  152.2981 H   0  0  0  0  0  0  0  0  0  0  0  0
  1  2  2  0  0  0  0
  2  3  1  0  0  0  0
  2 14  1  0  0  0  0
  3  4  1  0  0  0  0
  3 26  1  0  0  0  0
  4  5  1  0  0  0  0
  4 27  1  0  0  0  0
  4 28  1  0  0  0  0
  5 13  1  0  0  0  0
  5  6  1  0  0  0  0
  5 29  1  0  0  0  0
  6  7  1  0  0  0  0
  6 30  1  0  0  0  0
  6 31  1  0  0  0  0
  7 11  1  0  0  0  0
  7  8  1  0  0  0  0
  7 53  1  0  0  0  0
  8  9  1  0  0  0  0
  8 32  1  0  0  0  0
  8 33  1  0  0  0  0
  9 10  1  0  0  0  0
  9 34  1  0  0  0  0
  9 35  1  0  0  0  0
 10 11  1  0  0  0  0
 10 36  1  0  0  0  0
 10 37  1  0  0  0  0
 11 12  1  0  0  0  0
 11 38  1  0  0  0  0
 12 13  1  0  0  0  0
 12 39  1  0  0  0  0
 12 40  1  0  0  0  0
 14 15  1  0  0  0  0
 14 41  1  0  0  0  0
 15 20  1  0  0  0  0
 15 16  2  0  0  0  0
 16 17  1  0  0  0  0
 16 42  1  0  0  0  0
 17 18  2  0  0  0  0
 17 43  1  0  0  0  0
 18 19  1  0  0  0  0
 18 44  1  0  0  0  0
 19 20  2  0  0  0  0
 19 54  1  0  0  0  0
 20 21  1  0  0  0  0
 21 25  1  0  0  0  0
 21 22  1  0  0  0  0
 22 23  1  0  0  0  0
 22 45  1  0  0  0  0
 22 46  1  0  0  0  0
 23 24  1  0  0  0  0
 23 47  1  0  0  0  0
 23 48  1  0  0  0  0
 24 25  1  0  0  0  0
 24 49  1  0  0  0  0
 24 50  1  0  0  0  0
 25 51  1  0  0  0  0
 25 52  1  0  0  0  0
M  CHG  1   7   1
M  CHG  1  19   1
M  END
> <s_m_source_file>
AV-unprocessed.smi

> <i_m_source_file_index>
1830

> <i_lp_mmshare_version>
43012

> <i_f3d_flags>
0

> <s_epik_input>
W0NIMl0xW0NIMl1bQ0gyXVtDQEhdKE4xMilbQ0gyXU9bQ0BASF0oW0NIMl0yKVtDSDJdW05IXUMoPU8pW05IXWMzW2NIXVtjSF1bY0hdbmMzTjRbQ0gyXVtDSDJdW0NIMl1bQ0gyXTQ=

> <s_epik_cmdline>
J2VwaWtfcHl0aG9uJywgJy1waCcsICc3LjAnLCAnLXRuJywgJzgnLCAnLW1hJywgJzIwMCcsICctbWV0YWxfYmluZGluZycsICctaW1hZScsICc8aW5maWxlLm1hZT4nLCAnLW9tYWUnLCAnPG91dGZpbGUubWFlPic=

> <r_lp_tautomer_probability>
0.999994

> <r_epik_Ionization_Penalty>
1.29113

> <r_epik_Ionization_Penalty_Charging>
1.29111

> <r_epik_Ionization_Penalty_Neutral>
1.88144e-05

> <r_epik_State_Penalty>
1.32676

> <r_epik_Charging_Adjusted_Penalty>
2.61787

> <i_epik_Tot_Q>
2

> <i_epik_Tot_abs_Q>
2

> <r_epik_Metal_State_Penalty>
1.40425

> <b_epik_Metal_Only>
0

> <s_lp_Force_Field>
OPLS_2005

> <r_lp_Energy>
76.3722

> <b_lp_Chiralities_Consistent>
1

> <s_lp_Variant>
AV-unprocessed.smi:1830-14

> <Gold.Version>
5.8.1

> <Gold.Id.Protein>
6NUR|6NUR_protein|mol2

> <Gold.PLP.Fitness>
44.8950

> <Gold.PLP.PLP>
-37.3642

> <Gold.PLP.part.hbond>
-3.9948

> <Gold.PLP.part.metal>
0.0000

> <Gold.PLP.part.buried>
-3.2512

> <Gold.PLP.part.nonpolar>
-31.6975

> <Gold.PLP.part.repulsive>
1.8800

> <Gold.PLP.ligand.clash>
0.0000

> <Gold.PLP.ligand.torsion>
0.4795

> <Gold.PLP.Chemscore.Hbond>
2.7760

> <Gold.PLP.Chemscore.CHOScore>
0.0000

> <Gold.PLP.Chemscore.Metal>
0.0000

> <Gold.Chemscore.Hbonds>
donor molecule, donor type, donor heavy atom, donor atom, acceptor molecule, acceptor atom, score
      L1  H     3    26       P1 10175  0.90
      L1  H    14    41       P1 10175  1.00
      P1  H  8011  8017       L1    13  0.91

> <Gold.PLP.Chemscore.Internal.Correction>
0.1617

> <Gold.Rescore>
     Score         DG    S(hbond)    S(metal)    S(lipo)     H(rot)  DE(clash)    DE(int)     intcor
     13.88     -20.48       2.75        0.00      80.90       1.43       0.42       6.18       ----

> <Gold.Chemscore.Fitness>
13.8828

> <Gold.Chemscore.DG>
-20.4760

> <Gold.Chemscore.ZeroCoef>
-5.4800

> <Gold.Chemscore.Hbond>
2.7501

> <Gold.Chemscore.Metal>
0.0000

> <Gold.Chemscore.Lipo>
80.9036

> <Gold.Chemscore.Internal_Hbond>
0.0000

> <Gold.Chemscore.DEClash>
0.4154

> <Gold.Chemscore.DEInternal>
6.1778

> <Gold.Chemscore.Rot>
1.4278

> <Gold.Chemscore.Internal.Correction>
   9.000000E+99

> <Gold.Chemscore.Hbonds>
donor molecule, donor type, donor heavy atom, donor atom, acceptor molecule, acceptor atom, score
      L1  H     3    26       P1 10175  0.86
      L1  H    14    41       P1 10175  0.98
      P1  H  8011  8017       L1    13  0.69

> <Gold.Chemscore.Hbond.Weighted>
-9.1854

> <Gold.Chemscore.Metal.Weighted>
-0.0000

> <Gold.Chemscore.Lipo.Weighted>
-9.4657

> <Gold.Chemscore.Internal_Hbond.Weighted>
0.0000

> <Gold.Chemscore.DEClash.Weighted>
0.4154

> <Gold.Chemscore.DEInternal.Weighted>
6.1778

> <Gold.Chemscore.Rot.Weighted>
3.6551

> <Gold.Chemscore.Internal.Correction.Weighted>
   9.000000E+99

> <Gold.Protein.RotatedTorsions>
[ 6907 6896 6895 6894 ] final -106.41 input  -60.11 | X-H torsion
[ 7974 7965 7964 7962 ] final   65.11 input  175.53 | X-H torsion
[ 8008 7997 7996 7995 ] final  -81.65 input   59.86 | X-H torsion
[ 10167 10162 10161 10158 ] final  -27.85 input  -65.29 | X-H torsion
[ 10718 10713 10712 10709 ] final -101.48 input   66.30 | X-H torsion
[ 10763 10752 10751 10750 ] final  -88.31 input  -60.55 | X-H torsion
[ 11005 11000 10999 10996 ] final  139.67 input  -57.11 | X-H torsion

> <Gold.Protein.ActiveResidues>
 VAL166  LYS551  ARG553  GLY616  TRP617  ASP618  TYR619  PRO620  LYS621  CYS622 
 ASP623  PHE694  ASN695  SER759  ASP760  ASP761  ALA762  ILE779  LEU786  VAL792 
 PHE793  MET794  SER795  GLU796  ALA797  LYS798  CYS799  TRP800  GLU811  SER814 

> <Gold.Protein.RotatedAtoms>
  150.7388  133.9981  159.3628 H   0  0  0  0  0  0  0  0  0  0  0  0  # atno 6907 bound_to 6896
  151.7933  135.0727  160.0399 H   0  0  0  0  0  0  0  0  0  0  0  0  # atno 6908 bound_to 6896
  152.3192  133.5799  159.5769 H   0  0  0  0  0  0  0  0  0  0  0  0  # atno 6909 bound_to 6896
  145.8423  139.3203  143.0924 H   0  0  0  0  0  0  0  0  0  0  0  0  # atno 7974 bound_to 7965
  154.6005  140.0644  156.9362 H   0  0  0  0  0  0  0  0  0  0  0  0  # atno 8008 bound_to 7997
  155.2140  140.3325  155.4306 H   0  0  0  0  0  0  0  0  0  0  0  0  # atno 8009 bound_to 7997
  156.2315  140.1843  156.7213 H   0  0  0  0  0  0  0  0  0  0  0  0  # atno 8010 bound_to 7997
  140.7274  143.4059  151.1186 H   0  0  0  0  0  0  0  0  0  0  0  0  # atno 10167 bound_to 10162
  156.0196  130.5375  150.6969 H   0  0  0  0  0  0  0  0  0  0  0  0  # atno 10718 bound_to 10713
  154.6432  135.5381  153.7814 H   0  0  0  0  0  0  0  0  0  0  0  0  # atno 10763 bound_to 10752
  153.0345  135.6464  154.1128 H   0  0  0  0  0  0  0  0  0  0  0  0  # atno 10764 bound_to 10752
  154.1051  135.2930  155.3223 H   0  0  0  0  0  0  0  0  0  0  0  0  # atno 10765 bound_to 10752
  140.0271  134.9369  157.0590 H   0  0  0  0  0  0  0  0  0  0  0  0  # atno 11005 bound_to 11000
  145.9451  140.8950  143.0287 LP  0  0  0  0  0  0  0  0  0  0  0  0  # atno 17320 bound_to 7965
  144.6733  140.1603  143.7423 LP  0  0  0  0  0  0  0  0  0  0  0  0  # atno 17321 bound_to 7965
  139.7686  143.8528  152.3116 LP  0  0  0  0  0  0  0  0  0  0  0  0  # atno 17342 bound_to 10162
  139.8439  144.7197  150.9297 LP  0  0  0  0  0  0  0  0  0  0  0  0  # atno 17343 bound_to 10162
  157.4638  131.0886  151.0717 LP  0  0  0  0  0  0  0  0  0  0  0  0  # atno 17370 bound_to 10713
  157.1197  130.6056  149.5502 LP  0  0  0  0  0  0  0  0  0  0  0  0  # atno 17371 bound_to 10713
  140.4288  134.1803  155.7167 LP  0  0  0  0  0  0  0  0  0  0  0  0  # atno 17394 bound_to 11000
  141.1809  133.8415  157.1260 LP  0  0  0  0  0  0  0  0  0  0  0  0  # atno 17395 bound_to 11000

$$$$
