AV-unprocessed.smi:2389|AV-procd|sdf|9472|dock7
  -GOLD-   2272013103D 1   1.00000     0.00000
 Structure written by MMmdl.
 34 35  0  0  0  0  0  0  0  0  1 V2000
  152.5427  138.6362  155.7465 C   0  0  0  0  0  0  0  0  0  0  0  0
  152.2806  138.3705  154.2621 C   0  0  0  0  0  0  0  0  0  0  0  0
  150.8829  138.1700  154.0721 O   0  0  0  0  0  0  0  0  0  0  0  0
  150.0317  139.2358  154.2813 C   0  0  0  0  0  0  0  0  0  0  0  0
  148.7112  139.1512  153.8013 C   0  0  0  0  0  0  0  0  0  0  0  0
  147.8490  140.2418  154.0129 C   0  0  0  0  0  0  0  0  0  0  0  0
  148.3376  141.3726  154.6945 C   0  0  0  0  0  0  0  0  0  0  0  0
  149.6750  141.3842  155.1486 C   0  0  0  0  0  0  0  0  0  0  0  0
  150.0743  142.5679  155.8245 N   0  0  0  0  0  0  0  0  0  0  0  0
  150.9498  142.6895  156.8383 C   0  0  0  0  0  0  0  0  0  0  0  0
  151.5701  141.7616  157.3589 O   0  0  0  0  0  0  0  0  0  0  0  0
  151.0684  143.9673  157.2262 N   0  0  0  0  0  0  0  0  0  0  0  0
  151.9338  144.4356  158.3009 C   0  0  0  0  0  0  0  0  0  0  0  0
  151.5270  143.9893  159.6923 C   0  0  0  0  0  0  0  0  0  0  0  0
  152.2412  144.5062  160.9202 C   0  0  0  0  0  0  0  0  0  0  0  0
  152.4238  143.0715  160.4898 C   0  0  0  0  0  0  0  0  0  0  0  0
  150.4965  140.3265  154.9386 N   0  0  0  0  0  0  0  0  0  0  0  0
  153.6047  138.7993  155.9309 H   0  0  0  0  0  0  0  0  0  0  0  0
  152.2235  137.7915  156.3572 H   0  0  0  0  0  0  0  0  0  0  0  0
  152.0036  139.5203  156.0877 H   0  0  0  0  0  0  0  0  0  0  0  0
  152.6268  139.2196  153.6705 H   0  0  0  0  0  0  0  0  0  0  0  0
  152.8396  137.4883  153.9458 H   0  0  0  0  0  0  0  0  0  0  0  0
  148.3680  138.2693  153.2807 H   0  0  0  0  0  0  0  0  0  0  0  0
  146.8295  140.2126  153.6576 H   0  0  0  0  0  0  0  0  0  0  0  0
  147.6885  142.2193  154.8649 H   0  0  0  0  0  0  0  0  0  0  0  0
  149.6395  143.4197  155.5024 H   0  0  0  0  0  0  0  0  0  0  0  0
  150.5215  144.6659  156.7448 H   0  0  0  0  0  0  0  0  0  0  0  0
  152.9361  144.0549  158.1036 H   0  0  0  0  0  0  0  0  0  0  0  0
  152.0098  145.5239  158.2711 H   0  0  0  0  0  0  0  0  0  0  0  0
  150.4597  143.8032  159.7980 H   0  0  0  0  0  0  0  0  0  0  0  0
  153.0779  145.1861  160.7719 H   0  0  0  0  0  0  0  0  0  0  0  0
  151.6398  144.6948  161.8070 H   0  0  0  0  0  0  0  0  0  0  0  0
  151.9465  142.3011  161.0917 H   0  0  0  0  0  0  0  0  0  0  0  0
  153.3838  142.7970  160.0564 H   0  0  0  0  0  0  0  0  0  0  0  0
  1  2  1  0  0  0  0
  1 18  1  0  0  0  0
  1 19  1  0  0  0  0
  1 20  1  0  0  0  0
  2  3  1  0  0  0  0
  2 21  1  0  0  0  0
  2 22  1  0  0  0  0
  3  4  1  0  0  0  0
  4 17  1  0  0  0  0
  4  5  2  0  0  0  0
  5  6  1  0  0  0  0
  5 23  1  0  0  0  0
  6  7  2  0  0  0  0
  6 24  1  0  0  0  0
  7  8  1  0  0  0  0
  7 25  1  0  0  0  0
  8  9  1  0  0  0  0
  8 17  2  0  0  0  0
  9 10  1  0  0  0  0
  9 26  1  0  0  0  0
 10 11  2  0  0  0  0
 10 12  1  0  0  0  0
 12 13  1  0  0  0  0
 12 27  1  0  0  0  0
 13 14  1  0  0  0  0
 13 28  1  0  0  0  0
 13 29  1  0  0  0  0
 14 16  1  0  0  0  0
 14 15  1  0  0  0  0
 14 30  1  0  0  0  0
 15 16  1  0  0  0  0
 15 31  1  0  0  0  0
 15 32  1  0  0  0  0
 16 33  1  0  0  0  0
 16 34  1  0  0  0  0
M  END
> <s_m_source_file>
AV-unprocessed.smi

> <i_m_source_file_index>
2389

> <i_lp_mmshare_version>
43012

> <i_f3d_flags>
0

> <s_epik_input>
W0NIM11bQ0gyXU9jMVtjSF1bY0hdW2NIXWMobjEpW05IXUMoPU8pW05IXVtDSDJdW0NIXTJbQ0gyXVtDSDJdMg==

> <s_epik_cmdline>
J2VwaWtfcHl0aG9uJywgJy1waCcsICc3LjAnLCAnLXRuJywgJzgnLCAnLW1hJywgJzIwMCcsICctbWV0YWxfYmluZGluZycsICctaW1hZScsICc8aW5maWxlLm1hZT4nLCAnLW9tYWUnLCAnPG91dGZpbGUubWFlPic=

> <r_lp_tautomer_probability>
1

> <r_epik_Ionization_Penalty>
4.07356e-05

> <r_epik_Ionization_Penalty_Charging>
0

> <r_epik_Ionization_Penalty_Neutral>
4.07356e-05

> <r_epik_State_Penalty>
-0

> <r_epik_Charging_Adjusted_Penalty>
0

> <i_epik_Tot_Q>
0

> <i_epik_Tot_abs_Q>
0

> <r_epik_Metal_State_Penalty>
-0

> <b_epik_Metal_Only>
0

> <s_lp_Force_Field>
OPLS_2005

> <r_lp_Energy>
13.6513

> <b_lp_Chiralities_Consistent>
1

> <s_lp_Variant>
AV-unprocessed.smi:2389-1

> <Gold.Version>
5.8.1

> <Gold.Id.Protein>
6NUR|6NUR_protein|mol2

> <Gold.PLP.Fitness>
45.5614

> <Gold.PLP.PLP>
-38.7938

> <Gold.PLP.part.hbond>
-3.0000

> <Gold.PLP.part.metal>
0.0000

> <Gold.PLP.part.buried>
-4.0762

> <Gold.PLP.part.nonpolar>
-32.7962

> <Gold.PLP.part.repulsive>
0.4970

> <Gold.PLP.ligand.clash>
0.0000

> <Gold.PLP.ligand.torsion>
0.8276

> <Gold.PLP.Chemscore.Hbond>
2.6180

> <Gold.PLP.Chemscore.CHOScore>
0.0000

> <Gold.PLP.Chemscore.Metal>
0.0000

> <Gold.Chemscore.Hbonds>
donor molecule, donor type, donor heavy atom, donor atom, acceptor molecule, acceptor atom, score
      L1  H     9    26       P1  8028  0.94
      L1  H    12    27       P1  8028  0.78
      P1  H  7989  7998       L1    17  0.70

> <Gold.PLP.Chemscore.Internal.Correction>
0.5687

> <Gold.Rescore>
     Score         DG    S(hbond)    S(metal)    S(lipo)     H(rot)  DE(clash)    DE(int)     intcor
     13.84     -17.18       1.87        0.00      82.18       1.62       0.09       3.26       ----

> <Gold.Chemscore.Fitness>
13.8352

> <Gold.Chemscore.DG>
-17.1813

> <Gold.Chemscore.ZeroCoef>
-5.4800

> <Gold.Chemscore.Hbond>
1.8684

> <Gold.Chemscore.Metal>
0.0000

> <Gold.Chemscore.Lipo>
82.1827

> <Gold.Chemscore.Internal_Hbond>
0.0000

> <Gold.Chemscore.DEClash>
0.0874

> <Gold.Chemscore.DEInternal>
3.2588

> <Gold.Chemscore.Rot>
1.6228

> <Gold.Chemscore.Internal.Correction>
   9.000000E+99

> <Gold.Chemscore.Hbonds>
donor molecule, donor type, donor heavy atom, donor atom, acceptor molecule, acceptor atom, score
      L1  H     9    26       P1  8028  0.89
      L1  H    12    27       P1  8028  0.68
      P1  H  7989  7998       L1    17  0.03

> <Gold.Chemscore.Hbond.Weighted>
-6.2404

> <Gold.Chemscore.Metal.Weighted>
-0.0000

> <Gold.Chemscore.Lipo.Weighted>
-9.6154

> <Gold.Chemscore.Internal_Hbond.Weighted>
0.0000

> <Gold.Chemscore.DEClash.Weighted>
0.0874

> <Gold.Chemscore.DEInternal.Weighted>
3.2588

> <Gold.Chemscore.Rot.Weighted>
4.1545

> <Gold.Chemscore.Internal.Correction.Weighted>
   9.000000E+99

> <Gold.Protein.RotatedTorsions>
[ 6907 6896 6895 6894 ] final  148.41 input  -60.11 | X-H torsion
[ 7974 7965 7964 7962 ] final   98.77 input  175.53 | X-H torsion
[ 8008 7997 7996 7995 ] final   65.43 input   59.86 | X-H torsion
[ 10167 10162 10161 10158 ] final -121.23 input  -65.29 | X-H torsion
[ 10718 10713 10712 10709 ] final  -96.30 input   66.30 | X-H torsion
[ 10763 10752 10751 10750 ] final  -53.94 input  -60.55 | X-H torsion
[ 11005 11000 10999 10996 ] final  145.75 input  -57.11 | X-H torsion

> <Gold.Protein.ActiveResidues>
 VAL166  LYS551  ARG553  GLY616  TRP617  ASP618  TYR619  PRO620  LYS621  CYS622 
 ASP623  PHE694  ASN695  SER759  ASP760  ASP761  ALA762  ILE779  LEU786  VAL792 
 PHE793  MET794  SER795  GLU796  ALA797  LYS798  CYS799  TRP800  GLU811  SER814 

> <Gold.Protein.RotatedAtoms>
  152.1418  133.4468  159.4770 H   0  0  0  0  0  0  0  0  0  0  0  0  # atno 6907 bound_to 6896
  150.6887  134.2296  159.4438 H   0  0  0  0  0  0  0  0  0  0  0  0  # atno 6908 bound_to 6896
  152.0187  134.9835  160.0620 H   0  0  0  0  0  0  0  0  0  0  0  0  # atno 6909 bound_to 6896
  145.4077  139.2338  143.3265 H   0  0  0  0  0  0  0  0  0  0  0  0  # atno 7974 bound_to 7965
  155.6616  140.3497  155.4784 H   0  0  0  0  0  0  0  0  0  0  0  0  # atno 8008 bound_to 7997
  155.9764  140.1166  157.0789 H   0  0  0  0  0  0  0  0  0  0  0  0  # atno 8009 bound_to 7997
  154.4180  140.1147  156.5362 H   0  0  0  0  0  0  0  0  0  0  0  0  # atno 8010 bound_to 7997
  140.0273  143.5283  152.2193 H   0  0  0  0  0  0  0  0  0  0  0  0  # atno 10167 bound_to 10162
  156.0059  130.5145  150.6205 H   0  0  0  0  0  0  0  0  0  0  0  0  # atno 10718 bound_to 10713
  154.1669  135.6465  153.5000 H   0  0  0  0  0  0  0  0  0  0  0  0  # atno 10763 bound_to 10752
  153.0095  135.5374  154.6653 H   0  0  0  0  0  0  0  0  0  0  0  0  # atno 10764 bound_to 10752
  154.5981  135.2941  155.0536 H   0  0  0  0  0  0  0  0  0  0  0  0  # atno 10765 bound_to 10752
  140.0737  134.9137  157.1388 H   0  0  0  0  0  0  0  0  0  0  0  0  # atno 11005 bound_to 11000
  146.2720  140.4784  142.8810 LP  0  0  0  0  0  0  0  0  0  0  0  0  # atno 17320 bound_to 7965
  144.8330  140.6737  143.6278 LP  0  0  0  0  0  0  0  0  0  0  0  0  # atno 17321 bound_to 7965
  139.6099  144.7606  151.2975 LP  0  0  0  0  0  0  0  0  0  0  0  0  # atno 17342 bound_to 10162
  140.7317  143.6844  150.7974 LP  0  0  0  0  0  0  0  0  0  0  0  0  # atno 17343 bound_to 10162
  157.4021  131.0811  151.1299 LP  0  0  0  0  0  0  0  0  0  0  0  0  # atno 17370 bound_to 10713
  157.1957  130.6372  149.5720 LP  0  0  0  0  0  0  0  0  0  0  0  0  # atno 17371 bound_to 10713
  140.3589  134.2516  155.7189 LP  0  0  0  0  0  0  0  0  0  0  0  0  # atno 17394 bound_to 11000
  141.2021  133.7945  157.0405 LP  0  0  0  0  0  0  0  0  0  0  0  0  # atno 17395 bound_to 11000

$$$$
