AV-unprocessed.smi:2325|AV-procd|sdf|9296|dock2
  -GOLD-   2272012513D 1   1.00000     0.00000
 Structure written by MMmdl.
 40 41  0  0  0  0  0  0  0  0  1 V2000
  150.1682  139.3644  149.4394 C   0  0  0  0  0  0  0  0  0  0  0  0
  149.4445  138.9312  148.2599 N   0  0  0  0  0  0  0  0  0  0  0  0
  149.7271  139.4462  147.0401 N   0  0  0  0  0  0  0  0  0  0  0  0
  148.8659  138.8094  146.2460 C   0  0  0  0  0  0  0  0  0  0  0  0
  148.0376  137.9123  146.8580 N   0  0  0  0  0  0  0  0  0  0  0  0
  148.4568  138.0433  148.1128 C   0  0  0  0  0  0  0  0  0  0  0  0
  147.9513  137.3454  149.2421 N   0  0  0  0  0  0  0  0  0  0  0  0
  146.6814  136.9784  149.4819 C   0  0  0  0  0  0  0  0  0  0  0  0
  145.7296  137.1786  148.7272 O   0  0  0  0  0  0  0  0  0  0  0  0
  146.5723  136.3594  150.6656 N   0  0  0  0  0  0  0  0  0  0  0  0
  145.3259  135.8605  151.2432 C   0  0  1  0  0  0  0  0  0  0  0  0
  145.3867  134.3657  151.4872 C   0  0  0  0  0  0  0  0  0  0  0  0
  144.3364  134.1487  152.5827 C   0  0  0  0  0  0  0  0  0  0  0  0
  142.9406  133.8748  151.9967 C   0  0  0  0  0  0  0  0  0  0  0  0
  144.7447  133.0444  153.5697 C   0  0  0  0  0  0  0  0  0  0  0  0
  144.2660  135.3852  153.2908 O   0  0  0  0  0  0  0  0  0  0  0  0
  145.0201  136.4149  152.6524 C   0  0  0  0  0  0  0  0  0  0  0  0
  146.2688  136.6487  153.5285 C   0  0  0  0  0  0  0  0  0  0  0  0
  144.1440  137.6768  152.6074 C   0  0  0  0  0  0  0  0  0  0  0  0
  150.6101  138.5008  149.9371 H   0  0  0  0  0  0  0  0  0  0  0  0
  149.4829  139.8601  150.1271 H   0  0  0  0  0  0  0  0  0  0  0  0
  150.9637  140.0600  149.1684 H   0  0  0  0  0  0  0  0  0  0  0  0
  148.8333  138.9992  145.1832 H   0  0  0  0  0  0  0  0  0  0  0  0
  148.6319  137.1086  149.9484 H   0  0  0  0  0  0  0  0  0  0  0  0
  147.4078  136.2378  151.2187 H   0  0  0  0  0  0  0  0  0  0  0  0
  144.4895  136.0596  150.5701 H   0  0  0  0  0  0  0  0  0  0  0  0
  145.1955  133.7806  150.5869 H   0  0  0  0  0  0  0  0  0  0  0  0
  146.3767  134.0881  151.8530 H   0  0  0  0  0  0  0  0  0  0  0  0
  142.9278  132.9465  151.4248 H   0  0  0  0  0  0  0  0  0  0  0  0
  142.6204  134.6778  151.3323 H   0  0  0  0  0  0  0  0  0  0  0  0
  142.1934  133.7877  152.7860 H   0  0  0  0  0  0  0  0  0  0  0  0
  144.8385  132.0814  153.0670 H   0  0  0  0  0  0  0  0  0  0  0  0
  144.0071  132.9347  154.3651 H   0  0  0  0  0  0  0  0  0  0  0  0
  145.7021  133.2698  154.0406 H   0  0  0  0  0  0  0  0  0  0  0  0
  146.8869  137.4583  153.1399 H   0  0  0  0  0  0  0  0  0  0  0  0
  146.8896  135.7548  153.5912 H   0  0  0  0  0  0  0  0  0  0  0  0
  145.9845  136.9184  154.5460 H   0  0  0  0  0  0  0  0  0  0  0  0
  144.6682  138.5068  152.1336 H   0  0  0  0  0  0  0  0  0  0  0  0
  143.8610  137.9954  153.6110 H   0  0  0  0  0  0  0  0  0  0  0  0
  143.2248  137.5007  152.0481 H   0  0  0  0  0  0  0  0  0  0  0  0
  1  2  1  0  0  0  0
  1 20  1  0  0  0  0
  1 21  1  0  0  0  0
  1 22  1  0  0  0  0
  2  6  1  0  0  0  0
  2  3  1  0  0  0  0
  3  4  2  0  0  0  0
  4  5  1  0  0  0  0
  4 23  1  0  0  0  0
  5  6  2  0  0  0  0
  6  7  1  0  0  0  0
  7  8  1  0  0  0  0
  7 24  1  0  0  0  0
  8  9  2  0  0  0  0
  8 10  1  0  0  0  0
 10 11  1  0  0  0  0
 10 25  1  0  0  0  0
 11 17  1  0  0  0  0
 11 12  1  0  0  0  0
 11 26  1  0  0  0  0
 12 13  1  0  0  0  0
 12 27  1  0  0  0  0
 12 28  1  0  0  0  0
 13 14  1  0  0  0  0
 13 15  1  0  0  0  0
 13 16  1  0  0  0  0
 14 29  1  0  0  0  0
 14 30  1  0  0  0  0
 14 31  1  0  0  0  0
 15 32  1  0  0  0  0
 15 33  1  0  0  0  0
 15 34  1  0  0  0  0
 16 17  1  0  0  0  0
 17 18  1  0  0  0  0
 17 19  1  0  0  0  0
 18 35  1  0  0  0  0
 18 36  1  0  0  0  0
 18 37  1  0  0  0  0
 19 38  1  0  0  0  0
 19 39  1  0  0  0  0
 19 40  1  0  0  0  0
M  END
> <s_m_source_file>
AV-unprocessed.smi

> <i_m_source_file_index>
2325

> <i_lp_mmshare_version>
43012

> <i_f3d_flags>
0

> <s_epik_input>
W0NIM11uMW5bY0hdbmMxW05IXUMoPU8pW05IXVtDQEBIXShDKE8yKShbQ0gzXSlbQ0gzXSlbQ0gyXUMyKFtDSDNdKVtDSDNd

> <s_epik_cmdline>
J2VwaWtfcHl0aG9uJywgJy1waCcsICc3LjAnLCAnLXRuJywgJzgnLCAnLW1hJywgJzIwMCcsICctbWV0YWxfYmluZGluZycsICctaW1hZScsICc8aW5maWxlLm1hZT4nLCAnLW9tYWUnLCAnPG91dGZpbGUubWFlPic=

> <r_lp_tautomer_probability>
1

> <r_epik_Ionization_Penalty>
1.97832e-05

> <r_epik_Ionization_Penalty_Charging>
0

> <r_epik_Ionization_Penalty_Neutral>
1.97832e-05

> <r_epik_State_Penalty>
-0

> <r_epik_Charging_Adjusted_Penalty>
0

> <i_epik_Tot_Q>
0

> <i_epik_Tot_abs_Q>
0

> <r_epik_Metal_State_Penalty>
-0

> <b_epik_Metal_Only>
0

> <s_lp_Force_Field>
OPLS_2005

> <r_lp_Energy>
17.1515

> <b_lp_Chiralities_Consistent>
1

> <s_lp_Variant>
AV-unprocessed.smi:2325-2

> <Gold.Version>
5.8.1

> <Gold.Id.Protein>
6NUR|6NUR_protein|mol2

> <Gold.PLP.Fitness>
33.7031

> <Gold.PLP.PLP>
-25.3930

> <Gold.PLP.part.hbond>
-2.3075

> <Gold.PLP.part.metal>
0.0000

> <Gold.PLP.part.buried>
-2.7248

> <Gold.PLP.part.nonpolar>
-21.2439

> <Gold.PLP.part.repulsive>
0.5925

> <Gold.PLP.ligand.clash>
0.0000

> <Gold.PLP.ligand.torsion>
0.2665

> <Gold.PLP.Chemscore.Hbond>
1.9440

> <Gold.PLP.Chemscore.CHOScore>
1.0000

> <Gold.PLP.Chemscore.Metal>
0.0000

> <Gold.Chemscore.Hbonds>
donor molecule, donor type, donor heavy atom, donor atom, acceptor molecule, acceptor atom, score
      L1  H    10    25       P1  7948  1.00

> <Gold.PLP.Chemscore.Internal.Correction>
0.0112

> <Gold.Rescore>
     Score         DG    S(hbond)    S(metal)    S(lipo)     H(rot)  DE(clash)    DE(int)     intcor
     14.09     -14.44       1.94        0.00      43.22       1.00       0.00       0.35       ----

> <Gold.Chemscore.Fitness>
14.0883

> <Gold.Chemscore.DG>
-14.4422

> <Gold.Chemscore.ZeroCoef>
-5.4800

> <Gold.Chemscore.Hbond>
1.9358

> <Gold.Chemscore.Metal>
0.0000

> <Gold.Chemscore.Lipo>
43.2188

> <Gold.Chemscore.Internal_Hbond>
0.0000

> <Gold.Chemscore.DEClash>
0.0000

> <Gold.Chemscore.DEInternal>
0.3538

> <Gold.Chemscore.Rot>
1.0000

> <Gold.Chemscore.Internal.Correction>
   9.000000E+99

> <Gold.Chemscore.Hbonds>
donor molecule, donor type, donor heavy atom, donor atom, acceptor molecule, acceptor atom, score
      L1  H    10    25       P1  7948  0.99

> <Gold.Chemscore.Hbond.Weighted>
-6.4656

> <Gold.Chemscore.Metal.Weighted>
-0.0000

> <Gold.Chemscore.Lipo.Weighted>
-5.0566

> <Gold.Chemscore.Internal_Hbond.Weighted>
0.0000

> <Gold.Chemscore.DEClash.Weighted>
0.0000

> <Gold.Chemscore.DEInternal.Weighted>
0.3538

> <Gold.Chemscore.Rot.Weighted>
2.5600

> <Gold.Chemscore.Internal.Correction.Weighted>
   9.000000E+99

> <Gold.Protein.RotatedTorsions>
[ 6907 6896 6895 6894 ] final   78.63 input  -60.11 | X-H torsion
[ 7974 7965 7964 7962 ] final -107.30 input  175.53 | X-H torsion
[ 8008 7997 7996 7995 ] final  -40.63 input   59.86 | X-H torsion
[ 10167 10162 10161 10158 ] final  -50.41 input  -65.29 | X-H torsion
[ 10718 10713 10712 10709 ] final   -4.99 input   66.30 | X-H torsion
[ 10763 10752 10751 10750 ] final -137.20 input  -60.55 | X-H torsion
[ 11005 11000 10999 10996 ] final   59.58 input  -57.11 | X-H torsion

> <Gold.Protein.ActiveResidues>
 VAL166  LYS551  ARG553  GLY616  TRP617  ASP618  TYR619  PRO620  LYS621  CYS622 
 ASP623  PHE694  ASN695  SER759  ASP760  ASP761  ALA762  ILE779  LEU786  VAL792 
 PHE793  MET794  SER795  GLU796  ALA797  LYS798  CYS799  TRP800  GLU811  SER814 

> <Gold.Protein.RotatedAtoms>
  152.5167  134.3635  159.9292 H   0  0  0  0  0  0  0  0  0  0  0  0  # atno 6907 bound_to 6896
  151.3588  133.3891  159.2695 H   0  0  0  0  0  0  0  0  0  0  0  0  # atno 6908 bound_to 6896
  150.9668  134.9067  159.7822 H   0  0  0  0  0  0  0  0  0  0  0  0  # atno 6909 bound_to 6896
  145.2071  140.9080  143.3336 H   0  0  0  0  0  0  0  0  0  0  0  0  # atno 7974 bound_to 7965
  154.4010  140.1520  156.3059 H   0  0  0  0  0  0  0  0  0  0  0  0  # atno 8008 bound_to 7997
  155.8659  140.3451  155.5766 H   0  0  0  0  0  0  0  0  0  0  0  0  # atno 8009 bound_to 7997
  155.7829  140.0846  157.2040 H   0  0  0  0  0  0  0  0  0  0  0  0  # atno 8010 bound_to 7997
  140.6639  143.2659  151.4356 H   0  0  0  0  0  0  0  0  0  0  0  0  # atno 10167 bound_to 10162
  156.7532  130.5246  149.5800 H   0  0  0  0  0  0  0  0  0  0  0  0  # atno 10718 bound_to 10713
  154.8667  135.3649  154.5184 H   0  0  0  0  0  0  0  0  0  0  0  0  # atno 10763 bound_to 10752
  153.5815  135.7018  153.5466 H   0  0  0  0  0  0  0  0  0  0  0  0  # atno 10764 bound_to 10752
  153.3453  135.4087  155.1566 H   0  0  0  0  0  0  0  0  0  0  0  0  # atno 10765 bound_to 10752
  140.0293  134.6035  155.9529 H   0  0  0  0  0  0  0  0  0  0  0  0  # atno 11005 bound_to 11000
  144.9892  139.3706  143.6223 LP  0  0  0  0  0  0  0  0  0  0  0  0  # atno 17320 bound_to 7965
  146.3405  139.9067  142.8786 LP  0  0  0  0  0  0  0  0  0  0  0  0  # atno 17321 bound_to 7965
  139.5881  144.1560  152.2054 LP  0  0  0  0  0  0  0  0  0  0  0  0  # atno 17342 bound_to 10162
  140.0906  144.5624  150.7057 LP  0  0  0  0  0  0  0  0  0  0  0  0  # atno 17343 bound_to 10162
  156.1387  130.6229  151.0437 LP  0  0  0  0  0  0  0  0  0  0  0  0  # atno 17370 bound_to 10713
  157.6768  131.0848  150.7475 LP  0  0  0  0  0  0  0  0  0  0  0  0  # atno 17371 bound_to 10713
  141.1822  133.6548  156.5065 LP  0  0  0  0  0  0  0  0  0  0  0  0  # atno 17394 bound_to 11000
  140.4252  134.7151  157.4912 LP  0  0  0  0  0  0  0  0  0  0  0  0  # atno 17395 bound_to 11000

$$$$
