AV-unprocessed.smi:3314|AV-procd|sdf|12746|dock6
  -GOLD-   2272019 83D 1   1.00000     0.00000
 Structure written by MMmdl.
 37 38  0  0  0  0  0  0  0  0  3 V2000
  151.9373  145.6331  159.8623 C   0  0  0  0  0  0  0  0  0  0  0  0
  151.9620  144.2517  159.2429 C   0  0  0  0  0  0  0  0  0  0  0  0
  152.5843  143.1793  159.9090 C   0  0  0  0  0  0  0  0  0  0  0  0
  152.5710  141.9155  159.2878 C   0  0  0  0  0  0  0  0  0  0  0  0
  153.2247  140.7208  159.9495 C   0  0  0  0  0  0  0  0  0  0  0  0
  151.9951  141.6890  158.0871 N   0  0  0  0  0  0  0  0  0  0  0  0
  151.3995  142.7137  157.4323 C   0  0  0  0  0  0  0  0  0  0  0  0
  150.8227  142.4728  156.2462 N   0  5  0  0  0  0  0  0  0  0  0  0
  150.4416  141.2128  155.9219 C   0  0  0  0  0  0  0  0  0  0  0  0
  150.8022  140.1439  156.4189 O   0  0  0  0  0  0  0  0  0  0  0  0
  149.4325  141.2117  154.7658 C   0  0  1  0  0  0  0  0  0  0  0  0
  148.9563  139.7785  154.4432 C   0  0  0  0  0  0  0  0  0  0  0  0
  147.9224  139.8037  153.3844 N   0  3  1  0  0  0  0  0  0  0  0  0
  147.4631  138.4512  153.0035 C   0  0  0  0  0  0  0  0  0  0  0  0
  146.8075  140.7038  153.7555 C   0  0  0  0  0  0  0  0  0  0  0  0
  147.3455  142.1033  154.0946 C   0  0  0  0  0  0  0  0  0  0  0  0
  148.3057  142.0032  155.1381 O   0  0  0  0  0  0  0  0  0  0  0  0
  151.3588  144.0123  157.9917 C   0  0  0  0  0  0  0  0  0  0  0  0
  152.8656  145.8312  160.3991 H   0  0  0  0  0  0  0  0  0  0  0  0
  151.1079  145.7147  160.5649 H   0  0  0  0  0  0  0  0  0  0  0  0
  151.8180  146.4015  159.0980 H   0  0  0  0  0  0  0  0  0  0  0  0
  153.0570  143.3215  160.8697 H   0  0  0  0  0  0  0  0  0  0  0  0
  153.2766  140.8536  161.0303 H   0  0  0  0  0  0  0  0  0  0  0  0
  154.2381  140.5905  159.5698 H   0  0  0  0  0  0  0  0  0  0  0  0
  152.6619  139.8085  159.7483 H   0  0  0  0  0  0  0  0  0  0  0  0
  149.8958  141.6610  153.8838 H   0  0  0  0  0  0  0  0  0  0  0  0
  149.7971  139.1687  154.1089 H   0  0  0  0  0  0  0  0  0  0  0  0
  148.5503  139.3019  155.3377 H   0  0  0  0  0  0  0  0  0  0  0  0
  146.9803  137.9506  153.8439 H   0  0  0  0  0  0  0  0  0  0  0  0
  148.3035  137.8383  152.6763 H   0  0  0  0  0  0  0  0  0  0  0  0
  146.7495  138.5050  152.1808 H   0  0  0  0  0  0  0  0  0  0  0  0
  146.0954  140.7687  152.9321 H   0  0  0  0  0  0  0  0  0  0  0  0
  146.2729  140.2916  154.6127 H   0  0  0  0  0  0  0  0  0  0  0  0
  147.7909  142.5745  153.2170 H   0  0  0  0  0  0  0  0  0  0  0  0
  146.5319  142.7493  154.4245 H   0  0  0  0  0  0  0  0  0  0  0  0
  150.8717  144.8182  157.4617 H   0  0  0  0  0  0  0  0  0  0  0  0
  148.3599  140.2048  152.5671 H   0  0  0  0  0  0  0  0  0  0  0  0
  1  2  1  0  0  0  0
  1 19  1  0  0  0  0
  1 20  1  0  0  0  0
  1 21  1  0  0  0  0
  2 18  2  0  0  0  0
  2  3  1  0  0  0  0
  3  4  2  0  0  0  0
  3 22  1  0  0  0  0
  4  5  1  0  0  0  0
  4  6  1  0  0  0  0
  5 23  1  0  0  0  0
  5 24  1  0  0  0  0
  5 25  1  0  0  0  0
  6  7  2  0  0  0  0
  7  8  1  0  0  0  0
  7 18  1  0  0  0  0
  8  9  1  0  0  0  0
  9 10  2  0  0  0  0
  9 11  1  0  0  0  0
 11 17  1  0  0  0  0
 11 12  1  0  0  0  0
 11 26  1  0  0  0  0
 12 13  1  0  0  0  0
 12 27  1  0  0  0  0
 12 28  1  0  0  0  0
 13 14  1  0  0  0  0
 13 15  1  0  0  0  0
 13 37  1  0  0  0  0
 14 29  1  0  0  0  0
 14 30  1  0  0  0  0
 14 31  1  0  0  0  0
 15 16  1  0  0  0  0
 15 32  1  0  0  0  0
 15 33  1  0  0  0  0
 16 17  1  0  0  0  0
 16 34  1  0  0  0  0
 16 35  1  0  0  0  0
 18 36  1  0  0  0  0
M  CHG  1   8  -1
M  CHG  1  13   1
M  END
> <s_m_source_file>
AV-unprocessed.smi

> <i_m_source_file_index>
3314

> <i_lp_mmshare_version>
43012

> <i_f3d_flags>
0

> <s_epik_input>
W0NIM11jMVtjSF1jKFtDSDNdKW5jKFtjSF0xKVtOSF1DKD1PKVtDQEBIXTJbQ0gyXU4oW0NIM10pW0NIMl1bQ0gyXU8y

> <s_epik_cmdline>
J2VwaWtfcHl0aG9uJywgJy1waCcsICc3LjAnLCAnLXRuJywgJzgnLCAnLW1hJywgJzIwMCcsICctbWV0YWxfYmluZGluZycsICctaW1hZScsICc8aW5maWxlLm1hZT4nLCAnLW9tYWUnLCAnPG91dGZpbGUubWFlPic=

> <r_epik_Ionization_Penalty>
13.8964

> <r_epik_Ionization_Penalty_Charging>
7.88995

> <r_epik_Ionization_Penalty_Neutral>
6.00641

> <r_epik_State_Penalty>
8.39989

> <r_epik_Charging_Adjusted_Penalty>
16.2898

> <i_epik_Tot_Q>
0

> <i_epik_Tot_abs_Q>
2

> <r_epik_Metal_State_Penalty>
4.31145

> <b_epik_Metal_Only>
1

> <s_lp_Force_Field>
OPLS_2005

> <r_lp_Energy>
9.09812

> <b_lp_Chiralities_Consistent>
1

> <s_lp_Variant>
AV-unprocessed.smi:3314-16

> <Gold.Version>
5.8.1

> <Gold.Id.Protein>
6NUR|6NUR_protein|mol2

> <Gold.PLP.Fitness>
40.6268

> <Gold.PLP.PLP>
-38.0390

> <Gold.PLP.part.hbond>
-1.0000

> <Gold.PLP.part.metal>
0.0000

> <Gold.PLP.part.buried>
-3.0786

> <Gold.PLP.part.nonpolar>
-37.2237

> <Gold.PLP.part.repulsive>
3.0695

> <Gold.PLP.ligand.clash>
0.0000

> <Gold.PLP.ligand.torsion>
0.1988

> <Gold.PLP.Chemscore.Hbond>
0.9920

> <Gold.PLP.Chemscore.CHOScore>
0.0000

> <Gold.PLP.Chemscore.Metal>
0.0000

> <Gold.Chemscore.Hbonds>
donor molecule, donor type, donor heavy atom, donor atom, acceptor molecule, acceptor atom, score
      L1  H    13    37       P1  7957  0.99

> <Gold.PLP.Chemscore.Internal.Correction>
0.0094

> <Gold.Rescore>
     Score         DG    S(hbond)    S(metal)    S(lipo)     H(rot)  DE(clash)    DE(int)     intcor
     14.70     -18.09       0.99        0.00     101.32       1.00       1.54       1.85       ----

> <Gold.Chemscore.Fitness>
14.6983

> <Gold.Chemscore.DG>
-18.0863

> <Gold.Chemscore.ZeroCoef>
-5.4800

> <Gold.Chemscore.Hbond>
0.9915

> <Gold.Chemscore.Metal>
0.0000

> <Gold.Chemscore.Lipo>
101.3229

> <Gold.Chemscore.Internal_Hbond>
0.0000

> <Gold.Chemscore.DEClash>
1.5389

> <Gold.Chemscore.DEInternal>
1.8490

> <Gold.Chemscore.Rot>
1.0000

> <Gold.Chemscore.Internal.Correction>
   9.000000E+99

> <Gold.Chemscore.Hbonds>
donor molecule, donor type, donor heavy atom, donor atom, acceptor molecule, acceptor atom, score
      L1  H    13    37       P1  7957  0.93

> <Gold.Chemscore.Hbond.Weighted>
-3.3115

> <Gold.Chemscore.Metal.Weighted>
-0.0000

> <Gold.Chemscore.Lipo.Weighted>
-11.8548

> <Gold.Chemscore.Internal_Hbond.Weighted>
0.0000

> <Gold.Chemscore.DEClash.Weighted>
1.5389

> <Gold.Chemscore.DEInternal.Weighted>
1.8490

> <Gold.Chemscore.Rot.Weighted>
2.5600

> <Gold.Chemscore.Internal.Correction.Weighted>
   9.000000E+99

> <Gold.Protein.RotatedTorsions>
[ 6907 6896 6895 6894 ] final  131.18 input  -60.11 | X-H torsion
[ 7974 7965 7964 7962 ] final  122.16 input  175.53 | X-H torsion
[ 8008 7997 7996 7995 ] final  -76.67 input   59.86 | X-H torsion
[ 10167 10162 10161 10158 ] final -112.48 input  -65.29 | X-H torsion
[ 10718 10713 10712 10709 ] final   93.24 input   66.30 | X-H torsion
[ 10763 10752 10751 10750 ] final  -30.05 input  -60.55 | X-H torsion
[ 11005 11000 10999 10996 ] final  -46.01 input  -57.11 | X-H torsion

> <Gold.Protein.ActiveResidues>
 VAL166  LYS551  ARG553  GLY616  TRP617  ASP618  TYR619  PRO620  LYS621  CYS622 
 ASP623  PHE694  ASN695  SER759  ASP760  ASP761  ALA762  ILE779  LEU786  VAL792 
 PHE793  MET794  SER795  GLU796  ALA797  LYS798  CYS799  TRP800  GLU811  SER814 

> <Gold.Protein.RotatedAtoms>
  152.3452  133.6113  159.5904 H   0  0  0  0  0  0  0  0  0  0  0  0  # atno 6907 bound_to 6896
  150.7503  133.9661  159.3540 H   0  0  0  0  0  0  0  0  0  0  0  0  # atno 6908 bound_to 6896
  151.7520  135.0831  160.0383 H   0  0  0  0  0  0  0  0  0  0  0  0  # atno 6909 bound_to 6896
  145.1108  139.3454  143.4764 H   0  0  0  0  0  0  0  0  0  0  0  0  # atno 7974 bound_to 7965
  154.5526  140.0723  156.8693 H   0  0  0  0  0  0  0  0  0  0  0  0  # atno 8008 bound_to 7997
  155.2963  140.3381  155.4231 H   0  0  0  0  0  0  0  0  0  0  0  0  # atno 8009 bound_to 7997
  156.1975  140.1709  156.7955 H   0  0  0  0  0  0  0  0  0  0  0  0  # atno 8010 bound_to 7997
  140.1223  143.4433  152.1683 H   0  0  0  0  0  0  0  0  0  0  0  0  # atno 10167 bound_to 10162
  157.6955  131.0471  150.4004 H   0  0  0  0  0  0  0  0  0  0  0  0  # atno 10718 bound_to 10713
  153.7746  135.6910  153.4900 H   0  0  0  0  0  0  0  0  0  0  0  0  # atno 10763 bound_to 10752
  153.1851  135.4491  155.0077 H   0  0  0  0  0  0  0  0  0  0  0  0  # atno 10764 bound_to 10752
  154.8105  135.3375  154.7253 H   0  0  0  0  0  0  0  0  0  0  0  0  # atno 10765 bound_to 10752
  141.0552  133.6728  156.3094 H   0  0  0  0  0  0  0  0  0  0  0  0  # atno 11005 bound_to 11000
  146.3526  140.1026  142.8607 LP  0  0  0  0  0  0  0  0  0  0  0  0  # atno 17320 bound_to 7965
  145.0849  140.9246  143.4803 LP  0  0  0  0  0  0  0  0  0  0  0  0  # atno 17321 bound_to 7965
  139.5562  144.7374  151.4286 LP  0  0  0  0  0  0  0  0  0  0  0  0  # atno 17342 bound_to 10162
  140.6865  143.7961  150.7194 LP  0  0  0  0  0  0  0  0  0  0  0  0  # atno 17343 bound_to 10162
  156.4398  130.3989  149.6705 LP  0  0  0  0  0  0  0  0  0  0  0  0  # atno 17370 bound_to 10713
  156.3892  130.7618  151.2618 LP  0  0  0  0  0  0  0  0  0  0  0  0  # atno 17371 bound_to 10713
  140.5979  134.5585  157.5512 LP  0  0  0  0  0  0  0  0  0  0  0  0  # atno 17394 bound_to 11000
  139.9384  134.7833  156.0743 LP  0  0  0  0  0  0  0  0  0  0  0  0  # atno 17395 bound_to 11000

$$$$
