AV-unprocessed.smi:2646|AV-procd|sdf|10282|dock1
  -GOLD-   2272014293D 1   1.00000     0.00000
 Structure written by MMmdl.
 43 44  0  0  0  0  0  0  0  0  1 V2000
  143.7147  136.5405  152.3830 C   0  0  0  0  0  0  0  0  0  0  0  0
  144.9924  135.6741  152.5795 C   0  0  2  0  0  0  0  0  0  0  0  0
  144.8142  134.8616  153.8954 C   0  0  0  0  0  0  0  0  0  0  0  0
  143.5207  134.3056  154.0355 O   0  0  0  0  0  0  0  0  0  0  0  0
  146.2111  136.4803  152.7704 N   0  0  0  0  0  0  0  0  0  0  0  0
  146.3828  137.6778  153.3551 C   0  0  0  0  0  0  0  0  0  0  0  0
  145.4796  138.3506  153.8501 O   0  0  0  0  0  0  0  0  0  0  0  0
  147.6718  138.0531  153.2973 N   0  0  0  0  0  0  0  0  0  0  0  0
  148.2639  139.2325  153.8225 C   0  0  0  0  0  0  0  0  0  0  0  0
  147.4725  140.3966  153.9059 C   0  0  0  0  0  0  0  0  0  0  0  0
  148.0471  141.5813  154.4047 C   0  0  0  0  0  0  0  0  0  0  0  0
  149.4012  141.5576  154.7911 C   0  0  0  0  0  0  0  0  0  0  0  0
  150.1777  140.4575  154.7009 N   0  0  0  0  0  0  0  0  0  0  0  0
  149.6193  139.3235  154.2249 C   0  0  0  0  0  0  0  0  0  0  0  0
  145.1820  134.6711  151.3807 C   0  0  0  0  0  0  0  0  0  0  0  0
  143.9328  133.7894  151.1003 C   0  0  0  0  0  0  0  0  0  0  0  0
  144.1100  132.8975  149.8609 C   0  0  0  0  0  0  0  0  0  0  0  0
  145.3510  132.0066  149.9851 C   0  0  0  0  0  0  0  0  0  0  0  0
  146.6006  132.8556  150.2456 C   0  0  0  0  0  0  0  0  0  0  0  0
  146.4228  133.7424  151.4885 C   0  0  0  0  0  0  0  0  0  0  0  0
  142.8208  135.9161  152.3750 H   0  0  0  0  0  0  0  0  0  0  0  0
  143.7073  137.1088  151.4562 H   0  0  0  0  0  0  0  0  0  0  0  0
  143.5929  137.2728  153.1815 H   0  0  0  0  0  0  0  0  0  0  0  0
  145.5285  134.0382  153.9323 H   0  0  0  0  0  0  0  0  0  0  0  0
  144.9934  135.4756  154.7776 H   0  0  0  0  0  0  0  0  0  0  0  0
  143.6082  133.4020  154.2976 H   0  0  0  0  0  0  0  0  0  0  0  0
  147.0498  136.0515  152.4078 H   0  0  0  0  0  0  0  0  0  0  0  0
  148.2886  137.4531  152.7696 H   0  0  0  0  0  0  0  0  0  0  0  0
  146.4370  140.3837  153.5986 H   0  0  0  0  0  0  0  0  0  0  0  0
  147.4647  142.4870  154.4881 H   0  0  0  0  0  0  0  0  0  0  0  0
  149.8748  142.4481  155.1773 H   0  0  0  0  0  0  0  0  0  0  0  0
  150.2924  138.4836  154.1492 H   0  0  0  0  0  0  0  0  0  0  0  0
  145.3396  135.2831  150.4910 H   0  0  0  0  0  0  0  0  0  0  0  0
  143.7167  133.1600  151.9645 H   0  0  0  0  0  0  0  0  0  0  0  0
  143.0477  134.4005  150.9353 H   0  0  0  0  0  0  0  0  0  0  0  0
  143.2233  132.2789  149.7198 H   0  0  0  0  0  0  0  0  0  0  0  0
  144.1951  133.5223  148.9708 H   0  0  0  0  0  0  0  0  0  0  0  0
  145.2131  131.2952  150.8003 H   0  0  0  0  0  0  0  0  0  0  0  0
  145.4814  131.4176  149.0767 H   0  0  0  0  0  0  0  0  0  0  0  0
  147.4669  132.2064  150.3755 H   0  0  0  0  0  0  0  0  0  0  0  0
  146.8101  133.4797  149.3759 H   0  0  0  0  0  0  0  0  0  0  0  0
  147.3380  134.3175  151.6133 H   0  0  0  0  0  0  0  0  0  0  0  0
  146.3376  133.0979  152.3624 H   0  0  0  0  0  0  0  0  0  0  0  0
  1  2  1  0  0  0  0
  1 21  1  0  0  0  0
  1 22  1  0  0  0  0
  1 23  1  0  0  0  0
  2  3  1  0  0  0  0
  2  5  1  0  0  0  0
  2 15  1  0  0  0  0
  3  4  1  0  0  0  0
  3 24  1  0  0  0  0
  3 25  1  0  0  0  0
  4 26  1  0  0  0  0
  5  6  1  0  0  0  0
  5 27  1  0  0  0  0
  6  7  2  0  0  0  0
  6  8  1  0  0  0  0
  8  9  1  0  0  0  0
  8 28  1  0  0  0  0
  9 14  1  0  0  0  0
  9 10  2  0  0  0  0
 10 11  1  0  0  0  0
 10 29  1  0  0  0  0
 11 12  2  0  0  0  0
 11 30  1  0  0  0  0
 12 13  1  0  0  0  0
 12 31  1  0  0  0  0
 13 14  2  0  0  0  0
 14 32  1  0  0  0  0
 15 20  1  0  0  0  0
 15 16  1  0  0  0  0
 15 33  1  0  0  0  0
 16 17  1  0  0  0  0
 16 34  1  0  0  0  0
 16 35  1  0  0  0  0
 17 18  1  0  0  0  0
 17 36  1  0  0  0  0
 17 37  1  0  0  0  0
 18 19  1  0  0  0  0
 18 38  1  0  0  0  0
 18 39  1  0  0  0  0
 19 20  1  0  0  0  0
 19 40  1  0  0  0  0
 19 41  1  0  0  0  0
 20 42  1  0  0  0  0
 20 43  1  0  0  0  0
M  END
> <s_m_source_file>
AV-unprocessed.smi

> <i_m_source_file_index>
2646

> <i_lp_mmshare_version>
43012

> <i_f3d_flags>
0

> <s_epik_input>
W0NIMl0xW0NIMl1bQ0gyXVtDSDJdW0NIMl1bQ0hdMVtDQF0oW0NIM10pKFtDSDJdW09IXSlbTkhdQyg9TylbTkhdYzJbY0hdW2NIXVtjSF1uW2NIXTI=

> <s_epik_cmdline>
J2VwaWtfcHl0aG9uJywgJy1waCcsICc3LjAnLCAnLXRuJywgJzgnLCAnLW1hJywgJzIwMCcsICctbWV0YWxfYmluZGluZycsICctaW1hZScsICc8aW5maWxlLm1hZT4nLCAnLW9tYWUnLCAnPG91dGZpbGUubWFlPic=

> <r_epik_Ionization_Penalty>
0.00498697

> <r_epik_Ionization_Penalty_Charging>
0

> <r_epik_Ionization_Penalty_Neutral>
0.00498697

> <r_epik_State_Penalty>
0.00359645

> <r_epik_Charging_Adjusted_Penalty>
0.00359645

> <i_epik_Tot_Q>
0

> <i_epik_Tot_abs_Q>
0

> <r_epik_Metal_State_Penalty>
-0

> <b_epik_Metal_Only>
0

> <s_lp_Force_Field>
OPLS_2005

> <r_lp_Energy>
27.1909

> <b_lp_Chiralities_Consistent>
1

> <s_lp_Variant>
AV-unprocessed.smi:2646-2

> <Gold.Version>
5.8.1

> <Gold.Id.Protein>
6NUR|6NUR_protein|mol2

> <Gold.PLP.Fitness>
48.7487

> <Gold.PLP.PLP>
-35.6892

> <Gold.PLP.part.hbond>
-4.0000

> <Gold.PLP.part.metal>
0.0000

> <Gold.PLP.part.buried>
-1.9761

> <Gold.PLP.part.nonpolar>
-30.3178

> <Gold.PLP.part.repulsive>
0.8970

> <Gold.PLP.ligand.clash>
0.0000

> <Gold.PLP.ligand.torsion>
0.9197

> <Gold.PLP.Chemscore.Hbond>
3.9440

> <Gold.PLP.Chemscore.CHOScore>
0.9948

> <Gold.PLP.Chemscore.Metal>
0.0000

> <Gold.Chemscore.Hbonds>
donor molecule, donor type, donor heavy atom, donor atom, acceptor molecule, acceptor atom, score
      L1  H     4    26       P1 10957  0.91
      L1  H     5    27       P1  7948  0.99
      L1  H     8    28       P1  7948  1.00
      P1  H  7989  7998       L1    13  0.96
      L1  C    12    31       P1  8028  0.99

> <Gold.PLP.Chemscore.Internal.Correction>
0.0826

> <Gold.Rescore>
     Score         DG    S(hbond)    S(metal)    S(lipo)     H(rot)  DE(clash)    DE(int)     intcor
     18.18     -22.03       3.25        0.00      91.91       1.98       0.37       3.47       ----

> <Gold.Chemscore.Fitness>
18.1832

> <Gold.Chemscore.DG>
-22.0263

> <Gold.Chemscore.ZeroCoef>
-5.4800

> <Gold.Chemscore.Hbond>
3.2517

> <Gold.Chemscore.Metal>
0.0000

> <Gold.Chemscore.Lipo>
91.9121

> <Gold.Chemscore.Internal_Hbond>
0.0000

> <Gold.Chemscore.DEClash>
0.3712

> <Gold.Chemscore.DEInternal>
3.4719

> <Gold.Chemscore.Rot>
1.9798

> <Gold.Chemscore.Internal.Correction>
   9.000000E+99

> <Gold.Chemscore.Hbonds>
donor molecule, donor type, donor heavy atom, donor atom, acceptor molecule, acceptor atom, score
      L1  H     4    26       P1 10957  0.89
      L1  H     5    27       P1  7948  0.92
      L1  H     8    28       P1  7948  1.00
      P1  H  7989  7998       L1    13  0.31

> <Gold.Chemscore.Hbond.Weighted>
-10.8607

> <Gold.Chemscore.Metal.Weighted>
-0.0000

> <Gold.Chemscore.Lipo.Weighted>
-10.7537

> <Gold.Chemscore.Internal_Hbond.Weighted>
0.0000

> <Gold.Chemscore.DEClash.Weighted>
0.3712

> <Gold.Chemscore.DEInternal.Weighted>
3.4719

> <Gold.Chemscore.Rot.Weighted>
5.0682

> <Gold.Chemscore.Internal.Correction.Weighted>
   9.000000E+99

> <Gold.Protein.RotatedTorsions>
[ 6907 6896 6895 6894 ] final  -15.00 input  -60.11 | X-H torsion
[ 7974 7965 7964 7962 ] final -110.62 input  175.53 | X-H torsion
[ 8008 7997 7996 7995 ] final -134.79 input   59.86 | X-H torsion
[ 10167 10162 10161 10158 ] final   61.95 input  -65.29 | X-H torsion
[ 10718 10713 10712 10709 ] final -148.72 input   66.30 | X-H torsion
[ 10763 10752 10751 10750 ] final  -72.42 input  -60.55 | X-H torsion
[ 11005 11000 10999 10996 ] final -112.96 input  -57.11 | X-H torsion

> <Gold.Protein.ActiveResidues>
 VAL166  LYS551  ARG553  GLY616  TRP617  ASP618  TYR619  PRO620  LYS621  CYS622 
 ASP623  PHE694  ASN695  SER759  ASP760  ASP761  ALA762  ILE779  LEU786  VAL792 
 PHE793  MET794  SER795  GLU796  ALA797  LYS798  CYS799  TRP800  GLU811  SER814 

> <Gold.Protein.RotatedAtoms>
  151.3307  135.0841  159.9337 H   0  0  0  0  0  0  0  0  0  0  0  0  # atno 6907 bound_to 6896
  152.5235  133.9546  159.7698 H   0  0  0  0  0  0  0  0  0  0  0  0  # atno 6908 bound_to 6896
  150.9884  133.6121  159.2742 H   0  0  0  0  0  0  0  0  0  0  0  0  # atno 6909 bound_to 6896
  145.1660  140.8902  143.3563 H   0  0  0  0  0  0  0  0  0  0  0  0  # atno 7974 bound_to 7965
  155.3680  140.0486  157.3046 H   0  0  0  0  0  0  0  0  0  0  0  0  # atno 8008 bound_to 7997
  154.5144  140.2203  155.9056 H   0  0  0  0  0  0  0  0  0  0  0  0  # atno 8009 bound_to 7997
  156.1620  140.3114  155.8829 H   0  0  0  0  0  0  0  0  0  0  0  0  # atno 8010 bound_to 7997
  140.1492  144.4479  150.6769 H   0  0  0  0  0  0  0  0  0  0  0  0  # atno 10167 bound_to 10162
  156.4239  130.8042  151.2266 H   0  0  0  0  0  0  0  0  0  0  0  0  # atno 10718 bound_to 10713
  154.4454  135.5930  153.6156 H   0  0  0  0  0  0  0  0  0  0  0  0  # atno 10763 bound_to 10752
  152.9809  135.6008  154.3671 H   0  0  0  0  0  0  0  0  0  0  0  0  # atno 10764 bound_to 10752
  154.3525  135.2841  155.2343 H   0  0  0  0  0  0  0  0  0  0  0  0  # atno 10765 bound_to 10752
  141.0643  133.9484  157.2607 H   0  0  0  0  0  0  0  0  0  0  0  0  # atno 11005 bound_to 11000
  145.0282  139.3364  143.6038 LP  0  0  0  0  0  0  0  0  0  0  0  0  # atno 17320 bound_to 7965
  146.3475  139.9609  142.8717 LP  0  0  0  0  0  0  0  0  0  0  0  0  # atno 17321 bound_to 7965
  140.6713  143.2287  151.5618 LP  0  0  0  0  0  0  0  0  0  0  0  0  # atno 17342 bound_to 10162
  139.5434  144.2586  152.1396 LP  0  0  0  0  0  0  0  0  0  0  0  0  # atno 17343 bound_to 10162
  157.7508  131.0219  150.3771 LP  0  0  0  0  0  0  0  0  0  0  0  0  # atno 17370 bound_to 10713
  156.4094  130.3931  149.6902 LP  0  0  0  0  0  0  0  0  0  0  0  0  # atno 17371 bound_to 10713
  139.9462  135.0183  156.8859 LP  0  0  0  0  0  0  0  0  0  0  0  0  # atno 17394 bound_to 11000
  140.5804  134.0357  155.7462 LP  0  0  0  0  0  0  0  0  0  0  0  0  # atno 17395 bound_to 11000

$$$$
