AV-unprocessed.smi:3056|AV-procd|sdf|11648|dock9
  -GOLD-   2272017 43D 1   1.00000     0.00000
 Structure written by MMmdl.
 48 49  0  0  0  0  0  0  0  0  2 V2000
  151.7115  145.3462  159.7351 C   0  0  0  0  0  0  0  0  0  0  0  0
  151.1494  144.1927  158.9551 C   0  0  0  0  0  0  0  0  0  0  0  0
  149.9067  143.5281  159.1508 C   0  0  0  0  0  0  0  0  0  0  0  0
  149.7088  142.5495  158.2839 N   0  0  0  0  0  0  0  0  0  0  0  0
  150.8169  142.5429  157.5083 N   0  0  0  0  0  0  0  0  0  0  0  0
  150.9609  141.6009  156.4008 C   0  0  1  0  0  0  0  0  0  0  0  0
  151.2508  140.1586  156.8747 C   0  0  0  0  0  0  0  0  0  0  0  0
  149.7856  141.7090  155.3894 C   0  0  1  0  0  0  0  0  0  0  0  0
  149.5212  140.3784  154.6665 C   0  0  0  0  0  0  0  0  0  0  0  0
  148.5279  142.1853  156.0134 N   0  3  0  0  0  0  0  0  0  0  0  0
  147.2849  141.8616  155.2810 C   0  0  0  0  0  0  0  0  0  0  0  0
  146.0665  142.5440  155.9116 C   0  0  0  0  0  0  0  0  0  0  0  0
  145.9770  142.5304  157.1389 O   0  0  0  0  0  0  0  0  0  0  0  0
  145.1323  143.1261  155.1214 N   0  0  0  0  0  0  0  0  0  0  0  0
  145.2815  143.2615  153.6707 C   0  0  0  0  0  0  0  0  0  0  0  0
  145.3920  144.7617  153.3417 C   0  0  0  0  0  0  0  0  0  0  0  0
  144.2435  145.4504  153.8337 O   0  0  0  0  0  0  0  0  0  0  0  0
  144.0468  145.3047  155.2398 C   0  0  1  0  0  0  0  0  0  0  0  0
  142.7953  146.0968  155.6332 C   0  0  0  0  0  0  0  0  0  0  0  0
  143.9144  143.8055  155.5699 C   0  0  0  0  0  0  0  0  0  0  0  0
  151.6988  143.5323  157.8931 C   0  0  0  0  0  0  0  0  0  0  0  0
  151.1353  145.5440  160.6393 H   0  0  0  0  0  0  0  0  0  0  0  0
  151.7137  146.2646  159.1482 H   0  0  0  0  0  0  0  0  0  0  0  0
  152.7396  145.1591  160.0457 H   0  0  0  0  0  0  0  0  0  0  0  0
  149.1450  143.7294  159.8896 H   0  0  0  0  0  0  0  0  0  0  0  0
  151.8579  141.9273  155.8722 H   0  0  0  0  0  0  0  0  0  0  0  0
  151.5021  139.5050  156.0402 H   0  0  0  0  0  0  0  0  0  0  0  0
  150.3991  139.7181  157.3939 H   0  0  0  0  0  0  0  0  0  0  0  0
  152.1005  140.1377  157.5581 H   0  0  0  0  0  0  0  0  0  0  0  0
  150.0694  142.4167  154.6087 H   0  0  0  0  0  0  0  0  0  0  0  0
  150.4234  140.0086  154.1783 H   0  0  0  0  0  0  0  0  0  0  0  0
  148.7611  140.4999  153.8940 H   0  0  0  0  0  0  0  0  0  0  0  0
  149.1694  139.6047  155.3491 H   0  0  0  0  0  0  0  0  0  0  0  0
  148.4534  141.7367  156.9154 H   0  0  0  0  0  0  0  0  0  0  0  0
  147.3545  142.1262  154.2278 H   0  0  0  0  0  0  0  0  0  0  0  0
  147.1283  140.7823  155.3126 H   0  0  0  0  0  0  0  0  0  0  0  0
  146.1526  142.7341  153.2799 H   0  0  0  0  0  0  0  0  0  0  0  0
  144.4142  142.8276  153.1712 H   0  0  0  0  0  0  0  0  0  0  0  0
  146.2961  145.1891  153.7784 H   0  0  0  0  0  0  0  0  0  0  0  0
  145.4573  144.9091  152.2637 H   0  0  0  0  0  0  0  0  0  0  0  0
  144.9062  145.7234  155.7667 H   0  0  0  0  0  0  0  0  0  0  0  0
  142.6011  146.0218  156.7029 H   0  0  0  0  0  0  0  0  0  0  0  0
  141.9141  145.7290  155.1072 H   0  0  0  0  0  0  0  0  0  0  0  0
  142.9111  147.1534  155.3904 H   0  0  0  0  0  0  0  0  0  0  0  0
  143.0556  143.3805  155.0480 H   0  0  0  0  0  0  0  0  0  0  0  0
  143.7063  143.6703  156.6278 H   0  0  0  0  0  0  0  0  0  0  0  0
  152.6381  143.6853  157.3821 H   0  0  0  0  0  0  0  0  0  0  0  0
  148.5867  143.1831  156.1591 H   0  0  0  0  0  0  0  0  0  0  0  0
  1  2  1  0  0  0  0
  1 22  1  0  0  0  0
  1 23  1  0  0  0  0
  1 24  1  0  0  0  0
  2 21  2  0  0  0  0
  2  3  1  0  0  0  0
  3  4  2  0  0  0  0
  3 25  1  0  0  0  0
  4  5  1  0  0  0  0
  5  6  1  0  0  0  0
  5 21  1  0  0  0  0
  6  7  1  0  0  0  0
  6  8  1  0  0  0  0
  6 26  1  0  0  0  0
  7 27  1  0  0  0  0
  7 28  1  0  0  0  0
  7 29  1  0  0  0  0
  8  9  1  0  0  0  0
  8 10  1  0  0  0  0
  8 30  1  0  0  0  0
  9 31  1  0  0  0  0
  9 32  1  0  0  0  0
  9 33  1  0  0  0  0
 10 11  1  0  0  0  0
 10 34  1  0  0  0  0
 10 48  1  0  0  0  0
 11 12  1  0  0  0  0
 11 35  1  0  0  0  0
 11 36  1  0  0  0  0
 12 13  2  0  0  0  0
 12 14  1  0  0  0  0
 14 20  1  0  0  0  0
 14 15  1  0  0  0  0
 15 16  1  0  0  0  0
 15 37  1  0  0  0  0
 15 38  1  0  0  0  0
 16 17  1  0  0  0  0
 16 39  1  0  0  0  0
 16 40  1  0  0  0  0
 17 18  1  0  0  0  0
 18 19  1  0  0  0  0
 18 20  1  0  0  0  0
 18 41  1  0  0  0  0
 19 42  1  0  0  0  0
 19 43  1  0  0  0  0
 19 44  1  0  0  0  0
 20 45  1  0  0  0  0
 20 46  1  0  0  0  0
 21 47  1  0  0  0  0
M  CHG  1  10   1
M  END
> <s_m_source_file>
AV-unprocessed.smi

> <i_m_source_file_index>
3056

> <i_lp_mmshare_version>
43012

> <i_f3d_flags>
0

> <s_epik_input>
W0NIM11jMVtjSF1ubihbY0hdMSlbQ0BIXShbQ0gzXSlbQ0BIXShbQ0gzXSlbTkhdW0NIMl1DKD1PKU4yW0NIMl1bQ0gyXU9bQ0BASF0oW0NIM10pW0NIMl0y

> <s_epik_cmdline>
J2VwaWtfcHl0aG9uJywgJy1waCcsICc3LjAnLCAnLXRuJywgJzgnLCAnLW1hJywgJzIwMCcsICctbWV0YWxfYmluZGluZycsICctaW1hZScsICc8aW5maWxlLm1hZT4nLCAnLW9tYWUnLCAnPG91dGZpbGUubWFlPic=

> <r_lp_tautomer_probability>
1

> <r_epik_Ionization_Penalty>
0.233715

> <r_epik_Ionization_Penalty_Charging>
0.233698

> <r_epik_Ionization_Penalty_Neutral>
1.68157e-05

> <r_epik_State_Penalty>
0.225221

> <r_epik_Charging_Adjusted_Penalty>
0.458919

> <i_epik_Tot_Q>
1

> <i_epik_Tot_abs_Q>
1

> <r_epik_Metal_State_Penalty>
0.225535

> <b_epik_Metal_Only>
0

> <s_lp_Force_Field>
OPLS_2005

> <r_lp_Energy>
30.0079

> <b_lp_Chiralities_Consistent>
1

> <s_lp_Variant>
AV-unprocessed.smi:3056-4

> <Gold.Version>
5.8.1

> <Gold.Id.Protein>
6NUR|6NUR_protein|mol2

> <Gold.PLP.Fitness>
41.8574

> <Gold.PLP.PLP>
-38.7906

> <Gold.PLP.part.hbond>
-0.9085

> <Gold.PLP.part.metal>
0.0000

> <Gold.PLP.part.buried>
-3.3780

> <Gold.PLP.part.nonpolar>
-35.0659

> <Gold.PLP.part.repulsive>
0.4216

> <Gold.PLP.ligand.clash>
0.0000

> <Gold.PLP.ligand.torsion>
1.5966

> <Gold.PLP.Chemscore.Hbond>
2.0000

> <Gold.PLP.Chemscore.CHOScore>
0.0000

> <Gold.PLP.Chemscore.Metal>
0.0000

> <Gold.Chemscore.Hbonds>
donor molecule, donor type, donor heavy atom, donor atom, acceptor molecule, acceptor atom, score
      L1  H    10    48       P1  8028  2.00

> <Gold.PLP.Chemscore.Internal.Correction>
0.2600

> <Gold.Rescore>
     Score         DG    S(hbond)    S(metal)    S(lipo)     H(rot)  DE(clash)    DE(int)     intcor
     14.64     -16.47       0.97        0.00     104.27       1.74       0.07       1.75       ----

> <Gold.Chemscore.Fitness>
14.6376

> <Gold.Chemscore.DG>
-16.4663

> <Gold.Chemscore.ZeroCoef>
-5.4800

> <Gold.Chemscore.Hbond>
0.9669

> <Gold.Chemscore.Metal>
0.0000

> <Gold.Chemscore.Lipo>
104.2678

> <Gold.Chemscore.Internal_Hbond>
0.0000

> <Gold.Chemscore.DEClash>
0.0737

> <Gold.Chemscore.DEInternal>
1.7549

> <Gold.Chemscore.Rot>
1.7354

> <Gold.Chemscore.Internal.Correction>
   9.000000E+99

> <Gold.Chemscore.Hbonds>
donor molecule, donor type, donor heavy atom, donor atom, acceptor molecule, acceptor atom, score
      L1  H    10    48       P1  8028  0.91

> <Gold.Chemscore.Hbond.Weighted>
-3.2295

> <Gold.Chemscore.Metal.Weighted>
-0.0000

> <Gold.Chemscore.Lipo.Weighted>
-12.1993

> <Gold.Chemscore.Internal_Hbond.Weighted>
0.0000

> <Gold.Chemscore.DEClash.Weighted>
0.0737

> <Gold.Chemscore.DEInternal.Weighted>
1.7549

> <Gold.Chemscore.Rot.Weighted>
4.4426

> <Gold.Chemscore.Internal.Correction.Weighted>
   9.000000E+99

> <Gold.Protein.RotatedTorsions>
[ 6907 6896 6895 6894 ] final -148.29 input  -60.11 | X-H torsion
[ 7974 7965 7964 7962 ] final   96.56 input  175.53 | X-H torsion
[ 8008 7997 7996 7995 ] final  178.69 input   59.86 | X-H torsion
[ 10167 10162 10161 10158 ] final  -77.00 input  -65.29 | X-H torsion
[ 10718 10713 10712 10709 ] final   -1.80 input   66.30 | X-H torsion
[ 10763 10752 10751 10750 ] final  -90.47 input  -60.55 | X-H torsion
[ 11005 11000 10999 10996 ] final  128.09 input  -57.11 | X-H torsion

> <Gold.Protein.ActiveResidues>
 VAL166  LYS551  ARG553  GLY616  TRP617  ASP618  TYR619  PRO620  LYS621  CYS622 
 ASP623  PHE694  ASN695  SER759  ASP760  ASP761  ALA762  ILE779  LEU786  VAL792 
 PHE793  MET794  SER795  GLU796  ALA797  LYS798  CYS799  TRP800  GLU811  SER814 

> <Gold.Protein.RotatedAtoms>
  151.1677  133.4804  159.2593 H   0  0  0  0  0  0  0  0  0  0  0  0  # atno 6907 bound_to 6896
  151.1388  135.0168  159.8626 H   0  0  0  0  0  0  0  0  0  0  0  0  # atno 6908 bound_to 6896
  152.5462  134.1573  159.8596 H   0  0  0  0  0  0  0  0  0  0  0  0  # atno 6909 bound_to 6896
  145.4372  139.2304  143.3112 H   0  0  0  0  0  0  0  0  0  0  0  0  # atno 7974 bound_to 7965
  156.0518  140.1327  157.0042 H   0  0  0  0  0  0  0  0  0  0  0  0  # atno 8008 bound_to 7997
  154.4438  140.1009  156.6458 H   0  0  0  0  0  0  0  0  0  0  0  0  # atno 8009 bound_to 7997
  155.5512  140.3463  155.4471 H   0  0  0  0  0  0  0  0  0  0  0  0  # atno 8010 bound_to 7997
  140.4808  143.2403  151.8061 H   0  0  0  0  0  0  0  0  0  0  0  0  # atno 10167 bound_to 10162
  156.8003  130.5391  149.5722 H   0  0  0  0  0  0  0  0  0  0  0  0  # atno 10718 bound_to 10713
  154.6661  135.5303  153.8079 H   0  0  0  0  0  0  0  0  0  0  0  0  # atno 10763 bound_to 10752
  153.0472  135.6517  154.0796 H   0  0  0  0  0  0  0  0  0  0  0  0  # atno 10764 bound_to 10752
  154.0700  135.2955  155.3289 H   0  0  0  0  0  0  0  0  0  0  0  0  # atno 10765 bound_to 10752
  139.9542  134.9616  156.8951 H   0  0  0  0  0  0  0  0  0  0  0  0  # atno 11005 bound_to 11000
  146.2575  140.5116  142.8867 LP  0  0  0  0  0  0  0  0  0  0  0  0  # atno 17320 bound_to 7965
  144.8144  140.6443  143.6394 LP  0  0  0  0  0  0  0  0  0  0  0  0  # atno 17321 bound_to 7965
  139.4833  144.4775  151.9349 LP  0  0  0  0  0  0  0  0  0  0  0  0  # atno 17342 bound_to 10162
  140.3860  144.2676  150.5904 LP  0  0  0  0  0  0  0  0  0  0  0  0  # atno 17343 bound_to 10162
  156.1105  130.6037  151.0040 LP  0  0  0  0  0  0  0  0  0  0  0  0  # atno 17370 bound_to 10713
  157.6557  131.0890  150.7953 LP  0  0  0  0  0  0  0  0  0  0  0  0  # atno 17371 bound_to 10713
  140.5648  134.0500  155.7410 LP  0  0  0  0  0  0  0  0  0  0  0  0  # atno 17394 bound_to 11000
  141.1211  133.9460  157.2728 LP  0  0  0  0  0  0  0  0  0  0  0  0  # atno 17395 bound_to 11000

$$$$
