AV-unprocessed.smi:1464|AV-procd|sdf|5944|dock2
  -GOLD-   22720 6 23D 1   1.00000     0.00000
 Structure written by MMmdl.
 41 42  0  0  0  0  0  0  0  0  1 V2000
  153.4131  142.0302  162.1915 C   0  0  0  0  0  0  0  0  0  0  0  0
  152.3548  142.7980  161.3818 C   0  0  1  0  0  0  0  0  0  0  0  0
  152.4837  144.3230  161.5731 C   0  0  0  0  0  0  0  0  0  0  0  0
  151.3628  145.0793  160.8426 C   0  0  0  0  0  0  0  0  0  0  0  0
  151.3011  144.7001  159.3553 C   0  0  0  0  0  0  0  0  0  0  0  0
  151.1676  143.1760  159.1728 C   0  0  1  0  0  0  0  0  0  0  0  0
  151.0733  142.8533  157.7507 N   0  0  0  0  0  0  0  0  0  0  0  0
  150.4647  141.7735  157.2367 C   0  0  0  0  0  0  0  0  0  0  0  0
  149.9219  140.9109  157.9289 O   0  0  0  0  0  0  0  0  0  0  0  0
  150.5022  141.6461  155.7069 C   0  0  0  0  0  0  0  0  0  0  0  0
  150.8272  140.2896  155.2425 N   0  0  0  0  0  0  0  0  0  0  0  0
  152.1811  139.9903  155.2688 N   0  0  0  0  0  0  0  0  0  0  0  0
  152.5907  138.8250  154.8962 C   0  0  0  0  0  0  0  0  0  0  0  0
  153.9390  138.5691  154.9423 O   0  0  0  0  0  0  0  0  0  0  0  0
  151.6610  137.8141  154.4424 C   0  0  0  0  0  0  0  0  0  0  0  0
  150.3445  138.1166  154.4159 C   0  0  0  0  0  0  0  0  0  0  0  0
  149.8456  139.4284  154.8326 C   0  0  0  0  0  0  0  0  0  0  0  0
  148.6527  139.7317  154.8173 O   0  0  0  0  0  0  0  0  0  0  0  0
  152.3210  142.4108  159.8790 C   0  0  1  0  0  0  0  0  0  0  0  0
  153.6849  142.5739  159.1681 C   0  0  0  0  0  0  0  0  0  0  0  0
  154.2015  138.4451  154.0431 H   0  0  0  0  0  0  0  0  0  0  0  0
  154.4258  142.3302  161.9227 H   0  0  0  0  0  0  0  0  0  0  0  0
  153.3263  140.9549  162.0338 H   0  0  0  0  0  0  0  0  0  0  0  0
  153.2934  142.2154  163.2593 H   0  0  0  0  0  0  0  0  0  0  0  0
  151.3896  142.5078  161.8003 H   0  0  0  0  0  0  0  0  0  0  0  0
  152.4494  144.5674  162.6354 H   0  0  0  0  0  0  0  0  0  0  0  0
  153.4541  144.6670  161.2144 H   0  0  0  0  0  0  0  0  0  0  0  0
  150.4055  144.8530  161.3141 H   0  0  0  0  0  0  0  0  0  0  0  0
  151.5104  146.1545  160.9469 H   0  0  0  0  0  0  0  0  0  0  0  0
  150.4547  145.2057  158.8887 H   0  0  0  0  0  0  0  0  0  0  0  0
  152.1930  145.0668  158.8463 H   0  0  0  0  0  0  0  0  0  0  0  0
  150.2270  142.8803  159.6425 H   0  0  0  0  0  0  0  0  0  0  0  0
  151.4995  143.5057  157.1087 H   0  0  0  0  0  0  0  0  0  0  0  0
  149.5443  141.9620  155.2893 H   0  0  0  0  0  0  0  0  0  0  0  0
  151.2356  142.3604  155.3281 H   0  0  0  0  0  0  0  0  0  0  0  0
  152.0210  136.8437  154.1339 H   0  0  0  0  0  0  0  0  0  0  0  0
  149.6391  137.3711  154.0794 H   0  0  0  0  0  0  0  0  0  0  0  0
  152.0784  141.3481  159.8317 H   0  0  0  0  0  0  0  0  0  0  0  0
  154.0335  143.6059  159.1802 H   0  0  0  0  0  0  0  0  0  0  0  0
  153.6343  142.2576  158.1263 H   0  0  0  0  0  0  0  0  0  0  0  0
  154.4549  141.9610  159.6354 H   0  0  0  0  0  0  0  0  0  0  0  0
  1  2  1  0  0  0  0
  1 22  1  0  0  0  0
  1 23  1  0  0  0  0
  1 24  1  0  0  0  0
  2 19  1  0  0  0  0
  2  3  1  0  0  0  0
  2 25  1  0  0  0  0
  3  4  1  0  0  0  0
  3 26  1  0  0  0  0
  3 27  1  0  0  0  0
  4  5  1  0  0  0  0
  4 28  1  0  0  0  0
  4 29  1  0  0  0  0
  5  6  1  0  0  0  0
  5 30  1  0  0  0  0
  5 31  1  0  0  0  0
  6  7  1  0  0  0  0
  6 19  1  0  0  0  0
  6 32  1  0  0  0  0
  7  8  1  0  0  0  0
  7 33  1  0  0  0  0
  8  9  2  0  0  0  0
  8 10  1  0  0  0  0
 10 34  1  0  0  0  0
 10 35  1  0  0  0  0
 10 11  1  0  0  0  0
 11 12  1  0  0  0  0
 11 17  1  0  0  0  0
 12 13  2  0  0  0  0
 13 14  1  0  0  0  0
 13 15  1  0  0  0  0
 14 21  1  0  0  0  0
 15 36  1  0  0  0  0
 15 16  2  0  0  0  0
 16 37  1  0  0  0  0
 16 17  1  0  0  0  0
 17 18  2  0  0  0  0
 19 20  1  0  0  0  0
 19 38  1  0  0  0  0
 20 39  1  0  0  0  0
 20 40  1  0  0  0  0
 20 41  1  0  0  0  0
M  END
> <s_m_source_file>
AV-unprocessed.smi

> <i_m_source_file_index>
1464

> <i_lp_mmshare_version>
43012

> <i_f3d_flags>
0

> <s_epik_input>
W0NIM11bQ0BASF0xW0NIMl1bQ0gyXVtDSDJdW0NASF0oW0NASF0xW0NIM10pW05IXUMoPU8pW0NIMl1uMltuSF1jKD1PKVtjSF1bY0hdYzI9Tw==

> <s_epik_cmdline>
J2VwaWtfcHl0aG9uJywgJy1waCcsICc3LjAnLCAnLXRuJywgJzgnLCAnLW1hJywgJzIwMCcsICctbWV0YWxfYmluZGluZycsICctaW1hZScsICc8aW5maWxlLm1hZT4nLCAnLW9tYWUnLCAnPG91dGZpbGUubWFlPic=

> <r_lp_tautomer_probability>
0.9996

> <r_epik_Ionization_Penalty>
2.10335

> <r_epik_Ionization_Penalty_Charging>
3.98079e-08

> <r_epik_Ionization_Penalty_Neutral>
2.10335

> <r_epik_State_Penalty>
1.67957

> <r_epik_Charging_Adjusted_Penalty>
1.67957

> <i_epik_Tot_Q>
0

> <i_epik_Tot_abs_Q>
0

> <r_epik_Metal_State_Penalty>
1.67957

> <b_epik_Metal_Only>
0

> <s_lp_Force_Field>
OPLS_2005

> <r_lp_Energy>
25.7359

> <b_lp_Chiralities_Consistent>
1

> <s_lp_Variant>
AV-unprocessed.smi:1464-10

> <Gold.Version>
5.8.1

> <Gold.Id.Protein>
6NUR|6NUR_protein|mol2

> <Gold.PLP.Fitness>
44.6061

> <Gold.PLP.PLP>
-44.1511

> <Gold.PLP.part.hbond>
-2.0000

> <Gold.PLP.part.metal>
0.0000

> <Gold.PLP.part.buried>
-4.0205

> <Gold.PLP.part.nonpolar>
-38.2023

> <Gold.PLP.part.repulsive>
0.1307

> <Gold.PLP.ligand.clash>
0.0000

> <Gold.PLP.ligand.torsion>
0.8390

> <Gold.PLP.Chemscore.Hbond>
0.7040

> <Gold.PLP.Chemscore.CHOScore>
0.0000

> <Gold.PLP.Chemscore.Metal>
0.0000

> <Gold.Chemscore.Hbonds>
donor molecule, donor type, donor heavy atom, donor atom, acceptor molecule, acceptor atom, score
      P1  H  7997  8010       L1    14  0.70

> <Gold.PLP.Chemscore.Internal.Correction>
0.0210

> <Gold.Rescore>
     Score         DG    S(hbond)    S(metal)    S(lipo)     H(rot)  DE(clash)    DE(int)     intcor
     13.82     -14.90       0.75        0.00     107.89       2.22       0.30       0.78       ----

> <Gold.Chemscore.Fitness>
13.8193

> <Gold.Chemscore.DG>
-14.9017

> <Gold.Chemscore.ZeroCoef>
-5.4800

> <Gold.Chemscore.Hbond>
0.7450

> <Gold.Chemscore.Metal>
0.0000

> <Gold.Chemscore.Lipo>
107.8860

> <Gold.Chemscore.Internal_Hbond>
0.0000

> <Gold.Chemscore.DEClash>
0.3039

> <Gold.Chemscore.DEInternal>
0.7785

> <Gold.Chemscore.Rot>
2.2224

> <Gold.Chemscore.Internal.Correction>
   9.000000E+99

> <Gold.Chemscore.Hbonds>
donor molecule, donor type, donor heavy atom, donor atom, acceptor molecule, acceptor atom, score
      P1  H  7997  8010       L1    14  0.24

> <Gold.Chemscore.Hbond.Weighted>
-2.4884

> <Gold.Chemscore.Metal.Weighted>
-0.0000

> <Gold.Chemscore.Lipo.Weighted>
-12.6227

> <Gold.Chemscore.Internal_Hbond.Weighted>
0.0000

> <Gold.Chemscore.DEClash.Weighted>
0.3039

> <Gold.Chemscore.DEInternal.Weighted>
0.7785

> <Gold.Chemscore.Rot.Weighted>
5.6893

> <Gold.Chemscore.Internal.Correction.Weighted>
   9.000000E+99

> <Gold.Protein.RotatedTorsions>
[ 6907 6896 6895 6894 ] final   32.71 input  -60.11 | X-H torsion
[ 7974 7965 7964 7962 ] final  -71.44 input  175.53 | X-H torsion
[ 8008 7997 7996 7995 ] final  127.67 input   59.86 | X-H torsion
[ 10167 10162 10161 10158 ] final   30.26 input  -65.29 | X-H torsion
[ 10718 10713 10712 10709 ] final -103.25 input   66.30 | X-H torsion
[ 10763 10752 10751 10750 ] final   80.67 input  -60.55 | X-H torsion
[ 11005 11000 10999 10996 ] final   47.95 input  -57.11 | X-H torsion

> <Gold.Protein.ActiveResidues>
 VAL166  LYS551  ARG553  GLY616  TRP617  ASP618  TYR619  PRO620  LYS621  CYS622 
 ASP623  PHE694  ASN695  SER759  ASP760  ASP761  ALA762  ILE779  LEU786  VAL792 
 PHE793  MET794  SER795  GLU796  ALA797  LYS798  CYS799  TRP800  GLU811  SER814 

> <Gold.Protein.RotatedAtoms>
  152.0784  134.9488  160.0573 H   0  0  0  0  0  0  0  0  0  0  0  0  # atno 6907 bound_to 6896
  152.0786  133.4137  159.4499 H   0  0  0  0  0  0  0  0  0  0  0  0  # atno 6908 bound_to 6896
  150.6836  134.2928  159.4717 H   0  0  0  0  0  0  0  0  0  0  0  0  # atno 6909 bound_to 6896
  145.6781  140.9197  143.0847 H   0  0  0  0  0  0  0  0  0  0  0  0  # atno 7974 bound_to 7965
  156.2896  140.2663  156.2311 H   0  0  0  0  0  0  0  0  0  0  0  0  # atno 8008 bound_to 7997
  155.0071  140.0387  157.2402 H   0  0  0  0  0  0  0  0  0  0  0  0  # atno 8009 bound_to 7997
  154.7550  140.2750  155.6266 H   0  0  0  0  0  0  0  0  0  0  0  0  # atno 8010 bound_to 7997
  140.4693  144.0787  150.6233 H   0  0  0  0  0  0  0  0  0  0  0  0  # atno 10167 bound_to 10162
  156.0258  130.5458  150.7225 H   0  0  0  0  0  0  0  0  0  0  0  0  # atno 10718 bound_to 10713
  153.1052  135.4794  154.8939 H   0  0  0  0  0  0  0  0  0  0  0  0  # atno 10763 bound_to 10752
  154.7422  135.3085  154.8710 H   0  0  0  0  0  0  0  0  0  0  0  0  # atno 10764 bound_to 10752
  153.9314  135.6844  153.4799 H   0  0  0  0  0  0  0  0  0  0  0  0  # atno 10765 bound_to 10752
  140.1234  134.4800  155.8579 H   0  0  0  0  0  0  0  0  0  0  0  0  # atno 11005 bound_to 11000
  144.7035  139.8660  143.7437 LP  0  0  0  0  0  0  0  0  0  0  0  0  # atno 17320 bound_to 7965
  146.0988  139.3982  143.0360 LP  0  0  0  0  0  0  0  0  0  0  0  0  # atno 17321 bound_to 7965
  140.3997  143.2710  151.9963 LP  0  0  0  0  0  0  0  0  0  0  0  0  # atno 17342 bound_to 10162
  139.4816  144.6008  151.7609 LP  0  0  0  0  0  0  0  0  0  0  0  0  # atno 17343 bound_to 10162
  157.4837  131.0905  151.0506 LP  0  0  0  0  0  0  0  0  0  0  0  0  # atno 17370 bound_to 10713
  157.0933  130.5951  149.5444 LP  0  0  0  0  0  0  0  0  0  0  0  0  # atno 17371 bound_to 10713
  141.2156  133.6769  156.6932 LP  0  0  0  0  0  0  0  0  0  0  0  0  # atno 17394 bound_to 11000
  140.2935  134.8221  157.4037 LP  0  0  0  0  0  0  0  0  0  0  0  0  # atno 17395 bound_to 11000

$$$$
