AV-unprocessed.smi:2769|AV-procd|sdf|10657|dock7
  -GOLD-   2272015103D 1   1.00000     0.00000
 Structure written by MMmdl.
 19 20  0  0  0  0  0  0  0  0  1 V2000
  155.0526  140.1552  160.8690 C   0  0  0  0  0  0  0  0  0  0  0  0
  154.0695  140.9015  160.0334 C   0  0  0  0  0  0  0  0  0  0  0  0
  153.6072  140.3961  158.8969 N   0  0  0  0  0  0  0  0  0  0  0  0
  152.7377  141.3925  158.4307 O   0  0  0  0  0  0  0  0  0  0  0  0
  152.7488  142.3660  159.3734 C   0  0  0  0  0  0  0  0  0  0  0  0
  151.9833  143.6221  159.1181 C   0  0  0  0  0  0  0  0  0  0  0  0
  150.4739  143.6104  158.8961 C   0  0  0  0  0  0  0  0  0  0  0  0
  150.6913  144.7807  158.0570 N   0  0  0  0  0  0  0  0  0  0  0  0
  152.0629  144.3703  157.7894 C   0  0  0  0  0  0  0  0  0  0  0  0
  153.5939  142.1300  160.3751 N   0  0  0  0  0  0  0  0  0  0  0  0
  155.6336  139.4637  160.2577 H   0  0  0  0  0  0  0  0  0  0  0  0
  154.5337  139.5850  161.6398 H   0  0  0  0  0  0  0  0  0  0  0  0
  155.7426  140.8462  161.3538 H   0  0  0  0  0  0  0  0  0  0  0  0
  152.2248  144.3119  159.9315 H   0  0  0  0  0  0  0  0  0  0  0  0
  150.1056  142.7538  158.3294 H   0  0  0  0  0  0  0  0  0  0  0  0
  149.8870  143.8062  159.7939 H   0  0  0  0  0  0  0  0  0  0  0  0
  150.1183  144.7669  157.2251 H   0  0  0  0  0  0  0  0  0  0  0  0
  152.7810  145.1906  157.7785 H   0  0  0  0  0  0  0  0  0  0  0  0
  152.1410  143.7296  156.9095 H   0  0  0  0  0  0  0  0  0  0  0  0
  1  2  1  0  0  0  0
  1 11  1  0  0  0  0
  1 12  1  0  0  0  0
  1 13  1  0  0  0  0
  2 10  1  0  0  0  0
  2  3  2  0  0  0  0
  3  4  1  0  0  0  0
  4  5  1  0  0  0  0
  5  6  1  0  0  0  0
  5 10  2  0  0  0  0
  6  9  1  0  0  0  0
  6  7  1  0  0  0  0
  6 14  1  0  0  0  0
  7  8  1  0  0  0  0
  7 15  1  0  0  0  0
  7 16  1  0  0  0  0
  8  9  1  0  0  0  0
  8 17  1  0  0  0  0
  9 18  1  0  0  0  0
  9 19  1  0  0  0  0
M  END
> <s_m_source_file>
AV-unprocessed.smi

> <i_m_source_file_index>
2769

> <i_lp_mmshare_version>
43012

> <i_f3d_flags>
0

> <s_epik_input>
W0NIM11jMW5vYyhuMSlbQ0hdMltDSDJdW05IXVtDSDJdMg==

> <s_epik_cmdline>
J2VwaWtfcHl0aG9uJywgJy1waCcsICc3LjAnLCAnLXRuJywgJzgnLCAnLW1hJywgJzIwMCcsICctbWV0YWxfYmluZGluZycsICctaW1hZScsICc8aW5maWxlLm1hZT4nLCAnLW9tYWUnLCAnPG91dGZpbGUubWFlPic=

> <r_lp_tautomer_probability>
1

> <r_epik_Ionization_Penalty>
2.39489

> <r_epik_Ionization_Penalty_Charging>
0

> <r_epik_Ionization_Penalty_Neutral>
2.39489

> <r_epik_State_Penalty>
2.55237

> <r_epik_Charging_Adjusted_Penalty>
2.55237

> <i_epik_Tot_Q>
0

> <i_epik_Tot_abs_Q>
0

> <r_epik_Metal_State_Penalty>
2.55237

> <b_epik_Metal_Only>
0

> <s_lp_Force_Field>
OPLS_2005

> <r_lp_Energy>
11.1519

> <b_lp_Chiralities_Consistent>
1

> <s_lp_Variant>
AV-unprocessed.smi:2769-2

> <Gold.Version>
5.8.1

> <Gold.Id.Protein>
6NUR|6NUR_protein|mol2

> <Gold.PLP.Fitness>
27.2235

> <Gold.PLP.PLP>
-22.0520

> <Gold.PLP.part.hbond>
-2.7564

> <Gold.PLP.part.metal>
0.0000

> <Gold.PLP.part.buried>
-0.3376

> <Gold.PLP.part.nonpolar>
-17.6656

> <Gold.PLP.part.repulsive>
0.0000

> <Gold.PLP.ligand.clash>
0.0000

> <Gold.PLP.ligand.torsion>
0.1227

> <Gold.PLP.Chemscore.Hbond>
1.7303

> <Gold.PLP.Chemscore.CHOScore>
0.0000

> <Gold.PLP.Chemscore.Metal>
0.0000

> <Gold.Chemscore.Hbonds>
donor molecule, donor type, donor heavy atom, donor atom, acceptor molecule, acceptor atom, score
      L1  H     8    17       P1  8028  0.95
      P1  H  7997  8008       L1     3  0.72

> <Gold.PLP.Chemscore.Internal.Correction>
0.2259

> <Gold.Rescore>
     Score         DG    S(hbond)    S(metal)    S(lipo)     H(rot)  DE(clash)    DE(int)     intcor
     10.57     -10.73       0.91        0.00      40.64       1.00       0.03       0.13       ----

> <Gold.Chemscore.Fitness>
10.5724

> <Gold.Chemscore.DG>
-10.7314

> <Gold.Chemscore.ZeroCoef>
-5.4800

> <Gold.Chemscore.Hbond>
0.9149

> <Gold.Chemscore.Metal>
0.0000

> <Gold.Chemscore.Lipo>
40.6450

> <Gold.Chemscore.Internal_Hbond>
0.0000

> <Gold.Chemscore.DEClash>
0.0314

> <Gold.Chemscore.DEInternal>
0.1276

> <Gold.Chemscore.Rot>
1.0000

> <Gold.Chemscore.Internal.Correction>
   9.000000E+99

> <Gold.Chemscore.Hbonds>
donor molecule, donor type, donor heavy atom, donor atom, acceptor molecule, acceptor atom, score
      L1  H     8    17       P1  8028  0.21
      P1  H  7997  8008       L1     3  0.20

> <Gold.Chemscore.Hbond.Weighted>
-3.0559

> <Gold.Chemscore.Metal.Weighted>
-0.0000

> <Gold.Chemscore.Lipo.Weighted>
-4.7555

> <Gold.Chemscore.Internal_Hbond.Weighted>
0.0000

> <Gold.Chemscore.DEClash.Weighted>
0.0314

> <Gold.Chemscore.DEInternal.Weighted>
0.1276

> <Gold.Chemscore.Rot.Weighted>
2.5600

> <Gold.Chemscore.Internal.Correction.Weighted>
   9.000000E+99

> <Gold.Protein.RotatedTorsions>
[ 6907 6896 6895 6894 ] final  -38.88 input  -60.11 | X-H torsion
[ 7974 7965 7964 7962 ] final -104.69 input  175.53 | X-H torsion
[ 8008 7997 7996 7995 ] final  -99.62 input   59.86 | X-H torsion
[ 10167 10162 10161 10158 ] final   30.51 input  -65.29 | X-H torsion
[ 10718 10713 10712 10709 ] final  154.40 input   66.30 | X-H torsion
[ 10763 10752 10751 10750 ] final  158.88 input  -60.55 | X-H torsion
[ 11005 11000 10999 10996 ] final   68.19 input  -57.11 | X-H torsion

> <Gold.Protein.ActiveResidues>
 VAL166  LYS551  ARG553  GLY616  TRP617  ASP618  TYR619  PRO620  LYS621  CYS622 
 ASP623  PHE694  ASN695  SER759  ASP760  ASP761  ALA762  ILE779  LEU786  VAL792 
 PHE793  MET794  SER795  GLU796  ALA797  LYS798  CYS799  TRP800  GLU811  SER814 

> <Gold.Protein.RotatedAtoms>
  150.9971  134.9292  159.7932 H   0  0  0  0  0  0  0  0  0  0  0  0  # atno 6907 bound_to 6896
  152.5267  134.3203  159.9156 H   0  0  0  0  0  0  0  0  0  0  0  0  # atno 6908 bound_to 6896
  151.3209  133.3999  159.2689 H   0  0  0  0  0  0  0  0  0  0  0  0  # atno 6909 bound_to 6896
  145.2400  140.9201  143.3155 H   0  0  0  0  0  0  0  0  0  0  0  0  # atno 7974 bound_to 7965
  154.8173  140.0446  157.1385 H   0  0  0  0  0  0  0  0  0  0  0  0  # atno 8008 bound_to 7997
  154.9300  140.3038  155.5152 H   0  0  0  0  0  0  0  0  0  0  0  0  # atno 8009 bound_to 7997
  156.2977  140.2325  156.4359 H   0  0  0  0  0  0  0  0  0  0  0  0  # atno 8010 bound_to 7997
  140.4671  144.0819  150.6227 H   0  0  0  0  0  0  0  0  0  0  0  0  # atno 10167 bound_to 10162
  157.2321  131.0741  151.1846 H   0  0  0  0  0  0  0  0  0  0  0  0  # atno 10718 bound_to 10713
  154.2231  135.2781  155.2917 H   0  0  0  0  0  0  0  0  0  0  0  0  # atno 10763 bound_to 10752
  154.5686  135.5625  153.7077 H   0  0  0  0  0  0  0  0  0  0  0  0  # atno 10764 bound_to 10752
  153.0037  135.6315  154.2371 H   0  0  0  0  0  0  0  0  0  0  0  0  # atno 10765 bound_to 10752
  139.9726  134.6876  156.0417 H   0  0  0  0  0  0  0  0  0  0  0  0  # atno 11005 bound_to 11000
  144.9598  139.3992  143.6361 LP  0  0  0  0  0  0  0  0  0  0  0  0  # atno 17320 bound_to 7965
  146.3331  139.8645  142.8850 LP  0  0  0  0  0  0  0  0  0  0  0  0  # atno 17321 bound_to 7965
  140.4022  143.2698  151.9933 LP  0  0  0  0  0  0  0  0  0  0  0  0  # atno 17342 bound_to 10162
  139.4813  144.5987  151.7644 LP  0  0  0  0  0  0  0  0  0  0  0  0  # atno 17343 bound_to 10162
  157.3467  130.7061  149.6415 LP  0  0  0  0  0  0  0  0  0  0  0  0  # atno 17370 bound_to 10713
  155.9675  130.4264  150.4698 LP  0  0  0  0  0  0  0  0  0  0  0  0  # atno 17371 bound_to 10713
  141.1405  133.6566  156.3715 LP  0  0  0  0  0  0  0  0  0  0  0  0  # atno 17394 bound_to 11000
  140.5262  134.6256  157.5335 LP  0  0  0  0  0  0  0  0  0  0  0  0  # atno 17395 bound_to 11000

$$$$
