AV-unprocessed.smi:2278|AV-procd|sdf|9182|dock1
  -GOLD-   2272012393D 1   1.00000     0.00000
 Structure written by MMmdl.
 46 47  0  0  0  0  0  0  0  0  2 V2000
  149.5612  140.5452  154.4866 C   0  0  0  0  0  0  0  0  0  0  0  0
  149.6635  139.0537  154.7521 C   0  0  0  0  0  0  0  0  0  0  0  0
  148.4506  138.3587  154.7696 N   0  0  0  0  0  0  0  0  0  0  0  0
  148.4400  137.0847  154.9887 C   0  0  0  0  0  0  0  0  0  0  0  0
  149.6251  136.3657  155.2142 N   0  0  0  0  0  0  0  0  0  0  0  0
  149.4785  134.9225  155.4662 C   0  0  0  0  0  0  0  0  0  0  0  0
  148.8731  134.1800  154.2532 C   0  0  1  0  0  0  0  0  0  0  0  0
  149.0703  132.7917  154.4371 O   0  0  0  0  0  0  0  0  0  0  0  0
  147.3532  134.4172  154.1418 C   0  0  0  0  0  0  0  0  0  0  0  0
  146.8649  134.3105  152.7430 N   0  3  2  0  0  0  0  0  0  0  0  0
  145.5380  134.9484  152.5334 C   0  0  0  0  0  0  0  0  0  0  0  0
  145.1459  134.9360  151.0451 C   0  0  0  0  0  0  0  0  0  0  0  0
  145.1618  133.5161  150.4503 C   0  0  2  0  0  0  0  0  0  0  0  0
  143.9674  132.6636  150.9134 C   0  0  0  0  0  0  0  0  0  0  0  0
  146.5187  132.8521  150.7474 C   0  0  0  0  0  0  0  0  0  0  0  0
  146.8837  132.9127  152.2417 C   0  0  0  0  0  0  0  0  0  0  0  0
  150.8505  136.9665  155.2179 C   0  0  0  0  0  0  0  0  0  0  0  0
  151.8820  136.3259  155.4312 O   0  0  0  0  0  0  0  0  0  0  0  0
  150.8470  138.4159  154.9637 C   0  0  0  0  0  0  0  0  0  0  0  0
  152.1982  139.1197  154.9582 C   0  0  0  0  0  0  0  0  0  0  0  0
  150.1237  140.8144  153.5923 H   0  0  0  0  0  0  0  0  0  0  0  0
  149.9560  141.1110  155.3310 H   0  0  0  0  0  0  0  0  0  0  0  0
  148.5255  140.8517  154.3342 H   0  0  0  0  0  0  0  0  0  0  0  0
  147.5205  136.4974  155.0159 H   0  0  0  0  0  0  0  0  0  0  0  0
  150.4160  134.4560  155.7768 H   0  0  0  0  0  0  0  0  0  0  0  0
  148.8251  134.8004  156.3322 H   0  0  0  0  0  0  0  0  0  0  0  0
  149.3707  134.4894  153.3350 H   0  0  0  0  0  0  0  0  0  0  0  0
  148.4918  132.3237  153.8537 H   0  0  0  0  0  0  0  0  0  0  0  0
  146.8411  133.6911  154.7756 H   0  0  0  0  0  0  0  0  0  0  0  0
  147.0865  135.3998  154.5343 H   0  0  0  0  0  0  0  0  0  0  0  0
  144.7844  134.4330  153.1302 H   0  0  0  0  0  0  0  0  0  0  0  0
  145.5533  135.9804  152.8816 H   0  0  0  0  0  0  0  0  0  0  0  0
  144.1635  135.3905  150.9126 H   0  0  0  0  0  0  0  0  0  0  0  0
  145.8458  135.5634  150.4912 H   0  0  0  0  0  0  0  0  0  0  0  0
  145.0714  133.6114  149.3673 H   0  0  0  0  0  0  0  0  0  0  0  0
  143.9649  132.5081  151.9920 H   0  0  0  0  0  0  0  0  0  0  0  0
  143.9823  131.6816  150.4397 H   0  0  0  0  0  0  0  0  0  0  0  0
  143.0230  133.1389  150.6473 H   0  0  0  0  0  0  0  0  0  0  0  0
  146.5167  131.8171  150.4037 H   0  0  0  0  0  0  0  0  0  0  0  0
  147.2963  133.3584  150.1738 H   0  0  0  0  0  0  0  0  0  0  0  0
  147.8794  132.4885  152.3780 H   0  0  0  0  0  0  0  0  0  0  0  0
  146.1989  132.3012  152.8308 H   0  0  0  0  0  0  0  0  0  0  0  0
  152.6917  138.9931  155.9223 H   0  0  0  0  0  0  0  0  0  0  0  0
  152.1252  140.1889  154.7662 H   0  0  0  0  0  0  0  0  0  0  0  0
  152.8422  138.6914  154.1895 H   0  0  0  0  0  0  0  0  0  0  0  0
  147.5305  134.8183  152.1775 H   0  0  0  0  0  0  0  0  0  0  0  0
  1  2  1  0  0  0  0
  1 21  1  0  0  0  0
  1 22  1  0  0  0  0
  1 23  1  0  0  0  0
  2 19  2  0  0  0  0
  2  3  1  0  0  0  0
  3  4  2  0  0  0  0
  4  5  1  0  0  0  0
  4 24  1  0  0  0  0
  5  6  1  0  0  0  0
  5 17  1  0  0  0  0
  6  7  1  0  0  0  0
  6 25  1  0  0  0  0
  6 26  1  0  0  0  0
  7  8  1  0  0  0  0
  7  9  1  0  0  0  0
  7 27  1  0  0  0  0
  8 28  1  0  0  0  0
  9 10  1  0  0  0  0
  9 29  1  0  0  0  0
  9 30  1  0  0  0  0
 10 16  1  0  0  0  0
 10 11  1  0  0  0  0
 10 46  1  0  0  0  0
 11 12  1  0  0  0  0
 11 31  1  0  0  0  0
 11 32  1  0  0  0  0
 12 13  1  0  0  0  0
 12 33  1  0  0  0  0
 12 34  1  0  0  0  0
 13 14  1  0  0  0  0
 13 15  1  0  0  0  0
 13 35  1  0  0  0  0
 14 36  1  0  0  0  0
 14 37  1  0  0  0  0
 14 38  1  0  0  0  0
 15 16  1  0  0  0  0
 15 39  1  0  0  0  0
 15 40  1  0  0  0  0
 16 41  1  0  0  0  0
 16 42  1  0  0  0  0
 17 18  2  0  0  0  0
 17 19  1  0  0  0  0
 19 20  1  0  0  0  0
 20 43  1  0  0  0  0
 20 44  1  0  0  0  0
 20 45  1  0  0  0  0
M  CHG  1  10   1
M  END
> <s_m_source_file>
AV-unprocessed.smi

> <i_m_source_file_index>
2278

> <i_lp_mmshare_version>
43012

> <i_f3d_flags>
0

> <s_epik_input>
W0NIM11jMW5bY0hdbihjKD1PKWMxW0NIM10pW0NIMl1bQ0BIXShbT0hdKVtDSDJdTjJbQ0gyXVtDSDJdW0NIXShbQ0gzXSlbQ0gyXVtDSDJdMg==

> <s_epik_cmdline>
J2VwaWtfcHl0aG9uJywgJy1waCcsICc3LjAnLCAnLXRuJywgJzgnLCAnLW1hJywgJzIwMCcsICctbWV0YWxfYmluZGluZycsICctaW1hZScsICc8aW5maWxlLm1hZT4nLCAnLW9tYWUnLCAnPG91dGZpbGUubWFlPic=

> <r_lp_tautomer_probability>
1

> <r_epik_Ionization_Penalty>
0.00139489

> <r_epik_Ionization_Penalty_Charging>
0.00136819

> <r_epik_Ionization_Penalty_Neutral>
2.66975e-05

> <r_epik_State_Penalty>
0.000910892

> <r_epik_Charging_Adjusted_Penalty>
0.00227908

> <i_epik_Tot_Q>
1

> <i_epik_Tot_abs_Q>
1

> <r_epik_Metal_State_Penalty>
-0

> <b_epik_Metal_Only>
0

> <s_lp_Force_Field>
OPLS_2005

> <r_lp_Energy>
31.1112

> <b_lp_Chiralities_Consistent>
1

> <s_lp_Variant>
AV-unprocessed.smi:2278-4

> <Gold.Version>
5.8.1

> <Gold.Id.Protein>
6NUR|6NUR_protein|mol2

> <Gold.PLP.Fitness>
41.5085

> <Gold.PLP.PLP>
-33.5926

> <Gold.PLP.part.hbond>
-1.8123

> <Gold.PLP.part.metal>
0.0000

> <Gold.PLP.part.buried>
-1.2926

> <Gold.PLP.part.nonpolar>
-29.9190

> <Gold.PLP.part.repulsive>
0.1872

> <Gold.PLP.ligand.clash>
0.0000

> <Gold.PLP.ligand.torsion>
0.5754

> <Gold.PLP.Chemscore.Hbond>
3.0000

> <Gold.PLP.Chemscore.CHOScore>
0.0000

> <Gold.PLP.Chemscore.Metal>
0.0000

> <Gold.Chemscore.Hbonds>
donor molecule, donor type, donor heavy atom, donor atom, acceptor molecule, acceptor atom, score
      L1  H    10    46       P1  7948  2.00
      P1  H 10752 10765       L1    18  1.00

> <Gold.PLP.Chemscore.Internal.Correction>
0.0667

> <Gold.Rescore>
     Score         DG    S(hbond)    S(metal)    S(lipo)     H(rot)  DE(clash)    DE(int)     intcor
     13.87     -15.43       1.91        0.00      78.64       2.20       0.12       1.44       ----

> <Gold.Chemscore.Fitness>
13.8724

> <Gold.Chemscore.DG>
-15.4334

> <Gold.Chemscore.ZeroCoef>
-5.4800

> <Gold.Chemscore.Hbond>
1.9104

> <Gold.Chemscore.Metal>
0.0000

> <Gold.Chemscore.Lipo>
78.6417

> <Gold.Chemscore.Internal_Hbond>
0.0000

> <Gold.Chemscore.DEClash>
0.1221

> <Gold.Chemscore.DEInternal>
1.4389

> <Gold.Chemscore.Rot>
2.1986

> <Gold.Chemscore.Internal.Correction>
   9.000000E+99

> <Gold.Chemscore.Hbonds>
donor molecule, donor type, donor heavy atom, donor atom, acceptor molecule, acceptor atom, score
      L1  H    10    46       P1  7948  0.81
      P1  H 10752 10765       L1    18  0.93

> <Gold.Chemscore.Hbond.Weighted>
-6.3808

> <Gold.Chemscore.Metal.Weighted>
-0.0000

> <Gold.Chemscore.Lipo.Weighted>
-9.2011

> <Gold.Chemscore.Internal_Hbond.Weighted>
0.0000

> <Gold.Chemscore.DEClash.Weighted>
0.1221

> <Gold.Chemscore.DEInternal.Weighted>
1.4389

> <Gold.Chemscore.Rot.Weighted>
5.6285

> <Gold.Chemscore.Internal.Correction.Weighted>
   9.000000E+99

> <Gold.Protein.RotatedTorsions>
[ 6907 6896 6895 6894 ] final   22.69 input  -60.11 | X-H torsion
[ 7974 7965 7964 7962 ] final  -14.00 input  175.53 | X-H torsion
[ 8008 7997 7996 7995 ] final   -1.22 input   59.86 | X-H torsion
[ 10167 10162 10161 10158 ] final    9.61 input  -65.29 | X-H torsion
[ 10718 10713 10712 10709 ] final -123.23 input   66.30 | X-H torsion
[ 10763 10752 10751 10750 ] final  176.21 input  -60.55 | X-H torsion
[ 11005 11000 10999 10996 ] final  161.70 input  -57.11 | X-H torsion

> <Gold.Protein.ActiveResidues>
 VAL166  LYS551  ARG553  GLY616  TRP617  ASP618  TYR619  PRO620  LYS621  CYS622 
 ASP623  PHE694  ASN695  SER759  ASP760  ASP761  ALA762  ILE779  LEU786  VAL792 
 PHE793  MET794  SER795  GLU796  ALA797  LYS798  CYS799  TRP800  GLU811  SER814 

> <Gold.Protein.RotatedAtoms>
  151.9310  135.0256  160.0528 H   0  0  0  0  0  0  0  0  0  0  0  0  # atno 6907 bound_to 6896
  152.2118  133.4912  159.5122 H   0  0  0  0  0  0  0  0  0  0  0  0  # atno 6908 bound_to 6896
  150.6978  134.1374  159.4135 H   0  0  0  0  0  0  0  0  0  0  0  0  # atno 6909 bound_to 6896
  146.2092  140.3285  142.8397 H   0  0  0  0  0  0  0  0  0  0  0  0  # atno 7974 bound_to 7965
  154.6492  140.2565  155.7233 H   0  0  0  0  0  0  0  0  0  0  0  0  # atno 8008 bound_to 7997
  156.2567  140.2871  156.0840 H   0  0  0  0  0  0  0  0  0  0  0  0  # atno 8009 bound_to 7997
  155.1476  140.0381  157.2804 H   0  0  0  0  0  0  0  0  0  0  0  0  # atno 8010 bound_to 7997
  140.6245  143.8132  150.7215 H   0  0  0  0  0  0  0  0  0  0  0  0  # atno 10167 bound_to 10162
  156.1485  130.6517  150.9878 H   0  0  0  0  0  0  0  0  0  0  0  0  # atno 10718 bound_to 10713
  154.4780  135.2773  155.1592 H   0  0  0  0  0  0  0  0  0  0  0  0  # atno 10763 bound_to 10752
  154.3314  135.6189  153.5556 H   0  0  0  0  0  0  0  0  0  0  0  0  # atno 10764 bound_to 10752
  152.9872  135.5766  154.5175 H   0  0  0  0  0  0  0  0  0  0  0  0  # atno 10765 bound_to 10752
  140.2184  134.8214  157.3195 H   0  0  0  0  0  0  0  0  0  0  0  0  # atno 11005 bound_to 11000
  144.8869  140.7474  143.5951 LP  0  0  0  0  0  0  0  0  0  0  0  0  # atno 17320 bound_to 7965
  145.3206  139.1789  143.4590 LP  0  0  0  0  0  0  0  0  0  0  0  0  # atno 17321 bound_to 7965
  140.1730  143.4179  152.1987 LP  0  0  0  0  0  0  0  0  0  0  0  0  # atno 17342 bound_to 10162
  139.5467  144.7304  151.4560 LP  0  0  0  0  0  0  0  0  0  0  0  0  # atno 17343 bound_to 10162
  157.6637  131.0876  150.7779 LP  0  0  0  0  0  0  0  0  0  0  0  0  # atno 17370 bound_to 10713
  156.7849  130.4871  149.5394 LP  0  0  0  0  0  0  0  0  0  0  0  0  # atno 17371 bound_to 10713
  140.1876  134.4412  155.7735 LP  0  0  0  0  0  0  0  0  0  0  0  0  # atno 17394 bound_to 11000
  141.2224  133.7012  156.7973 LP  0  0  0  0  0  0  0  0  0  0  0  0  # atno 17395 bound_to 11000

$$$$
