AV-unprocessed.smi:622|AV-procd|sdf|3090|dock2
  -GOLD-   22720 0 13D 1   1.00000     0.00000
 Structure written by MMmdl.
 36 37  0  0  0  0  0  0  0  0  1 V2000
  145.4340  137.2280  153.9869 O   0  0  0  0  0  0  0  0  0  0  0  0
  146.4821  136.9445  153.4071 C   0  0  0  0  0  0  0  0  0  0  0  0
  147.5343  137.7682  153.2622 N   0  0  0  0  0  0  0  0  0  0  0  0
  147.7034  139.0830  153.7735 C   0  0  0  0  0  0  0  0  0  0  0  0
  148.9605  139.6716  154.0521 C   0  0  0  0  0  0  0  0  0  0  0  0
  148.9997  140.9932  154.5368 C   0  0  0  0  0  0  0  0  0  0  0  0
  147.7832  141.6792  154.7186 C   0  0  0  0  0  0  0  0  0  0  0  0
  146.5788  141.1358  154.4434 N   0  0  0  0  0  0  0  0  0  0  0  0
  146.5493  139.8688  153.9774 C   0  0  0  0  0  0  0  0  0  0  0  0
  146.7106  135.7633  152.8143 N   0  0  0  0  0  0  0  0  0  0  0  0
  145.7887  134.6298  152.7659 C   0  0  0  0  0  0  0  0  0  0  0  0
  146.5770  133.3849  152.3165 C   0  0  0  0  0  0  0  0  0  0  0  0
  145.7452  132.0998  152.1634 C   0  0  0  0  0  0  0  0  0  0  0  0
  144.8640  132.1091  150.9039 C   0  0  0  0  0  0  0  0  0  0  0  0
  143.4853  132.7725  151.0663 C   0  0  0  0  0  0  0  0  0  0  0  0
  143.4192  134.0088  151.9801 C   0  0  0  0  0  0  0  0  0  0  0  0
  144.5962  134.9906  151.8552 C   0  0  0  0  0  0  0  0  0  0  0  0
  148.2853  137.4315  152.6776 H   0  0  0  0  0  0  0  0  0  0  0  0
  149.8887  139.1458  153.8901 H   0  0  0  0  0  0  0  0  0  0  0  0
  149.9416  141.4720  154.7598 H   0  0  0  0  0  0  0  0  0  0  0  0
  147.7777  142.6936  155.0893 H   0  0  0  0  0  0  0  0  0  0  0  0
  145.5689  139.4681  153.7644 H   0  0  0  0  0  0  0  0  0  0  0  0
  147.6020  135.6327  152.3589 H   0  0  0  0  0  0  0  0  0  0  0  0
  145.4018  134.4324  153.7673 H   0  0  0  0  0  0  0  0  0  0  0  0
  147.0989  133.5923  151.3811 H   0  0  0  0  0  0  0  0  0  0  0  0
  147.3600  133.1953  153.0522 H   0  0  0  0  0  0  0  0  0  0  0  0
  146.4427  131.2660  152.0762 H   0  0  0  0  0  0  0  0  0  0  0  0
  145.1545  131.9000  153.0581 H   0  0  0  0  0  0  0  0  0  0  0  0
  145.4050  132.5893  150.0877 H   0  0  0  0  0  0  0  0  0  0  0  0
  144.7046  131.0817  150.5743 H   0  0  0  0  0  0  0  0  0  0  0  0
  143.1197  133.0410  150.0744 H   0  0  0  0  0  0  0  0  0  0  0  0
  142.7782  132.0347  151.4469 H   0  0  0  0  0  0  0  0  0  0  0  0
  142.4933  134.5386  151.7535 H   0  0  0  0  0  0  0  0  0  0  0  0
  143.3179  133.6930  153.0190 H   0  0  0  0  0  0  0  0  0  0  0  0
  144.2309  135.9755  152.1506 H   0  0  0  0  0  0  0  0  0  0  0  0
  144.9099  135.0898  150.8152 H   0  0  0  0  0  0  0  0  0  0  0  0
  1  2  2  0  0  0  0
  2  3  1  0  0  0  0
  2 10  1  0  0  0  0
  3  4  1  0  0  0  0
  3 18  1  0  0  0  0
  4  9  1  0  0  0  0
  4  5  2  0  0  0  0
  5  6  1  0  0  0  0
  5 19  1  0  0  0  0
  6  7  2  0  0  0  0
  6 20  1  0  0  0  0
  7  8  1  0  0  0  0
  7 21  1  0  0  0  0
  8  9  2  0  0  0  0
  9 22  1  0  0  0  0
 10 11  1  0  0  0  0
 10 23  1  0  0  0  0
 11 17  1  0  0  0  0
 11 12  1  0  0  0  0
 11 24  1  0  0  0  0
 12 13  1  0  0  0  0
 12 25  1  0  0  0  0
 12 26  1  0  0  0  0
 13 14  1  0  0  0  0
 13 27  1  0  0  0  0
 13 28  1  0  0  0  0
 14 15  1  0  0  0  0
 14 29  1  0  0  0  0
 14 30  1  0  0  0  0
 15 16  1  0  0  0  0
 15 31  1  0  0  0  0
 15 32  1  0  0  0  0
 16 17  1  0  0  0  0
 16 33  1  0  0  0  0
 16 34  1  0  0  0  0
 17 35  1  0  0  0  0
 17 36  1  0  0  0  0
M  END
> <s_m_source_file>
AV-unprocessed.smi

> <i_m_source_file_index>
622

> <i_lp_mmshare_version>
43012

> <i_f3d_flags>
0

> <s_epik_input>
W2NIXTFuW2NIXVtjSF1bY0hdYzFbTkhdQyg9TylbTkhdW0NIXTJbQ0gyXVtDSDJdW0NIMl1bQ0gyXVtDSDJdW0NIMl0y

> <s_epik_cmdline>
J2VwaWtfcHl0aG9uJywgJy1waCcsICc3LjAnLCAnLXRuJywgJzgnLCAnLW1hJywgJzIwMCcsICctbWV0YWxfYmluZGluZycsICctaW1hZScsICc8aW5maWxlLm1hZT4nLCAnLW9tYWUnLCAnPG91dGZpbGUubWFlPic=

> <r_epik_Ionization_Penalty>
0.00494148

> <r_epik_Ionization_Penalty_Charging>
0

> <r_epik_Ionization_Penalty_Neutral>
0.00494148

> <r_epik_State_Penalty>
0.00355757

> <r_epik_Charging_Adjusted_Penalty>
0.00355757

> <i_epik_Tot_Q>
0

> <i_epik_Tot_abs_Q>
0

> <r_epik_Metal_State_Penalty>
-0

> <b_epik_Metal_Only>
0

> <s_lp_Force_Field>
OPLS_2005

> <r_lp_Energy>
17.9389

> <b_lp_Chiralities_Consistent>
1

> <s_lp_Variant>
AV-unprocessed.smi:622-1

> <Gold.Version>
5.8.1

> <Gold.Id.Protein>
6NUR|6NUR_protein|mol2

> <Gold.PLP.Fitness>
37.2382

> <Gold.PLP.PLP>
-25.8097

> <Gold.PLP.part.hbond>
-1.7454

> <Gold.PLP.part.metal>
0.0000

> <Gold.PLP.part.buried>
-1.7721

> <Gold.PLP.part.nonpolar>
-23.5061

> <Gold.PLP.part.repulsive>
0.2985

> <Gold.PLP.ligand.clash>
0.0000

> <Gold.PLP.ligand.torsion>
0.2923

> <Gold.PLP.Chemscore.Hbond>
2.0000

> <Gold.PLP.Chemscore.CHOScore>
2.0000

> <Gold.PLP.Chemscore.Metal>
0.0000

> <Gold.Chemscore.Hbonds>
donor molecule, donor type, donor heavy atom, donor atom, acceptor molecule, acceptor atom, score
      L1  H     3    18       P1  7948  1.00
      L1  H    10    23       P1  7948  1.00
      L1  C     7    21       P1  8028  1.00
      L1  C     9    22       P1 10175  0.99

> <Gold.PLP.Chemscore.Internal.Correction>
0.0131

> <Gold.Rescore>
     Score         DG    S(hbond)    S(metal)    S(lipo)     H(rot)  DE(clash)    DE(int)     intcor
     15.82     -17.68       1.89        0.00      72.33       1.00       0.30       1.56       ----

> <Gold.Chemscore.Fitness>
15.8191

> <Gold.Chemscore.DG>
-17.6842

> <Gold.Chemscore.ZeroCoef>
-5.4800

> <Gold.Chemscore.Hbond>
1.8868

> <Gold.Chemscore.Metal>
0.0000

> <Gold.Chemscore.Lipo>
72.3287

> <Gold.Chemscore.Internal_Hbond>
0.0000

> <Gold.Chemscore.DEClash>
0.3010

> <Gold.Chemscore.DEInternal>
1.5642

> <Gold.Chemscore.Rot>
1.0000

> <Gold.Chemscore.Internal.Correction>
   9.000000E+99

> <Gold.Chemscore.Hbonds>
donor molecule, donor type, donor heavy atom, donor atom, acceptor molecule, acceptor atom, score
      L1  H     3    18       P1  7948  0.92
      L1  H    10    23       P1  7948  0.90

> <Gold.Chemscore.Hbond.Weighted>
-6.3018

> <Gold.Chemscore.Metal.Weighted>
-0.0000

> <Gold.Chemscore.Lipo.Weighted>
-8.4625

> <Gold.Chemscore.Internal_Hbond.Weighted>
0.0000

> <Gold.Chemscore.DEClash.Weighted>
0.3010

> <Gold.Chemscore.DEInternal.Weighted>
1.5642

> <Gold.Chemscore.Rot.Weighted>
2.5600

> <Gold.Chemscore.Internal.Correction.Weighted>
   9.000000E+99

> <Gold.Protein.RotatedTorsions>
[ 6907 6896 6895 6894 ] final  -17.85 input  -60.11 | X-H torsion
[ 7974 7965 7964 7962 ] final -130.97 input  175.53 | X-H torsion
[ 8008 7997 7996 7995 ] final -137.41 input   59.86 | X-H torsion
[ 10167 10162 10161 10158 ] final   64.50 input  -65.29 | X-H torsion
[ 10718 10713 10712 10709 ] final  130.23 input   66.30 | X-H torsion
[ 10763 10752 10751 10750 ] final  149.37 input  -60.55 | X-H torsion
[ 11005 11000 10999 10996 ] final  -21.08 input  -57.11 | X-H torsion

> <Gold.Protein.ActiveResidues>
 VAL166  LYS551  ARG553  GLY616  TRP617  ASP618  TYR619  PRO620  LYS621  CYS622 
 ASP623  PHE694  ASN695  SER759  ASP760  ASP761  ALA762  ILE779  LEU786  VAL792 
 PHE793  MET794  SER795  GLU796  ALA797  LYS798  CYS799  TRP800  GLU811  SER814 

> <Gold.Protein.RotatedAtoms>
  151.2871  135.0731  159.9190 H   0  0  0  0  0  0  0  0  0  0  0  0  # atno 6907 bound_to 6896
  152.5323  133.9970  159.7887 H   0  0  0  0  0  0  0  0  0  0  0  0  # atno 6908 bound_to 6896
  151.0234  133.5805  159.2699 H   0  0  0  0  0  0  0  0  0  0  0  0  # atno 6909 bound_to 6896
  144.9424  140.7253  143.4838 H   0  0  0  0  0  0  0  0  0  0  0  0  # atno 7974 bound_to 7965
  155.4114  140.0512  157.3031 H   0  0  0  0  0  0  0  0  0  0  0  0  # atno 8008 bound_to 7997
  154.4944  140.2133  155.9437 H   0  0  0  0  0  0  0  0  0  0  0  0  # atno 8009 bound_to 7997
  156.1386  140.3158  155.8465 H   0  0  0  0  0  0  0  0  0  0  0  0  # atno 8010 bound_to 7997
  140.1215  144.4727  150.6918 H   0  0  0  0  0  0  0  0  0  0  0  0  # atno 10167 bound_to 10162
  157.5081  131.1096  150.9332 H   0  0  0  0  0  0  0  0  0  0  0  0  # atno 10718 bound_to 10713
  154.0701  135.2867  155.3309 H   0  0  0  0  0  0  0  0  0  0  0  0  # atno 10763 bound_to 10752
  154.6752  135.5284  153.8193 H   0  0  0  0  0  0  0  0  0  0  0  0  # atno 10764 bound_to 10752
  153.0488  135.6567  154.0883 H   0  0  0  0  0  0  0  0  0  0  0  0  # atno 10765 bound_to 10752
  140.8527  133.7845  155.9984 H   0  0  0  0  0  0  0  0  0  0  0  0  # atno 11005 bound_to 11000
  145.2971  139.1863  143.4709 LP  0  0  0  0  0  0  0  0  0  0  0  0  # atno 17320 bound_to 7965
  146.3290  140.2956  142.8618 LP  0  0  0  0  0  0  0  0  0  0  0  0  # atno 17321 bound_to 7965
  140.6869  143.2355  151.5236 LP  0  0  0  0  0  0  0  0  0  0  0  0  # atno 17342 bound_to 10162
  139.5566  144.2260  152.1622 LP  0  0  0  0  0  0  0  0  0  0  0  0  # atno 17343 bound_to 10162
  156.9982  130.5589  149.5309 LP  0  0  0  0  0  0  0  0  0  0  0  0  # atno 17370 bound_to 10713
  156.0271  130.5364  150.8436 LP  0  0  0  0  0  0  0  0  0  0  0  0  # atno 17371 bound_to 10713
  140.8772  134.2655  157.5162 LP  0  0  0  0  0  0  0  0  0  0  0  0  # atno 17394 bound_to 11000
  139.8704  134.9597  156.4340 LP  0  0  0  0  0  0  0  0  0  0  0  0  # atno 17395 bound_to 11000

$$$$
