AV-unprocessed.smi:3287|AV-procd|sdf|12603|dock10
  -GOLD-   2272018533D 1   1.00000     0.00000
 Structure written by MMmdl.
 43 44  0  0  0  0  0  0  0  0  2 V2000
  152.2337  143.2758  161.6066 C   0  0  0  0  0  0  0  0  0  0  0  0
  152.4170  143.3643  160.0811 C   0  0  1  0  0  0  0  0  0  0  0  0
  152.1248  141.9924  159.4399 C   0  0  0  0  0  0  0  0  0  0  0  0
  152.2970  142.0148  157.9128 C   0  0  0  0  0  0  0  0  0  0  0  0
  151.4328  143.1012  157.2512 C   0  0  1  0  0  0  0  0  0  0  0  0
  149.9991  142.7338  157.3194 N   0  3  0  0  0  0  0  0  0  0  0  0
  149.7022  141.2889  157.2122 C   0  0  0  0  0  0  0  0  0  0  0  0
  149.5890  140.8489  155.7425 C   0  0  1  0  0  0  0  0  0  0  0  0
  149.8078  141.9736  154.9126 O   0  0  0  0  0  0  0  0  0  0  0  0
  150.5593  139.7198  155.4324 C   0  0  0  0  0  0  0  0  0  0  0  0
  150.1402  138.5637  154.7381 C   0  0  0  0  0  0  0  0  0  0  0  0
  151.0887  137.5554  154.4740 C   0  0  0  0  0  0  0  0  0  0  0  0
  152.3831  137.6390  154.8487 N   0  0  0  0  0  0  0  0  0  0  0  0
  152.7792  138.7475  155.5098 C   0  0  0  0  0  0  0  0  0  0  0  0
  151.9114  139.8126  155.8242 C   0  0  0  0  0  0  0  0  0  0  0  0
  151.7227  144.4730  157.8956 C   0  0  0  0  0  0  0  0  0  0  0  0
  151.5461  144.4716  159.4300 C   0  0  2  0  0  0  0  0  0  0  0  0
  151.8458  145.8742  159.9884 C   0  0  0  0  0  0  0  0  0  0  0  0
  151.1889  143.1121  161.8726 H   0  0  0  0  0  0  0  0  0  0  0  0
  152.5704  144.1823  162.1089 H   0  0  0  0  0  0  0  0  0  0  0  0
  152.8140  142.4518  162.0229 H   0  0  0  0  0  0  0  0  0  0  0  0
  153.4652  143.6011  159.8910 H   0  0  0  0  0  0  0  0  0  0  0  0
  152.7883  141.2372  159.8632 H   0  0  0  0  0  0  0  0  0  0  0  0
  151.1106  141.6780  159.6899 H   0  0  0  0  0  0  0  0  0  0  0  0
  153.3463  142.1986  157.6776 H   0  0  0  0  0  0  0  0  0  0  0  0
  152.0611  141.0355  157.4949 H   0  0  0  0  0  0  0  0  0  0  0  0
  151.7070  143.1438  156.1962 H   0  0  0  0  0  0  0  0  0  0  0  0
  149.6445  143.0473  158.2114 H   0  0  0  0  0  0  0  0  0  0  0  0
  150.4723  140.7049  157.7163 H   0  0  0  0  0  0  0  0  0  0  0  0
  148.7609  141.0887  157.7261 H   0  0  0  0  0  0  0  0  0  0  0  0
  148.5755  140.4943  155.5488 H   0  0  0  0  0  0  0  0  0  0  0  0
  149.2828  142.6909  155.2352 H   0  0  0  0  0  0  0  0  0  0  0  0
  149.1169  138.4473  154.4120 H   0  0  0  0  0  0  0  0  0  0  0  0
  150.7995  136.6589  153.9458 H   0  0  0  0  0  0  0  0  0  0  0  0
  153.8198  138.7880  155.7962 H   0  0  0  0  0  0  0  0  0  0  0  0
  152.2815  140.6784  156.3536 H   0  0  0  0  0  0  0  0  0  0  0  0
  152.7506  144.7541  157.6613 H   0  0  0  0  0  0  0  0  0  0  0  0
  151.1029  145.2481  157.4457 H   0  0  0  0  0  0  0  0  0  0  0  0
  150.4994  144.2536  159.6471 H   0  0  0  0  0  0  0  0  0  0  0  0
  152.8994  146.1308  159.8739 H   0  0  0  0  0  0  0  0  0  0  0  0
  151.5940  145.9527  161.0456 H   0  0  0  0  0  0  0  0  0  0  0  0
  151.2624  146.6349  159.4688 H   0  0  0  0  0  0  0  0  0  0  0  0
  149.5013  143.2242  156.5897 H   0  0  0  0  0  0  0  0  0  0  0  0
  1  2  1  0  0  0  0
  1 19  1  0  0  0  0
  1 20  1  0  0  0  0
  1 21  1  0  0  0  0
  2 17  1  0  0  0  0
  2  3  1  0  0  0  0
  2 22  1  0  0  0  0
  3  4  1  0  0  0  0
  3 23  1  0  0  0  0
  3 24  1  0  0  0  0
  4  5  1  0  0  0  0
  4 25  1  0  0  0  0
  4 26  1  0  0  0  0
  5  6  1  0  0  0  0
  5 16  1  0  0  0  0
  5 27  1  0  0  0  0
  6  7  1  0  0  0  0
  6 28  1  0  0  0  0
  6 43  1  0  0  0  0
  7  8  1  0  0  0  0
  7 29  1  0  0  0  0
  7 30  1  0  0  0  0
  8  9  1  0  0  0  0
  8 10  1  0  0  0  0
  8 31  1  0  0  0  0
  9 32  1  0  0  0  0
 10 15  1  0  0  0  0
 10 11  2  0  0  0  0
 11 12  1  0  0  0  0
 11 33  1  0  0  0  0
 12 13  2  0  0  0  0
 12 34  1  0  0  0  0
 13 14  1  0  0  0  0
 14 15  2  0  0  0  0
 14 35  1  0  0  0  0
 15 36  1  0  0  0  0
 16 17  1  0  0  0  0
 16 37  1  0  0  0  0
 16 38  1  0  0  0  0
 17 18  1  0  0  0  0
 17 39  1  0  0  0  0
 18 40  1  0  0  0  0
 18 41  1  0  0  0  0
 18 42  1  0  0  0  0
M  CHG  1   6   1
M  END
> <s_m_source_file>
AV-unprocessed.smi

> <i_m_source_file_index>
3287

> <i_lp_mmshare_version>
43012

> <i_f3d_flags>
0

> <s_epik_input>
W0NIM11bQ0BASF0xW0NIMl1bQ0gyXVtDQEhdKFtDSDJdW0NASF0xW0NIM10pW05IXVtDSDJdW0NASF0oW09IXSljMltjSF1bY0hdbltjSF1bY0hdMg==

> <s_epik_cmdline>
J2VwaWtfcHl0aG9uJywgJy1waCcsICc3LjAnLCAnLXRuJywgJzgnLCAnLW1hJywgJzIwMCcsICctbWV0YWxfYmluZGluZycsICctaW1hZScsICc8aW5maWxlLm1hZT4nLCAnLW9tYWUnLCAnPG91dGZpbGUubWFlPic=

> <r_lp_tautomer_probability>
1

> <r_epik_Ionization_Penalty>
0.00537262

> <r_epik_Ionization_Penalty_Charging>
0.00321624

> <r_epik_Ionization_Penalty_Neutral>
0.00215638

> <r_epik_State_Penalty>
-0

> <r_epik_Charging_Adjusted_Penalty>
0.00321624

> <i_epik_Tot_Q>
1

> <i_epik_Tot_abs_Q>
1

> <r_epik_Metal_State_Penalty>
-0

> <b_epik_Metal_Only>
0

> <s_lp_Force_Field>
OPLS_2005

> <r_lp_Energy>
19.4184

> <b_lp_Chiralities_Consistent>
1

> <s_lp_Variant>
AV-unprocessed.smi:3287-14

> <Gold.Version>
5.8.1

> <Gold.Id.Protein>
6NUR|6NUR_protein|mol2

> <Gold.PLP.Fitness>
55.2146

> <Gold.PLP.PLP>
-45.1549

> <Gold.PLP.part.hbond>
-3.9180

> <Gold.PLP.part.metal>
0.0000

> <Gold.PLP.part.buried>
-3.6593

> <Gold.PLP.part.nonpolar>
-37.1149

> <Gold.PLP.part.repulsive>
0.1084

> <Gold.PLP.ligand.clash>
0.0000

> <Gold.PLP.ligand.torsion>
1.4499

> <Gold.PLP.Chemscore.Hbond>
3.1830

> <Gold.PLP.Chemscore.CHOScore>
1.1320

> <Gold.PLP.Chemscore.Metal>
0.0000

> <Gold.Chemscore.Hbonds>
donor molecule, donor type, donor heavy atom, donor atom, acceptor molecule, acceptor atom, score
      L1  H     6    43       P1  8028  2.00
      L1  H     9    32       P1  8028  0.81
      P1  H 10752 10764       L1    13  0.44
      L1  C    12    34       P1  7948  0.16
      L1  C    12    34       P1  7949  0.74

> <Gold.PLP.Chemscore.Internal.Correction>
0.0144

> <Gold.Rescore>
     Score         DG    S(hbond)    S(metal)    S(lipo)     H(rot)  DE(clash)    DE(int)     intcor
     21.35     -23.46       2.28        0.00     130.27       1.90       0.72       1.39       ----

> <Gold.Chemscore.Fitness>
21.3509

> <Gold.Chemscore.DG>
-23.4579

> <Gold.Chemscore.ZeroCoef>
-5.4800

> <Gold.Chemscore.Hbond>
2.2783

> <Gold.Chemscore.Metal>
0.0000

> <Gold.Chemscore.Lipo>
130.2669

> <Gold.Chemscore.Internal_Hbond>
0.0000

> <Gold.Chemscore.DEClash>
0.7182

> <Gold.Chemscore.DEInternal>
1.3888

> <Gold.Chemscore.Rot>
1.9035

> <Gold.Chemscore.Internal.Correction>
   9.000000E+99

> <Gold.Chemscore.Hbonds>
donor molecule, donor type, donor heavy atom, donor atom, acceptor molecule, acceptor atom, score
      L1  H     6    43       P1  8028  0.98
      L1  H     9    32       P1  8028  0.78
      P1  H 10752 10764       L1    13  0.09

> <Gold.Chemscore.Hbond.Weighted>
-7.6095

> <Gold.Chemscore.Metal.Weighted>
-0.0000

> <Gold.Chemscore.Lipo.Weighted>
-15.2412

> <Gold.Chemscore.Internal_Hbond.Weighted>
0.0000

> <Gold.Chemscore.DEClash.Weighted>
0.7182

> <Gold.Chemscore.DEInternal.Weighted>
1.3888

> <Gold.Chemscore.Rot.Weighted>
4.8729

> <Gold.Chemscore.Internal.Correction.Weighted>
   9.000000E+99

> <Gold.Protein.RotatedTorsions>
[ 6907 6896 6895 6894 ] final  120.42 input  -60.11 | X-H torsion
[ 7974 7965 7964 7962 ] final  -23.23 input  175.53 | X-H torsion
[ 8008 7997 7996 7995 ] final  168.29 input   59.86 | X-H torsion
[ 10167 10162 10161 10158 ] final  -86.76 input  -65.29 | X-H torsion
[ 10718 10713 10712 10709 ] final  -96.13 input   66.30 | X-H torsion
[ 10763 10752 10751 10750 ] final  -75.00 input  -60.55 | X-H torsion
[ 11005 11000 10999 10996 ] final  -17.64 input  -57.11 | X-H torsion

> <Gold.Protein.ActiveResidues>
 VAL166  LYS551  ARG553  GLY616  TRP617  ASP618  TYR619  PRO620  LYS621  CYS622 
 ASP623  PHE694  ASN695  SER759  ASP760  ASP761  ALA762  ILE779  LEU786  VAL792 
 PHE793  MET794  SER795  GLU796  ALA797  LYS798  CYS799  TRP800  GLU811  SER814 

> <Gold.Protein.RotatedAtoms>
  152.4399  133.7429  159.6650 H   0  0  0  0  0  0  0  0  0  0  0  0  # atno 6907 bound_to 6896
  150.8288  133.8115  159.3113 H   0  0  0  0  0  0  0  0  0  0  0  0  # atno 6908 bound_to 6896
  151.5775  135.1062  160.0061 H   0  0  0  0  0  0  0  0  0  0  0  0  # atno 6909 bound_to 6896
  146.1629  140.4587  142.8564 H   0  0  0  0  0  0  0  0  0  0  0  0  # atno 7974 bound_to 7965
  156.1560  140.1594  156.8692 H   0  0  0  0  0  0  0  0  0  0  0  0  # atno 8008 bound_to 7997
  154.5115  140.0800  156.8035 H   0  0  0  0  0  0  0  0  0  0  0  0  # atno 8009 bound_to 7997
  155.3802  140.3405  155.4249 H   0  0  0  0  0  0  0  0  0  0  0  0  # atno 8010 bound_to 7997
  140.3910  143.2705  151.9264 H   0  0  0  0  0  0  0  0  0  0  0  0  # atno 10167 bound_to 10162
  156.0056  130.5138  150.6179 H   0  0  0  0  0  0  0  0  0  0  0  0  # atno 10718 bound_to 10713
  154.4807  135.5846  153.6387 H   0  0  0  0  0  0  0  0  0  0  0  0  # atno 10763 bound_to 10752
  152.9847  135.6089  154.3250 H   0  0  0  0  0  0  0  0  0  0  0  0  # atno 10764 bound_to 10752
  154.3141  135.2844  155.2531 H   0  0  0  0  0  0  0  0  0  0  0  0  # atno 10765 bound_to 10752
  140.8189  133.8084  155.9639 H   0  0  0  0  0  0  0  0  0  0  0  0  # atno 11005 bound_to 11000
  144.8051  140.6285  143.6452 LP  0  0  0  0  0  0  0  0  0  0  0  0  # atno 17320 bound_to 7965
  145.4543  139.1520  143.3901 LP  0  0  0  0  0  0  0  0  0  0  0  0  # atno 17321 bound_to 7965
  139.4789  144.5727  151.8062 LP  0  0  0  0  0  0  0  0  0  0  0  0  # atno 17342 bound_to 10162
  140.4840  144.1409  150.5937 LP  0  0  0  0  0  0  0  0  0  0  0  0  # atno 17343 bound_to 10162
  157.4000  131.0808  151.1317 LP  0  0  0  0  0  0  0  0  0  0  0  0  # atno 17370 bound_to 10713
  157.1981  130.6382  149.5728 LP  0  0  0  0  0  0  0  0  0  0  0  0  # atno 17371 bound_to 10713
  140.9120  134.2248  157.4980 LP  0  0  0  0  0  0  0  0  0  0  0  0  # atno 17394 bound_to 11000
  139.8709  134.9754  156.4883 LP  0  0  0  0  0  0  0  0  0  0  0  0  # atno 17395 bound_to 11000

$$$$
