AV-unprocessed.smi:609|AV-procd|sdf|3045|dock4
  -GOLD-   2262023563D 1   1.00000     0.00000
 Structure written by MMmdl.
 43 45  0  0  0  0  0  0  0  0  2 V2000
  152.5355  143.3057  160.5387 C   0  0  0  0  0  0  0  0  0  0  0  0
  152.1406  142.5260  159.2967 C   0  0  0  0  0  0  0  0  0  0  0  0
  152.9692  141.4696  158.8562 C   0  0  0  0  0  0  0  0  0  0  0  0
  152.6365  140.7186  157.7077 C   0  0  0  0  0  0  0  0  0  0  0  0
  153.2922  139.6584  157.1054 N   0  0  0  0  0  0  0  0  0  0  0  0
  152.4868  139.3919  156.0815 C   0  0  0  0  0  0  0  0  0  0  0  0
  151.3918  140.1639  155.9411 N   0  0  0  0  0  0  0  0  0  0  0  0
  150.3819  140.0733  154.9017 C   0  0  0  0  0  0  0  0  0  0  0  0
  150.3989  138.7131  154.1758 C   0  0  2  0  0  0  0  0  0  0  0  0
  149.4698  138.7722  153.1130 O   0  0  0  0  0  0  0  0  0  0  0  0
  150.0547  137.5208  155.0882 C   0  0  0  0  0  0  0  0  0  0  0  0
  151.4493  136.3751  155.2778 S   0  0  0  0  0  0  0  0  0  0  0  0
  150.8668  134.8248  154.6647 C   0  0  0  0  0  0  0  0  0  0  0  0
  150.0302  134.6847  153.6329 N   0  3  0  0  0  0  0  0  0  0  0  0
  149.7779  133.3572  153.4152 C   0  0  0  0  0  0  0  0  0  0  0  0
  150.5009  132.6635  154.3529 C   0  0  0  0  0  0  0  0  0  0  0  0
  151.1692  133.5940  155.1080 N   0  0  0  0  0  0  0  0  0  0  0  0
  152.0788  133.3142  156.2221 C   0  0  0  0  0  0  0  0  0  0  0  0
  151.4429  141.0572  157.0055 C   0  0  0  0  0  0  0  0  0  0  0  0
  150.6104  142.1058  157.4336 C   0  0  0  0  0  0  0  0  0  0  0  0
  150.9579  142.8463  158.5829 C   0  0  0  0  0  0  0  0  0  0  0  0
  150.0518  143.9770  159.0370 C   0  0  0  0  0  0  0  0  0  0  0  0
  153.4359  142.8956  160.9968 H   0  0  0  0  0  0  0  0  0  0  0  0
  151.7388  143.2727  161.2821 H   0  0  0  0  0  0  0  0  0  0  0  0
  152.7323  144.3481  160.2875 H   0  0  0  0  0  0  0  0  0  0  0  0
  153.8702  141.2256  159.3998 H   0  0  0  0  0  0  0  0  0  0  0  0
  152.7113  138.5956  155.3866 H   0  0  0  0  0  0  0  0  0  0  0  0
  149.4041  140.2491  155.3531 H   0  0  0  0  0  0  0  0  0  0  0  0
  150.5495  140.8847  154.1923 H   0  0  0  0  0  0  0  0  0  0  0  0
  151.3879  138.5554  153.7441 H   0  0  0  0  0  0  0  0  0  0  0  0
  149.7054  138.1192  152.4717 H   0  0  0  0  0  0  0  0  0  0  0  0
  149.7835  137.8761  156.0803 H   0  0  0  0  0  0  0  0  0  0  0  0
  149.1932  136.9759  154.7007 H   0  0  0  0  0  0  0  0  0  0  0  0
  149.1216  133.0135  152.6290 H   0  0  0  0  0  0  0  0  0  0  0  0
  150.5894  131.6015  154.5311 H   0  0  0  0  0  0  0  0  0  0  0  0
  152.5028  132.3173  156.0985 H   0  0  0  0  0  0  0  0  0  0  0  0
  151.5218  133.3531  157.1583 H   0  0  0  0  0  0  0  0  0  0  0  0
  152.8894  134.0431  156.2389 H   0  0  0  0  0  0  0  0  0  0  0  0
  149.7110  142.3374  156.8822 H   0  0  0  0  0  0  0  0  0  0  0  0
  149.2270  144.1294  158.3405 H   0  0  0  0  0  0  0  0  0  0  0  0
  150.6082  144.9121  159.1040 H   0  0  0  0  0  0  0  0  0  0  0  0
  149.6277  143.7547  160.0164 H   0  0  0  0  0  0  0  0  0  0  0  0
  149.6408  135.4500  153.0968 H   0  0  0  0  0  0  0  0  0  0  0  0
  1  2  1  0  0  0  0
  1 23  1  0  0  0  0
  1 24  1  0  0  0  0
  1 25  1  0  0  0  0
  2 21  1  0  0  0  0
  2  3  2  0  0  0  0
  3  4  1  0  0  0  0
  3 26  1  0  0  0  0
  4 19  2  0  0  0  0
  4  5  1  0  0  0  0
  5  6  2  0  0  0  0
  6  7  1  0  0  0  0
  6 27  1  0  0  0  0
  7  8  1  0  0  0  0
  7 19  1  0  0  0  0
  8  9  1  0  0  0  0
  8 28  1  0  0  0  0
  8 29  1  0  0  0  0
  9 10  1  0  0  0  0
  9 11  1  0  0  0  0
  9 30  1  0  0  0  0
 10 31  1  0  0  0  0
 11 12  1  0  0  0  0
 11 32  1  0  0  0  0
 11 33  1  0  0  0  0
 12 13  1  0  0  0  0
 13 17  1  0  0  0  0
 13 14  2  0  0  0  0
 14 15  1  0  0  0  0
 14 43  1  0  0  0  0
 15 16  2  0  0  0  0
 15 34  1  0  0  0  0
 16 17  1  0  0  0  0
 16 35  1  0  0  0  0
 17 18  1  0  0  0  0
 18 36  1  0  0  0  0
 18 37  1  0  0  0  0
 18 38  1  0  0  0  0
 19 20  1  0  0  0  0
 20 21  2  0  0  0  0
 20 39  1  0  0  0  0
 21 22  1  0  0  0  0
 22 40  1  0  0  0  0
 22 41  1  0  0  0  0
 22 42  1  0  0  0  0
M  CHG  1  14   1
M  END
> <s_m_source_file>
AV-unprocessed.smi

> <i_m_source_file_index>
609

> <i_lp_mmshare_version>
43012

> <i_f3d_flags>
0

> <s_epik_input>
W0NIM11jKFtjSF0xKWMoW0NIM10pW2NIXWMoYzEyKW4oW2NIXW4yKVtDSDJdW0NASF0oW09IXSlbQ0gyXVNjM25bY0hdW2NIXW4zW0NIM10=

> <s_epik_cmdline>
J2VwaWtfcHl0aG9uJywgJy1waCcsICc3LjAnLCAnLXRuJywgJzgnLCAnLW1hJywgJzIwMCcsICctbWV0YWxfYmluZGluZycsICctaW1hZScsICc8aW5maWxlLm1hZT4nLCAnLW9tYWUnLCAnPG91dGZpbGUubWFlPic=

> <r_lp_tautomer_probability>
1

> <r_epik_Ionization_Penalty>
0.215713

> <r_epik_Ionization_Penalty_Charging>
0

> <r_epik_Ionization_Penalty_Neutral>
0.215713

> <r_epik_State_Penalty>
0.19579

> <r_epik_Charging_Adjusted_Penalty>
0.19579

> <i_epik_Tot_Q>
1

> <i_epik_Tot_abs_Q>
1

> <r_epik_Metal_State_Penalty>
0.429751

> <b_epik_Metal_Only>
0

> <s_lp_Force_Field>
OPLS_2005

> <r_lp_Energy>
11.8688

> <b_lp_Chiralities_Consistent>
1

> <s_lp_Variant>
AV-unprocessed.smi:609-1

> <Gold.Version>
5.8.1

> <Gold.Id.Protein>
6NUR|6NUR_protein|mol2

> <Gold.PLP.Fitness>
53.0580

> <Gold.PLP.PLP>
-44.4468

> <Gold.PLP.part.hbond>
-4.0495

> <Gold.PLP.part.metal>
0.0000

> <Gold.PLP.part.buried>
-3.1215

> <Gold.PLP.part.nonpolar>
-37.2898

> <Gold.PLP.part.repulsive>
0.0252

> <Gold.PLP.ligand.clash>
0.0000

> <Gold.PLP.ligand.torsion>
1.7304

> <Gold.PLP.Chemscore.Hbond>
4.0000

> <Gold.PLP.Chemscore.CHOScore>
0.0000

> <Gold.PLP.Chemscore.Metal>
0.0000

> <Gold.Chemscore.Hbonds>
donor molecule, donor type, donor heavy atom, donor atom, acceptor molecule, acceptor atom, score
      L1  H    10    31       P1  7948  0.68
      L1  H    14    43       P1  7948  0.60
      P1  H  7997  8009       L1     5  0.49

> <Gold.PLP.Chemscore.Internal.Correction>
0.0720

> <Gold.Rescore>
     Score         DG    S(hbond)    S(metal)    S(lipo)     H(rot)  DE(clash)    DE(int)     intcor
     15.52     -17.22       1.86        0.00     102.19       2.52       0.07       1.63       ----

> <Gold.Chemscore.Fitness>
15.5230

> <Gold.Chemscore.DG>
-17.2213

> <Gold.Chemscore.ZeroCoef>
-5.4800

> <Gold.Chemscore.Hbond>
1.8634

> <Gold.Chemscore.Metal>
0.0000

> <Gold.Chemscore.Lipo>
102.1949

> <Gold.Chemscore.Internal_Hbond>
0.0000

> <Gold.Chemscore.DEClash>
0.0659

> <Gold.Chemscore.DEInternal>
1.6324

> <Gold.Chemscore.Rot>
2.5153

> <Gold.Chemscore.Internal.Correction>
   9.000000E+99

> <Gold.Chemscore.Hbonds>
donor molecule, donor type, donor heavy atom, donor atom, acceptor molecule, acceptor atom, score
      L1  H    10    31       P1  7948  0.26
      P1  H  7997  8009       L1     5  0.27

> <Gold.Chemscore.Hbond.Weighted>
-6.2237

> <Gold.Chemscore.Metal.Weighted>
-0.0000

> <Gold.Chemscore.Lipo.Weighted>
-11.9568

> <Gold.Chemscore.Internal_Hbond.Weighted>
0.0000

> <Gold.Chemscore.DEClash.Weighted>
0.0659

> <Gold.Chemscore.DEInternal.Weighted>
1.6324

> <Gold.Chemscore.Rot.Weighted>
6.4391

> <Gold.Chemscore.Internal.Correction.Weighted>
   9.000000E+99

> <Gold.Protein.RotatedTorsions>
[ 6907 6896 6895 6894 ] final  -88.73 input  -60.11 | X-H torsion
[ 7974 7965 7964 7962 ] final -133.57 input  175.53 | X-H torsion
[ 8008 7997 7996 7995 ] final  154.42 input   59.86 | X-H torsion
[ 10167 10162 10161 10158 ] final    2.94 input  -65.29 | X-H torsion
[ 10718 10713 10712 10709 ] final  -37.10 input   66.30 | X-H torsion
[ 10763 10752 10751 10750 ] final  -68.96 input  -60.55 | X-H torsion
[ 11005 11000 10999 10996 ] final   81.54 input  -57.11 | X-H torsion

> <Gold.Protein.ActiveResidues>
 VAL166  LYS551  ARG553  GLY616  TRP617  ASP618  TYR619  PRO620  LYS621  CYS622 
 ASP623  PHE694  ASN695  SER759  ASP760  ASP761  ALA762  ILE779  LEU786  VAL792 
 PHE793  MET794  SER795  GLU796  ALA797  LYS798  CYS799  TRP800  GLU811  SER814 

> <Gold.Protein.RotatedAtoms>
  150.6870  134.2697  159.4582 H   0  0  0  0  0  0  0  0  0  0  0  0  # atno 6907 bound_to 6896
  152.0620  134.9586  160.0584 H   0  0  0  0  0  0  0  0  0  0  0  0  # atno 6908 bound_to 6896
  152.1009  133.4214  159.4623 H   0  0  0  0  0  0  0  0  0  0  0  0  # atno 6909 bound_to 6896
  144.9181  140.6980  143.4982 H   0  0  0  0  0  0  0  0  0  0  0  0  # atno 7974 bound_to 7965
  156.2532  140.1967  156.6643 H   0  0  0  0  0  0  0  0  0  0  0  0  # atno 8008 bound_to 7997
  154.6441  140.0580  156.9905 H   0  0  0  0  0  0  0  0  0  0  0  0  # atno 8009 bound_to 7997
  155.1518  140.3252  155.4432 H   0  0  0  0  0  0  0  0  0  0  0  0  # atno 8010 bound_to 7997
  140.6610  143.7302  150.7740 H   0  0  0  0  0  0  0  0  0  0  0  0  # atno 10167 bound_to 10162
  156.3192  130.4263  149.7976 H   0  0  0  0  0  0  0  0  0  0  0  0  # atno 10718 bound_to 10713
  154.3966  135.6040  153.5873 H   0  0  0  0  0  0  0  0  0  0  0  0  # atno 10763 bound_to 10752
  152.9788  135.5896  154.4234 H   0  0  0  0  0  0  0  0  0  0  0  0  # atno 10764 bound_to 10752
  154.4026  135.2843  155.2065 H   0  0  0  0  0  0  0  0  0  0  0  0  # atno 10765 bound_to 10752
  139.9094  134.8004  156.2055 H   0  0  0  0  0  0  0  0  0  0  0  0  # atno 11005 bound_to 11000
  145.3342  139.1751  143.4521 LP  0  0  0  0  0  0  0  0  0  0  0  0  # atno 17320 bound_to 7965
  146.3191  140.3375  142.8645 LP  0  0  0  0  0  0  0  0  0  0  0  0  # atno 17321 bound_to 7965
  140.0971  143.4822  152.2446 LP  0  0  0  0  0  0  0  0  0  0  0  0  # atno 17342 bound_to 10162
  139.5845  144.7525  151.3556 LP  0  0  0  0  0  0  0  0  0  0  0  0  # atno 17343 bound_to 10162
  156.5291  130.8249  151.3230 LP  0  0  0  0  0  0  0  0  0  0  0  0  # atno 17370 bound_to 10713
  157.7408  130.9857  150.2402 LP  0  0  0  0  0  0  0  0  0  0  0  0  # atno 17371 bound_to 10713
  141.0498  133.6894  156.1751 LP  0  0  0  0  0  0  0  0  0  0  0  0  # atno 17394 bound_to 11000
  140.6828  134.4749  157.5589 LP  0  0  0  0  0  0  0  0  0  0  0  0  # atno 17395 bound_to 11000

$$$$
