AV-unprocessed.smi:2226|AV-procd|sdf|9008|dock5
  -GOLD-   2272012213D 1   1.00000     0.00000
 Structure written by MMmdl.
 41 43  0  0  0  0  0  0  0  0  3 V2000
  147.5767  142.3466  157.7020 C   0  0  0  0  0  0  0  0  0  0  0  0
  147.5402  142.2844  156.2211 N   0  3  2  0  0  0  0  0  0  0  0  0
  146.2166  142.5707  155.6181 C   0  0  1  0  0  0  0  0  0  0  0  0
  146.4035  142.8937  154.1180 C   0  0  0  0  0  0  0  0  0  0  0  0
  147.1860  141.8170  153.3428 C   0  0  0  0  0  0  0  0  0  0  0  0
  148.3968  141.2854  154.1339 C   0  0  0  0  0  0  0  0  0  0  0  0
  148.1097  141.0476  155.6349 C   0  0  2  0  0  0  0  0  0  0  0  0
  147.2282  139.8125  155.9498 C   0  0  0  0  0  0  0  0  0  0  0  0
  145.7057  139.9910  155.7252 C   0  0  2  0  0  0  0  0  0  0  0  0
  145.2748  139.3946  154.4612 N   0  0  0  0  0  0  0  0  0  0  0  0
  145.6039  138.1697  154.0215 C   0  0  0  0  0  0  0  0  0  0  0  0
  146.3079  137.3840  154.6562 O   0  0  0  0  0  0  0  0  0  0  0  0
  145.0718  137.9153  152.8162 N   0  0  0  0  0  0  0  0  0  0  0  0
  145.2186  136.7119  152.0885 C   0  0  0  0  0  0  0  0  0  0  0  0
  144.6915  136.5003  150.8837 N   0  3  0  0  0  0  0  0  0  0  0  0
  145.0234  135.2327  150.4740 C   0  0  0  0  0  0  0  0  0  0  0  0
  145.7748  134.6961  151.4920 C   0  0  0  0  0  0  0  0  0  0  0  0
  145.9066  135.6145  152.5142 O   0  0  0  0  0  0  0  0  0  0  0  0
  145.1969  141.4451  155.9241 C   0  0  0  0  0  0  0  0  0  0  0  0
  146.9518  141.5828  158.1642 H   0  0  0  0  0  0  0  0  0  0  0  0
  147.2309  143.3203  158.0493 H   0  0  0  0  0  0  0  0  0  0  0  0
  148.5966  142.2120  158.0628 H   0  0  0  0  0  0  0  0  0  0  0  0
  145.8347  143.4830  156.0788 H   0  0  0  0  0  0  0  0  0  0  0  0
  145.4383  143.0709  153.6421 H   0  0  0  0  0  0  0  0  0  0  0  0
  146.9509  143.8341  154.0387 H   0  0  0  0  0  0  0  0  0  0  0  0
  146.5280  141.0014  153.0638 H   0  0  0  0  0  0  0  0  0  0  0  0
  147.5262  142.2294  152.3923 H   0  0  0  0  0  0  0  0  0  0  0  0
  148.7789  140.3764  153.6685 H   0  0  0  0  0  0  0  0  0  0  0  0
  149.2004  142.0189  154.0548 H   0  0  0  0  0  0  0  0  0  0  0  0
  149.0795  140.8764  156.1044 H   0  0  0  0  0  0  0  0  0  0  0  0
  147.5991  138.9376  155.4140 H   0  0  0  0  0  0  0  0  0  0  0  0
  147.3750  139.5686  157.0028 H   0  0  0  0  0  0  0  0  0  0  0  0
  145.2215  139.3829  156.4923 H   0  0  0  0  0  0  0  0  0  0  0  0
  144.6934  139.9697  153.8688 H   0  0  0  0  0  0  0  0  0  0  0  0
  144.1348  137.1383  150.3289 H   0  0  0  0  0  0  0  0  0  0  0  0
  144.6984  134.8460  149.5188 H   0  0  0  0  0  0  0  0  0  0  0  0
  146.2583  133.7413  151.6398 H   0  0  0  0  0  0  0  0  0  0  0  0
  144.9089  141.5442  156.9712 H   0  0  0  0  0  0  0  0  0  0  0  0
  144.2724  141.6208  155.3729 H   0  0  0  0  0  0  0  0  0  0  0  0
  148.1460  143.0342  155.9184 H   0  0  0  0  0  0  0  0  0  0  0  0
  144.5145  138.6377  152.3849 H   0  0  0  0  0  0  0  0  0  0  0  0
  1  2  1  0  0  0  0
  1 20  1  0  0  0  0
  1 21  1  0  0  0  0
  1 22  1  0  0  0  0
  2  7  1  0  0  0  0
  2  3  1  0  0  0  0
  2 40  1  0  0  0  0
  3 19  1  0  0  0  0
  3  4  1  0  0  0  0
  3 23  1  0  0  0  0
  4  5  1  0  0  0  0
  4 24  1  0  0  0  0
  4 25  1  0  0  0  0
  5  6  1  0  0  0  0
  5 26  1  0  0  0  0
  5 27  1  0  0  0  0
  6  7  1  0  0  0  0
  6 28  1  0  0  0  0
  6 29  1  0  0  0  0
  7  8  1  0  0  0  0
  7 30  1  0  0  0  0
  8  9  1  0  0  0  0
  8 31  1  0  0  0  0
  8 32  1  0  0  0  0
  9 10  1  0  0  0  0
  9 19  1  0  0  0  0
  9 33  1  0  0  0  0
 10 34  1  0  0  0  0
 10 11  1  0  0  0  0
 11 13  1  0  0  0  0
 11 12  2  0  0  0  0
 13 14  1  0  0  0  0
 13 41  1  0  0  0  0
 14 18  1  0  0  0  0
 14 15  2  0  0  0  0
 15 35  1  0  0  0  0
 15 16  1  0  0  0  0
 16 36  1  0  0  0  0
 16 17  2  0  0  0  0
 17 37  1  0  0  0  0
 17 18  1  0  0  0  0
 19 38  1  0  0  0  0
 19 39  1  0  0  0  0
M  CHG  1   2   1
M  CHG  1  15   1
M  END
> <s_m_source_file>
AV-unprocessed.smi

> <i_m_source_file_index>
2226

> <i_lp_mmshare_version>
43012

> <i_f3d_flags>
0

> <s_epik_input>
W0NIMl0xW0NIMl1bQ0gyXVtDQEhdKE4oW0NIM10pW0NIXTEyKVtDSDJdW0NASF0oW0NIMl0yKVtOSF1DKD1PKVtOSF1jM25bY0hdW2NIXW8z

> <s_epik_cmdline>
J2VwaWtfcHl0aG9uJywgJy1waCcsICc3LjAnLCAnLXRuJywgJzgnLCAnLW1hJywgJzIwMCcsICctbWV0YWxfYmluZGluZycsICctaW1hZScsICc8aW5maWxlLm1hZT4nLCAnLW9tYWUnLCAnPG91dGZpbGUubWFlPic=

> <r_epik_Ionization_Penalty>
6.92532

> <r_epik_Ionization_Penalty_Charging>
6.82059

> <r_epik_Ionization_Penalty_Neutral>
0.104727

> <r_epik_State_Penalty>
2.17671

> <r_epik_Charging_Adjusted_Penalty>
8.99731

> <i_epik_Tot_Q>
2

> <i_epik_Tot_abs_Q>
2

> <r_epik_Metal_State_Penalty>
2.20618

> <b_epik_Metal_Only>
0

> <s_lp_Force_Field>
OPLS_2005

> <r_lp_Energy>
48.5107

> <b_lp_Chiralities_Consistent>
1

> <s_lp_Variant>
AV-unprocessed.smi:2226-8

> <Gold.Version>
5.8.1

> <Gold.Id.Protein>
6NUR|6NUR_protein|mol2

> <Gold.PLP.Fitness>
40.9236

> <Gold.PLP.PLP>
-26.0164

> <Gold.PLP.part.hbond>
-3.9481

> <Gold.PLP.part.metal>
0.0000

> <Gold.PLP.part.buried>
-4.7711

> <Gold.PLP.part.nonpolar>
-17.6463

> <Gold.PLP.part.repulsive>
0.2603

> <Gold.PLP.ligand.clash>
0.0000

> <Gold.PLP.ligand.torsion>
0.0751

> <Gold.PLP.Chemscore.Hbond>
5.0000

> <Gold.PLP.Chemscore.CHOScore>
0.0000

> <Gold.PLP.Chemscore.Metal>
0.0000

> <Gold.Chemscore.Hbonds>
donor molecule, donor type, donor heavy atom, donor atom, acceptor molecule, acceptor atom, score
      L1  H     2    40       P1  8028  2.00
      L1  H    10    34       P1 10175  1.00
      L1  H    13    41       P1 10175  1.00
      L1  H    15    35       P1 10171  1.00

> <Gold.PLP.Chemscore.Internal.Correction>
0.0575

> <Gold.Rescore>
     Score         DG    S(hbond)    S(metal)    S(lipo)     H(rot)  DE(clash)    DE(int)     intcor
     17.76     -20.52       3.72        0.00      44.34       1.00       1.33       1.44       ----

> <Gold.Chemscore.Fitness>
17.7563

> <Gold.Chemscore.DG>
-20.5200

> <Gold.Chemscore.ZeroCoef>
-5.4800

> <Gold.Chemscore.Hbond>
3.7162

> <Gold.Chemscore.Metal>
0.0000

> <Gold.Chemscore.Lipo>
44.3422

> <Gold.Chemscore.Internal_Hbond>
0.0000

> <Gold.Chemscore.DEClash>
1.3274

> <Gold.Chemscore.DEInternal>
1.4363

> <Gold.Chemscore.Rot>
1.0000

> <Gold.Chemscore.Internal.Correction>
   9.000000E+99

> <Gold.Chemscore.Hbonds>
donor molecule, donor type, donor heavy atom, donor atom, acceptor molecule, acceptor atom, score
      L1  H     2    40       P1  8028  0.78
      L1  H    10    34       P1 10175  1.00
      L1  H    13    41       P1 10175  0.92
      L1  H    15    35       P1 10171  0.91

> <Gold.Chemscore.Hbond.Weighted>
-12.4120

> <Gold.Chemscore.Metal.Weighted>
-0.0000

> <Gold.Chemscore.Lipo.Weighted>
-5.1880

> <Gold.Chemscore.Internal_Hbond.Weighted>
0.0000

> <Gold.Chemscore.DEClash.Weighted>
1.3274

> <Gold.Chemscore.DEInternal.Weighted>
1.4363

> <Gold.Chemscore.Rot.Weighted>
2.5600

> <Gold.Chemscore.Internal.Correction.Weighted>
   9.000000E+99

> <Gold.Protein.RotatedTorsions>
[ 6907 6896 6895 6894 ] final  -91.48 input  -60.11 | X-H torsion
[ 7974 7965 7964 7962 ] final  162.51 input  175.53 | X-H torsion
[ 8008 7997 7996 7995 ] final  -17.15 input   59.86 | X-H torsion
[ 10167 10162 10161 10158 ] final -145.59 input  -65.29 | X-H torsion
[ 10718 10713 10712 10709 ] final    6.72 input   66.30 | X-H torsion
[ 10763 10752 10751 10750 ] final -167.52 input  -60.55 | X-H torsion
[ 11005 11000 10999 10996 ] final -168.28 input  -57.11 | X-H torsion

> <Gold.Protein.ActiveResidues>
 VAL166  LYS551  ARG553  GLY616  TRP617  ASP618  TYR619  PRO620  LYS621  CYS622 
 ASP623  PHE694  ASN695  SER759  ASP760  ASP761  ALA762  ILE779  LEU786  VAL792 
 PHE793  MET794  SER795  GLU796  ALA797  LYS798  CYS799  TRP800  GLU811  SER814 

> <Gold.Protein.RotatedAtoms>
  150.6893  134.2271  159.4419 H   0  0  0  0  0  0  0  0  0  0  0  0  # atno 6907 bound_to 6896
  152.0224  134.9813  160.0580 H   0  0  0  0  0  0  0  0  0  0  0  0  # atno 6908 bound_to 6896
  152.1384  133.4414  159.4792 H   0  0  0  0  0  0  0  0  0  0  0  0  # atno 6909 bound_to 6896
  144.7633  139.8050  143.6324 H   0  0  0  0  0  0  0  0  0  0  0  0  # atno 7974 bound_to 7965
  154.5000  140.2150  155.9367 H   0  0  0  0  0  0  0  0  0  0  0  0  # atno 8008 bound_to 7997
  156.1421  140.3177  155.8479 H   0  0  0  0  0  0  0  0  0  0  0  0  # atno 8009 bound_to 7997
  155.4100  140.0490  157.3023 H   0  0  0  0  0  0  0  0  0  0  0  0  # atno 8010 bound_to 7997
  139.7791  143.8126  152.2636 H   0  0  0  0  0  0  0  0  0  0  0  0  # atno 10167 bound_to 10162
  156.9263  130.5809  149.5648 H   0  0  0  0  0  0  0  0  0  0  0  0  # atno 10718 bound_to 10713
  154.6723  135.2941  154.9725 H   0  0  0  0  0  0  0  0  0  0  0  0  # atno 10763 bound_to 10752
  154.0748  135.6613  153.4833 H   0  0  0  0  0  0  0  0  0  0  0  0  # atno 10764 bound_to 10752
  153.0494  135.5183  154.7725 H   0  0  0  0  0  0  0  0  0  0  0  0  # atno 10765 bound_to 10752
  140.5437  134.5497  157.5106 H   0  0  0  0  0  0  0  0  0  0  0  0  # atno 11005 bound_to 11000
  146.1718  139.4871  142.9923 LP  0  0  0  0  0  0  0  0  0  0  0  0  # atno 17320 bound_to 7965
  145.6549  141.0254  143.1740 LP  0  0  0  0  0  0  0  0  0  0  0  0  # atno 17321 bound_to 7965
  139.8184  144.7306  150.9605 LP  0  0  0  0  0  0  0  0  0  0  0  0  # atno 17342 bound_to 10162
  140.7817  143.4183  151.0882 LP  0  0  0  0  0  0  0  0  0  0  0  0  # atno 17343 bound_to 10162
  156.0467  130.5543  150.8898 LP  0  0  0  0  0  0  0  0  0  0  0  0  # atno 17370 bound_to 10713
  157.5875  131.0945  150.9172 LP  0  0  0  0  0  0  0  0  0  0  0  0  # atno 17371 bound_to 10713
  139.9490  134.7650  156.0492 LP  0  0  0  0  0  0  0  0  0  0  0  0  # atno 17394 bound_to 11000
  141.1212  133.6612  156.3220 LP  0  0  0  0  0  0  0  0  0  0  0  0  # atno 17395 bound_to 11000

$$$$
