AV-unprocessed.smi:1002|AV-procd|sdf|4359|dock5
  -GOLD-   22720 2263D 1   1.00000     0.00000
 Structure written by MMmdl.
 36 37  0  0  0  0  0  0  0  0  2 V2000
  152.2520  141.2807  157.7343 O   0  0  0  0  0  0  0  0  0  0  0  0
  151.4792  142.2282  157.8777 C   0  0  0  0  0  0  0  0  0  0  0  0
  151.9526  143.5008  158.5811 C   0  0  0  0  0  0  0  0  0  0  0  0
  152.4474  143.1806  159.9806 C   0  0  0  0  0  0  0  0  0  0  0  0
  153.3074  142.0860  160.2085 C   0  0  0  0  0  0  0  0  0  0  0  0
  153.7382  141.8319  161.5260 C   0  0  0  0  0  0  0  0  0  0  0  0
  153.3688  142.5835  162.5855 N   0  0  0  0  0  0  0  0  0  0  0  0
  152.5438  143.6287  162.3608 C   0  0  0  0  0  0  0  0  0  0  0  0
  152.0546  143.9682  161.0834 C   0  0  0  0  0  0  0  0  0  0  0  0
  150.2089  142.2227  157.4443 N   0  0  0  0  0  0  0  0  0  0  0  0
  149.5579  141.1222  156.7411 C   0  0  2  0  0  0  0  0  0  0  0  0
  149.9685  139.7869  157.3901 C   0  0  0  0  0  0  0  0  0  0  0  0
  149.3713  138.5842  156.6347 C   0  0  0  0  0  0  0  0  0  0  0  0
  149.7416  138.5871  155.1307 C   0  0  2  0  0  0  0  0  0  0  0  0
  151.2301  138.2497  154.8772 C   0  0  0  0  0  0  0  0  0  0  0  0
  152.0153  139.2018  154.6720 O   0  0  0  0  0  0  0  0  0  0  0  0
  151.5644  137.0439  154.8614 O   0  5  0  0  0  0  0  0  0  0  0  0
  149.3230  139.9369  154.4978 C   0  0  0  0  0  0  0  0  0  0  0  0
  149.9222  141.1450  155.2418 C   0  0  0  0  0  0  0  0  0  0  0  0
  152.7484  143.9755  158.0050 H   0  0  0  0  0  0  0  0  0  0  0  0
  151.1320  144.2177  158.6326 H   0  0  0  0  0  0  0  0  0  0  0  0
  153.6332  141.4559  159.3938 H   0  0  0  0  0  0  0  0  0  0  0  0
  154.3972  141.0019  161.7339 H   0  0  0  0  0  0  0  0  0  0  0  0
  152.2644  144.2126  163.2253 H   0  0  0  0  0  0  0  0  0  0  0  0
  151.3975  144.8159  160.9554 H   0  0  0  0  0  0  0  0  0  0  0  0
  149.6487  143.0464  157.6099 H   0  0  0  0  0  0  0  0  0  0  0  0
  148.4757  141.2266  156.8416 H   0  0  0  0  0  0  0  0  0  0  0  0
  151.0559  139.7043  157.4130 H   0  0  0  0  0  0  0  0  0  0  0  0
  149.6403  139.7626  158.4300 H   0  0  0  0  0  0  0  0  0  0  0  0
  149.6775  137.6529  157.1126 H   0  0  0  0  0  0  0  0  0  0  0  0
  148.2853  138.6131  156.7295 H   0  0  0  0  0  0  0  0  0  0  0  0
  149.1744  137.7941  154.6421 H   0  0  0  0  0  0  0  0  0  0  0  0
  149.5940  139.9782  153.4424 H   0  0  0  0  0  0  0  0  0  0  0  0
  148.2353  140.0132  154.5192 H   0  0  0  0  0  0  0  0  0  0  0  0
  149.5620  142.0664  154.7827 H   0  0  0  0  0  0  0  0  0  0  0  0
  151.0066  141.1503  155.1233 H   0  0  0  0  0  0  0  0  0  0  0  0
  1  2  2  0  0  0  0
  2  3  1  0  0  0  0
  2 10  1  0  0  0  0
  3  4  1  0  0  0  0
  3 20  1  0  0  0  0
  3 21  1  0  0  0  0
  4  9  1  0  0  0  0
  4  5  2  0  0  0  0
  5  6  1  0  0  0  0
  5 22  1  0  0  0  0
  6  7  2  0  0  0  0
  6 23  1  0  0  0  0
  7  8  1  0  0  0  0
  8  9  2  0  0  0  0
  8 24  1  0  0  0  0
  9 25  1  0  0  0  0
 10 11  1  0  0  0  0
 10 26  1  0  0  0  0
 11 19  1  0  0  0  0
 11 12  1  0  0  0  0
 11 27  1  0  0  0  0
 12 13  1  0  0  0  0
 12 28  1  0  0  0  0
 12 29  1  0  0  0  0
 13 14  1  0  0  0  0
 13 30  1  0  0  0  0
 13 31  1  0  0  0  0
 14 15  1  0  0  0  0
 14 18  1  0  0  0  0
 14 32  1  0  0  0  0
 15 16  2  0  0  0  0
 15 17  1  0  0  0  0
 18 19  1  0  0  0  0
 18 33  1  0  0  0  0
 18 34  1  0  0  0  0
 19 35  1  0  0  0  0
 19 36  1  0  0  0  0
M  CHG  1  17  -1
M  END
> <s_m_source_file>
AV-unprocessed.smi

> <i_m_source_file_index>
1002

> <i_lp_mmshare_version>
43012

> <i_f3d_flags>
0

> <s_epik_input>
Tz1DKFtPSF0pW0NAQEhdKFtDSDJdW0NIMl0xKVtDSDJdW0NIMl1bQ0BIXTFbTkhdQyg9TylbQ0gyXWMyW2NIXVtjSF1uW2NIXVtjSF0y

> <s_epik_cmdline>
J2VwaWtfcHl0aG9uJywgJy1waCcsICc3LjAnLCAnLXRuJywgJzgnLCAnLW1hJywgJzIwMCcsICctbWV0YWxfYmluZGluZycsICctaW1hZScsICc8aW5maWxlLm1hZT4nLCAnLW9tYWUnLCAnPG91dGZpbGUubWFlPic=

> <r_lp_tautomer_probability>
1

> <r_epik_Ionization_Penalty>
0.0065671

> <r_epik_Ionization_Penalty_Charging>
0.00222897

> <r_epik_Ionization_Penalty_Neutral>
0.00433813

> <r_epik_State_Penalty>
-0

> <r_epik_Charging_Adjusted_Penalty>
0.00222897

> <i_epik_Tot_Q>
-1

> <i_epik_Tot_abs_Q>
1

> <r_epik_Metal_State_Penalty>
-0

> <b_epik_Metal_Only>
0

> <s_lp_Force_Field>
OPLS_2005

> <r_lp_Energy>
6.9224

> <b_lp_Chiralities_Consistent>
1

> <s_lp_Variant>
AV-unprocessed.smi:1002-2

> <Gold.Version>
5.8.1

> <Gold.Id.Protein>
6NUR|6NUR_protein|mol2

> <Gold.PLP.Fitness>
45.2793

> <Gold.PLP.PLP>
-38.7544

> <Gold.PLP.part.hbond>
-2.0467

> <Gold.PLP.part.metal>
0.0000

> <Gold.PLP.part.buried>
-2.3127

> <Gold.PLP.part.nonpolar>
-34.2554

> <Gold.PLP.part.repulsive>
0.2934

> <Gold.PLP.ligand.clash>
0.0000

> <Gold.PLP.ligand.torsion>
1.1222

> <Gold.PLP.Chemscore.Hbond>
2.9120

> <Gold.PLP.Chemscore.CHOScore>
0.0000

> <Gold.PLP.Chemscore.Metal>
0.0000

> <Gold.Chemscore.Hbonds>
donor molecule, donor type, donor heavy atom, donor atom, acceptor molecule, acceptor atom, score
      P1  H  7989  7998       L1    16  0.84
      P1  H 10752 10764       L1    17  2.00

> <Gold.PLP.Chemscore.Internal.Correction>
0.0334

> <Gold.Rescore>
     Score         DG    S(hbond)    S(metal)    S(lipo)     H(rot)  DE(clash)    DE(int)     intcor
     12.71     -18.37       1.80        0.00     100.09       1.88       0.77       4.89       ----

> <Gold.Chemscore.Fitness>
12.7090

> <Gold.Chemscore.DG>
-18.3734

> <Gold.Chemscore.ZeroCoef>
-5.4800

> <Gold.Chemscore.Hbond>
1.7971

> <Gold.Chemscore.Metal>
0.0000

> <Gold.Chemscore.Lipo>
100.0945

> <Gold.Chemscore.Internal_Hbond>
0.0000

> <Gold.Chemscore.DEClash>
0.7724

> <Gold.Chemscore.DEInternal>
4.8920

> <Gold.Chemscore.Rot>
1.8828

> <Gold.Chemscore.Internal.Correction>
   9.000000E+99

> <Gold.Chemscore.Hbonds>
donor molecule, donor type, donor heavy atom, donor atom, acceptor molecule, acceptor atom, score
      P1  H  7989  7998       L1    16  0.78
      P1  H 10752 10764       L1    17  0.93

> <Gold.Chemscore.Hbond.Weighted>
-6.0022

> <Gold.Chemscore.Metal.Weighted>
-0.0000

> <Gold.Chemscore.Lipo.Weighted>
-11.7111

> <Gold.Chemscore.Internal_Hbond.Weighted>
0.0000

> <Gold.Chemscore.DEClash.Weighted>
0.7724

> <Gold.Chemscore.DEInternal.Weighted>
4.8920

> <Gold.Chemscore.Rot.Weighted>
4.8199

> <Gold.Chemscore.Internal.Correction.Weighted>
   9.000000E+99

> <Gold.Protein.RotatedTorsions>
[ 6907 6896 6895 6894 ] final -171.14 input  -60.11 | X-H torsion
[ 7974 7965 7964 7962 ] final  120.37 input  175.53 | X-H torsion
[ 8008 7997 7996 7995 ] final  -43.54 input   59.86 | X-H torsion
[ 10167 10162 10161 10158 ] final    8.85 input  -65.29 | X-H torsion
[ 10718 10713 10712 10709 ] final  149.41 input   66.30 | X-H torsion
[ 10763 10752 10751 10750 ] final  -75.90 input  -60.55 | X-H torsion
[ 11005 11000 10999 10996 ] final  -37.62 input  -57.11 | X-H torsion

> <Gold.Protein.ActiveResidues>
 VAL166  LYS551  ARG553  GLY616  TRP617  ASP618  TYR619  PRO620  LYS621  CYS622 
 ASP623  PHE694  ASN695  SER759  ASP760  ASP761  ALA762  ILE779  LEU786  VAL792 
 PHE793  MET794  SER795  GLU796  ALA797  LYS798  CYS799  TRP800  GLU811  SER814 

> <Gold.Protein.RotatedAtoms>
  151.5191  133.3470  159.2897 H   0  0  0  0  0  0  0  0  0  0  0  0  # atno 6907 bound_to 6896
  150.8664  134.8030  159.7133 H   0  0  0  0  0  0  0  0  0  0  0  0  # atno 6908 bound_to 6896
  152.4667  134.5068  159.9793 H   0  0  0  0  0  0  0  0  0  0  0  0  # atno 6909 bound_to 6896
  145.1320  139.3321  143.4660 H   0  0  0  0  0  0  0  0  0  0  0  0  # atno 7974 bound_to 7965
  154.3997  140.1445  156.3535 H   0  0  0  0  0  0  0  0  0  0  0  0  # atno 8008 bound_to 7997
  155.8247  140.3468  155.5514 H   0  0  0  0  0  0  0  0  0  0  0  0  # atno 8009 bound_to 7997
  155.8251  140.0904  157.1816 H   0  0  0  0  0  0  0  0  0  0  0  0  # atno 8010 bound_to 7997
  140.6290  143.8037  150.7270 H   0  0  0  0  0  0  0  0  0  0  0  0  # atno 10167 bound_to 10162
  157.2964  131.0863  151.1423 H   0  0  0  0  0  0  0  0  0  0  0  0  # atno 10718 bound_to 10713
  154.4927  135.5816  153.6471 H   0  0  0  0  0  0  0  0  0  0  0  0  # atno 10763 bound_to 10752
  152.9865  135.6116  154.3104 H   0  0  0  0  0  0  0  0  0  0  0  0  # atno 10764 bound_to 10752
  154.3005  135.2847  155.2592 H   0  0  0  0  0  0  0  0  0  0  0  0  # atno 10765 bound_to 10752
  140.9965  133.6977  156.1945 H   0  0  0  0  0  0  0  0  0  0  0  0  # atno 11005 bound_to 11000
  146.3513  140.1323  142.8597 LP  0  0  0  0  0  0  0  0  0  0  0  0  # atno 17320 bound_to 7965
  145.0625  140.9098  143.4930 LP  0  0  0  0  0  0  0  0  0  0  0  0  # atno 17321 bound_to 7965
  140.1644  143.4248  152.2044 LP  0  0  0  0  0  0  0  0  0  0  0  0  # atno 17342 bound_to 10162
  139.5506  144.7334  151.4447 LP  0  0  0  0  0  0  0  0  0  0  0  0  # atno 17343 bound_to 10162
  157.2799  130.6745  149.6061 LP  0  0  0  0  0  0  0  0  0  0  0  0  # atno 17370 bound_to 10713
  155.9669  130.4453  150.5495 LP  0  0  0  0  0  0  0  0  0  0  0  0  # atno 17371 bound_to 10713
  140.6957  134.4618  157.5587 LP  0  0  0  0  0  0  0  0  0  0  0  0  # atno 17394 bound_to 11000
  139.9017  134.8540  156.1867 LP  0  0  0  0  0  0  0  0  0  0  0  0  # atno 17395 bound_to 11000

$$$$
