AV-unprocessed.smi:2182|AV-procd|sdf|8863|dock6
  -GOLD-   2272012 53D 1   1.00000     0.00000
 Structure written by MMmdl.
 41 43  0  0  0  0  0  0  0  0  1 V2000
  146.7708  142.2676  154.2496 N   0  0  0  0  0  0  0  0  0  0  0  0
  147.7501  141.7651  154.6076 C   0  0  0  0  0  0  0  0  0  0  0  0
  148.9729  141.1684  155.0332 C   0  0  0  0  0  0  0  0  0  0  0  0
  149.7323  141.7190  156.0027 C   0  0  0  0  0  0  0  0  0  0  0  0
  150.9127  141.1528  156.4318 N   0  0  0  0  0  0  0  0  0  0  0  0
  151.7832  141.8387  157.3449 C   0  0  0  0  0  0  0  0  0  0  0  0
  152.2546  141.1566  158.6147 C   0  0  0  0  0  0  0  0  0  0  0  0
  151.2415  142.2729  158.6891 C   0  0  0  0  0  0  0  0  0  0  0  0
  151.4129  139.9930  155.8013 C   0  0  0  0  0  0  0  0  0  0  0  0
  152.5142  139.5259  156.1039 O   0  0  0  0  0  0  0  0  0  0  0  0
  150.6176  139.3882  154.7973 N   0  0  0  0  0  0  0  0  0  0  0  0
  151.1330  138.1689  154.1375 C   0  0  0  0  0  0  0  0  0  0  0  0
  151.0464  136.9274  155.0368 C   0  0  0  0  0  0  0  0  0  0  0  0
  151.6276  136.8969  156.1224 O   0  0  0  0  0  0  0  0  0  0  0  0
  150.3126  135.9083  154.5649 N   0  0  0  0  0  0  0  0  0  0  0  0
  150.0461  134.6599  155.2716 C   0  0  0  0  0  0  0  0  0  0  0  0
  149.6550  133.5314  154.3012 C   0  0  2  0  0  0  0  0  0  0  0  0
  148.2406  133.6196  153.7298 C   0  0  0  0  0  0  0  0  0  0  0  0
  147.9524  132.1878  153.3165 C   0  0  0  0  0  0  0  0  0  0  0  0
  148.9173  131.3553  154.1681 C   0  0  0  0  0  0  0  0  0  0  0  0
  149.6266  132.2857  154.9784 O   0  0  0  0  0  0  0  0  0  0  0  0
  149.3800  139.9327  154.3682 C   0  0  0  0  0  0  0  0  0  0  0  0
  148.7184  139.3886  153.4826 O   0  0  0  0  0  0  0  0  0  0  0  0
  149.4022  142.6379  156.4660 H   0  0  0  0  0  0  0  0  0  0  0  0
  152.4966  142.5180  156.8814 H   0  0  0  0  0  0  0  0  0  0  0  0
  151.8986  140.1492  158.8222 H   0  0  0  0  0  0  0  0  0  0  0  0
  153.2663  141.3716  158.9525 H   0  0  0  0  0  0  0  0  0  0  0  0
  151.5781  143.2313  159.0792 H   0  0  0  0  0  0  0  0  0  0  0  0
  150.2187  142.0003  158.9427 H   0  0  0  0  0  0  0  0  0  0  0  0
  150.5880  137.9867  153.2094 H   0  0  0  0  0  0  0  0  0  0  0  0
  152.1696  138.2842  153.8184 H   0  0  0  0  0  0  0  0  0  0  0  0
  149.8792  136.0183  153.6596 H   0  0  0  0  0  0  0  0  0  0  0  0
  150.9551  134.3797  155.8043 H   0  0  0  0  0  0  0  0  0  0  0  0
  149.2767  134.7968  156.0336 H   0  0  0  0  0  0  0  0  0  0  0  0
  150.3805  133.4662  153.4876 H   0  0  0  0  0  0  0  0  0  0  0  0
  147.5392  133.9242  154.5077 H   0  0  0  0  0  0  0  0  0  0  0  0
  148.1578  134.3254  152.9026 H   0  0  0  0  0  0  0  0  0  0  0  0
  146.9094  131.9206  153.4898 H   0  0  0  0  0  0  0  0  0  0  0  0
  148.1649  132.0425  152.2566 H   0  0  0  0  0  0  0  0  0  0  0  0
  148.3969  130.6283  154.7923 H   0  0  0  0  0  0  0  0  0  0  0  0
  149.6208  130.8149  153.5331 H   0  0  0  0  0  0  0  0  0  0  0  0
  1  2  3  0  0  0  0
  2  3  1  0  0  0  0
  3 22  1  0  0  0  0
  3  4  2  0  0  0  0
  4  5  1  0  0  0  0
  4 24  1  0  0  0  0
  5  6  1  0  0  0  0
  5  9  1  0  0  0  0
  6  8  1  0  0  0  0
  6  7  1  0  0  0  0
  6 25  1  0  0  0  0
  7  8  1  0  0  0  0
  7 26  1  0  0  0  0
  7 27  1  0  0  0  0
  8 28  1  0  0  0  0
  8 29  1  0  0  0  0
  9 10  2  0  0  0  0
  9 11  1  0  0  0  0
 11 12  1  0  0  0  0
 11 22  1  0  0  0  0
 12 13  1  0  0  0  0
 12 30  1  0  0  0  0
 12 31  1  0  0  0  0
 13 14  2  0  0  0  0
 13 15  1  0  0  0  0
 15 16  1  0  0  0  0
 15 32  1  0  0  0  0
 16 17  1  0  0  0  0
 16 33  1  0  0  0  0
 16 34  1  0  0  0  0
 17 21  1  0  0  0  0
 17 18  1  0  0  0  0
 17 35  1  0  0  0  0
 18 19  1  0  0  0  0
 18 36  1  0  0  0  0
 18 37  1  0  0  0  0
 19 20  1  0  0  0  0
 19 38  1  0  0  0  0
 19 39  1  0  0  0  0
 20 21  1  0  0  0  0
 20 40  1  0  0  0  0
 20 41  1  0  0  0  0
 22 23  2  0  0  0  0
M  END
> <s_m_source_file>
AV-unprocessed.smi

> <i_m_source_file_index>
2182

> <i_lp_mmshare_version>
43012

> <i_f3d_flags>
0

> <s_epik_input>
TiNDYzFbY0hdbihbQ0hdMltDSDJdW0NIMl0yKWMoPU8pbihjMT1PKVtDSDJdQyg9TylbTkhdW0NIMl1bQ0BASF0zW0NIMl1bQ0gyXVtDSDJdTzM=

> <s_epik_cmdline>
J2VwaWtfcHl0aG9uJywgJy1waCcsICc3LjAnLCAnLXRuJywgJzgnLCAnLW1hJywgJzIwMCcsICctbWV0YWxfYmluZGluZycsICctaW1hZScsICc8aW5maWxlLm1hZT4nLCAnLW9tYWUnLCAnPG91dGZpbGUubWFlPic=

> <r_lp_tautomer_probability>
1

> <r_epik_Ionization_Penalty>
2.69429e-08

> <r_epik_Ionization_Penalty_Charging>
8.38654e-11

> <r_epik_Ionization_Penalty_Neutral>
2.6859e-08

> <r_epik_State_Penalty>
-0

> <r_epik_Charging_Adjusted_Penalty>
8.38654e-11

> <i_epik_Tot_Q>
0

> <i_epik_Tot_abs_Q>
0

> <r_epik_Metal_State_Penalty>
-0

> <b_epik_Metal_Only>
0

> <s_lp_Force_Field>
OPLS_2005

> <r_lp_Energy>
43.5175

> <b_lp_Chiralities_Consistent>
1

> <s_lp_Variant>
AV-unprocessed.smi:2182-1

> <Gold.Version>
5.8.1

> <Gold.Id.Protein>
6NUR|6NUR_protein|mol2

> <Gold.PLP.Fitness>
48.4139

> <Gold.PLP.PLP>
-40.1261

> <Gold.PLP.part.hbond>
-3.0854

> <Gold.PLP.part.metal>
0.0000

> <Gold.PLP.part.buried>
-5.8435

> <Gold.PLP.part.nonpolar>
-34.3265

> <Gold.PLP.part.repulsive>
3.1686

> <Gold.PLP.ligand.clash>
0.0000

> <Gold.PLP.ligand.torsion>
0.5012

> <Gold.PLP.Chemscore.Hbond>
2.0560

> <Gold.PLP.Chemscore.CHOScore>
0.9651

> <Gold.PLP.Chemscore.Metal>
0.0000

> <Gold.Chemscore.Hbonds>
donor molecule, donor type, donor heavy atom, donor atom, acceptor molecule, acceptor atom, score
      L1  H    15    32       P1  7948  0.80
      P1  H  7997  8010       L1    10  1.00
      P1  H 10752 10764       L1    14  0.03
      L1  C     4    24       P1  8028  1.00

> <Gold.PLP.Chemscore.Internal.Correction>
0.2271

> <Gold.Rescore>
     Score         DG    S(hbond)    S(metal)    S(lipo)     H(rot)  DE(clash)    DE(int)     intcor
     10.81     -13.07       1.37        0.00      71.34       2.08       0.31       1.95       ----

> <Gold.Chemscore.Fitness>
10.8106

> <Gold.Chemscore.DG>
-13.0746

> <Gold.Chemscore.ZeroCoef>
-5.4800

> <Gold.Chemscore.Hbond>
1.3673

> <Gold.Chemscore.Metal>
0.0000

> <Gold.Chemscore.Lipo>
71.3407

> <Gold.Chemscore.Internal_Hbond>
0.0000

> <Gold.Chemscore.DEClash>
0.3121

> <Gold.Chemscore.DEInternal>
1.9519

> <Gold.Chemscore.Rot>
2.0778

> <Gold.Chemscore.Internal.Correction>
   9.000000E+99

> <Gold.Chemscore.Hbonds>
donor molecule, donor type, donor heavy atom, donor atom, acceptor molecule, acceptor atom, score
      L1  H    15    32       P1  7948  0.11
      P1  H  7997  8010       L1    10  1.00

> <Gold.Chemscore.Hbond.Weighted>
-4.5668

> <Gold.Chemscore.Metal.Weighted>
-0.0000

> <Gold.Chemscore.Lipo.Weighted>
-8.3469

> <Gold.Chemscore.Internal_Hbond.Weighted>
0.0000

> <Gold.Chemscore.DEClash.Weighted>
0.3121

> <Gold.Chemscore.DEInternal.Weighted>
1.9519

> <Gold.Chemscore.Rot.Weighted>
5.3191

> <Gold.Chemscore.Internal.Correction.Weighted>
   9.000000E+99

> <Gold.Protein.RotatedTorsions>
[ 6907 6896 6895 6894 ] final  -98.63 input  -60.11 | X-H torsion
[ 7974 7965 7964 7962 ] final   47.85 input  175.53 | X-H torsion
[ 8008 7997 7996 7995 ] final   78.19 input   59.86 | X-H torsion
[ 10167 10162 10161 10158 ] final   77.85 input  -65.29 | X-H torsion
[ 10718 10713 10712 10709 ] final   28.89 input   66.30 | X-H torsion
[ 10763 10752 10751 10750 ] final  -37.07 input  -60.55 | X-H torsion
[ 11005 11000 10999 10996 ] final   77.49 input  -57.11 | X-H torsion

> <Gold.Protein.ActiveResidues>
 VAL166  LYS551  ARG553  GLY616  TRP617  ASP618  TYR619  PRO620  LYS621  CYS622 
 ASP623  PHE694  ASN695  SER759  ASP760  ASP761  ALA762  ILE779  LEU786  VAL792 
 PHE793  MET794  SER795  GLU796  ALA797  LYS798  CYS799  TRP800  GLU811  SER814 

> <Gold.Protein.RotatedAtoms>
  150.7053  134.1164  159.4018 H   0  0  0  0  0  0  0  0  0  0  0  0  # atno 6907 bound_to 6896
  151.9151  135.0320  160.0527 H   0  0  0  0  0  0  0  0  0  0  0  0  # atno 6908 bound_to 6896
  152.2303  133.5018  159.5249 H   0  0  0  0  0  0  0  0  0  0  0  0  # atno 6909 bound_to 6896
  146.0259  139.4705  142.9868 H   0  0  0  0  0  0  0  0  0  0  0  0  # atno 7974 bound_to 7965
  155.8522  140.3457  155.5700 H   0  0  0  0  0  0  0  0  0  0  0  0  # atno 8008 bound_to 7997
  155.8025  140.0887  157.1968 H   0  0  0  0  0  0  0  0  0  0  0  0  # atno 8009 bound_to 7997
  154.4008  140.1463  156.3279 H   0  0  0  0  0  0  0  0  0  0  0  0  # atno 8010 bound_to 7997
  139.9772  144.5853  150.7933 H   0  0  0  0  0  0  0  0  0  0  0  0  # atno 10167 bound_to 10162
  157.2394  130.7062  149.6351 H   0  0  0  0  0  0  0  0  0  0  0  0  # atno 10718 bound_to 10713
  153.8902  135.6813  153.4761 H   0  0  0  0  0  0  0  0  0  0  0  0  # atno 10763 bound_to 10752
  153.1185  135.4750  154.9154 H   0  0  0  0  0  0  0  0  0  0  0  0  # atno 10764 bound_to 10752
  154.7626  135.3215  154.8302 H   0  0  0  0  0  0  0  0  0  0  0  0  # atno 10765 bound_to 10752
  139.9252  134.7687  156.1528 H   0  0  0  0  0  0  0  0  0  0  0  0  # atno 11005 bound_to 11000
  145.7119  141.0103  143.1449 LP  0  0  0  0  0  0  0  0  0  0  0  0  # atno 17320 bound_to 7965
  144.7009  139.8767  143.7444 LP  0  0  0  0  0  0  0  0  0  0  0  0  # atno 17321 bound_to 7965
  140.7502  143.2951  151.3226 LP  0  0  0  0  0  0  0  0  0  0  0  0  # atno 17342 bound_to 10162
  139.6437  144.0491  152.2574 LP  0  0  0  0  0  0  0  0  0  0  0  0  # atno 17343 bound_to 10162
  155.9671  130.4463  150.5535 LP  0  0  0  0  0  0  0  0  0  0  0  0  # atno 17370 bound_to 10713
  157.3394  131.0714  151.1799 LP  0  0  0  0  0  0  0  0  0  0  0  0  # atno 17371 bound_to 10713
  141.0805  133.6756  156.2325 LP  0  0  0  0  0  0  0  0  0  0  0  0  # atno 17394 bound_to 11000
  140.6356  134.5218  157.5564 LP  0  0  0  0  0  0  0  0  0  0  0  0  # atno 17395 bound_to 11000

$$$$
