AV-unprocessed.smi:3263|AV-procd|sdf|12488|dock4
  -GOLD-   2272018383D 1   1.00000     0.00000
 Structure written by MMmdl.
 41 43  0  0  0  0  0  0  0  0  1 V2000
  149.1697  140.2815  157.1384 O   0  0  0  0  0  0  0  0  0  0  0  0
  149.4860  141.4344  156.8443 C   0  0  0  0  0  0  0  0  0  0  0  0
  150.9197  141.9263  157.0698 C   0  0  0  0  0  0  0  0  0  0  0  0
  151.1278  142.6021  158.4440 C   0  0  2  0  0  0  0  0  0  0  0  0
  150.2968  143.8923  158.6499 C   0  0  0  0  0  0  0  0  0  0  0  0
  151.3631  144.9403  159.0159 C   0  0  1  0  0  0  0  0  0  0  0  0
  151.9333  144.6311  160.4126 C   0  0  0  0  0  0  0  0  0  0  0  0
  152.7953  143.3805  160.1571 C   0  0  0  0  0  0  0  0  0  0  0  0
  152.5712  143.1149  158.6558 C   0  0  2  0  0  0  0  0  0  0  0  0
  152.5148  144.5370  158.1050 C   0  0  0  0  0  0  0  0  0  0  0  0
  148.6285  142.3211  156.3164 N   0  0  0  0  0  0  0  0  0  0  0  0
  147.2235  142.0585  156.0286 C   0  0  0  0  0  0  0  0  0  0  0  0
  146.8745  142.3860  154.5674 C   0  0  0  0  0  0  0  0  0  0  0  0
  145.8536  143.5027  154.4593 C   0  0  0  0  0  0  0  0  0  0  0  0
  145.6502  144.1777  153.2367 C   0  0  0  0  0  0  0  0  0  0  0  0
  144.6842  145.2015  153.1885 C   0  0  0  0  0  0  0  0  0  0  0  0
  143.9615  145.5080  154.3576 C   0  0  0  0  0  0  0  0  0  0  0  0
  144.2390  144.7747  155.5284 C   0  0  0  0  0  0  0  0  0  0  0  0
  145.1634  143.7918  155.5858 N   0  0  0  0  0  0  0  0  0  0  0  0
  151.5828  141.0649  156.9844 H   0  0  0  0  0  0  0  0  0  0  0  0
  151.2019  142.6095  156.2678 H   0  0  0  0  0  0  0  0  0  0  0  0
  150.8875  141.8771  159.2238 H   0  0  0  0  0  0  0  0  0  0  0  0
  149.7836  144.1875  157.7337 H   0  0  0  0  0  0  0  0  0  0  0  0
  149.5416  143.7783  159.4284 H   0  0  0  0  0  0  0  0  0  0  0  0
  151.0219  145.9694  158.8998 H   0  0  0  0  0  0  0  0  0  0  0  0
  152.5506  145.4549  160.7735 H   0  0  0  0  0  0  0  0  0  0  0  0
  151.1482  144.4523  161.1482 H   0  0  0  0  0  0  0  0  0  0  0  0
  153.8459  143.5932  160.3587 H   0  0  0  0  0  0  0  0  0  0  0  0
  152.5021  142.5357  160.7817 H   0  0  0  0  0  0  0  0  0  0  0  0
  153.3380  142.4790  158.2123 H   0  0  0  0  0  0  0  0  0  0  0  0
  152.2664  144.5879  157.0439 H   0  0  0  0  0  0  0  0  0  0  0  0
  153.4281  145.1073  158.2840 H   0  0  0  0  0  0  0  0  0  0  0  0
  148.9726  143.2459  156.1024 H   0  0  0  0  0  0  0  0  0  0  0  0
  146.9814  141.0189  156.2560 H   0  0  0  0  0  0  0  0  0  0  0  0
  146.6229  142.6711  156.7015 H   0  0  0  0  0  0  0  0  0  0  0  0
  147.7746  142.6766  154.0234 H   0  0  0  0  0  0  0  0  0  0  0  0
  146.4860  141.4994  154.0642 H   0  0  0  0  0  0  0  0  0  0  0  0
  146.2183  143.9175  152.3555 H   0  0  0  0  0  0  0  0  0  0  0  0
  144.5007  145.7410  152.2709 H   0  0  0  0  0  0  0  0  0  0  0  0
  143.2125  146.2860  154.3569 H   0  0  0  0  0  0  0  0  0  0  0  0
  143.7038  144.9825  156.4431 H   0  0  0  0  0  0  0  0  0  0  0  0
  1  2  2  0  0  0  0
  2  3  1  0  0  0  0
  2 11  1  0  0  0  0
  3  4  1  0  0  0  0
  3 20  1  0  0  0  0
  3 21  1  0  0  0  0
  4  9  1  0  0  0  0
  4  5  1  0  0  0  0
  4 22  1  0  0  0  0
  5  6  1  0  0  0  0
  5 23  1  0  0  0  0
  5 24  1  0  0  0  0
  6 10  1  0  0  0  0
  6  7  1  0  0  0  0
  6 25  1  0  0  0  0
  7  8  1  0  0  0  0
  7 26  1  0  0  0  0
  7 27  1  0  0  0  0
  8  9  1  0  0  0  0
  8 28  1  0  0  0  0
  8 29  1  0  0  0  0
  9 10  1  0  0  0  0
  9 30  1  0  0  0  0
 10 31  1  0  0  0  0
 10 32  1  0  0  0  0
 11 12  1  0  0  0  0
 11 33  1  0  0  0  0
 12 13  1  0  0  0  0
 12 34  1  0  0  0  0
 12 35  1  0  0  0  0
 13 14  1  0  0  0  0
 13 36  1  0  0  0  0
 13 37  1  0  0  0  0
 14 19  1  0  0  0  0
 14 15  2  0  0  0  0
 15 16  1  0  0  0  0
 15 38  1  0  0  0  0
 16 17  2  0  0  0  0
 16 39  1  0  0  0  0
 17 18  1  0  0  0  0
 17 40  1  0  0  0  0
 18 19  2  0  0  0  0
 18 41  1  0  0  0  0
M  END
> <s_m_source_file>
AV-unprocessed.smi

> <i_m_source_file_index>
3263

> <i_lp_mmshare_version>
43012

> <i_f3d_flags>
0

> <s_epik_input>
W0NIMl0xW0NIMl1bQ0BASF0oW0NIMl0yKVtDQEBIXShbQ0gyXVtDQEhdMTIpW0NIMl1DKD1PKVtOSF1bQ0gyXVtDSDJdYzNbY0hdW2NIXVtjSF1bY0hdbjM=

> <s_epik_cmdline>
J2VwaWtfcHl0aG9uJywgJy1waCcsICc3LjAnLCAnLXRuJywgJzgnLCAnLW1hJywgJzIwMCcsICctbWV0YWxfYmluZGluZycsICctaW1hZScsICc8aW5maWxlLm1hZT4nLCAnLW9tYWUnLCAnPG91dGZpbGUubWFlPic=

> <r_epik_Ionization_Penalty>
0.0273541

> <r_epik_Ionization_Penalty_Charging>
0

> <r_epik_Ionization_Penalty_Neutral>
0.0273541

> <r_epik_State_Penalty>
0.0223838

> <r_epik_Charging_Adjusted_Penalty>
0.0223838

> <i_epik_Tot_Q>
0

> <i_epik_Tot_abs_Q>
0

> <r_epik_Metal_State_Penalty>
0.0213927

> <b_epik_Metal_Only>
0

> <s_lp_Force_Field>
OPLS_2005

> <r_lp_Energy>
45.3245

> <b_lp_Chiralities_Consistent>
1

> <s_lp_Variant>
AV-unprocessed.smi:3263-3

> <Gold.Version>
5.8.1

> <Gold.Id.Protein>
6NUR|6NUR_protein|mol2

> <Gold.PLP.Fitness>
49.1042

> <Gold.PLP.PLP>
-47.9861

> <Gold.PLP.part.hbond>
-0.9522

> <Gold.PLP.part.metal>
0.0000

> <Gold.PLP.part.buried>
-5.3007

> <Gold.PLP.part.nonpolar>
-42.1011

> <Gold.PLP.part.repulsive>
0.2194

> <Gold.PLP.ligand.clash>
0.0000

> <Gold.PLP.ligand.torsion>
0.9787

> <Gold.PLP.Chemscore.Hbond>
1.0000

> <Gold.PLP.Chemscore.CHOScore>
0.0000

> <Gold.PLP.Chemscore.Metal>
0.0000

> <Gold.Chemscore.Hbonds>
donor molecule, donor type, donor heavy atom, donor atom, acceptor molecule, acceptor atom, score
      L1  H    11    33       P1  8028  1.00

> <Gold.PLP.Chemscore.Internal.Correction>
0.0756

> <Gold.Rescore>
     Score         DG    S(hbond)    S(metal)    S(lipo)     H(rot)  DE(clash)    DE(int)     intcor
     19.36     -20.64       0.98        0.00     133.32       1.46       0.14       1.14       ----

> <Gold.Chemscore.Fitness>
19.3564

> <Gold.Chemscore.DG>
-20.6407

> <Gold.Chemscore.ZeroCoef>
-5.4800

> <Gold.Chemscore.Hbond>
0.9845

> <Gold.Chemscore.Metal>
0.0000

> <Gold.Chemscore.Lipo>
133.3203

> <Gold.Chemscore.Internal_Hbond>
0.0000

> <Gold.Chemscore.DEClash>
0.1446

> <Gold.Chemscore.DEInternal>
1.1397

> <Gold.Chemscore.Rot>
1.4555

> <Gold.Chemscore.Internal.Correction>
   9.000000E+99

> <Gold.Chemscore.Hbonds>
donor molecule, donor type, donor heavy atom, donor atom, acceptor molecule, acceptor atom, score
      L1  H    11    33       P1  8028  0.93

> <Gold.Chemscore.Hbond.Weighted>
-3.2882

> <Gold.Chemscore.Metal.Weighted>
-0.0000

> <Gold.Chemscore.Lipo.Weighted>
-15.5985

> <Gold.Chemscore.Internal_Hbond.Weighted>
0.0000

> <Gold.Chemscore.DEClash.Weighted>
0.1446

> <Gold.Chemscore.DEInternal.Weighted>
1.1397

> <Gold.Chemscore.Rot.Weighted>
3.7260

> <Gold.Chemscore.Internal.Correction.Weighted>
   9.000000E+99

> <Gold.Protein.RotatedTorsions>
[ 6907 6896 6895 6894 ] final -148.14 input  -60.11 | X-H torsion
[ 7974 7965 7964 7962 ] final  -21.94 input  175.53 | X-H torsion
[ 8008 7997 7996 7995 ] final -103.89 input   59.86 | X-H torsion
[ 10167 10162 10161 10158 ] final -113.53 input  -65.29 | X-H torsion
[ 10718 10713 10712 10709 ] final  100.83 input   66.30 | X-H torsion
[ 10763 10752 10751 10750 ] final  158.39 input  -60.55 | X-H torsion
[ 11005 11000 10999 10996 ] final  167.84 input  -57.11 | X-H torsion

> <Gold.Protein.ActiveResidues>
 VAL166  LYS551  ARG553  GLY616  TRP617  ASP618  TYR619  PRO620  LYS621  CYS622 
 ASP623  PHE694  ASN695  SER759  ASP760  ASP761  ALA762  ILE779  LEU786  VAL792 
 PHE793  MET794  SER795  GLU796  ALA797  LYS798  CYS799  TRP800  GLU811  SER814 

> <Gold.Protein.RotatedAtoms>
  151.1656  133.4817  159.2593 H   0  0  0  0  0  0  0  0  0  0  0  0  # atno 6907 bound_to 6896
  151.1409  135.0178  159.8635 H   0  0  0  0  0  0  0  0  0  0  0  0  # atno 6908 bound_to 6896
  152.5462  134.1550  159.8587 H   0  0  0  0  0  0  0  0  0  0  0  0  # atno 6909 bound_to 6896
  146.1704  140.4410  142.8534 H   0  0  0  0  0  0  0  0  0  0  0  0  # atno 7974 bound_to 7965
  154.8774  140.0420  157.1762 H   0  0  0  0  0  0  0  0  0  0  0  0  # atno 8008 bound_to 7997
  154.8674  140.2953  155.5481 H   0  0  0  0  0  0  0  0  0  0  0  0  # atno 8009 bound_to 7997
  156.2999  140.2435  156.3658 H   0  0  0  0  0  0  0  0  0  0  0  0  # atno 8010 bound_to 7997
  140.1109  143.4529  152.1753 H   0  0  0  0  0  0  0  0  0  0  0  0  # atno 10167 bound_to 10162
  157.6844  131.0709  150.5160 H   0  0  0  0  0  0  0  0  0  0  0  0  # atno 10718 bound_to 10713
  154.2152  135.2784  155.2944 H   0  0  0  0  0  0  0  0  0  0  0  0  # atno 10763 bound_to 10752
  154.5746  135.5608  153.7130 H   0  0  0  0  0  0  0  0  0  0  0  0  # atno 10764 bound_to 10752
  153.0054  135.6330  154.2292 H   0  0  0  0  0  0  0  0  0  0  0  0  # atno 10765 bound_to 10752
  140.2810  134.7750  157.3758 H   0  0  0  0  0  0  0  0  0  0  0  0  # atno 11005 bound_to 11000
  144.8155  140.6460  143.6387 LP  0  0  0  0  0  0  0  0  0  0  0  0  # atno 17320 bound_to 7965
  145.4354  139.1543  143.3999 LP  0  0  0  0  0  0  0  0  0  0  0  0  # atno 17321 bound_to 7965
  139.5620  144.7411  151.4128 LP  0  0  0  0  0  0  0  0  0  0  0  0  # atno 17342 bound_to 10162
  140.6926  143.7825  150.7278 LP  0  0  0  0  0  0  0  0  0  0  0  0  # atno 17343 bound_to 10162
  156.5475  130.4223  149.6123 LP  0  0  0  0  0  0  0  0  0  0  0  0  # atno 17370 bound_to 10713
  156.2931  130.7135  151.1989 LP  0  0  0  0  0  0  0  0  0  0  0  0  # atno 17371 bound_to 10713
  140.1284  134.5128  155.8126 LP  0  0  0  0  0  0  0  0  0  0  0  0  # atno 17394 bound_to 11000
  141.2163  133.6781  156.6993 LP  0  0  0  0  0  0  0  0  0  0  0  0  # atno 17395 bound_to 11000

$$$$
