AV-unprocessed.smi:2808|AV-procd|sdf|10824|dock3
  -GOLD-   2272015263D 1   1.00000     0.00000
 Structure written by MMmdl.
 43 44  0  0  0  0  0  0  0  0  1 V2000
  152.1789  143.6553  161.1835 C   0  0  0  0  0  0  0  0  0  0  0  0
  151.8444  143.0859  159.8172 C   0  0  0  0  0  0  0  0  0  0  0  0
  150.8182  143.7053  159.0045 C   0  0  0  0  0  0  0  0  0  0  0  0
  150.5347  143.1894  157.7992 C   0  0  0  0  0  0  0  0  0  0  0  0
  151.2059  142.0607  157.2969 N   0  0  0  0  0  0  0  0  0  0  0  0
  150.8064  141.5783  155.9642 C   0  0  0  0  0  0  0  0  0  0  0  0
  149.3810  141.0097  155.9339 C   0  0  0  0  0  0  0  0  0  0  0  0
  149.1620  139.8487  156.2805 O   0  0  0  0  0  0  0  0  0  0  0  0
  148.4195  141.8551  155.5268 N   0  0  0  0  0  0  0  0  0  0  0  0
  146.9862  141.5726  155.3983 C   0  0  0  0  0  0  0  0  0  0  0  0
  146.7744  140.3220  154.6424 C   0  0  0  0  0  0  0  0  0  0  0  0
  146.6093  139.3421  154.0495 N   0  0  0  0  0  0  0  0  0  0  0  0
  146.4306  141.3420  156.8253 C   0  0  0  0  0  0  0  0  0  0  0  0
  146.0820  142.6075  157.6291 C   0  0  0  0  0  0  0  0  0  0  0  0
  144.6335  143.0736  157.3950 C   0  0  0  0  0  0  0  0  0  0  0  0
  144.3710  143.7117  156.0216 C   0  0  0  0  0  0  0  0  0  0  0  0
  144.7775  142.8464  154.8156 C   0  0  0  0  0  0  0  0  0  0  0  0
  146.3037  142.7507  154.6536 C   0  0  0  0  0  0  0  0  0  0  0  0
  152.1827  141.4227  158.0096 C   0  0  0  0  0  0  0  0  0  0  0  0
  152.7648  140.4313  157.5646 O   0  0  0  0  0  0  0  0  0  0  0  0
  152.4859  141.9968  159.3301 C   0  0  0  0  0  0  0  0  0  0  0  0
  153.5057  141.3300  160.0741 C   0  0  0  0  0  0  0  0  0  0  0  0
  154.3474  140.8036  160.6695 N   0  0  0  0  0  0  0  0  0  0  0  0
  151.5722  144.5338  161.4045 H   0  0  0  0  0  0  0  0  0  0  0  0
  153.2279  143.9494  161.2275 H   0  0  0  0  0  0  0  0  0  0  0  0
  151.9954  142.9132  161.9612 H   0  0  0  0  0  0  0  0  0  0  0  0
  150.2805  144.5711  159.3622 H   0  0  0  0  0  0  0  0  0  0  0  0
  149.7751  143.6012  157.1506 H   0  0  0  0  0  0  0  0  0  0  0  0
  150.8649  142.3822  155.2293 H   0  0  0  0  0  0  0  0  0  0  0  0
  151.5120  140.8213  155.6161 H   0  0  0  0  0  0  0  0  0  0  0  0
  148.7081  142.7880  155.2710 H   0  0  0  0  0  0  0  0  0  0  0  0
  145.5453  140.7061  156.7769 H   0  0  0  0  0  0  0  0  0  0  0  0
  147.1535  140.7531  157.3925 H   0  0  0  0  0  0  0  0  0  0  0  0
  146.1833  142.3711  158.6887 H   0  0  0  0  0  0  0  0  0  0  0  0
  146.7938  143.4105  157.4349 H   0  0  0  0  0  0  0  0  0  0  0  0
  143.9510  142.2360  157.5435 H   0  0  0  0  0  0  0  0  0  0  0  0
  144.3732  143.8018  158.1639 H   0  0  0  0  0  0  0  0  0  0  0  0
  143.3064  143.9359  155.9478 H   0  0  0  0  0  0  0  0  0  0  0  0
  144.8770  144.6763  155.9656 H   0  0  0  0  0  0  0  0  0  0  0  0
  144.3215  141.8570  154.8642 H   0  0  0  0  0  0  0  0  0  0  0  0
  144.3712  143.3176  153.9199 H   0  0  0  0  0  0  0  0  0  0  0  0
  146.7543  143.7002  154.9473 H   0  0  0  0  0  0  0  0  0  0  0  0
  146.5235  142.6565  153.5894 H   0  0  0  0  0  0  0  0  0  0  0  0
  1  2  1  0  0  0  0
  1 24  1  0  0  0  0
  1 25  1  0  0  0  0
  1 26  1  0  0  0  0
  2 21  2  0  0  0  0
  2  3  1  0  0  0  0
  3  4  2  0  0  0  0
  3 27  1  0  0  0  0
  4  5  1  0  0  0  0
  4 28  1  0  0  0  0
  5  6  1  0  0  0  0
  5 19  1  0  0  0  0
  6  7  1  0  0  0  0
  6 29  1  0  0  0  0
  6 30  1  0  0  0  0
  7  8  2  0  0  0  0
  7  9  1  0  0  0  0
  9 10  1  0  0  0  0
  9 31  1  0  0  0  0
 10 18  1  0  0  0  0
 10 11  1  0  0  0  0
 10 13  1  0  0  0  0
 11 12  3  0  0  0  0
 13 14  1  0  0  0  0
 13 32  1  0  0  0  0
 13 33  1  0  0  0  0
 14 15  1  0  0  0  0
 14 34  1  0  0  0  0
 14 35  1  0  0  0  0
 15 16  1  0  0  0  0
 15 36  1  0  0  0  0
 15 37  1  0  0  0  0
 16 17  1  0  0  0  0
 16 38  1  0  0  0  0
 16 39  1  0  0  0  0
 17 18  1  0  0  0  0
 17 40  1  0  0  0  0
 17 41  1  0  0  0  0
 18 42  1  0  0  0  0
 18 43  1  0  0  0  0
 19 20  2  0  0  0  0
 19 21  1  0  0  0  0
 21 22  1  0  0  0  0
 22 23  3  0  0  0  0
M  END
> <s_m_source_file>
AV-unprocessed.smi

> <i_m_source_file_index>
2808

> <i_lp_mmshare_version>
43012

> <i_f3d_flags>
0

> <s_epik_input>
W0NIM11jMVtjSF1bY0hdbihjKD1PKWMxQyNOKVtDSDJdQyg9TylbTkhdQzIoQyNOKVtDSDJdW0NIMl1bQ0gyXVtDSDJdW0NIMl1bQ0gyXTI=

> <s_epik_cmdline>
J2VwaWtfcHl0aG9uJywgJy1waCcsICc3LjAnLCAnLXRuJywgJzgnLCAnLW1hJywgJzIwMCcsICctbWV0YWxfYmluZGluZycsICctaW1hZScsICc8aW5maWxlLm1hZT4nLCAnLW9tYWUnLCAnPG91dGZpbGUubWFlPic=

> <r_lp_tautomer_probability>
1

> <r_epik_Ionization_Penalty>
4.51384e-07

> <r_epik_Ionization_Penalty_Charging>
2.41788e-10

> <r_epik_Ionization_Penalty_Neutral>
4.51142e-07

> <r_epik_State_Penalty>
-0

> <r_epik_Charging_Adjusted_Penalty>
2.41788e-10

> <i_epik_Tot_Q>
0

> <i_epik_Tot_abs_Q>
0

> <r_epik_Metal_State_Penalty>
-0

> <b_epik_Metal_Only>
0

> <s_lp_Force_Field>
OPLS_2005

> <r_lp_Energy>
25.2429

> <b_lp_Chiralities_Consistent>
1

> <s_lp_Variant>
AV-unprocessed.smi:2808-1

> <Gold.Version>
5.8.1

> <Gold.Id.Protein>
6NUR|6NUR_protein|mol2

> <Gold.PLP.Fitness>
47.7663

> <Gold.PLP.PLP>
-40.4408

> <Gold.PLP.part.hbond>
-2.0000

> <Gold.PLP.part.metal>
0.0000

> <Gold.PLP.part.buried>
-4.9074

> <Gold.PLP.part.nonpolar>
-33.5700

> <Gold.PLP.part.repulsive>
0.2792

> <Gold.PLP.ligand.clash>
0.0000

> <Gold.PLP.ligand.torsion>
0.5081

> <Gold.PLP.Chemscore.Hbond>
1.7760

> <Gold.PLP.Chemscore.CHOScore>
1.0000

> <Gold.PLP.Chemscore.Metal>
0.0000

> <Gold.Chemscore.Hbonds>
donor molecule, donor type, donor heavy atom, donor atom, acceptor molecule, acceptor atom, score
      L1  H     9    31       P1  8028  1.00
      P1  H  7997  8010       L1    20  0.83
      L1  C     4    28       P1  8028  1.00

> <Gold.PLP.Chemscore.Internal.Correction>
0.0139

> <Gold.Rescore>
     Score         DG    S(hbond)    S(metal)    S(lipo)     H(rot)  DE(clash)    DE(int)     intcor
     14.92     -17.01       1.74        0.00      82.11       1.52       0.31       1.78       ----

> <Gold.Chemscore.Fitness>
14.9183

> <Gold.Chemscore.DG>
-17.0093

> <Gold.Chemscore.ZeroCoef>
-5.4800

> <Gold.Chemscore.Hbond>
1.7430

> <Gold.Chemscore.Metal>
0.0000

> <Gold.Chemscore.Lipo>
82.1134

> <Gold.Chemscore.Internal_Hbond>
0.0000

> <Gold.Chemscore.DEClash>
0.3116

> <Gold.Chemscore.DEInternal>
1.7795

> <Gold.Chemscore.Rot>
1.5232

> <Gold.Chemscore.Internal.Correction>
   9.000000E+99

> <Gold.Chemscore.Hbonds>
donor molecule, donor type, donor heavy atom, donor atom, acceptor molecule, acceptor atom, score
      L1  H     9    31       P1  8028  0.95
      P1  H  7997  8010       L1    20  0.83

> <Gold.Chemscore.Hbond.Weighted>
-5.8215

> <Gold.Chemscore.Metal.Weighted>
-0.0000

> <Gold.Chemscore.Lipo.Weighted>
-9.6073

> <Gold.Chemscore.Internal_Hbond.Weighted>
0.0000

> <Gold.Chemscore.DEClash.Weighted>
0.3116

> <Gold.Chemscore.DEInternal.Weighted>
1.7795

> <Gold.Chemscore.Rot.Weighted>
3.8995

> <Gold.Chemscore.Internal.Correction.Weighted>
   9.000000E+99

> <Gold.Protein.RotatedTorsions>
[ 6907 6896 6895 6894 ] final  128.24 input  -60.11 | X-H torsion
[ 7974 7965 7964 7962 ] final  158.89 input  175.53 | X-H torsion
[ 8008 7997 7996 7995 ] final   44.34 input   59.86 | X-H torsion
[ 10167 10162 10161 10158 ] final  -55.43 input  -65.29 | X-H torsion
[ 10718 10713 10712 10709 ] final -112.55 input   66.30 | X-H torsion
[ 10763 10752 10751 10750 ] final   76.47 input  -60.55 | X-H torsion
[ 11005 11000 10999 10996 ] final  168.43 input  -57.11 | X-H torsion

> <Gold.Protein.ActiveResidues>
 VAL166  LYS551  ARG553  GLY616  TRP617  ASP618  TYR619  PRO620  LYS621  CYS622 
 ASP623  PHE694  ASN695  SER759  ASP760  ASP761  ALA762  ILE779  LEU786  VAL792 
 PHE793  MET794  SER795  GLU796  ALA797  LYS798  CYS799  TRP800  GLU811  SER814 

> <Gold.Protein.RotatedAtoms>
  152.3738  133.6454  159.6107 H   0  0  0  0  0  0  0  0  0  0  0  0  # atno 6907 bound_to 6896
  150.7688  133.9227  159.3411 H   0  0  0  0  0  0  0  0  0  0  0  0  # atno 6908 bound_to 6896
  151.7045  135.0925  160.0308 H   0  0  0  0  0  0  0  0  0  0  0  0  # atno 6909 bound_to 6896
  144.7820  139.7541  143.6256 H   0  0  0  0  0  0  0  0  0  0  0  0  # atno 7974 bound_to 7965
  155.3178  140.3395  155.4242 H   0  0  0  0  0  0  0  0  0  0  0  0  # atno 8008 bound_to 7997
  156.1924  140.1702  156.8103 H   0  0  0  0  0  0  0  0  0  0  0  0  # atno 8009 bound_to 7997
  154.5458  140.0715  156.8570 H   0  0  0  0  0  0  0  0  0  0  0  0  # atno 8010 bound_to 7997
  140.6375  143.2490  151.5079 H   0  0  0  0  0  0  0  0  0  0  0  0  # atno 10167 bound_to 10162
  156.0713  130.5926  150.8524 H   0  0  0  0  0  0  0  0  0  0  0  0  # atno 10718 bound_to 10713
  153.0727  135.4950  154.8340 H   0  0  0  0  0  0  0  0  0  0  0  0  # atno 10763 bound_to 10752
  154.7045  135.3008  154.9293 H   0  0  0  0  0  0  0  0  0  0  0  0  # atno 10764 bound_to 10752
  154.0006  135.6767  153.4812 H   0  0  0  0  0  0  0  0  0  0  0  0  # atno 10765 bound_to 10752
  140.2872  134.7702  157.3808 H   0  0  0  0  0  0  0  0  0  0  0  0  # atno 11005 bound_to 11000
  146.2034  139.5342  142.9728 LP  0  0  0  0  0  0  0  0  0  0  0  0  # atno 17320 bound_to 7965
  145.6023  141.0353  143.2011 LP  0  0  0  0  0  0  0  0  0  0  0  0  # atno 17321 bound_to 7965
  139.5585  144.2216  152.1652 LP  0  0  0  0  0  0  0  0  0  0  0  0  # atno 17342 bound_to 10162
  140.1477  144.5144  150.6706 LP  0  0  0  0  0  0  0  0  0  0  0  0  # atno 17343 bound_to 10162
  157.5785  131.0946  150.9309 LP  0  0  0  0  0  0  0  0  0  0  0  0  # atno 17370 bound_to 10713
  156.9509  130.5419  149.5282 LP  0  0  0  0  0  0  0  0  0  0  0  0  # atno 17371 bound_to 10713
  140.1229  134.5196  155.8169 LP  0  0  0  0  0  0  0  0  0  0  0  0  # atno 17394 bound_to 11000
  141.2152  133.6762  156.6898 LP  0  0  0  0  0  0  0  0  0  0  0  0  # atno 17395 bound_to 11000

$$$$
