AV-unprocessed.smi:3085|AV-procd|sdf|11757|dock2
  -GOLD-   2272017143D 1   1.00000     0.00000
 Structure written by MMmdl.
 27 28  0  0  0  0  0  0  0  0  1 V2000
  152.7288  142.8704  160.8524 C   0  0  0  0  0  0  0  0  0  0  0  0
  152.4704  143.8675  159.7173 C   0  0  0  0  0  0  0  0  0  0  0  0
  151.8425  143.2201  158.5276 C   0  0  0  0  0  0  0  0  0  0  0  0
  151.9423  141.8796  158.2769 N   0  0  0  0  0  0  0  0  0  0  0  0
  151.2836  141.8035  157.1245 C   0  0  0  0  0  0  0  0  0  0  0  0
  151.0261  140.5365  156.3687 C   0  0  1  0  0  0  0  0  0  0  0  0
  150.3678  140.7974  154.9996 C   0  0  0  0  0  0  0  0  0  0  0  0
  150.2084  139.5427  154.2661 N   0  0  0  0  0  0  0  0  0  0  0  0
  151.4836  138.8393  154.1379 C   0  0  0  0  0  0  0  0  0  0  0  0
  152.1196  138.6284  155.5233 C   0  0  0  0  0  0  0  0  0  0  0  0
  152.2802  139.8858  156.1715 O   0  0  0  0  0  0  0  0  0  0  0  0
  150.8292  142.9936  156.7218 N   0  0  0  0  0  0  0  0  0  0  0  0
  151.1921  143.9389  157.6140 N   0  0  0  0  0  0  0  0  0  0  0  0
  150.3031  143.1968  155.8838 H   0  0  0  0  0  0  0  0  0  0  0  0
  153.1855  143.3670  161.7086 H   0  0  0  0  0  0  0  0  0  0  0  0
  153.4017  142.0747  160.5311 H   0  0  0  0  0  0  0  0  0  0  0  0
  151.8001  142.4090  161.1896 H   0  0  0  0  0  0  0  0  0  0  0  0
  151.8199  144.6683  160.0708 H   0  0  0  0  0  0  0  0  0  0  0  0
  153.4070  144.3394  159.4177 H   0  0  0  0  0  0  0  0  0  0  0  0
  150.3817  139.9024  156.9810 H   0  0  0  0  0  0  0  0  0  0  0  0
  149.3983  141.2779  155.1337 H   0  0  0  0  0  0  0  0  0  0  0  0
  150.9826  141.4878  154.4208 H   0  0  0  0  0  0  0  0  0  0  0  0
  149.8299  139.7334  153.3438 H   0  0  0  0  0  0  0  0  0  0  0  0
  151.3341  137.8794  153.6433 H   0  0  0  0  0  0  0  0  0  0  0  0
  152.1628  139.4147  153.5076 H   0  0  0  0  0  0  0  0  0  0  0  0
  151.5104  137.9618  156.1364 H   0  0  0  0  0  0  0  0  0  0  0  0
  153.0978  138.1587  155.4188 H   0  0  0  0  0  0  0  0  0  0  0  0
  1  2  1  0  0  0  0
  1 15  1  0  0  0  0
  1 16  1  0  0  0  0
  1 17  1  0  0  0  0
  2 18  1  0  0  0  0
  2 19  1  0  0  0  0
  2  3  1  0  0  0  0
  3  4  1  0  0  0  0
  3 13  2  0  0  0  0
  4  5  2  0  0  0  0
  5  6  1  0  0  0  0
  5 12  1  0  0  0  0
  6 11  1  0  0  0  0
  6  7  1  0  0  0  0
  6 20  1  0  0  0  0
  7  8  1  0  0  0  0
  7 21  1  0  0  0  0
  7 22  1  0  0  0  0
  8  9  1  0  0  0  0
  8 23  1  0  0  0  0
  9 10  1  0  0  0  0
  9 24  1  0  0  0  0
  9 25  1  0  0  0  0
 10 11  1  0  0  0  0
 10 26  1  0  0  0  0
 10 27  1  0  0  0  0
 12 13  1  0  0  0  0
 12 14  1  0  0  0  0
M  END
> <s_m_source_file>
AV-unprocessed.smi

> <i_m_source_file_index>
3085

> <i_lp_mmshare_version>
43012

> <i_f3d_flags>
0

> <s_epik_input>
W0NIM11bQ0gyXWMxbmMobltuSF0xKVtDQEBIXTJbQ0gyXVtOSF1bQ0gyXVtDSDJdTzI=

> <s_epik_cmdline>
J2VwaWtfcHl0aG9uJywgJy1waCcsICc3LjAnLCAnLXRuJywgJzgnLCAnLW1hJywgJzIwMCcsICctbWV0YWxfYmluZGluZycsICctaW1hZScsICc8aW5maWxlLm1hZT4nLCAnLW9tYWUnLCAnPG91dGZpbGUubWFlPic=

> <r_epik_Ionization_Penalty>
0.98256

> <r_epik_Ionization_Penalty_Charging>
0

> <r_epik_Ionization_Penalty_Neutral>
0.98256

> <r_epik_State_Penalty>
1.54989

> <r_epik_Charging_Adjusted_Penalty>
1.54989

> <i_epik_Tot_Q>
0

> <i_epik_Tot_abs_Q>
0

> <r_epik_Metal_State_Penalty>
1.76981

> <b_epik_Metal_Only>
0

> <s_lp_Force_Field>
OPLS_2005

> <r_lp_Energy>
9.32891

> <b_lp_Chiralities_Consistent>
1

> <s_lp_Variant>
AV-unprocessed.smi:3085-8

> <Gold.Version>
5.8.1

> <Gold.Id.Protein>
6NUR|6NUR_protein|mol2

> <Gold.PLP.Fitness>
29.4678

> <Gold.PLP.PLP>
-24.3249

> <Gold.PLP.part.hbond>
-3.4372

> <Gold.PLP.part.metal>
0.0000

> <Gold.PLP.part.buried>
-0.9606

> <Gold.PLP.part.nonpolar>
-19.0432

> <Gold.PLP.part.repulsive>
0.3129

> <Gold.PLP.ligand.clash>
0.0000

> <Gold.PLP.ligand.torsion>
0.4051

> <Gold.PLP.Chemscore.Hbond>
1.9813

> <Gold.PLP.Chemscore.CHOScore>
0.0000

> <Gold.PLP.Chemscore.Metal>
0.0000

> <Gold.Chemscore.Hbonds>
donor molecule, donor type, donor heavy atom, donor atom, acceptor molecule, acceptor atom, score
      L1  H     8    23       P1  7957  0.55
      L1  H    12    14       P1  8028  0.45
      P1  H  7997  8010       L1    11  0.89

> <Gold.PLP.Chemscore.Internal.Correction>
0.0090

> <Gold.Rescore>
     Score         DG    S(hbond)    S(metal)    S(lipo)     H(rot)  DE(clash)    DE(int)     intcor
     11.86     -12.33       1.13        0.00      54.37       1.28       0.11       0.37       ----

> <Gold.Chemscore.Fitness>
11.8560

> <Gold.Chemscore.DG>
-12.3297

> <Gold.Chemscore.ZeroCoef>
-5.4800

> <Gold.Chemscore.Hbond>
1.1283

> <Gold.Chemscore.Metal>
0.0000

> <Gold.Chemscore.Lipo>
54.3741

> <Gold.Chemscore.Internal_Hbond>
0.0000

> <Gold.Chemscore.DEClash>
0.1077

> <Gold.Chemscore.DEInternal>
0.3659

> <Gold.Chemscore.Rot>
1.2815

> <Gold.Chemscore.Internal.Correction>
   9.000000E+99

> <Gold.Chemscore.Hbonds>
donor molecule, donor type, donor heavy atom, donor atom, acceptor molecule, acceptor atom, score
      L1  H     8    23       P1  7957  0.54
      L1  H    12    14       P1  8028  0.44
      P1  H  7997  8010       L1    11  0.39

> <Gold.Chemscore.Hbond.Weighted>
-3.7684

> <Gold.Chemscore.Metal.Weighted>
-0.0000

> <Gold.Chemscore.Lipo.Weighted>
-6.3618

> <Gold.Chemscore.Internal_Hbond.Weighted>
0.0000

> <Gold.Chemscore.DEClash.Weighted>
0.1077

> <Gold.Chemscore.DEInternal.Weighted>
0.3659

> <Gold.Chemscore.Rot.Weighted>
3.2805

> <Gold.Chemscore.Internal.Correction.Weighted>
   9.000000E+99

> <Gold.Protein.RotatedTorsions>
[ 6907 6896 6895 6894 ] final  169.70 input  -60.11 | X-H torsion
[ 7974 7965 7964 7962 ] final  127.24 input  175.53 | X-H torsion
[ 8008 7997 7996 7995 ] final   79.25 input   59.86 | X-H torsion
[ 10167 10162 10161 10158 ] final    7.24 input  -65.29 | X-H torsion
[ 10718 10713 10712 10709 ] final  147.21 input   66.30 | X-H torsion
[ 10763 10752 10751 10750 ] final  -74.39 input  -60.55 | X-H torsion
[ 11005 11000 10999 10996 ] final -148.68 input  -57.11 | X-H torsion

> <Gold.Protein.ActiveResidues>
 VAL166  LYS551  ARG553  GLY616  TRP617  ASP618  TYR619  PRO620  LYS621  CYS622 
 ASP623  PHE694  ASN695  SER759  ASP760  ASP761  ALA762  ILE779  LEU786  VAL792 
 PHE793  MET794  SER795  GLU796  ALA797  LYS798  CYS799  TRP800  GLU811  SER814 

> <Gold.Protein.RotatedAtoms>
  151.8278  133.3404  159.3603 H   0  0  0  0  0  0  0  0  0  0  0  0  # atno 6907 bound_to 6896
  150.7274  134.5512  159.5805 H   0  0  0  0  0  0  0  0  0  0  0  0  # atno 6908 bound_to 6896
  152.2958  134.7669  160.0419 H   0  0  0  0  0  0  0  0  0  0  0  0  # atno 6909 bound_to 6896
  145.0527  139.3869  143.5045 H   0  0  0  0  0  0  0  0  0  0  0  0  # atno 7974 bound_to 7965
  155.8670  140.3451  155.5795 H   0  0  0  0  0  0  0  0  0  0  0  0  # atno 8008 bound_to 7997
  155.7869  140.0866  157.2049 H   0  0  0  0  0  0  0  0  0  0  0  0  # atno 8009 bound_to 7997
  154.4015  140.1490  156.3105 H   0  0  0  0  0  0  0  0  0  0  0  0  # atno 8010 bound_to 7997
  140.6383  143.7834  150.7391 H   0  0  0  0  0  0  0  0  0  0  0  0  # atno 10167 bound_to 10162
  157.3238  131.0909  151.1219 H   0  0  0  0  0  0  0  0  0  0  0  0  # atno 10718 bound_to 10713
  154.4724  135.5866  153.6331 H   0  0  0  0  0  0  0  0  0  0  0  0  # atno 10763 bound_to 10752
  152.9836  135.6070  154.3349 H   0  0  0  0  0  0  0  0  0  0  0  0  # atno 10764 bound_to 10752
  154.3233  135.2843  155.2488 H   0  0  0  0  0  0  0  0  0  0  0  0  # atno 10765 bound_to 10752
  140.7587  134.3324  157.5107 H   0  0  0  0  0  0  0  0  0  0  0  0  # atno 11005 bound_to 11000
  146.3519  140.0186  142.8660 LP  0  0  0  0  0  0  0  0  0  0  0  0  # atno 17320 bound_to 7965
  145.1506  140.9621  143.4435 LP  0  0  0  0  0  0  0  0  0  0  0  0  # atno 17321 bound_to 7965
  140.1460  143.4399  152.2162 LP  0  0  0  0  0  0  0  0  0  0  0  0  # atno 17342 bound_to 10162
  139.5592  144.7394  151.4203 LP  0  0  0  0  0  0  0  0  0  0  0  0  # atno 17343 bound_to 10162
  157.2493  130.6606  149.5924 LP  0  0  0  0  0  0  0  0  0  0  0  0  # atno 17370 bound_to 10713
  155.9688  130.4543  150.5846 LP  0  0  0  0  0  0  0  0  0  0  0  0  # atno 17371 bound_to 10713
  139.8774  134.9188  156.3211 LP  0  0  0  0  0  0  0  0  0  0  0  0  # atno 17394 bound_to 11000
  140.9684  133.7343  156.0499 LP  0  0  0  0  0  0  0  0  0  0  0  0  # atno 17395 bound_to 11000

$$$$
