AV-unprocessed.smi:1244|AV-procd|sdf|5230|dock1
  -GOLD-   22720 4333D 1   1.00000     0.00000
 Structure written by MMmdl.
 55 57  0  0  0  0  0  0  0  0  2 V2000
  150.9159  141.5998  157.1867 C   0  0  0  0  0  0  0  0  0  0  0  0
  150.2845  140.2043  157.3327 C   0  0  1  0  0  0  0  0  0  0  0  0
  148.8525  140.1264  156.7673 C   0  0  0  0  0  0  0  0  0  0  0  0
  148.8334  140.1515  155.3107 N   0  0  0  0  0  0  0  0  0  0  0  0
  147.4670  140.1299  154.7856 C   0  0  0  0  0  0  0  0  0  0  0  0
  147.3620  140.1262  153.2453 C   0  0  0  0  0  0  0  0  0  0  0  0
  146.1492  139.4526  152.7938 N   0  0  0  0  0  0  0  0  0  0  0  0
  146.1160  138.2759  152.1555 C   0  0  0  0  0  0  0  0  0  0  0  0
  147.1083  137.7106  151.6956 O   0  0  0  0  0  0  0  0  0  0  0  0
  144.8720  137.7765  152.1311 N   0  0  0  0  0  0  0  0  0  0  0  0
  144.5260  136.4477  151.7824 C   0  0  0  0  0  0  0  0  0  0  0  0
  145.3727  135.7080  150.9216 C   0  0  0  0  0  0  0  0  0  0  0  0
  145.0365  134.3854  150.5783 C   0  0  0  0  0  0  0  0  0  0  0  0
  143.8573  133.8281  151.1026 C   0  0  0  0  0  0  0  0  0  0  0  0
  143.0706  134.5650  151.9151 N   0  3  0  0  0  0  0  0  0  0  0  0
  143.3324  135.8461  152.2769 C   0  0  0  0  0  0  0  0  0  0  0  0
  142.4242  136.4918  153.1501 N   0  0  0  0  0  0  0  0  0  0  0  0
  141.9557  137.8367  152.8341 C   0  0  0  0  0  0  0  0  0  0  0  0
  140.6909  138.0436  153.6664 C   0  0  0  0  0  0  0  0  0  0  0  0
  140.1204  136.6359  153.7839 C   0  0  0  0  0  0  0  0  0  0  0  0
  141.3656  135.7486  153.8347 C   0  0  0  0  0  0  0  0  0  0  0  0
  149.6565  139.0608  154.8020 C   0  0  0  0  0  0  0  0  0  0  0  0
  151.1042  139.1580  155.3172 C   0  0  2  0  0  0  0  0  0  0  0  0
  151.9581  137.9674  154.8685 C   0  0  0  0  0  0  0  0  0  0  0  0
  151.1023  139.1906  156.7439 O   0  0  0  0  0  0  0  0  0  0  0  0
  150.3433  142.3450  157.7393 H   0  0  0  0  0  0  0  0  0  0  0  0
  150.9500  141.9242  156.1472 H   0  0  0  0  0  0  0  0  0  0  0  0
  151.9345  141.6102  157.5744 H   0  0  0  0  0  0  0  0  0  0  0  0
  150.2389  139.9827  158.3994 H   0  0  0  0  0  0  0  0  0  0  0  0
  148.3777  139.2094  157.1207 H   0  0  0  0  0  0  0  0  0  0  0  0
  148.2600  140.9519  157.1641 H   0  0  0  0  0  0  0  0  0  0  0  0
  146.9222  139.2774  155.1936 H   0  0  0  0  0  0  0  0  0  0  0  0
  146.9424  141.0158  155.1468 H   0  0  0  0  0  0  0  0  0  0  0  0
  147.3424  141.1479  152.8664 H   0  0  0  0  0  0  0  0  0  0  0  0
  148.2422  139.6546  152.8059 H   0  0  0  0  0  0  0  0  0  0  0  0
  145.2752  139.8436  153.1135 H   0  0  0  0  0  0  0  0  0  0  0  0
  144.1701  138.3036  152.6291 H   0  0  0  0  0  0  0  0  0  0  0  0
  146.2767  136.1475  150.5255 H   0  0  0  0  0  0  0  0  0  0  0  0
  145.6750  133.8080  149.9257 H   0  0  0  0  0  0  0  0  0  0  0  0
  143.5204  132.8221  150.8989 H   0  0  0  0  0  0  0  0  0  0  0  0
  142.6915  138.6003  153.0832 H   0  0  0  0  0  0  0  0  0  0  0  0
  141.7330  137.9037  151.7681 H   0  0  0  0  0  0  0  0  0  0  0  0
  140.9546  138.4175  154.6567 H   0  0  0  0  0  0  0  0  0  0  0  0
  139.9956  138.7511  153.2135 H   0  0  0  0  0  0  0  0  0  0  0  0
  139.4734  136.5083  154.6522 H   0  0  0  0  0  0  0  0  0  0  0  0
  139.5374  136.4023  152.8920 H   0  0  0  0  0  0  0  0  0  0  0  0
  141.1470  134.7688  153.4119 H   0  0  0  0  0  0  0  0  0  0  0  0
  141.6761  135.5943  154.8681 H   0  0  0  0  0  0  0  0  0  0  0  0
  149.2230  138.1032  155.0953 H   0  0  0  0  0  0  0  0  0  0  0  0
  149.6712  139.0762  153.7123 H   0  0  0  0  0  0  0  0  0  0  0  0
  151.5632  140.0710  154.9364 H   0  0  0  0  0  0  0  0  0  0  0  0
  152.0039  137.9044  153.7810 H   0  0  0  0  0  0  0  0  0  0  0  0
  151.5511  137.0271  155.2421 H   0  0  0  0  0  0  0  0  0  0  0  0
  152.9793  138.0591  155.2392 H   0  0  0  0  0  0  0  0  0  0  0  0
  142.2226  134.1297  152.2788 H   0  0  0  0  0  0  0  0  0  0  0  0
  1  2  1  0  0  0  0
  1 26  1  0  0  0  0
  1 27  1  0  0  0  0
  1 28  1  0  0  0  0
  2 25  1  0  0  0  0
  2  3  1  0  0  0  0
  2 29  1  0  0  0  0
  3  4  1  0  0  0  0
  3 30  1  0  0  0  0
  3 31  1  0  0  0  0
  4  5  1  0  0  0  0
  4 22  1  0  0  0  0
  5  6  1  0  0  0  0
  5 32  1  0  0  0  0
  5 33  1  0  0  0  0
  6  7  1  0  0  0  0
  6 34  1  0  0  0  0
  6 35  1  0  0  0  0
  7  8  1  0  0  0  0
  7 36  1  0  0  0  0
  8  9  2  0  0  0  0
  8 10  1  0  0  0  0
 10 11  1  0  0  0  0
 10 37  1  0  0  0  0
 11 16  1  0  0  0  0
 11 12  2  0  0  0  0
 12 13  1  0  0  0  0
 12 38  1  0  0  0  0
 13 14  2  0  0  0  0
 13 39  1  0  0  0  0
 14 15  1  0  0  0  0
 14 40  1  0  0  0  0
 15 16  2  0  0  0  0
 15 55  1  0  0  0  0
 16 17  1  0  0  0  0
 17 21  1  0  0  0  0
 17 18  1  0  0  0  0
 18 19  1  0  0  0  0
 18 41  1  0  0  0  0
 18 42  1  0  0  0  0
 19 20  1  0  0  0  0
 19 43  1  0  0  0  0
 19 44  1  0  0  0  0
 20 21  1  0  0  0  0
 20 45  1  0  0  0  0
 20 46  1  0  0  0  0
 21 47  1  0  0  0  0
 21 48  1  0  0  0  0
 22 23  1  0  0  0  0
 22 49  1  0  0  0  0
 22 50  1  0  0  0  0
 23 24  1  0  0  0  0
 23 25  1  0  0  0  0
 23 51  1  0  0  0  0
 24 52  1  0  0  0  0
 24 53  1  0  0  0  0
 24 54  1  0  0  0  0
M  CHG  1  15   1
M  END
> <s_m_source_file>
AV-unprocessed.smi

> <i_m_source_file_index>
1244

> <i_lp_mmshare_version>
43012

> <i_f3d_flags>
0

> <s_epik_input>
W0NIM11bQ0BASF0xW0NIMl1OKFtDSDJdW0NASF0oTzEpW0NIM10pW0NIMl1bQ0gyXVtOSF1DKD1PKVtOSF1jMltjSF1bY0hdW2NIXW5jMk4zW0NIMl1bQ0gyXVtDSDJdW0NIMl0z

> <s_epik_cmdline>
J2VwaWtfcHl0aG9uJywgJy1waCcsICc3LjAnLCAnLXRuJywgJzgnLCAnLW1hJywgJzIwMCcsICctbWV0YWxfYmluZGluZycsICctaW1hZScsICc8aW5maWxlLm1hZT4nLCAnLW9tYWUnLCAnPG91dGZpbGUubWFlPic=

> <r_epik_Ionization_Penalty>
1.38385

> <r_epik_Ionization_Penalty_Charging>
1.11784

> <r_epik_Ionization_Penalty_Neutral>
0.26601

> <r_epik_State_Penalty>
1.46794

> <r_epik_Charging_Adjusted_Penalty>
2.58578

> <i_epik_Tot_Q>
1

> <i_epik_Tot_abs_Q>
1

> <r_epik_Metal_State_Penalty>
1.54908

> <b_epik_Metal_Only>
0

> <s_lp_Force_Field>
OPLS_2005

> <r_lp_Energy>
60.8331

> <b_lp_Chiralities_Consistent>
1

> <s_lp_Variant>
AV-unprocessed.smi:1244-10

> <Gold.Version>
5.8.1

> <Gold.Id.Protein>
6NUR|6NUR_protein|mol2

> <Gold.PLP.Fitness>
47.9023

> <Gold.PLP.PLP>
-40.0898

> <Gold.PLP.part.hbond>
-4.0000

> <Gold.PLP.part.metal>
0.0000

> <Gold.PLP.part.buried>
-0.6687

> <Gold.PLP.part.nonpolar>
-40.9871

> <Gold.PLP.part.repulsive>
5.2626

> <Gold.PLP.ligand.clash>
0.0000

> <Gold.PLP.ligand.torsion>
0.8157

> <Gold.PLP.Chemscore.Hbond>
2.7680

> <Gold.PLP.Chemscore.CHOScore>
0.0000

> <Gold.PLP.Chemscore.Metal>
0.0000

> <Gold.Chemscore.Hbonds>
donor molecule, donor type, donor heavy atom, donor atom, acceptor molecule, acceptor atom, score
      L1  H     7    36       P1 10175  0.82
      L1  H    10    37       P1 10175  0.33
      P1  H  7954  7966       L1     9  0.84

> <Gold.PLP.Chemscore.Internal.Correction>
1.1398

> <Gold.Rescore>
     Score         DG    S(hbond)    S(metal)    S(lipo)     H(rot)  DE(clash)    DE(int)     intcor
     15.53     -21.17       2.54        0.00      92.24       1.40       2.95       2.69       ----

> <Gold.Chemscore.Fitness>
15.5303

> <Gold.Chemscore.DG>
-21.1717

> <Gold.Chemscore.ZeroCoef>
-5.4800

> <Gold.Chemscore.Hbond>
2.5420

> <Gold.Chemscore.Metal>
0.0000

> <Gold.Chemscore.Lipo>
92.2351

> <Gold.Chemscore.Internal_Hbond>
0.0000

> <Gold.Chemscore.DEClash>
2.9492

> <Gold.Chemscore.DEInternal>
2.6922

> <Gold.Chemscore.Rot>
1.4023

> <Gold.Chemscore.Internal.Correction>
   9.000000E+99

> <Gold.Chemscore.Hbonds>
donor molecule, donor type, donor heavy atom, donor atom, acceptor molecule, acceptor atom, score
      L1  H     7    36       P1 10175  0.81
      L1  H    10    37       P1 10175  0.33
      P1  H  7954  7966       L1     9  0.82

> <Gold.Chemscore.Hbond.Weighted>
-8.4901

> <Gold.Chemscore.Metal.Weighted>
-0.0000

> <Gold.Chemscore.Lipo.Weighted>
-10.7915

> <Gold.Chemscore.Internal_Hbond.Weighted>
0.0000

> <Gold.Chemscore.DEClash.Weighted>
2.9492

> <Gold.Chemscore.DEInternal.Weighted>
2.6922

> <Gold.Chemscore.Rot.Weighted>
3.5899

> <Gold.Chemscore.Internal.Correction.Weighted>
   9.000000E+99

> <Gold.Protein.RotatedTorsions>
[ 6907 6896 6895 6894 ] final -122.28 input  -60.11 | X-H torsion
[ 7974 7965 7964 7962 ] final   23.02 input  175.53 | X-H torsion
[ 8008 7997 7996 7995 ] final   -2.39 input   59.86 | X-H torsion
[ 10167 10162 10161 10158 ] final -110.23 input  -65.29 | X-H torsion
[ 10718 10713 10712 10709 ] final   -0.67 input   66.30 | X-H torsion
[ 10763 10752 10751 10750 ] final   86.02 input  -60.55 | X-H torsion
[ 11005 11000 10999 10996 ] final  -75.09 input  -57.11 | X-H torsion

> <Gold.Protein.ActiveResidues>
 VAL166  LYS551  ARG553  GLY616  TRP617  ASP618  TYR619  PRO620  LYS621  CYS622 
 ASP623  PHE694  ASN695  SER759  ASP760  ASP761  ALA762  ILE779  LEU786  VAL792 
 PHE793  MET794  SER795  GLU796  ALA797  LYS798  CYS799  TRP800  GLU811  SER814 

> <Gold.Protein.RotatedAtoms>
  150.8562  133.7712  159.3007 H   0  0  0  0  0  0  0  0  0  0  0  0  # atno 6907 bound_to 6896
  151.5369  135.1067  159.9926 H   0  0  0  0  0  0  0  0  0  0  0  0  # atno 6908 bound_to 6896
  152.4591  133.7741  159.6871 H   0  0  0  0  0  0  0  0  0  0  0  0  # atno 6909 bound_to 6896
  146.2003  139.7803  142.8766 H   0  0  0  0  0  0  0  0  0  0  0  0  # atno 7974 bound_to 7965
  154.6363  140.2535  155.7374 H   0  0  0  0  0  0  0  0  0  0  0  0  # atno 8008 bound_to 7997
  156.2506  140.2896  156.0657 H   0  0  0  0  0  0  0  0  0  0  0  0  # atno 8009 bound_to 7997
  155.1666  140.0385  157.2844 H   0  0  0  0  0  0  0  0  0  0  0  0  # atno 8010 bound_to 7997
  140.1467  143.4233  152.1524 H   0  0  0  0  0  0  0  0  0  0  0  0  # atno 10167 bound_to 10162
  156.8170  130.5443  149.5702 H   0  0  0  0  0  0  0  0  0  0  0  0  # atno 10718 bound_to 10713
  153.1531  135.4595  154.9664 H   0  0  0  0  0  0  0  0  0  0  0  0  # atno 10763 bound_to 10752
  154.7840  135.3198  154.7930 H   0  0  0  0  0  0  0  0  0  0  0  0  # atno 10764 bound_to 10752
  153.8432  135.6928  153.4855 H   0  0  0  0  0  0  0  0  0  0  0  0  # atno 10765 bound_to 10752
  141.1642  133.6934  156.7463 H   0  0  0  0  0  0  0  0  0  0  0  0  # atno 11005 bound_to 11000
  145.3506  141.0307  143.3340 LP  0  0  0  0  0  0  0  0  0  0  0  0  # atno 17320 bound_to 7965
  144.8669  139.5095  143.6786 LP  0  0  0  0  0  0  0  0  0  0  0  0  # atno 17321 bound_to 7965
  139.5445  144.7286  151.4626 LP  0  0  0  0  0  0  0  0  0  0  0  0  # atno 17342 bound_to 10162
  140.6727  143.8257  150.7020 LP  0  0  0  0  0  0  0  0  0  0  0  0  # atno 17343 bound_to 10162
  156.1011  130.5969  150.9895 LP  0  0  0  0  0  0  0  0  0  0  0  0  # atno 17370 bound_to 10713
  157.6476  131.0901  150.8119 LP  0  0  0  0  0  0  0  0  0  0  0  0  # atno 17371 bound_to 10713
  140.2637  134.8447  157.3782 LP  0  0  0  0  0  0  0  0  0  0  0  0  # atno 17394 bound_to 11000
  140.1587  134.4756  155.7910 LP  0  0  0  0  0  0  0  0  0  0  0  0  # atno 17395 bound_to 11000

$$$$
