AV-unprocessed.smi:169|AV-procd|sdf|1399|dock7
  -GOLD-   2262019143D 1   1.00000     0.00000
 Structure written by MMmdl.
 56 60  0  0  0  0  0  0  0  0  2 V2000
  152.3726  143.5001  159.5122 C   0  0  0  0  0  0  0  0  0  0  0  0
  152.6226  141.9922  159.3282 C   0  0  0  0  0  0  0  0  0  0  0  0
  151.7467  141.3507  158.3121 N   0  3  1  0  0  0  0  0  0  0  0  0
  151.6454  142.1147  157.0433 C   0  0  0  0  0  0  0  0  0  0  0  0
  150.2112  142.0826  156.4825 C   0  0  0  0  0  0  0  0  0  0  0  0
  149.6780  140.6960  156.0641 C   0  0  1  0  0  0  0  0  0  0  0  0
  150.5169  140.0263  154.9698 C   0  0  0  0  0  0  0  0  0  0  0  0
  151.4869  139.1130  155.7282 C   0  0  0  0  0  0  0  0  0  0  0  0
  151.0313  139.1522  157.2016 C   0  0  1  0  0  0  0  0  0  0  0  0
  152.0180  139.8973  158.1357 C   0  0  0  0  0  0  0  0  0  0  0  0
  149.6989  139.7531  157.1809 N   0  0  0  0  0  0  0  0  0  0  0  0
  148.6718  138.8842  157.3736 C   0  0  0  0  0  0  0  0  0  0  0  0
  147.5955  138.8864  156.5432 N   0  0  0  0  0  0  0  0  0  0  0  0
  146.5991  138.0153  156.7264 C   0  0  0  0  0  0  0  0  0  0  0  0
  146.4776  137.0728  157.6628 N   0  0  0  0  0  0  0  0  0  0  0  0
  147.5484  137.0703  158.5063 C   0  0  0  0  0  0  0  0  0  0  0  0
  148.6784  137.9328  158.4318 C   0  0  0  0  0  0  0  0  0  0  0  0
  149.5701  137.6371  159.4559 N   0  0  0  0  0  0  0  0  0  0  0  0
  149.0044  136.6483  160.0927 C   0  0  0  0  0  0  0  0  0  0  0  0
  147.7826  136.2500  159.5967 N   0  0  0  0  0  0  0  0  0  0  0  0
  146.9448  135.1776  160.1140 C   0  0  0  0  0  0  0  0  0  0  0  0
  146.5512  135.3328  161.5964 C   0  0  0  0  0  0  0  0  0  0  0  0
  145.4310  136.3875  161.7124 C   0  0  0  0  0  0  0  0  0  0  0  0
  145.8172  137.6476  161.2005 O   0  0  0  0  0  0  0  0  0  0  0  0
  146.3304  134.0319  162.3820 C   0  0  0  0  0  0  0  0  0  0  0  0
  147.2675  134.4255  163.4088 O   0  0  0  0  0  0  0  0  0  0  0  0
  147.7371  135.4949  162.5594 C   0  0  0  0  0  0  0  0  0  0  0  0
  153.0102  143.8959  160.3031 H   0  0  0  0  0  0  0  0  0  0  0  0
  151.3408  143.7109  159.7929 H   0  0  0  0  0  0  0  0  0  0  0  0
  152.5979  144.0644  158.6079 H   0  0  0  0  0  0  0  0  0  0  0  0
  153.6656  141.8247  159.0570 H   0  0  0  0  0  0  0  0  0  0  0  0
  152.4790  141.4829  160.2819 H   0  0  0  0  0  0  0  0  0  0  0  0
  151.8925  143.1609  157.2289 H   0  0  0  0  0  0  0  0  0  0  0  0
  152.3779  141.7620  156.3169 H   0  0  0  0  0  0  0  0  0  0  0  0
  149.5331  142.5125  157.2209 H   0  0  0  0  0  0  0  0  0  0  0  0
  150.1613  142.7474  155.6194 H   0  0  0  0  0  0  0  0  0  0  0  0
  148.6658  140.8554  155.6912 H   0  0  0  0  0  0  0  0  0  0  0  0
  149.8715  139.4189  154.3339 H   0  0  0  0  0  0  0  0  0  0  0  0
  151.0266  140.7430  154.3252 H   0  0  0  0  0  0  0  0  0  0  0  0
  151.4219  138.0978  155.3347 H   0  0  0  0  0  0  0  0  0  0  0  0
  152.5206  139.4364  155.6034 H   0  0  0  0  0  0  0  0  0  0  0  0
  150.9868  138.1165  157.5423 H   0  0  0  0  0  0  0  0  0  0  0  0
  153.0441  139.7260  157.8114 H   0  0  0  0  0  0  0  0  0  0  0  0
  151.9402  139.4428  159.1242 H   0  0  0  0  0  0  0  0  0  0  0  0
  145.7839  138.0820  156.0209 H   0  0  0  0  0  0  0  0  0  0  0  0
  149.4625  136.1827  160.9533 H   0  0  0  0  0  0  0  0  0  0  0  0
  146.0556  135.1180  159.4849 H   0  0  0  0  0  0  0  0  0  0  0  0
  147.4724  134.2351  159.9628 H   0  0  0  0  0  0  0  0  0  0  0  0
  144.5367  136.0646  161.1788 H   0  0  0  0  0  0  0  0  0  0  0  0
  145.1431  136.5417  162.7524 H   0  0  0  0  0  0  0  0  0  0  0  0
  145.2797  137.8463  160.4489 H   0  0  0  0  0  0  0  0  0  0  0  0
  145.3165  133.9054  162.7625 H   0  0  0  0  0  0  0  0  0  0  0  0
  146.6657  133.1329  161.8640 H   0  0  0  0  0  0  0  0  0  0  0  0
  148.7046  135.2585  162.1139 H   0  0  0  0  0  0  0  0  0  0  0  0
  147.7757  136.4558  163.0734 H   0  0  0  0  0  0  0  0  0  0  0  0
  150.8209  141.3985  158.7136 H   0  0  0  0  0  0  0  0  0  0  0  0
  1  2  1  0  0  0  0
  1 28  1  0  0  0  0
  1 29  1  0  0  0  0
  1 30  1  0  0  0  0
  2  3  1  0  0  0  0
  2 31  1  0  0  0  0
  2 32  1  0  0  0  0
  3 10  1  0  0  0  0
  3  4  1  0  0  0  0
  3 56  1  0  0  0  0
  4  5  1  0  0  0  0
  4 33  1  0  0  0  0
  4 34  1  0  0  0  0
  5  6  1  0  0  0  0
  5 35  1  0  0  0  0
  5 36  1  0  0  0  0
  6 11  1  0  0  0  0
  6  7  1  0  0  0  0
  6 37  1  0  0  0  0
  7  8  1  0  0  0  0
  7 38  1  0  0  0  0
  7 39  1  0  0  0  0
  8  9  1  0  0  0  0
  8 40  1  0  0  0  0
  8 41  1  0  0  0  0
  9 10  1  0  0  0  0
  9 11  1  0  0  0  0
  9 42  1  0  0  0  0
 10 43  1  0  0  0  0
 10 44  1  0  0  0  0
 11 12  1  0  0  0  0
 12 17  1  0  0  0  0
 12 13  2  0  0  0  0
 13 14  1  0  0  0  0
 14 15  2  0  0  0  0
 14 45  1  0  0  0  0
 15 16  1  0  0  0  0
 16 20  1  0  0  0  0
 16 17  2  0  0  0  0
 17 18  1  0  0  0  0
 18 19  2  0  0  0  0
 19 20  1  0  0  0  0
 19 46  1  0  0  0  0
 20 21  1  0  0  0  0
 21 22  1  0  0  0  0
 21 47  1  0  0  0  0
 21 48  1  0  0  0  0
 22 27  1  0  0  0  0
 22 23  1  0  0  0  0
 22 25  1  0  0  0  0
 23 24  1  0  0  0  0
 23 49  1  0  0  0  0
 23 50  1  0  0  0  0
 24 51  1  0  0  0  0
 25 26  1  0  0  0  0
 25 52  1  0  0  0  0
 25 53  1  0  0  0  0
 26 27  1  0  0  0  0
 27 54  1  0  0  0  0
 27 55  1  0  0  0  0
M  CHG  1   3   1
M  END
> <s_m_source_file>
AV-unprocessed.smi

> <i_m_source_file_index>
169

> <i_lp_mmshare_version>
43012

> <i_f3d_flags>
0

> <s_epik_input>
W0NASF0xMltDSDJdW0NIMl1OKFtDSDJdW0NIM10pW0NIMl1bQ0BIXShbQ0gyXVtDSDJdMSlOMmMobltjSF1uMyljKGMzNCluW2NIXW40W0NIMl1DNShbQ0gyXVtPSF0pW0NIMl1PW0NIMl01

> <s_epik_cmdline>
J2VwaWtfcHl0aG9uJywgJy1waCcsICc3LjAnLCAnLXRuJywgJzgnLCAnLW1hJywgJzIwMCcsICctbWV0YWxfYmluZGluZycsICctaW1hZScsICc8aW5maWxlLm1hZT4nLCAnLW9tYWUnLCAnPG91dGZpbGUubWFlPic=

> <r_lp_tautomer_probability>
1

> <r_epik_Ionization_Penalty>
0.00274162

> <r_epik_Ionization_Penalty_Charging>
0.00243722

> <r_epik_Ionization_Penalty_Neutral>
0.000304399

> <r_epik_State_Penalty>
-0

> <r_epik_Charging_Adjusted_Penalty>
0.00243722

> <i_epik_Tot_Q>
1

> <i_epik_Tot_abs_Q>
1

> <r_epik_Metal_State_Penalty>
-0

> <b_epik_Metal_Only>
0

> <s_lp_Force_Field>
OPLS_2005

> <r_lp_Energy>
78.3459

> <b_lp_Chiralities_Consistent>
1

> <s_lp_Variant>
AV-unprocessed.smi:169-2

> <Gold.Version>
5.8.1

> <Gold.Id.Protein>
6NUR|6NUR_protein|mol2

> <Gold.PLP.Fitness>
41.0329

> <Gold.PLP.PLP>
-38.5544

> <Gold.PLP.part.hbond>
-3.7114

> <Gold.PLP.part.metal>
0.0000

> <Gold.PLP.part.buried>
-2.9955

> <Gold.PLP.part.nonpolar>
-32.3513

> <Gold.PLP.part.repulsive>
0.1210

> <Gold.PLP.ligand.clash>
0.0000

> <Gold.PLP.ligand.torsion>
0.5212

> <Gold.PLP.Chemscore.Hbond>
1.0000

> <Gold.PLP.Chemscore.CHOScore>
0.0000

> <Gold.PLP.Chemscore.Metal>
0.0000

> <Gold.Chemscore.Hbonds>
donor molecule, donor type, donor heavy atom, donor atom, acceptor molecule, acceptor atom, score
      P1  H  6934  6947       L1    24  0.85

> <Gold.PLP.Chemscore.Internal.Correction>
0.5208

> <Gold.Rescore>
     Score         DG    S(hbond)    S(metal)    S(lipo)     H(rot)  DE(clash)    DE(int)     intcor
      7.24     -11.83       0.39        0.00     100.63       2.62       1.71       2.88       ----

> <Gold.Chemscore.Fitness>
7.2424

> <Gold.Chemscore.DG>
-11.8333

> <Gold.Chemscore.ZeroCoef>
-5.4800

> <Gold.Chemscore.Hbond>
0.3861

> <Gold.Chemscore.Metal>
0.0000

> <Gold.Chemscore.Lipo>
100.6327

> <Gold.Chemscore.Internal_Hbond>
0.0000

> <Gold.Chemscore.DEClash>
1.7123

> <Gold.Chemscore.DEInternal>
2.8786

> <Gold.Chemscore.Rot>
2.6212

> <Gold.Chemscore.Internal.Correction>
   9.000000E+99

> <Gold.Chemscore.Hbonds>
donor molecule, donor type, donor heavy atom, donor atom, acceptor molecule, acceptor atom, score
      P1  H  6934  6947       L1    24  0.14

> <Gold.Chemscore.Hbond.Weighted>
-1.2895

> <Gold.Chemscore.Metal.Weighted>
-0.0000

> <Gold.Chemscore.Lipo.Weighted>
-11.7740

> <Gold.Chemscore.Internal_Hbond.Weighted>
0.0000

> <Gold.Chemscore.DEClash.Weighted>
1.7123

> <Gold.Chemscore.DEInternal.Weighted>
2.8786

> <Gold.Chemscore.Rot.Weighted>
6.7102

> <Gold.Chemscore.Internal.Correction.Weighted>
   9.000000E+99

> <Gold.Protein.RotatedTorsions>
[ 6907 6896 6895 6894 ] final  -23.41 input  -60.11 | X-H torsion
[ 7974 7965 7964 7962 ] final  -18.44 input  175.53 | X-H torsion
[ 8008 7997 7996 7995 ] final  149.38 input   59.86 | X-H torsion
[ 10167 10162 10161 10158 ] final -100.87 input  -65.29 | X-H torsion
[ 10718 10713 10712 10709 ] final  -77.21 input   66.30 | X-H torsion
[ 10763 10752 10751 10750 ] final -149.49 input  -60.55 | X-H torsion
[ 11005 11000 10999 10996 ] final -161.33 input  -57.11 | X-H torsion

> <Gold.Protein.ActiveResidues>
 VAL166  LYS551  ARG553  GLY616  TRP617  ASP618  TYR619  PRO620  LYS621  CYS622 
 ASP623  PHE694  ASN695  SER759  ASP760  ASP761  ALA762  ILE779  LEU786  VAL792 
 PHE793  MET794  SER795  GLU796  ALA797  LYS798  CYS799  TRP800  GLU811  SER814 

> <Gold.Protein.RotatedAtoms>
  151.2043  135.0455  159.8884 H   0  0  0  0  0  0  0  0  0  0  0  0  # atno 6907 bound_to 6896
  152.5430  134.0815  159.8247 H   0  0  0  0  0  0  0  0  0  0  0  0  # atno 6908 bound_to 6896
  151.0960  133.5232  159.2644 H   0  0  0  0  0  0  0  0  0  0  0  0  # atno 6909 bound_to 6896
  146.1892  140.3922  142.8464 H   0  0  0  0  0  0  0  0  0  0  0  0  # atno 7974 bound_to 7965
  156.2757  140.2103  156.5849 H   0  0  0  0  0  0  0  0  0  0  0  0  # atno 8008 bound_to 7997
  154.7029  140.0519  157.0498 H   0  0  0  0  0  0  0  0  0  0  0  0  # atno 8009 bound_to 7997
  155.0711  140.3177  155.4633 H   0  0  0  0  0  0  0  0  0  0  0  0  # atno 8010 bound_to 7997
  140.2473  143.3497  152.0747 H   0  0  0  0  0  0  0  0  0  0  0  0  # atno 10167 bound_to 10162
  156.0152  130.4485  150.3310 H   0  0  0  0  0  0  0  0  0  0  0  0  # atno 10718 bound_to 10713
  154.8174  135.3308  154.7137 H   0  0  0  0  0  0  0  0  0  0  0  0  # atno 10763 bound_to 10752
  153.7776  135.6921  153.4899 H   0  0  0  0  0  0  0  0  0  0  0  0  # atno 10764 bound_to 10752
  153.2002  135.4519  155.0205 H   0  0  0  0  0  0  0  0  0  0  0  0  # atno 10765 bound_to 10752
  140.6215  134.4745  157.5224 H   0  0  0  0  0  0  0  0  0  0  0  0  # atno 11005 bound_to 11000
  144.8454  140.6920  143.6203 LP  0  0  0  0  0  0  0  0  0  0  0  0  # atno 17320 bound_to 7965
  145.3846  139.1629  143.4262 LP  0  0  0  0  0  0  0  0  0  0  0  0  # atno 17321 bound_to 7965
  139.5057  144.6801  151.6031 LP  0  0  0  0  0  0  0  0  0  0  0  0  # atno 17342 bound_to 10162
  140.6068  143.9510  150.6424 LP  0  0  0  0  0  0  0  0  0  0  0  0  # atno 17343 bound_to 10162
  157.1408  131.0296  151.2928 LP  0  0  0  0  0  0  0  0  0  0  0  0  # atno 17370 bound_to 10713
  157.4473  130.7578  149.7121 LP  0  0  0  0  0  0  0  0  0  0  0  0  # atno 17371 bound_to 10713
  139.9151  134.8262  156.1393 LP  0  0  0  0  0  0  0  0  0  0  0  0  # atno 17394 bound_to 11000
  141.0739  133.6784  156.2196 LP  0  0  0  0  0  0  0  0  0  0  0  0  # atno 17395 bound_to 11000

$$$$
