AV-unprocessed.smi:648|AV-procd|sdf|3175|dock5
  -GOLD-   22720 0103D 1   1.00000     0.00000
 Structure written by MMmdl.
 45 46  0  0  0  0  0  0  0  0  1 V2000
  141.8425  135.0939  153.5251 C   0  0  0  0  0  0  0  0  0  0  0  0
  143.2075  134.6484  152.9799 C   0  0  1  0  0  0  0  0  0  0  0  0
  143.0457  133.8458  151.6749 C   0  0  0  0  0  0  0  0  0  0  0  0
  144.3838  133.3498  151.0785 C   0  0  0  0  0  0  0  0  0  0  0  0
  144.9130  132.1276  151.8645 C   0  0  0  0  0  0  0  0  0  0  0  0
  144.1212  132.8578  149.6379 C   0  0  0  0  0  0  0  0  0  0  0  0
  145.4120  134.5209  151.0017 C   0  0  0  0  0  0  0  0  0  0  0  0
  145.5465  135.4679  152.2368 C   0  0  1  0  0  0  0  0  0  0  0  0
  146.3826  134.7929  153.3588 C   0  0  0  0  0  0  0  0  0  0  0  0
  147.5750  134.2139  152.8626 O   0  0  0  0  0  0  0  0  0  0  0  0
  146.3260  136.6663  151.8489 N   0  0  0  0  0  0  0  0  0  0  0  0
  146.2908  137.8659  152.6943 C   0  0  0  0  0  0  0  0  0  0  0  0
  147.1291  138.9879  152.0675 C   0  0  0  0  0  0  0  0  0  0  0  0
  147.4136  140.0412  153.0218 N   0  0  0  0  0  0  0  0  0  0  0  0
  146.5953  140.7475  153.8036 C   0  0  0  0  0  0  0  0  0  0  0  0
  147.2172  141.6397  154.5621 N   0  0  0  0  0  0  0  0  0  0  0  0
  148.5066  141.4125  154.1700 C   0  0  0  0  0  0  0  0  0  0  0  0
  148.6795  140.4634  153.2498 N   0  0  0  0  0  0  0  0  0  0  0  0
  144.1264  135.8588  152.7359 C   0  0  0  0  0  0  0  0  0  0  0  0
  141.3257  135.7450  152.8193 H   0  0  0  0  0  0  0  0  0  0  0  0
  141.9532  135.6405  154.4619 H   0  0  0  0  0  0  0  0  0  0  0  0
  141.1982  134.2361  153.7196 H   0  0  0  0  0  0  0  0  0  0  0  0
  143.6545  134.0107  153.7412 H   0  0  0  0  0  0  0  0  0  0  0  0
  142.3799  132.9976  151.8412 H   0  0  0  0  0  0  0  0  0  0  0  0
  142.5399  134.4796  150.9446 H   0  0  0  0  0  0  0  0  0  0  0  0
  145.9433  131.8937  151.5949 H   0  0  0  0  0  0  0  0  0  0  0  0
  144.3166  131.2393  151.6523 H   0  0  0  0  0  0  0  0  0  0  0  0
  144.8658  132.2520  152.9424 H   0  0  0  0  0  0  0  0  0  0  0  0
  145.0350  132.4852  149.1736 H   0  0  0  0  0  0  0  0  0  0  0  0
  143.7335  133.6541  149.0013 H   0  0  0  0  0  0  0  0  0  0  0  0
  143.3900  132.0488  149.6177 H   0  0  0  0  0  0  0  0  0  0  0  0
  146.3939  134.1331  150.7267 H   0  0  0  0  0  0  0  0  0  0  0  0
  145.1077  135.1230  150.1481 H   0  0  0  0  0  0  0  0  0  0  0  0
  146.6872  135.4906  154.1291 H   0  0  0  0  0  0  0  0  0  0  0  0
  145.8012  134.0171  153.8590 H   0  0  0  0  0  0  0  0  0  0  0  0
  148.0690  134.8835  152.4144 H   0  0  0  0  0  0  0  0  0  0  0  0
  147.2902  136.3959  151.6809 H   0  0  0  0  0  0  0  0  0  0  0  0
  145.2731  138.2231  152.8399 H   0  0  0  0  0  0  0  0  0  0  0  0
  146.6990  137.6491  153.6808 H   0  0  0  0  0  0  0  0  0  0  0  0
  148.0766  138.5939  151.6969 H   0  0  0  0  0  0  0  0  0  0  0  0
  146.6093  139.4241  151.2132 H   0  0  0  0  0  0  0  0  0  0  0  0
  145.5243  140.6070  153.8176 H   0  0  0  0  0  0  0  0  0  0  0  0
  149.3428  141.9627  154.5758 H   0  0  0  0  0  0  0  0  0  0  0  0
  143.6251  136.4825  151.9965 H   0  0  0  0  0  0  0  0  0  0  0  0
  144.1917  136.4678  153.6382 H   0  0  0  0  0  0  0  0  0  0  0  0
  1  2  1  0  0  0  0
  1 20  1  0  0  0  0
  1 21  1  0  0  0  0
  1 22  1  0  0  0  0
  2 19  1  0  0  0  0
  2  3  1  0  0  0  0
  2 23  1  0  0  0  0
  3  4  1  0  0  0  0
  3 24  1  0  0  0  0
  3 25  1  0  0  0  0
  4  5  1  0  0  0  0
  4  6  1  0  0  0  0
  4  7  1  0  0  0  0
  5 26  1  0  0  0  0
  5 27  1  0  0  0  0
  5 28  1  0  0  0  0
  6 29  1  0  0  0  0
  6 30  1  0  0  0  0
  6 31  1  0  0  0  0
  7  8  1  0  0  0  0
  7 32  1  0  0  0  0
  7 33  1  0  0  0  0
  8  9  1  0  0  0  0
  8 11  1  0  0  0  0
  8 19  1  0  0  0  0
  9 10  1  0  0  0  0
  9 34  1  0  0  0  0
  9 35  1  0  0  0  0
 10 36  1  0  0  0  0
 11 12  1  0  0  0  0
 11 37  1  0  0  0  0
 12 13  1  0  0  0  0
 12 38  1  0  0  0  0
 12 39  1  0  0  0  0
 13 14  1  0  0  0  0
 13 40  1  0  0  0  0
 13 41  1  0  0  0  0
 14 18  1  0  0  0  0
 14 15  1  0  0  0  0
 15 16  2  0  0  0  0
 15 42  1  0  0  0  0
 16 17  1  0  0  0  0
 17 18  2  0  0  0  0
 17 43  1  0  0  0  0
 19 44  1  0  0  0  0
 19 45  1  0  0  0  0
M  END
> <s_m_source_file>
AV-unprocessed.smi

> <i_m_source_file_index>
648

> <i_lp_mmshare_version>
43012

> <i_f3d_flags>
0

> <s_epik_input>
W0NIM11DMShbQ0gzXSlbQ0gyXVtDQEBIXShbQ0gzXSlbQ0gyXVtDQF0oW0NIMl0xKShbQ0gyXVtPSF0pW05IXVtDSDJdW0NIMl1uMltjSF1uW2NIXW4y

> <s_epik_cmdline>
J2VwaWtfcHl0aG9uJywgJy1waCcsICc3LjAnLCAnLXRuJywgJzgnLCAnLW1hJywgJzIwMCcsICctbWV0YWxfYmluZGluZycsICctaW1hZScsICc8aW5maWxlLm1hZT4nLCAnLW9tYWUnLCAnPG91dGZpbGUubWFlPic=

> <r_lp_tautomer_probability>
1

> <r_epik_Ionization_Penalty>
2.45849

> <r_epik_Ionization_Penalty_Charging>
0

> <r_epik_Ionization_Penalty_Neutral>
2.45849

> <r_epik_State_Penalty>
2.62037

> <r_epik_Charging_Adjusted_Penalty>
2.62037

> <i_epik_Tot_Q>
0

> <i_epik_Tot_abs_Q>
0

> <r_epik_Metal_State_Penalty>
2.62024

> <b_epik_Metal_Only>
0

> <s_lp_Force_Field>
OPLS_2005

> <r_lp_Energy>
36.0578

> <b_lp_Chiralities_Consistent>
1

> <s_lp_Variant>
AV-unprocessed.smi:648-6

> <Gold.Version>
5.8.1

> <Gold.Id.Protein>
6NUR|6NUR_protein|mol2

> <Gold.PLP.Fitness>
41.9740

> <Gold.PLP.PLP>
-30.7524

> <Gold.PLP.part.hbond>
-1.9518

> <Gold.PLP.part.metal>
0.0000

> <Gold.PLP.part.buried>
-1.4555

> <Gold.PLP.part.nonpolar>
-28.7771

> <Gold.PLP.part.repulsive>
1.8314

> <Gold.PLP.ligand.clash>
0.0000

> <Gold.PLP.ligand.torsion>
0.4188

> <Gold.PLP.Chemscore.Hbond>
2.0000

> <Gold.PLP.Chemscore.CHOScore>
1.9966

> <Gold.PLP.Chemscore.Metal>
0.0000

> <Gold.Chemscore.Hbonds>
donor molecule, donor type, donor heavy atom, donor atom, acceptor molecule, acceptor atom, score
      L1  H    10    36       P1  7948  1.00
      L1  H    11    37       P1  7948  1.00
      L1  C    15    42       P1 10175  1.00

> <Gold.PLP.Chemscore.Internal.Correction>
0.0694

> <Gold.Rescore>
     Score         DG    S(hbond)    S(metal)    S(lipo)     H(rot)  DE(clash)    DE(int)     intcor
     10.72     -11.31       1.98        0.00      61.40       3.12       0.05       0.54       ----

> <Gold.Chemscore.Fitness>
10.7181

> <Gold.Chemscore.DG>
-11.3068

> <Gold.Chemscore.ZeroCoef>
-5.4800

> <Gold.Chemscore.Hbond>
1.9836

> <Gold.Chemscore.Metal>
0.0000

> <Gold.Chemscore.Lipo>
61.4046

> <Gold.Chemscore.Internal_Hbond>
0.0000

> <Gold.Chemscore.DEClash>
0.0453

> <Gold.Chemscore.DEInternal>
0.5434

> <Gold.Chemscore.Rot>
3.1183

> <Gold.Chemscore.Internal.Correction>
   9.000000E+99

> <Gold.Chemscore.Hbonds>
donor molecule, donor type, donor heavy atom, donor atom, acceptor molecule, acceptor atom, score
      L1  H    10    36       P1  7948  0.65
      L1  H    11    37       P1  7948  1.00

> <Gold.Chemscore.Hbond.Weighted>
-6.6254

> <Gold.Chemscore.Metal.Weighted>
-0.0000

> <Gold.Chemscore.Lipo.Weighted>
-7.1843

> <Gold.Chemscore.Internal_Hbond.Weighted>
0.0000

> <Gold.Chemscore.DEClash.Weighted>
0.0453

> <Gold.Chemscore.DEInternal.Weighted>
0.5434

> <Gold.Chemscore.Rot.Weighted>
7.9829

> <Gold.Chemscore.Internal.Correction.Weighted>
   9.000000E+99

> <Gold.Protein.RotatedTorsions>
[ 6907 6896 6895 6894 ] final -179.89 input  -60.11 | X-H torsion
[ 7974 7965 7964 7962 ] final -140.18 input  175.53 | X-H torsion
[ 8008 7997 7996 7995 ] final -138.56 input   59.86 | X-H torsion
[ 10167 10162 10161 10158 ] final  -96.02 input  -65.29 | X-H torsion
[ 10718 10713 10712 10709 ] final -176.98 input   66.30 | X-H torsion
[ 10763 10752 10751 10750 ] final  114.80 input  -60.55 | X-H torsion
[ 11005 11000 10999 10996 ] final  -27.74 input  -57.11 | X-H torsion

> <Gold.Protein.ActiveResidues>
 VAL166  LYS551  ARG553  GLY616  TRP617  ASP618  TYR619  PRO620  LYS621  CYS622 
 ASP623  PHE694  ASN695  SER759  ASP760  ASP761  ALA762  ILE779  LEU786  VAL792 
 PHE793  MET794  SER795  GLU796  ALA797  LYS798  CYS799  TRP800  GLU811  SER814 

> <Gold.Protein.RotatedAtoms>
  151.6608  133.3317  159.3173 H   0  0  0  0  0  0  0  0  0  0  0  0  # atno 6907 bound_to 6896
  150.7914  134.6945  159.6525 H   0  0  0  0  0  0  0  0  0  0  0  0  # atno 6908 bound_to 6896
  152.3995  134.6314  160.0128 H   0  0  0  0  0  0  0  0  0  0  0  0  # atno 6909 bound_to 6896
  144.8617  140.6230  143.5324 H   0  0  0  0  0  0  0  0  0  0  0  0  # atno 7974 bound_to 7965
  155.4304  140.0524  157.3019 H   0  0  0  0  0  0  0  0  0  0  0  0  # atno 8008 bound_to 7997
  154.4862  140.2102  155.9607 H   0  0  0  0  0  0  0  0  0  0  0  0  # atno 8009 bound_to 7997
  156.1278  140.3177  155.8309 H   0  0  0  0  0  0  0  0  0  0  0  0  # atno 8010 bound_to 7997
  140.2982  143.3179  152.0276 H   0  0  0  0  0  0  0  0  0  0  0  0  # atno 10167 bound_to 10162
  156.8227  130.9625  151.3111 H   0  0  0  0  0  0  0  0  0  0  0  0  # atno 10718 bound_to 10713
  153.5126  135.3614  155.2594 H   0  0  0  0  0  0  0  0  0  0  0  0  # atno 10763 bound_to 10752
  154.8741  135.4026  154.3351 H   0  0  0  0  0  0  0  0  0  0  0  0  # atno 10764 bound_to 10752
  153.4007  135.7075  153.6495 H   0  0  0  0  0  0  0  0  0  0  0  0  # atno 10765 bound_to 10752
  140.9146  133.7438  156.0718 H   0  0  0  0  0  0  0  0  0  0  0  0  # atno 11005 bound_to 11000
  145.4299  139.1551  143.4028 LP  0  0  0  0  0  0  0  0  0  0  0  0  # atno 17320 bound_to 7965
  146.2866  140.4414  142.8756 LP  0  0  0  0  0  0  0  0  0  0  0  0  # atno 17321 bound_to 7965
  139.4921  144.6475  151.6746 LP  0  0  0  0  0  0  0  0  0  0  0  0  # atno 17342 bound_to 10162
  140.5674  144.0166  150.6199 LP  0  0  0  0  0  0  0  0  0  0  0  0  # atno 17343 bound_to 10162
  157.6448  130.8835  149.9518 LP  0  0  0  0  0  0  0  0  0  0  0  0  # atno 17370 bound_to 10713
  156.0979  130.3658  150.0271 LP  0  0  0  0  0  0  0  0  0  0  0  0  # atno 17371 bound_to 10713
  140.8066  134.3448  157.5424 LP  0  0  0  0  0  0  0  0  0  0  0  0  # atno 17394 bound_to 11000
  139.8764  134.9229  156.3312 LP  0  0  0  0  0  0  0  0  0  0  0  0  # atno 17395 bound_to 11000

$$$$
