AV-unprocessed.smi:240|AV-procd|sdf|1831|dock4
  -GOLD-   2262020433D 1   1.00000     0.00000
 Structure written by MMmdl.
 55 59  0  0  0  0  0  0  0  0  1 V2000
  148.3000  142.1007  158.0215 O   0  0  0  0  0  0  0  0  0  0  0  0
  148.9282  141.1715  157.1622 C   0  0  1  0  0  0  0  0  0  0  0  0
  148.0400  140.8281  155.9670 C   0  0  0  0  0  0  0  0  0  0  0  0
  149.0119  140.2885  154.9130 C   0  0  0  0  0  0  0  0  0  0  0  0
  150.3826  140.9082  155.2321 C   0  0  0  0  0  0  0  0  0  0  0  0
  150.1913  141.7494  156.5091 C   0  0  2  0  0  0  0  0  0  0  0  0
  151.4385  141.8846  157.4349 C   0  0  1  0  0  0  0  0  0  0  0  0
  151.3556  143.0758  158.4237 C   0  0  0  0  0  0  0  0  0  0  0  0
  152.5357  143.1424  159.2161 O   0  0  0  0  0  0  0  0  0  0  0  0
  152.7077  141.9760  160.0091 C   0  0  0  0  0  0  0  0  0  0  0  0
  152.8692  140.7647  159.0819 C   0  0  0  0  0  0  0  0  0  0  0  0
  151.7238  140.6537  158.1861 N   0  0  0  0  0  0  0  0  0  0  0  0
  151.7828  139.4987  157.4850 C   0  0  0  0  0  0  0  0  0  0  0  0
  152.7350  139.4124  156.5239 N   0  0  0  0  0  0  0  0  0  0  0  0
  152.8515  138.2968  155.7975 C   0  0  0  0  0  0  0  0  0  0  0  0
  152.1275  137.1774  155.8644 N   0  0  0  0  0  0  0  0  0  0  0  0
  151.1591  137.2674  156.8212 C   0  0  0  0  0  0  0  0  0  0  0  0
  150.9179  138.3823  157.6718 C   0  0  0  0  0  0  0  0  0  0  0  0
  149.8521  138.1079  158.5203 N   0  0  0  0  0  0  0  0  0  0  0  0
  149.4898  136.8973  158.1955 C   0  0  0  0  0  0  0  0  0  0  0  0
  150.2125  136.3212  157.1749 N   0  0  0  0  0  0  0  0  0  0  0  0
  150.0222  134.9945  156.6081 C   0  0  0  0  0  0  0  0  0  0  0  0
  149.1090  134.9781  155.3590 C   0  0  1  0  0  0  0  0  0  0  0  0
  149.4956  136.0244  154.4845 O   0  0  0  0  0  0  0  0  0  0  0  0
  149.1822  133.6630  154.5923 C   0  0  0  0  0  0  0  0  0  0  0  0
  147.8009  133.5636  153.9599 C   0  0  0  0  0  0  0  0  0  0  0  0
  146.9506  134.0452  154.9863 O   0  0  0  0  0  0  0  0  0  0  0  0
  147.6012  135.1211  155.6562 C   0  0  0  0  0  0  0  0  0  0  0  0
  147.4511  141.7622  158.2622 H   0  0  0  0  0  0  0  0  0  0  0  0
  149.1441  140.2563  157.7118 H   0  0  0  0  0  0  0  0  0  0  0  0
  147.2524  140.1167  156.2169 H   0  0  0  0  0  0  0  0  0  0  0  0
  147.5611  141.7314  155.5853 H   0  0  0  0  0  0  0  0  0  0  0  0
  149.0757  139.2024  154.9894 H   0  0  0  0  0  0  0  0  0  0  0  0
  148.6795  140.5252  153.9017 H   0  0  0  0  0  0  0  0  0  0  0  0
  151.1160  140.1149  155.3682 H   0  0  0  0  0  0  0  0  0  0  0  0
  150.7391  141.5301  154.4102 H   0  0  0  0  0  0  0  0  0  0  0  0
  149.9064  142.7472  156.1712 H   0  0  0  0  0  0  0  0  0  0  0  0
  152.2983  142.0798  156.7943 H   0  0  0  0  0  0  0  0  0  0  0  0
  151.2746  144.0213  157.8904 H   0  0  0  0  0  0  0  0  0  0  0  0
  150.4874  143.0046  159.0788 H   0  0  0  0  0  0  0  0  0  0  0  0
  153.5951  142.0949  160.6309 H   0  0  0  0  0  0  0  0  0  0  0  0
  151.8590  141.8448  160.6825 H   0  0  0  0  0  0  0  0  0  0  0  0
  153.7832  140.8669  158.4948 H   0  0  0  0  0  0  0  0  0  0  0  0
  152.9689  139.8565  159.6783 H   0  0  0  0  0  0  0  0  0  0  0  0
  153.6380  138.3012  155.0572 H   0  0  0  0  0  0  0  0  0  0  0  0
  148.6761  136.3910  158.6941 H   0  0  0  0  0  0  0  0  0  0  0  0
  151.0022  134.5836  156.3620 H   0  0  0  0  0  0  0  0  0  0  0  0
  149.6085  134.3504  157.3852 H   0  0  0  0  0  0  0  0  0  0  0  0
  149.1775  135.8240  153.6177 H   0  0  0  0  0  0  0  0  0  0  0  0
  149.9928  133.6233  153.8633 H   0  0  0  0  0  0  0  0  0  0  0  0
  149.3167  132.8290  155.2826 H   0  0  0  0  0  0  0  0  0  0  0  0
  147.7221  134.2095  153.0841 H   0  0  0  0  0  0  0  0  0  0  0  0
  147.5416  132.5464  153.6655 H   0  0  0  0  0  0  0  0  0  0  0  0
  147.3771  135.0379  156.7191 H   0  0  0  0  0  0  0  0  0  0  0  0
  147.1996  136.0753  155.3111 H   0  0  0  0  0  0  0  0  0  0  0  0
  1  2  1  0  0  0  0
  1 29  1  0  0  0  0
  2  6  1  0  0  0  0
  2  3  1  0  0  0  0
  2 30  1  0  0  0  0
  3  4  1  0  0  0  0
  3 31  1  0  0  0  0
  3 32  1  0  0  0  0
  4  5  1  0  0  0  0
  4 33  1  0  0  0  0
  4 34  1  0  0  0  0
  5  6  1  0  0  0  0
  5 35  1  0  0  0  0
  5 36  1  0  0  0  0
  6  7  1  0  0  0  0
  6 37  1  0  0  0  0
  7 12  1  0  0  0  0
  7  8  1  0  0  0  0
  7 38  1  0  0  0  0
  8  9  1  0  0  0  0
  8 39  1  0  0  0  0
  8 40  1  0  0  0  0
  9 10  1  0  0  0  0
 10 11  1  0  0  0  0
 10 41  1  0  0  0  0
 10 42  1  0  0  0  0
 11 12  1  0  0  0  0
 11 43  1  0  0  0  0
 11 44  1  0  0  0  0
 12 13  1  0  0  0  0
 13 18  1  0  0  0  0
 13 14  2  0  0  0  0
 14 15  1  0  0  0  0
 15 16  2  0  0  0  0
 15 45  1  0  0  0  0
 16 17  1  0  0  0  0
 17 21  1  0  0  0  0
 17 18  2  0  0  0  0
 18 19  1  0  0  0  0
 19 20  2  0  0  0  0
 20 21  1  0  0  0  0
 20 46  1  0  0  0  0
 21 22  1  0  0  0  0
 22 23  1  0  0  0  0
 22 47  1  0  0  0  0
 22 48  1  0  0  0  0
 23 28  1  0  0  0  0
 23 24  1  0  0  0  0
 23 25  1  0  0  0  0
 24 49  1  0  0  0  0
 25 26  1  0  0  0  0
 25 50  1  0  0  0  0
 25 51  1  0  0  0  0
 26 27  1  0  0  0  0
 26 52  1  0  0  0  0
 26 53  1  0  0  0  0
 27 28  1  0  0  0  0
 28 54  1  0  0  0  0
 28 55  1  0  0  0  0
M  END
> <s_m_source_file>
AV-unprocessed.smi

> <i_m_source_file_index>
240

> <i_lp_mmshare_version>
43012

> <i_f3d_flags>
0

> <s_epik_input>
W09IXVtDQEBIXTFbQ0gyXVtDSDJdW0NIMl1bQ0BIXTFbQ0BASF0yW0NIMl1PW0NIMl1bQ0gyXU4yYyhuW2NIXW4zKWMoYzM0KW5bY0hdbjRbQ0gyXVtDQEBdNShbT0hdKVtDSDJdW0NIMl1PW0NIMl01

> <s_epik_cmdline>
J2VwaWtfcHl0aG9uJywgJy1waCcsICc3LjAnLCAnLXRuJywgJzgnLCAnLW1hJywgJzIwMCcsICctbWV0YWxfYmluZGluZycsICctaW1hZScsICc8aW5maWxlLm1hZT4nLCAnLW9tYWUnLCAnPG91dGZpbGUubWFlPic=

> <r_lp_tautomer_probability>
1

> <r_epik_Ionization_Penalty>
0.000130618

> <r_epik_Ionization_Penalty_Charging>
0

> <r_epik_Ionization_Penalty_Neutral>
0.000130618

> <r_epik_State_Penalty>
-0

> <r_epik_Charging_Adjusted_Penalty>
0

> <i_epik_Tot_Q>
0

> <i_epik_Tot_abs_Q>
0

> <r_epik_Metal_State_Penalty>
-0

> <b_epik_Metal_Only>
0

> <s_lp_Force_Field>
OPLS_2005

> <r_lp_Energy>
62.0257

> <b_lp_Chiralities_Consistent>
1

> <s_lp_Variant>
AV-unprocessed.smi:240-8

> <Gold.Version>
5.8.1

> <Gold.Id.Protein>
6NUR|6NUR_protein|mol2

> <Gold.PLP.Fitness>
43.7830

> <Gold.PLP.PLP>
-36.9258

> <Gold.PLP.part.hbond>
-3.6706

> <Gold.PLP.part.metal>
0.0000

> <Gold.PLP.part.buried>
-5.6778

> <Gold.PLP.part.nonpolar>
-27.4188

> <Gold.PLP.part.repulsive>
0.0632

> <Gold.PLP.ligand.clash>
0.0000

> <Gold.PLP.ligand.torsion>
0.8503

> <Gold.PLP.Chemscore.Hbond>
2.7840

> <Gold.PLP.Chemscore.CHOScore>
0.0000

> <Gold.PLP.Chemscore.Metal>
0.0000

> <Gold.Chemscore.Hbonds>
donor molecule, donor type, donor heavy atom, donor atom, acceptor molecule, acceptor atom, score
      L1  H    24    49       P1  7948  1.00
      P1  H  7997  8010       L1    14  1.00
      P1  H 10752 10764       L1    16  0.72

> <Gold.PLP.Chemscore.Internal.Correction>
0.2057

> <Gold.Rescore>
     Score         DG    S(hbond)    S(metal)    S(lipo)     H(rot)  DE(clash)    DE(int)     intcor
     13.92     -15.32       2.36        0.00      82.47       3.00       0.39       1.01       ----

> <Gold.Chemscore.Fitness>
13.9224

> <Gold.Chemscore.DG>
-15.3237

> <Gold.Chemscore.ZeroCoef>
-5.4800

> <Gold.Chemscore.Hbond>
2.3606

> <Gold.Chemscore.Metal>
0.0000

> <Gold.Chemscore.Lipo>
82.4717

> <Gold.Chemscore.Internal_Hbond>
0.0000

> <Gold.Chemscore.DEClash>
0.3873

> <Gold.Chemscore.DEInternal>
1.0141

> <Gold.Chemscore.Rot>
3.0039

> <Gold.Chemscore.Internal.Correction>
   9.000000E+99

> <Gold.Chemscore.Hbonds>
donor molecule, donor type, donor heavy atom, donor atom, acceptor molecule, acceptor atom, score
      L1  H    24    49       P1  7948  0.75
      P1  H  7997  8010       L1    14  0.35
      P1  H 10752 10764       L1    16  0.59

> <Gold.Chemscore.Hbond.Weighted>
-7.8844

> <Gold.Chemscore.Metal.Weighted>
-0.0000

> <Gold.Chemscore.Lipo.Weighted>
-9.6492

> <Gold.Chemscore.Internal_Hbond.Weighted>
0.0000

> <Gold.Chemscore.DEClash.Weighted>
0.3873

> <Gold.Chemscore.DEInternal.Weighted>
1.0141

> <Gold.Chemscore.Rot.Weighted>
7.6899

> <Gold.Chemscore.Internal.Correction.Weighted>
   9.000000E+99

> <Gold.Protein.RotatedTorsions>
[ 6907 6896 6895 6894 ] final -110.77 input  -60.11 | X-H torsion
[ 7974 7965 7964 7962 ] final  178.95 input  175.53 | X-H torsion
[ 8008 7997 7996 7995 ] final   73.95 input   59.86 | X-H torsion
[ 10167 10162 10161 10158 ] final  -20.84 input  -65.29 | X-H torsion
[ 10718 10713 10712 10709 ] final   22.83 input   66.30 | X-H torsion
[ 10763 10752 10751 10750 ] final  -43.14 input  -60.55 | X-H torsion
[ 11005 11000 10999 10996 ] final   79.51 input  -57.11 | X-H torsion

> <Gold.Protein.ActiveResidues>
 VAL166  LYS551  ARG553  GLY616  TRP617  ASP618  TYR619  PRO620  LYS621  CYS622 
 ASP623  PHE694  ASN695  SER759  ASP760  ASP761  ALA762  ILE779  LEU786  VAL792 
 PHE793  MET794  SER795  GLU796  ALA797  LYS798  CYS799  TRP800  GLU811  SER814 

> <Gold.Protein.RotatedAtoms>
  150.7646  133.9333  159.3433 H   0  0  0  0  0  0  0  0  0  0  0  0  # atno 6907 bound_to 6896
  151.7234  135.0888  160.0297 H   0  0  0  0  0  0  0  0  0  0  0  0  # atno 6908 bound_to 6896
  152.3636  133.6290  159.6069 H   0  0  0  0  0  0  0  0  0  0  0  0  # atno 6909 bound_to 6896
  144.7150  140.0474  143.6436 H   0  0  0  0  0  0  0  0  0  0  0  0  # atno 7974 bound_to 7965
  155.7913  140.3479  155.5351 H   0  0  0  0  0  0  0  0  0  0  0  0  # atno 8008 bound_to 7997
  155.8631  140.0974  157.1620 H   0  0  0  0  0  0  0  0  0  0  0  0  # atno 8009 bound_to 7997
  154.4013  140.1354  156.3973 H   0  0  0  0  0  0  0  0  0  0  0  0  # atno 8010 bound_to 7997
  140.7278  143.4684  151.0281 H   0  0  0  0  0  0  0  0  0  0  0  0  # atno 10167 bound_to 10162
  157.1578  130.6703  149.6033 H   0  0  0  0  0  0  0  0  0  0  0  0  # atno 10718 bound_to 10713
  153.9907  135.6705  153.4754 H   0  0  0  0  0  0  0  0  0  0  0  0  # atno 10763 bound_to 10752
  153.0706  135.4976  154.8293 H   0  0  0  0  0  0  0  0  0  0  0  0  # atno 10764 bound_to 10752
  154.7111  135.3097  154.9158 H   0  0  0  0  0  0  0  0  0  0  0  0  # atno 10765 bound_to 10752
  139.9170  134.7848  156.1788 H   0  0  0  0  0  0  0  0  0  0  0  0  # atno 11005 bound_to 11000
  145.9972  139.3062  143.0949 LP  0  0  0  0  0  0  0  0  0  0  0  0  # atno 17320 bound_to 7965
  145.8835  140.9348  143.0589 LP  0  0  0  0  0  0  0  0  0  0  0  0  # atno 17321 bound_to 7965
  139.8374  143.7609  152.3180 LP  0  0  0  0  0  0  0  0  0  0  0  0  # atno 17342 bound_to 10162
  139.7746  144.7465  151.0175 LP  0  0  0  0  0  0  0  0  0  0  0  0  # atno 17343 bound_to 10162
  155.9759  130.4722  150.6491 LP  0  0  0  0  0  0  0  0  0  0  0  0  # atno 17370 bound_to 10713
  157.4161  131.0830  151.1175 LP  0  0  0  0  0  0  0  0  0  0  0  0  # atno 17371 bound_to 10713
  141.0655  133.6821  156.2036 LP  0  0  0  0  0  0  0  0  0  0  0  0  # atno 17394 bound_to 11000
  140.6592  134.4985  157.5582 LP  0  0  0  0  0  0  0  0  0  0  0  0  # atno 17395 bound_to 11000

$$$$
