AV-unprocessed.smi:39|AV-procd|sdf|353|dock3
  -GOLD-   2262016193D 1   1.00000     0.00000
 Structure written by MMmdl.
 32 33  0  0  0  0  0  0  0  0  3 V2000
  152.4602  144.4364  160.8401 C   0  0  0  0  0  0  0  0  0  0  0  0
  151.8915  143.5671  159.7308 C   0  0  0  0  0  0  0  0  0  0  0  0
  152.1289  142.2320  159.6574 C   0  0  0  0  0  0  0  0  0  0  0  0
  151.6240  141.4138  158.6560 N   0  0  0  0  0  0  0  0  0  0  0  0
  151.9261  139.9344  158.6093 C   0  0  1  0  0  0  0  0  0  0  0  0
  150.6372  139.1175  158.5982 C   0  0  0  0  0  0  0  0  0  0  0  0
  151.0856  137.8980  157.8182 C   0  0  1  0  0  0  0  0  0  0  0  0
  149.9741  137.1249  157.2559 N   0  0  0  0  0  0  0  0  0  0  0  0
  149.4404  136.2961  158.0051 N   0  3  0  0  0  0  0  0  0  0  0  0
  148.9004  135.6333  158.7562 N   0  5  0  0  0  0  0  0  0  0  0  0
  152.0293  138.5148  156.7685 C   0  0  1  0  0  0  0  0  0  0  0  0
  151.3689  139.0280  155.4705 C   0  0  0  0  0  0  0  0  0  0  0  0
  152.3426  139.4614  154.5436 O   0  0  0  0  0  0  0  0  0  0  0  0
  152.6222  139.6330  157.4343 O   0  0  0  0  0  0  0  0  0  0  0  0
  150.8431  141.9815  157.6285 C   0  0  0  0  0  0  0  0  0  0  0  0
  150.3926  141.3247  156.6905 O   0  0  0  0  0  0  0  0  0  0  0  0
  150.5945  143.3508  157.7055 N   0  0  0  0  0  0  0  0  0  0  0  0
  151.0639  144.2073  158.7045 C   0  0  0  0  0  0  0  0  0  0  0  0
  150.7722  145.4016  158.6670 O   0  0  0  0  0  0  0  0  0  0  0  0
  152.5808  139.7047  159.4523 H   0  0  0  0  0  0  0  0  0  0  0  0
  151.6889  137.2701  158.4780 H   0  0  0  0  0  0  0  0  0  0  0  0
  152.8255  137.8139  156.5144 H   0  0  0  0  0  0  0  0  0  0  0  0
  150.0310  143.7604  156.9746 H   0  0  0  0  0  0  0  0  0  0  0  0
  153.0519  143.8549  161.5476 H   0  0  0  0  0  0  0  0  0  0  0  0
  151.6565  144.9208  161.3959 H   0  0  0  0  0  0  0  0  0  0  0  0
  153.1043  145.2119  160.4238 H   0  0  0  0  0  0  0  0  0  0  0  0
  152.7500  141.7918  160.4217 H   0  0  0  0  0  0  0  0  0  0  0  0
  150.2994  138.8987  159.6117 H   0  0  0  0  0  0  0  0  0  0  0  0
  149.8550  139.6620  158.0664 H   0  0  0  0  0  0  0  0  0  0  0  0
  150.7287  138.2712  155.0168 H   0  0  0  0  0  0  0  0  0  0  0  0
  150.7371  139.8882  155.6932 H   0  0  0  0  0  0  0  0  0  0  0  0
  153.1286  139.6875  155.0168 H   0  0  0  0  0  0  0  0  0  0  0  0
  1  2  1  0  0  0  0
  1 24  1  0  0  0  0
  1 25  1  0  0  0  0
  1 26  1  0  0  0  0
  2 18  1  0  0  0  0
  2  3  2  0  0  0  0
  3  4  1  0  0  0  0
  3 27  1  0  0  0  0
  4  5  1  0  0  0  0
  4 15  1  0  0  0  0
  5 20  1  0  0  0  0
  5 14  1  0  0  0  0
  5  6  1  0  0  0  0
  6  7  1  0  0  0  0
  6 28  1  0  0  0  0
  6 29  1  0  0  0  0
  7 21  1  0  0  0  0
  7  8  1  0  0  0  0
  7 11  1  0  0  0  0
  8  9  2  0  0  0  0
  9 10  2  0  0  0  0
 11 22  1  0  0  0  0
 11 12  1  0  0  0  0
 11 14  1  0  0  0  0
 12 13  1  0  0  0  0
 12 30  1  0  0  0  0
 12 31  1  0  0  0  0
 13 32  1  0  0  0  0
 15 16  2  0  0  0  0
 15 17  1  0  0  0  0
 17 23  1  0  0  0  0
 17 18  1  0  0  0  0
 18 19  2  0  0  0  0
M  CHG  1   9   1
M  CHG  1  10  -1
M  END
> <s_m_source_file>
AV-unprocessed.smi

> <i_m_source_file_index>
39

> <i_lp_mmshare_version>
43012

> <i_f3d_flags>
0

> <s_epik_input>
Tz1jMVtuSF1jKD1PKW4oW2NIXWMxW0NIM10pW0NASF0yW0NIMl1bQ0BIXShOPVtOK109W04tXSlbQ0BIXShPMilbQ0gyXVtPSF0=

> <s_epik_cmdline>
J2VwaWtfcHl0aG9uJywgJy1waCcsICc3LjAnLCAnLXRuJywgJzgnLCAnLW1hJywgJzIwMCcsICctbWV0YWxfYmluZGluZycsICctaW1hZScsICc8aW5maWxlLm1hZT4nLCAnLW9tYWUnLCAnPG91dGZpbGUubWFlPic=

> <r_lp_tautomer_probability>
0.999537

> <r_epik_Ionization_Penalty>
0.00127512

> <r_epik_Ionization_Penalty_Charging>
0.00127507

> <r_epik_Ionization_Penalty_Neutral>
5.43433e-08

> <r_epik_State_Penalty>
0.000844892

> <r_epik_Charging_Adjusted_Penalty>
0.00211996

> <i_epik_Tot_Q>
0

> <i_epik_Tot_abs_Q>
2

> <r_epik_Metal_State_Penalty>
0.680636

> <b_epik_Metal_Only>
0

> <s_epik_Chemistry_Notes>
This compound contains an acetal/aminal-like group ( X-CH(R)-Y where X, Y are N, S, or O) that may be acid/base labile, releasing an aldehyde.

> <s_lp_Force_Field>
OPLS_2005

> <r_lp_Energy>
27.4259

> <b_lp_Chiralities_Consistent>
1

> <s_lp_Variant>
AV-unprocessed.smi:39-3

> <Gold.Version>
5.8.1

> <Gold.Id.Protein>
6NUR|6NUR_protein|mol2

> <Gold.PLP.Fitness>
39.6761

> <Gold.PLP.PLP>
-30.2873

> <Gold.PLP.part.hbond>
-6.3793

> <Gold.PLP.part.metal>
0.0000

> <Gold.PLP.part.buried>
-3.6462

> <Gold.PLP.part.nonpolar>
-20.1138

> <Gold.PLP.part.repulsive>
0.3781

> <Gold.PLP.ligand.clash>
0.0000

> <Gold.PLP.ligand.torsion>
0.3565

> <Gold.PLP.Chemscore.Hbond>
3.3619

> <Gold.PLP.Chemscore.CHOScore>
0.0000

> <Gold.PLP.Chemscore.Metal>
0.0000

> <Gold.Chemscore.Hbonds>
donor molecule, donor type, donor heavy atom, donor atom, acceptor molecule, acceptor atom, score
      L1  H    17    23       P1  8028  1.00
      P1  H  6896  6907       L1    10  0.27
      P1  H  7989  7998       L1    13  0.70
      P1  H  7997  8008       L1    14  1.00

> <Gold.PLP.Chemscore.Internal.Correction>
0.0161

> <Gold.Rescore>
     Score         DG    S(hbond)    S(metal)    S(lipo)     H(rot)  DE(clash)    DE(int)     intcor
      6.48     -12.42       2.28        0.00      54.39       2.75       1.96       3.99       ----

> <Gold.Chemscore.Fitness>
6.4777

> <Gold.Chemscore.DG>
-12.4213

> <Gold.Chemscore.ZeroCoef>
-5.4800

> <Gold.Chemscore.Hbond>
2.2827

> <Gold.Chemscore.Metal>
0.0000

> <Gold.Chemscore.Lipo>
54.3862

> <Gold.Chemscore.Internal_Hbond>
0.0000

> <Gold.Chemscore.DEClash>
1.9579

> <Gold.Chemscore.DEInternal>
3.9858

> <Gold.Chemscore.Rot>
2.7524

> <Gold.Chemscore.Internal.Correction>
   9.000000E+99

> <Gold.Chemscore.Hbonds>
donor molecule, donor type, donor heavy atom, donor atom, acceptor molecule, acceptor atom, score
      L1  H    17    23       P1  8028  0.96
      P1  H  6896  6907       L1    10  0.03
      P1  H  7989  7998       L1    13  0.47
      P1  H  7997  8008       L1    14  0.88

> <Gold.Chemscore.Hbond.Weighted>
-7.6242

> <Gold.Chemscore.Metal.Weighted>
-0.0000

> <Gold.Chemscore.Lipo.Weighted>
-6.3632

> <Gold.Chemscore.Internal_Hbond.Weighted>
0.0000

> <Gold.Chemscore.DEClash.Weighted>
1.9579

> <Gold.Chemscore.DEInternal.Weighted>
3.9858

> <Gold.Chemscore.Rot.Weighted>
7.0461

> <Gold.Chemscore.Internal.Correction.Weighted>
   9.000000E+99

> <Gold.Protein.RotatedTorsions>
[ 6907 6896 6895 6894 ] final  -50.20 input  -60.11 | X-H torsion
[ 7974 7965 7964 7962 ] final   77.02 input  175.53 | X-H torsion
[ 8008 7997 7996 7995 ] final  -79.57 input   59.86 | X-H torsion
[ 10167 10162 10161 10158 ] final -148.15 input  -65.29 | X-H torsion
[ 10718 10713 10712 10709 ] final   42.73 input   66.30 | X-H torsion
[ 10763 10752 10751 10750 ] final  -43.26 input  -60.55 | X-H torsion
[ 11005 11000 10999 10996 ] final   50.95 input  -57.11 | X-H torsion

> <Gold.Protein.ActiveResidues>
 VAL166  LYS551  ARG553  GLY616  TRP617  ASP618  TYR619  PRO620  LYS621  CYS622 
 ASP623  PHE694  ASN695  SER759  ASP760  ASP761  ALA762  ILE779  LEU786  VAL792 
 PHE793  MET794  SER795  GLU796  ALA797  LYS798  CYS799  TRP800  GLU811  SER814 

> <Gold.Protein.RotatedAtoms>
  150.8730  134.8108  159.7168 H   0  0  0  0  0  0  0  0  0  0  0  0  # atno 6907 bound_to 6896
  152.4728  134.4916  159.9707 H   0  0  0  0  0  0  0  0  0  0  0  0  # atno 6908 bound_to 6896
  151.5002  133.3467  159.2903 H   0  0  0  0  0  0  0  0  0  0  0  0  # atno 6909 bound_to 6896
  145.6953  139.2565  143.1736 H   0  0  0  0  0  0  0  0  0  0  0  0  # atno 7974 bound_to 7965
  154.5798  140.0676  156.9088 H   0  0  0  0  0  0  0  0  0  0  0  0  # atno 8008 bound_to 7997
  155.2483  140.3350  155.4266 H   0  0  0  0  0  0  0  0  0  0  0  0  # atno 8009 bound_to 7997
  156.2181  140.1787  156.7527 H   0  0  0  0  0  0  0  0  0  0  0  0  # atno 8010 bound_to 7997
  139.7557  143.8451  152.2596 H   0  0  0  0  0  0  0  0  0  0  0  0  # atno 10167 bound_to 10162
  157.4081  130.7898  149.7406 H   0  0  0  0  0  0  0  0  0  0  0  0  # atno 10718 bound_to 10713
  153.9926  135.6703  153.4755 H   0  0  0  0  0  0  0  0  0  0  0  0  # atno 10763 bound_to 10752
  153.0698  135.4980  154.8276 H   0  0  0  0  0  0  0  0  0  0  0  0  # atno 10764 bound_to 10752
  154.7100  135.3095  154.9174 H   0  0  0  0  0  0  0  0  0  0  0  0  # atno 10765 bound_to 10752
  140.0973  134.5128  155.8795 H   0  0  0  0  0  0  0  0  0  0  0  0  # atno 11005 bound_to 11000
  146.0845  140.7726  142.9625 LP  0  0  0  0  0  0  0  0  0  0  0  0  # atno 17320 bound_to 7965
  144.6984  140.3541  143.7176 LP  0  0  0  0  0  0  0  0  0  0  0  0  # atno 17321 bound_to 7965
  139.8442  144.7195  150.9293 LP  0  0  0  0  0  0  0  0  0  0  0  0  # atno 17342 bound_to 10162
  140.7802  143.3956  151.1236 LP  0  0  0  0  0  0  0  0  0  0  0  0  # atno 17343 bound_to 10162
  155.9842  130.3993  150.3322 LP  0  0  0  0  0  0  0  0  0  0  0  0  # atno 17370 bound_to 10713
  157.1457  131.0308  151.2908 LP  0  0  0  0  0  0  0  0  0  0  0  0  # atno 17371 bound_to 10713
  141.2096  133.6685  156.6448 LP  0  0  0  0  0  0  0  0  0  0  0  0  # atno 17394 bound_to 11000
  140.3268  134.7962  157.4295 LP  0  0  0  0  0  0  0  0  0  0  0  0  # atno 17395 bound_to 11000

$$$$
