AV-unprocessed.smi:3015|AV-procd|sdf|11472|dock2
  -GOLD-   2272016413D 1   1.00000     0.00000
 Structure written by MMmdl.
 23 23  0  0  0  0  0  0  0  0  1 V2000
  148.7777  142.1250  156.1054 N   0  0  0  0  0  0  0  0  0  0  0  0
  149.9551  141.4128  155.5812 C   0  0  2  0  0  0  0  0  0  0  0  0
  149.5670  140.4202  154.4685 C   0  0  0  0  0  0  0  0  0  0  0  0
  149.1439  141.0881  153.2970 O   0  0  0  0  0  0  0  0  0  0  0  0
  150.8125  140.7739  156.6929 C   0  0  0  0  0  0  0  0  0  0  0  0
  151.3380  141.7904  157.6909 C   0  0  0  0  0  0  0  0  0  0  0  0
  151.9102  141.3792  158.9125 C   0  0  0  0  0  0  0  0  0  0  0  0
  152.3820  142.3607  159.8052 C   0  0  0  0  0  0  0  0  0  0  0  0
  152.2605  143.7156  159.4372 C   0  0  0  0  0  0  0  0  0  0  0  0
  151.7137  144.1213  158.2708 N   0  0  0  0  0  0  0  0  0  0  0  0
  151.2639  143.1733  157.4206 C   0  0  0  0  0  0  0  0  0  0  0  0
  148.9489  143.1293  156.1185 H   0  0  0  0  0  0  0  0  0  0  0  0
  147.9764  141.9731  155.4945 H   0  0  0  0  0  0  0  0  0  0  0  0
  150.5847  142.1578  155.0932 H   0  0  0  0  0  0  0  0  0  0  0  0
  150.3970  139.7537  154.2304 H   0  0  0  0  0  0  0  0  0  0  0  0
  148.7448  139.7899  154.8084 H   0  0  0  0  0  0  0  0  0  0  0  0
  149.0817  140.4563  152.5969 H   0  0  0  0  0  0  0  0  0  0  0  0
  150.2436  140.0097  157.2243 H   0  0  0  0  0  0  0  0  0  0  0  0
  151.6677  140.2614  156.2503 H   0  0  0  0  0  0  0  0  0  0  0  0
  151.9849  140.3315  159.1638 H   0  0  0  0  0  0  0  0  0  0  0  0
  152.8256  142.0822  160.7495 H   0  0  0  0  0  0  0  0  0  0  0  0
  152.6123  144.4941  160.0979 H   0  0  0  0  0  0  0  0  0  0  0  0
  150.8306  143.5296  156.4976 H   0  0  0  0  0  0  0  0  0  0  0  0
  1  2  1  0  0  0  0
  1 12  1  0  0  0  0
  1 13  1  0  0  0  0
  2  3  1  0  0  0  0
  2  5  1  0  0  0  0
  2 14  1  0  0  0  0
  3  4  1  0  0  0  0
  3 15  1  0  0  0  0
  3 16  1  0  0  0  0
  4 17  1  0  0  0  0
  5  6  1  0  0  0  0
  5 18  1  0  0  0  0
  5 19  1  0  0  0  0
  6 11  1  0  0  0  0
  6  7  2  0  0  0  0
  7  8  1  0  0  0  0
  7 20  1  0  0  0  0
  8  9  2  0  0  0  0
  8 21  1  0  0  0  0
  9 10  1  0  0  0  0
  9 22  1  0  0  0  0
 10 11  2  0  0  0  0
 11 23  1  0  0  0  0
M  END
> <s_m_source_file>
AV-unprocessed.smi

> <i_m_source_file_index>
3015

> <i_lp_mmshare_version>
43012

> <i_f3d_flags>
0

> <s_epik_input>
W09IXVtDSDJdW0NAQEhdKFtOSDJdKVtDSDJdYzFbY0hdW2NIXVtjSF1uW2NIXTE=

> <s_epik_cmdline>
J2VwaWtfcHl0aG9uJywgJy1waCcsICc3LjAnLCAnLXRuJywgJzgnLCAnLW1hJywgJzIwMCcsICctbWV0YWxfYmluZGluZycsICctaW1hZScsICc8aW5maWxlLm1hZT4nLCAnLW9tYWUnLCAnPG91dGZpbGUubWFlPic=

> <r_epik_Ionization_Penalty>
2.0687

> <r_epik_Ionization_Penalty_Charging>
0

> <r_epik_Ionization_Penalty_Neutral>
2.0687

> <r_epik_State_Penalty>
2.52199

> <r_epik_Charging_Adjusted_Penalty>
2.52199

> <i_epik_Tot_Q>
0

> <i_epik_Tot_abs_Q>
0

> <r_epik_Metal_State_Penalty>
2.50694

> <b_epik_Metal_Only>
0

> <s_lp_Force_Field>
OPLS_2005

> <r_lp_Energy>
14.2307

> <b_lp_Chiralities_Consistent>
1

> <s_lp_Variant>
AV-unprocessed.smi:3015-3

> <Gold.Version>
5.8.1

> <Gold.Id.Protein>
6NUR|6NUR_protein|mol2

> <Gold.PLP.Fitness>
38.2375

> <Gold.PLP.PLP>
-27.2672

> <Gold.PLP.part.hbond>
-3.5316

> <Gold.PLP.part.metal>
0.0000

> <Gold.PLP.part.buried>
-3.2136

> <Gold.PLP.part.nonpolar>
-20.5126

> <Gold.PLP.part.repulsive>
0.0902

> <Gold.PLP.ligand.clash>
0.0000

> <Gold.PLP.ligand.torsion>
0.2513

> <Gold.PLP.Chemscore.Hbond>
2.8100

> <Gold.PLP.Chemscore.CHOScore>
1.0000

> <Gold.PLP.Chemscore.Metal>
0.0000

> <Gold.Chemscore.Hbonds>
donor molecule, donor type, donor heavy atom, donor atom, acceptor molecule, acceptor atom, score
      L1  H     1    12       P1  8028  1.00
      L1  H     4    17       P1  7957  0.90
      P1  H  8011  8017       L1     4  0.85
      L1  C    11    23       P1  8028  1.00

> <Gold.PLP.Chemscore.Internal.Correction>
0.0429

> <Gold.Rescore>
     Score         DG    S(hbond)    S(metal)    S(lipo)     H(rot)  DE(clash)    DE(int)     intcor
     14.76     -15.09       1.99        0.00      70.91       2.08       0.00       0.32       ----

> <Gold.Chemscore.Fitness>
14.7590

> <Gold.Chemscore.DG>
-15.0873

> <Gold.Chemscore.ZeroCoef>
-5.4800

> <Gold.Chemscore.Hbond>
1.9850

> <Gold.Chemscore.Metal>
0.0000

> <Gold.Chemscore.Lipo>
70.9111

> <Gold.Chemscore.Internal_Hbond>
0.0000

> <Gold.Chemscore.DEClash>
0.0048

> <Gold.Chemscore.DEInternal>
0.3235

> <Gold.Chemscore.Rot>
2.0778

> <Gold.Chemscore.Internal.Correction>
   9.000000E+99

> <Gold.Chemscore.Hbonds>
donor molecule, donor type, donor heavy atom, donor atom, acceptor molecule, acceptor atom, score
      L1  H     1    12       P1  8028  0.99
      L1  H     4    17       P1  7957  0.86
      P1  H  8011  8017       L1     4  0.14

> <Gold.Chemscore.Hbond.Weighted>
-6.6299

> <Gold.Chemscore.Metal.Weighted>
-0.0000

> <Gold.Chemscore.Lipo.Weighted>
-8.2966

> <Gold.Chemscore.Internal_Hbond.Weighted>
0.0000

> <Gold.Chemscore.DEClash.Weighted>
0.0048

> <Gold.Chemscore.DEInternal.Weighted>
0.3235

> <Gold.Chemscore.Rot.Weighted>
5.3193

> <Gold.Chemscore.Internal.Correction.Weighted>
   9.000000E+99

> <Gold.Protein.RotatedTorsions>
[ 6907 6896 6895 6894 ] final  -23.56 input  -60.11 | X-H torsion
[ 7974 7965 7964 7962 ] final  105.30 input  175.53 | X-H torsion
[ 8008 7997 7996 7995 ] final   47.79 input   59.86 | X-H torsion
[ 10167 10162 10161 10158 ] final  109.77 input  -65.29 | X-H torsion
[ 10718 10713 10712 10709 ] final -109.19 input   66.30 | X-H torsion
[ 10763 10752 10751 10750 ] final  -36.75 input  -60.55 | X-H torsion
[ 11005 11000 10999 10996 ] final   95.13 input  -57.11 | X-H torsion

> <Gold.Protein.ActiveResidues>
 VAL166  LYS551  ARG553  GLY616  TRP617  ASP618  TYR619  PRO620  LYS621  CYS622 
 ASP623  PHE694  ASN695  SER759  ASP760  ASP761  ALA762  ILE779  LEU786  VAL792 
 PHE793  MET794  SER795  GLU796  ALA797  LYS798  CYS799  TRP800  GLU811  SER814 

> <Gold.Protein.RotatedAtoms>
  151.2023  135.0447  159.8876 H   0  0  0  0  0  0  0  0  0  0  0  0  # atno 6907 bound_to 6896
  152.5431  134.0837  159.8257 H   0  0  0  0  0  0  0  0  0  0  0  0  # atno 6908 bound_to 6896
  151.0979  133.5218  159.2643 H   0  0  0  0  0  0  0  0  0  0  0  0  # atno 6909 bound_to 6896
  145.3215  139.2511  143.3709 H   0  0  0  0  0  0  0  0  0  0  0  0  # atno 7974 bound_to 7965
  155.3748  140.3425  155.4244 H   0  0  0  0  0  0  0  0  0  0  0  0  # atno 8008 bound_to 7997
  156.1642  140.1611  156.8593 H   0  0  0  0  0  0  0  0  0  0  0  0  # atno 8009 bound_to 7997
  154.5169  140.0776  156.8081 H   0  0  0  0  0  0  0  0  0  0  0  0  # atno 8010 bound_to 7997
  139.6740  144.7123  151.1635 H   0  0  0  0  0  0  0  0  0  0  0  0  # atno 10167 bound_to 10162
  156.0524  130.5751  150.8066 H   0  0  0  0  0  0  0  0  0  0  0  0  # atno 10718 bound_to 10713
  153.8849  135.6818  153.4764 H   0  0  0  0  0  0  0  0  0  0  0  0  # atno 10763 bound_to 10752
  153.1213  135.4738  154.9198 H   0  0  0  0  0  0  0  0  0  0  0  0  # atno 10764 bound_to 10752
  154.7651  135.3222  154.8255 H   0  0  0  0  0  0  0  0  0  0  0  0  # atno 10765 bound_to 10752
  139.8792  134.8882  156.3966 H   0  0  0  0  0  0  0  0  0  0  0  0  # atno 11005 bound_to 11000
  146.3080  140.3773  142.8680 LP  0  0  0  0  0  0  0  0  0  0  0  0  # atno 17320 bound_to 7965
  144.8936  140.7554  143.5911 LP  0  0  0  0  0  0  0  0  0  0  0  0  # atno 17321 bound_to 7965
  140.7629  143.5800  150.8905 LP  0  0  0  0  0  0  0  0  0  0  0  0  # atno 17342 bound_to 10162
  139.9467  143.6319  152.3040 LP  0  0  0  0  0  0  0  0  0  0  0  0  # atno 17343 bound_to 10162
  157.5463  131.0942  150.9758 LP  0  0  0  0  0  0  0  0  0  0  0  0  # atno 17370 bound_to 10713
  157.0028  130.5606  149.5313 LP  0  0  0  0  0  0  0  0  0  0  0  0  # atno 17371 bound_to 10713
  140.9296  133.7588  156.0008 LP  0  0  0  0  0  0  0  0  0  0  0  0  # atno 17394 bound_to 11000
  140.8346  134.3138  157.5336 LP  0  0  0  0  0  0  0  0  0  0  0  0  # atno 17395 bound_to 11000

$$$$
