AV-unprocessed.smi:1889|AV-procd|sdf|7662|dock5
  -GOLD-   22720 9393D 1   1.00000     0.00000
 Structure written by MMmdl.
 35 36  0  0  0  0  0  0  0  0  2 V2000
  150.6159  145.4006  159.4589 C   0  0  0  0  0  0  0  0  0  0  0  0
  152.0329  145.4091  160.0426 C   0  0  0  0  0  0  0  0  0  0  0  0
  152.3491  144.1361  160.8401 C   0  0  0  0  0  0  0  0  0  0  0  0
  152.3465  142.9114  159.9876 C   0  0  0  0  0  0  0  0  0  0  0  0
  151.2629  142.4873  159.3322 N   0  0  0  0  0  0  0  0  0  0  0  0
  151.5010  141.3130  158.6333 N   0  0  0  0  0  0  0  0  0  0  0  0
  152.7505  140.8528  158.7880 C   0  0  0  0  0  0  0  0  0  0  0  0
  153.1813  139.7284  158.1925 N   0  5  0  0  0  0  0  0  0  0  0  0
  152.2910  138.8674  157.6491 C   0  0  0  0  0  0  0  0  0  0  0  0
  151.7610  137.9085  158.2155 O   0  0  0  0  0  0  0  0  0  0  0  0
  151.9963  139.1318  156.3694 N   0  0  0  0  0  0  0  0  0  0  0  0
  151.0673  138.3671  155.5462 C   0  0  0  0  0  0  0  0  0  0  0  0
  150.4030  139.2606  154.4855 C   0  0  1  0  0  0  0  0  0  0  0  0
  148.9341  138.9378  154.2365 C   0  0  0  0  0  0  0  0  0  0  0  0
  148.2713  140.3048  154.0342 C   0  0  0  0  0  0  0  0  0  0  0  0
  149.3372  141.2430  153.9983 O   0  0  0  0  0  0  0  0  0  0  0  0
  150.3648  140.7469  154.8389 C   0  0  0  0  0  0  0  0  0  0  0  0
  153.7529  141.8746  159.8182 S   0  0  0  0  0  0  0  0  0  0  0  0
  150.4196  146.3177  158.9033 H   0  0  0  0  0  0  0  0  0  0  0  0
  149.8663  145.3213  160.2466 H   0  0  0  0  0  0  0  0  0  0  0  0
  150.4764  144.5617  158.7766 H   0  0  0  0  0  0  0  0  0  0  0  0
  152.7544  145.5218  159.2325 H   0  0  0  0  0  0  0  0  0  0  0  0
  152.1517  146.2820  160.6856 H   0  0  0  0  0  0  0  0  0  0  0  0
  153.3238  144.2264  161.3213 H   0  0  0  0  0  0  0  0  0  0  0  0
  151.6183  144.0031  161.6385 H   0  0  0  0  0  0  0  0  0  0  0  0
  152.4496  139.9244  155.9391 H   0  0  0  0  0  0  0  0  0  0  0  0
  151.6096  137.5544  155.0611 H   0  0  0  0  0  0  0  0  0  0  0  0
  150.3070  137.9110  156.1825 H   0  0  0  0  0  0  0  0  0  0  0  0
  150.9364  139.1527  153.5397 H   0  0  0  0  0  0  0  0  0  0  0  0
  148.8181  138.2969  153.3621 H   0  0  0  0  0  0  0  0  0  0  0  0
  148.4808  138.4247  155.0858 H   0  0  0  0  0  0  0  0  0  0  0  0
  147.6806  140.3523  153.1191 H   0  0  0  0  0  0  0  0  0  0  0  0
  147.6157  140.5390  154.8741 H   0  0  0  0  0  0  0  0  0  0  0  0
  150.0918  140.9015  155.8844 H   0  0  0  0  0  0  0  0  0  0  0  0
  151.3135  141.2502  154.6509 H   0  0  0  0  0  0  0  0  0  0  0  0
  1  2  1  0  0  0  0
  1 19  1  0  0  0  0
  1 20  1  0  0  0  0
  1 21  1  0  0  0  0
  2  3  1  0  0  0  0
  2 22  1  0  0  0  0
  2 23  1  0  0  0  0
  3  4  1  0  0  0  0
  3 24  1  0  0  0  0
  3 25  1  0  0  0  0
  4 18  1  0  0  0  0
  4  5  2  0  0  0  0
  5  6  1  0  0  0  0
  6  7  2  0  0  0  0
  7  8  1  0  0  0  0
  7 18  1  0  0  0  0
  8  9  1  0  0  0  0
  9 10  2  0  0  0  0
  9 11  1  0  0  0  0
 11 12  1  0  0  0  0
 11 26  1  0  0  0  0
 12 13  1  0  0  0  0
 12 27  1  0  0  0  0
 12 28  1  0  0  0  0
 13 17  1  0  0  0  0
 13 14  1  0  0  0  0
 13 29  1  0  0  0  0
 14 15  1  0  0  0  0
 14 30  1  0  0  0  0
 14 31  1  0  0  0  0
 15 16  1  0  0  0  0
 15 32  1  0  0  0  0
 15 33  1  0  0  0  0
 16 17  1  0  0  0  0
 17 34  1  0  0  0  0
 17 35  1  0  0  0  0
M  CHG  1   8  -1
M  END
> <s_m_source_file>
AV-unprocessed.smi

> <i_m_source_file_index>
1889

> <i_lp_mmshare_version>
43012

> <i_f3d_flags>
0

> <s_epik_input>
W0NIM11bQ0gyXVtDSDJdYzFubmMoczEpW05IXUMoPU8pW05IXVtDSDJdW0NAQEhdMltDSDJdW0NIMl1PW0NIMl0y

> <s_epik_cmdline>
J2VwaWtfcHl0aG9uJywgJy1waCcsICc3LjAnLCAnLXRuJywgJzgnLCAnLW1hJywgJzIwMCcsICctbWV0YWxfYmluZGluZycsICctaW1hZScsICc8aW5maWxlLm1hZT4nLCAnLW9tYWUnLCAnPG91dGZpbGUubWFlPic=

> <r_lp_tautomer_probability>
1

> <r_epik_Ionization_Penalty>
4.29669

> <r_epik_Ionization_Penalty_Charging>
4.28522

> <r_epik_Ionization_Penalty_Neutral>
0.0114689

> <r_epik_State_Penalty>
4.28479

> <r_epik_Charging_Adjusted_Penalty>
8.57002

> <i_epik_Tot_Q>
-1

> <i_epik_Tot_abs_Q>
1

> <r_epik_Metal_State_Penalty>
0.72177

> <b_epik_Metal_Only>
1

> <s_lp_Force_Field>
OPLS_2005

> <r_lp_Energy>
12.2609

> <b_lp_Chiralities_Consistent>
1

> <s_lp_Variant>
AV-unprocessed.smi:1889-4

> <Gold.Version>
5.8.1

> <Gold.Id.Protein>
6NUR|6NUR_protein|mol2

> <Gold.PLP.Fitness>
40.5224

> <Gold.PLP.PLP>
-35.6675

> <Gold.PLP.part.hbond>
-3.7156

> <Gold.PLP.part.metal>
0.0000

> <Gold.PLP.part.buried>
-1.4140

> <Gold.PLP.part.nonpolar>
-29.5735

> <Gold.PLP.part.repulsive>
0.3038

> <Gold.PLP.ligand.clash>
0.0000

> <Gold.PLP.ligand.torsion>
1.4950

> <Gold.PLP.Chemscore.Hbond>
2.5741

> <Gold.PLP.Chemscore.CHOScore>
0.0000

> <Gold.PLP.Chemscore.Metal>
0.0000

> <Gold.Chemscore.Hbonds>
donor molecule, donor type, donor heavy atom, donor atom, acceptor molecule, acceptor atom, score
      P1  H  7997  8010       L1     8  2.00
      P1  H  8011  8017       L1    16  0.69

> <Gold.PLP.Chemscore.Internal.Correction>
0.1226

> <Gold.Rescore>
     Score         DG    S(hbond)    S(metal)    S(lipo)     H(rot)  DE(clash)    DE(int)     intcor
     12.53     -15.92       1.21        0.00      89.60       1.59       1.75       1.63       ----

> <Gold.Chemscore.Fitness>
12.5346

> <Gold.Chemscore.DG>
-15.9194

> <Gold.Chemscore.ZeroCoef>
-5.4800

> <Gold.Chemscore.Hbond>
1.2072

> <Gold.Chemscore.Metal>
0.0000

> <Gold.Chemscore.Lipo>
89.6030

> <Gold.Chemscore.Internal_Hbond>
0.0000

> <Gold.Chemscore.DEClash>
1.7527

> <Gold.Chemscore.DEInternal>
1.6322

> <Gold.Chemscore.Rot>
1.5922

> <Gold.Chemscore.Internal.Correction>
   9.000000E+99

> <Gold.Chemscore.Hbonds>
donor molecule, donor type, donor heavy atom, donor atom, acceptor molecule, acceptor atom, score
      P1  H  7997  8010       L1     8  0.61
      P1  H  8011  8017       L1    16  0.65

> <Gold.Chemscore.Hbond.Weighted>
-4.0319

> <Gold.Chemscore.Metal.Weighted>
-0.0000

> <Gold.Chemscore.Lipo.Weighted>
-10.4836

> <Gold.Chemscore.Internal_Hbond.Weighted>
0.0000

> <Gold.Chemscore.DEClash.Weighted>
1.7527

> <Gold.Chemscore.DEInternal.Weighted>
1.6322

> <Gold.Chemscore.Rot.Weighted>
4.0761

> <Gold.Chemscore.Internal.Correction.Weighted>
   9.000000E+99

> <Gold.Protein.RotatedTorsions>
[ 6907 6896 6895 6894 ] final    9.60 input  -60.11 | X-H torsion
[ 7974 7965 7964 7962 ] final   -1.51 input  175.53 | X-H torsion
[ 8008 7997 7996 7995 ] final   38.10 input   59.86 | X-H torsion
[ 10167 10162 10161 10158 ] final  -73.20 input  -65.29 | X-H torsion
[ 10718 10713 10712 10709 ] final -140.35 input   66.30 | X-H torsion
[ 10763 10752 10751 10750 ] final   75.52 input  -60.55 | X-H torsion
[ 11005 11000 10999 10996 ] final  153.54 input  -57.11 | X-H torsion

> <Gold.Protein.ActiveResidues>
 VAL166  LYS551  ARG553  GLY616  TRP617  ASP618  TYR619  PRO620  LYS621  CYS622 
 ASP623  PHE694  ASN695  SER759  ASP760  ASP761  ALA762  ILE779  LEU786  VAL792 
 PHE793  MET794  SER795  GLU796  ALA797  LYS798  CYS799  TRP800  GLU811  SER814 

> <Gold.Protein.RotatedAtoms>
  151.7248  135.0887  160.0289 H   0  0  0  0  0  0  0  0  0  0  0  0  # atno 6907 bound_to 6896
  152.3579  133.6255  159.6001 H   0  0  0  0  0  0  0  0  0  0  0  0  # atno 6908 bound_to 6896
  150.7584  133.9387  159.3491 H   0  0  0  0  0  0  0  0  0  0  0  0  # atno 6909 bound_to 6896
  146.2416  140.1431  142.8335 H   0  0  0  0  0  0  0  0  0  0  0  0  # atno 7974 bound_to 7965
  155.2146  140.3326  155.4324 H   0  0  0  0  0  0  0  0  0  0  0  0  # atno 8008 bound_to 7997
  156.2357  140.1871  156.7173 H   0  0  0  0  0  0  0  0  0  0  0  0  # atno 8009 bound_to 7997
  154.6055  140.0616  156.9411 H   0  0  0  0  0  0  0  0  0  0  0  0  # atno 8010 bound_to 7997
  140.5129  143.2342  151.7562 H   0  0  0  0  0  0  0  0  0  0  0  0  # atno 10167 bound_to 10162
  156.3213  130.7535  151.1634 H   0  0  0  0  0  0  0  0  0  0  0  0  # atno 10718 bound_to 10713
  153.0661  135.4985  154.8202 H   0  0  0  0  0  0  0  0  0  0  0  0  # atno 10763 bound_to 10752
  154.6955  135.2992  154.9420 H   0  0  0  0  0  0  0  0  0  0  0  0  # atno 10764 bound_to 10752
  154.0161  135.6748  153.4821 H   0  0  0  0  0  0  0  0  0  0  0  0  # atno 10765 bound_to 10752
  140.1407  134.8740  157.2327 H   0  0  0  0  0  0  0  0  0  0  0  0  # atno 11005 bound_to 11000
  145.0230  140.8809  143.5155 LP  0  0  0  0  0  0  0  0  0  0  0  0  # atno 17320 bound_to 7965
  145.1483  139.2530  143.5454 LP  0  0  0  0  0  0  0  0  0  0  0  0  # atno 17321 bound_to 7965
  139.4901  144.4364  151.9814 LP  0  0  0  0  0  0  0  0  0  0  0  0  # atno 17342 bound_to 10162
  140.3457  144.3149  150.5958 LP  0  0  0  0  0  0  0  0  0  0  0  0  # atno 17343 bound_to 10162
  157.7412  131.0507  150.5112 LP  0  0  0  0  0  0  0  0  0  0  0  0  # atno 17370 bound_to 10713
  156.5265  130.4174  149.6223 LP  0  0  0  0  0  0  0  0  0  0  0  0  # atno 17371 bound_to 10713
  140.2725  134.3443  155.7369 LP  0  0  0  0  0  0  0  0  0  0  0  0  # atno 17394 bound_to 11000
  141.2185  133.7431  156.9244 LP  0  0  0  0  0  0  0  0  0  0  0  0  # atno 17395 bound_to 11000

$$$$
