AV-unprocessed.smi:2783|AV-procd|sdf|10724|dock7
  -GOLD-   2272015163D 1   1.00000     0.00000
 Structure written by MMmdl.
 29 29  0  0  0  0  0  0  0  0  1 V2000
  149.2305  141.1062  154.7837 C   0  0  0  0  0  0  0  0  0  0  0  0
  150.5062  140.4822  154.6494 O   0  0  0  0  0  0  0  0  0  0  0  0
  150.9597  139.6327  155.7140 C   0  0  0  0  0  0  0  0  0  0  0  0
  150.0778  138.3656  155.8152 C   0  0  0  0  0  0  0  0  0  0  0  0
  152.3939  139.2240  155.3340 C   0  0  0  0  0  0  0  0  0  0  0  0
  151.0009  140.4048  157.0532 C   0  0  0  0  0  0  0  0  0  0  0  0
  150.4842  139.9114  158.0561 O   0  0  0  0  0  0  0  0  0  0  0  0
  151.6513  141.5845  157.0424 N   0  0  0  0  0  0  0  0  0  0  0  0
  151.8458  142.5140  158.1016 C   0  0  0  0  0  0  0  0  0  0  0  0
  152.1217  142.1356  159.4380 C   0  0  0  0  0  0  0  0  0  0  0  0
  152.2757  143.1452  160.4088 C   0  0  0  0  0  0  0  0  0  0  0  0
  152.1658  144.4621  160.1367 N   0  0  0  0  0  0  0  0  0  0  0  0
  151.8875  144.8200  158.8659 C   0  0  0  0  0  0  0  0  0  0  0  0
  151.7131  143.8928  157.8179 C   0  0  0  0  0  0  0  0  0  0  0  0
  151.4257  144.3354  156.5571 O   0  0  0  0  0  0  0  0  0  0  0  0
  149.0904  141.8064  153.9605 H   0  0  0  0  0  0  0  0  0  0  0  0
  149.1298  141.6679  155.7123 H   0  0  0  0  0  0  0  0  0  0  0  0
  148.4213  140.3782  154.7276 H   0  0  0  0  0  0  0  0  0  0  0  0
  150.5183  137.6259  156.4849 H   0  0  0  0  0  0  0  0  0  0  0  0
  149.9624  137.8908  154.8405 H   0  0  0  0  0  0  0  0  0  0  0  0
  149.0805  138.5885  156.1963 H   0  0  0  0  0  0  0  0  0  0  0  0
  152.8362  138.5662  156.0835 H   0  0  0  0  0  0  0  0  0  0  0  0
  153.0440  140.0941  155.2324 H   0  0  0  0  0  0  0  0  0  0  0  0
  152.4101  138.6936  154.3815 H   0  0  0  0  0  0  0  0  0  0  0  0
  152.1130  141.8202  156.1756 H   0  0  0  0  0  0  0  0  0  0  0  0
  152.2036  141.1030  159.7397 H   0  0  0  0  0  0  0  0  0  0  0  0
  152.4862  142.8857  161.4359 H   0  0  0  0  0  0  0  0  0  0  0  0
  151.7989  145.8802  158.6798 H   0  0  0  0  0  0  0  0  0  0  0  0
  150.5020  144.3100  156.3576 H   0  0  0  0  0  0  0  0  0  0  0  0
  1  2  1  0  0  0  0
  1 16  1  0  0  0  0
  1 17  1  0  0  0  0
  1 18  1  0  0  0  0
  2  3  1  0  0  0  0
  3  4  1  0  0  0  0
  3  5  1  0  0  0  0
  3  6  1  0  0  0  0
  4 19  1  0  0  0  0
  4 20  1  0  0  0  0
  4 21  1  0  0  0  0
  5 22  1  0  0  0  0
  5 23  1  0  0  0  0
  5 24  1  0  0  0  0
  6  7  2  0  0  0  0
  6  8  1  0  0  0  0
  8  9  1  0  0  0  0
  8 25  1  0  0  0  0
  9 14  1  0  0  0  0
  9 10  2  0  0  0  0
 10 11  1  0  0  0  0
 10 26  1  0  0  0  0
 11 12  2  0  0  0  0
 11 27  1  0  0  0  0
 12 13  1  0  0  0  0
 13 14  2  0  0  0  0
 13 28  1  0  0  0  0
 14 15  1  0  0  0  0
 15 29  1  0  0  0  0
M  END
> <s_m_source_file>
AV-unprocessed.smi

> <i_m_source_file_index>
2783

> <i_lp_mmshare_version>
43012

> <i_f3d_flags>
0

> <s_epik_input>
W0NIM11PQyhbQ0gzXSkoW0NIM10pQyg9TylbTkhdYzFbY0hdW2NIXW5bY0hdYzFbT0hd

> <s_epik_cmdline>
J2VwaWtfcHl0aG9uJywgJy1waCcsICc3LjAnLCAnLXRuJywgJzgnLCAnLW1hJywgJzIwMCcsICctbWV0YWxfYmluZGluZycsICctaW1hZScsICc8aW5maWxlLm1hZT4nLCAnLW9tYWUnLCAnPG91dGZpbGUubWFlPic=

> <r_lp_tautomer_probability>
0.43658

> <r_epik_Ionization_Penalty>
0.0236053

> <r_epik_Ionization_Penalty_Charging>
0

> <r_epik_Ionization_Penalty_Neutral>
0.0236053

> <r_epik_State_Penalty>
0.499983

> <r_epik_Charging_Adjusted_Penalty>
0.499983

> <i_epik_Tot_Q>
0

> <i_epik_Tot_abs_Q>
0

> <r_epik_Metal_State_Penalty>
0.746226

> <b_epik_Metal_Only>
0

> <s_lp_Force_Field>
OPLS_2005

> <r_lp_Energy>
14.4929

> <b_lp_Chiralities_Consistent>
1

> <s_lp_Variant>
AV-unprocessed.smi:2783-2

> <Gold.Version>
5.8.1

> <Gold.Id.Protein>
6NUR|6NUR_protein|mol2

> <Gold.PLP.Fitness>
34.9729

> <Gold.PLP.PLP>
-29.9470

> <Gold.PLP.part.hbond>
-2.0000

> <Gold.PLP.part.metal>
0.0000

> <Gold.PLP.part.buried>
-2.9133

> <Gold.PLP.part.nonpolar>
-25.1820

> <Gold.PLP.part.repulsive>
0.2575

> <Gold.PLP.ligand.clash>
0.0000

> <Gold.PLP.ligand.torsion>
0.5042

> <Gold.PLP.Chemscore.Hbond>
2.0000

> <Gold.PLP.Chemscore.CHOScore>
0.0000

> <Gold.PLP.Chemscore.Metal>
0.0000

> <Gold.Chemscore.Hbonds>
donor molecule, donor type, donor heavy atom, donor atom, acceptor molecule, acceptor atom, score
      L1  H    15    29       P1  8028  1.00
      P1  H  7989  7998       L1     2  1.00

> <Gold.PLP.Chemscore.Internal.Correction>
0.0344

> <Gold.Rescore>
     Score         DG    S(hbond)    S(metal)    S(lipo)     H(rot)  DE(clash)    DE(int)     intcor
     15.54     -17.00       1.93        0.00      81.54       1.75       0.25       1.21       ----

> <Gold.Chemscore.Fitness>
15.5351

> <Gold.Chemscore.DG>
-16.9956

> <Gold.Chemscore.ZeroCoef>
-5.4800

> <Gold.Chemscore.Hbond>
1.9333

> <Gold.Chemscore.Metal>
0.0000

> <Gold.Chemscore.Lipo>
81.5379

> <Gold.Chemscore.Internal_Hbond>
0.0000

> <Gold.Chemscore.DEClash>
0.2481

> <Gold.Chemscore.DEInternal>
1.2124

> <Gold.Chemscore.Rot>
1.7507

> <Gold.Chemscore.Internal.Correction>
   9.000000E+99

> <Gold.Chemscore.Hbonds>
donor molecule, donor type, donor heavy atom, donor atom, acceptor molecule, acceptor atom, score
      L1  H    15    29       P1  8028  1.00
      P1  H  7989  7998       L1     2  0.89

> <Gold.Chemscore.Hbond.Weighted>
-6.4573

> <Gold.Chemscore.Metal.Weighted>
-0.0000

> <Gold.Chemscore.Lipo.Weighted>
-9.5399

> <Gold.Chemscore.Internal_Hbond.Weighted>
0.0000

> <Gold.Chemscore.DEClash.Weighted>
0.2481

> <Gold.Chemscore.DEInternal.Weighted>
1.2124

> <Gold.Chemscore.Rot.Weighted>
4.4817

> <Gold.Chemscore.Internal.Correction.Weighted>
   9.000000E+99

> <Gold.Protein.RotatedTorsions>
[ 6907 6896 6895 6894 ] final -150.82 input  -60.11 | X-H torsion
[ 7974 7965 7964 7962 ] final   18.66 input  175.53 | X-H torsion
[ 8008 7997 7996 7995 ] final  -62.26 input   59.86 | X-H torsion
[ 10167 10162 10161 10158 ] final  -25.90 input  -65.29 | X-H torsion
[ 10718 10713 10712 10709 ] final  -67.96 input   66.30 | X-H torsion
[ 10763 10752 10751 10750 ] final   59.81 input  -60.55 | X-H torsion
[ 11005 11000 10999 10996 ] final   77.49 input  -57.11 | X-H torsion

> <Gold.Protein.ActiveResidues>
 VAL166  LYS551  ARG553  GLY616  TRP617  ASP618  TYR619  PRO620  LYS621  CYS622 
 ASP623  PHE694  ASN695  SER759  ASP760  ASP761  ALA762  ILE779  LEU786  VAL792 
 PHE793  MET794  SER795  GLU796  ALA797  LYS798  CYS799  TRP800  GLU811  SER814 

> <Gold.Protein.RotatedAtoms>
  151.2041  133.4593  159.2596 H   0  0  0  0  0  0  0  0  0  0  0  0  # atno 6907 bound_to 6896
  151.1040  134.9989  159.8472 H   0  0  0  0  0  0  0  0  0  0  0  0  # atno 6908 bound_to 6896
  152.5445  134.1966  159.8748 H   0  0  0  0  0  0  0  0  0  0  0  0  # atno 6909 bound_to 6896
  146.2177  139.8425  142.8638 H   0  0  0  0  0  0  0  0  0  0  0  0  # atno 7974 bound_to 7965
  154.4491  140.1000  156.6560 H   0  0  0  0  0  0  0  0  0  0  0  0  # atno 8008 bound_to 7997
  155.5345  140.3482  155.4415 H   0  0  0  0  0  0  0  0  0  0  0  0  # atno 8009 bound_to 7997
  156.0640  140.1333  156.9896 H   0  0  0  0  0  0  0  0  0  0  0  0  # atno 8010 bound_to 7997
  140.7285  143.4224  151.0930 H   0  0  0  0  0  0  0  0  0  0  0  0  # atno 10167 bound_to 10162
  156.0530  130.4286  150.1931 H   0  0  0  0  0  0  0  0  0  0  0  0  # atno 10718 bound_to 10713
  152.9904  135.5558  154.5773 H   0  0  0  0  0  0  0  0  0  0  0  0  # atno 10763 bound_to 10752
  154.5162  135.2805  155.1303 H   0  0  0  0  0  0  0  0  0  0  0  0  # atno 10764 bound_to 10752
  154.2675  135.6369  153.5350 H   0  0  0  0  0  0  0  0  0  0  0  0  # atno 10765 bound_to 10752
  139.9252  134.7687  156.1529 H   0  0  0  0  0  0  0  0  0  0  0  0  # atno 11005 bound_to 11000
  145.2884  141.0160  143.3677 LP  0  0  0  0  0  0  0  0  0  0  0  0  # atno 17320 bound_to 7965
  144.9096  139.4545  143.6593 LP  0  0  0  0  0  0  0  0  0  0  0  0  # atno 17321 bound_to 7965
  139.7871  143.8271  152.3146 LP  0  0  0  0  0  0  0  0  0  0  0  0  # atno 17342 bound_to 10162
  139.8242  144.7282  150.9533 LP  0  0  0  0  0  0  0  0  0  0  0  0  # atno 17343 bound_to 10162
  157.0012  130.9923  151.3390 LP  0  0  0  0  0  0  0  0  0  0  0  0  # atno 17370 bound_to 10713
  157.5474  130.8159  149.8102 LP  0  0  0  0  0  0  0  0  0  0  0  0  # atno 17371 bound_to 10713
  141.0804  133.6757  156.2325 LP  0  0  0  0  0  0  0  0  0  0  0  0  # atno 17394 bound_to 11000
  140.6357  134.5218  157.5564 LP  0  0  0  0  0  0  0  0  0  0  0  0  # atno 17395 bound_to 11000

$$$$
