AV-unprocessed.smi:2943|AV-procd|sdf|11271|dock3
  -GOLD-   2272016163D 1   1.00000     0.00000
 Structure written by MMmdl.
 37 39  0  0  0  0  0  0  0  0  2 V2000
  152.9157  138.6508  157.7113 C   0  0  0  0  0  0  0  0  0  0  0  0
  151.9924  139.8152  157.5047 C   0  0  0  0  0  0  0  0  0  0  0  0
  151.7236  140.8152  158.4123 C   0  0  0  0  0  0  0  0  0  0  0  0
  152.2694  140.9776  159.7980 C   0  0  0  0  0  0  0  0  0  0  0  0
  150.8270  141.7312  157.8568 N   0  0  0  0  0  0  0  0  0  0  0  0
  150.3114  142.9292  158.5046 C   0  0  0  0  0  0  0  0  0  0  0  0
  151.4382  143.7916  159.0949 C   0  0  1  0  0  0  0  0  0  0  0  0
  151.1966  145.2941  158.9765 C   0  0  0  0  0  0  0  0  0  0  0  0
  152.0819  145.8267  160.0800 C   0  0  0  0  0  0  0  0  0  0  0  0
  151.8994  144.7715  161.1681 C   0  0  0  0  0  0  0  0  0  0  0  0
  151.5925  143.5539  160.4920 O   0  0  0  0  0  0  0  0  0  0  0  0
  150.4962  141.3039  156.5811 C   0  0  0  0  0  0  0  0  0  0  0  0
  149.6498  141.8842  155.6876 N   0  3  0  0  0  0  0  0  0  0  0  0
  149.4895  141.2708  154.5102 C   0  0  0  0  0  0  0  0  0  0  0  0
  150.1240  140.1327  154.1937 N   0  0  0  0  0  0  0  0  0  0  0  0
  150.9747  139.5284  155.0592 C   0  0  0  0  0  0  0  0  0  0  0  0
  151.5792  138.3476  154.6347 N   0  0  0  0  0  0  0  0  0  0  0  0
  151.2086  140.1052  156.3350 C   0  0  0  0  0  0  0  0  0  0  0  0
  153.7354  138.9013  158.3847 H   0  0  0  0  0  0  0  0  0  0  0  0
  153.3659  138.3257  156.7742 H   0  0  0  0  0  0  0  0  0  0  0  0
  152.3839  137.8003  158.1380 H   0  0  0  0  0  0  0  0  0  0  0  0
  152.6831  140.0427  160.1753 H   0  0  0  0  0  0  0  0  0  0  0  0
  151.4941  141.2895  160.4976 H   0  0  0  0  0  0  0  0  0  0  0  0
  153.0625  141.7253  159.8151 H   0  0  0  0  0  0  0  0  0  0  0  0
  149.7270  143.5045  157.7863 H   0  0  0  0  0  0  0  0  0  0  0  0
  149.6148  142.6295  159.2885 H   0  0  0  0  0  0  0  0  0  0  0  0
  152.3873  143.5481  158.6148 H   0  0  0  0  0  0  0  0  0  0  0  0
  151.4520  145.6899  157.9930 H   0  0  0  0  0  0  0  0  0  0  0  0
  150.1537  145.5369  159.1852 H   0  0  0  0  0  0  0  0  0  0  0  0
  153.1206  145.8474  159.7471 H   0  0  0  0  0  0  0  0  0  0  0  0
  151.8075  146.8301  160.4067 H   0  0  0  0  0  0  0  0  0  0  0  0
  152.7859  144.6663  161.7939 H   0  0  0  0  0  0  0  0  0  0  0  0
  151.0587  145.0291  161.8132 H   0  0  0  0  0  0  0  0  0  0  0  0
  148.8137  141.7340  153.8064 H   0  0  0  0  0  0  0  0  0  0  0  0
  151.3932  137.9571  153.7222 H   0  0  0  0  0  0  0  0  0  0  0  0
  152.2333  137.8500  155.2219 H   0  0  0  0  0  0  0  0  0  0  0  0
  149.1567  142.7465  155.9199 H   0  0  0  0  0  0  0  0  0  0  0  0
  1  2  1  0  0  0  0
  1 19  1  0  0  0  0
  1 20  1  0  0  0  0
  1 21  1  0  0  0  0
  2 18  1  0  0  0  0
  2  3  2  0  0  0  0
  3  4  1  0  0  0  0
  3  5  1  0  0  0  0
  4 22  1  0  0  0  0
  4 23  1  0  0  0  0
  4 24  1  0  0  0  0
  5  6  1  0  0  0  0
  5 12  1  0  0  0  0
  6  7  1  0  0  0  0
  6 25  1  0  0  0  0
  6 26  1  0  0  0  0
  7 11  1  0  0  0  0
  7  8  1  0  0  0  0
  7 27  1  0  0  0  0
  8  9  1  0  0  0  0
  8 28  1  0  0  0  0
  8 29  1  0  0  0  0
  9 10  1  0  0  0  0
  9 30  1  0  0  0  0
  9 31  1  0  0  0  0
 10 11  1  0  0  0  0
 10 32  1  0  0  0  0
 10 33  1  0  0  0  0
 12 18  1  0  0  0  0
 12 13  2  0  0  0  0
 13 14  1  0  0  0  0
 13 37  1  0  0  0  0
 14 15  2  0  0  0  0
 14 34  1  0  0  0  0
 15 16  1  0  0  0  0
 16 17  1  0  0  0  0
 16 18  2  0  0  0  0
 17 35  1  0  0  0  0
 17 36  1  0  0  0  0
M  CHG  1  13   1
M  END
> <s_m_source_file>
AV-unprocessed.smi

> <i_m_source_file_index>
2943

> <i_lp_mmshare_version>
43012

> <i_f3d_flags>
0

> <s_epik_input>
bjFbY0hdbmMoW05IMl0pYyhjMTIpYyhbQ0gzXSljKFtDSDNdKW4yW0NIMl1bQ0BASF0zW0NIMl1bQ0gyXVtDSDJdTzM=

> <s_epik_cmdline>
J2VwaWtfcHl0aG9uJywgJy1waCcsICc3LjAnLCAnLXRuJywgJzgnLCAnLW1hJywgJzIwMCcsICctbWV0YWxfYmluZGluZycsICctaW1hZScsICc8aW5maWxlLm1hZT4nLCAnLW9tYWUnLCAnPG91dGZpbGUubWFlPic=

> <r_epik_Ionization_Penalty>
2.35523

> <r_epik_Ionization_Penalty_Charging>
2.35518

> <r_epik_Ionization_Penalty_Neutral>
5.21205e-05

> <r_epik_State_Penalty>
2.50981

> <r_epik_Charging_Adjusted_Penalty>
4.86499

> <i_epik_Tot_Q>
1

> <i_epik_Tot_abs_Q>
1

> <r_epik_Metal_State_Penalty>
2.52087

> <b_epik_Metal_Only>
0

> <s_lp_Force_Field>
OPLS_2005

> <r_lp_Energy>
21.0174

> <b_lp_Chiralities_Consistent>
1

> <s_lp_Variant>
AV-unprocessed.smi:2943-4

> <Gold.Version>
5.8.1

> <Gold.Id.Protein>
6NUR|6NUR_protein|mol2

> <Gold.PLP.Fitness>
41.3661

> <Gold.PLP.PLP>
-35.7914

> <Gold.PLP.part.hbond>
-2.0000

> <Gold.PLP.part.metal>
0.0000

> <Gold.PLP.part.buried>
-2.1070

> <Gold.PLP.part.nonpolar>
-31.3511

> <Gold.PLP.part.repulsive>
0.8380

> <Gold.PLP.ligand.clash>
0.0000

> <Gold.PLP.ligand.torsion>
0.6087

> <Gold.PLP.Chemscore.Hbond>
2.2635

> <Gold.PLP.Chemscore.CHOScore>
0.0000

> <Gold.PLP.Chemscore.Metal>
0.0000

> <Gold.Chemscore.Hbonds>
donor molecule, donor type, donor heavy atom, donor atom, acceptor molecule, acceptor atom, score
      L1  H    13    37       P1  8028  2.00
      P1  H  7989  7998       L1    15  0.26

> <Gold.PLP.Chemscore.Internal.Correction>
0.0015

> <Gold.Rescore>
     Score         DG    S(hbond)    S(metal)    S(lipo)     H(rot)  DE(clash)    DE(int)     intcor
     12.65     -14.63       0.83        0.00      82.38       1.27       0.08       1.90       ----

> <Gold.Chemscore.Fitness>
12.6530

> <Gold.Chemscore.DG>
-14.6340

> <Gold.Chemscore.ZeroCoef>
-5.4800

> <Gold.Chemscore.Hbond>
0.8304

> <Gold.Chemscore.Metal>
0.0000

> <Gold.Chemscore.Lipo>
82.3777

> <Gold.Chemscore.Internal_Hbond>
0.0000

> <Gold.Chemscore.DEClash>
0.0774

> <Gold.Chemscore.DEInternal>
1.9036

> <Gold.Chemscore.Rot>
1.2725

> <Gold.Chemscore.Internal.Correction>
   9.000000E+99

> <Gold.Chemscore.Hbonds>
donor molecule, donor type, donor heavy atom, donor atom, acceptor molecule, acceptor atom, score
      L1  H    13    37       P1  8028  0.90

> <Gold.Chemscore.Hbond.Weighted>
-2.7734

> <Gold.Chemscore.Metal.Weighted>
-0.0000

> <Gold.Chemscore.Lipo.Weighted>
-9.6382

> <Gold.Chemscore.Internal_Hbond.Weighted>
0.0000

> <Gold.Chemscore.DEClash.Weighted>
0.0774

> <Gold.Chemscore.DEInternal.Weighted>
1.9036

> <Gold.Chemscore.Rot.Weighted>
3.2576

> <Gold.Chemscore.Internal.Correction.Weighted>
   9.000000E+99

> <Gold.Protein.RotatedTorsions>
[ 6907 6896 6895 6894 ] final    2.54 input  -60.11 | X-H torsion
[ 7974 7965 7964 7962 ] final -178.53 input  175.53 | X-H torsion
[ 8008 7997 7996 7995 ] final   -4.19 input   59.86 | X-H torsion
[ 10167 10162 10161 10158 ] final   61.32 input  -65.29 | X-H torsion
[ 10718 10713 10712 10709 ] final -142.58 input   66.30 | X-H torsion
[ 10763 10752 10751 10750 ] final  -48.84 input  -60.55 | X-H torsion
[ 11005 11000 10999 10996 ] final  154.67 input  -57.11 | X-H torsion

> <Gold.Protein.ActiveResidues>
 VAL166  LYS551  ARG553  GLY616  TRP617  ASP618  TYR619  PRO620  LYS621  CYS622 
 ASP623  PHE694  ASN695  SER759  ASP760  ASP761  ALA762  ILE779  LEU786  VAL792 
 PHE793  MET794  SER795  GLU796  ALA797  LYS798  CYS799  TRP800  GLU811  SER814 

> <Gold.Protein.RotatedAtoms>
  151.6106  135.1040  160.0079 H   0  0  0  0  0  0  0  0  0  0  0  0  # atno 6907 bound_to 6896
  152.4210  133.7113  159.6491 H   0  0  0  0  0  0  0  0  0  0  0  0  # atno 6908 bound_to 6896
  150.8098  133.8370  159.3209 H   0  0  0  0  0  0  0  0  0  0  0  0  # atno 6909 bound_to 6896
  144.7131  140.0854  143.6424 H   0  0  0  0  0  0  0  0  0  0  0  0  # atno 7974 bound_to 7965
  154.6169  140.2490  155.7598 H   0  0  0  0  0  0  0  0  0  0  0  0  # atno 8008 bound_to 7997
  156.2404  140.2935  156.0377 H   0  0  0  0  0  0  0  0  0  0  0  0  # atno 8009 bound_to 7997
  155.1961  140.0393  157.2899 H   0  0  0  0  0  0  0  0  0  0  0  0  # atno 8010 bound_to 7997
  140.1560  144.4417  150.6734 H   0  0  0  0  0  0  0  0  0  0  0  0  # atno 10167 bound_to 10162
  156.3476  130.7671  151.1818 H   0  0  0  0  0  0  0  0  0  0  0  0  # atno 10718 bound_to 10713
  154.0844  135.6586  153.4842 H   0  0  0  0  0  0  0  0  0  0  0  0  # atno 10763 bound_to 10752
  153.0344  135.5187  154.7442 H   0  0  0  0  0  0  0  0  0  0  0  0  # atno 10764 bound_to 10752
  154.6547  135.3006  154.9911 H   0  0  0  0  0  0  0  0  0  0  0  0  # atno 10765 bound_to 10752
  140.1511  134.8674  157.2455 H   0  0  0  0  0  0  0  0  0  0  0  0  # atno 11005 bound_to 11000
  145.9666  139.2839  143.1124 LP  0  0  0  0  0  0  0  0  0  0  0  0  # atno 17320 bound_to 7965
  145.9162  140.9146  143.0428 LP  0  0  0  0  0  0  0  0  0  0  0  0  # atno 17321 bound_to 7965
  140.6673  143.2272  151.5712 LP  0  0  0  0  0  0  0  0  0  0  0  0  # atno 17342 bound_to 10162
  139.5403  144.2665  152.1337 LP  0  0  0  0  0  0  0  0  0  0  0  0  # atno 17343 bound_to 10162
  157.7456  131.0437  150.4755 LP  0  0  0  0  0  0  0  0  0  0  0  0  # atno 17370 bound_to 10713
  156.4945  130.4103  149.6387 LP  0  0  0  0  0  0  0  0  0  0  0  0  # atno 17371 bound_to 10713
  140.2604  134.3578  155.7409 LP  0  0  0  0  0  0  0  0  0  0  0  0  # atno 17394 bound_to 11000
  141.2199  133.7366  156.9071 LP  0  0  0  0  0  0  0  0  0  0  0  0  # atno 17395 bound_to 11000

$$$$
