AV-unprocessed.smi:656|AV-procd|sdf|3218|dock4
  -GOLD-   22720 0153D 1   1.00000     0.00000
 Structure written by MMmdl.
 41 42  0  0  0  0  0  0  0  0  2 V2000
  148.6305  127.0856  152.1239 C   0  0  0  0  0  0  0  0  0  0  0  0
  147.5609  127.8769  151.3634 C   0  0  0  0  0  0  0  0  0  0  0  0
  146.7034  128.7483  152.2977 C   0  0  0  0  0  0  0  0  0  0  0  0
  147.2512  130.1190  152.4621 N   0  3  2  0  0  0  0  0  0  0  0  0
  148.0762  130.2476  153.6915 C   0  0  0  0  0  0  0  0  0  0  0  0
  148.7474  131.6291  153.7726 C   0  0  0  0  0  0  0  0  0  0  0  0
  147.7047  132.7559  153.7091 C   0  0  1  0  0  0  0  0  0  0  0  0
  148.3730  134.0540  153.7118 N   0  0  0  0  0  0  0  0  0  0  0  0
  149.1887  134.4982  154.6798 C   0  0  0  0  0  0  0  0  0  0  0  0
  149.4565  133.8477  155.6901 O   0  0  0  0  0  0  0  0  0  0  0  0
  149.6596  135.7249  154.3963 N   0  0  0  0  0  0  0  0  0  0  0  0
  150.5383  136.5248  155.1737 C   0  0  0  0  0  0  0  0  0  0  0  0
  150.7244  137.8445  154.7099 C   0  0  0  0  0  0  0  0  0  0  0  0
  151.5815  138.6908  155.4338 C   0  0  0  0  0  0  0  0  0  0  0  0
  152.1969  138.1569  156.5787 C   0  0  0  0  0  0  0  0  0  0  0  0
  151.9895  136.8862  156.9868 N   0  0  0  0  0  0  0  0  0  0  0  0
  151.1727  136.0863  156.2925 N   0  0  0  0  0  0  0  0  0  0  0  0
  146.8403  132.5825  152.4470 C   0  0  0  0  0  0  0  0  0  0  0  0
  146.2111  131.1803  152.3923 C   0  0  0  0  0  0  0  0  0  0  0  0
  149.2235  126.4780  151.4402 H   0  0  0  0  0  0  0  0  0  0  0  0
  148.1789  126.4165  152.8569 H   0  0  0  0  0  0  0  0  0  0  0  0
  149.3131  127.7513  152.6529 H   0  0  0  0  0  0  0  0  0  0  0  0
  148.0468  128.5076  150.6180 H   0  0  0  0  0  0  0  0  0  0  0  0
  146.9363  127.1734  150.8139 H   0  0  0  0  0  0  0  0  0  0  0  0
  145.6722  128.7990  151.9446 H   0  0  0  0  0  0  0  0  0  0  0  0
  146.6707  128.2596  153.2727 H   0  0  0  0  0  0  0  0  0  0  0  0
  147.4509  130.0810  154.5702 H   0  0  0  0  0  0  0  0  0  0  0  0
  148.8483  129.4772  153.7006 H   0  0  0  0  0  0  0  0  0  0  0  0
  149.3238  131.7040  154.6956 H   0  0  0  0  0  0  0  0  0  0  0  0
  149.4604  131.7338  152.9532 H   0  0  0  0  0  0  0  0  0  0  0  0
  147.0669  132.6821  154.5923 H   0  0  0  0  0  0  0  0  0  0  0  0
  148.2076  134.6548  152.9174 H   0  0  0  0  0  0  0  0  0  0  0  0
  149.3555  136.1345  153.5257 H   0  0  0  0  0  0  0  0  0  0  0  0
  150.2247  138.2027  153.8217 H   0  0  0  0  0  0  0  0  0  0  0  0
  151.7604  139.7097  155.1238 H   0  0  0  0  0  0  0  0  0  0  0  0
  152.8659  138.7566  157.1778 H   0  0  0  0  0  0  0  0  0  0  0  0
  146.0520  133.3360  152.4220 H   0  0  0  0  0  0  0  0  0  0  0  0
  147.4480  132.7423  151.5548 H   0  0  0  0  0  0  0  0  0  0  0  0
  145.6374  131.0917  151.4705 H   0  0  0  0  0  0  0  0  0  0  0  0
  145.5054  131.0552  153.2151 H   0  0  0  0  0  0  0  0  0  0  0  0
  147.8793  130.2690  151.6855 H   0  0  0  0  0  0  0  0  0  0  0  0
  1  2  1  0  0  0  0
  1 20  1  0  0  0  0
  1 21  1  0  0  0  0
  1 22  1  0  0  0  0
  2  3  1  0  0  0  0
  2 23  1  0  0  0  0
  2 24  1  0  0  0  0
  3  4  1  0  0  0  0
  3 25  1  0  0  0  0
  3 26  1  0  0  0  0
  4 19  1  0  0  0  0
  4  5  1  0  0  0  0
  4 41  1  0  0  0  0
  5  6  1  0  0  0  0
  5 27  1  0  0  0  0
  5 28  1  0  0  0  0
  6  7  1  0  0  0  0
  6 29  1  0  0  0  0
  6 30  1  0  0  0  0
  7  8  1  0  0  0  0
  7 18  1  0  0  0  0
  7 31  1  0  0  0  0
  8  9  1  0  0  0  0
  8 32  1  0  0  0  0
  9 10  2  0  0  0  0
  9 11  1  0  0  0  0
 11 12  1  0  0  0  0
 11 33  1  0  0  0  0
 12 17  1  0  0  0  0
 12 13  2  0  0  0  0
 13 14  1  0  0  0  0
 13 34  1  0  0  0  0
 14 15  2  0  0  0  0
 14 35  1  0  0  0  0
 15 16  1  0  0  0  0
 15 36  1  0  0  0  0
 16 17  2  0  0  0  0
 18 19  1  0  0  0  0
 18 37  1  0  0  0  0
 18 38  1  0  0  0  0
 19 39  1  0  0  0  0
 19 40  1  0  0  0  0
M  CHG  1   4   1
M  END
> <s_m_source_file>
AV-unprocessed.smi

> <i_m_source_file_index>
656

> <i_lp_mmshare_version>
43012

> <i_f3d_flags>
0

> <s_epik_input>
W0NIM11bQ0gyXVtDSDJdTjFbQ0gyXVtDSDJdW0NIXShbQ0gyXVtDSDJdMSlbTkhdQyg9TylbTkhdYzJbY0hdW2NIXVtjSF1ubjI=

> <s_epik_cmdline>
J2VwaWtfcHl0aG9uJywgJy1waCcsICc3LjAnLCAnLXRuJywgJzgnLCAnLW1hJywgJzIwMCcsICctbWV0YWxfYmluZGluZycsICctaW1hZScsICc8aW5maWxlLm1hZT4nLCAnLW9tYWUnLCAnPG91dGZpbGUubWFlPic=

> <r_lp_tautomer_probability>
1

> <r_epik_Ionization_Penalty>
0.00614766

> <r_epik_Ionization_Penalty_Charging>
0.00269617

> <r_epik_Ionization_Penalty_Neutral>
0.00345149

> <r_epik_State_Penalty>
-0

> <r_epik_Charging_Adjusted_Penalty>
0.00269617

> <i_epik_Tot_Q>
1

> <i_epik_Tot_abs_Q>
1

> <r_epik_Metal_State_Penalty>
-0

> <b_epik_Metal_Only>
0

> <s_lp_Force_Field>
OPLS_2005

> <r_lp_Energy>
22.9703

> <b_lp_Chiralities_Consistent>
1

> <s_lp_Variant>
AV-unprocessed.smi:656-1

> <Gold.Version>
5.8.1

> <Gold.Id.Protein>
6NUR|6NUR_protein|mol2

> <Gold.PLP.Fitness>
44.5036

> <Gold.PLP.PLP>
-36.9402

> <Gold.PLP.part.hbond>
-6.0000

> <Gold.PLP.part.metal>
0.0000

> <Gold.PLP.part.buried>
-1.9054

> <Gold.PLP.part.nonpolar>
-29.5075

> <Gold.PLP.part.repulsive>
0.1450

> <Gold.PLP.ligand.clash>
0.0000

> <Gold.PLP.ligand.torsion>
0.7743

> <Gold.PLP.Chemscore.Hbond>
3.0280

> <Gold.PLP.Chemscore.CHOScore>
0.0000

> <Gold.PLP.Chemscore.Metal>
0.0000

> <Gold.Chemscore.Hbonds>
donor molecule, donor type, donor heavy atom, donor atom, acceptor molecule, acceptor atom, score
      L1  H     4    41       P1 10747  1.00
      L1  H     8    32       P1  7948  0.88
      L1  H    11    33       P1  7948  1.00

> <Gold.PLP.Chemscore.Internal.Correction>
0.0280

> <Gold.Rescore>
     Score         DG    S(hbond)    S(metal)    S(lipo)     H(rot)  DE(clash)    DE(int)     intcor
     16.94     -18.76       2.53        0.00      73.06       1.45       0.03       1.79       ----

> <Gold.Chemscore.Fitness>
16.9412

> <Gold.Chemscore.DG>
-18.7596

> <Gold.Chemscore.ZeroCoef>
-5.4800

> <Gold.Chemscore.Hbond>
2.5292

> <Gold.Chemscore.Metal>
0.0000

> <Gold.Chemscore.Lipo>
73.0635

> <Gold.Chemscore.Internal_Hbond>
0.0000

> <Gold.Chemscore.DEClash>
0.0295

> <Gold.Chemscore.DEInternal>
1.7888

> <Gold.Chemscore.Rot>
1.4518

> <Gold.Chemscore.Internal.Correction>
   9.000000E+99

> <Gold.Chemscore.Hbonds>
donor molecule, donor type, donor heavy atom, donor atom, acceptor molecule, acceptor atom, score
      L1  H     4    41       P1 10747  1.00
      L1  H     8    32       P1  7948  0.50
      L1  H    11    33       P1  7948  0.69

> <Gold.Chemscore.Hbond.Weighted>
-8.4477

> <Gold.Chemscore.Metal.Weighted>
-0.0000

> <Gold.Chemscore.Lipo.Weighted>
-8.5484

> <Gold.Chemscore.Internal_Hbond.Weighted>
0.0000

> <Gold.Chemscore.DEClash.Weighted>
0.0295

> <Gold.Chemscore.DEInternal.Weighted>
1.7888

> <Gold.Chemscore.Rot.Weighted>
3.7165

> <Gold.Chemscore.Internal.Correction.Weighted>
   9.000000E+99

> <Gold.Protein.RotatedTorsions>
[ 6907 6896 6895 6894 ] final  -46.62 input  -60.11 | X-H torsion
[ 7974 7965 7964 7962 ] final   22.87 input  175.53 | X-H torsion
[ 8008 7997 7996 7995 ] final   47.12 input   59.86 | X-H torsion
[ 10167 10162 10161 10158 ] final  130.49 input  -65.29 | X-H torsion
[ 10718 10713 10712 10709 ] final   11.56 input   66.30 | X-H torsion
[ 10763 10752 10751 10750 ] final  -54.82 input  -60.55 | X-H torsion
[ 11005 11000 10999 10996 ] final  -23.28 input  -57.11 | X-H torsion

> <Gold.Protein.ActiveResidues>
 VAL166  LYS551  ARG553  GLY616  TRP617  ASP618  TYR619  PRO620  LYS621  CYS622 
 ASP623  PHE694  ASN695  SER759  ASP760  ASP761  ALA762  ILE779  LEU786  VAL792 
 PHE793  MET794  SER795  GLU796  ALA797  LYS798  CYS799  TRP800  GLU811  SER814 

> <Gold.Protein.RotatedAtoms>
  150.9093  134.8510  159.7414 H   0  0  0  0  0  0  0  0  0  0  0  0  # atno 6907 bound_to 6896
  152.4936  134.4383  159.9545 H   0  0  0  0  0  0  0  0  0  0  0  0  # atno 6908 bound_to 6896
  151.4427  133.3599  159.2819 H   0  0  0  0  0  0  0  0  0  0  0  0  # atno 6909 bound_to 6896
  146.2010  139.7824  142.8762 H   0  0  0  0  0  0  0  0  0  0  0  0  # atno 7974 bound_to 7965
  155.3637  140.3420  155.4241 H   0  0  0  0  0  0  0  0  0  0  0  0  # atno 8008 bound_to 7997
  156.1700  140.1628  156.8499 H   0  0  0  0  0  0  0  0  0  0  0  0  # atno 8009 bound_to 7997
  154.5223  140.0764  156.8177 H   0  0  0  0  0  0  0  0  0  0  0  0  # atno 8010 bound_to 7997
  139.5428  144.6746  151.4570 H   0  0  0  0  0  0  0  0  0  0  0  0  # atno 10167 bound_to 10162
  156.9973  130.6066  149.5692 H   0  0  0  0  0  0  0  0  0  0  0  0  # atno 10718 bound_to 10713
  154.1810  135.6443  153.5034 H   0  0  0  0  0  0  0  0  0  0  0  0  # atno 10763 bound_to 10752
  153.0059  135.5406  154.6514 H   0  0  0  0  0  0  0  0  0  0  0  0  # atno 10764 bound_to 10752
  154.5878  135.2931  155.0639 H   0  0  0  0  0  0  0  0  0  0  0  0  # atno 10765 bound_to 10752
  140.8737  133.7702  156.0217 H   0  0  0  0  0  0  0  0  0  0  0  0  # atno 11005 bound_to 11000
  145.3485  141.0302  143.3352 LP  0  0  0  0  0  0  0  0  0  0  0  0  # atno 17320 bound_to 7965
  144.8683  139.5076  143.6780 LP  0  0  0  0  0  0  0  0  0  0  0  0  # atno 17321 bound_to 7965
  140.6664  143.8388  150.6947 LP  0  0  0  0  0  0  0  0  0  0  0  0  # atno 17342 bound_to 10162
  140.1799  143.4124  152.1941 LP  0  0  0  0  0  0  0  0  0  0  0  0  # atno 17343 bound_to 10162
  156.0184  130.5279  150.8204 LP  0  0  0  0  0  0  0  0  0  0  0  0  # atno 17370 bound_to 10713
  157.5415  131.0941  150.9820 LP  0  0  0  0  0  0  0  0  0  0  0  0  # atno 17371 bound_to 10713
  140.8543  134.2917  157.5262 LP  0  0  0  0  0  0  0  0  0  0  0  0  # atno 17394 bound_to 11000
  139.8714  134.9484  156.3996 LP  0  0  0  0  0  0  0  0  0  0  0  0  # atno 17395 bound_to 11000

$$$$
