AV-unprocessed.smi:3181|AV-procd|sdf|12143|dock5
  -GOLD-   2272017583D 1   1.00000     0.00000
 Structure written by MMmdl.
 42 43  0  0  0  0  0  0  0  0  2 V2000
  149.1874  141.3822  154.3985 C   0  0  0  0  0  0  0  0  0  0  0  0
  149.3544  141.3277  155.9262 C   0  0  2  0  0  0  0  0  0  0  0  0
  148.0127  141.5209  156.6700 C   0  0  0  0  0  0  0  0  0  0  0  0
  146.9952  140.5734  156.2544 N   0  0  0  0  0  0  0  0  0  0  0  0
  146.2996  139.6782  156.9580 C   0  0  0  0  0  0  0  0  0  0  0  0
  145.4489  138.9700  156.2290 N   0  0  0  0  0  0  0  0  0  0  0  0
  145.6955  139.5111  154.9988 C   0  0  0  0  0  0  0  0  0  0  0  0
  146.6160  140.4747  154.9588 N   0  0  0  0  0  0  0  0  0  0  0  0
  150.3421  142.3496  156.3449 N   0  3  0  0  0  0  0  0  0  0  0  0
  150.8613  142.2357  157.7278 C   0  0  2  0  0  0  0  0  0  0  0  0
  151.7549  143.4447  158.0446 C   0  0  0  0  0  0  0  0  0  0  0  0
  152.3297  143.3522  159.4645 C   0  0  0  0  0  0  0  0  0  0  0  0
  153.1266  142.0500  159.6812 C   0  0  1  0  0  0  0  0  0  0  0  0
  153.6901  142.0153  161.1130 C   0  0  0  0  0  0  0  0  0  0  0  0
  152.2526  140.8132  159.3433 C   0  0  2  0  0  0  0  0  0  0  0  0
  153.0179  139.4845  159.4790 C   0  0  0  0  0  0  0  0  0  0  0  0
  151.6611  140.9320  157.9227 C   0  0  0  0  0  0  0  0  0  0  0  0
  148.5350  140.5870  154.0368 H   0  0  0  0  0  0  0  0  0  0  0  0
  150.1474  141.2626  153.8951 H   0  0  0  0  0  0  0  0  0  0  0  0
  148.7608  142.3338  154.0788 H   0  0  0  0  0  0  0  0  0  0  0  0
  149.7509  140.3416  156.1677 H   0  0  0  0  0  0  0  0  0  0  0  0
  148.1409  141.4158  157.7474 H   0  0  0  0  0  0  0  0  0  0  0  0
  147.6310  142.5288  156.5006 H   0  0  0  0  0  0  0  0  0  0  0  0
  146.4139  139.5442  158.0239 H   0  0  0  0  0  0  0  0  0  0  0  0
  145.1817  139.1851  154.1065 H   0  0  0  0  0  0  0  0  0  0  0  0
  151.1347  142.3038  155.7203 H   0  0  0  0  0  0  0  0  0  0  0  0
  150.0240  142.2464  158.4258 H   0  0  0  0  0  0  0  0  0  0  0  0
  152.5728  143.5052  157.3249 H   0  0  0  0  0  0  0  0  0  0  0  0
  151.1838  144.3685  157.9427 H   0  0  0  0  0  0  0  0  0  0  0  0
  152.9695  144.2156  159.6507 H   0  0  0  0  0  0  0  0  0  0  0  0
  151.5165  143.4120  160.1893 H   0  0  0  0  0  0  0  0  0  0  0  0
  153.9753  142.0634  158.9955 H   0  0  0  0  0  0  0  0  0  0  0  0
  152.8927  141.9303  161.8518 H   0  0  0  0  0  0  0  0  0  0  0  0
  154.2501  142.9244  161.3340 H   0  0  0  0  0  0  0  0  0  0  0  0
  154.3749  141.1807  161.2601 H   0  0  0  0  0  0  0  0  0  0  0  0
  151.4191  140.7840  160.0469 H   0  0  0  0  0  0  0  0  0  0  0  0
  153.9113  139.4756  158.8538 H   0  0  0  0  0  0  0  0  0  0  0  0
  152.3950  138.6417  159.1781 H   0  0  0  0  0  0  0  0  0  0  0  0
  153.3254  139.2968  160.5074 H   0  0  0  0  0  0  0  0  0  0  0  0
  151.0244  140.0682  157.7313 H   0  0  0  0  0  0  0  0  0  0  0  0
  152.4670  140.8848  157.1884 H   0  0  0  0  0  0  0  0  0  0  0  0
  149.9080  143.2554  156.2381 H   0  0  0  0  0  0  0  0  0  0  0  0
  1  2  1  0  0  0  0
  1 18  1  0  0  0  0
  1 19  1  0  0  0  0
  1 20  1  0  0  0  0
  2  3  1  0  0  0  0
  2  9  1  0  0  0  0
  2 21  1  0  0  0  0
  3  4  1  0  0  0  0
  3 22  1  0  0  0  0
  3 23  1  0  0  0  0
  4  8  1  0  0  0  0
  4  5  1  0  0  0  0
  5  6  2  0  0  0  0
  5 24  1  0  0  0  0
  6  7  1  0  0  0  0
  7  8  2  0  0  0  0
  7 25  1  0  0  0  0
  9 10  1  0  0  0  0
  9 26  1  0  0  0  0
  9 42  1  0  0  0  0
 10 17  1  0  0  0  0
 10 11  1  0  0  0  0
 10 27  1  0  0  0  0
 11 12  1  0  0  0  0
 11 28  1  0  0  0  0
 11 29  1  0  0  0  0
 12 13  1  0  0  0  0
 12 30  1  0  0  0  0
 12 31  1  0  0  0  0
 13 14  1  0  0  0  0
 13 15  1  0  0  0  0
 13 32  1  0  0  0  0
 14 33  1  0  0  0  0
 14 34  1  0  0  0  0
 14 35  1  0  0  0  0
 15 16  1  0  0  0  0
 15 17  1  0  0  0  0
 15 36  1  0  0  0  0
 16 37  1  0  0  0  0
 16 38  1  0  0  0  0
 16 39  1  0  0  0  0
 17 40  1  0  0  0  0
 17 41  1  0  0  0  0
M  CHG  1   9   1
M  END
> <s_m_source_file>
AV-unprocessed.smi

> <i_m_source_file_index>
3181

> <i_lp_mmshare_version>
43012

> <i_f3d_flags>
0

> <s_epik_input>
bjFbY0hdbltjSF1uMVtDSDJdW0NAQEhdKFtDSDNdKVtOSF1bQ0BASF0yW0NIMl1bQ0gyXVtDQEBIXShbQ0gzXSlbQ0BASF0oW0NIM10pW0NIMl0y

> <s_epik_cmdline>
J2VwaWtfcHl0aG9uJywgJy1waCcsICc3LjAnLCAnLXRuJywgJzgnLCAnLW1hJywgJzIwMCcsICctbWV0YWxfYmluZGluZycsICctaW1hZScsICc8aW5maWxlLm1hZT4nLCAnLW9tYWUnLCAnPG91dGZpbGUubWFlPic=

> <r_lp_tautomer_probability>
1

> <r_epik_Ionization_Penalty>
0.000617007

> <r_epik_Ionization_Penalty_Charging>
0.000616215

> <r_epik_Ionization_Penalty_Neutral>
7.92544e-07

> <r_epik_State_Penalty>
0.000388807

> <r_epik_Charging_Adjusted_Penalty>
0.00100502

> <i_epik_Tot_Q>
1

> <i_epik_Tot_abs_Q>
1

> <r_epik_Metal_State_Penalty>
-0

> <b_epik_Metal_Only>
0

> <s_lp_Force_Field>
OPLS_2005

> <r_lp_Energy>
18.1842

> <b_lp_Chiralities_Consistent>
1

> <s_lp_Variant>
AV-unprocessed.smi:3181-9

> <Gold.Version>
5.8.1

> <Gold.Id.Protein>
6NUR|6NUR_protein|mol2

> <Gold.PLP.Fitness>
39.6735

> <Gold.PLP.PLP>
-30.8409

> <Gold.PLP.part.hbond>
-1.0000

> <Gold.PLP.part.metal>
0.0000

> <Gold.PLP.part.buried>
-3.0909

> <Gold.PLP.part.nonpolar>
-26.4213

> <Gold.PLP.part.repulsive>
0.1883

> <Gold.PLP.ligand.clash>
0.0000

> <Gold.PLP.ligand.torsion>
0.0956

> <Gold.PLP.Chemscore.Hbond>
2.0000

> <Gold.PLP.Chemscore.CHOScore>
1.0000

> <Gold.PLP.Chemscore.Metal>
0.0000

> <Gold.Chemscore.Hbonds>
donor molecule, donor type, donor heavy atom, donor atom, acceptor molecule, acceptor atom, score
      L1  H     9    42       P1  8028  2.00
      L1  C     7    25       P1 10175  0.92

> <Gold.PLP.Chemscore.Internal.Correction>
0.0238

> <Gold.Rescore>
     Score         DG    S(hbond)    S(metal)    S(lipo)     H(rot)  DE(clash)    DE(int)     intcor
     13.04     -14.45       1.00        0.00      94.29       2.11       0.08       1.33       ----

> <Gold.Chemscore.Fitness>
13.0403

> <Gold.Chemscore.DG>
-14.4520

> <Gold.Chemscore.ZeroCoef>
-5.4800

> <Gold.Chemscore.Hbond>
1.0000

> <Gold.Chemscore.Metal>
0.0000

> <Gold.Chemscore.Lipo>
94.2934

> <Gold.Chemscore.Internal_Hbond>
0.0000

> <Gold.Chemscore.DEClash>
0.0795

> <Gold.Chemscore.DEInternal>
1.3323

> <Gold.Chemscore.Rot>
2.1095

> <Gold.Chemscore.Internal.Correction>
   9.000000E+99

> <Gold.Chemscore.Hbonds>
donor molecule, donor type, donor heavy atom, donor atom, acceptor molecule, acceptor atom, score
      L1  H     9    42       P1  8028  1.00

> <Gold.Chemscore.Hbond.Weighted>
-3.3400

> <Gold.Chemscore.Metal.Weighted>
-0.0000

> <Gold.Chemscore.Lipo.Weighted>
-11.0323

> <Gold.Chemscore.Internal_Hbond.Weighted>
0.0000

> <Gold.Chemscore.DEClash.Weighted>
0.0795

> <Gold.Chemscore.DEInternal.Weighted>
1.3323

> <Gold.Chemscore.Rot.Weighted>
5.4003

> <Gold.Chemscore.Internal.Correction.Weighted>
   9.000000E+99

> <Gold.Protein.RotatedTorsions>
[ 6907 6896 6895 6894 ] final  -83.41 input  -60.11 | X-H torsion
[ 7974 7965 7964 7962 ] final  155.79 input  175.53 | X-H torsion
[ 8008 7997 7996 7995 ] final  170.51 input   59.86 | X-H torsion
[ 10167 10162 10161 10158 ] final   -0.37 input  -65.29 | X-H torsion
[ 10718 10713 10712 10709 ] final  101.40 input   66.30 | X-H torsion
[ 10763 10752 10751 10750 ] final   61.77 input  -60.55 | X-H torsion
[ 11005 11000 10999 10996 ] final  -74.03 input  -57.11 | X-H torsion

> <Gold.Protein.ActiveResidues>
 VAL166  LYS551  ARG553  GLY616  TRP617  ASP618  TYR619  PRO620  LYS621  CYS622 
 ASP623  PHE694  ASN695  SER759  ASP760  ASP761  ALA762  ILE779  LEU786  VAL792 
 PHE793  MET794  SER795  GLU796  ALA797  LYS798  CYS799  TRP800  GLU811  SER814 

> <Gold.Protein.RotatedAtoms>
  150.6886  134.3515  159.4910 H   0  0  0  0  0  0  0  0  0  0  0  0  # atno 6907 bound_to 6896
  152.1356  134.9099  160.0565 H   0  0  0  0  0  0  0  0  0  0  0  0  # atno 6908 bound_to 6896
  152.0252  133.3880  159.4311 H   0  0  0  0  0  0  0  0  0  0  0  0  # atno 6909 bound_to 6896
  144.8003  139.7115  143.6184 H   0  0  0  0  0  0  0  0  0  0  0  0  # atno 7974 bound_to 7965
  156.1358  140.1536  156.8996 H   0  0  0  0  0  0  0  0  0  0  0  0  # atno 8008 bound_to 7997
  154.4946  140.0842  156.7708 H   0  0  0  0  0  0  0  0  0  0  0  0  # atno 8009 bound_to 7997
  155.4171  140.3421  155.4270 H   0  0  0  0  0  0  0  0  0  0  0  0  # atno 8010 bound_to 7997
  140.6764  143.6903  150.8033 H   0  0  0  0  0  0  0  0  0  0  0  0  # atno 10167 bound_to 10162
  157.6830  131.0725  150.5247 H   0  0  0  0  0  0  0  0  0  0  0  0  # atno 10718 bound_to 10713
  152.9961  135.5489  154.6086 H   0  0  0  0  0  0  0  0  0  0  0  0  # atno 10763 bound_to 10752
  154.5412  135.2820  155.1096 H   0  0  0  0  0  0  0  0  0  0  0  0  # atno 10764 bound_to 10752
  154.2373  135.6423  153.5248 H   0  0  0  0  0  0  0  0  0  0  0  0  # atno 10765 bound_to 10752
  141.1630  133.6897  156.7302 H   0  0  0  0  0  0  0  0  0  0  0  0  # atno 11005 bound_to 11000
  146.2283  139.5764  142.9572 LP  0  0  0  0  0  0  0  0  0  0  0  0  # atno 17320 bound_to 7965
  145.5570  141.0408  143.2247 LP  0  0  0  0  0  0  0  0  0  0  0  0  # atno 17321 bound_to 7965
  140.0596  143.5168  152.2634 LP  0  0  0  0  0  0  0  0  0  0  0  0  # atno 17342 bound_to 10162
  139.6059  144.7596  151.3062 LP  0  0  0  0  0  0  0  0  0  0  0  0  # atno 17343 bound_to 10162
  156.5559  130.4243  149.6085 LP  0  0  0  0  0  0  0  0  0  0  0  0  # atno 17370 bound_to 10713
  156.2862  130.7099  151.1936 LP  0  0  0  0  0  0  0  0  0  0  0  0  # atno 17371 bound_to 10713
  140.2751  134.8361  157.3883 LP  0  0  0  0  0  0  0  0  0  0  0  0  # atno 17394 bound_to 11000
  140.1485  134.4880  155.7978 LP  0  0  0  0  0  0  0  0  0  0  0  0  # atno 17395 bound_to 11000

$$$$
