AV-unprocessed.smi:1629|AV-procd|sdf|6523|dock8
  -GOLD-   22720 7203D 1   1.00000     0.00000
 Structure written by MMmdl.
 43 44  0  0  0  0  0  0  0  0  2 V2000
  151.0674  134.7463  155.8426 C   0  0  0  0  0  0  0  0  0  0  0  0
  149.7989  135.5878  156.8704 S   0  0  0  0  0  0  0  0  0  0  0  0
  148.7452  134.5871  157.1041 O   0  0  0  0  0  0  0  0  0  0  0  0
  150.5147  136.0990  158.0505 O   0  0  0  0  0  0  0  0  0  0  0  0
  149.3323  136.7675  155.8599 N   0  5  0  0  0  0  0  0  0  0  0  0
  150.0073  138.0572  155.8881 C   0  0  0  0  0  0  0  0  0  0  0  0
  151.5272  137.8997  155.6121 C   0  0  0  0  0  0  0  0  0  0  0  0
  152.3347  139.2021  155.8683 C   0  0  0  0  0  0  0  0  0  0  0  0
  152.1300  139.6852  157.2525 N   0  0  0  0  0  0  0  0  0  0  0  0
  153.0516  139.7301  158.2468 C   0  0  0  0  0  0  0  0  0  0  0  0
  154.1281  139.1333  158.2012 O   0  0  0  0  0  0  0  0  0  0  0  0
  152.7015  140.4883  159.2966 N   0  0  0  0  0  0  0  0  0  0  0  0
  153.5086  140.6947  160.4925 C   0  0  0  0  0  0  0  0  0  0  0  0
  152.9334  141.8210  161.3682 C   0  0  0  0  0  0  0  0  0  0  0  0
  152.5033  143.0429  160.5736 C   0  0  0  0  0  0  0  0  0  0  0  0
  151.8735  144.1336  161.2115 C   0  0  0  0  0  0  0  0  0  0  0  0
  151.5101  145.2482  160.4314 C   0  0  0  0  0  0  0  0  0  0  0  0
  151.7875  145.2292  159.0509 C   0  0  0  0  0  0  0  0  0  0  0  0
  152.4201  144.0923  158.5098 C   0  0  0  0  0  0  0  0  0  0  0  0
  152.7746  143.0193  159.2494 N   0  0  0  0  0  0  0  0  0  0  0  0
  150.7045  139.9924  157.4716 C   0  0  0  0  0  0  0  0  0  0  0  0
  149.8300  138.7218  157.2785 C   0  0  0  0  0  0  0  0  0  0  0  0
  151.4857  133.9092  156.4002 H   0  0  0  0  0  0  0  0  0  0  0  0
  151.8606  135.4508  155.5948 H   0  0  0  0  0  0  0  0  0  0  0  0
  150.6067  134.3788  154.9261 H   0  0  0  0  0  0  0  0  0  0  0  0
  149.5966  138.7417  155.1447 H   0  0  0  0  0  0  0  0  0  0  0  0
  151.9350  137.1089  156.2441 H   0  0  0  0  0  0  0  0  0  0  0  0
  151.6860  137.5776  154.5828 H   0  0  0  0  0  0  0  0  0  0  0  0
  153.3805  139.0208  155.6220 H   0  0  0  0  0  0  0  0  0  0  0  0
  152.0241  139.9870  155.1752 H   0  0  0  0  0  0  0  0  0  0  0  0
  151.8047  140.9510  159.2653 H   0  0  0  0  0  0  0  0  0  0  0  0
  153.5368  139.7623  161.0581 H   0  0  0  0  0  0  0  0  0  0  0  0
  154.5369  140.9320  160.2154 H   0  0  0  0  0  0  0  0  0  0  0  0
  152.0801  141.4463  161.9347 H   0  0  0  0  0  0  0  0  0  0  0  0
  153.6760  142.1231  162.1080 H   0  0  0  0  0  0  0  0  0  0  0  0
  151.6787  144.1208  162.2741 H   0  0  0  0  0  0  0  0  0  0  0  0
  151.0286  146.1025  160.8842 H   0  0  0  0  0  0  0  0  0  0  0  0
  151.5226  146.0658  158.4216 H   0  0  0  0  0  0  0  0  0  0  0  0
  152.6485  144.0440  157.4554 H   0  0  0  0  0  0  0  0  0  0  0  0
  150.5206  140.3992  158.4667 H   0  0  0  0  0  0  0  0  0  0  0  0
  150.3998  140.7817  156.7813 H   0  0  0  0  0  0  0  0  0  0  0  0
  148.7805  138.9753  157.4328 H   0  0  0  0  0  0  0  0  0  0  0  0
  150.0867  138.0063  158.0617 H   0  0  0  0  0  0  0  0  0  0  0  0
  1  2  1  0  0  0  0
  1 23  1  0  0  0  0
  1 24  1  0  0  0  0
  1 25  1  0  0  0  0
  2  3  2  0  0  0  0
  2  4  2  0  0  0  0
  2  5  1  0  0  0  0
  5  6  1  0  0  0  0
  6 22  1  0  0  0  0
  6  7  1  0  0  0  0
  6 26  1  0  0  0  0
  7  8  1  0  0  0  0
  7 27  1  0  0  0  0
  7 28  1  0  0  0  0
  8  9  1  0  0  0  0
  8 29  1  0  0  0  0
  8 30  1  0  0  0  0
  9 10  1  0  0  0  0
  9 21  1  0  0  0  0
 10 11  2  0  0  0  0
 10 12  1  0  0  0  0
 12 13  1  0  0  0  0
 12 31  1  0  0  0  0
 13 14  1  0  0  0  0
 13 32  1  0  0  0  0
 13 33  1  0  0  0  0
 14 15  1  0  0  0  0
 14 34  1  0  0  0  0
 14 35  1  0  0  0  0
 15 20  1  0  0  0  0
 15 16  2  0  0  0  0
 16 17  1  0  0  0  0
 16 36  1  0  0  0  0
 17 18  2  0  0  0  0
 17 37  1  0  0  0  0
 18 19  1  0  0  0  0
 18 38  1  0  0  0  0
 19 20  2  0  0  0  0
 19 39  1  0  0  0  0
 21 22  1  0  0  0  0
 21 40  1  0  0  0  0
 21 41  1  0  0  0  0
 22 42  1  0  0  0  0
 22 43  1  0  0  0  0
M  CHG  1   5  -1
M  END
> <s_m_source_file>
AV-unprocessed.smi

> <i_m_source_file_index>
1629

> <i_lp_mmshare_version>
43012

> <i_f3d_flags>
0

> <s_epik_input>
W0NIM11TKD1PKSg9TylbTkhdW0NIXTFbQ0gyXVtDSDJdTihbQ0gyXVtDSDJdMSlDKD1PKVtOSF1bQ0gyXVtDSDJdYzJbY0hdW2NIXVtjSF1bY0hdbjI=

> <s_epik_cmdline>
J2VwaWtfcHl0aG9uJywgJy1waCcsICc3LjAnLCAnLXRuJywgJzgnLCAnLW1hJywgJzIwMCcsICctbWV0YWxfYmluZGluZycsICctaW1hZScsICc8aW5maWxlLm1hZT4nLCAnLW9tYWUnLCAnPG91dGZpbGUubWFlPic=

> <r_epik_Ionization_Penalty>
6.75298

> <r_epik_Ionization_Penalty_Charging>
6.70803

> <r_epik_Ionization_Penalty_Neutral>
0.0449518

> <r_epik_State_Penalty>
6.74601

> <r_epik_Charging_Adjusted_Penalty>
13.454

> <i_epik_Tot_Q>
-1

> <i_epik_Tot_abs_Q>
1

> <r_epik_Metal_State_Penalty>
2.70902

> <b_epik_Metal_Only>
1

> <s_lp_Force_Field>
OPLS_2005

> <r_lp_Energy>
26.8071

> <b_lp_Chiralities_Consistent>
1

> <s_lp_Variant>
AV-unprocessed.smi:1629-3

> <Gold.Version>
5.8.1

> <Gold.Id.Protein>
6NUR|6NUR_protein|mol2

> <Gold.PLP.Fitness>
46.7414

> <Gold.PLP.PLP>
-41.2951

> <Gold.PLP.part.hbond>
-2.0000

> <Gold.PLP.part.metal>
0.0000

> <Gold.PLP.part.buried>
-5.7622

> <Gold.PLP.part.nonpolar>
-33.4523

> <Gold.PLP.part.repulsive>
0.1422

> <Gold.PLP.ligand.clash>
0.0000

> <Gold.PLP.ligand.torsion>
0.7731

> <Gold.PLP.Chemscore.Hbond>
2.0000

> <Gold.PLP.Chemscore.CHOScore>
0.0000

> <Gold.PLP.Chemscore.Metal>
0.0000

> <Gold.Chemscore.Hbonds>
donor molecule, donor type, donor heavy atom, donor atom, acceptor molecule, acceptor atom, score
      P1  H  6896  6909       L1     4  0.64
      P1  H  7997  8009       L1    11  0.98

> <Gold.PLP.Chemscore.Internal.Correction>
0.9925

> <Gold.Rescore>
     Score         DG    S(hbond)    S(metal)    S(lipo)     H(rot)  DE(clash)    DE(int)     intcor
     15.46     -19.35       1.79        0.00     104.39       1.68       0.03       3.86       ----

> <Gold.Chemscore.Fitness>
15.4608

> <Gold.Chemscore.DG>
-19.3517

> <Gold.Chemscore.ZeroCoef>
-5.4800

> <Gold.Chemscore.Hbond>
1.7853

> <Gold.Chemscore.Metal>
0.0000

> <Gold.Chemscore.Lipo>
104.3862

> <Gold.Chemscore.Internal_Hbond>
0.0000

> <Gold.Chemscore.DEClash>
0.0270

> <Gold.Chemscore.DEInternal>
3.8640

> <Gold.Chemscore.Rot>
1.6813

> <Gold.Chemscore.Internal.Correction>
   9.000000E+99

> <Gold.Chemscore.Hbonds>
donor molecule, donor type, donor heavy atom, donor atom, acceptor molecule, acceptor atom, score
      P1  H  6896  6909       L1     4  0.60
      P1  H  7997  8009       L1    11  0.41

> <Gold.Chemscore.Hbond.Weighted>
-5.9628

> <Gold.Chemscore.Metal.Weighted>
-0.0000

> <Gold.Chemscore.Lipo.Weighted>
-12.2132

> <Gold.Chemscore.Internal_Hbond.Weighted>
0.0000

> <Gold.Chemscore.DEClash.Weighted>
0.0270

> <Gold.Chemscore.DEInternal.Weighted>
3.8640

> <Gold.Chemscore.Rot.Weighted>
4.3042

> <Gold.Chemscore.Internal.Correction.Weighted>
   9.000000E+99

> <Gold.Protein.RotatedTorsions>
[ 6907 6896 6895 6894 ] final   64.69 input  -60.11 | X-H torsion
[ 7974 7965 7964 7962 ] final   39.48 input  175.53 | X-H torsion
[ 8008 7997 7996 7995 ] final  126.69 input   59.86 | X-H torsion
[ 10167 10162 10161 10158 ] final  159.96 input  -65.29 | X-H torsion
[ 10718 10713 10712 10709 ] final   71.59 input   66.30 | X-H torsion
[ 10763 10752 10751 10750 ] final -129.23 input  -60.55 | X-H torsion
[ 11005 11000 10999 10996 ] final -116.53 input  -57.11 | X-H torsion

> <Gold.Protein.ActiveResidues>
 VAL166  LYS551  ARG553  GLY616  TRP617  ASP618  TYR619  PRO620  LYS621  CYS622 
 ASP623  PHE694  ASN695  SER759  ASP760  ASP761  ALA762  ILE779  LEU786  VAL792 
 PHE793  MET794  SER795  GLU796  ALA797  LYS798  CYS799  TRP800  GLU811  SER814 

> <Gold.Protein.RotatedAtoms>
  152.4351  134.5702  159.9918 H   0  0  0  0  0  0  0  0  0  0  0  0  # atno 6907 bound_to 6896
  151.5815  133.3371  159.3017 H   0  0  0  0  0  0  0  0  0  0  0  0  # atno 6908 bound_to 6896
  150.8248  134.7509  159.6868 H   0  0  0  0  0  0  0  0  0  0  0  0  # atno 6909 bound_to 6896
  146.0981  139.5646  142.9432 H   0  0  0  0  0  0  0  0  0  0  0  0  # atno 7974 bound_to 7965
  156.2871  140.2686  156.2152 H   0  0  0  0  0  0  0  0  0  0  0  0  # atno 8008 bound_to 7997
  155.0224  140.0386  157.2460 H   0  0  0  0  0  0  0  0  0  0  0  0  # atno 8009 bound_to 7997
  154.7425  140.2727  155.6366 H   0  0  0  0  0  0  0  0  0  0  0  0  # atno 8010 bound_to 7997
  139.4836  144.4680  151.8615 H   0  0  0  0  0  0  0  0  0  0  0  0  # atno 10167 bound_to 10162
  157.6459  130.9536  150.0810 H   0  0  0  0  0  0  0  0  0  0  0  0  # atno 10718 bound_to 10713
  154.8757  135.3902  154.3886 H   0  0  0  0  0  0  0  0  0  0  0  0  # atno 10763 bound_to 10752
  153.4625  135.7029  153.6047 H   0  0  0  0  0  0  0  0  0  0  0  0  # atno 10764 bound_to 10752
  153.4540  135.3827  155.2268 H   0  0  0  0  0  0  0  0  0  0  0  0  # atno 10765 bound_to 10752
  141.0416  133.9827  157.2986 H   0  0  0  0  0  0  0  0  0  0  0  0  # atno 11005 bound_to 11000
  145.5909  141.0369  143.2070 LP  0  0  0  0  0  0  0  0  0  0  0  0  # atno 17320 bound_to 7965
  144.7411  139.7447  143.7310 LP  0  0  0  0  0  0  0  0  0  0  0  0  # atno 17321 bound_to 7965
  140.4147  144.2323  150.5888 LP  0  0  0  0  0  0  0  0  0  0  0  0  # atno 17342 bound_to 10162
  140.4932  143.2340  151.8787 LP  0  0  0  0  0  0  0  0  0  0  0  0  # atno 17343 bound_to 10162
  156.1786  130.3649  149.9066 LP  0  0  0  0  0  0  0  0  0  0  0  0  # atno 17370 bound_to 10713
  156.7024  130.8938  151.3601 LP  0  0  0  0  0  0  0  0  0  0  0  0  # atno 17371 bound_to 10713
  139.9280  135.0201  156.8301 LP  0  0  0  0  0  0  0  0  0  0  0  0  # atno 17394 bound_to 11000
  140.6224  133.9981  155.7624 LP  0  0  0  0  0  0  0  0  0  0  0  0  # atno 17395 bound_to 11000

$$$$
