AV-unprocessed.smi:1897|AV-procd|sdf|7689|dock4
  -GOLD-   22720 9433D 1   1.00000     0.00000
 Structure written by MMmdl.
 39 41  0  0  0  0  0  0  0  0  2 V2000
  147.2571  136.2924  163.1016 C   0  0  0  0  0  0  0  0  0  0  0  0
  147.5955  136.1136  161.6611 C   0  0  0  0  0  0  0  0  0  0  0  0
  147.9429  137.1334  160.8672 N   0  0  0  0  0  0  0  0  0  0  0  0
  148.2175  136.7205  159.5719 N   0  0  0  0  0  0  0  0  0  0  0  0
  148.0598  135.3974  159.4200 C   0  0  0  0  0  0  0  0  0  0  0  0
  148.2927  134.6887  158.2049 N   0  0  0  0  0  0  0  0  0  0  0  0
  148.2771  135.0933  156.9171 C   0  0  0  0  0  0  0  0  0  0  0  0
  148.0253  136.2601  156.6217 O   0  0  0  0  0  0  0  0  0  0  0  0
  148.5450  134.1540  155.9951 N   0  0  0  0  0  0  0  0  0  0  0  0
  148.5051  134.3465  154.5495 C   0  0  1  0  0  0  0  0  0  0  0  0
  148.9957  133.1162  153.7652 C   0  0  0  0  0  0  0  0  0  0  0  0
  148.0529  133.0008  152.5512 C   0  0  0  0  0  0  0  0  0  0  0  0
  147.1887  134.1947  152.6136 N   0  3  1  0  0  0  0  0  0  0  0  0
  145.8766  134.1130  151.9354 C   0  0  0  0  0  0  0  0  0  0  0  0
  145.1616  135.4748  152.0453 C   0  0  0  0  0  0  0  0  0  0  0  0
  145.0711  135.9572  153.5077 C   0  0  0  0  0  0  0  0  0  0  0  0
  146.4528  135.9309  154.1893 C   0  0  0  0  0  0  0  0  0  0  0  0
  147.0737  134.5318  154.0401 C   0  0  2  0  0  0  0  0  0  0  0  0
  147.5664  134.5416  160.8718 S   0  0  0  0  0  0  0  0  0  0  0  0
  147.7584  137.1728  163.5052 H   0  0  0  0  0  0  0  0  0  0  0  0
  147.5742  135.4199  163.6732 H   0  0  0  0  0  0  0  0  0  0  0  0
  146.1806  136.4167  163.2184 H   0  0  0  0  0  0  0  0  0  0  0  0
  148.6044  133.7371  158.3370 H   0  0  0  0  0  0  0  0  0  0  0  0
  148.7529  133.2217  156.3247 H   0  0  0  0  0  0  0  0  0  0  0  0
  149.1121  135.2052  154.2551 H   0  0  0  0  0  0  0  0  0  0  0  0
  150.0351  133.2392  153.4585 H   0  0  0  0  0  0  0  0  0  0  0  0
  148.9377  132.2070  154.3658 H   0  0  0  0  0  0  0  0  0  0  0  0
  148.5929  132.9613  151.6049 H   0  0  0  0  0  0  0  0  0  0  0  0
  147.4475  132.0969  152.6346 H   0  0  0  0  0  0  0  0  0  0  0  0
  146.0211  133.8469  150.8878 H   0  0  0  0  0  0  0  0  0  0  0  0
  145.2717  133.3257  152.3885 H   0  0  0  0  0  0  0  0  0  0  0  0
  145.7049  136.2150  151.4564 H   0  0  0  0  0  0  0  0  0  0  0  0
  144.1634  135.4094  151.6112 H   0  0  0  0  0  0  0  0  0  0  0  0
  144.6522  136.9632  153.5464 H   0  0  0  0  0  0  0  0  0  0  0  0
  144.3829  135.3151  154.0590 H   0  0  0  0  0  0  0  0  0  0  0  0
  147.1042  136.6819  153.7405 H   0  0  0  0  0  0  0  0  0  0  0  0
  146.3520  136.1919  155.2431 H   0  0  0  0  0  0  0  0  0  0  0  0
  146.4256  133.7941  154.5196 H   0  0  0  0  0  0  0  0  0  0  0  0
  147.7056  134.9480  152.1827 H   0  0  0  0  0  0  0  0  0  0  0  0
  1  2  1  0  0  0  0
  1 20  1  0  0  0  0
  1 21  1  0  0  0  0
  1 22  1  0  0  0  0
  2 19  1  0  0  0  0
  2  3  2  0  0  0  0
  3  4  1  0  0  0  0
  4  5  2  0  0  0  0
  5  6  1  0  0  0  0
  5 19  1  0  0  0  0
  6  7  1  0  0  0  0
  6 23  1  0  0  0  0
  7  8  2  0  0  0  0
  7  9  1  0  0  0  0
  9 10  1  0  0  0  0
  9 24  1  0  0  0  0
 10 18  1  0  0  0  0
 10 11  1  0  0  0  0
 10 25  1  0  0  0  0
 11 12  1  0  0  0  0
 11 26  1  0  0  0  0
 11 27  1  0  0  0  0
 12 13  1  0  0  0  0
 12 28  1  0  0  0  0
 12 29  1  0  0  0  0
 13 18  1  0  0  0  0
 13 14  1  0  0  0  0
 13 39  1  0  0  0  0
 14 15  1  0  0  0  0
 14 30  1  0  0  0  0
 14 31  1  0  0  0  0
 15 16  1  0  0  0  0
 15 32  1  0  0  0  0
 15 33  1  0  0  0  0
 16 17  1  0  0  0  0
 16 34  1  0  0  0  0
 16 35  1  0  0  0  0
 17 18  1  0  0  0  0
 17 36  1  0  0  0  0
 17 37  1  0  0  0  0
 18 38  1  0  0  0  0
M  CHG  1  13   1
M  END
> <s_m_source_file>
AV-unprocessed.smi

> <i_m_source_file_index>
1897

> <i_lp_mmshare_version>
43012

> <i_f3d_flags>
0

> <s_epik_input>
W0NIM11jMW5uYyhzMSlbTkhdQyg9TylbTkhdW0NASF0oW0NIMl1bQ0gyXTIpW0NAQEhdKE4yMylbQ0gyXVtDSDJdW0NIMl1bQ0gyXTM=

> <s_epik_cmdline>
J2VwaWtfcHl0aG9uJywgJy1waCcsICc3LjAnLCAnLXRuJywgJzgnLCAnLW1hJywgJzIwMCcsICctbWV0YWxfYmluZGluZycsICctaW1hZScsICc8aW5maWxlLm1hZT4nLCAnLW9tYWUnLCAnPG91dGZpbGUubWFlPic=

> <r_lp_tautomer_probability>
1

> <r_epik_Ionization_Penalty>
0.00228891

> <r_epik_Ionization_Penalty_Charging>
0.00107044

> <r_epik_Ionization_Penalty_Neutral>
0.00121847

> <r_epik_State_Penalty>
-0

> <r_epik_Charging_Adjusted_Penalty>
0.00107044

> <i_epik_Tot_Q>
1

> <i_epik_Tot_abs_Q>
1

> <r_epik_Metal_State_Penalty>
0.304057

> <b_epik_Metal_Only>
0

> <s_lp_Force_Field>
OPLS_2005

> <r_lp_Energy>
35.8573

> <b_lp_Chiralities_Consistent>
1

> <s_lp_Variant>
AV-unprocessed.smi:1897-6

> <Gold.Version>
5.8.1

> <Gold.Id.Protein>
6NUR|6NUR_protein|mol2

> <Gold.PLP.Fitness>
36.8258

> <Gold.PLP.PLP>
-26.3473

> <Gold.PLP.part.hbond>
-3.0000

> <Gold.PLP.part.metal>
0.0000

> <Gold.PLP.part.buried>
-2.4952

> <Gold.PLP.part.nonpolar>
-21.2024

> <Gold.PLP.part.repulsive>
0.0889

> <Gold.PLP.ligand.clash>
0.0000

> <Gold.PLP.ligand.torsion>
0.1803

> <Gold.PLP.Chemscore.Hbond>
3.6097

> <Gold.PLP.Chemscore.CHOScore>
0.0000

> <Gold.PLP.Chemscore.Metal>
0.0000

> <Gold.Chemscore.Hbonds>
donor molecule, donor type, donor heavy atom, donor atom, acceptor molecule, acceptor atom, score
      L1  H    13    39       P1  7948  2.00
      P1  H  6931  6943       L1     3  0.91
      P1  H  6934  6947       L1     3  0.78

> <Gold.PLP.Chemscore.Internal.Correction>
0.0099

> <Gold.Rescore>
     Score         DG    S(hbond)    S(metal)    S(lipo)     H(rot)  DE(clash)    DE(int)     intcor
     14.88     -17.41       2.36        0.00      56.33       1.00       0.05       2.48       ----

> <Gold.Chemscore.Fitness>
14.8761

> <Gold.Chemscore.DG>
-17.4073

> <Gold.Chemscore.ZeroCoef>
-5.4800

> <Gold.Chemscore.Hbond>
2.3641

> <Gold.Chemscore.Metal>
0.0000

> <Gold.Chemscore.Lipo>
56.3340

> <Gold.Chemscore.Internal_Hbond>
0.0000

> <Gold.Chemscore.DEClash>
0.0534

> <Gold.Chemscore.DEInternal>
2.4778

> <Gold.Chemscore.Rot>
1.0000

> <Gold.Chemscore.Internal.Correction>
   9.000000E+99

> <Gold.Chemscore.Hbonds>
donor molecule, donor type, donor heavy atom, donor atom, acceptor molecule, acceptor atom, score
      L1  H    13    39       P1  7948  0.85
      P1  H  6931  6943       L1     3  0.54
      P1  H  6934  6947       L1     3  0.59

> <Gold.Chemscore.Hbond.Weighted>
-7.8962

> <Gold.Chemscore.Metal.Weighted>
-0.0000

> <Gold.Chemscore.Lipo.Weighted>
-6.5911

> <Gold.Chemscore.Internal_Hbond.Weighted>
0.0000

> <Gold.Chemscore.DEClash.Weighted>
0.0534

> <Gold.Chemscore.DEInternal.Weighted>
2.4778

> <Gold.Chemscore.Rot.Weighted>
2.5600

> <Gold.Chemscore.Internal.Correction.Weighted>
   9.000000E+99

> <Gold.Protein.RotatedTorsions>
[ 6907 6896 6895 6894 ] final -174.12 input  -60.11 | X-H torsion
[ 7974 7965 7964 7962 ] final -172.85 input  175.53 | X-H torsion
[ 8008 7997 7996 7995 ] final  -60.91 input   59.86 | X-H torsion
[ 10167 10162 10161 10158 ] final -177.98 input  -65.29 | X-H torsion
[ 10718 10713 10712 10709 ] final   15.69 input   66.30 | X-H torsion
[ 10763 10752 10751 10750 ] final -140.86 input  -60.55 | X-H torsion
[ 11005 11000 10999 10996 ] final    3.18 input  -57.11 | X-H torsion

> <Gold.Protein.ActiveResidues>
 VAL166  LYS551  ARG553  GLY616  TRP617  ASP618  TYR619  PRO620  LYS621  CYS622 
 ASP623  PHE694  ASN695  SER759  ASP760  ASP761  ALA762  ILE779  LEU786  VAL792 
 PHE793  MET794  SER795  GLU796  ALA797  LYS798  CYS799  TRP800  GLU811  SER814 

> <Gold.Protein.RotatedAtoms>
  151.5672  133.3395  159.2982 H   0  0  0  0  0  0  0  0  0  0  0  0  # atno 6907 bound_to 6896
  150.8388  134.7675  159.6927 H   0  0  0  0  0  0  0  0  0  0  0  0  # atno 6908 bound_to 6896
  152.4460  134.5501  159.9916 H   0  0  0  0  0  0  0  0  0  0  0  0  # atno 6909 bound_to 6896
  144.7142  140.1711  143.6367 H   0  0  0  0  0  0  0  0  0  0  0  0  # atno 7974 bound_to 7965
  154.4422  140.1029  156.6348 H   0  0  0  0  0  0  0  0  0  0  0  0  # atno 8008 bound_to 7997
  155.5565  140.3486  155.4462 H   0  0  0  0  0  0  0  0  0  0  0  0  # atno 8009 bound_to 7997
  156.0491  140.1299  157.0060 H   0  0  0  0  0  0  0  0  0  0  0  0  # atno 8010 bound_to 7997
  139.5454  144.2249  152.0978 H   0  0  0  0  0  0  0  0  0  0  0  0  # atno 10167 bound_to 10162
  157.0571  130.6293  149.5779 H   0  0  0  0  0  0  0  0  0  0  0  0  # atno 10718 bound_to 10713
  154.8565  135.3541  154.5775 H   0  0  0  0  0  0  0  0  0  0  0  0  # atno 10763 bound_to 10752
  153.6386  135.6999  153.5254 H   0  0  0  0  0  0  0  0  0  0  0  0  # atno 10764 bound_to 10752
  153.2989  135.4212  155.1194 H   0  0  0  0  0  0  0  0  0  0  0  0  # atno 10765 bound_to 10752
  140.5960  133.9880  155.8110 H   0  0  0  0  0  0  0  0  0  0  0  0  # atno 11005 bound_to 11000
  145.8943  139.2393  143.1531 LP  0  0  0  0  0  0  0  0  0  0  0  0  # atno 17320 bound_to 7965
  145.9873  140.8632  143.0084 LP  0  0  0  0  0  0  0  0  0  0  0  0  # atno 17321 bound_to 7965
  140.1735  144.4913  150.6566 LP  0  0  0  0  0  0  0  0  0  0  0  0  # atno 17342 bound_to 10162
  140.6700  143.2282  151.5648 LP  0  0  0  0  0  0  0  0  0  0  0  0  # atno 17343 bound_to 10162
  155.9990  130.5065  150.7590 LP  0  0  0  0  0  0  0  0  0  0  0  0  # atno 17370 bound_to 10713
  157.4984  131.0916  151.0343 LP  0  0  0  0  0  0  0  0  0  0  0  0  # atno 17371 bound_to 10713
  141.0904  133.9926  157.3247 LP  0  0  0  0  0  0  0  0  0  0  0  0  # atno 17394 bound_to 11000
  139.9253  135.0201  156.8212 LP  0  0  0  0  0  0  0  0  0  0  0  0  # atno 17395 bound_to 11000

$$$$
