AV-unprocessed.smi:1194|AV-procd|sdf|4990|dock8
  -GOLD-   22720 3593D 1   1.00000     0.00000
 Structure written by MMmdl.
 47 48  0  0  0  0  0  0  0  0  1 V2000
  146.7194  133.8975  162.4424 C   0  0  0  0  0  0  0  0  0  0  0  0
  147.7631  134.4235  161.4515 C   0  0  0  0  0  0  0  0  0  0  0  0
  147.4739  133.9801  160.0046 C   0  0  0  0  0  0  0  0  0  0  0  0
  148.4428  134.5701  158.9630 C   0  0  0  0  0  0  0  0  0  0  0  0
  149.2192  133.8055  158.3878 O   0  0  0  0  0  0  0  0  0  0  0  0
  148.4320  135.9084  158.7208 N   0  0  0  0  0  0  0  0  0  0  0  0
  147.4952  136.8573  159.3627 C   0  0  0  0  0  0  0  0  0  0  0  0
  146.6769  137.6084  158.2989 C   0  0  0  0  0  0  0  0  0  0  0  0
  147.5926  138.2954  157.2768 C   0  0  0  0  0  0  0  0  0  0  0  0
  148.5763  137.2788  156.6779 C   0  0  0  0  0  0  0  0  0  0  0  0
  149.3859  136.5276  157.7640 C   0  0  1  0  0  0  0  0  0  0  0  0
  150.4599  137.4026  158.4500 C   0  0  0  0  0  0  0  0  0  0  0  0
  151.2519  136.9076  159.2517 O   0  0  0  0  0  0  0  0  0  0  0  0
  150.4630  138.7074  158.1398 N   0  0  0  0  0  0  0  0  0  0  0  0
  151.3653  139.7188  158.6727 C   0  0  0  0  0  0  0  0  0  0  0  0
  151.7482  140.7411  157.5874 C   0  0  0  0  0  0  0  0  0  0  0  0
  151.8124  142.1716  158.0990 C   0  0  0  0  0  0  0  0  0  0  0  0
  152.6435  142.5157  159.1848 C   0  0  0  0  0  0  0  0  0  0  0  0
  152.6488  143.8486  159.6394 C   0  0  0  0  0  0  0  0  0  0  0  0
  151.8237  144.7841  158.9842 C   0  0  0  0  0  0  0  0  0  0  0  0
  151.0283  144.4674  157.9402 N   0  0  0  0  0  0  0  0  0  0  0  0
  151.0266  143.1871  157.5124 C   0  0  0  0  0  0  0  0  0  0  0  0
  146.9488  134.2224  163.4575 H   0  0  0  0  0  0  0  0  0  0  0  0
  146.6881  132.8075  162.4400 H   0  0  0  0  0  0  0  0  0  0  0  0
  145.7225  134.2631  162.1938 H   0  0  0  0  0  0  0  0  0  0  0  0
  147.7840  135.5128  161.5097 H   0  0  0  0  0  0  0  0  0  0  0  0
  148.7511  134.0762  161.7565 H   0  0  0  0  0  0  0  0  0  0  0  0
  147.5109  132.8918  159.9433 H   0  0  0  0  0  0  0  0  0  0  0  0
  146.4589  134.2860  159.7529 H   0  0  0  0  0  0  0  0  0  0  0  0
  146.7940  136.3967  160.0548 H   0  0  0  0  0  0  0  0  0  0  0  0
  148.0585  137.5715  159.9639 H   0  0  0  0  0  0  0  0  0  0  0  0
  146.0181  136.9064  157.7858 H   0  0  0  0  0  0  0  0  0  0  0  0
  146.0318  138.3467  158.7759 H   0  0  0  0  0  0  0  0  0  0  0  0
  146.9964  138.7511  156.4859 H   0  0  0  0  0  0  0  0  0  0  0  0
  148.1398  139.1068  157.7582 H   0  0  0  0  0  0  0  0  0  0  0  0
  148.0167  136.5501  156.0895 H   0  0  0  0  0  0  0  0  0  0  0  0
  149.2410  137.7765  155.9708 H   0  0  0  0  0  0  0  0  0  0  0  0
  149.9611  135.7704  157.2300 H   0  0  0  0  0  0  0  0  0  0  0  0
  149.7691  139.0307  157.4812 H   0  0  0  0  0  0  0  0  0  0  0  0
  150.8507  140.2244  159.4905 H   0  0  0  0  0  0  0  0  0  0  0  0
  152.2656  139.2677  159.0932 H   0  0  0  0  0  0  0  0  0  0  0  0
  152.7110  140.4754  157.1498 H   0  0  0  0  0  0  0  0  0  0  0  0
  151.0218  140.6916  156.7749 H   0  0  0  0  0  0  0  0  0  0  0  0
  153.2594  141.7707  159.6669 H   0  0  0  0  0  0  0  0  0  0  0  0
  153.2686  144.1466  160.4721 H   0  0  0  0  0  0  0  0  0  0  0  0
  151.8001  145.8141  159.3078 H   0  0  0  0  0  0  0  0  0  0  0  0
  150.3687  142.9664  156.6846 H   0  0  0  0  0  0  0  0  0  0  0  0
  1  2  1  0  0  0  0
  1 23  1  0  0  0  0
  1 24  1  0  0  0  0
  1 25  1  0  0  0  0
  2  3  1  0  0  0  0
  2 26  1  0  0  0  0
  2 27  1  0  0  0  0
  3  4  1  0  0  0  0
  3 28  1  0  0  0  0
  3 29  1  0  0  0  0
  4  5  2  0  0  0  0
  4  6  1  0  0  0  0
  6 11  1  0  0  0  0
  6  7  1  0  0  0  0
  7  8  1  0  0  0  0
  7 30  1  0  0  0  0
  7 31  1  0  0  0  0
  8  9  1  0  0  0  0
  8 32  1  0  0  0  0
  8 33  1  0  0  0  0
  9 10  1  0  0  0  0
  9 34  1  0  0  0  0
  9 35  1  0  0  0  0
 10 11  1  0  0  0  0
 10 36  1  0  0  0  0
 10 37  1  0  0  0  0
 11 12  1  0  0  0  0
 11 38  1  0  0  0  0
 12 13  2  0  0  0  0
 12 14  1  0  0  0  0
 14 15  1  0  0  0  0
 14 39  1  0  0  0  0
 15 16  1  0  0  0  0
 15 40  1  0  0  0  0
 15 41  1  0  0  0  0
 16 17  1  0  0  0  0
 16 42  1  0  0  0  0
 16 43  1  0  0  0  0
 17 22  1  0  0  0  0
 17 18  2  0  0  0  0
 18 19  1  0  0  0  0
 18 44  1  0  0  0  0
 19 20  2  0  0  0  0
 19 45  1  0  0  0  0
 20 21  1  0  0  0  0
 20 46  1  0  0  0  0
 21 22  2  0  0  0  0
 22 47  1  0  0  0  0
M  END
> <s_m_source_file>
AV-unprocessed.smi

> <i_m_source_file_index>
1194

> <i_lp_mmshare_version>
43012

> <i_f3d_flags>
0

> <s_epik_input>
W0NIM11bQ0gyXVtDSDJdQyg9TylOMVtDSDJdW0NIMl1bQ0gyXVtDSDJdW0NASF0xQyg9TylbTkhdW0NIMl1bQ0gyXWMyW2NIXVtjSF1bY0hdbltjSF0y

> <s_epik_cmdline>
J2VwaWtfcHl0aG9uJywgJy1waCcsICc3LjAnLCAnLXRuJywgJzgnLCAnLW1hJywgJzIwMCcsICctbWV0YWxfYmluZGluZycsICctaW1hZScsICc8aW5maWxlLm1hZT4nLCAnLW9tYWUnLCAnPG91dGZpbGUubWFlPic=

> <r_epik_Ionization_Penalty>
0.0130932

> <r_epik_Ionization_Penalty_Charging>
0

> <r_epik_Ionization_Penalty_Neutral>
0.0130932

> <r_epik_State_Penalty>
0.0101714

> <r_epik_Charging_Adjusted_Penalty>
0.0101714

> <i_epik_Tot_Q>
0

> <i_epik_Tot_abs_Q>
0

> <r_epik_Metal_State_Penalty>
0.00995056

> <b_epik_Metal_Only>
0

> <s_lp_Force_Field>
OPLS_2005

> <r_lp_Energy>
24.5515

> <b_lp_Chiralities_Consistent>
1

> <s_lp_Variant>
AV-unprocessed.smi:1194-1

> <Gold.Version>
5.8.1

> <Gold.Id.Protein>
6NUR|6NUR_protein|mol2

> <Gold.PLP.Fitness>
44.7125

> <Gold.PLP.PLP>
-36.7859

> <Gold.PLP.part.hbond>
-2.0000

> <Gold.PLP.part.metal>
0.0000

> <Gold.PLP.part.buried>
-5.7805

> <Gold.PLP.part.nonpolar>
-29.8216

> <Gold.PLP.part.repulsive>
0.2798

> <Gold.PLP.ligand.clash>
0.0000

> <Gold.PLP.ligand.torsion>
0.5544

> <Gold.PLP.Chemscore.Hbond>
2.0000

> <Gold.PLP.Chemscore.CHOScore>
0.9790

> <Gold.PLP.Chemscore.Metal>
0.0000

> <Gold.Chemscore.Hbonds>
donor molecule, donor type, donor heavy atom, donor atom, acceptor molecule, acceptor atom, score
      P1  H  6896  6908       L1     5  1.00
      P1  H  6896  6909       L1    13  1.00
      L1  C    22    47       P1  8028  0.83

> <Gold.PLP.Chemscore.Internal.Correction>
0.0984

> <Gold.Rescore>
     Score         DG    S(hbond)    S(metal)    S(lipo)     H(rot)  DE(clash)    DE(int)     intcor
     17.69     -19.36       1.93        0.00     100.37       1.68       0.13       1.54       ----

> <Gold.Chemscore.Fitness>
17.6930

> <Gold.Chemscore.DG>
-19.3638

> <Gold.Chemscore.ZeroCoef>
-5.4800

> <Gold.Chemscore.Hbond>
1.9304

> <Gold.Chemscore.Metal>
0.0000

> <Gold.Chemscore.Lipo>
100.3682

> <Gold.Chemscore.Internal_Hbond>
0.0000

> <Gold.Chemscore.DEClash>
0.1315

> <Gold.Chemscore.DEInternal>
1.5393

> <Gold.Chemscore.Rot>
1.6823

> <Gold.Chemscore.Internal.Correction>
   9.000000E+99

> <Gold.Chemscore.Hbonds>
donor molecule, donor type, donor heavy atom, donor atom, acceptor molecule, acceptor atom, score
      P1  H  6896  6908       L1     5  0.65
      P1  H  6896  6909       L1    13  0.95

> <Gold.Chemscore.Hbond.Weighted>
-6.4475

> <Gold.Chemscore.Metal.Weighted>
-0.0000

> <Gold.Chemscore.Lipo.Weighted>
-11.7431

> <Gold.Chemscore.Internal_Hbond.Weighted>
0.0000

> <Gold.Chemscore.DEClash.Weighted>
0.1315

> <Gold.Chemscore.DEInternal.Weighted>
1.5393

> <Gold.Chemscore.Rot.Weighted>
4.3068

> <Gold.Chemscore.Internal.Correction.Weighted>
   9.000000E+99

> <Gold.Protein.RotatedTorsions>
[ 6907 6896 6895 6894 ] final  121.75 input  -60.11 | X-H torsion
[ 7974 7965 7964 7962 ] final  -46.78 input  175.53 | X-H torsion
[ 8008 7997 7996 7995 ] final   27.46 input   59.86 | X-H torsion
[ 10167 10162 10161 10158 ] final  -21.44 input  -65.29 | X-H torsion
[ 10718 10713 10712 10709 ] final   -3.13 input   66.30 | X-H torsion
[ 10763 10752 10751 10750 ] final  -82.23 input  -60.55 | X-H torsion
[ 11005 11000 10999 10996 ] final   32.68 input  -57.11 | X-H torsion

> <Gold.Protein.ActiveResidues>
 VAL166  LYS551  ARG553  GLY616  TRP617  ASP618  TYR619  PRO620  LYS621  CYS622 
 ASP623  PHE694  ASN695  SER759  ASP760  ASP761  ALA762  ILE779  LEU786  VAL792 
 PHE793  MET794  SER795  GLU796  ALA797  LYS798  CYS799  TRP800  GLU811  SER814 

> <Gold.Protein.RotatedAtoms>
  152.4297  133.7256  159.6558 H   0  0  0  0  0  0  0  0  0  0  0  0  # atno 6907 bound_to 6896
  150.8175  133.8300  159.3159 H   0  0  0  0  0  0  0  0  0  0  0  0  # atno 6908 bound_to 6896
  151.5992  135.1050  160.0108 H   0  0  0  0  0  0  0  0  0  0  0  0  # atno 6909 bound_to 6896
  145.9684  140.7408  142.9423 H   0  0  0  0  0  0  0  0  0  0  0  0  # atno 7974 bound_to 7965
  155.0433  140.3171  155.4717 H   0  0  0  0  0  0  0  0  0  0  0  0  # atno 8008 bound_to 7997
  156.2850  140.2159  156.5501 H   0  0  0  0  0  0  0  0  0  0  0  0  # atno 8009 bound_to 7997
  154.7271  140.0484  157.0681 H   0  0  0  0  0  0  0  0  0  0  0  0  # atno 8010 bound_to 7997
  140.7282  143.4628  151.0356 H   0  0  0  0  0  0  0  0  0  0  0  0  # atno 10167 bound_to 10162
  156.7806  130.5329  149.5751 H   0  0  0  0  0  0  0  0  0  0  0  0  # atno 10718 bound_to 10713
  154.5732  135.5598  153.7115 H   0  0  0  0  0  0  0  0  0  0  0  0  # atno 10763 bound_to 10752
  153.0056  135.6302  154.2085 H   0  0  0  0  0  0  0  0  0  0  0  0  # atno 10764 bound_to 10752
  154.2025  135.2877  155.2966 H   0  0  0  0  0  0  0  0  0  0  0  0  # atno 10765 bound_to 10752
  140.2709  134.3083  155.7828 H   0  0  0  0  0  0  0  0  0  0  0  0  # atno 11005 bound_to 11000
  144.6831  140.2707  143.7306 LP  0  0  0  0  0  0  0  0  0  0  0  0  # atno 17320 bound_to 7965
  145.7941  139.1938  143.2086 LP  0  0  0  0  0  0  0  0  0  0  0  0  # atno 17321 bound_to 7965
  139.8314  143.7686  152.3180 LP  0  0  0  0  0  0  0  0  0  0  0  0  # atno 17342 bound_to 10162
  139.7803  144.7446  151.0097 LP  0  0  0  0  0  0  0  0  0  0  0  0  # atno 17343 bound_to 10162
  156.1220  130.6117  151.0208 LP  0  0  0  0  0  0  0  0  0  0  0  0  # atno 17370 bound_to 10713
  157.6648  131.0874  150.7754 LP  0  0  0  0  0  0  0  0  0  0  0  0  # atno 17371 bound_to 10713
  141.2177  133.7466  156.9333 LP  0  0  0  0  0  0  0  0  0  0  0  0  # atno 17394 bound_to 11000
  140.1374  134.9316  157.2420 LP  0  0  0  0  0  0  0  0  0  0  0  0  # atno 17395 bound_to 11000

$$$$
