AV-unprocessed.smi:485|AV-procd|sdf|2691|dock8
  -GOLD-   2262023123D 1   1.00000     0.00000
 Structure written by MMmdl.
 36 38  0  0  0  0  0  0  0  0  1 V2000
  153.5033  139.5455  154.8455 O   0  0  0  0  0  0  0  0  0  0  0  0
  152.4896  139.6102  155.8250 C   0  0  0  0  0  0  0  0  0  0  0  0
  151.1429  139.9416  155.2561 C   0  0  0  0  0  0  0  0  0  0  0  0
  150.5017  139.0995  154.4445 N   0  0  0  0  0  0  0  0  0  0  0  0
  149.3220  139.7673  154.1821 C   0  0  0  0  0  0  0  0  0  0  0  0
  148.2146  139.3960  153.3861 C   0  0  0  0  0  0  0  0  0  0  0  0
  147.0991  140.2513  153.2716 C   0  0  0  0  0  0  0  0  0  0  0  0
  147.0738  141.4861  153.9515 C   0  0  0  0  0  0  0  0  0  0  0  0
  148.1671  141.8752  154.7491 C   0  0  0  0  0  0  0  0  0  0  0  0
  149.2806  141.0200  154.8566 C   0  0  0  0  0  0  0  0  0  0  0  0
  150.4928  141.1015  155.5357 N   0  0  0  0  0  0  0  0  0  0  0  0
  150.9269  142.2119  156.3760 C   0  0  0  0  0  0  0  0  0  0  0  0
  151.5430  141.7485  157.7124 C   0  0  2  0  0  0  0  0  0  0  0  0
  150.7970  140.6733  158.2479 O   0  0  0  0  0  0  0  0  0  0  0  0
  151.6690  142.9045  158.6923 C   0  0  0  0  0  0  0  0  0  0  0  0
  152.1237  142.6682  160.0076 C   0  0  0  0  0  0  0  0  0  0  0  0
  152.2481  143.7355  160.9184 C   0  0  0  0  0  0  0  0  0  0  0  0
  151.9211  145.0454  160.5183 C   0  0  0  0  0  0  0  0  0  0  0  0
  151.4717  145.2880  159.2062 C   0  0  0  0  0  0  0  0  0  0  0  0
  151.3470  144.2213  158.2951 C   0  0  0  0  0  0  0  0  0  0  0  0
  153.2071  140.0072  154.0764 H   0  0  0  0  0  0  0  0  0  0  0  0
  152.4389  138.6451  156.3304 H   0  0  0  0  0  0  0  0  0  0  0  0
  152.7584  140.3431  156.5856 H   0  0  0  0  0  0  0  0  0  0  0  0
  148.2233  138.4508  152.8638 H   0  0  0  0  0  0  0  0  0  0  0  0
  146.2583  139.9575  152.6605 H   0  0  0  0  0  0  0  0  0  0  0  0
  146.2149  142.1347  153.8604 H   0  0  0  0  0  0  0  0  0  0  0  0
  148.1492  142.8199  155.2715 H   0  0  0  0  0  0  0  0  0  0  0  0
  151.6606  142.7890  155.8119 H   0  0  0  0  0  0  0  0  0  0  0  0
  150.0915  142.8855  156.5619 H   0  0  0  0  0  0  0  0  0  0  0  0
  152.5434  141.3583  157.5241 H   0  0  0  0  0  0  0  0  0  0  0  0
  150.2185  141.0126  158.9131 H   0  0  0  0  0  0  0  0  0  0  0  0
  152.3795  141.6673  160.3238 H   0  0  0  0  0  0  0  0  0  0  0  0
  152.5951  143.5494  161.9242 H   0  0  0  0  0  0  0  0  0  0  0  0
  152.0166  145.8633  161.2171 H   0  0  0  0  0  0  0  0  0  0  0  0
  151.2225  146.2927  158.8979 H   0  0  0  0  0  0  0  0  0  0  0  0
  151.0046  144.4169  157.2892 H   0  0  0  0  0  0  0  0  0  0  0  0
  1  2  1  0  0  0  0
  1 21  1  0  0  0  0
  2  3  1  0  0  0  0
  2 22  1  0  0  0  0
  2 23  1  0  0  0  0
  3 11  1  0  0  0  0
  3  4  2  0  0  0  0
  4  5  1  0  0  0  0
  5 10  2  0  0  0  0
  5  6  1  0  0  0  0
  6  7  2  0  0  0  0
  6 24  1  0  0  0  0
  7  8  1  0  0  0  0
  7 25  1  0  0  0  0
  8  9  2  0  0  0  0
  8 26  1  0  0  0  0
  9 10  1  0  0  0  0
  9 27  1  0  0  0  0
 10 11  1  0  0  0  0
 11 12  1  0  0  0  0
 12 13  1  0  0  0  0
 12 28  1  0  0  0  0
 12 29  1  0  0  0  0
 13 14  1  0  0  0  0
 13 15  1  0  0  0  0
 13 30  1  0  0  0  0
 14 31  1  0  0  0  0
 15 20  1  0  0  0  0
 15 16  2  0  0  0  0
 16 17  1  0  0  0  0
 16 32  1  0  0  0  0
 17 18  2  0  0  0  0
 17 33  1  0  0  0  0
 18 19  1  0  0  0  0
 18 34  1  0  0  0  0
 19 20  2  0  0  0  0
 19 35  1  0  0  0  0
 20 36  1  0  0  0  0
M  END
> <s_m_source_file>
AV-unprocessed.smi

> <i_m_source_file_index>
485

> <i_lp_mmshare_version>
43012

> <i_f3d_flags>
0

> <s_epik_input>
W2NIXTFbY0hdW2NIXVtjSF1jKGMxMiluKGMobjIpW0NIMl1bT0hdKVtDSDJdW0NASF0oW09IXSljM1tjSF1bY0hdW2NIXVtjSF1bY0hdMw==

> <s_epik_cmdline>
J2VwaWtfcHl0aG9uJywgJy1waCcsICc3LjAnLCAnLXRuJywgJzgnLCAnLW1hJywgJzIwMCcsICctbWV0YWxfYmluZGluZycsICctaW1hZScsICc8aW5maWxlLm1hZT4nLCAnLW9tYWUnLCAnPG91dGZpbGUubWFlPic=

> <r_epik_Ionization_Penalty>
0.0634722

> <r_epik_Ionization_Penalty_Charging>
0

> <r_epik_Ionization_Penalty_Neutral>
0.0634722

> <r_epik_State_Penalty>
0.0551572

> <r_epik_Charging_Adjusted_Penalty>
0.0551572

> <i_epik_Tot_Q>
0

> <i_epik_Tot_abs_Q>
0

> <r_epik_Metal_State_Penalty>
5.78034e-05

> <b_epik_Metal_Only>
0

> <s_lp_Force_Field>
OPLS_2005

> <r_lp_Energy>
12.7627

> <b_lp_Chiralities_Consistent>
1

> <s_lp_Variant>
AV-unprocessed.smi:485-1

> <Gold.Version>
5.8.1

> <Gold.Id.Protein>
6NUR|6NUR_protein|mol2

> <Gold.PLP.Fitness>
50.5257

> <Gold.PLP.PLP>
-48.4134

> <Gold.PLP.part.hbond>
-1.0000

> <Gold.PLP.part.metal>
0.0000

> <Gold.PLP.part.buried>
-1.0420

> <Gold.PLP.part.nonpolar>
-45.4518

> <Gold.PLP.part.repulsive>
0.1485

> <Gold.PLP.ligand.clash>
0.0000

> <Gold.PLP.ligand.torsion>
0.4603

> <Gold.PLP.Chemscore.Hbond>
1.0000

> <Gold.PLP.Chemscore.CHOScore>
0.0000

> <Gold.PLP.Chemscore.Metal>
0.0000

> <Gold.Chemscore.Hbonds>
donor molecule, donor type, donor heavy atom, donor atom, acceptor molecule, acceptor atom, score
      P1  H  7997  8010       L1     1  0.85

> <Gold.PLP.Chemscore.Internal.Correction>
0.0329

> <Gold.Rescore>
     Score         DG    S(hbond)    S(metal)    S(lipo)     H(rot)  DE(clash)    DE(int)     intcor
     15.82     -16.53       0.79        0.00     129.47       2.62       0.22       0.49       ----

> <Gold.Chemscore.Fitness>
15.8231

> <Gold.Chemscore.DG>
-16.5345

> <Gold.Chemscore.ZeroCoef>
-5.4800

> <Gold.Chemscore.Hbond>
0.7851

> <Gold.Chemscore.Metal>
0.0000

> <Gold.Chemscore.Lipo>
129.4669

> <Gold.Chemscore.Internal_Hbond>
0.0000

> <Gold.Chemscore.DEClash>
0.2237

> <Gold.Chemscore.DEInternal>
0.4877

> <Gold.Chemscore.Rot>
2.6232

> <Gold.Chemscore.Internal.Correction>
   9.000000E+99

> <Gold.Chemscore.Hbonds>
donor molecule, donor type, donor heavy atom, donor atom, acceptor molecule, acceptor atom, score
      P1  H  7997  8010       L1     1  0.13

> <Gold.Chemscore.Hbond.Weighted>
-2.6224

> <Gold.Chemscore.Metal.Weighted>
-0.0000

> <Gold.Chemscore.Lipo.Weighted>
-15.1476

> <Gold.Chemscore.Internal_Hbond.Weighted>
0.0000

> <Gold.Chemscore.DEClash.Weighted>
0.2237

> <Gold.Chemscore.DEInternal.Weighted>
0.4877

> <Gold.Chemscore.Rot.Weighted>
6.7154

> <Gold.Chemscore.Internal.Correction.Weighted>
   9.000000E+99

> <Gold.Protein.RotatedTorsions>
[ 6907 6896 6895 6894 ] final   -2.29 input  -60.11 | X-H torsion
[ 7974 7965 7964 7962 ] final  108.67 input  175.53 | X-H torsion
[ 8008 7997 7996 7995 ] final  120.54 input   59.86 | X-H torsion
[ 10167 10162 10161 10158 ] final  -18.93 input  -65.29 | X-H torsion
[ 10718 10713 10712 10709 ] final -122.63 input   66.30 | X-H torsion
[ 10763 10752 10751 10750 ] final  128.12 input  -60.55 | X-H torsion
[ 11005 11000 10999 10996 ] final    8.31 input  -57.11 | X-H torsion

> <Gold.Protein.ActiveResidues>
 VAL166  LYS551  ARG553  GLY616  TRP617  ASP618  TYR619  PRO620  LYS621  CYS622 
 ASP623  PHE694  ASN695  SER759  ASP760  ASP761  ALA762  ILE779  LEU786  VAL792 
 PHE793  MET794  SER795  GLU796  ALA797  LYS798  CYS799  TRP800  GLU811  SER814 

> <Gold.Protein.RotatedAtoms>
  151.5324  135.1068  159.9905 H   0  0  0  0  0  0  0  0  0  0  0  0  # atno 6907 bound_to 6896
  152.4572  133.7744  159.6827 H   0  0  0  0  0  0  0  0  0  0  0  0  # atno 6908 bound_to 6896
  150.8521  133.7706  159.3047 H   0  0  0  0  0  0  0  0  0  0  0  0  # atno 6909 bound_to 6896
  145.2777  139.2644  143.3932 H   0  0  0  0  0  0  0  0  0  0  0  0  # atno 7974 bound_to 7965
  156.2647  140.2828  156.1166 H   0  0  0  0  0  0  0  0  0  0  0  0  # atno 8008 bound_to 7997
  155.1200  140.0392  157.2765 H   0  0  0  0  0  0  0  0  0  0  0  0  # atno 8009 bound_to 7997
  154.6677  140.2581  155.7046 H   0  0  0  0  0  0  0  0  0  0  0  0  # atno 8010 bound_to 7997
  140.7263  143.4868  151.0044 H   0  0  0  0  0  0  0  0  0  0  0  0  # atno 10167 bound_to 10162
  156.1435  130.6483  150.9806 H   0  0  0  0  0  0  0  0  0  0  0  0  # atno 10718 bound_to 10713
  153.7205  135.3254  155.3265 H   0  0  0  0  0  0  0  0  0  0  0  0  # atno 10763 bound_to 10752
  154.8357  135.4498  154.1222 H   0  0  0  0  0  0  0  0  0  0  0  0  # atno 10764 bound_to 10752
  153.2341  135.6963  153.7936 H   0  0  0  0  0  0  0  0  0  0  0  0  # atno 10765 bound_to 10752
  140.5384  134.0398  155.7896 H   0  0  0  0  0  0  0  0  0  0  0  0  # atno 11005 bound_to 11000
  146.3226  140.3236  142.8635 LP  0  0  0  0  0  0  0  0  0  0  0  0  # atno 17320 bound_to 7965
  144.9280  140.7943  143.5707 LP  0  0  0  0  0  0  0  0  0  0  0  0  # atno 17321 bound_to 7965
  139.8570  143.7364  152.3175 LP  0  0  0  0  0  0  0  0  0  0  0  0  # atno 17342 bound_to 10162
  139.7566  144.7519  151.0427 LP  0  0  0  0  0  0  0  0  0  0  0  0  # atno 17343 bound_to 10162
  157.6596  131.0883  150.7869 LP  0  0  0  0  0  0  0  0  0  0  0  0  # atno 17370 bound_to 10713
  156.7942  130.4900  149.5380 LP  0  0  0  0  0  0  0  0  0  0  0  0  # atno 17371 bound_to 10713
  141.1241  133.9412  157.2670 LP  0  0  0  0  0  0  0  0  0  0  0  0  # atno 17394 bound_to 11000
  139.9517  135.0174  156.9012 LP  0  0  0  0  0  0  0  0  0  0  0  0  # atno 17395 bound_to 11000

$$$$
