AV-unprocessed.smi:817|AV-procd|sdf|3829|dock1
  -GOLD-   22720 1273D 1   1.00000     0.00000
 Structure written by MMmdl.
 48 49  0  0  0  0  0  0  0  0  2 V2000
  147.6644  141.3797  157.2397 C   0  0  0  0  0  0  0  0  0  0  0  0
  147.4482  140.5455  155.9684 C   0  0  1  0  0  0  0  0  0  0  0  0
  147.4012  141.4427  154.7192 C   0  0  0  0  0  0  0  0  0  0  0  0
  147.2378  140.6207  153.4337 C   0  0  0  0  0  0  0  0  0  0  0  0
  148.3315  139.5443  153.2983 C   0  0  0  0  0  0  0  0  0  0  0  0
  148.4236  138.5897  154.5251 C   0  0  1  0  0  0  0  0  0  0  0  0
  147.1254  137.7291  154.6230 C   0  0  0  0  0  0  0  0  0  0  0  0
  147.0609  136.6960  153.5866 N   0  0  0  0  0  0  0  0  0  0  0  0
  145.9784  136.0117  153.1792 C   0  0  0  0  0  0  0  0  0  0  0  0
  144.8730  136.2281  153.6691 O   0  0  0  0  0  0  0  0  0  0  0  0
  146.2291  135.1189  152.2013 N   0  0  0  0  0  0  0  0  0  0  0  0
  145.3341  134.2224  151.5571 C   0  0  0  0  0  0  0  0  0  0  0  0
  145.8783  133.2971  150.6428 C   0  0  0  0  0  0  0  0  0  0  0  0
  145.0239  132.3818  149.9999 C   0  0  0  0  0  0  0  0  0  0  0  0
  143.6497  132.4226  150.3032 C   0  0  0  0  0  0  0  0  0  0  0  0
  143.1128  133.2921  151.1846 N   0  0  0  0  0  0  0  0  0  0  0  0
  143.9381  134.1685  151.7970 C   0  0  0  0  0  0  0  0  0  0  0  0
  149.6055  137.6539  154.3987 N   0  3  0  0  0  0  0  0  0  0  0  0
  150.9261  138.3139  154.2208 C   0  0  0  0  0  0  0  0  0  0  0  0
  149.7064  136.5725  155.4135 C   0  0  0  0  0  0  0  0  0  0  0  0
  148.5504  139.4752  155.8095 C   0  0  0  0  0  0  0  0  0  0  0  0
  148.6094  141.9228  157.2051 H   0  0  0  0  0  0  0  0  0  0  0  0
  147.6770  140.7469  158.1275 H   0  0  0  0  0  0  0  0  0  0  0  0
  146.8661  142.1111  157.3693 H   0  0  0  0  0  0  0  0  0  0  0  0
  146.4809  140.0577  156.0815 H   0  0  0  0  0  0  0  0  0  0  0  0
  146.5821  142.1583  154.8026 H   0  0  0  0  0  0  0  0  0  0  0  0
  148.3171  142.0318  154.6547 H   0  0  0  0  0  0  0  0  0  0  0  0
  146.2494  140.1617  153.4113 H   0  0  0  0  0  0  0  0  0  0  0  0
  147.2750  141.2865  152.5710 H   0  0  0  0  0  0  0  0  0  0  0  0
  148.1414  138.9822  152.3839 H   0  0  0  0  0  0  0  0  0  0  0  0
  149.2861  140.0494  153.1486 H   0  0  0  0  0  0  0  0  0  0  0  0
  147.0348  137.2427  155.5922 H   0  0  0  0  0  0  0  0  0  0  0  0
  146.2412  138.3620  154.5524 H   0  0  0  0  0  0  0  0  0  0  0  0
  147.9328  136.4641  153.1336 H   0  0  0  0  0  0  0  0  0  0  0  0
  147.1736  135.1108  151.8453 H   0  0  0  0  0  0  0  0  0  0  0  0
  146.9380  133.2881  150.4323 H   0  0  0  0  0  0  0  0  0  0  0  0
  145.4128  131.6649  149.2920 H   0  0  0  0  0  0  0  0  0  0  0  0
  142.9645  131.7353  149.8291 H   0  0  0  0  0  0  0  0  0  0  0  0
  143.4514  134.8182  152.5066 H   0  0  0  0  0  0  0  0  0  0  0  0
  151.2527  138.8090  155.1357 H   0  0  0  0  0  0  0  0  0  0  0  0
  150.9288  139.0433  153.4133 H   0  0  0  0  0  0  0  0  0  0  0  0
  151.6841  137.5731  153.9645 H   0  0  0  0  0  0  0  0  0  0  0  0
  149.7075  136.9695  156.4285 H   0  0  0  0  0  0  0  0  0  0  0  0
  150.6269  136.0025  155.2822 H   0  0  0  0  0  0  0  0  0  0  0  0
  148.8956  135.8514  155.3153 H   0  0  0  0  0  0  0  0  0  0  0  0
  149.4878  140.0302  155.7948 H   0  0  0  0  0  0  0  0  0  0  0  0
  148.5867  138.8476  156.7008 H   0  0  0  0  0  0  0  0  0  0  0  0
  149.4466  137.1644  153.5294 H   0  0  0  0  0  0  0  0  0  0  0  0
  1  2  1  0  0  0  0
  1 22  1  0  0  0  0
  1 23  1  0  0  0  0
  1 24  1  0  0  0  0
  2 21  1  0  0  0  0
  2  3  1  0  0  0  0
  2 25  1  0  0  0  0
  3  4  1  0  0  0  0
  3 26  1  0  0  0  0
  3 27  1  0  0  0  0
  4  5  1  0  0  0  0
  4 28  1  0  0  0  0
  4 29  1  0  0  0  0
  5  6  1  0  0  0  0
  5 30  1  0  0  0  0
  5 31  1  0  0  0  0
  6  7  1  0  0  0  0
  6 18  1  0  0  0  0
  6 21  1  0  0  0  0
  7  8  1  0  0  0  0
  7 32  1  0  0  0  0
  7 33  1  0  0  0  0
  8  9  1  0  0  0  0
  8 34  1  0  0  0  0
  9 10  2  0  0  0  0
  9 11  1  0  0  0  0
 11 12  1  0  0  0  0
 11 35  1  0  0  0  0
 12 17  1  0  0  0  0
 12 13  2  0  0  0  0
 13 14  1  0  0  0  0
 13 36  1  0  0  0  0
 14 15  2  0  0  0  0
 14 37  1  0  0  0  0
 15 16  1  0  0  0  0
 15 38  1  0  0  0  0
 16 17  2  0  0  0  0
 17 39  1  0  0  0  0
 18 19  1  0  0  0  0
 18 20  1  0  0  0  0
 18 48  1  0  0  0  0
 19 40  1  0  0  0  0
 19 41  1  0  0  0  0
 19 42  1  0  0  0  0
 20 43  1  0  0  0  0
 20 44  1  0  0  0  0
 20 45  1  0  0  0  0
 21 46  1  0  0  0  0
 21 47  1  0  0  0  0
M  CHG  1  18   1
M  END
> <s_m_source_file>
AV-unprocessed.smi

> <i_m_source_file_index>
817

> <i_lp_mmshare_version>
43012

> <i_f3d_flags>
0

> <s_epik_input>
W0NIM11bQ0BASF0oW0NIMl0xKVtDSDJdW0NIMl1bQ0gyXVtDQF0xKE4oW0NIM10pW0NIM10pW0NIMl1bTkhdQyg9TylbTkhdYzJbY0hdW2NIXVtjSF1uW2NIXTI=

> <s_epik_cmdline>
J2VwaWtfcHl0aG9uJywgJy1waCcsICc3LjAnLCAnLXRuJywgJzgnLCAnLW1hJywgJzIwMCcsICctbWV0YWxfYmluZGluZycsICctaW1hZScsICc8aW5maWxlLm1hZT4nLCAnLW9tYWUnLCAnPG91dGZpbGUubWFlPic=

> <r_lp_tautomer_probability>
1

> <r_epik_Ionization_Penalty>
0.00584939

> <r_epik_Ionization_Penalty_Charging>
0.00160539

> <r_epik_Ionization_Penalty_Neutral>
0.004244

> <r_epik_State_Penalty>
-0

> <r_epik_Charging_Adjusted_Penalty>
0.00160539

> <i_epik_Tot_Q>
1

> <i_epik_Tot_abs_Q>
1

> <r_epik_Metal_State_Penalty>
-0

> <b_epik_Metal_Only>
0

> <s_lp_Force_Field>
OPLS_2005

> <r_lp_Energy>
49.3624

> <b_lp_Chiralities_Consistent>
1

> <s_lp_Variant>
AV-unprocessed.smi:817-2

> <Gold.Version>
5.8.1

> <Gold.Id.Protein>
6NUR|6NUR_protein|mol2

> <Gold.PLP.Fitness>
42.0053

> <Gold.PLP.PLP>
-28.2317

> <Gold.PLP.part.hbond>
-3.0000

> <Gold.PLP.part.metal>
0.0000

> <Gold.PLP.part.buried>
-2.6072

> <Gold.PLP.part.nonpolar>
-23.5696

> <Gold.PLP.part.repulsive>
0.4352

> <Gold.PLP.ligand.clash>
0.0000

> <Gold.PLP.ligand.torsion>
0.2809

> <Gold.PLP.Chemscore.Hbond>
3.8564

> <Gold.PLP.Chemscore.CHOScore>
0.8820

> <Gold.PLP.Chemscore.Metal>
0.0000

> <Gold.Chemscore.Hbonds>
donor molecule, donor type, donor heavy atom, donor atom, acceptor molecule, acceptor atom, score
      L1  H     8    34       P1  7948  1.00
      L1  H    11    35       P1  7948  0.80
      L1  H    18    48       P1  7948  2.00
      L1  C    15    38       P1 10952  0.91

> <Gold.PLP.Chemscore.Internal.Correction>
0.1202

> <Gold.Rescore>
     Score         DG    S(hbond)    S(metal)    S(lipo)     H(rot)  DE(clash)    DE(int)     intcor
     17.43     -20.34       2.72        0.00      80.89       1.44       1.46       1.45       ----

> <Gold.Chemscore.Fitness>
17.4303

> <Gold.Chemscore.DG>
-20.3428

> <Gold.Chemscore.ZeroCoef>
-5.4800

> <Gold.Chemscore.Hbond>
2.7203

> <Gold.Chemscore.Metal>
0.0000

> <Gold.Chemscore.Lipo>
80.8949

> <Gold.Chemscore.Internal_Hbond>
0.0000

> <Gold.Chemscore.DEClash>
1.4628

> <Gold.Chemscore.DEInternal>
1.4497

> <Gold.Chemscore.Rot>
1.4405

> <Gold.Chemscore.Internal.Correction>
   9.000000E+99

> <Gold.Chemscore.Hbonds>
donor molecule, donor type, donor heavy atom, donor atom, acceptor molecule, acceptor atom, score
      L1  H     8    34       P1  7948  0.98
      L1  H    11    35       P1  7948  0.73
      L1  H    18    48       P1  7948  0.92

> <Gold.Chemscore.Hbond.Weighted>
-9.0858

> <Gold.Chemscore.Metal.Weighted>
-0.0000

> <Gold.Chemscore.Lipo.Weighted>
-9.4647

> <Gold.Chemscore.Internal_Hbond.Weighted>
0.0000

> <Gold.Chemscore.DEClash.Weighted>
1.4628

> <Gold.Chemscore.DEInternal.Weighted>
1.4497

> <Gold.Chemscore.Rot.Weighted>
3.6878

> <Gold.Chemscore.Internal.Correction.Weighted>
   9.000000E+99

> <Gold.Protein.RotatedTorsions>
[ 6907 6896 6895 6894 ] final  -22.22 input  -60.11 | X-H torsion
[ 7974 7965 7964 7962 ] final  -19.37 input  175.53 | X-H torsion
[ 8008 7997 7996 7995 ] final   24.76 input   59.86 | X-H torsion
[ 10167 10162 10161 10158 ] final    8.20 input  -65.29 | X-H torsion
[ 10718 10713 10712 10709 ] final  168.52 input   66.30 | X-H torsion
[ 10763 10752 10751 10750 ] final -173.59 input  -60.55 | X-H torsion
[ 11005 11000 10999 10996 ] final    2.24 input  -57.11 | X-H torsion

> <Gold.Protein.ActiveResidues>
 VAL166  LYS551  ARG553  GLY616  TRP617  ASP618  TYR619  PRO620  LYS621  CYS622 
 ASP623  PHE694  ASN695  SER759  ASP760  ASP761  ALA762  ILE779  LEU786  VAL792 
 PHE793  MET794  SER795  GLU796  ALA797  LYS798  CYS799  TRP800  GLU811  SER814 

> <Gold.Protein.RotatedAtoms>
  151.2219  135.0521  159.8952 H   0  0  0  0  0  0  0  0  0  0  0  0  # atno 6907 bound_to 6896
  152.5414  134.0631  159.8171 H   0  0  0  0  0  0  0  0  0  0  0  0  # atno 6908 bound_to 6896
  151.0799  133.5350  159.2653 H   0  0  0  0  0  0  0  0  0  0  0  0  # atno 6909 bound_to 6896
  146.1845  140.4052  142.8482 H   0  0  0  0  0  0  0  0  0  0  0  0  # atno 7974 bound_to 7965
  155.0013  140.3125  155.4866 H   0  0  0  0  0  0  0  0  0  0  0  0  # atno 8008 bound_to 7997
  156.2924  140.2231  156.5064 H   0  0  0  0  0  0  0  0  0  0  0  0  # atno 8009 bound_to 7997
  154.7616  140.0458  157.0966 H   0  0  0  0  0  0  0  0  0  0  0  0  # atno 8010 bound_to 7997
  140.6328  143.7955  150.7318 H   0  0  0  0  0  0  0  0  0  0  0  0  # atno 10167 bound_to 10162
  157.0359  131.0273  151.2729 H   0  0  0  0  0  0  0  0  0  0  0  0  # atno 10718 bound_to 10713
  154.6060  135.2859  155.0483 H   0  0  0  0  0  0  0  0  0  0  0  0  # atno 10763 bound_to 10752
  154.1731  135.6469  153.5018 H   0  0  0  0  0  0  0  0  0  0  0  0  # atno 10764 bound_to 10752
  153.0176  135.5405  154.6797 H   0  0  0  0  0  0  0  0  0  0  0  0  # atno 10765 bound_to 10752
  140.6065  133.9788  155.8156 H   0  0  0  0  0  0  0  0  0  0  0  0  # atno 11005 bound_to 11000
  144.8372  140.6801  143.6252 LP  0  0  0  0  0  0  0  0  0  0  0  0  # atno 17320 bound_to 7965
  145.3980  139.1603  143.4193 LP  0  0  0  0  0  0  0  0  0  0  0  0  # atno 17321 bound_to 7965
  140.1570  143.4308  152.2093 LP  0  0  0  0  0  0  0  0  0  0  0  0  # atno 17342 bound_to 10162
  139.5541  144.7359  151.4348 LP  0  0  0  0  0  0  0  0  0  0  0  0  # atno 17343 bound_to 10162
  157.5142  130.7957  149.7738 LP  0  0  0  0  0  0  0  0  0  0  0  0  # atno 17370 bound_to 10713
  156.0054  130.3858  150.2451 LP  0  0  0  0  0  0  0  0  0  0  0  0  # atno 17371 bound_to 10713
  141.0837  134.0023  157.3346 LP  0  0  0  0  0  0  0  0  0  0  0  0  # atno 17394 bound_to 11000
  139.9210  135.0200  156.8064 LP  0  0  0  0  0  0  0  0  0  0  0  0  # atno 17395 bound_to 11000

$$$$
