AV-unprocessed.smi:2035|AV-procd|sdf|8272|dock2
  -GOLD-   2272010543D 1   1.00000     0.00000
 Structure written by MMmdl.
 35 36  0  0  0  0  0  0  0  0  2 V2000
  149.9781  140.6990  157.2606 O   0  0  0  0  0  0  0  0  0  0  0  0
  149.8117  141.8258  156.7961 C   0  0  0  0  0  0  0  0  0  0  0  0
  150.2867  142.9692  157.3211 N   0  0  0  0  0  0  0  0  0  0  0  0
  151.0645  143.1790  158.4949 C   0  0  0  0  0  0  0  0  0  0  0  0
  151.2795  144.5190  158.8884 C   0  0  0  0  0  0  0  0  0  0  0  0
  152.0373  144.7958  160.0443 C   0  0  0  0  0  0  0  0  0  0  0  0
  152.5512  143.7802  160.7697 N   0  3  0  0  0  0  0  0  0  0  0  0
  152.3719  142.4840  160.4379 C   0  0  0  0  0  0  0  0  0  0  0  0
  151.6227  142.1457  159.2922 C   0  0  0  0  0  0  0  0  0  0  0  0
  149.1178  142.0649  155.6737 N   0  0  0  0  0  0  0  0  0  0  0  0
  148.4789  141.0535  154.8293 C   0  0  1  0  0  0  0  0  0  0  0  0
  147.8099  141.7263  153.6097 C   0  0  0  0  0  0  0  0  0  0  0  0
  146.6885  140.8911  152.9712 C   0  0  0  0  0  0  0  0  0  0  0  0
  147.1403  139.5474  152.3798 C   0  0  0  0  0  0  0  0  0  0  0  0
  147.6590  138.5516  153.4315 C   0  0  0  0  0  0  0  0  0  0  0  0
  149.0275  138.8355  153.8457 N   0  0  0  0  0  0  0  0  0  0  0  0
  149.4762  139.9366  154.4676 C   0  0  0  0  0  0  0  0  0  0  0  0
  150.6705  140.0566  154.7405 O   0  0  0  0  0  0  0  0  0  0  0  0
  150.0700  143.8062  156.7998 H   0  0  0  0  0  0  0  0  0  0  0  0
  150.8682  145.3336  158.3095 H   0  0  0  0  0  0  0  0  0  0  0  0
  152.2452  145.7916  160.4076 H   0  0  0  0  0  0  0  0  0  0  0  0
  152.8288  141.7591  161.0959 H   0  0  0  0  0  0  0  0  0  0  0  0
  151.4954  141.1005  159.0607 H   0  0  0  0  0  0  0  0  0  0  0  0
  149.0368  143.0208  155.3581 H   0  0  0  0  0  0  0  0  0  0  0  0
  147.7012  140.5813  155.4326 H   0  0  0  0  0  0  0  0  0  0  0  0
  147.3695  142.6770  153.9135 H   0  0  0  0  0  0  0  0  0  0  0  0
  148.5622  141.9779  152.8607 H   0  0  0  0  0  0  0  0  0  0  0  0
  145.9003  140.7195  153.7052 H   0  0  0  0  0  0  0  0  0  0  0  0
  146.2297  141.4810  152.1771 H   0  0  0  0  0  0  0  0  0  0  0  0
  146.2833  139.0978  151.8773 H   0  0  0  0  0  0  0  0  0  0  0  0
  147.8907  139.7061  151.6039 H   0  0  0  0  0  0  0  0  0  0  0  0
  146.9982  138.5121  154.2987 H   0  0  0  0  0  0  0  0  0  0  0  0
  147.6592  137.5494  153.0024 H   0  0  0  0  0  0  0  0  0  0  0  0
  149.7112  138.1246  153.6288 H   0  0  0  0  0  0  0  0  0  0  0  0
  153.0963  144.0008  161.6037 H   0  0  0  0  0  0  0  0  0  0  0  0
  1  2  2  0  0  0  0
  2  3  1  0  0  0  0
  2 10  1  0  0  0  0
  3  4  1  0  0  0  0
  3 19  1  0  0  0  0
  4  9  1  0  0  0  0
  4  5  2  0  0  0  0
  5  6  1  0  0  0  0
  5 20  1  0  0  0  0
  6  7  2  0  0  0  0
  6 21  1  0  0  0  0
  7  8  1  0  0  0  0
  7 35  1  0  0  0  0
  8  9  2  0  0  0  0
  8 22  1  0  0  0  0
  9 23  1  0  0  0  0
 10 11  1  0  0  0  0
 10 24  1  0  0  0  0
 11 17  1  0  0  0  0
 11 12  1  0  0  0  0
 11 25  1  0  0  0  0
 12 13  1  0  0  0  0
 12 26  1  0  0  0  0
 12 27  1  0  0  0  0
 13 14  1  0  0  0  0
 13 28  1  0  0  0  0
 13 29  1  0  0  0  0
 14 15  1  0  0  0  0
 14 30  1  0  0  0  0
 14 31  1  0  0  0  0
 15 16  1  0  0  0  0
 15 32  1  0  0  0  0
 15 33  1  0  0  0  0
 16 17  1  0  0  0  0
 16 34  1  0  0  0  0
 17 18  2  0  0  0  0
M  CHG  1   7   1
M  END
> <s_m_source_file>
AV-unprocessed.smi

> <i_m_source_file_index>
2035

> <i_lp_mmshare_version>
43012

> <i_f3d_flags>
0

> <s_epik_input>
W2NIXTFbY0hdbltjSF1bY0hdYzFbTkhdQyg9TylbTkhdW0NAQEhdMltDSDJdW0NIMl1bQ0gyXVtDSDJdW05IXUMyPU8=

> <s_epik_cmdline>
J2VwaWtfcHl0aG9uJywgJy1waCcsICc3LjAnLCAnLXRuJywgJzgnLCAnLW1hJywgJzIwMCcsICctbWV0YWxfYmluZGluZycsICctaW1hZScsICc8aW5maWxlLm1hZT4nLCAnLW9tYWUnLCAnPG91dGZpbGUubWFlPic=

> <r_epik_Ionization_Penalty>
1.10339

> <r_epik_Ionization_Penalty_Charging>
1.10337

> <r_epik_Ionization_Penalty_Neutral>
1.85869e-05

> <r_epik_State_Penalty>
1.16071

> <r_epik_Charging_Adjusted_Penalty>
2.26408

> <i_epik_Tot_Q>
1

> <i_epik_Tot_abs_Q>
1

> <r_epik_Metal_State_Penalty>
1.24751

> <b_epik_Metal_Only>
0

> <s_lp_Force_Field>
OPLS_2005

> <r_lp_Energy>
20.9624

> <b_lp_Chiralities_Consistent>
1

> <s_lp_Variant>
AV-unprocessed.smi:2035-4

> <Gold.Version>
5.8.1

> <Gold.Id.Protein>
6NUR|6NUR_protein|mol2

> <Gold.PLP.Fitness>
42.6301

> <Gold.PLP.PLP>
-33.7035

> <Gold.PLP.part.hbond>
-4.3551

> <Gold.PLP.part.metal>
0.0000

> <Gold.PLP.part.buried>
1.0775

> <Gold.PLP.part.nonpolar>
-30.0534

> <Gold.PLP.part.repulsive>
0.3320

> <Gold.PLP.ligand.clash>
0.0000

> <Gold.PLP.ligand.torsion>
0.0502

> <Gold.PLP.Chemscore.Hbond>
3.0000

> <Gold.PLP.Chemscore.CHOScore>
0.0000

> <Gold.PLP.Chemscore.Metal>
0.0000

> <Gold.Chemscore.Hbonds>
donor molecule, donor type, donor heavy atom, donor atom, acceptor molecule, acceptor atom, score
      L1  H     3    19       P1  8028  0.99
      L1  H    10    24       P1  8028  1.00
      P1  H  7989  7998       L1    18  1.00

> <Gold.PLP.Chemscore.Internal.Correction>
0.0270

> <Gold.Rescore>
     Score         DG    S(hbond)    S(metal)    S(lipo)     H(rot)  DE(clash)    DE(int)     intcor
     18.79     -22.00       2.77        0.00      84.04       1.00       1.18       2.03       ----

> <Gold.Chemscore.Fitness>
18.7922

> <Gold.Chemscore.DG>
-22.0047

> <Gold.Chemscore.ZeroCoef>
-5.4800

> <Gold.Chemscore.Hbond>
2.7702

> <Gold.Chemscore.Metal>
0.0000

> <Gold.Chemscore.Lipo>
84.0369

> <Gold.Chemscore.Internal_Hbond>
0.0000

> <Gold.Chemscore.DEClash>
1.1823

> <Gold.Chemscore.DEInternal>
2.0302

> <Gold.Chemscore.Rot>
1.0000

> <Gold.Chemscore.Internal.Correction>
   9.000000E+99

> <Gold.Chemscore.Hbonds>
donor molecule, donor type, donor heavy atom, donor atom, acceptor molecule, acceptor atom, score
      L1  H     3    19       P1  8028  0.93
      L1  H    10    24       P1  8028  0.97
      P1  H  7989  7998       L1    18  0.88

> <Gold.Chemscore.Hbond.Weighted>
-9.2524

> <Gold.Chemscore.Metal.Weighted>
-0.0000

> <Gold.Chemscore.Lipo.Weighted>
-9.8323

> <Gold.Chemscore.Internal_Hbond.Weighted>
0.0000

> <Gold.Chemscore.DEClash.Weighted>
1.1823

> <Gold.Chemscore.DEInternal.Weighted>
2.0302

> <Gold.Chemscore.Rot.Weighted>
2.5600

> <Gold.Chemscore.Internal.Correction.Weighted>
   9.000000E+99

> <Gold.Protein.RotatedTorsions>
[ 6907 6896 6895 6894 ] final   13.92 input  -60.11 | X-H torsion
[ 7974 7965 7964 7962 ] final -106.21 input  175.53 | X-H torsion
[ 8008 7997 7996 7995 ] final  126.34 input   59.86 | X-H torsion
[ 10167 10162 10161 10158 ] final  122.58 input  -65.29 | X-H torsion
[ 10718 10713 10712 10709 ] final  -90.16 input   66.30 | X-H torsion
[ 10763 10752 10751 10750 ] final  133.07 input  -60.55 | X-H torsion
[ 11005 11000 10999 10996 ] final -119.70 input  -57.11 | X-H torsion

> <Gold.Protein.ActiveResidues>
 VAL166  LYS551  ARG553  GLY616  TRP617  ASP618  TYR619  PRO620  LYS621  CYS622 
 ASP623  PHE694  ASN695  SER759  ASP760  ASP761  ALA762  ILE779  LEU786  VAL792 
 PHE793  MET794  SER795  GLU796  ALA797  LYS798  CYS799  TRP800  GLU811  SER814 

> <Gold.Protein.RotatedAtoms>
  151.7940  135.0727  160.0390 H   0  0  0  0  0  0  0  0  0  0  0  0  # atno 6907 bound_to 6896
  152.3136  133.5774  159.5705 H   0  0  0  0  0  0  0  0  0  0  0  0  # atno 6908 bound_to 6896
  150.7332  134.0032  159.3687 H   0  0  0  0  0  0  0  0  0  0  0  0  # atno 6909 bound_to 6896
  145.2207  140.9133  143.3261 H   0  0  0  0  0  0  0  0  0  0  0  0  # atno 7974 bound_to 7965
  156.2861  140.2695  156.2096 H   0  0  0  0  0  0  0  0  0  0  0  0  # atno 8008 bound_to 7997
  155.0278  140.0386  157.2480 H   0  0  0  0  0  0  0  0  0  0  0  0  # atno 8009 bound_to 7997
  154.7380  140.2719  155.6403 H   0  0  0  0  0  0  0  0  0  0  0  0  # atno 8010 bound_to 7997
  139.5850  144.7003  151.3431 H   0  0  0  0  0  0  0  0  0  0  0  0  # atno 10167 bound_to 10162
  155.9986  130.4899  150.5281 H   0  0  0  0  0  0  0  0  0  0  0  0  # atno 10718 bound_to 10713
  153.8012  135.3141  155.3390 H   0  0  0  0  0  0  0  0  0  0  0  0  # atno 10763 bound_to 10752
  154.8088  135.4680  154.0465 H   0  0  0  0  0  0  0  0  0  0  0  0  # atno 10764 bound_to 10752
  153.1814  135.6894  153.8561 H   0  0  0  0  0  0  0  0  0  0  0  0  # atno 10765 bound_to 10752
  141.0196  134.0143  157.3300 H   0  0  0  0  0  0  0  0  0  0  0  0  # atno 11005 bound_to 11000
  144.9768  139.3824  143.6282 LP  0  0  0  0  0  0  0  0  0  0  0  0  # atno 17320 bound_to 7965
  146.3376  139.8891  142.8812 LP  0  0  0  0  0  0  0  0  0  0  0  0  # atno 17321 bound_to 7965
  140.7123  143.7357  150.7590 LP  0  0  0  0  0  0  0  0  0  0  0  0  # atno 17342 bound_to 10162
  140.0899  143.4887  152.2484 LP  0  0  0  0  0  0  0  0  0  0  0  0  # atno 17343 bound_to 10162
  157.3233  131.0686  151.1915 LP  0  0  0  0  0  0  0  0  0  0  0  0  # atno 17370 bound_to 10713
  157.2821  130.6755  149.6071 LP  0  0  0  0  0  0  0  0  0  0  0  0  # atno 17371 bound_to 10713
  139.9138  135.0194  156.7800 LP  0  0  0  0  0  0  0  0  0  0  0  0  # atno 17394 bound_to 11000
  140.6595  133.9658  155.7797 LP  0  0  0  0  0  0  0  0  0  0  0  0  # atno 17395 bound_to 11000

$$$$
