AV-unprocessed.smi:589|AV-procd|sdf|3007|dock3
  -GOLD-   2262023513D 1   1.00000     0.00000
 Structure written by MMmdl.
 40 41  0  0  0  0  0  0  0  0  1 V2000
  151.7489  145.0791  159.0022 C   0  0  0  0  0  0  0  0  0  0  0  0
  152.0931  143.6046  159.0040 C   0  0  0  0  0  0  0  0  0  0  0  0
  152.9193  143.0534  159.9997 C   0  0  0  0  0  0  0  0  0  0  0  0
  153.2098  141.6746  159.9576 C   0  0  0  0  0  0  0  0  0  0  0  0
  154.0693  141.0848  161.0666 C   0  0  0  0  0  0  0  0  0  0  0  0
  152.6700  140.8917  158.8975 C   0  0  0  0  0  0  0  0  0  0  0  0
  152.9399  139.4108  158.7939 C   0  0  0  0  0  0  0  0  0  0  0  0
  151.8698  138.6141  158.8682 N   0  0  0  0  0  0  0  0  0  0  0  0
  154.0835  138.9727  158.6830 O   0  0  0  0  0  0  0  0  0  0  0  0
  151.8310  141.5482  157.9505 C   0  0  0  0  0  0  0  0  0  0  0  0
  151.2611  140.8436  156.8762 N   0  0  0  0  0  0  0  0  0  0  0  0
  150.2265  141.5648  156.1498 C   0  0  0  0  0  0  0  0  0  0  0  0
  149.5186  140.6091  155.1734 C   0  0  1  0  0  0  0  0  0  0  0  0
  148.4878  141.3368  154.3046 C   0  0  0  0  0  0  0  0  0  0  0  0
  150.4867  140.0102  154.3100 O   0  0  0  0  0  0  0  0  0  0  0  0
  151.5324  139.2976  154.9790 C   0  0  2  0  0  0  0  0  0  0  0  0
  151.0317  137.9788  155.5947 C   0  0  0  0  0  0  0  0  0  0  0  0
  152.2370  140.2182  155.9954 C   0  0  0  0  0  0  0  0  0  0  0  0
  151.5594  142.8737  158.0068 N   0  0  0  0  0  0  0  0  0  0  0  0
  152.1719  145.5860  159.8698 H   0  0  0  0  0  0  0  0  0  0  0  0
  150.6674  145.2163  159.0224 H   0  0  0  0  0  0  0  0  0  0  0  0
  152.1400  145.5576  158.1040 H   0  0  0  0  0  0  0  0  0  0  0  0
  153.3159  143.6771  160.7876 H   0  0  0  0  0  0  0  0  0  0  0  0
  153.6278  140.1682  161.4590 H   0  0  0  0  0  0  0  0  0  0  0  0
  154.1679  141.7808  161.9004 H   0  0  0  0  0  0  0  0  0  0  0  0
  155.0709  140.8623  160.6981 H   0  0  0  0  0  0  0  0  0  0  0  0
  151.9811  137.6128  158.8025 H   0  0  0  0  0  0  0  0  0  0  0  0
  150.9524  139.0187  158.9869 H   0  0  0  0  0  0  0  0  0  0  0  0
  149.5079  141.9854  156.8542 H   0  0  0  0  0  0  0  0  0  0  0  0
  150.6724  142.3973  155.6035 H   0  0  0  0  0  0  0  0  0  0  0  0
  148.9982  139.8329  155.7352 H   0  0  0  0  0  0  0  0  0  0  0  0
  147.7162  141.8016  154.9188 H   0  0  0  0  0  0  0  0  0  0  0  0
  147.9959  140.6440  153.6215 H   0  0  0  0  0  0  0  0  0  0  0  0
  148.9567  142.1186  153.7064 H   0  0  0  0  0  0  0  0  0  0  0  0
  152.2595  139.0317  154.2115 H   0  0  0  0  0  0  0  0  0  0  0  0
  151.8652  137.3970  155.9886 H   0  0  0  0  0  0  0  0  0  0  0  0
  150.5264  137.3676  154.8469 H   0  0  0  0  0  0  0  0  0  0  0  0
  150.3373  138.1435  156.4183 H   0  0  0  0  0  0  0  0  0  0  0  0
  152.7864  140.9969  155.4644 H   0  0  0  0  0  0  0  0  0  0  0  0
  152.9657  139.6548  156.5794 H   0  0  0  0  0  0  0  0  0  0  0  0
  1  2  1  0  0  0  0
  1 20  1  0  0  0  0
  1 21  1  0  0  0  0
  1 22  1  0  0  0  0
  2 19  1  0  0  0  0
  2  3  2  0  0  0  0
  3  4  1  0  0  0  0
  3 23  1  0  0  0  0
  4  5  1  0  0  0  0
  4  6  2  0  0  0  0
  5 24  1  0  0  0  0
  5 25  1  0  0  0  0
  5 26  1  0  0  0  0
  6  7  1  0  0  0  0
  6 10  1  0  0  0  0
  7  8  1  0  0  0  0
  7  9  2  0  0  0  0
  8 27  1  0  0  0  0
  8 28  1  0  0  0  0
 10 11  1  0  0  0  0
 10 19  2  0  0  0  0
 11 18  1  0  0  0  0
 11 12  1  0  0  0  0
 12 13  1  0  0  0  0
 12 29  1  0  0  0  0
 12 30  1  0  0  0  0
 13 14  1  0  0  0  0
 13 15  1  0  0  0  0
 13 31  1  0  0  0  0
 14 32  1  0  0  0  0
 14 33  1  0  0  0  0
 14 34  1  0  0  0  0
 15 16  1  0  0  0  0
 16 17  1  0  0  0  0
 16 18  1  0  0  0  0
 16 35  1  0  0  0  0
 17 36  1  0  0  0  0
 17 37  1  0  0  0  0
 17 38  1  0  0  0  0
 18 39  1  0  0  0  0
 18 40  1  0  0  0  0
M  END
> <s_m_source_file>
AV-unprocessed.smi

> <i_m_source_file_index>
589

> <i_lp_mmshare_version>
43012

> <i_f3d_flags>
0

> <s_epik_input>
W0NIM11jMVtjSF1jKFtDSDNdKWMoQyg9TylbTkgyXSljKG4xKU4yW0NIMl1bQ0BASF0oW0NIM10pT1tDQEBIXShbQ0gzXSlbQ0gyXTI=

> <s_epik_cmdline>
J2VwaWtfcHl0aG9uJywgJy1waCcsICc3LjAnLCAnLXRuJywgJzgnLCAnLW1hJywgJzIwMCcsICctbWV0YWxfYmluZGluZycsICctaW1hZScsICc8aW5maWxlLm1hZT4nLCAnLW9tYWUnLCAnPG91dGZpbGUubWFlPic=

> <r_lp_tautomer_probability>
1

> <r_epik_Ionization_Penalty>
0.000626871

> <r_epik_Ionization_Penalty_Charging>
0

> <r_epik_Ionization_Penalty_Neutral>
0.000626871

> <r_epik_State_Penalty>
0.000395665

> <r_epik_Charging_Adjusted_Penalty>
0.000395665

> <i_epik_Tot_Q>
0

> <i_epik_Tot_abs_Q>
0

> <r_epik_Metal_State_Penalty>
-0

> <b_epik_Metal_Only>
0

> <s_lp_Force_Field>
OPLS_2005

> <r_lp_Energy>
27.549

> <b_lp_Chiralities_Consistent>
1

> <s_lp_Variant>
AV-unprocessed.smi:589-3

> <Gold.Version>
5.8.1

> <Gold.Id.Protein>
6NUR|6NUR_protein|mol2

> <Gold.PLP.Fitness>
43.0210

> <Gold.PLP.PLP>
-40.6840

> <Gold.PLP.part.hbond>
-2.0000

> <Gold.PLP.part.metal>
0.0000

> <Gold.PLP.part.buried>
-4.2750

> <Gold.PLP.part.nonpolar>
-34.9478

> <Gold.PLP.part.repulsive>
0.2874

> <Gold.PLP.ligand.clash>
0.1245

> <Gold.PLP.ligand.torsion>
1.2672

> <Gold.PLP.Chemscore.Hbond>
1.5500

> <Gold.PLP.Chemscore.CHOScore>
0.0000

> <Gold.PLP.Chemscore.Metal>
0.0000

> <Gold.Chemscore.Hbonds>
donor molecule, donor type, donor heavy atom, donor atom, acceptor molecule, acceptor atom, score
      P1  H  7989  7998       L1    15  0.50
      P1  H  7997  8009       L1     9  1.00

> <Gold.PLP.Chemscore.Internal.Correction>
0.3458

> <Gold.Rescore>
     Score         DG    S(hbond)    S(metal)    S(lipo)     H(rot)  DE(clash)    DE(int)     intcor
     15.79     -18.30       0.99        0.00     103.20       1.00       0.01       2.50       ----

> <Gold.Chemscore.Fitness>
15.7894

> <Gold.Chemscore.DG>
-18.2977

> <Gold.Chemscore.ZeroCoef>
-5.4800

> <Gold.Chemscore.Hbond>
0.9891

> <Gold.Chemscore.Metal>
0.0000

> <Gold.Chemscore.Lipo>
103.1982

> <Gold.Chemscore.Internal_Hbond>
0.0000

> <Gold.Chemscore.DEClash>
0.0075

> <Gold.Chemscore.DEInternal>
2.5009

> <Gold.Chemscore.Rot>
1.0000

> <Gold.Chemscore.Internal.Correction>
   9.000000E+99

> <Gold.Chemscore.Hbonds>
donor molecule, donor type, donor heavy atom, donor atom, acceptor molecule, acceptor atom, score
      P1  H  7989  7998       L1    15  0.02
      P1  H  7997  8009       L1     9  0.30

> <Gold.Chemscore.Hbond.Weighted>
-3.3035

> <Gold.Chemscore.Metal.Weighted>
-0.0000

> <Gold.Chemscore.Lipo.Weighted>
-12.0742

> <Gold.Chemscore.Internal_Hbond.Weighted>
0.0000

> <Gold.Chemscore.DEClash.Weighted>
0.0075

> <Gold.Chemscore.DEInternal.Weighted>
2.5009

> <Gold.Chemscore.Rot.Weighted>
2.5600

> <Gold.Chemscore.Internal.Correction.Weighted>
   9.000000E+99

> <Gold.Protein.RotatedTorsions>
[ 6907 6896 6895 6894 ] final   56.25 input  -60.11 | X-H torsion
[ 7974 7965 7964 7962 ] final  162.38 input  175.53 | X-H torsion
[ 8008 7997 7996 7995 ] final  145.28 input   59.86 | X-H torsion
[ 10167 10162 10161 10158 ] final -115.85 input  -65.29 | X-H torsion
[ 10718 10713 10712 10709 ] final  168.57 input   66.30 | X-H torsion
[ 10763 10752 10751 10750 ] final  -16.87 input  -60.55 | X-H torsion
[ 11005 11000 10999 10996 ] final -105.02 input  -57.11 | X-H torsion

> <Gold.Protein.ActiveResidues>
 VAL166  LYS551  ARG553  GLY616  TRP617  ASP618  TYR619  PRO620  LYS621  CYS622 
 ASP623  PHE694  ASN695  SER759  ASP760  ASP761  ALA762  ILE779  LEU786  VAL792 
 PHE793  MET794  SER795  GLU796  ALA797  LYS798  CYS799  TRP800  GLU811  SER814 

> <Gold.Protein.RotatedAtoms>
  152.3618  134.6861  160.0204 H   0  0  0  0  0  0  0  0  0  0  0  0  # atno 6907 bound_to 6896
  151.7182  133.3308  159.3316 H   0  0  0  0  0  0  0  0  0  0  0  0  # atno 6908 bound_to 6896
  150.7610  134.6406  159.6279 H   0  0  0  0  0  0  0  0  0  0  0  0  # atno 6909 bound_to 6896
  144.7639  139.8031  143.6322 H   0  0  0  0  0  0  0  0  0  0  0  0  # atno 7974 bound_to 7965
  156.2887  140.2213  156.5189 H   0  0  0  0  0  0  0  0  0  0  0  0  # atno 8008 bound_to 7997
  154.7545  140.0478  157.0944 H   0  0  0  0  0  0  0  0  0  0  0  0  # atno 8009 bound_to 7997
  155.0068  140.3108  155.4849 H   0  0  0  0  0  0  0  0  0  0  0  0  # atno 8010 bound_to 7997
  140.0856  143.4747  152.1900 H   0  0  0  0  0  0  0  0  0  0  0  0  # atno 10167 bound_to 10162
  157.0352  131.0271  151.2731 H   0  0  0  0  0  0  0  0  0  0  0  0  # atno 10718 bound_to 10713
  153.5652  135.7009  153.5529 H   0  0  0  0  0  0  0  0  0  0  0  0  # atno 10763 bound_to 10752
  153.3393  135.4025  155.1559 H   0  0  0  0  0  0  0  0  0  0  0  0  # atno 10764 bound_to 10752
  154.8642  135.3738  154.5172 H   0  0  0  0  0  0  0  0  0  0  0  0  # atno 10765 bound_to 10752
  141.1073  133.8772  157.1683 H   0  0  0  0  0  0  0  0  0  0  0  0  # atno 11005 bound_to 11000
  146.1729  139.4888  142.9916 LP  0  0  0  0  0  0  0  0  0  0  0  0  # atno 17320 bound_to 7965
  145.6530  141.0258  143.1750 LP  0  0  0  0  0  0  0  0  0  0  0  0  # atno 17321 bound_to 7965
  139.5754  144.7484  151.3779 LP  0  0  0  0  0  0  0  0  0  0  0  0  # atno 17342 bound_to 10162
  140.7055  143.7524  150.7475 LP  0  0  0  0  0  0  0  0  0  0  0  0  # atno 17343 bound_to 10162
  157.5147  130.7960  149.7743 LP  0  0  0  0  0  0  0  0  0  0  0  0  # atno 17370 bound_to 10713
  156.0056  130.3857  150.2443 LP  0  0  0  0  0  0  0  0  0  0  0  0  # atno 17371 bound_to 10713
  139.9949  135.0050  157.0060 LP  0  0  0  0  0  0  0  0  0  0  0  0  # atno 17394 bound_to 11000
  140.4868  134.1233  155.7226 LP  0  0  0  0  0  0  0  0  0  0  0  0  # atno 17395 bound_to 11000

$$$$
