AV-unprocessed.smi:766|AV-procd|sdf|3651|dock3
  -GOLD-   22720 1 53D 1   1.00000     0.00000
 Structure written by MMmdl.
 47 49  0  0  0  0  0  0  0  0  2 V2000
  153.5440  142.7451  160.8889 C   0  0  0  0  0  0  0  0  0  0  0  0
  152.7049  142.2832  159.7105 C   0  0  0  0  0  0  0  0  0  0  0  0
  152.8819  140.9725  159.2123 C   0  0  0  0  0  0  0  0  0  0  0  0
  152.1190  140.5037  158.1204 C   0  0  0  0  0  0  0  0  0  0  0  0
  152.1246  139.2765  157.4800 N   0  0  0  0  0  0  0  0  0  0  0  0
  151.1933  139.4558  156.5479 C   0  0  0  0  0  0  0  0  0  0  0  0
  150.5826  140.6559  156.5097 N   0  0  0  0  0  0  0  0  0  0  0  0
  149.5412  141.0844  155.5936 C   0  0  0  0  0  0  0  0  0  0  0  0
  149.4105  140.1492  154.3761 C   0  0  2  0  0  0  0  0  0  0  0  0
  149.6328  140.8885  153.1900 O   0  0  0  0  0  0  0  0  0  0  0  0
  148.0240  139.4903  154.2996 C   0  0  0  0  0  0  0  0  0  0  0  0
  147.8539  138.7586  153.0291 N   0  3  0  0  0  0  0  0  0  0  0  0
  146.5092  138.1806  152.8349 C   0  0  0  0  0  0  0  0  0  0  0  0
  146.2271  137.0505  153.8385 C   0  0  0  0  0  0  0  0  0  0  0  0
  144.9423  136.4135  153.6088 N   0  0  0  0  0  0  0  0  0  0  0  0
  143.8750  136.8801  152.8703 C   0  0  0  0  0  0  0  0  0  0  0  0
  142.8886  135.9387  152.9429 C   0  0  0  0  0  0  0  0  0  0  0  0
  143.4538  134.9178  153.7569 C   0  0  0  0  0  0  0  0  0  0  0  0
  144.6826  135.2057  154.1555 N   0  0  0  0  0  0  0  0  0  0  0  0
  151.1675  141.3895  157.5358 C   0  0  0  0  0  0  0  0  0  0  0  0
  150.9843  142.6964  158.0199 C   0  0  0  0  0  0  0  0  0  0  0  0
  151.7546  143.1488  159.1114 C   0  0  0  0  0  0  0  0  0  0  0  0
  151.5486  144.5618  159.6274 C   0  0  0  0  0  0  0  0  0  0  0  0
  154.1676  141.9378  161.2743 H   0  0  0  0  0  0  0  0  0  0  0  0
  152.9062  143.0902  161.7030 H   0  0  0  0  0  0  0  0  0  0  0  0
  154.2001  143.5635  160.5916 H   0  0  0  0  0  0  0  0  0  0  0  0
  153.6070  140.3135  159.6668 H   0  0  0  0  0  0  0  0  0  0  0  0
  150.9373  138.6675  155.8549 H   0  0  0  0  0  0  0  0  0  0  0  0
  148.6010  141.1193  156.1451 H   0  0  0  0  0  0  0  0  0  0  0  0
  149.7533  142.1056  155.2731 H   0  0  0  0  0  0  0  0  0  0  0  0
  150.1735  139.3720  154.4418 H   0  0  0  0  0  0  0  0  0  0  0  0
  149.7147  140.2858  152.4663 H   0  0  0  0  0  0  0  0  0  0  0  0
  147.9090  138.7809  155.1204 H   0  0  0  0  0  0  0  0  0  0  0  0
  147.2359  140.2370  154.4088 H   0  0  0  0  0  0  0  0  0  0  0  0
  148.0474  139.3927  152.2666 H   0  0  0  0  0  0  0  0  0  0  0  0
  145.7546  138.9628  152.9286 H   0  0  0  0  0  0  0  0  0  0  0  0
  146.4405  137.7910  151.8185 H   0  0  0  0  0  0  0  0  0  0  0  0
  147.0021  136.2871  153.7586 H   0  0  0  0  0  0  0  0  0  0  0  0
  146.2629  137.4232  154.8634 H   0  0  0  0  0  0  0  0  0  0  0  0
  143.9050  137.8315  152.3599 H   0  0  0  0  0  0  0  0  0  0  0  0
  141.9124  135.9726  152.4822 H   0  0  0  0  0  0  0  0  0  0  0  0
  143.0107  133.9834  154.0682 H   0  0  0  0  0  0  0  0  0  0  0  0
  150.2561  143.3447  157.5555 H   0  0  0  0  0  0  0  0  0  0  0  0
  150.8295  145.1075  159.0160 H   0  0  0  0  0  0  0  0  0  0  0  0
  152.4869  145.1164  159.6129 H   0  0  0  0  0  0  0  0  0  0  0  0
  151.1723  144.5421  160.6503 H   0  0  0  0  0  0  0  0  0  0  0  0
  148.5298  138.0082  152.9970 H   0  0  0  0  0  0  0  0  0  0  0  0
  1  2  1  0  0  0  0
  1 24  1  0  0  0  0
  1 25  1  0  0  0  0
  1 26  1  0  0  0  0
  2 22  1  0  0  0  0
  2  3  2  0  0  0  0
  3  4  1  0  0  0  0
  3 27  1  0  0  0  0
  4 20  2  0  0  0  0
  4  5  1  0  0  0  0
  5  6  2  0  0  0  0
  6  7  1  0  0  0  0
  6 28  1  0  0  0  0
  7  8  1  0  0  0  0
  7 20  1  0  0  0  0
  8  9  1  0  0  0  0
  8 29  1  0  0  0  0
  8 30  1  0  0  0  0
  9 10  1  0  0  0  0
  9 11  1  0  0  0  0
  9 31  1  0  0  0  0
 10 32  1  0  0  0  0
 11 12  1  0  0  0  0
 11 33  1  0  0  0  0
 11 34  1  0  0  0  0
 12 13  1  0  0  0  0
 12 35  1  0  0  0  0
 12 47  1  0  0  0  0
 13 14  1  0  0  0  0
 13 36  1  0  0  0  0
 13 37  1  0  0  0  0
 14 15  1  0  0  0  0
 14 38  1  0  0  0  0
 14 39  1  0  0  0  0
 15 19  1  0  0  0  0
 15 16  1  0  0  0  0
 16 17  2  0  0  0  0
 16 40  1  0  0  0  0
 17 18  1  0  0  0  0
 17 41  1  0  0  0  0
 18 19  2  0  0  0  0
 18 42  1  0  0  0  0
 20 21  1  0  0  0  0
 21 22  2  0  0  0  0
 21 43  1  0  0  0  0
 22 23  1  0  0  0  0
 23 44  1  0  0  0  0
 23 45  1  0  0  0  0
 23 46  1  0  0  0  0
M  CHG  1  12   1
M  END
> <s_m_source_file>
AV-unprocessed.smi

> <i_m_source_file_index>
766

> <i_lp_mmshare_version>
43012

> <i_f3d_flags>
0

> <s_epik_input>
W0NIM11jKFtjSF0xKWMoW0NIM10pW2NIXWMoYzEyKW4oW2NIXW4yKVtDSDJdW0NASF0oW09IXSlbQ0gyXVtOSF1bQ0gyXVtDSDJdbjNbY0hdW2NIXVtjSF1uMw==

> <s_epik_cmdline>
J2VwaWtfcHl0aG9uJywgJy1waCcsICc3LjAnLCAnLXRuJywgJzgnLCAnLW1hJywgJzIwMCcsICctbWV0YWxfYmluZGluZycsICctaW1hZScsICc8aW5maWxlLm1hZT4nLCAnLW9tYWUnLCAnPG91dGZpbGUubWFlPic=

> <r_lp_tautomer_probability>
1

> <r_epik_Ionization_Penalty>
0.127222

> <r_epik_Ionization_Penalty_Charging>
0.043815

> <r_epik_Ionization_Penalty_Neutral>
0.0834074

> <r_epik_State_Penalty>
0.115563

> <r_epik_Charging_Adjusted_Penalty>
0.159378

> <i_epik_Tot_Q>
1

> <i_epik_Tot_abs_Q>
1

> <r_epik_Metal_State_Penalty>
0.102594

> <b_epik_Metal_Only>
0

> <s_lp_Force_Field>
OPLS_2005

> <r_lp_Energy>
9.49244

> <b_lp_Chiralities_Consistent>
1

> <s_lp_Variant>
AV-unprocessed.smi:766-1

> <Gold.Version>
5.8.1

> <Gold.Id.Protein>
6NUR|6NUR_protein|mol2

> <Gold.PLP.Fitness>
59.2176

> <Gold.PLP.PLP>
-41.7028

> <Gold.PLP.part.hbond>
-3.6972

> <Gold.PLP.part.metal>
0.0000

> <Gold.PLP.part.buried>
-5.4169

> <Gold.PLP.part.nonpolar>
-32.9803

> <Gold.PLP.part.repulsive>
0.0952

> <Gold.PLP.ligand.clash>
0.0000

> <Gold.PLP.ligand.torsion>
1.2246

> <Gold.PLP.Chemscore.Hbond>
3.5843

> <Gold.PLP.Chemscore.CHOScore>
3.0000

> <Gold.PLP.Chemscore.Metal>
0.0000

> <Gold.Chemscore.Hbonds>
donor molecule, donor type, donor heavy atom, donor atom, acceptor molecule, acceptor atom, score
      L1  H    10    32       P1  7957  0.49
      L1  H    12    35       P1  7957  0.82
      L1  H    12    47       P1  7948  1.20
      P1  H  7989  7998       L1    10  0.07
      P1  H  8011  8017       L1    10  0.95
      L1  C    16    40       P1 10171  0.71
      L1  C    16    40       P1 10175  0.79
      L1  C    18    42       P1 10957  1.00

> <Gold.PLP.Chemscore.Internal.Correction>
0.2110

> <Gold.Rescore>
     Score         DG    S(hbond)    S(metal)    S(lipo)     H(rot)  DE(clash)    DE(int)     intcor
     18.72     -19.99       2.65        0.00     112.60       2.93       0.17       1.10       ----

> <Gold.Chemscore.Fitness>
18.7247

> <Gold.Chemscore.DG>
-19.9914

> <Gold.Chemscore.ZeroCoef>
-5.4800

> <Gold.Chemscore.Hbond>
2.6487

> <Gold.Chemscore.Metal>
0.0000

> <Gold.Chemscore.Lipo>
112.6014

> <Gold.Chemscore.Internal_Hbond>
0.0000

> <Gold.Chemscore.DEClash>
0.1682

> <Gold.Chemscore.DEInternal>
1.0985

> <Gold.Chemscore.Rot>
2.9335

> <Gold.Chemscore.Internal.Correction>
   9.000000E+99

> <Gold.Chemscore.Hbonds>
donor molecule, donor type, donor heavy atom, donor atom, acceptor molecule, acceptor atom, score
      L1  H    10    32       P1  7957  0.47
      L1  H    12    35       P1  7957  0.76
      L1  H    12    47       P1  7948  0.59
      P1  H  8011  8017       L1    10  0.22

> <Gold.Chemscore.Hbond.Weighted>
-8.8467

> <Gold.Chemscore.Metal.Weighted>
-0.0000

> <Gold.Chemscore.Lipo.Weighted>
-13.1744

> <Gold.Chemscore.Internal_Hbond.Weighted>
0.0000

> <Gold.Chemscore.DEClash.Weighted>
0.1682

> <Gold.Chemscore.DEInternal.Weighted>
1.0985

> <Gold.Chemscore.Rot.Weighted>
7.5097

> <Gold.Chemscore.Internal.Correction.Weighted>
   9.000000E+99

> <Gold.Protein.RotatedTorsions>
[ 6907 6896 6895 6894 ] final  101.82 input  -60.11 | X-H torsion
[ 7974 7965 7964 7962 ] final   18.01 input  175.53 | X-H torsion
[ 8008 7997 7996 7995 ] final   28.66 input   59.86 | X-H torsion
[ 10167 10162 10161 10158 ] final  -61.43 input  -65.29 | X-H torsion
[ 10718 10713 10712 10709 ] final  -86.76 input   66.30 | X-H torsion
[ 10763 10752 10751 10750 ] final  -56.24 input  -60.55 | X-H torsion
[ 11005 11000 10999 10996 ] final -162.40 input  -57.11 | X-H torsion

> <Gold.Protein.ActiveResidues>
 VAL166  LYS551  ARG553  GLY616  TRP617  ASP618  TYR619  PRO620  LYS621  CYS622 
 ASP623  PHE694  ASN695  SER759  ASP760  ASP761  ALA762  ILE779  LEU786  VAL792 
 PHE793  MET794  SER795  GLU796  ALA797  LYS798  CYS799  TRP800  GLU811  SER814 

> <Gold.Protein.RotatedAtoms>
  152.5339  134.0068  159.7919 H   0  0  0  0  0  0  0  0  0  0  0  0  # atno 6907 bound_to 6896
  151.0277  133.5811  159.2671 H   0  0  0  0  0  0  0  0  0  0  0  0  # atno 6908 bound_to 6896
  151.2827  135.0726  159.9229 H   0  0  0  0  0  0  0  0  0  0  0  0  # atno 6909 bound_to 6896
  146.2199  139.8520  142.8621 H   0  0  0  0  0  0  0  0  0  0  0  0  # atno 7974 bound_to 7965
  155.0621  140.3191  155.4657 H   0  0  0  0  0  0  0  0  0  0  0  0  # atno 8008 bound_to 7997
  156.2810  140.2127  156.5693 H   0  0  0  0  0  0  0  0  0  0  0  0  # atno 8009 bound_to 7997
  154.7123  140.0497  157.0549 H   0  0  0  0  0  0  0  0  0  0  0  0  # atno 8010 bound_to 7997
  140.6006  143.2360  151.5937 H   0  0  0  0  0  0  0  0  0  0  0  0  # atno 10167 bound_to 10162
  155.9988  130.4776  150.4764 H   0  0  0  0  0  0  0  0  0  0  0  0  # atno 10718 bound_to 10713
  154.2035  135.6407  153.5094 H   0  0  0  0  0  0  0  0  0  0  0  0  # atno 10763 bound_to 10752
  153.0006  135.5457  154.6290 H   0  0  0  0  0  0  0  0  0  0  0  0  # atno 10764 bound_to 10752
  154.5709  135.2917  155.0801 H   0  0  0  0  0  0  0  0  0  0  0  0  # atno 10765 bound_to 10752
  140.6097  134.4862  157.5214 H   0  0  0  0  0  0  0  0  0  0  0  0  # atno 11005 bound_to 11000
  145.2792  141.0133  143.3727 LP  0  0  0  0  0  0  0  0  0  0  0  0  # atno 17320 bound_to 7965
  144.9163  139.4466  143.6562 LP  0  0  0  0  0  0  0  0  0  0  0  0  # atno 17321 bound_to 7965
  139.5288  144.2977  152.1099 LP  0  0  0  0  0  0  0  0  0  0  0  0  # atno 17342 bound_to 10162
  140.2157  144.4517  150.6365 LP  0  0  0  0  0  0  0  0  0  0  0  0  # atno 17343 bound_to 10162
  157.2773  131.0599  151.2220 LP  0  0  0  0  0  0  0  0  0  0  0  0  # atno 17370 bound_to 10713
  157.3279  130.6970  149.6307 LP  0  0  0  0  0  0  0  0  0  0  0  0  # atno 17371 bound_to 10713
  139.9197  134.8173  156.1250 LP  0  0  0  0  0  0  0  0  0  0  0  0  # atno 17394 bound_to 11000
  141.0816  133.6752  156.2349 LP  0  0  0  0  0  0  0  0  0  0  0  0  # atno 17395 bound_to 11000

$$$$
