AV-unprocessed.smi:284|AV-procd|sdf|2157|dock7
  -GOLD-   2262021503D 1   1.00000     0.00000
 Structure written by MMmdl.
 60 62  0  0  0  0  0  0  0  0  1 V2000
  144.9412  136.5231  156.0881 C   0  0  0  0  0  0  0  0  0  0  0  0
  145.4441  137.0183  154.7410 C   0  0  0  0  0  0  0  0  0  0  0  0
  145.2792  136.3028  153.6040 C   0  0  0  0  0  0  0  0  0  0  0  0
  145.7197  136.7285  152.3624 N   0  0  0  0  0  0  0  0  0  0  0  0
  145.5063  135.9193  151.0980 C   0  0  2  0  0  0  0  0  0  0  0  0
  144.0033  135.7171  150.8299 C   0  0  0  0  0  0  0  0  0  0  0  0
  143.8865  134.2194  150.6115 C   0  0  1  0  0  0  0  0  0  0  0  0
  144.0049  133.9053  149.2364 O   0  0  0  0  0  0  0  0  0  0  0  0
  145.0614  133.6766  151.4318 C   0  0  1  0  0  0  0  0  0  0  0  0
  145.5629  132.2636  151.0850 C   0  0  0  0  0  0  0  0  0  0  0  0
  146.6143  131.8902  151.9502 O   0  0  0  0  0  0  0  0  0  0  0  0
  146.0800  134.6507  151.2324 O   0  0  0  0  0  0  0  0  0  0  0  0
  146.3891  137.9641  152.2491 C   0  0  0  0  0  0  0  0  0  0  0  0
  146.7875  138.3650  151.1527 O   0  0  0  0  0  0  0  0  0  0  0  0
  146.5814  138.7330  153.4182 N   0  0  0  0  0  0  0  0  0  0  0  0
  147.2526  140.0467  153.2953 C   0  0  0  0  0  0  0  0  0  0  0  0
  148.4952  140.1876  154.1897 C   0  0  0  0  0  0  0  0  0  0  0  0
  149.4613  139.4411  154.0307 O   0  0  0  0  0  0  0  0  0  0  0  0
  148.4200  141.1680  155.1093 N   0  0  0  0  0  0  0  0  0  0  0  0
  149.3595  141.5733  156.0995 C   0  0  0  0  0  0  0  0  0  0  0  0
  148.8709  142.3991  157.1310 C   0  0  0  0  0  0  0  0  0  0  0  0
  149.7198  142.8518  158.1590 C   0  0  0  0  0  0  0  0  0  0  0  0
  151.0881  142.4881  158.1821 C   0  0  0  0  0  0  0  0  0  0  0  0
  152.0508  142.9592  159.2887 C   0  0  0  0  0  0  0  0  0  0  0  0
  153.2088  143.7618  158.6600 C   0  0  0  0  0  0  0  0  0  0  0  0
  152.6710  141.7904  160.0873 C   0  0  0  0  0  0  0  0  0  0  0  0
  151.2921  143.8575  160.2876 C   0  0  0  0  0  0  0  0  0  0  0  0
  151.5726  141.6600  157.1434 C   0  0  0  0  0  0  0  0  0  0  0  0
  150.7260  141.2060  156.1145 C   0  0  0  0  0  0  0  0  0  0  0  0
  146.1227  138.3155  154.6913 C   0  0  0  0  0  0  0  0  0  0  0  0
  146.2917  139.0261  155.6842 O   0  0  0  0  0  0  0  0  0  0  0  0
  144.4588  135.5484  156.0096 H   0  0  0  0  0  0  0  0  0  0  0  0
  144.2139  137.2219  156.5030 H   0  0  0  0  0  0  0  0  0  0  0  0
  145.7678  136.4297  156.7934 H   0  0  0  0  0  0  0  0  0  0  0  0
  144.7741  135.3533  153.6905 H   0  0  0  0  0  0  0  0  0  0  0  0
  146.0288  136.4614  150.3078 H   0  0  0  0  0  0  0  0  0  0  0  0
  143.4289  136.0090  151.7107 H   0  0  0  0  0  0  0  0  0  0  0  0
  143.6683  136.3182  149.9836 H   0  0  0  0  0  0  0  0  0  0  0  0
  142.9323  133.8326  150.9705 H   0  0  0  0  0  0  0  0  0  0  0  0
  144.8341  134.2331  148.9235 H   0  0  0  0  0  0  0  0  0  0  0  0
  144.7868  133.7048  152.4877 H   0  0  0  0  0  0  0  0  0  0  0  0
  144.7619  131.5262  151.1379 H   0  0  0  0  0  0  0  0  0  0  0  0
  145.9413  132.2463  150.0628 H   0  0  0  0  0  0  0  0  0  0  0  0
  147.1601  131.2600  151.5047 H   0  0  0  0  0  0  0  0  0  0  0  0
  147.5497  140.2467  152.2647 H   0  0  0  0  0  0  0  0  0  0  0  0
  146.5577  140.8553  153.5293 H   0  0  0  0  0  0  0  0  0  0  0  0
  147.5593  141.6958  155.1037 H   0  0  0  0  0  0  0  0  0  0  0  0
  147.8311  142.6923  157.1401 H   0  0  0  0  0  0  0  0  0  0  0  0
  149.2880  143.4808  158.9215 H   0  0  0  0  0  0  0  0  0  0  0  0
  153.9200  144.0921  159.4179 H   0  0  0  0  0  0  0  0  0  0  0  0
  152.8571  144.6549  158.1430 H   0  0  0  0  0  0  0  0  0  0  0  0
  153.7585  143.1591  157.9361 H   0  0  0  0  0  0  0  0  0  0  0  0
  153.2531  141.1272  159.4462 H   0  0  0  0  0  0  0  0  0  0  0  0
  151.9077  141.1944  160.5891 H   0  0  0  0  0  0  0  0  0  0  0  0
  153.3467  142.1569  160.8609 H   0  0  0  0  0  0  0  0  0  0  0  0
  151.9436  144.1885  161.0972 H   0  0  0  0  0  0  0  0  0  0  0  0
  150.4544  143.3246  160.7391 H   0  0  0  0  0  0  0  0  0  0  0  0
  150.8931  144.7543  159.8137 H   0  0  0  0  0  0  0  0  0  0  0  0
  152.6096  141.3603  157.1248 H   0  0  0  0  0  0  0  0  0  0  0  0
  151.1620  140.5778  155.3556 H   0  0  0  0  0  0  0  0  0  0  0  0
  1  2  1  0  0  0  0
  1 32  1  0  0  0  0
  1 33  1  0  0  0  0
  1 34  1  0  0  0  0
  2 30  1  0  0  0  0
  2  3  2  0  0  0  0
  3  4  1  0  0  0  0
  3 35  1  0  0  0  0
  4  5  1  0  0  0  0
  4 13  1  0  0  0  0
  5 12  1  0  0  0  0
  5  6  1  0  0  0  0
  5 36  1  0  0  0  0
  6  7  1  0  0  0  0
  6 37  1  0  0  0  0
  6 38  1  0  0  0  0
  7  8  1  0  0  0  0
  7  9  1  0  0  0  0
  7 39  1  0  0  0  0
  8 40  1  0  0  0  0
  9 10  1  0  0  0  0
  9 12  1  0  0  0  0
  9 41  1  0  0  0  0
 10 11  1  0  0  0  0
 10 42  1  0  0  0  0
 10 43  1  0  0  0  0
 11 44  1  0  0  0  0
 13 14  2  0  0  0  0
 13 15  1  0  0  0  0
 15 16  1  0  0  0  0
 15 30  1  0  0  0  0
 16 17  1  0  0  0  0
 16 45  1  0  0  0  0
 16 46  1  0  0  0  0
 17 18  2  0  0  0  0
 17 19  1  0  0  0  0
 19 20  1  0  0  0  0
 19 47  1  0  0  0  0
 20 29  1  0  0  0  0
 20 21  2  0  0  0  0
 21 22  1  0  0  0  0
 21 48  1  0  0  0  0
 22 23  2  0  0  0  0
 22 49  1  0  0  0  0
 23 24  1  0  0  0  0
 23 28  1  0  0  0  0
 24 25  1  0  0  0  0
 24 26  1  0  0  0  0
 24 27  1  0  0  0  0
 25 50  1  0  0  0  0
 25 51  1  0  0  0  0
 25 52  1  0  0  0  0
 26 53  1  0  0  0  0
 26 54  1  0  0  0  0
 26 55  1  0  0  0  0
 27 56  1  0  0  0  0
 27 57  1  0  0  0  0
 27 58  1  0  0  0  0
 28 29  2  0  0  0  0
 28 59  1  0  0  0  0
 29 60  1  0  0  0  0
 30 31  2  0  0  0  0
M  END
> <s_m_source_file>
AV-unprocessed.smi

> <i_m_source_file_index>
284

> <i_lp_mmshare_version>
43012

> <i_f3d_flags>
0

> <s_epik_input>
W09IXVtDSDJdW0NAQEhdKE8xKVtDQEhdKFtPSF0pW0NIMl1bQ0BIXTFuKFtjSF1jMltDSDNdKWMoPU8pbihjMj1PKVtDSDJdQyg9TylbTkhdYzNbY0hdW2NIXWMoQyhbQ0gzXSkoW0NIM10pW0NIM10pW2NIXVtjSF0z

> <s_epik_cmdline>
J2VwaWtfcHl0aG9uJywgJy1waCcsICc3LjAnLCAnLXRuJywgJzgnLCAnLW1hJywgJzIwMCcsICctbWV0YWxfYmluZGluZycsICctaW1hZScsICc8aW5maWxlLm1hZT4nLCAnLW9tYWUnLCAnPG91dGZpbGUubWFlPic=

> <r_lp_tautomer_probability>
1

> <r_epik_Ionization_Penalty>
4.92358e-06

> <r_epik_Ionization_Penalty_Charging>
1.29777e-07

> <r_epik_Ionization_Penalty_Neutral>
4.79381e-06

> <r_epik_State_Penalty>
-0

> <r_epik_Charging_Adjusted_Penalty>
1.29777e-07

> <i_epik_Tot_Q>
0

> <i_epik_Tot_abs_Q>
0

> <r_epik_Metal_State_Penalty>
-0

> <b_epik_Metal_Only>
0

> <s_epik_Chemistry_Notes>
This compound contains an acetal/aminal-like group ( X-CH(R)-Y where X, Y are N, S, or O) that may be acid/base labile, releasing an aldehyde.

> <s_lp_Force_Field>
OPLS_2005

> <r_lp_Energy>
42.5826

> <b_lp_Chiralities_Consistent>
1

> <s_lp_Variant>
AV-unprocessed.smi:284-1

> <Gold.Version>
5.8.1

> <Gold.Id.Protein>
6NUR|6NUR_protein|mol2

> <Gold.PLP.Fitness>
53.8608

> <Gold.PLP.PLP>
-45.2064

> <Gold.PLP.part.hbond>
-3.3918

> <Gold.PLP.part.metal>
0.0000

> <Gold.PLP.part.buried>
-5.4082

> <Gold.PLP.part.nonpolar>
-39.6582

> <Gold.PLP.part.repulsive>
2.3141

> <Gold.PLP.ligand.clash>
0.0000

> <Gold.PLP.ligand.torsion>
0.0793

> <Gold.PLP.Chemscore.Hbond>
2.9263

> <Gold.PLP.Chemscore.CHOScore>
0.0000

> <Gold.PLP.Chemscore.Metal>
0.0000

> <Gold.Chemscore.Hbonds>
donor molecule, donor type, donor heavy atom, donor atom, acceptor molecule, acceptor atom, score
      L1  H     8    40       P1  7921  1.00
      L1  H    11    44       P1 10747  0.49
      P1  H  7954  7966       L1    14  1.00

> <Gold.PLP.Chemscore.Internal.Correction>
0.0344

> <Gold.Rescore>
     Score         DG    S(hbond)    S(metal)    S(lipo)     H(rot)  DE(clash)    DE(int)     intcor
     16.34     -19.94       2.78        0.00     115.83       3.27       1.07       2.54       ----

> <Gold.Chemscore.Fitness>
16.3384

> <Gold.Chemscore.DG>
-19.9423

> <Gold.Chemscore.ZeroCoef>
-5.4800

> <Gold.Chemscore.Hbond>
2.7814

> <Gold.Chemscore.Metal>
0.0000

> <Gold.Chemscore.Lipo>
115.8339

> <Gold.Chemscore.Internal_Hbond>
0.0000

> <Gold.Chemscore.DEClash>
1.0664

> <Gold.Chemscore.DEInternal>
2.5375

> <Gold.Chemscore.Rot>
3.2735

> <Gold.Chemscore.Internal.Correction>
   9.000000E+99

> <Gold.Chemscore.Hbonds>
donor molecule, donor type, donor heavy atom, donor atom, acceptor molecule, acceptor atom, score
      L1  H     8    40       P1  7921  0.99
      L1  H    11    44       P1 10747  0.47
      P1  H  7954  7966       L1    14  0.99

> <Gold.Chemscore.Hbond.Weighted>
-9.2898

> <Gold.Chemscore.Metal.Weighted>
-0.0000

> <Gold.Chemscore.Lipo.Weighted>
-13.5526

> <Gold.Chemscore.Internal_Hbond.Weighted>
0.0000

> <Gold.Chemscore.DEClash.Weighted>
1.0664

> <Gold.Chemscore.DEInternal.Weighted>
2.5375

> <Gold.Chemscore.Rot.Weighted>
8.3801

> <Gold.Chemscore.Internal.Correction.Weighted>
   9.000000E+99

> <Gold.Protein.RotatedTorsions>
[ 6907 6896 6895 6894 ] final    4.65 input  -60.11 | X-H torsion
[ 7974 7965 7964 7962 ] final   23.19 input  175.53 | X-H torsion
[ 8008 7997 7996 7995 ] final  -75.47 input   59.86 | X-H torsion
[ 10167 10162 10161 10158 ] final  169.79 input  -65.29 | X-H torsion
[ 10718 10713 10712 10709 ] final   11.44 input   66.30 | X-H torsion
[ 10763 10752 10751 10750 ] final    5.61 input  -60.55 | X-H torsion
[ 11005 11000 10999 10996 ] final  136.37 input  -57.11 | X-H torsion

> <Gold.Protein.ActiveResidues>
 VAL166  LYS551  ARG553  GLY616  TRP617  ASP618  TYR619  PRO620  LYS621  CYS622 
 ASP623  PHE694  ASN695  SER759  ASP760  ASP761  ALA762  ILE779  LEU786  VAL792 
 PHE793  MET794  SER795  GLU796  ALA797  LYS798  CYS799  TRP800  GLU811  SER814 

> <Gold.Protein.RotatedAtoms>
  151.6447  135.1008  160.0148 H   0  0  0  0  0  0  0  0  0  0  0  0  # atno 6907 bound_to 6896
  152.4034  133.6848  159.6344 H   0  0  0  0  0  0  0  0  0  0  0  0  # atno 6908 bound_to 6896
  150.7932  133.8667  159.3288 H   0  0  0  0  0  0  0  0  0  0  0  0  # atno 6909 bound_to 6896
  146.1995  139.7779  142.8772 H   0  0  0  0  0  0  0  0  0  0  0  0  # atno 7974 bound_to 7965
  154.5419  140.0743  156.8525 H   0  0  0  0  0  0  0  0  0  0  0  0  # atno 8008 bound_to 7997
  155.3163  140.3393  155.4224 H   0  0  0  0  0  0  0  0  0  0  0  0  # atno 8009 bound_to 7997
  156.1883  140.1676  156.8129 H   0  0  0  0  0  0  0  0  0  0  0  0  # atno 8010 bound_to 7997
  139.5001  144.3667  151.9768 H   0  0  0  0  0  0  0  0  0  0  0  0  # atno 10167 bound_to 10162
  156.9956  130.6059  149.5690 H   0  0  0  0  0  0  0  0  0  0  0  0  # atno 10718 bound_to 10713
  153.2573  135.6920  153.7615 H   0  0  0  0  0  0  0  0  0  0  0  0  # atno 10763 bound_to 10752
  153.6687  135.3348  155.3148 H   0  0  0  0  0  0  0  0  0  0  0  0  # atno 10764 bound_to 10752
  154.8417  135.4494  154.1551 H   0  0  0  0  0  0  0  0  0  0  0  0  # atno 10765 bound_to 10752
  140.0042  134.9466  157.0138 H   0  0  0  0  0  0  0  0  0  0  0  0  # atno 11005 bound_to 11000
  145.3530  141.0311  143.3327 LP  0  0  0  0  0  0  0  0  0  0  0  0  # atno 17320 bound_to 7965
  144.8653  139.5117  143.6793 LP  0  0  0  0  0  0  0  0  0  0  0  0  # atno 17321 bound_to 7965
  140.3103  144.3545  150.6035 LP  0  0  0  0  0  0  0  0  0  0  0  0  # atno 17342 bound_to 10162
  140.5804  143.2173  151.7439 LP  0  0  0  0  0  0  0  0  0  0  0  0  # atno 17343 bound_to 10162
  156.0190  130.5285  150.8221 LP  0  0  0  0  0  0  0  0  0  0  0  0  # atno 17370 bound_to 10713
  157.5427  131.0941  150.9805 LP  0  0  0  0  0  0  0  0  0  0  0  0  # atno 17371 bound_to 10713
  140.4672  134.1423  155.7198 LP  0  0  0  0  0  0  0  0  0  0  0  0  # atno 17394 bound_to 11000
  141.1664  133.8694  157.1701 LP  0  0  0  0  0  0  0  0  0  0  0  0  # atno 17395 bound_to 11000

$$$$
