AV-unprocessed.smi:197|AV-procd|sdf|1546|dock4
  -GOLD-   2262019403D 1   1.00000     0.00000
 Structure written by MMmdl.
 54 57  0  0  0  0  0  0  0  0  1 V2000
  147.9065  136.3474  162.9185 C   0  0  0  0  0  0  0  0  0  0  0  0
  147.2240  135.9104  161.7537 O   0  0  0  0  0  0  0  0  0  0  0  0
  147.1238  134.4976  161.6264 C   0  0  0  0  0  0  0  0  0  0  0  0
  147.9170  133.9511  160.4236 C   0  0  0  0  0  0  0  0  0  0  0  0
  147.7303  132.4320  160.1669 C   0  0  2  0  0  0  0  0  0  0  0  0
  147.8502  131.6198  161.4783 C   0  0  0  0  0  0  0  0  0  0  0  0
  147.7059  130.2275  161.2199 O   0  0  0  0  0  0  0  0  0  0  0  0
  148.7185  129.7403  160.3498 C   0  0  0  0  0  0  0  0  0  0  0  0
  148.6067  130.4637  159.0014 C   0  0  0  0  0  0  0  0  0  0  0  0
  148.6971  131.9064  159.1936 N   0  0  0  0  0  0  0  0  0  0  0  0
  148.7709  132.5432  158.0032 C   0  0  0  0  0  0  0  0  0  0  0  0
  149.8718  133.3016  157.7799 N   0  0  0  0  0  0  0  0  0  0  0  0
  150.0008  133.9690  156.6295 C   0  0  0  0  0  0  0  0  0  0  0  0
  149.1627  134.0144  155.5918 N   0  0  0  0  0  0  0  0  0  0  0  0
  148.0574  133.2459  155.8112 C   0  0  0  0  0  0  0  0  0  0  0  0
  147.7862  132.4751  156.9764 C   0  0  0  0  0  0  0  0  0  0  0  0
  146.5741  131.8113  156.8331 N   0  0  0  0  0  0  0  0  0  0  0  0
  146.1443  132.1830  155.6587 C   0  0  0  0  0  0  0  0  0  0  0  0
  146.9676  133.0532  154.9801 N   0  0  0  0  0  0  0  0  0  0  0  0
  146.7277  133.6301  153.6662 C   0  0  0  0  0  0  0  0  0  0  0  0
  146.9527  132.6336  152.5021 C   0  0  2  0  0  0  0  0  0  0  0  0
  148.3039  132.2044  152.5374 O   0  0  0  0  0  0  0  0  0  0  0  0
  146.6916  133.2765  151.1352 C   0  0  0  0  0  0  0  0  0  0  0  0
  145.4481  132.5622  150.6181 C   0  0  0  0  0  0  0  0  0  0  0  0
  145.5765  131.2646  151.1696 O   0  0  0  0  0  0  0  0  0  0  0  0
  145.9750  131.4296  152.5222 C   0  0  1  0  0  0  0  0  0  0  0  0
  146.4991  130.1045  153.0994 C   0  0  0  0  0  0  0  0  0  0  0  0
  147.8679  137.4351  162.9741 H   0  0  0  0  0  0  0  0  0  0  0  0
  148.9560  136.0585  162.9029 H   0  0  0  0  0  0  0  0  0  0  0  0
  147.4455  135.9496  163.8231 H   0  0  0  0  0  0  0  0  0  0  0  0
  147.4524  134.0143  162.5477 H   0  0  0  0  0  0  0  0  0  0  0  0
  146.0694  134.2442  161.5216 H   0  0  0  0  0  0  0  0  0  0  0  0
  147.6304  134.5293  159.5460 H   0  0  0  0  0  0  0  0  0  0  0  0
  148.9764  134.1631  160.5717 H   0  0  0  0  0  0  0  0  0  0  0  0
  146.7295  132.2660  159.7691 H   0  0  0  0  0  0  0  0  0  0  0  0
  148.8058  131.8085  161.9701 H   0  0  0  0  0  0  0  0  0  0  0  0
  147.0689  131.9044  162.1818 H   0  0  0  0  0  0  0  0  0  0  0  0
  149.7039  129.8886  160.7942 H   0  0  0  0  0  0  0  0  0  0  0  0
  148.5858  128.6670  160.2142 H   0  0  0  0  0  0  0  0  0  0  0  0
  149.4002  130.1233  158.3342 H   0  0  0  0  0  0  0  0  0  0  0  0
  147.6567  130.2159  158.5256 H   0  0  0  0  0  0  0  0  0  0  0  0
  150.9032  134.5533  156.5271 H   0  0  0  0  0  0  0  0  0  0  0  0
  145.2040  131.8368  155.2550 H   0  0  0  0  0  0  0  0  0  0  0  0
  145.7064  134.0129  153.6403 H   0  0  0  0  0  0  0  0  0  0  0  0
  147.3792  134.4977  153.5526 H   0  0  0  0  0  0  0  0  0  0  0  0
  148.5087  131.7993  151.7085 H   0  0  0  0  0  0  0  0  0  0  0  0
  146.5501  134.3568  151.1832 H   0  0  0  0  0  0  0  0  0  0  0  0
  147.5181  133.0901  150.4473 H   0  0  0  0  0  0  0  0  0  0  0  0
  144.5394  133.0345  150.9949 H   0  0  0  0  0  0  0  0  0  0  0  0
  145.3981  132.5359  149.5293 H   0  0  0  0  0  0  0  0  0  0  0  0
  145.0726  131.7091  153.0671 H   0  0  0  0  0  0  0  0  0  0  0  0
  146.8097  130.2241  154.1366 H   0  0  0  0  0  0  0  0  0  0  0  0
  147.3483  129.7229  152.5324 H   0  0  0  0  0  0  0  0  0  0  0  0
  145.7211  129.3414  153.0761 H   0  0  0  0  0  0  0  0  0  0  0  0
  1  2  1  0  0  0  0
  1 28  1  0  0  0  0
  1 29  1  0  0  0  0
  1 30  1  0  0  0  0
  2  3  1  0  0  0  0
  3  4  1  0  0  0  0
  3 31  1  0  0  0  0
  3 32  1  0  0  0  0
  4  5  1  0  0  0  0
  4 33  1  0  0  0  0
  4 34  1  0  0  0  0
  5 10  1  0  0  0  0
  5  6  1  0  0  0  0
  5 35  1  0  0  0  0
  6  7  1  0  0  0  0
  6 36  1  0  0  0  0
  6 37  1  0  0  0  0
  7  8  1  0  0  0  0
  8  9  1  0  0  0  0
  8 38  1  0  0  0  0
  8 39  1  0  0  0  0
  9 10  1  0  0  0  0
  9 40  1  0  0  0  0
  9 41  1  0  0  0  0
 10 11  1  0  0  0  0
 11 16  1  0  0  0  0
 11 12  2  0  0  0  0
 12 13  1  0  0  0  0
 13 14  2  0  0  0  0
 13 42  1  0  0  0  0
 14 15  1  0  0  0  0
 15 19  1  0  0  0  0
 15 16  2  0  0  0  0
 16 17  1  0  0  0  0
 17 18  2  0  0  0  0
 18 19  1  0  0  0  0
 18 43  1  0  0  0  0
 19 20  1  0  0  0  0
 20 21  1  0  0  0  0
 20 44  1  0  0  0  0
 20 45  1  0  0  0  0
 21 26  1  0  0  0  0
 21 22  1  0  0  0  0
 21 23  1  0  0  0  0
 22 46  1  0  0  0  0
 23 24  1  0  0  0  0
 23 47  1  0  0  0  0
 23 48  1  0  0  0  0
 24 25  1  0  0  0  0
 24 49  1  0  0  0  0
 24 50  1  0  0  0  0
 25 26  1  0  0  0  0
 26 27  1  0  0  0  0
 26 51  1  0  0  0  0
 27 52  1  0  0  0  0
 27 53  1  0  0  0  0
 27 54  1  0  0  0  0
M  END
> <s_m_source_file>
AV-unprocessed.smi

> <i_m_source_file_index>
197

> <i_lp_mmshare_version>
43012

> <i_f3d_flags>
0

> <s_epik_input>
W0NIM11PW0NIMl1bQ0gyXVtDQEBIXTFbQ0gyXU9bQ0gyXVtDSDJdTjFjKG5bY0hdbjIpYyhjMjMpbltjSF1uM1tDSDJdW0NAQF00KFtPSF0pW0NIMl1bQ0gyXU9bQ0BIXTRbQ0gzXQ==

> <s_epik_cmdline>
J2VwaWtfcHl0aG9uJywgJy1waCcsICc3LjAnLCAnLXRuJywgJzgnLCAnLW1hJywgJzIwMCcsICctbWV0YWxfYmluZGluZycsICctaW1hZScsICc8aW5maWxlLm1hZT4nLCAnLW9tYWUnLCAnPG91dGZpbGUubWFlPic=

> <r_lp_tautomer_probability>
1

> <r_epik_Ionization_Penalty>
0.000106218

> <r_epik_Ionization_Penalty_Charging>
0

> <r_epik_Ionization_Penalty_Neutral>
0.000106218

> <r_epik_State_Penalty>
-0

> <r_epik_Charging_Adjusted_Penalty>
0

> <i_epik_Tot_Q>
0

> <i_epik_Tot_abs_Q>
0

> <r_epik_Metal_State_Penalty>
-0

> <b_epik_Metal_Only>
0

> <s_lp_Force_Field>
OPLS_2005

> <r_lp_Energy>
42.2513

> <b_lp_Chiralities_Consistent>
1

> <s_lp_Variant>
AV-unprocessed.smi:197-3

> <Gold.Version>
5.8.1

> <Gold.Id.Protein>
6NUR|6NUR_protein|mol2

> <Gold.PLP.Fitness>
39.7147

> <Gold.PLP.PLP>
-32.0265

> <Gold.PLP.part.hbond>
-2.0000

> <Gold.PLP.part.metal>
0.0000

> <Gold.PLP.part.buried>
-6.7716

> <Gold.PLP.part.nonpolar>
-24.1527

> <Gold.PLP.part.repulsive>
0.2077

> <Gold.PLP.ligand.clash>
0.0000

> <Gold.PLP.ligand.torsion>
0.7896

> <Gold.PLP.Chemscore.Hbond>
2.0000

> <Gold.PLP.Chemscore.CHOScore>
1.0000

> <Gold.PLP.Chemscore.Metal>
0.0000

> <Gold.Chemscore.Hbonds>
donor molecule, donor type, donor heavy atom, donor atom, acceptor molecule, acceptor atom, score
      L1  H    22    46       P1 10747  1.00
      P1  H  6896  6908       L1    12  1.00
      L1  C    18    43       P1 10957  0.97

> <Gold.PLP.Chemscore.Internal.Correction>
0.2674

> <Gold.Rescore>
     Score         DG    S(hbond)    S(metal)    S(lipo)     H(rot)  DE(clash)    DE(int)     intcor
     13.07     -13.80       1.94        0.00      77.76       2.84       0.01       0.72       ----

> <Gold.Chemscore.Fitness>
13.0720

> <Gold.Chemscore.DG>
-13.8036

> <Gold.Chemscore.ZeroCoef>
-5.4800

> <Gold.Chemscore.Hbond>
1.9416

> <Gold.Chemscore.Metal>
0.0000

> <Gold.Chemscore.Lipo>
77.7622

> <Gold.Chemscore.Internal_Hbond>
0.0000

> <Gold.Chemscore.DEClash>
0.0106

> <Gold.Chemscore.DEInternal>
0.7210

> <Gold.Chemscore.Rot>
2.8358

> <Gold.Chemscore.Internal.Correction>
   9.000000E+99

> <Gold.Chemscore.Hbonds>
donor molecule, donor type, donor heavy atom, donor atom, acceptor molecule, acceptor atom, score
      L1  H    22    46       P1 10747  1.00
      P1  H  6896  6908       L1    12  0.91

> <Gold.Chemscore.Hbond.Weighted>
-6.4850

> <Gold.Chemscore.Metal.Weighted>
-0.0000

> <Gold.Chemscore.Lipo.Weighted>
-9.0982

> <Gold.Chemscore.Internal_Hbond.Weighted>
0.0000

> <Gold.Chemscore.DEClash.Weighted>
0.0106

> <Gold.Chemscore.DEInternal.Weighted>
0.7210

> <Gold.Chemscore.Rot.Weighted>
7.2596

> <Gold.Chemscore.Internal.Correction.Weighted>
   9.000000E+99

> <Gold.Protein.RotatedTorsions>
[ 6907 6896 6895 6894 ] final   98.21 input  -60.11 | X-H torsion
[ 7974 7965 7964 7962 ] final   81.80 input  175.53 | X-H torsion
[ 8008 7997 7996 7995 ] final -174.36 input   59.86 | X-H torsion
[ 10167 10162 10161 10158 ] final  -50.60 input  -65.29 | X-H torsion
[ 10718 10713 10712 10709 ] final  170.81 input   66.30 | X-H torsion
[ 10763 10752 10751 10750 ] final  153.85 input  -60.55 | X-H torsion
[ 11005 11000 10999 10996 ] final  -32.91 input  -57.11 | X-H torsion

> <Gold.Protein.ActiveResidues>
 VAL166  LYS551  ARG553  GLY616  TRP617  ASP618  TYR619  PRO620  LYS621  CYS622 
 ASP623  PHE694  ASN695  SER759  ASP760  ASP761  ALA762  ILE779  LEU786  VAL792 
 PHE793  MET794  SER795  GLU796  ALA797  LYS798  CYS799  TRP800  GLU811  SER814 

> <Gold.Protein.RotatedAtoms>
  152.5412  134.0616  159.8154 H   0  0  0  0  0  0  0  0  0  0  0  0  # atno 6907 bound_to 6896
  151.0743  133.5433  159.2632 H   0  0  0  0  0  0  0  0  0  0  0  0  # atno 6908 bound_to 6896
  151.2285  135.0553  159.9032 H   0  0  0  0  0  0  0  0  0  0  0  0  # atno 6909 bound_to 6896
  145.6334  139.2409  143.2072 H   0  0  0  0  0  0  0  0  0  0  0  0  # atno 7974 bound_to 7965
  155.9691  140.1159  157.0828 H   0  0  0  0  0  0  0  0  0  0  0  0  # atno 8008 bound_to 7997
  154.4151  140.1167  156.5349 H   0  0  0  0  0  0  0  0  0  0  0  0  # atno 8009 bound_to 7997
  155.6620  140.3473  155.4788 H   0  0  0  0  0  0  0  0  0  0  0  0  # atno 8010 bound_to 7997
  140.6629  143.2651  151.4383 H   0  0  0  0  0  0  0  0  0  0  0  0  # atno 10167 bound_to 10162
  157.0027  131.0181  151.2826 H   0  0  0  0  0  0  0  0  0  0  0  0  # atno 10718 bound_to 10713
  154.1429  135.2819  155.3156 H   0  0  0  0  0  0  0  0  0  0  0  0  # atno 10763 bound_to 10752
  154.6274  135.5447  153.7645 H   0  0  0  0  0  0  0  0  0  0  0  0  # atno 10764 bound_to 10752
  153.0245  135.6454  154.1575 H   0  0  0  0  0  0  0  0  0  0  0  0  # atno 10765 bound_to 10752
  140.9592  133.7175  156.1341 H   0  0  0  0  0  0  0  0  0  0  0  0  # atno 11005 bound_to 11000
  146.1338  140.7149  142.9399 LP  0  0  0  0  0  0  0  0  0  0  0  0  # atno 17320 bound_to 7965
  144.7185  140.4292  143.7026 LP  0  0  0  0  0  0  0  0  0  0  0  0  # atno 17321 bound_to 7965
  139.5869  144.1585  152.2040 LP  0  0  0  0  0  0  0  0  0  0  0  0  # atno 17342 bound_to 10162
  140.0928  144.5606  150.7043 LP  0  0  0  0  0  0  0  0  0  0  0  0  # atno 17343 bound_to 10162
  157.5378  130.8100  149.7993 LP  0  0  0  0  0  0  0  0  0  0  0  0  # atno 17370 bound_to 10713
  156.0165  130.3811  150.2095 LP  0  0  0  0  0  0  0  0  0  0  0  0  # atno 17371 bound_to 10713
  140.7492  134.4063  157.5544 LP  0  0  0  0  0  0  0  0  0  0  0  0  # atno 17394 bound_to 11000
  139.8872  134.8888  156.2541 LP  0  0  0  0  0  0  0  0  0  0  0  0  # atno 17395 bound_to 11000

$$$$
