AV-unprocessed.smi:3118|AV-procd|sdf|11886|dock9
  -GOLD-   2272017273D 1   1.00000     0.00000
 Structure written by MMmdl.
 33 34  0  0  0  0  0  0  0  0  2 V2000
  149.2785  140.4121  157.3958 C   0  0  0  0  0  0  0  0  0  0  0  0
  149.9637  141.2621  156.3173 C   0  0  2  0  0  0  0  0  0  0  0  0
  151.2779  140.6068  155.8402 C   0  0  0  0  0  0  0  0  0  0  0  0
  151.0758  139.2713  155.2682 N   0  0  0  0  0  0  0  0  0  0  0  0
  151.6103  138.0894  155.7127 C   0  0  0  0  0  0  0  0  0  0  0  0
  151.1342  137.1081  154.8819 C   0  0  0  0  0  0  0  0  0  0  0  0
  150.3341  137.7326  153.9630 N   0  3  0  0  0  0  0  0  0  0  0  0
  150.3037  139.0486  154.1964 C   0  0  0  0  0  0  0  0  0  0  0  0
  150.2066  142.6004  156.8552 N   0  0  0  0  0  0  0  0  0  0  0  0
  150.9903  142.8950  157.9045 C   0  0  0  0  0  0  0  0  0  0  0  0
  151.6058  142.0439  158.5478 O   0  0  0  0  0  0  0  0  0  0  0  0
  151.0727  144.3784  158.2851 C   0  0  0  0  0  0  0  0  0  0  0  0
  152.4854  144.8853  158.6267 C   0  0  0  0  0  0  0  0  0  0  0  0
  151.8871  145.6127  159.8345 C   0  0  0  0  0  0  0  0  0  0  0  0
  150.6793  144.6756  159.7424 C   0  0  0  0  0  0  0  0  0  0  0  0
  149.0480  139.4144  157.0212 H   0  0  0  0  0  0  0  0  0  0  0  0
  148.3401  140.8658  157.7169 H   0  0  0  0  0  0  0  0  0  0  0  0
  149.9124  140.2982  158.2759 H   0  0  0  0  0  0  0  0  0  0  0  0
  149.2741  141.3251  155.4733 H   0  0  0  0  0  0  0  0  0  0  0  0
  151.7819  141.2329  155.1019 H   0  0  0  0  0  0  0  0  0  0  0  0
  151.9672  140.4914  156.6776 H   0  0  0  0  0  0  0  0  0  0  0  0
  152.2662  138.0348  156.5695 H   0  0  0  0  0  0  0  0  0  0  0  0
  151.2993  136.0405  154.8769 H   0  0  0  0  0  0  0  0  0  0  0  0
  149.7534  139.7838  153.6367 H   0  0  0  0  0  0  0  0  0  0  0  0
  149.7455  143.3665  156.3858 H   0  0  0  0  0  0  0  0  0  0  0  0
  150.5622  145.0386  157.5809 H   0  0  0  0  0  0  0  0  0  0  0  0
  153.1911  144.1039  158.9141 H   0  0  0  0  0  0  0  0  0  0  0  0
  152.9164  145.5514  157.8788 H   0  0  0  0  0  0  0  0  0  0  0  0
  152.4660  145.5210  160.7538 H   0  0  0  0  0  0  0  0  0  0  0  0
  151.6326  146.6512  159.6171 H   0  0  0  0  0  0  0  0  0  0  0  0
  149.7186  145.1787  159.8544 H   0  0  0  0  0  0  0  0  0  0  0  0
  150.7596  143.8174  160.4124 H   0  0  0  0  0  0  0  0  0  0  0  0
  149.8345  137.2675  153.2155 H   0  0  0  0  0  0  0  0  0  0  0  0
  1  2  1  0  0  0  0
  1 16  1  0  0  0  0
  1 17  1  0  0  0  0
  1 18  1  0  0  0  0
  2  3  1  0  0  0  0
  2  9  1  0  0  0  0
  2 19  1  0  0  0  0
  3  4  1  0  0  0  0
  3 20  1  0  0  0  0
  3 21  1  0  0  0  0
  4  8  1  0  0  0  0
  4  5  1  0  0  0  0
  5  6  2  0  0  0  0
  5 22  1  0  0  0  0
  6  7  1  0  0  0  0
  6 23  1  0  0  0  0
  7  8  2  0  0  0  0
  7 33  1  0  0  0  0
  8 24  1  0  0  0  0
  9 10  1  0  0  0  0
  9 25  1  0  0  0  0
 10 11  2  0  0  0  0
 10 12  1  0  0  0  0
 12 15  1  0  0  0  0
 12 13  1  0  0  0  0
 12 26  1  0  0  0  0
 13 14  1  0  0  0  0
 13 27  1  0  0  0  0
 13 28  1  0  0  0  0
 14 15  1  0  0  0  0
 14 29  1  0  0  0  0
 14 30  1  0  0  0  0
 15 31  1  0  0  0  0
 15 32  1  0  0  0  0
M  CHG  1   7   1
M  END
> <s_m_source_file>
AV-unprocessed.smi

> <i_m_source_file_index>
3118

> <i_lp_mmshare_version>
43012

> <i_f3d_flags>
0

> <s_epik_input>
W0NIMl0xW0NIMl1bQ0gyXVtDSF0xQyg9TylbTkhdW0NASF0oW0NIM10pW0NIMl1uMltjSF1bY0hdbltjSF0y

> <s_epik_cmdline>
J2VwaWtfcHl0aG9uJywgJy1waCcsICc3LjAnLCAnLXRuJywgJzgnLCAnLW1hJywgJzIwMCcsICctbWV0YWxfYmluZGluZycsICctaW1hZScsICc8aW5maWxlLm1hZT4nLCAnLW9tYWUnLCAnPG91dGZpbGUubWFlPic=

> <r_lp_tautomer_probability>
1

> <r_epik_Ionization_Penalty>
0.244425

> <r_epik_Ionization_Penalty_Charging>
0

> <r_epik_Ionization_Penalty_Neutral>
0.244425

> <r_epik_State_Penalty>
0.23553

> <r_epik_Charging_Adjusted_Penalty>
0.23553

> <i_epik_Tot_Q>
1

> <i_epik_Tot_abs_Q>
1

> <r_epik_Metal_State_Penalty>
0.5288

> <b_epik_Metal_Only>
0

> <s_lp_Force_Field>
OPLS_2005

> <r_lp_Energy>
13.9066

> <b_lp_Chiralities_Consistent>
1

> <s_lp_Variant>
AV-unprocessed.smi:3118-1

> <Gold.Version>
5.8.1

> <Gold.Id.Protein>
6NUR|6NUR_protein|mol2

> <Gold.PLP.Fitness>
48.2808

> <Gold.PLP.PLP>
-36.6104

> <Gold.PLP.part.hbond>
-2.8889

> <Gold.PLP.part.metal>
0.0000

> <Gold.PLP.part.buried>
-3.1541

> <Gold.PLP.part.nonpolar>
-30.6217

> <Gold.PLP.part.repulsive>
0.1177

> <Gold.PLP.ligand.clash>
0.0000

> <Gold.PLP.ligand.torsion>
0.2416

> <Gold.PLP.Chemscore.Hbond>
3.0000

> <Gold.PLP.Chemscore.CHOScore>
0.9143

> <Gold.PLP.Chemscore.Metal>
0.0000

> <Gold.Chemscore.Hbonds>
donor molecule, donor type, donor heavy atom, donor atom, acceptor molecule, acceptor atom, score
      L1  H     7    33       P1  7948  2.00
      L1  H     9    25       P1  8028  1.00
      L1  C     8    24       P1  7957  0.95

> <Gold.PLP.Chemscore.Internal.Correction>
0.4107

> <Gold.Rescore>
     Score         DG    S(hbond)    S(metal)    S(lipo)     H(rot)  DE(clash)    DE(int)     intcor
     15.14     -16.27       1.90        0.00      78.60       1.86       0.08       1.05       ----

> <Gold.Chemscore.Fitness>
15.1377

> <Gold.Chemscore.DG>
-16.2719

> <Gold.Chemscore.ZeroCoef>
-5.4800

> <Gold.Chemscore.Hbond>
1.9004

> <Gold.Chemscore.Metal>
0.0000

> <Gold.Chemscore.Lipo>
78.6002

> <Gold.Chemscore.Internal_Hbond>
0.0000

> <Gold.Chemscore.DEClash>
0.0812

> <Gold.Chemscore.DEInternal>
1.0530

> <Gold.Chemscore.Rot>
1.8561

> <Gold.Chemscore.Internal.Correction>
   9.000000E+99

> <Gold.Chemscore.Hbonds>
donor molecule, donor type, donor heavy atom, donor atom, acceptor molecule, acceptor atom, score
      L1  H     7    33       P1  7948  0.45
      L1  H     9    25       P1  8028  1.00

> <Gold.Chemscore.Hbond.Weighted>
-6.3473

> <Gold.Chemscore.Metal.Weighted>
-0.0000

> <Gold.Chemscore.Lipo.Weighted>
-9.1962

> <Gold.Chemscore.Internal_Hbond.Weighted>
0.0000

> <Gold.Chemscore.DEClash.Weighted>
0.0812

> <Gold.Chemscore.DEInternal.Weighted>
1.0530

> <Gold.Chemscore.Rot.Weighted>
4.7516

> <Gold.Chemscore.Internal.Correction.Weighted>
   9.000000E+99

> <Gold.Protein.RotatedTorsions>
[ 6907 6896 6895 6894 ] final -148.27 input  -60.11 | X-H torsion
[ 7974 7965 7964 7962 ] final -133.29 input  175.53 | X-H torsion
[ 8008 7997 7996 7995 ] final   29.96 input   59.86 | X-H torsion
[ 10167 10162 10161 10158 ] final  161.41 input  -65.29 | X-H torsion
[ 10718 10713 10712 10709 ] final   12.56 input   66.30 | X-H torsion
[ 10763 10752 10751 10750 ] final  150.10 input  -60.55 | X-H torsion
[ 11005 11000 10999 10996 ] final  -46.77 input  -57.11 | X-H torsion

> <Gold.Protein.ActiveResidues>
 VAL166  LYS551  ARG553  GLY616  TRP617  ASP618  TYR619  PRO620  LYS621  CYS622 
 ASP623  PHE694  ASN695  SER759  ASP760  ASP761  ALA762  ILE779  LEU786  VAL792 
 PHE793  MET794  SER795  GLU796  ALA797  LYS798  CYS799  TRP800  GLU811  SER814 

> <Gold.Protein.RotatedAtoms>
  151.1674  133.4806  159.2593 H   0  0  0  0  0  0  0  0  0  0  0  0  # atno 6907 bound_to 6896
  151.1391  135.0170  159.8627 H   0  0  0  0  0  0  0  0  0  0  0  0  # atno 6908 bound_to 6896
  152.5462  134.1570  159.8595 H   0  0  0  0  0  0  0  0  0  0  0  0  # atno 6909 bound_to 6896
  144.9207  140.7010  143.4967 H   0  0  0  0  0  0  0  0  0  0  0  0  # atno 7974 bound_to 7965
  155.0828  140.3212  155.4596 H   0  0  0  0  0  0  0  0  0  0  0  0  # atno 8008 bound_to 7997
  156.2763  140.2092  156.5901 H   0  0  0  0  0  0  0  0  0  0  0  0  # atno 8009 bound_to 7997
  154.6965  140.0511  157.0403 H   0  0  0  0  0  0  0  0  0  0  0  0  # atno 8010 bound_to 7997
  139.4849  144.4539  151.8794 H   0  0  0  0  0  0  0  0  0  0  0  0  # atno 10167 bound_to 10162
  157.0119  130.6120  149.5709 H   0  0  0  0  0  0  0  0  0  0  0  0  # atno 10718 bound_to 10713
  154.0820  135.2859  155.3288 H   0  0  0  0  0  0  0  0  0  0  0  0  # atno 10763 bound_to 10752
  154.6677  135.5311  153.8102 H   0  0  0  0  0  0  0  0  0  0  0  0  # atno 10764 bound_to 10752
  153.0445  135.6550  154.0994 H   0  0  0  0  0  0  0  0  0  0  0  0  # atno 10765 bound_to 10752
  141.0599  133.6712  156.3202 H   0  0  0  0  0  0  0  0  0  0  0  0  # atno 11005 bound_to 11000
  145.3301  139.1762  143.4541 LP  0  0  0  0  0  0  0  0  0  0  0  0  # atno 17320 bound_to 7965
  146.3203  140.3329  142.8642 LP  0  0  0  0  0  0  0  0  0  0  0  0  # atno 17321 bound_to 7965
  140.3997  144.2509  150.5894 LP  0  0  0  0  0  0  0  0  0  0  0  0  # atno 17342 bound_to 10162
  140.5069  143.2302  151.8595 LP  0  0  0  0  0  0  0  0  0  0  0  0  # atno 17343 bound_to 10162
  156.0133  130.5226  150.8056 LP  0  0  0  0  0  0  0  0  0  0  0  0  # atno 17370 bound_to 10713
  157.5314  131.0937  150.9950 LP  0  0  0  0  0  0  0  0  0  0  0  0  # atno 17371 bound_to 10713
  140.5889  134.5671  157.5495 LP  0  0  0  0  0  0  0  0  0  0  0  0  # atno 17394 bound_to 11000
  139.9423  134.7764  156.0647 LP  0  0  0  0  0  0  0  0  0  0  0  0  # atno 17395 bound_to 11000

$$$$
