AV-unprocessed.smi:573|AV-procd|sdf|2974|dock1
  -GOLD-   2262023483D 1   1.00000     0.00000
 Structure written by MMmdl.
 44 46  0  0  0  0  0  0  0  0  1 V2000
  148.2711  140.2633  153.3918 C   0  0  0  0  0  0  0  0  0  0  0  0
  149.3161  139.5332  154.2454 C   0  0  1  0  0  0  0  0  0  0  0  0
  149.7237  138.3906  153.5225 O   0  0  0  0  0  0  0  0  0  0  0  0
  150.5451  140.4164  154.5241 C   0  0  0  0  0  0  0  0  0  0  0  0
  150.9687  140.3521  155.9117 N   0  0  0  0  0  0  0  0  0  0  0  0
  151.2879  141.3331  156.8433 C   0  0  0  0  0  0  0  0  0  0  0  0
  151.2534  142.6401  156.5911 N   0  0  0  0  0  0  0  0  0  0  0  0
  151.6358  143.1831  157.8034 C   0  0  0  0  0  0  0  0  0  0  0  0
  151.7960  144.5317  158.1945 C   0  0  0  0  0  0  0  0  0  0  0  0
  152.1973  144.8512  159.5083 C   0  0  0  0  0  0  0  0  0  0  0  0
  152.4424  143.8294  160.4484 C   0  0  0  0  0  0  0  0  0  0  0  0
  152.2911  142.4788  160.0797 C   0  0  0  0  0  0  0  0  0  0  0  0
  151.8933  142.1642  158.7665 C   0  0  0  0  0  0  0  0  0  0  0  0
  151.6590  140.9687  158.0933 N   0  0  0  0  0  0  0  0  0  0  0  0
  151.7856  139.6245  158.6391 C   0  0  0  0  0  0  0  0  0  0  0  0
  152.8483  139.5502  159.7475 C   0  0  1  0  0  0  0  0  0  0  0  0
  153.0389  138.1121  160.2656 C   0  0  0  0  0  0  0  0  0  0  0  0
  154.1559  138.0603  161.3139 C   0  0  0  0  0  0  0  0  0  0  0  0
  155.4273  138.6989  160.7449 C   0  0  0  0  0  0  0  0  0  0  0  0
  155.1226  140.1042  160.2029 C   0  0  0  0  0  0  0  0  0  0  0  0
  154.0862  140.0344  159.2288 O   0  0  0  0  0  0  0  0  0  0  0  0
  147.9020  141.1537  153.9014 H   0  0  0  0  0  0  0  0  0  0  0  0
  147.4125  139.6227  153.1873 H   0  0  0  0  0  0  0  0  0  0  0  0
  148.6883  140.5780  152.4345 H   0  0  0  0  0  0  0  0  0  0  0  0
  148.8515  139.2203  155.1816 H   0  0  0  0  0  0  0  0  0  0  0  0
  149.8343  138.6361  152.6159 H   0  0  0  0  0  0  0  0  0  0  0  0
  151.3744  140.1606  153.8634 H   0  0  0  0  0  0  0  0  0  0  0  0
  150.2976  141.4591  154.3233 H   0  0  0  0  0  0  0  0  0  0  0  0
  151.0563  139.4080  156.2586 H   0  0  0  0  0  0  0  0  0  0  0  0
  151.6085  145.3218  157.4826 H   0  0  0  0  0  0  0  0  0  0  0  0
  152.3160  145.8854  159.7964 H   0  0  0  0  0  0  0  0  0  0  0  0
  152.7464  144.0830  161.4535 H   0  0  0  0  0  0  0  0  0  0  0  0
  152.4753  141.6940  160.7984 H   0  0  0  0  0  0  0  0  0  0  0  0
  150.8147  139.3006  159.0150 H   0  0  0  0  0  0  0  0  0  0  0  0
  152.0401  138.9425  157.8270 H   0  0  0  0  0  0  0  0  0  0  0  0
  152.5374  140.1922  160.5739 H   0  0  0  0  0  0  0  0  0  0  0  0
  152.1091  137.7375  160.6945 H   0  0  0  0  0  0  0  0  0  0  0  0
  153.2892  137.4515  159.4345 H   0  0  0  0  0  0  0  0  0  0  0  0
  153.8440  138.5976  162.2105 H   0  0  0  0  0  0  0  0  0  0  0  0
  154.3480  137.0303  161.6154 H   0  0  0  0  0  0  0  0  0  0  0  0
  156.2014  138.7483  161.5112 H   0  0  0  0  0  0  0  0  0  0  0  0
  155.8216  138.0766  159.9406 H   0  0  0  0  0  0  0  0  0  0  0  0
  154.8329  140.7790  161.0100 H   0  0  0  0  0  0  0  0  0  0  0  0
  156.0132  140.5276  159.7387 H   0  0  0  0  0  0  0  0  0  0  0  0
  1  2  1  0  0  0  0
  1 22  1  0  0  0  0
  1 23  1  0  0  0  0
  1 24  1  0  0  0  0
  2  3  1  0  0  0  0
  2  4  1  0  0  0  0
  2 25  1  0  0  0  0
  3 26  1  0  0  0  0
  4  5  1  0  0  0  0
  4 27  1  0  0  0  0
  4 28  1  0  0  0  0
  5  6  1  0  0  0  0
  5 29  1  0  0  0  0
  6 14  1  0  0  0  0
  6  7  2  0  0  0  0
  7  8  1  0  0  0  0
  8 13  2  0  0  0  0
  8  9  1  0  0  0  0
  9 10  2  0  0  0  0
  9 30  1  0  0  0  0
 10 11  1  0  0  0  0
 10 31  1  0  0  0  0
 11 12  2  0  0  0  0
 11 32  1  0  0  0  0
 12 13  1  0  0  0  0
 12 33  1  0  0  0  0
 13 14  1  0  0  0  0
 14 15  1  0  0  0  0
 15 16  1  0  0  0  0
 15 34  1  0  0  0  0
 15 35  1  0  0  0  0
 16 21  1  0  0  0  0
 16 17  1  0  0  0  0
 16 36  1  0  0  0  0
 17 18  1  0  0  0  0
 17 37  1  0  0  0  0
 17 38  1  0  0  0  0
 18 19  1  0  0  0  0
 18 39  1  0  0  0  0
 18 40  1  0  0  0  0
 19 20  1  0  0  0  0
 19 41  1  0  0  0  0
 19 42  1  0  0  0  0
 20 21  1  0  0  0  0
 20 43  1  0  0  0  0
 20 44  1  0  0  0  0
M  END
> <s_m_source_file>
AV-unprocessed.smi

> <i_m_source_file_index>
573

> <i_lp_mmshare_version>
43012

> <i_f3d_flags>
0

> <s_epik_input>
W0NIM11bQ0BIXShbT0hdKVtDSDJdW05IXWMobjEpbihjKGMxMilbY0hdW2NIXVtjSF1bY0hdMilbQ0gyXVtDQEBIXTNbQ0gyXVtDSDJdW0NIMl1bQ0gyXU8z

> <s_epik_cmdline>
J2VwaWtfcHl0aG9uJywgJy1waCcsICc3LjAnLCAnLXRuJywgJzgnLCAnLW1hJywgJzIwMCcsICctbWV0YWxfYmluZGluZycsICctaW1hZScsICc8aW5maWxlLm1hZT4nLCAnLW9tYWUnLCAnPG91dGZpbGUubWFlPic=

> <r_epik_Ionization_Penalty>
1.30635

> <r_epik_Ionization_Penalty_Charging>
0

> <r_epik_Ionization_Penalty_Neutral>
1.30635

> <r_epik_State_Penalty>
1.38073

> <r_epik_Charging_Adjusted_Penalty>
1.38073

> <i_epik_Tot_Q>
0

> <i_epik_Tot_abs_Q>
0

> <r_epik_Metal_State_Penalty>
0.00547412

> <b_epik_Metal_Only>
0

> <s_lp_Force_Field>
OPLS_2005

> <r_lp_Energy>
9.01344

> <b_lp_Chiralities_Consistent>
1

> <s_lp_Variant>
AV-unprocessed.smi:573-8

> <Gold.Version>
5.8.1

> <Gold.Id.Protein>
6NUR|6NUR_protein|mol2

> <Gold.PLP.Fitness>
46.7141

> <Gold.PLP.PLP>
-42.8748

> <Gold.PLP.part.hbond>
-3.0000

> <Gold.PLP.part.metal>
0.0000

> <Gold.PLP.part.buried>
-2.6306

> <Gold.PLP.part.nonpolar>
-38.3368

> <Gold.PLP.part.repulsive>
1.1937

> <Gold.PLP.ligand.clash>
0.0153

> <Gold.PLP.ligand.torsion>
1.0883

> <Gold.PLP.Chemscore.Hbond>
2.0000

> <Gold.PLP.Chemscore.CHOScore>
0.0000

> <Gold.PLP.Chemscore.Metal>
0.0000

> <Gold.Chemscore.Hbonds>
donor molecule, donor type, donor heavy atom, donor atom, acceptor molecule, acceptor atom, score
      L1  H     3    26       P1  7957  0.99
      P1  H  7997  8008       L1    21  0.71

> <Gold.PLP.Chemscore.Internal.Correction>
0.0311

> <Gold.Rescore>
     Score         DG    S(hbond)    S(metal)    S(lipo)     H(rot)  DE(clash)    DE(int)     intcor
     17.04     -20.00       1.53        0.00     124.76       2.02       0.70       2.26       ----

> <Gold.Chemscore.Fitness>
17.0415

> <Gold.Chemscore.DG>
-20.0034

> <Gold.Chemscore.ZeroCoef>
-5.4800

> <Gold.Chemscore.Hbond>
1.5282

> <Gold.Chemscore.Metal>
0.0000

> <Gold.Chemscore.Lipo>
124.7558

> <Gold.Chemscore.Internal_Hbond>
0.0000

> <Gold.Chemscore.DEClash>
0.7040

> <Gold.Chemscore.DEInternal>
2.2579

> <Gold.Chemscore.Rot>
2.0224

> <Gold.Chemscore.Internal.Correction>
   9.000000E+99

> <Gold.Chemscore.Hbonds>
donor molecule, donor type, donor heavy atom, donor atom, acceptor molecule, acceptor atom, score
      L1  H     3    26       P1  7957  0.45
      P1  H  7997  8008       L1    21  0.58

> <Gold.Chemscore.Hbond.Weighted>
-5.1043

> <Gold.Chemscore.Metal.Weighted>
-0.0000

> <Gold.Chemscore.Lipo.Weighted>
-14.5964

> <Gold.Chemscore.Internal_Hbond.Weighted>
0.0000

> <Gold.Chemscore.DEClash.Weighted>
0.7040

> <Gold.Chemscore.DEInternal.Weighted>
2.2579

> <Gold.Chemscore.Rot.Weighted>
5.1773

> <Gold.Chemscore.Internal.Correction.Weighted>
   9.000000E+99

> <Gold.Protein.RotatedTorsions>
[ 6907 6896 6895 6894 ] final  -42.09 input  -60.11 | X-H torsion
[ 7974 7965 7964 7962 ] final   26.82 input  175.53 | X-H torsion
[ 8008 7997 7996 7995 ] final -100.78 input   59.86 | X-H torsion
[ 10167 10162 10161 10158 ] final   98.66 input  -65.29 | X-H torsion
[ 10718 10713 10712 10709 ] final -110.12 input   66.30 | X-H torsion
[ 10763 10752 10751 10750 ] final  -57.50 input  -60.55 | X-H torsion
[ 11005 11000 10999 10996 ] final -165.94 input  -57.11 | X-H torsion

> <Gold.Protein.ActiveResidues>
 VAL166  LYS551  ARG553  GLY616  TRP617  ASP618  TYR619  PRO620  LYS621  CYS622 
 ASP623  PHE694  ASN695  SER759  ASP760  ASP761  ALA762  ILE779  LEU786  VAL792 
 PHE793  MET794  SER795  GLU796  ALA797  LYS798  CYS799  TRP800  GLU811  SER814 

> <Gold.Protein.RotatedAtoms>
  150.9592  134.8982  159.7719 H   0  0  0  0  0  0  0  0  0  0  0  0  # atno 6907 bound_to 6896
  152.5150  134.3696  159.9323 H   0  0  0  0  0  0  0  0  0  0  0  0  # atno 6908 bound_to 6896
  151.3709  133.3815  159.2734 H   0  0  0  0  0  0  0  0  0  0  0  0  # atno 6909 bound_to 6896
  146.1817  139.7276  142.8895 H   0  0  0  0  0  0  0  0  0  0  0  0  # atno 7974 bound_to 7965
  154.8334  140.0438  157.1492 H   0  0  0  0  0  0  0  0  0  0  0  0  # atno 8008 bound_to 7997
  154.9127  140.3016  155.5237 H   0  0  0  0  0  0  0  0  0  0  0  0  # atno 8009 bound_to 7997
  156.2988  140.2355  156.4168 H   0  0  0  0  0  0  0  0  0  0  0  0  # atno 8010 bound_to 7997
  139.7689  144.6929  151.0185 H   0  0  0  0  0  0  0  0  0  0  0  0  # atno 10167 bound_to 10162
  156.0573  130.5799  150.8193 H   0  0  0  0  0  0  0  0  0  0  0  0  # atno 10718 bound_to 10713
  154.2234  135.6373  153.5152 H   0  0  0  0  0  0  0  0  0  0  0  0  # atno 10763 bound_to 10752
  152.9964  135.5502  154.6089 H   0  0  0  0  0  0  0  0  0  0  0  0  # atno 10764 bound_to 10752
  154.5555  135.2905  155.0942 H   0  0  0  0  0  0  0  0  0  0  0  0  # atno 10765 bound_to 10752
  140.5700  134.5247  157.5160 H   0  0  0  0  0  0  0  0  0  0  0  0  # atno 11005 bound_to 11000
  145.4056  141.0390  143.3046 LP  0  0  0  0  0  0  0  0  0  0  0  0  # atno 17320 bound_to 7965
  144.8327  139.5602  143.6936 LP  0  0  0  0  0  0  0  0  0  0  0  0  # atno 17321 bound_to 7965
  140.7812  143.4611  151.0276 LP  0  0  0  0  0  0  0  0  0  0  0  0  # atno 17342 bound_to 10162
  139.8296  143.7709  152.3179 LP  0  0  0  0  0  0  0  0  0  0  0  0  # atno 17343 bound_to 10162
  157.5554  131.0945  150.9636 LP  0  0  0  0  0  0  0  0  0  0  0  0  # atno 17370 bound_to 10713
  156.9886  130.5554  149.5301 LP  0  0  0  0  0  0  0  0  0  0  0  0  # atno 17371 bound_to 10713
  139.9366  134.7864  156.0787 LP  0  0  0  0  0  0  0  0  0  0  0  0  # atno 17394 bound_to 11000
  141.1062  133.6659  156.2869 LP  0  0  0  0  0  0  0  0  0  0  0  0  # atno 17395 bound_to 11000

$$$$
