AV-unprocessed.smi:2923|AV-procd|sdf|11205|dock8
  -GOLD-   2272016 93D 1   1.00000     0.00000
 Structure written by MMmdl.
 47 49  0  0  0  0  0  0  0  0  2 V2000
  142.8874  132.6866  151.2192 C   0  0  0  0  0  0  0  0  0  0  0  0
  144.1556  133.2642  150.7887 N   0  0  0  0  0  0  0  0  0  0  0  0
  145.1130  132.4606  150.0400 C   0  0  0  0  0  0  0  0  0  0  0  0
  144.4880  134.5841  151.1636 C   0  0  0  0  0  0  0  0  0  0  0  0
  145.7006  135.2143  150.7919 C   0  0  0  0  0  0  0  0  0  0  0  0
  145.9607  136.5356  151.2093 C   0  0  0  0  0  0  0  0  0  0  0  0
  145.0166  137.2234  151.9997 C   0  0  0  0  0  0  0  0  0  0  0  0
  145.3299  138.5549  152.3885 N   0  0  0  0  0  0  0  0  0  0  0  0
  146.5151  139.0726  152.7551 C   0  0  0  0  0  0  0  0  0  0  0  0
  147.5784  138.4559  152.8107 O   0  0  0  0  0  0  0  0  0  0  0  0
  146.4015  140.3729  153.0560 N   0  0  0  0  0  0  0  0  0  0  0  0
  147.5055  141.2245  153.5021 C   0  0  1  0  0  0  0  0  0  0  0  0
  147.0294  142.5821  154.0661 C   0  0  1  0  0  0  0  0  0  0  0  0
  145.6084  143.0747  153.9351 C   0  0  0  0  0  0  0  0  0  0  0  0
  144.9908  142.6893  155.2824 C   0  0  0  0  0  0  0  0  0  0  0  0
  145.8322  141.6541  155.7860 O   0  0  0  0  0  0  0  0  0  0  0  0
  147.1789  141.9879  155.4570 C   0  0  1  0  0  0  0  0  0  0  0  0
  148.0518  140.8421  154.9045 C   0  0  0  0  0  0  0  0  0  0  0  0
  147.7619  139.4421  155.4633 C   0  0  0  0  0  0  0  0  0  0  0  0
  149.5577  141.0662  155.0706 C   0  0  0  0  0  0  0  0  0  0  0  0
  143.8150  136.5547  152.3354 C   0  0  0  0  0  0  0  0  0  0  0  0
  143.6064  135.2888  151.9137 N   0  3  0  0  0  0  0  0  0  0  0  0
  142.0504  133.2486  150.8037 H   0  0  0  0  0  0  0  0  0  0  0  0
  142.8088  132.7000  152.3068 H   0  0  0  0  0  0  0  0  0  0  0  0
  142.7905  131.6516  150.8915 H   0  0  0  0  0  0  0  0  0  0  0  0
  146.0325  132.3299  150.6112 H   0  0  0  0  0  0  0  0  0  0  0  0
  145.3556  132.9386  149.0905 H   0  0  0  0  0  0  0  0  0  0  0  0
  144.7135  131.4704  149.8199 H   0  0  0  0  0  0  0  0  0  0  0  0
  146.4399  134.7055  150.1919 H   0  0  0  0  0  0  0  0  0  0  0  0
  146.8863  137.0142  150.9242 H   0  0  0  0  0  0  0  0  0  0  0  0
  144.5598  139.2066  152.3533 H   0  0  0  0  0  0  0  0  0  0  0  0
  145.4919  140.8060  152.9904 H   0  0  0  0  0  0  0  0  0  0  0  0
  148.2915  141.3497  152.7547 H   0  0  0  0  0  0  0  0  0  0  0  0
  147.7783  143.3562  153.8915 H   0  0  0  0  0  0  0  0  0  0  0  0
  145.5586  144.1521  153.7758 H   0  0  0  0  0  0  0  0  0  0  0  0
  145.0821  142.6008  153.1070 H   0  0  0  0  0  0  0  0  0  0  0  0
  145.0188  143.5345  155.9716 H   0  0  0  0  0  0  0  0  0  0  0  0
  143.9566  142.3560  155.1921 H   0  0  0  0  0  0  0  0  0  0  0  0
  147.6548  142.6534  156.1787 H   0  0  0  0  0  0  0  0  0  0  0  0
  148.0950  139.3483  156.4973 H   0  0  0  0  0  0  0  0  0  0  0  0
  148.2670  138.6686  154.8839 H   0  0  0  0  0  0  0  0  0  0  0  0
  146.6975  139.2072  155.4559 H   0  0  0  0  0  0  0  0  0  0  0  0
  149.8589  141.0116  156.1172 H   0  0  0  0  0  0  0  0  0  0  0  0
  149.8629  142.0452  154.7001 H   0  0  0  0  0  0  0  0  0  0  0  0
  150.1344  140.3212  154.5213 H   0  0  0  0  0  0  0  0  0  0  0  0
  143.0055  136.9718  152.9143 H   0  0  0  0  0  0  0  0  0  0  0  0
  142.7302  134.8371  152.1758 H   0  0  0  0  0  0  0  0  0  0  0  0
  1  2  1  0  0  0  0
  1 23  1  0  0  0  0
  1 24  1  0  0  0  0
  1 25  1  0  0  0  0
  2  3  1  0  0  0  0
  2  4  1  0  0  0  0
  3 26  1  0  0  0  0
  3 27  1  0  0  0  0
  3 28  1  0  0  0  0
  4 22  1  0  0  0  0
  4  5  2  0  0  0  0
  5  6  1  0  0  0  0
  5 29  1  0  0  0  0
  6  7  2  0  0  0  0
  6 30  1  0  0  0  0
  7  8  1  0  0  0  0
  7 21  1  0  0  0  0
  8  9  1  0  0  0  0
  8 31  1  0  0  0  0
  9 10  2  0  0  0  0
  9 11  1  0  0  0  0
 11 12  1  0  0  0  0
 11 32  1  0  0  0  0
 12 18  1  0  0  0  0
 12 13  1  0  0  0  0
 12 33  1  0  0  0  0
 13 17  1  0  0  0  0
 13 14  1  0  0  0  0
 13 34  1  0  0  0  0
 14 15  1  0  0  0  0
 14 35  1  0  0  0  0
 14 36  1  0  0  0  0
 15 16  1  0  0  0  0
 15 37  1  0  0  0  0
 15 38  1  0  0  0  0
 16 17  1  0  0  0  0
 17 18  1  0  0  0  0
 17 39  1  0  0  0  0
 18 19  1  0  0  0  0
 18 20  1  0  0  0  0
 19 40  1  0  0  0  0
 19 41  1  0  0  0  0
 19 42  1  0  0  0  0
 20 43  1  0  0  0  0
 20 44  1  0  0  0  0
 20 45  1  0  0  0  0
 21 22  2  0  0  0  0
 21 46  1  0  0  0  0
 22 47  1  0  0  0  0
M  CHG  1  22   1
M  END
> <s_m_source_file>
AV-unprocessed.smi

> <i_m_source_file_index>
2923

> <i_lp_mmshare_version>
43012

> <i_f3d_flags>
0

> <s_epik_input>
W0NIM11OKFtDSDNdKWMxW2NIXVtjSF1jKFtjSF1uMSlbTkhdQyg9TylbTkhdW0NASF0yQyhbQ0gzXSkoW0NIM10pW0NAQEhdKFtDQEhdMjMpT1tDSDJdW0NIMl0z

> <s_epik_cmdline>
J2VwaWtfcHl0aG9uJywgJy1waCcsICc3LjAnLCAnLXRuJywgJzgnLCAnLW1hJywgJzIwMCcsICctbWV0YWxfYmluZGluZycsICctaW1hZScsICc8aW5maWxlLm1hZT4nLCAnLW9tYWUnLCAnPG91dGZpbGUubWFlPic=

> <r_lp_tautomer_probability>
0.999994

> <r_epik_Ionization_Penalty>
0.252205

> <r_epik_Ionization_Penalty_Charging>
0.252185

> <r_epik_Ionization_Penalty_Neutral>
1.99479e-05

> <r_epik_State_Penalty>
0.243573

> <r_epik_Charging_Adjusted_Penalty>
0.495758

> <i_epik_Tot_Q>
1

> <i_epik_Tot_abs_Q>
1

> <r_epik_Metal_State_Penalty>
0.534372

> <b_epik_Metal_Only>
0

> <s_lp_Force_Field>
OPLS_2005

> <r_lp_Energy>
46.5408

> <b_lp_Chiralities_Consistent>
1

> <s_lp_Variant>
AV-unprocessed.smi:2923-4

> <Gold.Version>
5.8.1

> <Gold.Id.Protein>
6NUR|6NUR_protein|mol2

> <Gold.PLP.Fitness>
40.5679

> <Gold.PLP.PLP>
-35.4990

> <Gold.PLP.part.hbond>
-2.9640

> <Gold.PLP.part.metal>
0.0000

> <Gold.PLP.part.buried>
0.6134

> <Gold.PLP.part.nonpolar>
-36.2924

> <Gold.PLP.part.repulsive>
3.2101

> <Gold.PLP.ligand.clash>
0.0000

> <Gold.PLP.ligand.torsion>
0.3790

> <Gold.PLP.Chemscore.Hbond>
1.8800

> <Gold.PLP.Chemscore.CHOScore>
0.0000

> <Gold.PLP.Chemscore.Metal>
0.0000

> <Gold.Chemscore.Hbonds>
donor molecule, donor type, donor heavy atom, donor atom, acceptor molecule, acceptor atom, score
      L1  H     8    31       P1 10175  0.99
      L1  H    11    32       P1 10175  0.88

> <Gold.PLP.Chemscore.Internal.Correction>
0.1870

> <Gold.Rescore>
     Score         DG    S(hbond)    S(metal)    S(lipo)     H(rot)  DE(clash)    DE(int)     intcor
     14.90     -17.79       1.59        0.00      81.64       1.00       1.35       1.54       ----

> <Gold.Chemscore.Fitness>
14.8984

> <Gold.Chemscore.DG>
-17.7884

> <Gold.Chemscore.ZeroCoef>
-5.4800

> <Gold.Chemscore.Hbond>
1.5919

> <Gold.Chemscore.Metal>
0.0000

> <Gold.Chemscore.Lipo>
81.6378

> <Gold.Chemscore.Internal_Hbond>
0.0000

> <Gold.Chemscore.DEClash>
1.3507

> <Gold.Chemscore.DEInternal>
1.5393

> <Gold.Chemscore.Rot>
1.0000

> <Gold.Chemscore.Internal.Correction>
   9.000000E+99

> <Gold.Chemscore.Hbonds>
donor molecule, donor type, donor heavy atom, donor atom, acceptor molecule, acceptor atom, score
      L1  H     8    31       P1 10175  0.92
      L1  H    11    32       P1 10175  0.48

> <Gold.Chemscore.Hbond.Weighted>
-5.3168

> <Gold.Chemscore.Metal.Weighted>
-0.0000

> <Gold.Chemscore.Lipo.Weighted>
-9.5516

> <Gold.Chemscore.Internal_Hbond.Weighted>
0.0000

> <Gold.Chemscore.DEClash.Weighted>
1.3507

> <Gold.Chemscore.DEInternal.Weighted>
1.5393

> <Gold.Chemscore.Rot.Weighted>
2.5600

> <Gold.Chemscore.Internal.Correction.Weighted>
   9.000000E+99

> <Gold.Protein.RotatedTorsions>
[ 6907 6896 6895 6894 ] final -141.40 input  -60.11 | X-H torsion
[ 7974 7965 7964 7962 ] final    4.02 input  175.53 | X-H torsion
[ 8008 7997 7996 7995 ] final  131.90 input   59.86 | X-H torsion
[ 10167 10162 10161 10158 ] final  -13.96 input  -65.29 | X-H torsion
[ 10718 10713 10712 10709 ] final   69.63 input   66.30 | X-H torsion
[ 10763 10752 10751 10750 ] final   66.49 input  -60.55 | X-H torsion
[ 11005 11000 10999 10996 ] final  -42.14 input  -57.11 | X-H torsion

> <Gold.Protein.ActiveResidues>
 VAL166  LYS551  ARG553  GLY616  TRP617  ASP618  TYR619  PRO620  LYS621  CYS622 
 ASP623  PHE694  ASN695  SER759  ASP760  ASP761  ALA762  ILE779  LEU786  VAL792 
 PHE793  MET794  SER795  GLU796  ALA797  LYS798  CYS799  TRP800  GLU811  SER814 

> <Gold.Protein.RotatedAtoms>
  151.0734  133.5448  159.2625 H   0  0  0  0  0  0  0  0  0  0  0  0  # atno 6907 bound_to 6896
  151.2379  135.0577  159.9023 H   0  0  0  0  0  0  0  0  0  0  0  0  # atno 6908 bound_to 6896
  152.5414  134.0513  159.8165 H   0  0  0  0  0  0  0  0  0  0  0  0  # atno 6909 bound_to 6896
  146.2444  140.0597  142.8369 H   0  0  0  0  0  0  0  0  0  0  0  0  # atno 7974 bound_to 7965
  156.2976  140.2559  156.3002 H   0  0  0  0  0  0  0  0  0  0  0  0  # atno 8008 bound_to 7997
  154.9425  140.0396  157.2122 H   0  0  0  0  0  0  0  0  0  0  0  0  # atno 8009 bound_to 7997
  154.8113  140.2845  155.5856 H   0  0  0  0  0  0  0  0  0  0  0  0  # atno 8010 bound_to 7997
  140.7192  143.5371  150.9452 H   0  0  0  0  0  0  0  0  0  0  0  0  # atno 10167 bound_to 10162
  157.6356  130.9436  150.0540 H   0  0  0  0  0  0  0  0  0  0  0  0  # atno 10718 bound_to 10713
  153.0142  135.5318  154.6833 H   0  0  0  0  0  0  0  0  0  0  0  0  # atno 10763 bound_to 10752
  154.5987  135.2866  155.0561 H   0  0  0  0  0  0  0  0  0  0  0  0  # atno 10764 bound_to 10752
  154.1626  135.6545  153.5042 H   0  0  0  0  0  0  0  0  0  0  0  0  # atno 10765 bound_to 10752
  141.0295  133.6826  156.2553 H   0  0  0  0  0  0  0  0  0  0  0  0  # atno 11005 bound_to 11000
  145.0911  140.9285  143.4768 LP  0  0  0  0  0  0  0  0  0  0  0  0  # atno 17320 bound_to 7965
  145.0770  139.2988  143.5803 LP  0  0  0  0  0  0  0  0  0  0  0  0  # atno 17321 bound_to 7965
  139.9093  143.6740  152.3118 LP  0  0  0  0  0  0  0  0  0  0  0  0  # atno 17342 bound_to 10162
  139.7117  144.7619  151.1101 LP  0  0  0  0  0  0  0  0  0  0  0  0  # atno 17343 bound_to 10162
  156.1593  130.3643  149.9322 LP  0  0  0  0  0  0  0  0  0  0  0  0  # atno 17370 bound_to 10713
  156.7324  130.9048  151.3626 LP  0  0  0  0  0  0  0  0  0  0  0  0  # atno 17371 bound_to 10713
  140.6433  134.5143  157.5571 LP  0  0  0  0  0  0  0  0  0  0  0  0  # atno 17394 bound_to 11000
  139.9198  134.8172  156.1248 LP  0  0  0  0  0  0  0  0  0  0  0  0  # atno 17395 bound_to 11000

$$$$
