AV-unprocessed.smi:35|AV-procd|sdf|247|dock6
  -GOLD-   2262016 03D 1   1.00000     0.00000
 Structure written by MMmdl.
 29 30  0  0  0  0  0  0  0  0  1 V2000
  152.8700  141.1684  159.1025 O   0  0  0  0  0  0  0  0  0  0  0  0
  152.2096  141.1132  158.0674 C   0  0  0  0  0  0  0  0  0  0  0  0
  152.2931  139.9935  157.2357 N   0  0  0  0  0  0  0  0  0  0  0  0
  151.5896  139.8154  156.0433 C   0  0  0  0  0  0  0  0  0  0  0  0
  151.7536  138.7917  155.3805 O   0  0  0  0  0  0  0  0  0  0  0  0
  150.7037  140.8445  155.6498 N   0  0  0  0  0  0  0  0  0  0  0  0
  149.9424  140.6726  154.3460 C   0  0  2  0  0  0  0  0  0  0  0  0
  149.0740  141.7526  154.1659 O   0  0  0  0  0  0  0  0  0  0  0  0
  147.7693  141.3981  154.6136 C   0  0  1  0  0  0  0  0  0  0  0  0
  146.7088  142.3773  154.0818 C   0  0  0  0  0  0  0  0  0  0  0  0
  145.4159  141.8791  154.3523 O   0  0  0  0  0  0  0  0  0  0  0  0
  147.6533  139.9539  154.1180 C   0  0  1  0  0  0  0  0  0  0  0  0
  147.3076  139.9272  152.7420 O   0  0  0  0  0  0  0  0  0  0  0  0
  149.0552  139.4062  154.3859 C   0  0  1  0  0  0  0  0  0  0  0  0
  149.4399  138.4151  153.4505 O   0  0  0  0  0  0  0  0  0  0  0  0
  150.6101  141.9904  156.4339 C   0  0  0  0  0  0  0  0  0  0  0  0
  151.3034  142.1492  157.5859 C   0  0  0  0  0  0  0  0  0  0  0  0
  151.0250  143.8524  158.5591 Br  0  0  0  0  0  0  0  0  0  0  0  0
  152.9186  139.2534  157.5194 H   0  0  0  0  0  0  0  0  0  0  0  0
  150.7023  140.6780  153.5621 H   0  0  0  0  0  0  0  0  0  0  0  0
  147.7485  141.3843  155.7051 H   0  0  0  0  0  0  0  0  0  0  0  0
  146.8290  143.3709  154.5146 H   0  0  0  0  0  0  0  0  0  0  0  0
  146.7999  142.4788  152.9999 H   0  0  0  0  0  0  0  0  0  0  0  0
  145.1540  141.3203  153.6365 H   0  0  0  0  0  0  0  0  0  0  0  0
  146.8937  139.3979  154.6689 H   0  0  0  0  0  0  0  0  0  0  0  0
  148.1023  140.0033  152.2355 H   0  0  0  0  0  0  0  0  0  0  0  0
  149.0806  138.9769  155.3888 H   0  0  0  0  0  0  0  0  0  0  0  0
  149.6710  138.8444  152.6405 H   0  0  0  0  0  0  0  0  0  0  0  0
  149.9690  142.8060  156.1361 H   0  0  0  0  0  0  0  0  0  0  0  0
  1  2  2  0  0  0  0
  2 17  1  0  0  0  0
  2  3  1  0  0  0  0
  3 19  1  0  0  0  0
  3  4  1  0  0  0  0
  4  5  2  0  0  0  0
  4  6  1  0  0  0  0
  6  7  1  0  0  0  0
  6 16  1  0  0  0  0
  7 14  1  0  0  0  0
  7  8  1  0  0  0  0
  7 20  1  0  0  0  0
  8  9  1  0  0  0  0
  9 10  1  0  0  0  0
  9 12  1  0  0  0  0
  9 21  1  0  0  0  0
 10 11  1  0  0  0  0
 10 22  1  0  0  0  0
 10 23  1  0  0  0  0
 11 24  1  0  0  0  0
 12 13  1  0  0  0  0
 12 14  1  0  0  0  0
 12 25  1  0  0  0  0
 13 26  1  0  0  0  0
 14 15  1  0  0  0  0
 14 27  1  0  0  0  0
 15 28  1  0  0  0  0
 16 17  2  0  0  0  0
 16 29  1  0  0  0  0
 17 18  1  0  0  0  0
M  END
> <s_m_source_file>
AV-unprocessed.smi

> <i_m_source_file_index>
35

> <i_lp_mmshare_version>
43012

> <i_f3d_flags>
0

> <s_epik_input>
Tz1jMVtuSF1jKD1PKW4oW2NIXWMxQnIpW0NAQEhdMk9bQ0BASF0oW0NIMl1bT0hdKVtDQEBIXShbT0hdKVtDQEhdMltPSF0=

> <s_epik_cmdline>
J2VwaWtfcHl0aG9uJywgJy1waCcsICc3LjAnLCAnLXRuJywgJzgnLCAnLW1hJywgJzIwMCcsICctbWV0YWxfYmluZGluZycsICctaW1hZScsICc8aW5maWxlLm1hZT4nLCAnLW9tYWUnLCAnPG91dGZpbGUubWFlPic=

> <r_lp_tautomer_probability>
0.999537

> <r_epik_Ionization_Penalty>
0.10812

> <r_epik_Ionization_Penalty_Charging>
0.108119

> <r_epik_Ionization_Penalty_Neutral>
4.93006e-07

> <r_epik_State_Penalty>
0.0979238

> <r_epik_Charging_Adjusted_Penalty>
0.206043

> <i_epik_Tot_Q>
0

> <i_epik_Tot_abs_Q>
0

> <r_epik_Metal_State_Penalty>
3.07911

> <b_epik_Metal_Only>
0

> <s_epik_Chemistry_Notes>
This compound contains an acetal/aminal-like group ( X-CH(R)-Y where X, Y are N, S, or O) that may be acid/base labile, releasing an aldehyde.

> <s_lp_Force_Field>
OPLS_2005

> <r_lp_Energy>
33.4515

> <b_lp_Chiralities_Consistent>
1

> <s_lp_Variant>
AV-unprocessed.smi:35-1

> <Gold.Version>
5.8.1

> <Gold.Id.Protein>
6NUR|6NUR_protein|mol2

> <Gold.PLP.Fitness>
45.8459

> <Gold.PLP.PLP>
-32.5410

> <Gold.PLP.part.hbond>
-5.3638

> <Gold.PLP.part.metal>
0.0000

> <Gold.PLP.part.buried>
-3.1192

> <Gold.PLP.part.nonpolar>
-24.6263

> <Gold.PLP.part.repulsive>
0.3316

> <Gold.PLP.ligand.clash>
0.0000

> <Gold.PLP.ligand.torsion>
0.0569

> <Gold.PLP.Chemscore.Hbond>
3.4651

> <Gold.PLP.Chemscore.CHOScore>
1.0000

> <Gold.PLP.Chemscore.Metal>
0.0000

> <Gold.Chemscore.Hbonds>
donor molecule, donor type, donor heavy atom, donor atom, acceptor molecule, acceptor atom, score
      L1  H    11    24       P1 10175  0.98
      L1  H    13    26       P1  7957  1.00
      L1  H    15    28       P1  7957  1.00
      P1  H  8011  8017       L1     8  0.45
      L1  C    16    29       P1  8028  1.00

> <Gold.PLP.Chemscore.Internal.Correction>
0.0234

> <Gold.Rescore>
     Score         DG    S(hbond)    S(metal)    S(lipo)     H(rot)  DE(clash)    DE(int)     intcor
      6.24      -9.79       2.20        0.00      54.27       3.67       1.82       1.74       ----

> <Gold.Chemscore.Fitness>
6.2405

> <Gold.Chemscore.DG>
-9.7950

> <Gold.Chemscore.ZeroCoef>
-5.4800

> <Gold.Chemscore.Hbond>
2.2040

> <Gold.Chemscore.Metal>
0.0000

> <Gold.Chemscore.Lipo>
54.2662

> <Gold.Chemscore.Internal_Hbond>
0.0000

> <Gold.Chemscore.DEClash>
1.8189

> <Gold.Chemscore.DEInternal>
1.7356

> <Gold.Chemscore.Rot>
3.6701

> <Gold.Chemscore.Internal.Correction>
   9.000000E+99

> <Gold.Chemscore.Hbonds>
donor molecule, donor type, donor heavy atom, donor atom, acceptor molecule, acceptor atom, score
      L1  H    11    24       P1 10175  0.30
      L1  H    13    26       P1  7957  1.00
      L1  H    15    28       P1  7957  0.78
      P1  H  8011  8017       L1     8  0.10

> <Gold.Chemscore.Hbond.Weighted>
-7.3613

> <Gold.Chemscore.Metal.Weighted>
-0.0000

> <Gold.Chemscore.Lipo.Weighted>
-6.3491

> <Gold.Chemscore.Internal_Hbond.Weighted>
0.0000

> <Gold.Chemscore.DEClash.Weighted>
1.8189

> <Gold.Chemscore.DEInternal.Weighted>
1.7356

> <Gold.Chemscore.Rot.Weighted>
9.3955

> <Gold.Chemscore.Internal.Correction.Weighted>
   9.000000E+99

> <Gold.Protein.RotatedTorsions>
[ 6907 6896 6895 6894 ] final   58.54 input  -60.11 | X-H torsion
[ 7974 7965 7964 7962 ] final  -91.08 input  175.53 | X-H torsion
[ 8008 7997 7996 7995 ] final   36.45 input   59.86 | X-H torsion
[ 10167 10162 10161 10158 ] final   60.21 input  -65.29 | X-H torsion
[ 10718 10713 10712 10709 ] final  -12.70 input   66.30 | X-H torsion
[ 10763 10752 10751 10750 ] final    3.06 input  -60.55 | X-H torsion
[ 11005 11000 10999 10996 ] final   52.41 input  -57.11 | X-H torsion

> <Gold.Protein.ActiveResidues>
 VAL166  LYS551  ARG553  GLY616  TRP617  ASP618  TYR619  PRO620  LYS621  CYS622 
 ASP623  PHE694  ASN695  SER759  ASP760  ASP761  ALA762  ILE779  LEU786  VAL792 
 PHE793  MET794  SER795  GLU796  ALA797  LYS798  CYS799  TRP800  GLU811  SER814 

> <Gold.Protein.RotatedAtoms>
  152.3833  134.6556  160.0134 H   0  0  0  0  0  0  0  0  0  0  0  0  # atno 6907 bound_to 6896
  151.6812  133.3306  159.3228 H   0  0  0  0  0  0  0  0  0  0  0  0  # atno 6908 bound_to 6896
  150.7765  134.6715  159.6439 H   0  0  0  0  0  0  0  0  0  0  0  0  # atno 6909 bound_to 6896
  145.4179  140.9549  143.2198 H   0  0  0  0  0  0  0  0  0  0  0  0  # atno 7974 bound_to 7965
  155.1877  140.3305  155.4364 H   0  0  0  0  0  0  0  0  0  0  0  0  # atno 8008 bound_to 7997
  156.2454  140.1916  156.6922 H   0  0  0  0  0  0  0  0  0  0  0  0  # atno 8009 bound_to 7997
  154.6227  140.0593  156.9621 H   0  0  0  0  0  0  0  0  0  0  0  0  # atno 8010 bound_to 7997
  140.1681  144.4304  150.6675 H   0  0  0  0  0  0  0  0  0  0  0  0  # atno 10167 bound_to 10162
  156.6409  130.4928  149.6095 H   0  0  0  0  0  0  0  0  0  0  0  0  # atno 10718 bound_to 10713
  153.2880  135.6946  153.7321 H   0  0  0  0  0  0  0  0  0  0  0  0  # atno 10763 bound_to 10752
  153.6283  135.3415  155.3034 H   0  0  0  0  0  0  0  0  0  0  0  0  # atno 10764 bound_to 10752
  154.8515  135.4402  154.1954 H   0  0  0  0  0  0  0  0  0  0  0  0  # atno 10765 bound_to 10752
  140.0852  134.5284  155.8907 H   0  0  0  0  0  0  0  0  0  0  0  0  # atno 11005 bound_to 11000
  144.8265  139.5701  143.6963 LP  0  0  0  0  0  0  0  0  0  0  0  0  # atno 17320 bound_to 7965
  146.2672  139.6547  142.9321 LP  0  0  0  0  0  0  0  0  0  0  0  0  # atno 17321 bound_to 7965
  140.6600  143.2249  151.5878 LP  0  0  0  0  0  0  0  0  0  0  0  0  # atno 17342 bound_to 10162
  139.5350  144.2806  152.1232 LP  0  0  0  0  0  0  0  0  0  0  0  0  # atno 17343 bound_to 10162
  156.2160  130.6708  151.1319 LP  0  0  0  0  0  0  0  0  0  0  0  0  # atno 17370 bound_to 10713
  157.7171  131.0703  150.6283 LP  0  0  0  0  0  0  0  0  0  0  0  0  # atno 17371 bound_to 10713
  141.2060  133.6651  156.6215 LP  0  0  0  0  0  0  0  0  0  0  0  0  # atno 17394 bound_to 11000
  140.3431  134.7832  157.4412 LP  0  0  0  0  0  0  0  0  0  0  0  0  # atno 17395 bound_to 11000

$$$$
