AV-unprocessed.smi:438|AV-procd|sdf|2577|dock5
  -GOLD-   2262022563D 1   1.00000     0.00000
 Structure written by MMmdl.
 48 49  0  0  0  0  0  0  0  0  1 V2000
  142.3707  135.0954  153.3366 C   0  0  0  0  0  0  0  0  0  0  0  0
  143.6325  135.6048  154.0089 C   0  0  0  0  0  0  0  0  0  0  0  0
  143.7532  135.3210  155.3244 N   0  0  0  0  0  0  0  0  0  0  0  0
  144.8612  135.7527  155.9279 C   0  0  0  0  0  0  0  0  0  0  0  0
  145.0171  135.4011  157.6635 S   0  0  0  0  0  0  0  0  0  0  0  0
  145.0354  137.0797  158.3623 C   0  0  0  0  0  0  0  0  0  0  0  0
  145.6667  137.1134  159.7505 C   0  0  0  0  0  0  0  0  0  0  0  0
  146.6813  137.7812  159.9480 O   0  0  0  0  0  0  0  0  0  0  0  0
  145.0479  136.3957  160.7015 N   0  0  0  0  0  0  0  0  0  0  0  0
  145.4358  136.3086  162.1107 C   0  0  2  0  0  0  0  0  0  0  0  0
  146.9730  136.2765  162.2323 C   0  0  0  0  0  0  0  0  0  0  0  0
  147.5718  134.9545  161.7216 C   0  0  0  0  0  0  0  0  0  0  0  0
  146.9346  133.7470  162.4248 C   0  0  0  0  0  0  0  0  0  0  0  0
  145.4042  133.7600  162.2818 C   0  0  0  0  0  0  0  0  0  0  0  0
  144.7956  135.0783  162.8038 C   0  0  2  0  0  0  0  0  0  0  0  0
  143.2598  135.0649  162.7126 C   0  0  0  0  0  0  0  0  0  0  0  0
  145.8627  136.4434  155.3836 N   0  0  0  0  0  0  0  0  0  0  0  0
  145.7565  136.7360  154.0696 C   0  0  0  0  0  0  0  0  0  0  0  0
  146.7754  137.4312  153.4860 O   0  0  0  0  0  0  0  0  0  0  0  0
  144.6293  136.3334  153.3102 C   0  0  0  0  0  0  0  0  0  0  0  0
  144.5104  136.6628  151.8273 C   0  0  0  0  0  0  0  0  0  0  0  0
  144.4486  135.3998  150.9578 C   0  0  0  0  0  0  0  0  0  0  0  0
  144.6925  135.7358  149.6096 O   0  0  0  0  0  0  0  0  0  0  0  0
  142.6132  134.5470  152.4262 H   0  0  0  0  0  0  0  0  0  0  0  0
  141.7190  135.9297  153.0764 H   0  0  0  0  0  0  0  0  0  0  0  0
  141.8140  134.4236  153.9916 H   0  0  0  0  0  0  0  0  0  0  0  0
  145.5928  137.7349  157.6923 H   0  0  0  0  0  0  0  0  0  0  0  0
  144.0241  137.4817  158.4248 H   0  0  0  0  0  0  0  0  0  0  0  0
  144.2185  135.8860  160.4336 H   0  0  0  0  0  0  0  0  0  0  0  0
  145.0926  137.2030  162.6334 H   0  0  0  0  0  0  0  0  0  0  0  0
  147.4121  137.1181  161.6953 H   0  0  0  0  0  0  0  0  0  0  0  0
  147.2503  136.4096  163.2788 H   0  0  0  0  0  0  0  0  0  0  0  0
  147.4228  134.8718  160.6444 H   0  0  0  0  0  0  0  0  0  0  0  0
  148.6503  134.9503  161.8830 H   0  0  0  0  0  0  0  0  0  0  0  0
  147.3381  132.8214  162.0132 H   0  0  0  0  0  0  0  0  0  0  0  0
  147.2024  133.7577  163.4821 H   0  0  0  0  0  0  0  0  0  0  0  0
  145.1336  133.6129  161.2353 H   0  0  0  0  0  0  0  0  0  0  0  0
  144.9831  132.9151  162.8278 H   0  0  0  0  0  0  0  0  0  0  0  0
  145.0432  135.1477  163.8642 H   0  0  0  0  0  0  0  0  0  0  0  0
  142.9163  134.9303  161.6865 H   0  0  0  0  0  0  0  0  0  0  0  0
  142.8366  135.9975  163.0865 H   0  0  0  0  0  0  0  0  0  0  0  0
  142.8408  134.2525  163.3067 H   0  0  0  0  0  0  0  0  0  0  0  0
  147.3712  136.8719  153.0116 H   0  0  0  0  0  0  0  0  0  0  0  0
  143.6297  137.2806  151.6525 H   0  0  0  0  0  0  0  0  0  0  0  0
  145.3588  137.2791  151.5275 H   0  0  0  0  0  0  0  0  0  0  0  0
  145.1912  134.6702  151.2823 H   0  0  0  0  0  0  0  0  0  0  0  0
  143.4695  134.9259  151.0323 H   0  0  0  0  0  0  0  0  0  0  0  0
  144.5098  136.6554  149.4909 H   0  0  0  0  0  0  0  0  0  0  0  0
  1  2  1  0  0  0  0
  1 24  1  0  0  0  0
  1 25  1  0  0  0  0
  1 26  1  0  0  0  0
  2 20  1  0  0  0  0
  2  3  2  0  0  0  0
  3  4  1  0  0  0  0
  4  5  1  0  0  0  0
  4 17  2  0  0  0  0
  5  6  1  0  0  0  0
  6  7  1  0  0  0  0
  6 27  1  0  0  0  0
  6 28  1  0  0  0  0
  7  8  2  0  0  0  0
  7  9  1  0  0  0  0
  9 10  1  0  0  0  0
  9 29  1  0  0  0  0
 10 15  1  0  0  0  0
 10 11  1  0  0  0  0
 10 30  1  0  0  0  0
 11 12  1  0  0  0  0
 11 31  1  0  0  0  0
 11 32  1  0  0  0  0
 12 13  1  0  0  0  0
 12 33  1  0  0  0  0
 12 34  1  0  0  0  0
 13 14  1  0  0  0  0
 13 35  1  0  0  0  0
 13 36  1  0  0  0  0
 14 15  1  0  0  0  0
 14 37  1  0  0  0  0
 14 38  1  0  0  0  0
 15 16  1  0  0  0  0
 15 39  1  0  0  0  0
 16 40  1  0  0  0  0
 16 41  1  0  0  0  0
 16 42  1  0  0  0  0
 17 18  1  0  0  0  0
 18 19  1  0  0  0  0
 18 20  2  0  0  0  0
 19 43  1  0  0  0  0
 20 21  1  0  0  0  0
 21 22  1  0  0  0  0
 21 44  1  0  0  0  0
 21 45  1  0  0  0  0
 22 23  1  0  0  0  0
 22 46  1  0  0  0  0
 22 47  1  0  0  0  0
 23 48  1  0  0  0  0
M  END
> <s_m_source_file>
AV-unprocessed.smi

> <i_m_source_file_index>
438

> <i_lp_mmshare_version>
43012

> <i_f3d_flags>
0

> <s_epik_input>
W09IXVtDSDJdW0NIMl1jMWMoW09IXSluYyhuYzFbQ0gzXSlTW0NIMl1DKD1PKVtOSF1bQ0BASF0yW0NIMl1bQ0gyXVtDSDJdW0NIMl1bQ0BIXTJbQ0gzXQ==

> <s_epik_cmdline>
J2VwaWtfcHl0aG9uJywgJy1waCcsICc3LjAnLCAnLXRuJywgJzgnLCAnLW1hJywgJzIwMCcsICctbWV0YWxfYmluZGluZycsICctaW1hZScsICc8aW5maWxlLm1hZT4nLCAnLW9tYWUnLCAnPG91dGZpbGUubWFlPic=

> <r_lp_tautomer_probability>
0.0660145

> <r_epik_Ionization_Penalty>
2.91405

> <r_epik_Ionization_Penalty_Charging>
0

> <r_epik_Ionization_Penalty_Neutral>
2.91405

> <r_epik_State_Penalty>
2.44767

> <r_epik_Charging_Adjusted_Penalty>
2.44767

> <i_epik_Tot_Q>
0

> <i_epik_Tot_abs_Q>
0

> <r_epik_Metal_State_Penalty>
3.04288

> <b_epik_Metal_Only>
0

> <s_lp_Force_Field>
OPLS_2005

> <r_lp_Energy>
3.55381

> <b_lp_Chiralities_Consistent>
1

> <s_lp_Variant>
AV-unprocessed.smi:438-15

> <Gold.Version>
5.8.1

> <Gold.Id.Protein>
6NUR|6NUR_protein|mol2

> <Gold.PLP.Fitness>
40.4110

> <Gold.PLP.PLP>
-32.2773

> <Gold.PLP.part.hbond>
-4.0000

> <Gold.PLP.part.metal>
0.0000

> <Gold.PLP.part.buried>
-3.9462

> <Gold.PLP.part.nonpolar>
-24.2144

> <Gold.PLP.part.repulsive>
0.1118

> <Gold.PLP.ligand.clash>
0.0000

> <Gold.PLP.ligand.torsion>
0.4504

> <Gold.PLP.Chemscore.Hbond>
2.9913

> <Gold.PLP.Chemscore.CHOScore>
0.0000

> <Gold.PLP.Chemscore.Metal>
0.0000

> <Gold.Chemscore.Hbonds>
donor molecule, donor type, donor heavy atom, donor atom, acceptor molecule, acceptor atom, score
      L1  H    19    43       P1  7948  0.94
      L1  H    23    48       P1 10171  1.00
      P1  H  6934  6947       L1     8  1.00

> <Gold.PLP.Chemscore.Internal.Correction>
0.0608

> <Gold.Rescore>
     Score         DG    S(hbond)    S(metal)    S(lipo)     H(rot)  DE(clash)    DE(int)     intcor
     12.51     -15.28       2.97        0.00      74.24       3.44       0.85       1.92       ----

> <Gold.Chemscore.Fitness>
12.5135

> <Gold.Chemscore.DG>
-15.2816

> <Gold.Chemscore.ZeroCoef>
-5.4800

> <Gold.Chemscore.Hbond>
2.9674

> <Gold.Chemscore.Metal>
0.0000

> <Gold.Chemscore.Lipo>
74.2432

> <Gold.Chemscore.Internal_Hbond>
0.0000

> <Gold.Chemscore.DEClash>
0.8518

> <Gold.Chemscore.DEInternal>
1.9163

> <Gold.Chemscore.Rot>
3.4359

> <Gold.Chemscore.Internal.Correction>
   9.000000E+99

> <Gold.Chemscore.Hbonds>
donor molecule, donor type, donor heavy atom, donor atom, acceptor molecule, acceptor atom, score
      L1  H    19    43       P1  7948  0.90
      L1  H    23    48       P1 10171  0.93
      P1  H  6934  6947       L1     8  0.97

> <Gold.Chemscore.Hbond.Weighted>
-9.9112

> <Gold.Chemscore.Metal.Weighted>
-0.0000

> <Gold.Chemscore.Lipo.Weighted>
-8.6865

> <Gold.Chemscore.Internal_Hbond.Weighted>
0.0000

> <Gold.Chemscore.DEClash.Weighted>
0.8518

> <Gold.Chemscore.DEInternal.Weighted>
1.9163

> <Gold.Chemscore.Rot.Weighted>
8.7960

> <Gold.Chemscore.Internal.Correction.Weighted>
   9.000000E+99

> <Gold.Protein.RotatedTorsions>
[ 6907 6896 6895 6894 ] final   94.01 input  -60.11 | X-H torsion
[ 7974 7965 7964 7962 ] final  115.55 input  175.53 | X-H torsion
[ 8008 7997 7996 7995 ] final   57.61 input   59.86 | X-H torsion
[ 10167 10162 10161 10158 ] final  108.88 input  -65.29 | X-H torsion
[ 10718 10713 10712 10709 ] final -147.22 input   66.30 | X-H torsion
[ 10763 10752 10751 10750 ] final   72.88 input  -60.55 | X-H torsion
[ 11005 11000 10999 10996 ] final   19.47 input  -57.11 | X-H torsion

> <Gold.Protein.ActiveResidues>
 VAL166  LYS551  ARG553  GLY616  TRP617  ASP618  TYR619  PRO620  LYS621  CYS622 
 ASP623  PHE694  ASN695  SER759  ASP760  ASP761  ALA762  ILE779  LEU786  VAL792 
 PHE793  MET794  SER795  GLU796  ALA797  LYS798  CYS799  TRP800  GLU811  SER814 

> <Gold.Protein.RotatedAtoms>
  152.5451  134.1259  159.8418 H   0  0  0  0  0  0  0  0  0  0  0  0  # atno 6907 bound_to 6896
  151.1310  133.5030  159.2606 H   0  0  0  0  0  0  0  0  0  0  0  0  # atno 6908 bound_to 6896
  151.1676  135.0312  159.8792 H   0  0  0  0  0  0  0  0  0  0  0  0  # atno 6909 bound_to 6896
  145.1906  139.3002  143.4370 H   0  0  0  0  0  0  0  0  0  0  0  0  # atno 7974 bound_to 7965
  155.5365  140.3483  155.4437 H   0  0  0  0  0  0  0  0  0  0  0  0  # atno 8008 bound_to 7997
  156.0681  140.1356  156.9888 H   0  0  0  0  0  0  0  0  0  0  0  0  # atno 8009 bound_to 7997
  154.4514  140.0971  156.6603 H   0  0  0  0  0  0  0  0  0  0  0  0  # atno 8010 bound_to 7997
  139.6811  144.7118  151.1514 H   0  0  0  0  0  0  0  0  0  0  0  0  # atno 10167 bound_to 10162
  156.4048  130.7952  151.2165 H   0  0  0  0  0  0  0  0  0  0  0  0  # atno 10718 bound_to 10713
  153.0487  135.5083  154.7811 H   0  0  0  0  0  0  0  0  0  0  0  0  # atno 10763 bound_to 10752
  154.6691  135.2950  154.9768 H   0  0  0  0  0  0  0  0  0  0  0  0  # atno 10764 bound_to 10752
  154.0593  135.6693  153.4862 H   0  0  0  0  0  0  0  0  0  0  0  0  # atno 10765 bound_to 10752
  140.4134  134.1594  155.7668 H   0  0  0  0  0  0  0  0  0  0  0  0  # atno 11005 bound_to 11000
  146.3437  140.2117  142.8590 LP  0  0  0  0  0  0  0  0  0  0  0  0  # atno 17320 bound_to 7965
  145.0045  140.8660  143.5262 LP  0  0  0  0  0  0  0  0  0  0  0  0  # atno 17321 bound_to 7965
  140.7652  143.5698  150.9008 LP  0  0  0  0  0  0  0  0  0  0  0  0  # atno 17342 bound_to 10162
  139.9370  143.6426  152.3063 LP  0  0  0  0  0  0  0  0  0  0  0  0  # atno 17343 bound_to 10162
  157.7505  131.0276  150.4011 LP  0  0  0  0  0  0  0  0  0  0  0  0  # atno 17370 bound_to 10713
  156.4298  130.3969  149.6768 LP  0  0  0  0  0  0  0  0  0  0  0  0  # atno 17371 bound_to 10713
  141.1812  133.8409  157.1250 LP  0  0  0  0  0  0  0  0  0  0  0  0  # atno 17394 bound_to 11000
  140.0251  134.9927  157.0670 LP  0  0  0  0  0  0  0  0  0  0  0  0  # atno 17395 bound_to 11000

$$$$
