AV-unprocessed.smi:702|AV-procd|sdf|3422|dock1
  -GOLD-   22720 0403D 1   1.00000     0.00000
 Structure written by MMmdl.
 50 52  0  0  0  0  0  0  0  0  2 V2000
  145.8876  137.5247  155.5612 C   0  0  0  0  0  0  0  0  0  0  0  0
  146.5334  138.0425  154.2556 C   0  0  2  0  0  0  0  0  0  0  0  0
  146.7681  136.8981  153.3669 N   0  0  0  0  0  0  0  0  0  0  0  0
  145.8353  136.0466  152.9159 C   0  0  0  0  0  0  0  0  0  0  0  0
  144.6406  136.1308  153.1998 O   0  0  0  0  0  0  0  0  0  0  0  0
  146.3808  135.0915  152.1431 N   0  0  0  0  0  0  0  0  0  0  0  0
  145.7268  134.0126  151.4889 C   0  0  0  0  0  0  0  0  0  0  0  0
  146.5149  133.1465  150.6987 C   0  0  0  0  0  0  0  0  0  0  0  0
  145.9018  132.0722  150.0219 C   0  0  0  0  0  0  0  0  0  0  0  0
  144.5682  131.8865  150.1235 N   0  3  0  0  0  0  0  0  0  0  0  0
  143.7717  132.6972  150.8527 C   0  0  0  0  0  0  0  0  0  0  0  0
  144.3281  133.7873  151.5525 C   0  0  0  0  0  0  0  0  0  0  0  0
  147.8379  138.8984  154.4765 C   0  0  0  0  0  0  0  0  0  0  0  0
  149.0510  138.0316  154.6105 N   0  0  0  0  0  0  0  0  0  0  0  0
  150.3238  138.7531  154.7731 C   0  0  0  0  0  0  0  0  0  0  0  0
  151.5334  137.8046  154.7528 C   0  0  0  0  0  0  0  0  0  0  0  0
  151.3945  136.8392  155.7874 O   0  0  0  0  0  0  0  0  0  0  0  0
  150.2014  136.0766  155.6585 C   0  0  0  0  0  0  0  0  0  0  0  0
  148.9779  137.0101  155.6667 C   0  0  0  0  0  0  0  0  0  0  0  0
  147.9655  139.9040  153.2813 C   0  0  0  0  0  0  0  0  0  0  0  0
  147.7391  141.3160  153.8288 C   0  0  0  0  0  0  0  0  0  0  0  0
  148.0984  141.2297  155.3038 C   0  0  0  0  0  0  0  0  0  0  0  0
  147.6492  139.8286  155.7180 C   0  0  0  0  0  0  0  0  0  0  0  0
  145.6311  138.3346  156.2433 H   0  0  0  0  0  0  0  0  0  0  0  0
  146.5433  136.8414  156.0997 H   0  0  0  0  0  0  0  0  0  0  0  0
  144.9626  136.9869  155.3505 H   0  0  0  0  0  0  0  0  0  0  0  0
  145.8021  138.6759  153.7529 H   0  0  0  0  0  0  0  0  0  0  0  0
  147.7244  136.7468  153.0807 H   0  0  0  0  0  0  0  0  0  0  0  0
  147.3882  135.0967  152.0748 H   0  0  0  0  0  0  0  0  0  0  0  0
  147.5819  133.2958  150.6161 H   0  0  0  0  0  0  0  0  0  0  0  0
  146.4341  131.3621  149.4059 H   0  0  0  0  0  0  0  0  0  0  0  0
  142.7190  132.4550  150.8501 H   0  0  0  0  0  0  0  0  0  0  0  0
  143.6726  134.4358  152.1139 H   0  0  0  0  0  0  0  0  0  0  0  0
  150.4724  139.4985  153.9962 H   0  0  0  0  0  0  0  0  0  0  0  0
  150.3304  139.2946  155.7191 H   0  0  0  0  0  0  0  0  0  0  0  0
  151.6202  137.3070  153.7857 H   0  0  0  0  0  0  0  0  0  0  0  0
  152.4556  138.3638  154.9103 H   0  0  0  0  0  0  0  0  0  0  0  0
  150.2322  135.4923  154.7376 H   0  0  0  0  0  0  0  0  0  0  0  0
  150.1422  135.3680  156.4846 H   0  0  0  0  0  0  0  0  0  0  0  0
  148.8963  137.4795  156.6466 H   0  0  0  0  0  0  0  0  0  0  0  0
  148.0994  136.3800  155.5494 H   0  0  0  0  0  0  0  0  0  0  0  0
  148.9355  139.8517  152.7919 H   0  0  0  0  0  0  0  0  0  0  0  0
  147.2622  139.7127  152.4716 H   0  0  0  0  0  0  0  0  0  0  0  0
  148.3236  142.0689  153.2996 H   0  0  0  0  0  0  0  0  0  0  0  0
  146.6866  141.5834  153.7274 H   0  0  0  0  0  0  0  0  0  0  0  0
  149.1767  141.3315  155.4272 H   0  0  0  0  0  0  0  0  0  0  0  0
  147.6240  142.0125  155.8962 H   0  0  0  0  0  0  0  0  0  0  0  0
  146.6036  139.8868  156.0194 H   0  0  0  0  0  0  0  0  0  0  0  0
  148.1810  139.4950  156.6079 H   0  0  0  0  0  0  0  0  0  0  0  0
  144.1438  131.1037  149.6249 H   0  0  0  0  0  0  0  0  0  0  0  0
  1  2  1  0  0  0  0
  1 24  1  0  0  0  0
  1 25  1  0  0  0  0
  1 26  1  0  0  0  0
  2  3  1  0  0  0  0
  2 13  1  0  0  0  0
  2 27  1  0  0  0  0
  3  4  1  0  0  0  0
  3 28  1  0  0  0  0
  4  5  2  0  0  0  0
  4  6  1  0  0  0  0
  6  7  1  0  0  0  0
  6 29  1  0  0  0  0
  7 12  1  0  0  0  0
  7  8  2  0  0  0  0
  8  9  1  0  0  0  0
  8 30  1  0  0  0  0
  9 10  2  0  0  0  0
  9 31  1  0  0  0  0
 10 11  1  0  0  0  0
 10 50  1  0  0  0  0
 11 12  2  0  0  0  0
 11 32  1  0  0  0  0
 12 33  1  0  0  0  0
 13 23  1  0  0  0  0
 13 14  1  0  0  0  0
 13 20  1  0  0  0  0
 14 19  1  0  0  0  0
 14 15  1  0  0  0  0
 15 16  1  0  0  0  0
 15 34  1  0  0  0  0
 15 35  1  0  0  0  0
 16 17  1  0  0  0  0
 16 36  1  0  0  0  0
 16 37  1  0  0  0  0
 17 18  1  0  0  0  0
 18 19  1  0  0  0  0
 18 38  1  0  0  0  0
 18 39  1  0  0  0  0
 19 40  1  0  0  0  0
 19 41  1  0  0  0  0
 20 21  1  0  0  0  0
 20 42  1  0  0  0  0
 20 43  1  0  0  0  0
 21 22  1  0  0  0  0
 21 44  1  0  0  0  0
 21 45  1  0  0  0  0
 22 23  1  0  0  0  0
 22 46  1  0  0  0  0
 22 47  1  0  0  0  0
 23 48  1  0  0  0  0
 23 49  1  0  0  0  0
M  CHG  1  10   1
M  END
> <s_m_source_file>
AV-unprocessed.smi

> <i_m_source_file_index>
702

> <i_lp_mmshare_version>
43012

> <i_f3d_flags>
0

> <s_epik_input>
W0NIMl0xW0NIMl1PW0NIMl1bQ0gyXU4xQzIoW0NIMl1bQ0gyXVtDSDJdW0NIMl0yKVtDQEhdKFtDSDNdKVtOSF1DKD1PKVtOSF1jM1tjSF1bY0hdbltjSF1bY0hdMw==

> <s_epik_cmdline>
J2VwaWtfcHl0aG9uJywgJy1waCcsICc3LjAnLCAnLXRuJywgJzgnLCAnLW1hJywgJzIwMCcsICctbWV0YWxfYmluZGluZycsICctaW1hZScsICc8aW5maWxlLm1hZT4nLCAnLW9tYWUnLCAnPG91dGZpbGUubWFlPic=

> <r_epik_Ionization_Penalty>
1.54019

> <r_epik_Ionization_Penalty_Charging>
1.02845

> <r_epik_Ionization_Penalty_Neutral>
0.511739

> <r_epik_State_Penalty>
1.62583

> <r_epik_Charging_Adjusted_Penalty>
2.65428

> <i_epik_Tot_Q>
1

> <i_epik_Tot_abs_Q>
1

> <r_epik_Metal_State_Penalty>
1.71803

> <b_epik_Metal_Only>
0

> <s_lp_Force_Field>
OPLS_2005

> <r_lp_Energy>
73.3397

> <b_lp_Chiralities_Consistent>
1

> <s_lp_Variant>
AV-unprocessed.smi:702-7

> <Gold.Version>
5.8.1

> <Gold.Id.Protein>
6NUR|6NUR_protein|mol2

> <Gold.PLP.Fitness>
41.3248

> <Gold.PLP.PLP>
-33.5756

> <Gold.PLP.part.hbond>
-3.0000

> <Gold.PLP.part.metal>
0.0000

> <Gold.PLP.part.buried>
-3.7404

> <Gold.PLP.part.nonpolar>
-27.8416

> <Gold.PLP.part.repulsive>
0.6020

> <Gold.PLP.ligand.clash>
0.0000

> <Gold.PLP.ligand.torsion>
0.7303

> <Gold.PLP.Chemscore.Hbond>
3.0000

> <Gold.PLP.Chemscore.CHOScore>
0.0000

> <Gold.PLP.Chemscore.Metal>
0.0000

> <Gold.Chemscore.Hbonds>
donor molecule, donor type, donor heavy atom, donor atom, acceptor molecule, acceptor atom, score
      L1  H     3    28       P1  7948  1.00
      L1  H     6    29       P1  7948  0.91
      P1  H 10752 10764       L1    17  0.06

> <Gold.PLP.Chemscore.Internal.Correction>
0.2097

> <Gold.Rescore>
     Score         DG    S(hbond)    S(metal)    S(lipo)     H(rot)  DE(clash)    DE(int)     intcor
     16.17     -18.72       2.02        0.00      86.97       1.44       0.30       2.26       ----

> <Gold.Chemscore.Fitness>
16.1668

> <Gold.Chemscore.DG>
-18.7248

> <Gold.Chemscore.ZeroCoef>
-5.4800

> <Gold.Chemscore.Hbond>
2.0220

> <Gold.Chemscore.Metal>
0.0000

> <Gold.Chemscore.Lipo>
86.9745

> <Gold.Chemscore.Internal_Hbond>
0.0000

> <Gold.Chemscore.DEClash>
0.2989

> <Gold.Chemscore.DEInternal>
2.2591

> <Gold.Chemscore.Rot>
1.4394

> <Gold.Chemscore.Internal.Correction>
   9.000000E+99

> <Gold.Chemscore.Hbonds>
donor molecule, donor type, donor heavy atom, donor atom, acceptor molecule, acceptor atom, score
      L1  H     3    28       P1  7948  0.95
      L1  H     6    29       P1  7948  0.86

> <Gold.Chemscore.Hbond.Weighted>
-6.7536

> <Gold.Chemscore.Metal.Weighted>
-0.0000

> <Gold.Chemscore.Lipo.Weighted>
-10.1760

> <Gold.Chemscore.Internal_Hbond.Weighted>
0.0000

> <Gold.Chemscore.DEClash.Weighted>
0.2989

> <Gold.Chemscore.DEInternal.Weighted>
2.2591

> <Gold.Chemscore.Rot.Weighted>
3.6848

> <Gold.Chemscore.Internal.Correction.Weighted>
   9.000000E+99

> <Gold.Protein.RotatedTorsions>
[ 6907 6896 6895 6894 ] final  123.26 input  -60.11 | X-H torsion
[ 7974 7965 7964 7962 ] final   55.26 input  175.53 | X-H torsion
[ 8008 7997 7996 7995 ] final  -94.22 input   59.86 | X-H torsion
[ 10167 10162 10161 10158 ] final  -55.79 input  -65.29 | X-H torsion
[ 10718 10713 10712 10709 ] final  -32.76 input   66.30 | X-H torsion
[ 10763 10752 10751 10750 ] final  -63.56 input  -60.55 | X-H torsion
[ 11005 11000 10999 10996 ] final  144.20 input  -57.11 | X-H torsion

> <Gold.Protein.ActiveResidues>
 VAL166  LYS551  ARG553  GLY616  TRP617  ASP618  TYR619  PRO620  LYS621  CYS622 
 ASP623  PHE694  ASN695  SER759  ASP760  ASP761  ALA762  ILE779  LEU786  VAL792 
 PHE793  MET794  SER795  GLU796  ALA797  LYS798  CYS799  TRP800  GLU811  SER814 

> <Gold.Protein.RotatedAtoms>
  152.4176  133.7064  159.6453 H   0  0  0  0  0  0  0  0  0  0  0  0  # atno 6907 bound_to 6896
  150.8053  133.8511  159.3214 H   0  0  0  0  0  0  0  0  0  0  0  0  # atno 6908 bound_to 6896
  151.6236  135.1031  160.0158 H   0  0  0  0  0  0  0  0  0  0  0  0  # atno 6909 bound_to 6896
  145.9523  139.3983  143.0298 H   0  0  0  0  0  0  0  0  0  0  0  0  # atno 7974 bound_to 7965
  154.7456  140.0491  157.0849 H   0  0  0  0  0  0  0  0  0  0  0  0  # atno 8008 bound_to 7997
  155.0122  140.3137  155.4806 H   0  0  0  0  0  0  0  0  0  0  0  0  # atno 8009 bound_to 7997
  156.2874  140.2182  156.5237 H   0  0  0  0  0  0  0  0  0  0  0  0  # atno 8010 bound_to 7997
  140.6354  143.2480  151.5131 H   0  0  0  0  0  0  0  0  0  0  0  0  # atno 10167 bound_to 10162
  156.3709  130.4339  149.7546 H   0  0  0  0  0  0  0  0  0  0  0  0  # atno 10718 bound_to 10713
  154.3169  135.6204  153.5490 H   0  0  0  0  0  0  0  0  0  0  0  0  # atno 10763 bound_to 10752
  152.9824  135.5714  154.5114 H   0  0  0  0  0  0  0  0  0  0  0  0  # atno 10764 bound_to 10752
  154.4774  135.2862  155.1573 H   0  0  0  0  0  0  0  0  0  0  0  0  # atno 10765 bound_to 10752
  140.0613  134.9203  157.1189 H   0  0  0  0  0  0  0  0  0  0  0  0  # atno 11005 bound_to 11000
  145.8154  140.9705  143.0927 LP  0  0  0  0  0  0  0  0  0  0  0  0  # atno 17320 bound_to 7965
  144.6798  139.9974  143.7484 LP  0  0  0  0  0  0  0  0  0  0  0  0  # atno 17321 bound_to 7965
  139.5565  144.2262  152.1621 LP  0  0  0  0  0  0  0  0  0  0  0  0  # atno 17342 bound_to 10162
  140.1517  144.5108  150.6683 LP  0  0  0  0  0  0  0  0  0  0  0  0  # atno 17343 bound_to 10162
  156.4674  130.7980  151.2999 LP  0  0  0  0  0  0  0  0  0  0  0  0  # atno 17370 bound_to 10713
  157.7484  131.0047  150.3084 LP  0  0  0  0  0  0  0  0  0  0  0  0  # atno 17371 bound_to 10713
  140.3766  134.2333  155.7174 LP  0  0  0  0  0  0  0  0  0  0  0  0  # atno 17394 bound_to 11000
  141.1974  133.8059  157.0628 LP  0  0  0  0  0  0  0  0  0  0  0  0  # atno 17395 bound_to 11000

$$$$
