AV-unprocessed.smi:922|AV-procd|sdf|4174|dock6
  -GOLD-   22720 2 83D 1   1.00000     0.00000
 Structure written by MMmdl.
 32 33  0  0  0  0  0  0  0  0  2 V2000
  153.5439  142.0282  161.2737 C   0  0  0  0  0  0  0  0  0  0  0  0
  152.8193  142.0653  159.9246 C   0  0  1  0  0  0  0  0  0  0  0  0
  152.2260  140.6933  159.5541 C   0  0  0  0  0  0  0  0  0  0  0  0
  151.4472  140.7920  158.3270 N   0  0  0  0  0  0  0  0  0  0  0  0
  151.6103  139.9810  157.2028 C   0  0  0  0  0  0  0  0  0  0  0  0
  151.5358  140.5888  155.8509 C   0  0  0  0  0  0  0  0  0  0  0  0
  151.6734  139.9123  154.7808 N   0  0  0  0  0  0  0  0  0  0  0  0
  151.9079  138.4876  154.8285 N   0  5  0  0  0  0  0  0  0  0  0  0
  152.0018  137.8481  156.0330 C   0  0  0  0  0  0  0  0  0  0  0  0
  152.2110  136.6385  156.1123 O   0  0  0  0  0  0  0  0  0  0  0  0
  151.8457  138.6394  157.2610 C   0  0  0  0  0  0  0  0  0  0  0  0
  152.0313  137.8024  158.7684 Cl  0  0  0  0  0  0  0  0  0  0  0  0
  150.3800  141.7759  158.4648 C   0  0  0  0  0  0  0  0  0  0  0  0
  150.9483  143.1620  158.8458 C   0  0  0  0  0  0  0  0  0  0  0  0
  151.7361  143.8041  157.6835 C   0  0  0  0  0  0  0  0  0  0  0  0
  149.8003  144.0970  159.2560 C   0  0  0  0  0  0  0  0  0  0  0  0
  151.7678  143.0281  160.0135 O   0  0  0  0  0  0  0  0  0  0  0  0
  154.3703  141.3173  161.2547 H   0  0  0  0  0  0  0  0  0  0  0  0
  152.8678  141.7357  162.0775 H   0  0  0  0  0  0  0  0  0  0  0  0
  153.9535  143.0076  161.5222 H   0  0  0  0  0  0  0  0  0  0  0  0
  153.5377  142.3802  159.1689 H   0  0  0  0  0  0  0  0  0  0  0  0
  153.0118  139.9446  159.4549 H   0  0  0  0  0  0  0  0  0  0  0  0
  151.5702  140.3428  160.3521 H   0  0  0  0  0  0  0  0  0  0  0  0
  151.3496  141.6655  155.8222 H   0  0  0  0  0  0  0  0  0  0  0  0
  149.8085  141.8564  157.5393 H   0  0  0  0  0  0  0  0  0  0  0  0
  149.6872  141.4253  159.2309 H   0  0  0  0  0  0  0  0  0  0  0  0
  151.0820  144.0059  156.8348 H   0  0  0  0  0  0  0  0  0  0  0  0
  152.5373  143.1630  157.3171 H   0  0  0  0  0  0  0  0  0  0  0  0
  152.1834  144.7506  157.9876 H   0  0  0  0  0  0  0  0  0  0  0  0
  149.1013  144.2513  158.4332 H   0  0  0  0  0  0  0  0  0  0  0  0
  150.1762  145.0743  159.5600 H   0  0  0  0  0  0  0  0  0  0  0  0
  149.2378  143.6868  160.0953 H   0  0  0  0  0  0  0  0  0  0  0  0
  1  2  1  0  0  0  0
  1 18  1  0  0  0  0
  1 19  1  0  0  0  0
  1 20  1  0  0  0  0
  2 17  1  0  0  0  0
  2  3  1  0  0  0  0
  2 21  1  0  0  0  0
  3  4  1  0  0  0  0
  3 22  1  0  0  0  0
  3 23  1  0  0  0  0
  4  5  1  0  0  0  0
  4 13  1  0  0  0  0
  5 11  2  0  0  0  0
  5  6  1  0  0  0  0
  6  7  2  0  0  0  0
  6 24  1  0  0  0  0
  7  8  1  0  0  0  0
  8  9  1  0  0  0  0
  9 10  2  0  0  0  0
  9 11  1  0  0  0  0
 11 12  1  0  0  0  0
 13 14  1  0  0  0  0
 13 25  1  0  0  0  0
 13 26  1  0  0  0  0
 14 15  1  0  0  0  0
 14 16  1  0  0  0  0
 14 17  1  0  0  0  0
 15 27  1  0  0  0  0
 15 28  1  0  0  0  0
 15 29  1  0  0  0  0
 16 30  1  0  0  0  0
 16 31  1  0  0  0  0
 16 32  1  0  0  0  0
M  CHG  1   8  -1
M  END
> <s_m_source_file>
AV-unprocessed.smi

> <i_m_source_file_index>
922

> <i_lp_mmshare_version>
43012

> <i_f3d_flags>
0

> <s_epik_input>
W0NIM11bQ0BASF0oTzEpW0NIMl1OKFtDSDJdQzEoW0NIM10pW0NIM10pYzJbY0hdbltuSF1jKD1PKWMyQ2w=

> <s_epik_cmdline>
J2VwaWtfcHl0aG9uJywgJy1waCcsICc3LjAnLCAnLXRuJywgJzgnLCAnLW1hJywgJzIwMCcsICctbWV0YWxfYmluZGluZycsICctaW1hZScsICc8aW5maWxlLm1hZT4nLCAnLW9tYWUnLCAnPG91dGZpbGUubWFlPic=

> <r_lp_tautomer_probability>
1

> <r_epik_Ionization_Penalty>
2.48086

> <r_epik_Ionization_Penalty_Charging>
0.00187014

> <r_epik_Ionization_Penalty_Neutral>
2.47899

> <r_epik_State_Penalty>
0.0455822

> <r_epik_Charging_Adjusted_Penalty>
0.0474524

> <i_epik_Tot_Q>
-1

> <i_epik_Tot_abs_Q>
1

> <r_epik_Metal_State_Penalty>
0.000768086

> <b_epik_Metal_Only>
0

> <s_lp_Force_Field>
OPLS_2005

> <r_lp_Energy>
41.3096

> <b_lp_Chiralities_Consistent>
1

> <s_lp_Variant>
AV-unprocessed.smi:922-2

> <Gold.Version>
5.8.1

> <Gold.Id.Protein>
6NUR|6NUR_protein|mol2

> <Gold.PLP.Fitness>
37.0076

> <Gold.PLP.PLP>
-31.4588

> <Gold.PLP.part.hbond>
-2.0000

> <Gold.PLP.part.metal>
0.0000

> <Gold.PLP.part.buried>
-5.7299

> <Gold.PLP.part.nonpolar>
-24.0484

> <Gold.PLP.part.repulsive>
0.1502

> <Gold.PLP.ligand.clash>
0.0000

> <Gold.PLP.ligand.torsion>
0.7108

> <Gold.PLP.Chemscore.Hbond>
2.0000

> <Gold.PLP.Chemscore.CHOScore>
0.0000

> <Gold.PLP.Chemscore.Metal>
0.0000

> <Gold.Chemscore.Hbonds>
donor molecule, donor type, donor heavy atom, donor atom, acceptor molecule, acceptor atom, score
      P1  H  7989  7998       L1     7  1.00
      P1  H 10752 10764       L1    10  1.00

> <Gold.PLP.Chemscore.Internal.Correction>
0.9704

> <Gold.Rescore>
     Score         DG    S(hbond)    S(metal)    S(lipo)     H(rot)  DE(clash)    DE(int)     intcor
     19.90     -21.66       1.87        0.00      84.78       0.00       0.00       1.76       ----

> <Gold.Chemscore.Fitness>
19.8983

> <Gold.Chemscore.DG>
-21.6570

> <Gold.Chemscore.ZeroCoef>
-5.4800

> <Gold.Chemscore.Hbond>
1.8736

> <Gold.Chemscore.Metal>
0.0000

> <Gold.Chemscore.Lipo>
84.7802

> <Gold.Chemscore.Internal_Hbond>
0.0000

> <Gold.Chemscore.DEClash>
0.0004

> <Gold.Chemscore.DEInternal>
1.7584

> <Gold.Chemscore.Rot>
0.0000

> <Gold.Chemscore.Internal.Correction>
   9.000000E+99

> <Gold.Chemscore.Hbonds>
donor molecule, donor type, donor heavy atom, donor atom, acceptor molecule, acceptor atom, score
      P1  H  7989  7998       L1     7  0.75
      P1  H 10752 10764       L1    10  0.98

> <Gold.Chemscore.Hbond.Weighted>
-6.2578

> <Gold.Chemscore.Metal.Weighted>
-0.0000

> <Gold.Chemscore.Lipo.Weighted>
-9.9193

> <Gold.Chemscore.Internal_Hbond.Weighted>
0.0000

> <Gold.Chemscore.DEClash.Weighted>
0.0004

> <Gold.Chemscore.DEInternal.Weighted>
1.7584

> <Gold.Chemscore.Rot.Weighted>
0.0000

> <Gold.Chemscore.Internal.Correction.Weighted>
   9.000000E+99

> <Gold.Protein.RotatedTorsions>
[ 6907 6896 6895 6894 ] final  162.19 input  -60.11 | X-H torsion
[ 7974 7965 7964 7962 ] final  157.75 input  175.53 | X-H torsion
[ 8008 7997 7996 7995 ] final -143.03 input   59.86 | X-H torsion
[ 10167 10162 10161 10158 ] final  114.06 input  -65.29 | X-H torsion
[ 10718 10713 10712 10709 ] final  159.85 input   66.30 | X-H torsion
[ 10763 10752 10751 10750 ] final  -37.48 input  -60.55 | X-H torsion
[ 11005 11000 10999 10996 ] final -146.93 input  -57.11 | X-H torsion

> <Gold.Protein.ActiveResidues>
 VAL166  LYS551  ARG553  GLY616  TRP617  ASP618  TYR619  PRO620  LYS621  CYS622 
 ASP623  PHE694  ASN695  SER759  ASP760  ASP761  ALA762  ILE779  LEU786  VAL792 
 PHE793  MET794  SER795  GLU796  ALA797  LYS798  CYS799  TRP800  GLU811  SER814 

> <Gold.Protein.RotatedAtoms>
  151.9442  133.3647  159.3975 H   0  0  0  0  0  0  0  0  0  0  0  0  # atno 6907 bound_to 6896
  150.6992  134.4408  159.5300 H   0  0  0  0  0  0  0  0  0  0  0  0  # atno 6908 bound_to 6896
  152.2070  134.8536  160.0552 H   0  0  0  0  0  0  0  0  0  0  0  0  # atno 6909 bound_to 6896
  144.7885  139.7384  143.6231 H   0  0  0  0  0  0  0  0  0  0  0  0  # atno 7974 bound_to 7965
  155.5040  140.0578  157.2934 H   0  0  0  0  0  0  0  0  0  0  0  0  # atno 8008 bound_to 7997
  154.4576  140.1981  156.0283 H   0  0  0  0  0  0  0  0  0  0  0  0  # atno 8009 bound_to 7997
  156.0830  140.3244  155.7721 H   0  0  0  0  0  0  0  0  0  0  0  0  # atno 8010 bound_to 7997
  139.6416  144.7124  151.2226 H   0  0  0  0  0  0  0  0  0  0  0  0  # atno 10167 bound_to 10162
  157.1585  131.0581  151.2244 H   0  0  0  0  0  0  0  0  0  0  0  0  # atno 10718 bound_to 10713
  153.8970  135.6806  153.4757 H   0  0  0  0  0  0  0  0  0  0  0  0  # atno 10763 bound_to 10752
  153.1150  135.4766  154.9097 H   0  0  0  0  0  0  0  0  0  0  0  0  # atno 10764 bound_to 10752
  154.7594  135.3206  154.8361 H   0  0  0  0  0  0  0  0  0  0  0  0  # atno 10765 bound_to 10752
  140.7769  134.3124  157.5058 H   0  0  0  0  0  0  0  0  0  0  0  0  # atno 11005 bound_to 11000
  146.2127  139.5495  142.9670 LP  0  0  0  0  0  0  0  0  0  0  0  0  # atno 17320 bound_to 7965
  145.5857  141.0376  143.2097 LP  0  0  0  0  0  0  0  0  0  0  0  0  # atno 17321 bound_to 7965
  140.7493  143.6302  150.8430 LP  0  0  0  0  0  0  0  0  0  0  0  0  # atno 17342 bound_to 10162
  139.9940  143.5816  152.2900 LP  0  0  0  0  0  0  0  0  0  0  0  0  # atno 17343 bound_to 10162
  157.4154  130.7408  149.6872 LP  0  0  0  0  0  0  0  0  0  0  0  0  # atno 17370 bound_to 10713
  155.9758  130.4084  150.3825 LP  0  0  0  0  0  0  0  0  0  0  0  0  # atno 17371 bound_to 10713
  139.8748  134.9295  156.3477 LP  0  0  0  0  0  0  0  0  0  0  0  0  # atno 17394 bound_to 11000
  140.9520  133.7444  156.0285 LP  0  0  0  0  0  0  0  0  0  0  0  0  # atno 17395 bound_to 11000

$$$$
