AV-unprocessed.smi:2285|AV-procd|sdf|9203|dock6
  -GOLD-   2272012423D 1   1.00000     0.00000
 Structure written by MMmdl.
 36 37  0  0  0  0  0  0  0  0  1 V2000
  146.9729  139.8711  152.3788 C   0  0  0  0  0  0  0  0  0  0  0  0
  146.9466  139.8071  153.9121 C   0  0  0  0  0  0  0  0  0  0  0  0
  147.4789  141.0683  154.5893 C   0  0  0  0  0  0  0  0  0  0  0  0
  148.9859  141.0170  154.8387 C   0  0  0  0  0  0  0  0  0  0  0  0
  149.5412  142.0715  155.6806 N   0  0  0  0  0  0  0  0  0  0  0  0
  150.0716  141.8844  156.8974 C   0  0  0  0  0  0  0  0  0  0  0  0
  150.1624  140.7769  157.4302 O   0  0  0  0  0  0  0  0  0  0  0  0
  150.4724  143.0555  157.4312 N   0  0  0  0  0  0  0  0  0  0  0  0
  151.0655  143.2788  158.6807 C   0  0  0  0  0  0  0  0  0  0  0  0
  150.7165  144.2524  159.4748 N   0  0  0  0  0  0  0  0  0  0  0  0
  151.3277  144.4446  160.7137 C   0  0  0  0  0  0  0  0  0  0  0  0
  152.3074  143.6245  161.1342 C   0  0  0  0  0  0  0  0  0  0  0  0
  152.7378  142.5555  160.3356 N   0  0  0  0  0  0  0  0  0  0  0  0
  153.8061  141.6930  160.8415 C   0  0  0  0  0  0  0  0  0  0  0  0
  152.1753  142.3187  159.1194 C   0  0  0  0  0  0  0  0  0  0  0  0
  152.5171  141.3898  158.3847 O   0  0  0  0  0  0  0  0  0  0  0  0
  146.8375  142.4021  154.2663 C   0  0  0  0  0  0  0  0  0  0  0  0
  146.6053  141.7622  155.6125 C   0  0  0  0  0  0  0  0  0  0  0  0
  146.6545  138.9214  151.9487 H   0  0  0  0  0  0  0  0  0  0  0  0
  147.9774  140.0814  152.0106 H   0  0  0  0  0  0  0  0  0  0  0  0
  146.3047  140.6426  151.9965 H   0  0  0  0  0  0  0  0  0  0  0  0
  145.9356  139.5996  154.2633 H   0  0  0  0  0  0  0  0  0  0  0  0
  147.5506  138.9578  154.2335 H   0  0  0  0  0  0  0  0  0  0  0  0
  149.2497  140.0458  155.2613 H   0  0  0  0  0  0  0  0  0  0  0  0
  149.4965  141.0612  153.8769 H   0  0  0  0  0  0  0  0  0  0  0  0
  149.5055  143.0116  155.3143 H   0  0  0  0  0  0  0  0  0  0  0  0
  150.3171  143.8716  156.8579 H   0  0  0  0  0  0  0  0  0  0  0  0
  150.9745  145.2761  161.3060 H   0  0  0  0  0  0  0  0  0  0  0  0
  152.8091  143.7327  162.0848 H   0  0  0  0  0  0  0  0  0  0  0  0
  154.6421  141.6647  160.1409 H   0  0  0  0  0  0  0  0  0  0  0  0
  153.4407  140.6741  160.9773 H   0  0  0  0  0  0  0  0  0  0  0  0
  154.1970  142.0328  161.8012 H   0  0  0  0  0  0  0  0  0  0  0  0
  147.4775  143.2816  154.2342 H   0  0  0  0  0  0  0  0  0  0  0  0
  146.0067  142.4098  153.5637 H   0  0  0  0  0  0  0  0  0  0  0  0
  145.6187  141.3450  155.8052 H   0  0  0  0  0  0  0  0  0  0  0  0
  147.0933  142.2149  156.4734 H   0  0  0  0  0  0  0  0  0  0  0  0
  1  2  1  0  0  0  0
  1 19  1  0  0  0  0
  1 20  1  0  0  0  0
  1 21  1  0  0  0  0
  2  3  1  0  0  0  0
  2 22  1  0  0  0  0
  2 23  1  0  0  0  0
  3 18  1  0  0  0  0
  3  4  1  0  0  0  0
  3 17  1  0  0  0  0
  4  5  1  0  0  0  0
  4 24  1  0  0  0  0
  4 25  1  0  0  0  0
  5  6  1  0  0  0  0
  5 26  1  0  0  0  0
  6  7  2  0  0  0  0
  6  8  1  0  0  0  0
  8  9  1  0  0  0  0
  8 27  1  0  0  0  0
  9 15  1  0  0  0  0
  9 10  2  0  0  0  0
 10 11  1  0  0  0  0
 11 12  2  0  0  0  0
 11 28  1  0  0  0  0
 12 13  1  0  0  0  0
 12 29  1  0  0  0  0
 13 14  1  0  0  0  0
 13 15  1  0  0  0  0
 14 30  1  0  0  0  0
 14 31  1  0  0  0  0
 14 32  1  0  0  0  0
 15 16  2  0  0  0  0
 17 18  1  0  0  0  0
 17 33  1  0  0  0  0
 17 34  1  0  0  0  0
 18 35  1  0  0  0  0
 18 36  1  0  0  0  0
M  END
> <s_m_source_file>
AV-unprocessed.smi

> <i_m_source_file_index>
2285

> <i_lp_mmshare_version>
43012

> <i_f3d_flags>
0

> <s_epik_input>
W0NIM11bQ0gyXUMxKFtDSDJdW0NIMl0xKVtDSDJdW05IXUMoPU8pW05IXWMybltjSF1bY0hdbihbQ0gzXSljMj1P

> <s_epik_cmdline>
J2VwaWtfcHl0aG9uJywgJy1waCcsICc3LjAnLCAnLXRuJywgJzgnLCAnLW1hJywgJzIwMCcsICctbWV0YWxfYmluZGluZycsICctaW1hZScsICc8aW5maWxlLm1hZT4nLCAnLW9tYWUnLCAnPG91dGZpbGUubWFlPic=

> <r_lp_tautomer_probability>
1

> <r_epik_Ionization_Penalty>
0.000603256

> <r_epik_Ionization_Penalty_Charging>
1.64466e-07

> <r_epik_Ionization_Penalty_Neutral>
0.000603092

> <r_epik_State_Penalty>
-0

> <r_epik_Charging_Adjusted_Penalty>
1.64466e-07

> <i_epik_Tot_Q>
0

> <i_epik_Tot_abs_Q>
0

> <r_epik_Metal_State_Penalty>
-0

> <b_epik_Metal_Only>
0

> <s_lp_Force_Field>
OPLS_2005

> <r_lp_Energy>
32.2968

> <b_lp_Chiralities_Consistent>
1

> <s_lp_Variant>
AV-unprocessed.smi:2285-1

> <Gold.Version>
5.8.1

> <Gold.Id.Protein>
6NUR|6NUR_protein|mol2

> <Gold.PLP.Fitness>
41.1694

> <Gold.PLP.PLP>
-37.9479

> <Gold.PLP.part.hbond>
-2.0000

> <Gold.PLP.part.metal>
0.0000

> <Gold.PLP.part.buried>
-1.7365

> <Gold.PLP.part.nonpolar>
-34.4124

> <Gold.PLP.part.repulsive>
0.3247

> <Gold.PLP.ligand.clash>
0.0000

> <Gold.PLP.ligand.torsion>
1.2571

> <Gold.PLP.Chemscore.Hbond>
1.5200

> <Gold.PLP.Chemscore.CHOScore>
0.0000

> <Gold.PLP.Chemscore.Metal>
0.0000

> <Gold.Chemscore.Hbonds>
donor molecule, donor type, donor heavy atom, donor atom, acceptor molecule, acceptor atom, score
      L1  H     5    26       P1  8028  0.88
      L1  H     8    27       P1  8028  0.82

> <Gold.PLP.Chemscore.Internal.Correction>
1.1758

> <Gold.Rescore>
     Score         DG    S(hbond)    S(metal)    S(lipo)     H(rot)  DE(clash)    DE(int)     intcor
     11.89     -15.60       1.84        0.00      66.48       1.49       0.19       3.52       ----

> <Gold.Chemscore.Fitness>
11.8900

> <Gold.Chemscore.DG>
-15.5991

> <Gold.Chemscore.ZeroCoef>
-5.4800

> <Gold.Chemscore.Hbond>
1.8401

> <Gold.Chemscore.Metal>
0.0000

> <Gold.Chemscore.Lipo>
66.4752

> <Gold.Chemscore.Internal_Hbond>
0.0000

> <Gold.Chemscore.DEClash>
0.1896

> <Gold.Chemscore.DEInternal>
3.5195

> <Gold.Chemscore.Rot>
1.4861

> <Gold.Chemscore.Internal.Correction>
   9.000000E+99

> <Gold.Chemscore.Hbonds>
donor molecule, donor type, donor heavy atom, donor atom, acceptor molecule, acceptor atom, score
      L1  H     5    26       P1  8028  0.87
      L1  H     8    27       P1  8028  0.77

> <Gold.Chemscore.Hbond.Weighted>
-6.1459

> <Gold.Chemscore.Metal.Weighted>
-0.0000

> <Gold.Chemscore.Lipo.Weighted>
-7.7776

> <Gold.Chemscore.Internal_Hbond.Weighted>
0.0000

> <Gold.Chemscore.DEClash.Weighted>
0.1896

> <Gold.Chemscore.DEInternal.Weighted>
3.5195

> <Gold.Chemscore.Rot.Weighted>
3.8044

> <Gold.Chemscore.Internal.Correction.Weighted>
   9.000000E+99

> <Gold.Protein.RotatedTorsions>
[ 6907 6896 6895 6894 ] final  142.79 input  -60.11 | X-H torsion
[ 7974 7965 7964 7962 ] final  133.70 input  175.53 | X-H torsion
[ 8008 7997 7996 7995 ] final  172.48 input   59.86 | X-H torsion
[ 10167 10162 10161 10158 ] final  -77.01 input  -65.29 | X-H torsion
[ 10718 10713 10712 10709 ] final   19.42 input   66.30 | X-H torsion
[ 10763 10752 10751 10750 ] final   72.26 input  -60.55 | X-H torsion
[ 11005 11000 10999 10996 ] final  -73.25 input  -57.11 | X-H torsion

> <Gold.Protein.ActiveResidues>
 VAL166  LYS551  ARG553  GLY616  TRP617  ASP618  TYR619  PRO620  LYS621  CYS622 
 ASP623  PHE694  ASN695  SER759  ASP760  ASP761  ALA762  ILE779  LEU786  VAL792 
 PHE793  MET794  SER795  GLU796  ALA797  LYS798  CYS799  TRP800  GLU811  SER814 

> <Gold.Protein.RotatedAtoms>
  152.2144  133.4935  159.5127 H   0  0  0  0  0  0  0  0  0  0  0  0  # atno 6907 bound_to 6896
  150.6997  134.1425  159.4119 H   0  0  0  0  0  0  0  0  0  0  0  0  # atno 6908 bound_to 6896
  151.9345  135.0241  160.0582 H   0  0  0  0  0  0  0  0  0  0  0  0  # atno 6909 bound_to 6896
  144.9838  139.4476  143.5373 H   0  0  0  0  0  0  0  0  0  0  0  0  # atno 7974 bound_to 7965
  156.1170  140.1485  156.9258 H   0  0  0  0  0  0  0  0  0  0  0  0  # atno 8008 bound_to 7997
  154.4808  140.0880  156.7414 H   0  0  0  0  0  0  0  0  0  0  0  0  # atno 8009 bound_to 7997
  155.4495  140.3434  155.4301 H   0  0  0  0  0  0  0  0  0  0  0  0  # atno 8010 bound_to 7997
  140.4807  143.2403  151.8062 H   0  0  0  0  0  0  0  0  0  0  0  0  # atno 10167 bound_to 10162
  157.1102  130.6505  149.5895 H   0  0  0  0  0  0  0  0  0  0  0  0  # atno 10718 bound_to 10713
  153.0448  135.5106  154.7717 H   0  0  0  0  0  0  0  0  0  0  0  0  # atno 10763 bound_to 10752
  154.6626  135.2941  154.9849 H   0  0  0  0  0  0  0  0  0  0  0  0  # atno 10764 bound_to 10752
  154.0695  135.6679  153.4875 H   0  0  0  0  0  0  0  0  0  0  0  0  # atno 10765 bound_to 10752
  141.1620  133.6872  156.7183 H   0  0  0  0  0  0  0  0  0  0  0  0  # atno 11005 bound_to 11000
  146.3415  139.9128  142.8778 LP  0  0  0  0  0  0  0  0  0  0  0  0  # atno 17320 bound_to 7965
  145.2382  140.9999  143.3951 LP  0  0  0  0  0  0  0  0  0  0  0  0  # atno 17321 bound_to 7965
  139.4833  144.4776  151.9347 LP  0  0  0  0  0  0  0  0  0  0  0  0  # atno 17342 bound_to 10162
  140.3861  144.2674  150.5904 LP  0  0  0  0  0  0  0  0  0  0  0  0  # atno 17343 bound_to 10162
  155.9852  130.4881  150.7021 LP  0  0  0  0  0  0  0  0  0  0  0  0  # atno 17370 bound_to 10713
  157.4566  131.0878  151.0790 LP  0  0  0  0  0  0  0  0  0  0  0  0  # atno 17371 bound_to 10713
  140.2835  134.8298  157.3954 LP  0  0  0  0  0  0  0  0  0  0  0  0  # atno 17394 bound_to 11000
  140.1412  134.4970  155.8030 LP  0  0  0  0  0  0  0  0  0  0  0  0  # atno 17395 bound_to 11000

$$$$
