AV-unprocessed.smi:2146|AV-procd|sdf|8739|dock5
  -GOLD-   2272011513D 1   1.00000     0.00000
 Structure written by MMmdl.
 44 45  0  0  0  0  0  0  0  0  1 V2000
  145.9183  142.8118  154.1207 C   0  0  0  0  0  0  0  0  0  0  0  0
  145.1737  142.2962  155.3795 C   0  0  1  0  0  0  0  0  0  0  0  0
  146.0944  142.4536  156.6240 C   0  0  0  0  0  0  0  0  0  0  0  0
  147.5106  142.2624  156.3193 N   0  0  0  0  0  0  0  0  0  0  0  0
  148.2650  141.2297  156.7265 C   0  0  0  0  0  0  0  0  0  0  0  0
  147.8248  140.2936  157.3949 O   0  0  0  0  0  0  0  0  0  0  0  0
  149.7421  141.2747  156.3112 C   0  0  0  0  0  0  0  0  0  0  0  0
  150.6525  141.4299  157.4574 N   0  0  0  0  0  0  0  0  0  0  0  0
  150.6403  142.6796  158.1071 C   0  0  0  0  0  0  0  0  0  0  0  0
  151.4121  142.9598  159.1741 C   0  0  0  0  0  0  0  0  0  0  0  0
  151.3216  144.2966  159.8931 C   0  0  0  0  0  0  0  0  0  0  0  0
  151.9560  144.2571  161.0650 F   0  0  0  0  0  0  0  0  0  0  0  0
  151.8809  145.2499  159.1493 F   0  0  0  0  0  0  0  0  0  0  0  0
  150.0513  144.6364  160.1156 F   0  0  0  0  0  0  0  0  0  0  0  0
  152.2586  141.8862  159.6567 C   0  0  0  0  0  0  0  0  0  0  0  0
  152.2720  140.6803  159.0555 C   0  0  0  0  0  0  0  0  0  0  0  0
  151.4356  140.3956  157.8872 C   0  0  0  0  0  0  0  0  0  0  0  0
  151.4374  139.2961  157.3334 O   0  0  0  0  0  0  0  0  0  0  0  0
  143.8450  142.9294  155.5570 N   0  0  0  0  0  0  0  0  0  0  0  0
  143.1401  142.4417  156.7488 C   0  0  0  0  0  0  0  0  0  0  0  0
  141.7717  143.1145  156.9527 C   0  0  0  0  0  0  0  0  0  0  0  0
  141.9371  144.5235  157.0269 O   0  0  0  0  0  0  0  0  0  0  0  0
  142.5425  145.0492  155.8543 C   0  0  0  0  0  0  0  0  0  0  0  0
  143.9178  144.3928  155.6416 C   0  0  0  0  0  0  0  0  0  0  0  0
  146.8947  142.3460  153.9955 H   0  0  0  0  0  0  0  0  0  0  0  0
  146.0724  143.8902  154.1679 H   0  0  0  0  0  0  0  0  0  0  0  0
  145.3861  142.5864  153.1980 H   0  0  0  0  0  0  0  0  0  0  0  0
  145.0177  141.2258  155.2357 H   0  0  0  0  0  0  0  0  0  0  0  0
  145.9151  143.4174  157.1032 H   0  0  0  0  0  0  0  0  0  0  0  0
  145.8728  141.6952  157.3728 H   0  0  0  0  0  0  0  0  0  0  0  0
  147.9557  142.9830  155.7695 H   0  0  0  0  0  0  0  0  0  0  0  0
  149.9695  140.3747  155.7380 H   0  0  0  0  0  0  0  0  0  0  0  0
  149.8939  142.1012  155.6143 H   0  0  0  0  0  0  0  0  0  0  0  0
  149.9468  143.3944  157.6875 H   0  0  0  0  0  0  0  0  0  0  0  0
  152.8949  142.0513  160.5136 H   0  0  0  0  0  0  0  0  0  0  0  0
  152.9149  139.9034  159.4427 H   0  0  0  0  0  0  0  0  0  0  0  0
  142.9566  141.3715  156.6768 H   0  0  0  0  0  0  0  0  0  0  0  0
  143.7571  142.5999  157.6347 H   0  0  0  0  0  0  0  0  0  0  0  0
  141.0916  142.8617  156.1378 H   0  0  0  0  0  0  0  0  0  0  0  0
  141.3100  142.7620  157.8752 H   0  0  0  0  0  0  0  0  0  0  0  0
  141.8950  144.8785  154.9928 H   0  0  0  0  0  0  0  0  0  0  0  0
  142.6513  146.1282  155.9637 H   0  0  0  0  0  0  0  0  0  0  0  0
  144.5874  144.6840  156.4521 H   0  0  0  0  0  0  0  0  0  0  0  0
  144.3269  144.8117  154.7244 H   0  0  0  0  0  0  0  0  0  0  0  0
  1  2  1  0  0  0  0
  1 25  1  0  0  0  0
  1 26  1  0  0  0  0
  1 27  1  0  0  0  0
  2  3  1  0  0  0  0
  2 19  1  0  0  0  0
  2 28  1  0  0  0  0
  3  4  1  0  0  0  0
  3 29  1  0  0  0  0
  3 30  1  0  0  0  0
  4  5  1  0  0  0  0
  4 31  1  0  0  0  0
  5  6  2  0  0  0  0
  5  7  1  0  0  0  0
  7  8  1  0  0  0  0
  7 32  1  0  0  0  0
  7 33  1  0  0  0  0
  8 17  1  0  0  0  0
  8  9  1  0  0  0  0
  9 10  2  0  0  0  0
  9 34  1  0  0  0  0
 10 11  1  0  0  0  0
 10 15  1  0  0  0  0
 11 12  1  0  0  0  0
 11 13  1  0  0  0  0
 11 14  1  0  0  0  0
 15 16  2  0  0  0  0
 15 35  1  0  0  0  0
 16 17  1  0  0  0  0
 16 36  1  0  0  0  0
 17 18  2  0  0  0  0
 19 24  1  0  0  0  0
 19 20  1  0  0  0  0
 20 21  1  0  0  0  0
 20 37  1  0  0  0  0
 20 38  1  0  0  0  0
 21 22  1  0  0  0  0
 21 39  1  0  0  0  0
 21 40  1  0  0  0  0
 22 23  1  0  0  0  0
 23 24  1  0  0  0  0
 23 41  1  0  0  0  0
 23 42  1  0  0  0  0
 24 43  1  0  0  0  0
 24 44  1  0  0  0  0
M  END
> <s_m_source_file>
AV-unprocessed.smi

> <i_m_source_file_index>
2146

> <i_lp_mmshare_version>
43012

> <i_f3d_flags>
0

> <s_epik_input>
W0NIMl0xW0NIMl1PW0NIMl1bQ0gyXU4xW0NASF0oW0NIM10pW0NIMl1bTkhdQyg9TylbQ0gyXW4yW2NIXWMoQyhGKShGKUYpW2NIXVtjSF1jMj1P

> <s_epik_cmdline>
J2VwaWtfcHl0aG9uJywgJy1waCcsICc3LjAnLCAnLXRuJywgJzgnLCAnLW1hJywgJzIwMCcsICctbWV0YWxfYmluZGluZycsICctaW1hZScsICc8aW5maWxlLm1hZT4nLCAnLW9tYWUnLCAnPG91dGZpbGUubWFlPic=

> <r_lp_tautomer_probability>
1

> <r_epik_Ionization_Penalty>
0.237382

> <r_epik_Ionization_Penalty_Charging>
1.80451e-08

> <r_epik_Ionization_Penalty_Neutral>
0.237382

> <r_epik_State_Penalty>
0.228245

> <r_epik_Charging_Adjusted_Penalty>
0.228245

> <i_epik_Tot_Q>
0

> <i_epik_Tot_abs_Q>
0

> <r_epik_Metal_State_Penalty>
0.22822

> <b_epik_Metal_Only>
0

> <s_lp_Force_Field>
OPLS_2005

> <r_lp_Energy>
40.9895

> <b_lp_Chiralities_Consistent>
1

> <s_lp_Variant>
AV-unprocessed.smi:2146-2

> <Gold.Version>
5.8.1

> <Gold.Id.Protein>
6NUR|6NUR_protein|mol2

> <Gold.PLP.Fitness>
45.8493

> <Gold.PLP.PLP>
-41.8958

> <Gold.PLP.part.hbond>
-1.0000

> <Gold.PLP.part.metal>
0.0000

> <Gold.PLP.part.buried>
-7.6246

> <Gold.PLP.part.nonpolar>
-33.7678

> <Gold.PLP.part.repulsive>
0.1636

> <Gold.PLP.ligand.clash>
0.0000

> <Gold.PLP.ligand.torsion>
0.7958

> <Gold.PLP.Chemscore.Hbond>
0.8160

> <Gold.PLP.Chemscore.CHOScore>
0.9990

> <Gold.PLP.Chemscore.Metal>
0.0000

> <Gold.Chemscore.Hbonds>
donor molecule, donor type, donor heavy atom, donor atom, acceptor molecule, acceptor atom, score
      L1  H     4    31       P1  8028  1.00
      L1  C     9    34       P1  8028  0.75

> <Gold.PLP.Chemscore.Internal.Correction>
0.1000

> <Gold.Rescore>
     Score         DG    S(hbond)    S(metal)    S(lipo)     H(rot)  DE(clash)    DE(int)     intcor
     11.09     -11.65       0.75        0.00      77.44       2.10       0.03       0.53       ----

> <Gold.Chemscore.Fitness>
11.0943

> <Gold.Chemscore.DG>
-11.6542

> <Gold.Chemscore.ZeroCoef>
-5.4800

> <Gold.Chemscore.Hbond>
0.7484

> <Gold.Chemscore.Metal>
0.0000

> <Gold.Chemscore.Lipo>
77.4394

> <Gold.Chemscore.Internal_Hbond>
0.0000

> <Gold.Chemscore.DEClash>
0.0293

> <Gold.Chemscore.DEInternal>
0.5306

> <Gold.Chemscore.Rot>
2.1039

> <Gold.Chemscore.Internal.Correction>
   9.000000E+99

> <Gold.Chemscore.Hbonds>
donor molecule, donor type, donor heavy atom, donor atom, acceptor molecule, acceptor atom, score
      L1  H     4    31       P1  8028  0.61

> <Gold.Chemscore.Hbond.Weighted>
-2.4997

> <Gold.Chemscore.Metal.Weighted>
-0.0000

> <Gold.Chemscore.Lipo.Weighted>
-9.0604

> <Gold.Chemscore.Internal_Hbond.Weighted>
0.0000

> <Gold.Chemscore.DEClash.Weighted>
0.0293

> <Gold.Chemscore.DEInternal.Weighted>
0.5306

> <Gold.Chemscore.Rot.Weighted>
5.3860

> <Gold.Chemscore.Internal.Correction.Weighted>
   9.000000E+99

> <Gold.Protein.RotatedTorsions>
[ 6907 6896 6895 6894 ] final  105.36 input  -60.11 | X-H torsion
[ 7974 7965 7964 7962 ] final -176.07 input  175.53 | X-H torsion
[ 8008 7997 7996 7995 ] final  -17.17 input   59.86 | X-H torsion
[ 10167 10162 10161 10158 ] final  -30.94 input  -65.29 | X-H torsion
[ 10718 10713 10712 10709 ] final   -8.19 input   66.30 | X-H torsion
[ 10763 10752 10751 10750 ] final   -8.85 input  -60.55 | X-H torsion
[ 11005 11000 10999 10996 ] final  -14.45 input  -57.11 | X-H torsion

> <Gold.Protein.ActiveResidues>
 VAL166  LYS551  ARG553  GLY616  TRP617  ASP618  TYR619  PRO620  LYS621  CYS622 
 ASP623  PHE694  ASN695  SER759  ASP760  ASP761  ALA762  ILE779  LEU786  VAL792 
 PHE793  MET794  SER795  GLU796  ALA797  LYS798  CYS799  TRP800  GLU811  SER814 

> <Gold.Protein.RotatedAtoms>
  152.5233  133.9540  159.7685 H   0  0  0  0  0  0  0  0  0  0  0  0  # atno 6907 bound_to 6896
  150.9844  133.6204  159.2724 H   0  0  0  0  0  0  0  0  0  0  0  0  # atno 6908 bound_to 6896
  151.3370  135.0861  159.9411 H   0  0  0  0  0  0  0  0  0  0  0  0  # atno 6909 bound_to 6896
  144.7127  140.1225  143.6404 H   0  0  0  0  0  0  0  0  0  0  0  0  # atno 7974 bound_to 7965
  154.4998  140.2150  155.9370 H   0  0  0  0  0  0  0  0  0  0  0  0  # atno 8008 bound_to 7997
  156.1419  140.3178  155.8476 H   0  0  0  0  0  0  0  0  0  0  0  0  # atno 8009 bound_to 7997
  155.4104  140.0490  157.3022 H   0  0  0  0  0  0  0  0  0  0  0  0  # atno 8010 bound_to 7997
  140.7243  143.3809  151.1603 H   0  0  0  0  0  0  0  0  0  0  0  0  # atno 10167 bound_to 10162
  156.7062  130.5108  149.5904 H   0  0  0  0  0  0  0  0  0  0  0  0  # atno 10718 bound_to 10713
  153.4464  135.7014  153.6136 H   0  0  0  0  0  0  0  0  0  0  0  0  # atno 10763 bound_to 10752
  153.4489  135.3762  155.2272 H   0  0  0  0  0  0  0  0  0  0  0  0  # atno 10764 bound_to 10752
  154.8728  135.3992  154.3870 H   0  0  0  0  0  0  0  0  0  0  0  0  # atno 10765 bound_to 10752
  140.7865  133.8322  155.9340 H   0  0  0  0  0  0  0  0  0  0  0  0  # atno 11005 bound_to 11000
  145.9358  139.2636  143.1298 LP  0  0  0  0  0  0  0  0  0  0  0  0  # atno 17320 bound_to 7965
  145.9475  140.8933  143.0276 LP  0  0  0  0  0  0  0  0  0  0  0  0  # atno 17321 bound_to 7965
  139.7398  143.8943  152.3046 LP  0  0  0  0  0  0  0  0  0  0  0  0  # atno 17342 bound_to 10162
  139.8760  144.7043  150.8933 LP  0  0  0  0  0  0  0  0  0  0  0  0  # atno 17343 bound_to 10162
  156.1693  130.6426  151.0818 LP  0  0  0  0  0  0  0  0  0  0  0  0  # atno 17370 bound_to 10713
  157.6954  131.0796  150.6984 LP  0  0  0  0  0  0  0  0  0  0  0  0  # atno 17371 bound_to 10713
  140.9432  134.1874  157.4783 LP  0  0  0  0  0  0  0  0  0  0  0  0  # atno 17394 bound_to 11000
  139.8736  134.9880  156.5392 LP  0  0  0  0  0  0  0  0  0  0  0  0  # atno 17395 bound_to 11000

$$$$
