AV-unprocessed.smi:1103|AV-procd|sdf|4774|dock7
  -GOLD-   22720 3313D 1   1.00000     0.00000
 Structure written by MMmdl.
 44 45  0  0  0  0  0  0  0  0  2 V2000
  144.0513  134.9545  150.7522 C   0  0  0  0  0  0  0  0  0  0  0  0
  145.5595  134.7581  150.9642 C   0  0  0  0  0  0  0  0  0  0  0  0
  146.1393  135.7389  151.9170 N   0  3  2  0  0  0  0  0  0  0  0  0
  145.6564  135.5185  153.3040 C   0  0  0  0  0  0  0  0  0  0  0  0
  146.3752  136.4481  154.2927 C   0  0  0  0  0  0  0  0  0  0  0  0
  146.1994  137.9164  153.8874 C   0  0  0  0  0  0  0  0  0  0  0  0
  146.6755  138.1381  152.4412 C   0  0  2  0  0  0  0  0  0  0  0  0
  146.4957  139.6159  152.0306 C   0  0  0  0  0  0  0  0  0  0  0  0
  147.5491  140.4674  152.5744 N   0  0  0  0  0  0  0  0  0  0  0  0
  147.6198  140.9048  153.8413 C   0  0  0  0  0  0  0  0  0  0  0  0
  146.8267  140.5734  154.7223 O   0  0  0  0  0  0  0  0  0  0  0  0
  148.7270  141.9113  154.1497 C   0  0  0  0  0  0  0  0  0  0  0  0
  149.7072  141.3211  155.0429 N   0  0  0  0  0  0  0  0  0  0  0  0
  150.0865  141.7470  156.2981 C   0  0  0  0  0  0  0  0  0  0  0  0
  151.0576  140.8964  156.7446 C   0  0  0  0  0  0  0  0  0  0  0  0
  151.8061  140.9306  158.0453 C   0  0  0  0  0  0  0  0  0  0  0  0
  151.2012  139.9668  155.6759 C   0  0  0  0  0  0  0  0  0  0  0  0
  150.3980  140.2263  154.6574 N   0  0  0  0  0  0  0  0  0  0  0  0
  145.9542  137.1523  151.4914 C   0  0  0  0  0  0  0  0  0  0  0  0
  143.6855  134.2915  149.9680 H   0  0  0  0  0  0  0  0  0  0  0  0
  143.8220  135.9774  150.4525 H   0  0  0  0  0  0  0  0  0  0  0  0
  143.4802  134.7294  151.6514 H   0  0  0  0  0  0  0  0  0  0  0  0
  145.7710  133.7416  151.2986 H   0  0  0  0  0  0  0  0  0  0  0  0
  146.0471  134.8715  149.9949 H   0  0  0  0  0  0  0  0  0  0  0  0
  144.5784  135.6829  153.3458 H   0  0  0  0  0  0  0  0  0  0  0  0
  145.8314  134.4827  153.5975 H   0  0  0  0  0  0  0  0  0  0  0  0
  145.9878  136.2917  155.3000 H   0  0  0  0  0  0  0  0  0  0  0  0
  147.4367  136.1993  154.3267 H   0  0  0  0  0  0  0  0  0  0  0  0
  145.1496  138.1985  153.9814 H   0  0  0  0  0  0  0  0  0  0  0  0
  146.7565  138.5571  154.5722 H   0  0  0  0  0  0  0  0  0  0  0  0
  147.7431  137.9138  152.4046 H   0  0  0  0  0  0  0  0  0  0  0  0
  146.4395  139.7047  150.9443 H   0  0  0  0  0  0  0  0  0  0  0  0
  145.5454  139.9895  152.4130 H   0  0  0  0  0  0  0  0  0  0  0  0
  148.2499  140.7952  151.9249 H   0  0  0  0  0  0  0  0  0  0  0  0
  149.2253  142.2124  153.2273 H   0  0  0  0  0  0  0  0  0  0  0  0
  148.3137  142.8136  154.6036 H   0  0  0  0  0  0  0  0  0  0  0  0
  149.6426  142.6160  156.7614 H   0  0  0  0  0  0  0  0  0  0  0  0
  152.5849  140.1689  158.0850 H   0  0  0  0  0  0  0  0  0  0  0  0
  151.1441  140.7595  158.8944 H   0  0  0  0  0  0  0  0  0  0  0  0
  152.2913  141.8940  158.2030 H   0  0  0  0  0  0  0  0  0  0  0  0
  151.8671  139.1194  155.6078 H   0  0  0  0  0  0  0  0  0  0  0  0
  146.3481  137.2719  150.4837 H   0  0  0  0  0  0  0  0  0  0  0  0
  144.8889  137.3848  151.4442 H   0  0  0  0  0  0  0  0  0  0  0  0
  147.1343  135.5660  151.9347 H   0  0  0  0  0  0  0  0  0  0  0  0
  1  2  1  0  0  0  0
  1 20  1  0  0  0  0
  1 21  1  0  0  0  0
  1 22  1  0  0  0  0
  2  3  1  0  0  0  0
  2 23  1  0  0  0  0
  2 24  1  0  0  0  0
  3 19  1  0  0  0  0
  3  4  1  0  0  0  0
  3 44  1  0  0  0  0
  4  5  1  0  0  0  0
  4 25  1  0  0  0  0
  4 26  1  0  0  0  0
  5  6  1  0  0  0  0
  5 27  1  0  0  0  0
  5 28  1  0  0  0  0
  6  7  1  0  0  0  0
  6 29  1  0  0  0  0
  6 30  1  0  0  0  0
  7  8  1  0  0  0  0
  7 19  1  0  0  0  0
  7 31  1  0  0  0  0
  8  9  1  0  0  0  0
  8 32  1  0  0  0  0
  8 33  1  0  0  0  0
  9 10  1  0  0  0  0
  9 34  1  0  0  0  0
 10 11  2  0  0  0  0
 10 12  1  0  0  0  0
 12 13  1  0  0  0  0
 12 35  1  0  0  0  0
 12 36  1  0  0  0  0
 13 18  1  0  0  0  0
 13 14  1  0  0  0  0
 14 15  2  0  0  0  0
 14 37  1  0  0  0  0
 15 16  1  0  0  0  0
 15 17  1  0  0  0  0
 16 38  1  0  0  0  0
 16 39  1  0  0  0  0
 16 40  1  0  0  0  0
 17 18  2  0  0  0  0
 17 41  1  0  0  0  0
 19 42  1  0  0  0  0
 19 43  1  0  0  0  0
M  CHG  1   3   1
M  END
> <s_m_source_file>
AV-unprocessed.smi

> <i_m_source_file_index>
1103

> <i_lp_mmshare_version>
43012

> <i_f3d_flags>
0

> <s_epik_input>
W0NIM11bQ0gyXU4xW0NIMl1bQ0gyXVtDSDJdW0NASF0oW0NIMl0xKVtDSDJdW05IXUMoPU8pW0NIMl1uMltjSF1jKFtDSDNdKVtjSF1uMg==

> <s_epik_cmdline>
J2VwaWtfcHl0aG9uJywgJy1waCcsICc3LjAnLCAnLXRuJywgJzgnLCAnLW1hJywgJzIwMCcsICctbWV0YWxfYmluZGluZycsICctaW1hZScsICc8aW5maWxlLm1hZT4nLCAnLW9tYWUnLCAnPG91dGZpbGUubWFlPic=

> <r_lp_tautomer_probability>
1

> <r_epik_Ionization_Penalty>
0.000672456

> <r_epik_Ionization_Penalty_Charging>
0.000647327

> <r_epik_Ionization_Penalty_Neutral>
2.51297e-05

> <r_epik_State_Penalty>
0.000409793

> <r_epik_Charging_Adjusted_Penalty>
0.00105712

> <i_epik_Tot_Q>
1

> <i_epik_Tot_abs_Q>
1

> <r_epik_Metal_State_Penalty>
-0

> <b_epik_Metal_Only>
0

> <s_lp_Force_Field>
OPLS_2005

> <r_lp_Energy>
16.1771

> <b_lp_Chiralities_Consistent>
1

> <s_lp_Variant>
AV-unprocessed.smi:1103-4

> <Gold.Version>
5.8.1

> <Gold.Id.Protein>
6NUR|6NUR_protein|mol2

> <Gold.PLP.Fitness>
43.5664

> <Gold.PLP.PLP>
-30.3482

> <Gold.PLP.part.hbond>
-2.7068

> <Gold.PLP.part.metal>
0.0000

> <Gold.PLP.part.buried>
7.5747

> <Gold.PLP.part.nonpolar>
-34.5622

> <Gold.PLP.part.repulsive>
0.3435

> <Gold.PLP.ligand.clash>
0.0000

> <Gold.PLP.ligand.torsion>
0.3953

> <Gold.PLP.Chemscore.Hbond>
3.6720

> <Gold.PLP.Chemscore.CHOScore>
0.9868

> <Gold.PLP.Chemscore.Metal>
0.0000

> <Gold.Chemscore.Hbonds>
donor molecule, donor type, donor heavy atom, donor atom, acceptor molecule, acceptor atom, score
      L1  H     3    44       P1  7948  2.00
      L1  H     9    34       P1  7957  0.69
      P1  H  7989  7998       L1    18  0.95
      L1  C    14    37       P1  8028  0.96

> <Gold.PLP.Chemscore.Internal.Correction>
0.0324

> <Gold.Rescore>
     Score         DG    S(hbond)    S(metal)    S(lipo)     H(rot)  DE(clash)    DE(int)     intcor
     14.28     -17.35       2.39        0.00      69.90       1.68       1.24       1.83       ----

> <Gold.Chemscore.Fitness>
14.2787

> <Gold.Chemscore.DG>
-17.3486

> <Gold.Chemscore.ZeroCoef>
-5.4800

> <Gold.Chemscore.Hbond>
2.3942

> <Gold.Chemscore.Metal>
0.0000

> <Gold.Chemscore.Lipo>
69.9014

> <Gold.Chemscore.Internal_Hbond>
0.0000

> <Gold.Chemscore.DEClash>
1.2448

> <Gold.Chemscore.DEInternal>
1.8250

> <Gold.Chemscore.Rot>
1.6823

> <Gold.Chemscore.Internal.Correction>
   9.000000E+99

> <Gold.Chemscore.Hbonds>
donor molecule, donor type, donor heavy atom, donor atom, acceptor molecule, acceptor atom, score
      L1  H     3    44       P1  7948  0.95
      L1  H     9    34       P1  7957  0.68
      P1  H  7989  7998       L1    18  0.10

> <Gold.Chemscore.Hbond.Weighted>
-7.9967

> <Gold.Chemscore.Metal.Weighted>
-0.0000

> <Gold.Chemscore.Lipo.Weighted>
-8.1785

> <Gold.Chemscore.Internal_Hbond.Weighted>
0.0000

> <Gold.Chemscore.DEClash.Weighted>
1.2448

> <Gold.Chemscore.DEInternal.Weighted>
1.8250

> <Gold.Chemscore.Rot.Weighted>
4.3066

> <Gold.Chemscore.Internal.Correction.Weighted>
   9.000000E+99

> <Gold.Protein.RotatedTorsions>
[ 6907 6896 6895 6894 ] final   15.12 input  -60.11 | X-H torsion
[ 7974 7965 7964 7962 ] final   14.04 input  175.53 | X-H torsion
[ 8008 7997 7996 7995 ] final   81.73 input   59.86 | X-H torsion
[ 10167 10162 10161 10158 ] final  -20.92 input  -65.29 | X-H torsion
[ 10718 10713 10712 10709 ] final -152.60 input   66.30 | X-H torsion
[ 10763 10752 10751 10750 ] final -161.27 input  -60.55 | X-H torsion
[ 11005 11000 10999 10996 ] final  -50.14 input  -57.11 | X-H torsion

> <Gold.Protein.ActiveResidues>
 VAL166  LYS551  ARG553  GLY616  TRP617  ASP618  TYR619  PRO620  LYS621  CYS622 
 ASP623  PHE694  ASN695  SER759  ASP760  ASP761  ALA762  ILE779  LEU786  VAL792 
 PHE793  MET794  SER795  GLU796  ALA797  LYS798  CYS799  TRP800  GLU811  SER814 

> <Gold.Protein.RotatedAtoms>
  151.8130  135.0675  160.0415 H   0  0  0  0  0  0  0  0  0  0  0  0  # atno 6907 bound_to 6896
  152.3006  133.5647  159.5624 H   0  0  0  0  0  0  0  0  0  0  0  0  # atno 6908 bound_to 6896
  150.7272  134.0213  159.3744 H   0  0  0  0  0  0  0  0  0  0  0  0  # atno 6909 bound_to 6896
  146.2315  139.9099  142.8526 H   0  0  0  0  0  0  0  0  0  0  0  0  # atno 7974 bound_to 7965
  155.9011  140.3433  155.6027 H   0  0  0  0  0  0  0  0  0  0  0  0  # atno 8008 bound_to 7997
  155.7499  140.0818  157.2225 H   0  0  0  0  0  0  0  0  0  0  0  0  # atno 8009 bound_to 7997
  154.4044  140.1555  156.2699 H   0  0  0  0  0  0  0  0  0  0  0  0  # atno 8010 bound_to 7997
  140.7279  143.4676  151.0291 H   0  0  0  0  0  0  0  0  0  0  0  0  # atno 10167 bound_to 10162
  156.4746  130.8274  151.2503 H   0  0  0  0  0  0  0  0  0  0  0  0  # atno 10718 bound_to 10713
  154.7318  135.3048  154.8879 H   0  0  0  0  0  0  0  0  0  0  0  0  # atno 10763 bound_to 10752
  153.9720  135.6740  153.4751 H   0  0  0  0  0  0  0  0  0  0  0  0  # atno 10764 bound_to 10752
  153.0925  135.4952  154.8638 H   0  0  0  0  0  0  0  0  0  0  0  0  # atno 10765 bound_to 10752
  141.0799  133.6656  156.3687 H   0  0  0  0  0  0  0  0  0  0  0  0  # atno 11005 bound_to 11000
  145.2240  140.9946  143.4029 LP  0  0  0  0  0  0  0  0  0  0  0  0  # atno 17320 bound_to 7965
  144.9586  139.4004  143.6367 LP  0  0  0  0  0  0  0  0  0  0  0  0  # atno 17321 bound_to 7965
  139.8366  143.7620  152.3180 LP  0  0  0  0  0  0  0  0  0  0  0  0  # atno 17342 bound_to 10162
  139.7754  144.7463  151.0164 LP  0  0  0  0  0  0  0  0  0  0  0  0  # atno 17343 bound_to 10162
  157.7488  131.0065  150.3153 LP  0  0  0  0  0  0  0  0  0  0  0  0  # atno 17370 bound_to 10713
  156.3583  130.3842  149.7272 LP  0  0  0  0  0  0  0  0  0  0  0  0  # atno 17371 bound_to 10713
  140.5491  134.6045  157.5402 LP  0  0  0  0  0  0  0  0  0  0  0  0  # atno 17394 bound_to 11000
  139.9612  134.7449  156.0232 LP  0  0  0  0  0  0  0  0  0  0  0  0  # atno 17395 bound_to 11000

$$$$
