AV-unprocessed.smi:2976|AV-procd|sdf|11365|dock3
  -GOLD-   2272016283D 1   1.00000     0.00000
 Structure written by MMmdl.
 40 41  0  0  0  0  0  0  0  0  1 V2000
  147.0363  140.0804  153.3442 C   0  0  0  0  0  0  0  0  0  0  0  0
  147.9399  140.4135  154.5433 C   0  0  2  0  0  0  0  0  0  0  0  0
  149.2074  141.1780  154.1109 C   0  0  0  0  0  0  0  0  0  0  0  0
  150.0512  141.5988  155.3244 C   0  0  0  0  0  0  0  0  0  0  0  0
  150.3937  140.3976  156.2189 C   0  0  0  0  0  0  0  0  0  0  0  0
  149.1231  139.6387  156.6485 C   0  0  2  0  0  0  0  0  0  0  0  0
  149.4843  138.5266  157.5254 N   0  0  0  0  0  0  0  0  0  0  0  0
  148.6792  137.9632  158.4391 C   0  0  0  0  0  0  0  0  0  0  0  0
  147.5201  138.3328  158.6346 O   0  0  0  0  0  0  0  0  0  0  0  0
  149.2858  136.7967  159.2336 C   0  0  0  0  0  0  0  0  0  0  0  0
  148.3113  136.0853  160.0742 N   0  0  0  0  0  0  0  0  0  0  0  0
  147.7414  136.8704  161.0610 N   0  0  0  0  0  0  0  0  0  0  0  0
  146.8907  136.3476  161.8752 C   0  0  0  0  0  0  0  0  0  0  0  0
  146.5006  134.9575  161.7945 C   0  0  0  0  0  0  0  0  0  0  0  0
  145.3550  134.3121  162.9163 Cl  0  0  0  0  0  0  0  0  0  0  0  0
  147.0599  134.1982  160.8190 C   0  0  0  0  0  0  0  0  0  0  0  0
  146.6431  132.5264  160.6594 Cl  0  0  0  0  0  0  0  0  0  0  0  0
  148.0329  134.7604  159.8719 C   0  0  0  0  0  0  0  0  0  0  0  0
  148.5609  134.1053  158.9725 O   0  0  0  0  0  0  0  0  0  0  0  0
  148.2870  139.1813  155.4206 C   0  0  2  0  0  0  0  0  0  0  0  0
  148.9449  138.0258  154.6308 C   0  0  0  0  0  0  0  0  0  0  0  0
  147.5601  139.4896  152.5930 H   0  0  0  0  0  0  0  0  0  0  0  0
  146.6899  140.9916  152.8560 H   0  0  0  0  0  0  0  0  0  0  0  0
  146.1543  139.5221  153.6586 H   0  0  0  0  0  0  0  0  0  0  0  0
  147.3621  141.0917  155.1735 H   0  0  0  0  0  0  0  0  0  0  0  0
  149.8081  140.5635  153.4397 H   0  0  0  0  0  0  0  0  0  0  0  0
  148.9292  142.0655  153.5416 H   0  0  0  0  0  0  0  0  0  0  0  0
  150.9670  142.0865  154.9894 H   0  0  0  0  0  0  0  0  0  0  0  0
  149.5033  142.3401  155.9075 H   0  0  0  0  0  0  0  0  0  0  0  0
  151.0729  139.7287  155.6894 H   0  0  0  0  0  0  0  0  0  0  0  0
  150.9347  140.7461  157.0996 H   0  0  0  0  0  0  0  0  0  0  0  0
  148.5164  140.3342  157.2324 H   0  0  0  0  0  0  0  0  0  0  0  0
  150.4193  138.1582  157.4285 H   0  0  0  0  0  0  0  0  0  0  0  0
  149.7424  136.1043  158.5240 H   0  0  0  0  0  0  0  0  0  0  0  0
  150.1090  137.1706  159.8453 H   0  0  0  0  0  0  0  0  0  0  0  0
  146.4193  136.9264  162.6697 H   0  0  0  0  0  0  0  0  0  0  0  0
  147.3423  138.7898  155.8007 H   0  0  0  0  0  0  0  0  0  0  0  0
  149.8920  138.3222  154.1817 H   0  0  0  0  0  0  0  0  0  0  0  0
  148.2977  137.6710  153.8294 H   0  0  0  0  0  0  0  0  0  0  0  0
  149.1405  137.1644  155.2691 H   0  0  0  0  0  0  0  0  0  0  0  0
  1  2  1  0  0  0  0
  1 22  1  0  0  0  0
  1 23  1  0  0  0  0
  1 24  1  0  0  0  0
  2 20  1  0  0  0  0
  2  3  1  0  0  0  0
  2 25  1  0  0  0  0
  3  4  1  0  0  0  0
  3 26  1  0  0  0  0
  3 27  1  0  0  0  0
  4  5  1  0  0  0  0
  4 28  1  0  0  0  0
  4 29  1  0  0  0  0
  5  6  1  0  0  0  0
  5 30  1  0  0  0  0
  5 31  1  0  0  0  0
  6  7  1  0  0  0  0
  6 20  1  0  0  0  0
  6 32  1  0  0  0  0
  7  8  1  0  0  0  0
  7 33  1  0  0  0  0
  8  9  2  0  0  0  0
  8 10  1  0  0  0  0
 10 11  1  0  0  0  0
 10 34  1  0  0  0  0
 10 35  1  0  0  0  0
 11 18  1  0  0  0  0
 11 12  1  0  0  0  0
 12 13  2  0  0  0  0
 13 14  1  0  0  0  0
 13 36  1  0  0  0  0
 14 15  1  0  0  0  0
 14 16  2  0  0  0  0
 16 17  1  0  0  0  0
 16 18  1  0  0  0  0
 18 19  2  0  0  0  0
 20 21  1  0  0  0  0
 20 37  1  0  0  0  0
 21 38  1  0  0  0  0
 21 39  1  0  0  0  0
 21 40  1  0  0  0  0
M  END
> <s_m_source_file>
AV-unprocessed.smi

> <i_m_source_file_index>
2976

> <i_lp_mmshare_version>
43012

> <i_f3d_flags>
0

> <s_epik_input>
W0NIM11bQ0BASF0xW0NIMl1bQ0gyXVtDSDJdW0NASF0oW0NASF0xW0NIM10pW05IXUMoPU8pW0NIMl1uMm5bY0hdYyhDbCljKENsKWMyPU8=

> <s_epik_cmdline>
J2VwaWtfcHl0aG9uJywgJy1waCcsICc3LjAnLCAnLXRuJywgJzgnLCAnLW1hJywgJzIwMCcsICctbWV0YWxfYmluZGluZycsICctaW1hZScsICc8aW5maWxlLm1hZT4nLCAnLW9tYWUnLCAnPG91dGZpbGUubWFlPic=

> <r_lp_tautomer_probability>
1

> <r_epik_Ionization_Penalty>
1.90777e-08

> <r_epik_Ionization_Penalty_Charging>
3.07942e-11

> <r_epik_Ionization_Penalty_Neutral>
1.90469e-08

> <r_epik_State_Penalty>
-0

> <r_epik_Charging_Adjusted_Penalty>
3.07942e-11

> <i_epik_Tot_Q>
0

> <i_epik_Tot_abs_Q>
0

> <r_epik_Metal_State_Penalty>
-0

> <b_epik_Metal_Only>
0

> <s_lp_Force_Field>
OPLS_2005

> <r_lp_Energy>
28.3124

> <b_lp_Chiralities_Consistent>
1

> <s_lp_Variant>
AV-unprocessed.smi:2976-7

> <Gold.Version>
5.8.1

> <Gold.Id.Protein>
6NUR|6NUR_protein|mol2

> <Gold.PLP.Fitness>
38.2889

> <Gold.PLP.PLP>
-30.4507

> <Gold.PLP.part.hbond>
-4.0000

> <Gold.PLP.part.metal>
0.0000

> <Gold.PLP.part.buried>
0.5189

> <Gold.PLP.part.nonpolar>
-26.7095

> <Gold.PLP.part.repulsive>
0.0744

> <Gold.PLP.ligand.clash>
0.0000

> <Gold.PLP.ligand.torsion>
0.3861

> <Gold.PLP.Chemscore.Hbond>
2.8656

> <Gold.PLP.Chemscore.CHOScore>
0.0000

> <Gold.PLP.Chemscore.Metal>
0.0000

> <Gold.Chemscore.Hbonds>
donor molecule, donor type, donor heavy atom, donor atom, acceptor molecule, acceptor atom, score
      P1  H  6896  6907       L1    19  0.80
      P1  H  6931  6943       L1    12  0.91
      P1  H  6934  6947       L1    12  0.47

> <Gold.PLP.Chemscore.Internal.Correction>
0.0135

> <Gold.Rescore>
     Score         DG    S(hbond)    S(metal)    S(lipo)     H(rot)  DE(clash)    DE(int)     intcor
     16.10     -17.92       2.01        0.00      81.39       1.49       0.13       1.69       ----

> <Gold.Chemscore.Fitness>
16.0960

> <Gold.Chemscore.DG>
-17.9168

> <Gold.Chemscore.ZeroCoef>
-5.4800

> <Gold.Chemscore.Hbond>
2.0120

> <Gold.Chemscore.Metal>
0.0000

> <Gold.Chemscore.Lipo>
81.3892

> <Gold.Chemscore.Internal_Hbond>
0.0000

> <Gold.Chemscore.DEClash>
0.1324

> <Gold.Chemscore.DEInternal>
1.6884

> <Gold.Chemscore.Rot>
1.4866

> <Gold.Chemscore.Internal.Correction>
   9.000000E+99

> <Gold.Chemscore.Hbonds>
donor molecule, donor type, donor heavy atom, donor atom, acceptor molecule, acceptor atom, score
      P1  H  6896  6907       L1    19  0.35
      P1  H  6931  6943       L1    12  0.67
      P1  H  6934  6947       L1    12  0.23

> <Gold.Chemscore.Hbond.Weighted>
-6.7199

> <Gold.Chemscore.Metal.Weighted>
-0.0000

> <Gold.Chemscore.Lipo.Weighted>
-9.5225

> <Gold.Chemscore.Internal_Hbond.Weighted>
0.0000

> <Gold.Chemscore.DEClash.Weighted>
0.1324

> <Gold.Chemscore.DEInternal.Weighted>
1.6884

> <Gold.Chemscore.Rot.Weighted>
3.8057

> <Gold.Chemscore.Internal.Correction.Weighted>
   9.000000E+99

> <Gold.Protein.RotatedTorsions>
[ 6907 6896 6895 6894 ] final  -92.27 input  -60.11 | X-H torsion
[ 7974 7965 7964 7962 ] final  161.00 input  175.53 | X-H torsion
[ 8008 7997 7996 7995 ] final  -69.33 input   59.86 | X-H torsion
[ 10167 10162 10161 10158 ] final  127.06 input  -65.29 | X-H torsion
[ 10718 10713 10712 10709 ] final   80.94 input   66.30 | X-H torsion
[ 10763 10752 10751 10750 ] final -159.03 input  -60.55 | X-H torsion
[ 11005 11000 10999 10996 ] final  137.11 input  -57.11 | X-H torsion

> <Gold.Protein.ActiveResidues>
 VAL166  LYS551  ARG553  GLY616  TRP617  ASP618  TYR619  PRO620  LYS621  CYS622 
 ASP623  PHE694  ASN695  SER759  ASP760  ASP761  ALA762  ILE779  LEU786  VAL792 
 PHE793  MET794  SER795  GLU796  ALA797  LYS798  CYS799  TRP800  GLU811  SER814 

> <Gold.Protein.RotatedAtoms>
  150.6904  134.2149  159.4373 H   0  0  0  0  0  0  0  0  0  0  0  0  # atno 6907 bound_to 6896
  152.0108  134.9874  160.0577 H   0  0  0  0  0  0  0  0  0  0  0  0  # atno 6908 bound_to 6896
  152.1490  133.4475  159.4841 H   0  0  0  0  0  0  0  0  0  0  0  0  # atno 6909 bound_to 6896
  144.7708  139.7836  143.6297 H   0  0  0  0  0  0  0  0  0  0  0  0  # atno 7974 bound_to 7965
  154.4931  140.0855  156.7637 H   0  0  0  0  0  0  0  0  0  0  0  0  # atno 8008 bound_to 7997
  155.4183  140.3444  155.4251 H   0  0  0  0  0  0  0  0  0  0  0  0  # atno 8009 bound_to 7997
  156.1357  140.1514  156.8986 H   0  0  0  0  0  0  0  0  0  0  0  0  # atno 8010 bound_to 7997
  139.5598  144.6874  151.4076 H   0  0  0  0  0  0  0  0  0  0  0  0  # atno 10167 bound_to 10162
  157.6820  130.9982  150.2153 H   0  0  0  0  0  0  0  0  0  0  0  0  # atno 10718 bound_to 10713
  154.7508  135.3092  154.8560 H   0  0  0  0  0  0  0  0  0  0  0  0  # atno 10763 bound_to 10752
  153.9348  135.6781  153.4749 H   0  0  0  0  0  0  0  0  0  0  0  0  # atno 10764 bound_to 10752
  153.1104  135.4869  154.8954 H   0  0  0  0  0  0  0  0  0  0  0  0  # atno 10765 bound_to 10752
  140.0092  134.9446  157.0240 H   0  0  0  0  0  0  0  0  0  0  0  0  # atno 11005 bound_to 11000
  146.1853  139.5065  142.9840 LP  0  0  0  0  0  0  0  0  0  0  0  0  # atno 17320 bound_to 7965
  145.6330  141.0300  143.1853 LP  0  0  0  0  0  0  0  0  0  0  0  0  # atno 17321 bound_to 7965
  140.6876  143.7937  150.7208 LP  0  0  0  0  0  0  0  0  0  0  0  0  # atno 17342 bound_to 10162
  140.1409  143.4441  152.2194 LP  0  0  0  0  0  0  0  0  0  0  0  0  # atno 17343 bound_to 10162
  156.2816  130.3734  149.7930 LP  0  0  0  0  0  0  0  0  0  0  0  0  # atno 17370 bound_to 10713
  156.5617  130.8386  151.3330 LP  0  0  0  0  0  0  0  0  0  0  0  0  # atno 17371 bound_to 10713
  140.4586  134.1508  155.7189 LP  0  0  0  0  0  0  0  0  0  0  0  0  # atno 17394 bound_to 11000
  141.1698  133.8630  157.1604 LP  0  0  0  0  0  0  0  0  0  0  0  0  # atno 17395 bound_to 11000

$$$$
