AV-unprocessed.smi:787|AV-procd|sdf|3727|dock3
  -GOLD-   22720 1153D 1   1.00000     0.00000
 Structure written by MMmdl.
 47 49  0  0  0  0  0  0  0  0  2 V2000
  151.0023  137.5970  153.5258 C   0  0  0  0  0  0  0  0  0  0  0  0
  149.7195  138.2796  153.4683 N   0  0  0  0  0  0  0  0  0  0  0  0
  149.4522  139.3677  154.3109 C   0  0  0  0  0  0  0  0  0  0  0  0
  150.4455  139.9035  155.0574 N   0  0  0  0  0  0  0  0  0  0  0  0
  150.1477  140.9480  155.8411 C   0  0  0  0  0  0  0  0  0  0  0  0
  148.9702  141.5698  156.0090 N   0  0  0  0  0  0  0  0  0  0  0  0
  147.9790  141.0447  155.2762 C   0  0  0  0  0  0  0  0  0  0  0  0
  146.6665  141.4836  155.2518 N   0  0  0  0  0  0  0  0  0  0  0  0
  146.1141  140.6388  154.3856 C   0  0  0  0  0  0  0  0  0  0  0  0
  146.9068  139.6884  153.8515 N   0  0  0  0  0  0  0  0  0  0  0  0
  146.5084  138.6596  152.9062 C   0  0  0  0  0  0  0  0  0  0  0  0
  145.3875  137.7507  153.4503 C   0  0  2  0  0  0  0  0  0  0  0  0
  145.5459  137.6573  154.8511 O   0  0  0  0  0  0  0  0  0  0  0  0
  145.3836  136.3267  152.8506 C   0  0  0  0  0  0  0  0  0  0  0  0
  144.2089  136.1036  151.9713 N   0  3  2  0  0  0  0  0  0  0  0  0
  143.1570  135.2967  152.6318 C   0  0  0  0  0  0  0  0  0  0  0  0
  144.5740  135.5765  150.6313 C   0  0  0  0  0  0  0  0  0  0  0  0
  144.7629  134.0717  150.6641 C   0  0  0  0  0  0  0  0  0  0  0  0
  143.7913  133.2142  150.1052 C   0  0  0  0  0  0  0  0  0  0  0  0
  143.9781  131.8184  150.1371 C   0  0  0  0  0  0  0  0  0  0  0  0
  145.1350  131.2754  150.7284 C   0  0  0  0  0  0  0  0  0  0  0  0
  146.1050  132.1282  151.2895 C   0  0  0  0  0  0  0  0  0  0  0  0
  145.9193  133.5239  151.2582 C   0  0  0  0  0  0  0  0  0  0  0  0
  148.1628  139.9285  154.4053 C   0  0  0  0  0  0  0  0  0  0  0  0
  151.0274  136.7907  152.7928 H   0  0  0  0  0  0  0  0  0  0  0  0
  151.1673  137.1659  154.5136 H   0  0  0  0  0  0  0  0  0  0  0  0
  151.8174  138.2861  153.3027 H   0  0  0  0  0  0  0  0  0  0  0  0
  149.0485  138.0039  152.7659 H   0  0  0  0  0  0  0  0  0  0  0  0
  150.9697  141.3451  156.4182 H   0  0  0  0  0  0  0  0  0  0  0  0
  145.0659  140.7078  154.1334 H   0  0  0  0  0  0  0  0  0  0  0  0
  146.1846  139.1459  151.9844 H   0  0  0  0  0  0  0  0  0  0  0  0
  147.3895  138.0696  152.6507 H   0  0  0  0  0  0  0  0  0  0  0  0
  144.4293  138.2332  153.2666 H   0  0  0  0  0  0  0  0  0  0  0  0
  145.8997  138.4728  155.1734 H   0  0  0  0  0  0  0  0  0  0  0  0
  146.2876  136.1329  152.2717 H   0  0  0  0  0  0  0  0  0  0  0  0
  145.3885  135.6047  153.6688 H   0  0  0  0  0  0  0  0  0  0  0  0
  143.5172  134.2911  152.8527 H   0  0  0  0  0  0  0  0  0  0  0  0
  142.2722  135.2121  152.0006 H   0  0  0  0  0  0  0  0  0  0  0  0
  142.8444  135.7613  153.5674 H   0  0  0  0  0  0  0  0  0  0  0  0
  143.7950  135.7919  149.8999 H   0  0  0  0  0  0  0  0  0  0  0  0
  145.4739  136.0708  150.2619 H   0  0  0  0  0  0  0  0  0  0  0  0
  142.9017  133.6226  149.6487 H   0  0  0  0  0  0  0  0  0  0  0  0
  143.2338  131.1637  149.7080 H   0  0  0  0  0  0  0  0  0  0  0  0
  145.2779  130.2051  150.7522 H   0  0  0  0  0  0  0  0  0  0  0  0
  146.9919  131.7112  151.7437 H   0  0  0  0  0  0  0  0  0  0  0  0
  146.6680  134.1727  151.6890 H   0  0  0  0  0  0  0  0  0  0  0  0
  143.8084  137.0190  151.8205 H   0  0  0  0  0  0  0  0  0  0  0  0
  1  2  1  0  0  0  0
  1 25  1  0  0  0  0
  1 26  1  0  0  0  0
  1 27  1  0  0  0  0
  2  3  1  0  0  0  0
  2 28  1  0  0  0  0
  3 24  1  0  0  0  0
  3  4  2  0  0  0  0
  4  5  1  0  0  0  0
  5  6  2  0  0  0  0
  5 29  1  0  0  0  0
  6  7  1  0  0  0  0
  7 24  2  0  0  0  0
  7  8  1  0  0  0  0
  8  9  2  0  0  0  0
  9 10  1  0  0  0  0
  9 30  1  0  0  0  0
 10 11  1  0  0  0  0
 10 24  1  0  0  0  0
 11 12  1  0  0  0  0
 11 31  1  0  0  0  0
 11 32  1  0  0  0  0
 12 13  1  0  0  0  0
 12 14  1  0  0  0  0
 12 33  1  0  0  0  0
 13 34  1  0  0  0  0
 14 15  1  0  0  0  0
 14 35  1  0  0  0  0
 14 36  1  0  0  0  0
 15 16  1  0  0  0  0
 15 17  1  0  0  0  0
 15 47  1  0  0  0  0
 16 37  1  0  0  0  0
 16 38  1  0  0  0  0
 16 39  1  0  0  0  0
 17 18  1  0  0  0  0
 17 40  1  0  0  0  0
 17 41  1  0  0  0  0
 18 23  1  0  0  0  0
 18 19  2  0  0  0  0
 19 20  1  0  0  0  0
 19 42  1  0  0  0  0
 20 21  2  0  0  0  0
 20 43  1  0  0  0  0
 21 22  1  0  0  0  0
 21 44  1  0  0  0  0
 22 23  2  0  0  0  0
 22 45  1  0  0  0  0
 23 46  1  0  0  0  0
M  CHG  1  15   1
M  END
> <s_m_source_file>
AV-unprocessed.smi

> <i_m_source_file_index>
787

> <i_lp_mmshare_version>
43012

> <i_f3d_flags>
0

> <s_epik_input>
bjFbY0hdbmMoW05IXVtDSDNdKWMoYzEyKW4oW2NIXW4yKVtDSDJdW0NASF0oW09IXSlbQ0gyXU4oW0NIM10pW0NIMl1jM1tjSF1bY0hdW2NIXVtjSF1bY0hdMw==

> <s_epik_cmdline>
J2VwaWtfcHl0aG9uJywgJy1waCcsICc3LjAnLCAnLXRuJywgJzgnLCAnLW1hJywgJzIwMCcsICctbWV0YWxfYmluZGluZycsICctaW1hZScsICc8aW5maWxlLm1hZT4nLCAnLW9tYWUnLCAnPG91dGZpbGUubWFlPic=

> <r_lp_tautomer_probability>
0.999987

> <r_epik_Ionization_Penalty>
0.0526284

> <r_epik_Ionization_Penalty_Charging>
0.0475377

> <r_epik_Ionization_Penalty_Neutral>
0.00509065

> <r_epik_State_Penalty>
0.0404888

> <r_epik_Charging_Adjusted_Penalty>
0.0880265

> <i_epik_Tot_Q>
1

> <i_epik_Tot_abs_Q>
1

> <r_epik_Metal_State_Penalty>
0.040507

> <b_epik_Metal_Only>
0

> <s_lp_Force_Field>
OPLS_2005

> <r_lp_Energy>
15.7703

> <b_lp_Chiralities_Consistent>
1

> <s_lp_Variant>
AV-unprocessed.smi:787-3

> <Gold.Version>
5.8.1

> <Gold.Id.Protein>
6NUR|6NUR_protein|mol2

> <Gold.PLP.Fitness>
48.0023

> <Gold.PLP.PLP>
-42.4917

> <Gold.PLP.part.hbond>
-3.5835

> <Gold.PLP.part.metal>
0.0000

> <Gold.PLP.part.buried>
-0.3991

> <Gold.PLP.part.nonpolar>
-40.9944

> <Gold.PLP.part.repulsive>
2.2342

> <Gold.PLP.ligand.clash>
0.0000

> <Gold.PLP.ligand.torsion>
2.0669

> <Gold.PLP.Chemscore.Hbond>
2.0994

> <Gold.PLP.Chemscore.CHOScore>
1.0000

> <Gold.PLP.Chemscore.Metal>
0.0000

> <Gold.Chemscore.Hbonds>
donor molecule, donor type, donor heavy atom, donor atom, acceptor molecule, acceptor atom, score
      L1  H     2    28       P1  7948  0.51
      P1  H  7989  7998       L1     4  0.62
      L1  C     9    30       P1 10175  1.00

> <Gold.PLP.Chemscore.Internal.Correction>
0.3462

> <Gold.Rescore>
     Score         DG    S(hbond)    S(metal)    S(lipo)     H(rot)  DE(clash)    DE(int)     intcor
     11.01     -14.27       1.85        0.00      92.11       3.19       1.24       2.03       ----

> <Gold.Chemscore.Fitness>
11.0089

> <Gold.Chemscore.DG>
-14.2720

> <Gold.Chemscore.ZeroCoef>
-5.4800

> <Gold.Chemscore.Hbond>
1.8528

> <Gold.Chemscore.Metal>
0.0000

> <Gold.Chemscore.Lipo>
92.1146

> <Gold.Chemscore.Internal_Hbond>
0.0000

> <Gold.Chemscore.DEClash>
1.2365

> <Gold.Chemscore.DEInternal>
2.0266

> <Gold.Chemscore.Rot>
3.1928

> <Gold.Chemscore.Internal.Correction>
   9.000000E+99

> <Gold.Chemscore.Hbonds>
donor molecule, donor type, donor heavy atom, donor atom, acceptor molecule, acceptor atom, score
      L1  H     2    28       P1  7948  0.51
      P1  H  7989  7998       L1     4  0.05

> <Gold.Chemscore.Hbond.Weighted>
-6.1882

> <Gold.Chemscore.Metal.Weighted>
-0.0000

> <Gold.Chemscore.Lipo.Weighted>
-10.7774

> <Gold.Chemscore.Internal_Hbond.Weighted>
0.0000

> <Gold.Chemscore.DEClash.Weighted>
1.2365

> <Gold.Chemscore.DEInternal.Weighted>
2.0266

> <Gold.Chemscore.Rot.Weighted>
8.1736

> <Gold.Chemscore.Internal.Correction.Weighted>
   9.000000E+99

> <Gold.Protein.RotatedTorsions>
[ 6907 6896 6895 6894 ] final   27.28 input  -60.11 | X-H torsion
[ 7974 7965 7964 7962 ] final   54.91 input  175.53 | X-H torsion
[ 8008 7997 7996 7995 ] final  -61.89 input   59.86 | X-H torsion
[ 10167 10162 10161 10158 ] final   18.68 input  -65.29 | X-H torsion
[ 10718 10713 10712 10709 ] final   73.08 input   66.30 | X-H torsion
[ 10763 10752 10751 10750 ] final   31.16 input  -60.55 | X-H torsion
[ 11005 11000 10999 10996 ] final   97.37 input  -57.11 | X-H torsion

> <Gold.Protein.ActiveResidues>
 VAL166  LYS551  ARG553  GLY616  TRP617  ASP618  TYR619  PRO620  LYS621  CYS622 
 ASP623  PHE694  ASN695  SER759  ASP760  ASP761  ALA762  ILE779  LEU786  VAL792 
 PHE793  MET794  SER795  GLU796  ALA797  LYS798  CYS799  TRP800  GLU811  SER814 

> <Gold.Protein.RotatedAtoms>
  151.9999  134.9934  160.0564 H   0  0  0  0  0  0  0  0  0  0  0  0  # atno 6907 bound_to 6896
  152.1529  133.4528  159.4831 H   0  0  0  0  0  0  0  0  0  0  0  0  # atno 6908 bound_to 6896
  150.6878  134.2084  159.4393 H   0  0  0  0  0  0  0  0  0  0  0  0  # atno 6909 bound_to 6896
  145.9559  139.4014  143.0277 H   0  0  0  0  0  0  0  0  0  0  0  0  # atno 7974 bound_to 7965
  154.4471  140.1008  156.6502 H   0  0  0  0  0  0  0  0  0  0  0  0  # atno 8008 bound_to 7997
  155.5406  140.3483  155.4427 H   0  0  0  0  0  0  0  0  0  0  0  0  # atno 8009 bound_to 7997
  156.0600  140.1324  156.9941 H   0  0  0  0  0  0  0  0  0  0  0  0  # atno 8010 bound_to 7997
  140.5635  143.9293  150.6660 H   0  0  0  0  0  0  0  0  0  0  0  0  # atno 10167 bound_to 10162
  157.6531  130.9611  150.1019 H   0  0  0  0  0  0  0  0  0  0  0  0  # atno 10718 bound_to 10713
  153.0331  135.6446  154.1156 H   0  0  0  0  0  0  0  0  0  0  0  0  # atno 10763 bound_to 10752
  154.0875  135.2869  155.3280 H   0  0  0  0  0  0  0  0  0  0  0  0  # atno 10764 bound_to 10752
  154.6488  135.5433  153.7940 H   0  0  0  0  0  0  0  0  0  0  0  0  # atno 10765 bound_to 10752
  139.8776  134.8997  156.4297 H   0  0  0  0  0  0  0  0  0  0  0  0  # atno 11005 bound_to 11000
  145.8107  140.9727  143.0950 LP  0  0  0  0  0  0  0  0  0  0  0  0  # atno 17320 bound_to 7965
  144.6805  139.9917  143.7484 LP  0  0  0  0  0  0  0  0  0  0  0  0  # atno 17321 bound_to 7965
  140.2750  143.3429  152.1203 LP  0  0  0  0  0  0  0  0  0  0  0  0  # atno 17342 bound_to 10162
  139.5082  144.6845  151.5923 LP  0  0  0  0  0  0  0  0  0  0  0  0  # atno 17343 bound_to 10162
  156.1939  130.3656  149.8874 LP  0  0  0  0  0  0  0  0  0  0  0  0  # atno 17370 bound_to 10713
  156.6795  130.8852  151.3574 LP  0  0  0  0  0  0  0  0  0  0  0  0  # atno 17371 bound_to 10713
  140.9075  133.7735  155.9752 LP  0  0  0  0  0  0  0  0  0  0  0  0  # atno 17394 bound_to 11000
  140.8583  134.2871  157.5246 LP  0  0  0  0  0  0  0  0  0  0  0  0  # atno 17395 bound_to 11000

$$$$
