AV-unprocessed.smi:2521|AV-procd|sdf|9917|dock10
  -GOLD-   2272013553D 1   1.00000     0.00000
 Structure written by MMmdl.
 35 36  0  0  0  0  0  0  0  0  2 V2000
  152.8048  142.6578  161.9796 C   0  0  0  0  0  0  0  0  0  0  0  0
  152.8507  143.0799  160.5038 C   0  0  0  0  0  0  0  0  0  0  0  0
  151.8257  144.1692  160.1559 C   0  0  0  0  0  0  0  0  0  0  0  0
  152.7645  141.9072  159.5773 C   0  0  0  0  0  0  0  0  0  0  0  0
  153.7064  140.9643  159.5020 N   0  0  0  0  0  0  0  0  0  0  0  0
  153.3912  139.9839  158.5746 N   0  0  0  0  0  0  0  0  0  0  0  0
  152.2159  140.1882  157.9512 C   0  0  0  0  0  0  0  0  0  0  0  0
  151.6595  139.3950  157.0080 N   0  5  0  0  0  0  0  0  0  0  0  0
  151.1981  139.8114  155.8009 C   0  0  0  0  0  0  0  0  0  0  0  0
  151.6768  139.5729  154.6904 O   0  0  0  0  0  0  0  0  0  0  0  0
  150.0935  140.5646  155.8899 N   0  0  0  0  0  0  0  0  0  0  0  0
  149.3795  141.1476  154.7605 C   0  0  0  0  0  0  0  0  0  0  0  0
  147.9630  141.5824  155.1697 C   0  0  2  0  0  0  0  0  0  0  0  0
  147.0506  140.4491  155.5960 C   0  0  0  0  0  0  0  0  0  0  0  0
  145.6709  141.0859  155.4574 C   0  0  0  0  0  0  0  0  0  0  0  0
  145.7836  142.0417  154.4062 O   0  0  0  0  0  0  0  0  0  0  0  0
  147.1494  142.2002  154.0334 C   0  0  0  0  0  0  0  0  0  0  0  0
  151.4057  141.6569  158.4948 S   0  0  0  0  0  0  0  0  0  0  0  0
  153.6012  141.9492  162.2088 H   0  0  0  0  0  0  0  0  0  0  0  0
  151.8546  142.1832  162.2274 H   0  0  0  0  0  0  0  0  0  0  0  0
  152.9278  143.5180  162.6379 H   0  0  0  0  0  0  0  0  0  0  0  0
  153.8339  143.5240  160.3439 H   0  0  0  0  0  0  0  0  0  0  0  0
  151.9451  144.5037  159.1249 H   0  0  0  0  0  0  0  0  0  0  0  0
  151.9431  145.0398  160.8017 H   0  0  0  0  0  0  0  0  0  0  0  0
  150.8045  143.8050  160.2720 H   0  0  0  0  0  0  0  0  0  0  0  0
  149.7228  140.7444  156.8114 H   0  0  0  0  0  0  0  0  0  0  0  0
  149.9382  142.0081  154.3894 H   0  0  0  0  0  0  0  0  0  0  0  0
  149.3324  140.4207  153.9479 H   0  0  0  0  0  0  0  0  0  0  0  0
  148.0258  142.3066  155.9840 H   0  0  0  0  0  0  0  0  0  0  0  0
  147.1443  139.6062  154.9096 H   0  0  0  0  0  0  0  0  0  0  0  0
  147.2519  140.0907  156.6059 H   0  0  0  0  0  0  0  0  0  0  0  0
  144.8941  140.3507  155.2463 H   0  0  0  0  0  0  0  0  0  0  0  0
  145.4001  141.6108  156.3743 H   0  0  0  0  0  0  0  0  0  0  0  0
  147.3969  143.2485  153.8649 H   0  0  0  0  0  0  0  0  0  0  0  0
  147.3149  141.6603  153.1000 H   0  0  0  0  0  0  0  0  0  0  0  0
  1  2  1  0  0  0  0
  1 19  1  0  0  0  0
  1 20  1  0  0  0  0
  1 21  1  0  0  0  0
  2  3  1  0  0  0  0
  2  4  1  0  0  0  0
  2 22  1  0  0  0  0
  3 23  1  0  0  0  0
  3 24  1  0  0  0  0
  3 25  1  0  0  0  0
  4 18  1  0  0  0  0
  4  5  2  0  0  0  0
  5  6  1  0  0  0  0
  6  7  2  0  0  0  0
  7  8  1  0  0  0  0
  7 18  1  0  0  0  0
  8  9  1  0  0  0  0
  9 10  2  0  0  0  0
  9 11  1  0  0  0  0
 11 12  1  0  0  0  0
 11 26  1  0  0  0  0
 12 13  1  0  0  0  0
 12 27  1  0  0  0  0
 12 28  1  0  0  0  0
 13 17  1  0  0  0  0
 13 14  1  0  0  0  0
 13 29  1  0  0  0  0
 14 15  1  0  0  0  0
 14 30  1  0  0  0  0
 14 31  1  0  0  0  0
 15 16  1  0  0  0  0
 15 32  1  0  0  0  0
 15 33  1  0  0  0  0
 16 17  1  0  0  0  0
 17 34  1  0  0  0  0
 17 35  1  0  0  0  0
M  CHG  1   8  -1
M  END
> <s_m_source_file>
AV-unprocessed.smi

> <i_m_source_file_index>
2521

> <i_lp_mmshare_version>
43012

> <i_f3d_flags>
0

> <s_epik_input>
W0NIM11bQ0hdKFtDSDNdKWMxbm5jKHMxKVtOSF1DKD1PKVtOSF1bQ0gyXVtDQEBIXTJbQ0gyXVtDSDJdT1tDSDJdMg==

> <s_epik_cmdline>
J2VwaWtfcHl0aG9uJywgJy1waCcsICc3LjAnLCAnLXRuJywgJzgnLCAnLW1hJywgJzIwMCcsICctbWV0YWxfYmluZGluZycsICctaW1hZScsICc8aW5maWxlLm1hZT4nLCAnLW9tYWUnLCAnPG91dGZpbGUubWFlPic=

> <r_lp_tautomer_probability>
1

> <r_epik_Ionization_Penalty>
4.4451

> <r_epik_Ionization_Penalty_Charging>
4.28522

> <r_epik_Ionization_Penalty_Neutral>
0.159875

> <r_epik_State_Penalty>
4.28479

> <r_epik_Charging_Adjusted_Penalty>
8.57002

> <i_epik_Tot_Q>
-1

> <i_epik_Tot_abs_Q>
1

> <r_epik_Metal_State_Penalty>
0.721771

> <b_epik_Metal_Only>
1

> <s_lp_Force_Field>
OPLS_2005

> <r_lp_Energy>
14.6033

> <b_lp_Chiralities_Consistent>
1

> <s_lp_Variant>
AV-unprocessed.smi:2521-3

> <Gold.Version>
5.8.1

> <Gold.Id.Protein>
6NUR|6NUR_protein|mol2

> <Gold.PLP.Fitness>
38.9303

> <Gold.PLP.PLP>
-35.6817

> <Gold.PLP.part.hbond>
-2.0000

> <Gold.PLP.part.metal>
0.0000

> <Gold.PLP.part.buried>
-5.3137

> <Gold.PLP.part.nonpolar>
-28.4672

> <Gold.PLP.part.repulsive>
0.3439

> <Gold.PLP.ligand.clash>
0.0000

> <Gold.PLP.ligand.torsion>
1.4194

> <Gold.PLP.Chemscore.Hbond>
2.0000

> <Gold.PLP.Chemscore.CHOScore>
0.0000

> <Gold.PLP.Chemscore.Metal>
0.0000

> <Gold.Chemscore.Hbonds>
donor molecule, donor type, donor heavy atom, donor atom, acceptor molecule, acceptor atom, score
      P1  H  7989  7998       L1    10  1.00
      P1  H  7997  8009       L1     6  1.00

> <Gold.PLP.Chemscore.Internal.Correction>
0.0875

> <Gold.Rescore>
     Score         DG    S(hbond)    S(metal)    S(lipo)     H(rot)  DE(clash)    DE(int)     intcor
     14.70     -16.26       1.72        0.00      74.16       1.42       0.13       1.43       ----

> <Gold.Chemscore.Fitness>
14.6979

> <Gold.Chemscore.DG>
-16.2555

> <Gold.Chemscore.ZeroCoef>
-5.4800

> <Gold.Chemscore.Hbond>
1.7161

> <Gold.Chemscore.Metal>
0.0000

> <Gold.Chemscore.Lipo>
74.1636

> <Gold.Chemscore.Internal_Hbond>
0.0000

> <Gold.Chemscore.DEClash>
0.1298

> <Gold.Chemscore.DEInternal>
1.4279

> <Gold.Chemscore.Rot>
1.4193

> <Gold.Chemscore.Internal.Correction>
   9.000000E+99

> <Gold.Chemscore.Hbonds>
donor molecule, donor type, donor heavy atom, donor atom, acceptor molecule, acceptor atom, score
      P1  H  7989  7998       L1    10  0.94
      P1  H  7997  8009       L1     6  0.19

> <Gold.Chemscore.Hbond.Weighted>
-5.7317

> <Gold.Chemscore.Metal.Weighted>
-0.0000

> <Gold.Chemscore.Lipo.Weighted>
-8.6771

> <Gold.Chemscore.Internal_Hbond.Weighted>
0.0000

> <Gold.Chemscore.DEClash.Weighted>
0.1298

> <Gold.Chemscore.DEInternal.Weighted>
1.4279

> <Gold.Chemscore.Rot.Weighted>
3.6333

> <Gold.Chemscore.Internal.Correction.Weighted>
   9.000000E+99

> <Gold.Protein.RotatedTorsions>
[ 6907 6896 6895 6894 ] final   -1.01 input  -60.11 | X-H torsion
[ 7974 7965 7964 7962 ] final  170.46 input  175.53 | X-H torsion
[ 8008 7997 7996 7995 ] final  153.83 input   59.86 | X-H torsion
[ 10167 10162 10161 10158 ] final  149.85 input  -65.29 | X-H torsion
[ 10718 10713 10712 10709 ] final -104.16 input   66.30 | X-H torsion
[ 10763 10752 10751 10750 ] final -114.55 input  -60.55 | X-H torsion
[ 11005 11000 10999 10996 ] final -145.64 input  -57.11 | X-H torsion

> <Gold.Protein.ActiveResidues>
 VAL166  LYS551  ARG553  GLY616  TRP617  ASP618  TYR619  PRO620  LYS621  CYS622 
 ASP623  PHE694  ASN695  SER759  ASP760  ASP761  ALA762  ILE779  LEU786  VAL792 
 PHE793  MET794  SER795  GLU796  ALA797  LYS798  CYS799  TRP800  GLU811  SER814 

> <Gold.Protein.RotatedAtoms>
  151.5531  135.1067  159.9954 H   0  0  0  0  0  0  0  0  0  0  0  0  # atno 6907 bound_to 6896
  152.4482  133.7573  159.6738 H   0  0  0  0  0  0  0  0  0  0  0  0  # atno 6908 bound_to 6896
  150.8403  133.7879  159.3087 H   0  0  0  0  0  0  0  0  0  0  0  0  # atno 6909 bound_to 6896
  144.7323  139.9205  143.6420 H   0  0  0  0  0  0  0  0  0  0  0  0  # atno 7974 bound_to 7965
  156.2562  140.1983  156.6552 H   0  0  0  0  0  0  0  0  0  0  0  0  # atno 8008 bound_to 7997
  154.6506  140.0572  156.9976 H   0  0  0  0  0  0  0  0  0  0  0  0  # atno 8009 bound_to 7997
  155.1424  140.3244  155.4452 H   0  0  0  0  0  0  0  0  0  0  0  0  # atno 8010 bound_to 7997
  139.4857  144.5569  151.7301 H   0  0  0  0  0  0  0  0  0  0  0  0  # atno 10167 bound_to 10162
  156.0293  130.5502  150.7357 H   0  0  0  0  0  0  0  0  0  0  0  0  # atno 10718 bound_to 10713
  154.8445  135.4414  154.1524 H   0  0  0  0  0  0  0  0  0  0  0  0  # atno 10763 bound_to 10752
  153.2681  135.6942  153.7515 H   0  0  0  0  0  0  0  0  0  0  0  0  # atno 10764 bound_to 10752
  153.6766  135.3410  155.3142 H   0  0  0  0  0  0  0  0  0  0  0  0  # atno 10765 bound_to 10752
  140.7901  134.2978  157.5016 H   0  0  0  0  0  0  0  0  0  0  0  0  # atno 11005 bound_to 11000
  146.0933  139.3924  143.0392 LP  0  0  0  0  0  0  0  0  0  0  0  0  # atno 17320 bound_to 7965
  145.7681  140.9908  143.1164 LP  0  0  0  0  0  0  0  0  0  0  0  0  # atno 17321 bound_to 7965
  140.5132  144.0993  150.6001 LP  0  0  0  0  0  0  0  0  0  0  0  0  # atno 17342 bound_to 10162
  140.3925  143.2745  152.0043 LP  0  0  0  0  0  0  0  0  0  0  0  0  # atno 17343 bound_to 10162
  157.4938  131.0913  151.0395 LP  0  0  0  0  0  0  0  0  0  0  0  0  # atno 17370 bound_to 10713
  157.0794  130.5897  149.5417 LP  0  0  0  0  0  0  0  0  0  0  0  0  # atno 17371 bound_to 10713
  139.8732  134.9370  156.3675 LP  0  0  0  0  0  0  0  0  0  0  0  0  # atno 17394 bound_to 11000
  140.9397  133.7523  156.0131 LP  0  0  0  0  0  0  0  0  0  0  0  0  # atno 17395 bound_to 11000

$$$$
