AV-unprocessed.smi:514|AV-procd|sdf|2777|dock9
  -GOLD-   2262023243D 1   1.00000     0.00000
 Structure written by MMmdl.
 45 47  0  0  0  0  0  0  0  0  1 V2000
  146.9357  141.9066  153.8769 C   0  0  0  0  0  0  0  0  0  0  0  0
  147.6938  141.5800  155.1654 C   0  0  0  0  0  0  0  0  0  0  0  0
  148.9511  141.0191  154.8287 O   0  0  0  0  0  0  0  0  0  0  0  0
  149.7098  140.6549  155.9687 C   0  0  0  0  0  0  0  0  0  0  0  0
  150.6673  141.8013  156.3122 C   0  0  0  0  0  0  0  0  0  0  0  0
  151.5247  141.4563  157.4429 N   0  0  0  0  0  0  0  0  0  0  0  0
  152.3184  140.3618  157.6059 C   0  0  0  0  0  0  0  0  0  0  0  0
  152.4414  139.3771  156.6254 N   0  0  0  0  0  0  0  0  0  0  0  0
  152.8911  138.0115  156.8775 C   0  0  0  0  0  0  0  0  0  0  0  0
  151.9299  136.9921  156.2332 C   0  0  0  0  0  0  0  0  0  0  0  0
  151.8842  137.1973  154.7890 N   0  0  0  0  0  0  0  0  0  0  0  0
  151.4287  138.5579  154.5235 C   0  0  0  0  0  0  0  0  0  0  0  0
  152.4016  139.5594  155.1762 C   0  0  0  0  0  0  0  0  0  0  0  0
  152.9208  140.2841  158.7955 N   0  0  0  0  0  0  0  0  0  0  0  0
  152.4972  141.4363  159.4389 C   0  0  0  0  0  0  0  0  0  0  0  0
  151.6514  142.1470  158.6501 C   0  0  0  0  0  0  0  0  0  0  0  0
  151.0147  143.3922  159.1024 C   0  0  0  0  0  0  0  0  0  0  0  0
  150.2204  144.0363  158.4211 O   0  0  0  0  0  0  0  0  0  0  0  0
  151.3880  143.7567  160.3532 N   0  0  0  0  0  0  0  0  0  0  0  0
  152.2430  143.0958  161.1917 C   0  0  0  0  0  0  0  0  0  0  0  0
  152.4921  143.5575  162.3052 O   0  0  0  0  0  0  0  0  0  0  0  0
  152.7945  141.9228  160.7440 N   0  0  0  0  0  0  0  0  0  0  0  0
  153.7090  141.1683  161.6031 C   0  0  0  0  0  0  0  0  0  0  0  0
  150.9862  144.6118  160.7088 H   0  0  0  0  0  0  0  0  0  0  0  0
  145.9608  142.3417  154.0980 H   0  0  0  0  0  0  0  0  0  0  0  0
  146.7738  141.0086  153.2805 H   0  0  0  0  0  0  0  0  0  0  0  0
  147.4903  142.6198  153.2667 H   0  0  0  0  0  0  0  0  0  0  0  0
  147.8322  142.4871  155.7553 H   0  0  0  0  0  0  0  0  0  0  0  0
  147.1168  140.8772  155.7680 H   0  0  0  0  0  0  0  0  0  0  0  0
  149.0484  140.4511  156.8124 H   0  0  0  0  0  0  0  0  0  0  0  0
  150.2749  139.7442  155.7630 H   0  0  0  0  0  0  0  0  0  0  0  0
  151.2707  142.0504  155.4452 H   0  0  0  0  0  0  0  0  0  0  0  0
  150.1128  142.7108  156.5350 H   0  0  0  0  0  0  0  0  0  0  0  0
  153.9052  137.8801  156.4972 H   0  0  0  0  0  0  0  0  0  0  0  0
  152.9366  137.8381  157.9533 H   0  0  0  0  0  0  0  0  0  0  0  0
  152.2691  135.9760  156.4350 H   0  0  0  0  0  0  0  0  0  0  0  0
  150.9277  137.0865  156.6540 H   0  0  0  0  0  0  0  0  0  0  0  0
  151.2443  136.5369  154.3713 H   0  0  0  0  0  0  0  0  0  0  0  0
  151.3947  138.7145  153.4454 H   0  0  0  0  0  0  0  0  0  0  0  0
  150.4142  138.6926  154.9012 H   0  0  0  0  0  0  0  0  0  0  0  0
  152.1294  140.5842  154.9277 H   0  0  0  0  0  0  0  0  0  0  0  0
  153.4057  139.4193  154.7725 H   0  0  0  0  0  0  0  0  0  0  0  0
  154.6294  141.7313  161.7624 H   0  0  0  0  0  0  0  0  0  0  0  0
  153.9829  140.2029  161.1778 H   0  0  0  0  0  0  0  0  0  0  0  0
  153.2556  140.9731  162.5760 H   0  0  0  0  0  0  0  0  0  0  0  0
  1  2  1  0  0  0  0
  1 25  1  0  0  0  0
  1 26  1  0  0  0  0
  1 27  1  0  0  0  0
  2  3  1  0  0  0  0
  2 28  1  0  0  0  0
  2 29  1  0  0  0  0
  3  4  1  0  0  0  0
  4  5  1  0  0  0  0
  4 30  1  0  0  0  0
  4 31  1  0  0  0  0
  5  6  1  0  0  0  0
  5 32  1  0  0  0  0
  5 33  1  0  0  0  0
  6 16  1  0  0  0  0
  6  7  1  0  0  0  0
  7  8  1  0  0  0  0
  7 14  2  0  0  0  0
  8 13  1  0  0  0  0
  8  9  1  0  0  0  0
  9 10  1  0  0  0  0
  9 34  1  0  0  0  0
  9 35  1  0  0  0  0
 10 11  1  0  0  0  0
 10 36  1  0  0  0  0
 10 37  1  0  0  0  0
 11 12  1  0  0  0  0
 11 38  1  0  0  0  0
 12 13  1  0  0  0  0
 12 39  1  0  0  0  0
 12 40  1  0  0  0  0
 13 41  1  0  0  0  0
 13 42  1  0  0  0  0
 14 15  1  0  0  0  0
 15 22  1  0  0  0  0
 15 16  2  0  0  0  0
 16 17  1  0  0  0  0
 17 18  2  0  0  0  0
 17 19  1  0  0  0  0
 19 24  1  0  0  0  0
 19 20  1  0  0  0  0
 20 21  2  0  0  0  0
 20 22  1  0  0  0  0
 22 23  1  0  0  0  0
 23 43  1  0  0  0  0
 23 44  1  0  0  0  0
 23 45  1  0  0  0  0
M  END
> <s_m_source_file>
AV-unprocessed.smi

> <i_m_source_file_index>
514

> <i_lp_mmshare_version>
43012

> <i_f3d_flags>
0

> <s_epik_input>
W0NIM11uMWMoPU8pW25IXWMoPU8pYyhjMTIpbihbQ0gyXVtDSDJdT1tDSDJdW0NIM10pYyhuMilOM1tDSDJdW0NIMl1bTkhdW0NIMl1bQ0gyXTM=

> <s_epik_cmdline>
J2VwaWtfcHl0aG9uJywgJy1waCcsICc3LjAnLCAnLXRuJywgJzgnLCAnLW1hJywgJzIwMCcsICctbWV0YWxfYmluZGluZycsICctaW1hZScsICc8aW5maWxlLm1hZT4nLCAnLW9tYWUnLCAnPG91dGZpbGUubWFlPic=

> <r_epik_Ionization_Penalty>
2.51413

> <r_epik_Ionization_Penalty_Charging>
1.58739e-05

> <r_epik_Ionization_Penalty_Neutral>
2.51411

> <r_epik_State_Penalty>
2.67993

> <r_epik_Charging_Adjusted_Penalty>
2.67995

> <i_epik_Tot_Q>
0

> <i_epik_Tot_abs_Q>
0

> <r_epik_Metal_State_Penalty>
2.70758

> <b_epik_Metal_Only>
0

> <s_lp_Force_Field>
OPLS_2005

> <r_lp_Energy>
49.2261

> <b_lp_Chiralities_Consistent>
1

> <s_lp_Variant>
AV-unprocessed.smi:514-2

> <Gold.Version>
5.8.1

> <Gold.Id.Protein>
6NUR|6NUR_protein|mol2

> <Gold.PLP.Fitness>
41.9682

> <Gold.PLP.PLP>
-41.5502

> <Gold.PLP.part.hbond>
-1.0000

> <Gold.PLP.part.metal>
0.0000

> <Gold.PLP.part.buried>
-6.6499

> <Gold.PLP.part.nonpolar>
-35.2035

> <Gold.PLP.part.repulsive>
0.9307

> <Gold.PLP.ligand.clash>
0.0000

> <Gold.PLP.ligand.torsion>
0.5663

> <Gold.PLP.Chemscore.Hbond>
0.3825

> <Gold.PLP.Chemscore.CHOScore>
0.0000

> <Gold.PLP.Chemscore.Metal>
0.0000

> <Gold.PLP.Chemscore.Internal.Correction>
0.4029

> <Gold.Rescore>
     Score         DG    S(hbond)    S(metal)    S(lipo)     H(rot)  DE(clash)    DE(int)     intcor
      8.48      -9.30       0.00        0.00      70.29       1.72       0.07       0.74       ----

> <Gold.Chemscore.Fitness>
8.4848

> <Gold.Chemscore.DG>
-9.2978

> <Gold.Chemscore.ZeroCoef>
-5.4800

> <Gold.Chemscore.Hbond>
0.0001

> <Gold.Chemscore.Metal>
0.0000

> <Gold.Chemscore.Lipo>
70.2937

> <Gold.Chemscore.Internal_Hbond>
0.0000

> <Gold.Chemscore.DEClash>
0.0723

> <Gold.Chemscore.DEInternal>
0.7406

> <Gold.Chemscore.Rot>
1.7214

> <Gold.Chemscore.Internal.Correction>
   9.000000E+99

> <Gold.Chemscore.Hbond.Weighted>
-0.0003

> <Gold.Chemscore.Metal.Weighted>
-0.0000

> <Gold.Chemscore.Lipo.Weighted>
-8.2244

> <Gold.Chemscore.Internal_Hbond.Weighted>
0.0000

> <Gold.Chemscore.DEClash.Weighted>
0.0723

> <Gold.Chemscore.DEInternal.Weighted>
0.7406

> <Gold.Chemscore.Rot.Weighted>
4.4069

> <Gold.Chemscore.Internal.Correction.Weighted>
   9.000000E+99

> <Gold.Protein.RotatedTorsions>
[ 6907 6896 6895 6894 ] final  -59.35 input  -60.11 | X-H torsion
[ 7974 7965 7964 7962 ] final  -37.80 input  175.53 | X-H torsion
[ 8008 7997 7996 7995 ] final  -66.69 input   59.86 | X-H torsion
[ 10167 10162 10161 10158 ] final   -6.32 input  -65.29 | X-H torsion
[ 10718 10713 10712 10709 ] final -164.46 input   66.30 | X-H torsion
[ 10763 10752 10751 10750 ] final -177.16 input  -60.55 | X-H torsion
[ 11005 11000 10999 10996 ] final   36.10 input  -57.11 | X-H torsion

> <Gold.Protein.ActiveResidues>
 VAL166  LYS551  ARG553  GLY616  TRP617  ASP618  TYR619  PRO620  LYS621  CYS622 
 ASP623  PHE694  ASN695  SER759  ASP760  ASP761  ALA762  ILE779  LEU786  VAL792 
 PHE793  MET794  SER795  GLU796  ALA797  LYS798  CYS799  TRP800  GLU811  SER814 

> <Gold.Protein.RotatedAtoms>
  150.7937  134.6980  159.6533 H   0  0  0  0  0  0  0  0  0  0  0  0  # atno 6907 bound_to 6896
  152.4046  134.6225  160.0064 H   0  0  0  0  0  0  0  0  0  0  0  0  # atno 6908 bound_to 6896
  151.6486  133.3285  159.3183 H   0  0  0  0  0  0  0  0  0  0  0  0  # atno 6909 bound_to 6896
  146.0543  140.6438  142.9027 H   0  0  0  0  0  0  0  0  0  0  0  0  # atno 7974 bound_to 7965
  154.4751  140.0907  156.7241 H   0  0  0  0  0  0  0  0  0  0  0  0  # atno 8008 bound_to 7997
  155.4619  140.3461  155.4295 H   0  0  0  0  0  0  0  0  0  0  0  0  # atno 8009 bound_to 7997
  156.1102  140.1446  156.9337 H   0  0  0  0  0  0  0  0  0  0  0  0  # atno 8010 bound_to 7997
  140.6993  143.6207  150.8615 H   0  0  0  0  0  0  0  0  0  0  0  0  # atno 10167 bound_to 10162
  156.6393  130.8962  151.2993 H   0  0  0  0  0  0  0  0  0  0  0  0  # atno 10718 bound_to 10713
  154.5635  135.2822  155.0896 H   0  0  0  0  0  0  0  0  0  0  0  0  # atno 10763 bound_to 10752
  154.2296  135.6376  153.5175 H   0  0  0  0  0  0  0  0  0  0  0  0  # atno 10764 bound_to 10752
  153.0036  135.5534  154.6236 H   0  0  0  0  0  0  0  0  0  0  0  0  # atno 10765 bound_to 10752
  140.2360  134.3471  155.7944 H   0  0  0  0  0  0  0  0  0  0  0  0  # atno 11005 bound_to 11000
  144.7139  140.4140  143.7059 LP  0  0  0  0  0  0  0  0  0  0  0  0  # atno 17320 bound_to 7965
  145.6671  139.1592  143.2775 LP  0  0  0  0  0  0  0  0  0  0  0  0  # atno 17321 bound_to 7965
  139.9928  143.5829  152.2904 LP  0  0  0  0  0  0  0  0  0  0  0  0  # atno 17342 bound_to 10162
  139.6490  144.7660  151.2186 LP  0  0  0  0  0  0  0  0  0  0  0  0  # atno 17343 bound_to 10162
  157.7176  130.9516  150.1313 LP  0  0  0  0  0  0  0  0  0  0  0  0  # atno 17370 bound_to 10713
  156.2171  130.3671  149.8600 LP  0  0  0  0  0  0  0  0  0  0  0  0  # atno 17371 bound_to 10713
  141.2214  133.7272  156.8808 LP  0  0  0  0  0  0  0  0  0  0  0  0  # atno 17394 bound_to 11000
  140.1702  134.9105  157.2824 LP  0  0  0  0  0  0  0  0  0  0  0  0  # atno 17395 bound_to 11000

$$$$
