AV-unprocessed.smi:1067|AV-procd|sdf|4673|dock2
  -GOLD-   22720 3183D 1   1.00000     0.00000
 Structure written by MMmdl.
 51 53  0  0  0  0  0  0  0  0  2 V2000
  147.3842  136.1294  153.8014 N   0  0  0  0  0  0  0  0  0  0  0  0
  146.0612  136.1219  153.6102 C   0  0  0  0  0  0  0  0  0  0  0  0
  145.2997  135.7212  154.4897 O   0  0  0  0  0  0  0  0  0  0  0  0
  145.5038  136.6507  152.2573 C   0  0  0  0  0  0  0  0  0  0  0  0
  146.0140  138.1007  152.0268 C   0  0  0  0  0  0  0  0  0  0  0  0
  147.3236  138.3645  152.6272 N   0  0  0  0  0  0  0  0  0  0  0  0
  147.6152  139.3776  153.4556 C   0  0  0  0  0  0  0  0  0  0  0  0
  146.7925  140.2148  153.8261 O   0  0  0  0  0  0  0  0  0  0  0  0
  148.9150  139.3656  153.7978 N   0  0  0  0  0  0  0  0  0  0  0  0
  149.6005  140.2293  154.6946 C   0  0  0  0  0  0  0  0  0  0  0  0
  150.7609  139.7372  155.3285 C   0  0  0  0  0  0  0  0  0  0  0  0
  151.4596  140.5515  156.2433 C   0  0  0  0  0  0  0  0  0  0  0  0
  150.9843  141.8534  156.5278 C   0  0  0  0  0  0  0  0  0  0  0  0
  151.6289  142.7224  157.4287 N   0  0  0  0  0  0  0  0  0  0  0  0
  151.3729  144.1542  157.4172 C   0  0  0  0  0  0  0  0  0  0  0  0
  152.1093  144.6883  158.6447 C   0  0  0  0  0  0  0  0  0  0  0  0
  152.0115  143.5302  159.6377 C   0  0  0  0  0  0  0  0  0  0  0  0
  152.0316  142.2761  158.7554 C   0  0  0  0  0  0  0  0  0  0  0  0
  149.8636  142.2828  155.9000 N   0  3  0  0  0  0  0  0  0  0  0  0
  149.1654  141.5372  155.0167 C   0  0  0  0  0  0  0  0  0  0  0  0
  145.9392  135.7672  151.0557 C   0  0  0  0  0  0  0  0  0  0  0  0
  145.2785  134.3748  151.0723 C   0  0  0  0  0  0  0  0  0  0  0  0
  143.8630  134.5133  151.0758 O   0  0  0  0  0  0  0  0  0  0  0  0
  143.3758  135.2024  152.2208 C   0  0  0  0  0  0  0  0  0  0  0  0
  143.9500  136.6324  152.2569 C   0  0  0  0  0  0  0  0  0  0  0  0
  147.7657  135.7931  154.6738 H   0  0  0  0  0  0  0  0  0  0  0  0
  147.9973  136.4729  153.0766 H   0  0  0  0  0  0  0  0  0  0  0  0
  146.0189  138.3226  150.9582 H   0  0  0  0  0  0  0  0  0  0  0  0
  145.3139  138.8125  152.4658 H   0  0  0  0  0  0  0  0  0  0  0  0
  148.0688  137.7329  152.3724 H   0  0  0  0  0  0  0  0  0  0  0  0
  149.4878  138.6731  153.3379 H   0  0  0  0  0  0  0  0  0  0  0  0
  151.1211  138.7415  155.1137 H   0  0  0  0  0  0  0  0  0  0  0  0
  152.3535  140.1680  156.7126 H   0  0  0  0  0  0  0  0  0  0  0  0
  151.7291  144.6217  156.4988 H   0  0  0  0  0  0  0  0  0  0  0  0
  150.3005  144.3339  157.5048 H   0  0  0  0  0  0  0  0  0  0  0  0
  153.1553  144.8746  158.3980 H   0  0  0  0  0  0  0  0  0  0  0  0
  151.6818  145.6159  159.0266 H   0  0  0  0  0  0  0  0  0  0  0  0
  152.8100  143.5376  160.3801 H   0  0  0  0  0  0  0  0  0  0  0  0
  151.0608  143.5878  160.1695 H   0  0  0  0  0  0  0  0  0  0  0  0
  151.3671  141.5096  159.1552 H   0  0  0  0  0  0  0  0  0  0  0  0
  153.0384  141.8616  158.6962 H   0  0  0  0  0  0  0  0  0  0  0  0
  148.2833  142.0161  154.6189 H   0  0  0  0  0  0  0  0  0  0  0  0
  145.6569  136.2622  150.1253 H   0  0  0  0  0  0  0  0  0  0  0  0
  147.0239  135.6657  151.0057 H   0  0  0  0  0  0  0  0  0  0  0  0
  145.5697  133.8162  150.1827 H   0  0  0  0  0  0  0  0  0  0  0  0
  145.6008  133.7851  151.9312 H   0  0  0  0  0  0  0  0  0  0  0  0
  142.2879  135.2413  152.1651 H   0  0  0  0  0  0  0  0  0  0  0  0
  143.6226  134.6475  153.1272 H   0  0  0  0  0  0  0  0  0  0  0  0
  143.5445  137.1654  153.1179 H   0  0  0  0  0  0  0  0  0  0  0  0
  143.5827  137.1713  151.3824 H   0  0  0  0  0  0  0  0  0  0  0  0
  149.5228  143.2212  156.1091 H   0  0  0  0  0  0  0  0  0  0  0  0
  1  2  1  0  0  0  0
  1 26  1  0  0  0  0
  1 27  1  0  0  0  0
  2  3  2  0  0  0  0
  2  4  1  0  0  0  0
  4 25  1  0  0  0  0
  4  5  1  0  0  0  0
  4 21  1  0  0  0  0
  5  6  1  0  0  0  0
  5 28  1  0  0  0  0
  5 29  1  0  0  0  0
  6  7  1  0  0  0  0
  6 30  1  0  0  0  0
  7  8  2  0  0  0  0
  7  9  1  0  0  0  0
  9 10  1  0  0  0  0
  9 31  1  0  0  0  0
 10 20  1  0  0  0  0
 10 11  2  0  0  0  0
 11 12  1  0  0  0  0
 11 32  1  0  0  0  0
 12 13  2  0  0  0  0
 12 33  1  0  0  0  0
 13 14  1  0  0  0  0
 13 19  1  0  0  0  0
 14 18  1  0  0  0  0
 14 15  1  0  0  0  0
 15 16  1  0  0  0  0
 15 34  1  0  0  0  0
 15 35  1  0  0  0  0
 16 17  1  0  0  0  0
 16 36  1  0  0  0  0
 16 37  1  0  0  0  0
 17 18  1  0  0  0  0
 17 38  1  0  0  0  0
 17 39  1  0  0  0  0
 18 40  1  0  0  0  0
 18 41  1  0  0  0  0
 19 20  2  0  0  0  0
 19 51  1  0  0  0  0
 20 42  1  0  0  0  0
 21 22  1  0  0  0  0
 21 43  1  0  0  0  0
 21 44  1  0  0  0  0
 22 23  1  0  0  0  0
 22 45  1  0  0  0  0
 22 46  1  0  0  0  0
 23 24  1  0  0  0  0
 24 25  1  0  0  0  0
 24 47  1  0  0  0  0
 24 48  1  0  0  0  0
 25 49  1  0  0  0  0
 25 50  1  0  0  0  0
M  CHG  1  19   1
M  END
> <s_m_source_file>
AV-unprocessed.smi

> <i_m_source_file_index>
1067

> <i_lp_mmshare_version>
43012

> <i_f3d_flags>
0

> <s_epik_input>
W0NIMl0xW0NIMl1PW0NIMl1bQ0gyXUMxKEMoPU8pW05IMl0pW0NIMl1bTkhdQyg9TylbTkhdYzJbY0hdW2NIXWMobltjSF0yKU4zW0NIMl1bQ0gyXVtDSDJdW0NIMl0z

> <s_epik_cmdline>
J2VwaWtfcHl0aG9uJywgJy1waCcsICc3LjAnLCAnLXRuJywgJzgnLCAnLW1hJywgJzIwMCcsICctbWV0YWxfYmluZGluZycsICctaW1hZScsICc8aW5maWxlLm1hZT4nLCAnLW9tYWUnLCAnPG91dGZpbGUubWFlPic=

> <r_lp_tautomer_probability>
0.999994

> <r_epik_Ionization_Penalty>
1.13762

> <r_epik_Ionization_Penalty_Charging>
1.1376

> <r_epik_Ionization_Penalty_Neutral>
1.9017e-05

> <r_epik_State_Penalty>
1.19785

> <r_epik_Charging_Adjusted_Penalty>
2.33545

> <i_epik_Tot_Q>
1

> <i_epik_Tot_abs_Q>
1

> <r_epik_Metal_State_Penalty>
1.2801

> <b_epik_Metal_Only>
0

> <s_lp_Force_Field>
OPLS_2005

> <r_lp_Energy>
40.299

> <b_lp_Chiralities_Consistent>
1

> <s_lp_Variant>
AV-unprocessed.smi:1067-2

> <Gold.Version>
5.8.1

> <Gold.Id.Protein>
6NUR|6NUR_protein|mol2

> <Gold.PLP.Fitness>
57.5881

> <Gold.PLP.PLP>
-47.8628

> <Gold.PLP.part.hbond>
-4.3209

> <Gold.PLP.part.metal>
0.0000

> <Gold.PLP.part.buried>
-3.4776

> <Gold.PLP.part.nonpolar>
-41.2491

> <Gold.PLP.part.repulsive>
0.6478

> <Gold.PLP.ligand.clash>
0.0000

> <Gold.PLP.ligand.torsion>
1.2620

> <Gold.PLP.Chemscore.Hbond>
4.0000

> <Gold.PLP.Chemscore.CHOScore>
0.0000

> <Gold.PLP.Chemscore.Metal>
0.0000

> <Gold.Chemscore.Hbonds>
donor molecule, donor type, donor heavy atom, donor atom, acceptor molecule, acceptor atom, score
      L1  H     1    27       P1  7948  1.00
      L1  H     6    30       P1  7948  1.00
      L1  H    19    51       P1  8028  2.00

> <Gold.PLP.Chemscore.Internal.Correction>
0.2494

> <Gold.Rescore>
     Score         DG    S(hbond)    S(metal)    S(lipo)     H(rot)  DE(clash)    DE(int)     intcor
     18.71     -23.30       2.95        0.00     108.07       1.83       0.56       4.03       ----

> <Gold.Chemscore.Fitness>
18.7075

> <Gold.Chemscore.DG>
-23.3043

> <Gold.Chemscore.ZeroCoef>
-5.4800

> <Gold.Chemscore.Hbond>
2.9524

> <Gold.Chemscore.Metal>
0.0000

> <Gold.Chemscore.Lipo>
108.0672

> <Gold.Chemscore.Internal_Hbond>
0.0000

> <Gold.Chemscore.DEClash>
0.5626

> <Gold.Chemscore.DEInternal>
4.0343

> <Gold.Chemscore.Rot>
1.8283

> <Gold.Chemscore.Internal.Correction>
   9.000000E+99

> <Gold.Chemscore.Hbonds>
donor molecule, donor type, donor heavy atom, donor atom, acceptor molecule, acceptor atom, score
      L1  H     1    27       P1  7948  0.92
      L1  H     6    30       P1  7948  1.00
      L1  H    19    51       P1  8028  0.97

> <Gold.Chemscore.Hbond.Weighted>
-9.8610

> <Gold.Chemscore.Metal.Weighted>
-0.0000

> <Gold.Chemscore.Lipo.Weighted>
-12.6439

> <Gold.Chemscore.Internal_Hbond.Weighted>
0.0000

> <Gold.Chemscore.DEClash.Weighted>
0.5626

> <Gold.Chemscore.DEInternal.Weighted>
4.0343

> <Gold.Chemscore.Rot.Weighted>
4.6805

> <Gold.Chemscore.Internal.Correction.Weighted>
   9.000000E+99

> <Gold.Protein.RotatedTorsions>
[ 6907 6896 6895 6894 ] final  177.65 input  -60.11 | X-H torsion
[ 7974 7965 7964 7962 ] final  -66.01 input  175.53 | X-H torsion
[ 8008 7997 7996 7995 ] final  165.75 input   59.86 | X-H torsion
[ 10167 10162 10161 10158 ] final -145.48 input  -65.29 | X-H torsion
[ 10718 10713 10712 10709 ] final  -12.08 input   66.30 | X-H torsion
[ 10763 10752 10751 10750 ] final  -39.73 input  -60.55 | X-H torsion
[ 11005 11000 10999 10996 ] final   54.99 input  -57.11 | X-H torsion

> <Gold.Protein.ActiveResidues>
 VAL166  LYS551  ARG553  GLY616  TRP617  ASP618  TYR619  PRO620  LYS621  CYS622 
 ASP623  PHE694  ASN695  SER759  ASP760  ASP761  ALA762  ILE779  LEU786  VAL792 
 PHE793  MET794  SER795  GLU796  ALA797  LYS798  CYS799  TRP800  GLU811  SER814 

> <Gold.Protein.RotatedAtoms>
  151.7005  133.3311  159.3265 H   0  0  0  0  0  0  0  0  0  0  0  0  # atno 6907 bound_to 6896
  150.7738  134.6619  159.6354 H   0  0  0  0  0  0  0  0  0  0  0  0  # atno 6908 bound_to 6896
  152.3772  134.6648  160.0207 H   0  0  0  0  0  0  0  0  0  0  0  0  # atno 6909 bound_to 6896
  145.7472  140.8926  143.0499 H   0  0  0  0  0  0  0  0  0  0  0  0  # atno 7974 bound_to 7965
  156.1774  140.1661  156.8336 H   0  0  0  0  0  0  0  0  0  0  0  0  # atno 8008 bound_to 7997
  154.5322  140.0754  156.8399 H   0  0  0  0  0  0  0  0  0  0  0  0  # atno 8009 bound_to 7997
  155.3383  140.3383  155.4241 H   0  0  0  0  0  0  0  0  0  0  0  0  # atno 8010 bound_to 7997
  139.7802  143.8112  152.2637 H   0  0  0  0  0  0  0  0  0  0  0  0  # atno 10167 bound_to 10162
  156.6497  130.4951  149.6066 H   0  0  0  0  0  0  0  0  0  0  0  0  # atno 10718 bound_to 10713
  153.9342  135.6768  153.4745 H   0  0  0  0  0  0  0  0  0  0  0  0  # atno 10763 bound_to 10752
  153.0964  135.4849  154.8783 H   0  0  0  0  0  0  0  0  0  0  0  0  # atno 10764 bound_to 10752
  154.7411  135.3161  154.8683 H   0  0  0  0  0  0  0  0  0  0  0  0  # atno 10765 bound_to 10752
  140.0642  134.5560  155.9118 H   0  0  0  0  0  0  0  0  0  0  0  0  # atno 11005 bound_to 11000
  144.6857  139.9541  143.7478 LP  0  0  0  0  0  0  0  0  0  0  0  0  # atno 17320 bound_to 7965
  146.0392  139.3405  143.0708 LP  0  0  0  0  0  0  0  0  0  0  0  0  # atno 17321 bound_to 7965
  139.8172  144.7311  150.9619 LP  0  0  0  0  0  0  0  0  0  0  0  0  # atno 17342 bound_to 10162
  140.7818  143.4193  151.0867 LP  0  0  0  0  0  0  0  0  0  0  0  0  # atno 17343 bound_to 10162
  156.2094  130.6669  151.1253 LP  0  0  0  0  0  0  0  0  0  0  0  0  # atno 17370 bound_to 10713
  157.7145  131.0717  150.6380 LP  0  0  0  0  0  0  0  0  0  0  0  0  # atno 17371 bound_to 10713
  141.1986  133.6602  156.5799 LP  0  0  0  0  0  0  0  0  0  0  0  0  # atno 17394 bound_to 11000
  140.3724  134.7594  157.4607 LP  0  0  0  0  0  0  0  0  0  0  0  0  # atno 17395 bound_to 11000

$$$$
