AV-unprocessed.smi:1875|AV-procd|sdf|7614|dock6
  -GOLD-   22720 9333D 1   1.00000     0.00000
 Structure written by MMmdl.
 47 49  0  0  0  0  0  0  0  0  1 V2000
  142.4228  146.0519  154.1211 C   0  0  0  0  0  0  0  0  0  0  0  0
  143.3082  145.0156  154.7819 C   0  0  0  0  0  0  0  0  0  0  0  0
  143.0547  144.7288  156.0628 N   0  0  0  0  0  0  0  0  0  0  0  0
  143.8458  143.8041  156.6494 C   0  0  0  0  0  0  0  0  0  0  0  0
  144.8899  143.1677  155.9482 C   0  0  0  0  0  0  0  0  0  0  0  0
  145.0610  143.5529  154.6016 C   0  0  0  0  0  0  0  0  0  0  0  0
  146.1516  142.9470  153.7412 C   0  0  0  0  0  0  0  0  0  0  0  0
  147.2445  142.4031  154.5410 N   0  0  0  0  0  0  0  0  0  0  0  0
  147.8270  141.1922  153.9696 C   0  0  0  0  0  0  0  0  0  0  0  0
  148.9354  140.6234  154.8711 C   0  0  2  0  0  0  0  0  0  0  0  0
  148.3418  140.1526  156.0652 O   0  0  0  0  0  0  0  0  0  0  0  0
  149.9851  141.6948  155.2242 C   0  0  0  0  0  0  0  0  0  0  0  0
  150.9169  141.2486  156.2448 N   0  0  0  0  0  0  0  0  0  0  0  0
  151.7133  140.1630  156.2028 C   0  0  0  0  0  0  0  0  0  0  0  0
  152.4920  139.9381  157.2574 N   0  0  0  0  0  0  0  0  0  0  0  0
  152.1628  141.0027  158.0789 C   0  0  0  0  0  0  0  0  0  0  0  0
  152.6383  141.3524  159.3617 C   0  0  0  0  0  0  0  0  0  0  0  0
  152.1522  142.5005  160.0268 C   0  0  0  0  0  0  0  0  0  0  0  0
  152.6888  142.8368  161.4071 C   0  0  0  0  0  0  0  0  0  0  0  0
  151.1759  143.3213  159.4066 C   0  0  0  0  0  0  0  0  0  0  0  0
  150.6395  144.5597  160.1023 C   0  0  0  0  0  0  0  0  0  0  0  0
  150.6909  142.9873  158.1246 C   0  0  0  0  0  0  0  0  0  0  0  0
  151.1808  141.8408  157.4744 C   0  0  0  0  0  0  0  0  0  0  0  0
  144.2666  144.4792  154.0205 N   0  0  0  0  0  0  0  0  0  0  0  0
  141.6638  146.4270  154.8088 H   0  0  0  0  0  0  0  0  0  0  0  0
  141.9149  145.6207  153.2581 H   0  0  0  0  0  0  0  0  0  0  0  0
  143.0202  146.8981  153.7804 H   0  0  0  0  0  0  0  0  0  0  0  0
  143.6443  143.5696  157.6842 H   0  0  0  0  0  0  0  0  0  0  0  0
  145.5210  142.4282  156.4181 H   0  0  0  0  0  0  0  0  0  0  0  0
  145.7090  142.1627  153.1258 H   0  0  0  0  0  0  0  0  0  0  0  0
  146.5309  143.7058  153.0550 H   0  0  0  0  0  0  0  0  0  0  0  0
  146.9075  142.2039  155.4774 H   0  0  0  0  0  0  0  0  0  0  0  0
  147.0416  140.4426  153.8626 H   0  0  0  0  0  0  0  0  0  0  0  0
  148.2101  141.3817  152.9657 H   0  0  0  0  0  0  0  0  0  0  0  0
  149.4320  139.7905  154.3708 H   0  0  0  0  0  0  0  0  0  0  0  0
  147.7231  140.8015  156.3654 H   0  0  0  0  0  0  0  0  0  0  0  0
  150.5600  141.9654  154.3378 H   0  0  0  0  0  0  0  0  0  0  0  0
  149.4986  142.6084  155.5698 H   0  0  0  0  0  0  0  0  0  0  0  0
  151.7227  139.5012  155.3490 H   0  0  0  0  0  0  0  0  0  0  0  0
  153.3822  140.7273  159.8331 H   0  0  0  0  0  0  0  0  0  0  0  0
  151.8795  142.8565  162.1372 H   0  0  0  0  0  0  0  0  0  0  0  0
  153.1749  143.8126  161.4015 H   0  0  0  0  0  0  0  0  0  0  0  0
  153.4209  142.1003  161.7401 H   0  0  0  0  0  0  0  0  0  0  0  0
  149.9100  145.0804  159.4814 H   0  0  0  0  0  0  0  0  0  0  0  0
  151.4493  145.2558  160.3217 H   0  0  0  0  0  0  0  0  0  0  0  0
  150.1504  144.2899  161.0385 H   0  0  0  0  0  0  0  0  0  0  0  0
  149.9473  143.6025  157.6403 H   0  0  0  0  0  0  0  0  0  0  0  0
  1  2  1  0  0  0  0
  1 25  1  0  0  0  0
  1 26  1  0  0  0  0
  1 27  1  0  0  0  0
  2 24  1  0  0  0  0
  2  3  2  0  0  0  0
  3  4  1  0  0  0  0
  4  5  2  0  0  0  0
  4 28  1  0  0  0  0
  5  6  1  0  0  0  0
  5 29  1  0  0  0  0
  6  7  1  0  0  0  0
  6 24  2  0  0  0  0
  7  8  1  0  0  0  0
  7 30  1  0  0  0  0
  7 31  1  0  0  0  0
  8  9  1  0  0  0  0
  8 32  1  0  0  0  0
  9 10  1  0  0  0  0
  9 33  1  0  0  0  0
  9 34  1  0  0  0  0
 10 11  1  0  0  0  0
 10 12  1  0  0  0  0
 10 35  1  0  0  0  0
 11 36  1  0  0  0  0
 12 13  1  0  0  0  0
 12 37  1  0  0  0  0
 12 38  1  0  0  0  0
 13 23  1  0  0  0  0
 13 14  1  0  0  0  0
 14 15  2  0  0  0  0
 14 39  1  0  0  0  0
 15 16  1  0  0  0  0
 16 23  2  0  0  0  0
 16 17  1  0  0  0  0
 17 18  2  0  0  0  0
 17 40  1  0  0  0  0
 18 19  1  0  0  0  0
 18 20  1  0  0  0  0
 19 41  1  0  0  0  0
 19 42  1  0  0  0  0
 19 43  1  0  0  0  0
 20 21  1  0  0  0  0
 20 22  2  0  0  0  0
 21 44  1  0  0  0  0
 21 45  1  0  0  0  0
 21 46  1  0  0  0  0
 22 23  1  0  0  0  0
 22 47  1  0  0  0  0
M  END
> <s_m_source_file>
AV-unprocessed.smi

> <i_m_source_file_index>
1875

> <i_lp_mmshare_version>
43012

> <i_f3d_flags>
0

> <s_epik_input>
W0NIM11jMW5bY0hdW2NIXWMobjEpW0NIMl1bTkhdW0NIMl1bQ0BIXShbT0hdKVtDSDJdbihbY0hdbjIpYyhjMjMpW2NIXWMoW0NIM10pYyhbY0hdMylbQ0gzXQ==

> <s_epik_cmdline>
J2VwaWtfcHl0aG9uJywgJy1waCcsICc3LjAnLCAnLXRuJywgJzgnLCAnLW1hJywgJzIwMCcsICctbWV0YWxfYmluZGluZycsICctaW1hZScsICc8aW5maWxlLm1hZT4nLCAnLW9tYWUnLCAnPG91dGZpbGUubWFlPic=

> <r_lp_tautomer_probability>
1

> <r_epik_Ionization_Penalty>
1.21192

> <r_epik_Ionization_Penalty_Charging>
0

> <r_epik_Ionization_Penalty_Neutral>
1.21192

> <r_epik_State_Penalty>
1.26105

> <r_epik_Charging_Adjusted_Penalty>
1.26105

> <i_epik_Tot_Q>
0

> <i_epik_Tot_abs_Q>
0

> <r_epik_Metal_State_Penalty>
1.2224

> <b_epik_Metal_Only>
0

> <s_epik_Chemistry_Notes>
This compound contains an electron-poor aromatic ring that is susceptible to covalent hydrolysis at low pH, typically resulting in measured values for nitrogen ring protonation that are around two units higher than predicted values.

> <s_lp_Force_Field>
OPLS_2005

> <r_lp_Energy>
12.1971

> <b_lp_Chiralities_Consistent>
1

> <s_lp_Variant>
AV-unprocessed.smi:1875-3

> <Gold.Version>
5.8.1

> <Gold.Id.Protein>
6NUR|6NUR_protein|mol2

> <Gold.PLP.Fitness>
51.1322

> <Gold.PLP.PLP>
-49.3158

> <Gold.PLP.part.hbond>
-2.0000

> <Gold.PLP.part.metal>
0.0000

> <Gold.PLP.part.buried>
-7.1186

> <Gold.PLP.part.nonpolar>
-39.9911

> <Gold.PLP.part.repulsive>
0.1390

> <Gold.PLP.ligand.clash>
0.0000

> <Gold.PLP.ligand.torsion>
0.6482

> <Gold.PLP.Chemscore.Hbond>
1.0000

> <Gold.PLP.Chemscore.CHOScore>
0.0000

> <Gold.PLP.Chemscore.Metal>
0.0000

> <Gold.Chemscore.Hbonds>
donor molecule, donor type, donor heavy atom, donor atom, acceptor molecule, acceptor atom, score
      P1  H  7997  8008       L1    15  1.00

> <Gold.PLP.Chemscore.Internal.Correction>
0.1128

> <Gold.Rescore>
     Score         DG    S(hbond)    S(metal)    S(lipo)     H(rot)  DE(clash)    DE(int)     intcor
     14.41     -15.12       0.75        0.00     120.68       2.72       0.10       0.61       ----

> <Gold.Chemscore.Fitness>
14.4133

> <Gold.Chemscore.DG>
-15.1217

> <Gold.Chemscore.ZeroCoef>
-5.4800

> <Gold.Chemscore.Hbond>
0.7463

> <Gold.Chemscore.Metal>
0.0000

> <Gold.Chemscore.Lipo>
120.6790

> <Gold.Chemscore.Internal_Hbond>
0.0000

> <Gold.Chemscore.DEClash>
0.0963

> <Gold.Chemscore.DEInternal>
0.6121

> <Gold.Chemscore.Rot>
2.7228

> <Gold.Chemscore.Internal.Correction>
   9.000000E+99

> <Gold.Chemscore.Hbonds>
donor molecule, donor type, donor heavy atom, donor atom, acceptor molecule, acceptor atom, score
      P1  H  7997  8008       L1    15  0.53

> <Gold.Chemscore.Hbond.Weighted>
-2.4925

> <Gold.Chemscore.Metal.Weighted>
-0.0000

> <Gold.Chemscore.Lipo.Weighted>
-14.1194

> <Gold.Chemscore.Internal_Hbond.Weighted>
0.0000

> <Gold.Chemscore.DEClash.Weighted>
0.0963

> <Gold.Chemscore.DEInternal.Weighted>
0.6121

> <Gold.Chemscore.Rot.Weighted>
6.9702

> <Gold.Chemscore.Internal.Correction.Weighted>
   9.000000E+99

> <Gold.Protein.RotatedTorsions>
[ 6907 6896 6895 6894 ] final  156.46 input  -60.11 | X-H torsion
[ 7974 7965 7964 7962 ] final  162.60 input  175.53 | X-H torsion
[ 8008 7997 7996 7995 ] final  -69.21 input   59.86 | X-H torsion
[ 10167 10162 10161 10158 ] final  -71.77 input  -65.29 | X-H torsion
[ 10718 10713 10712 10709 ] final  -85.57 input   66.30 | X-H torsion
[ 10763 10752 10751 10750 ] final  -42.90 input  -60.55 | X-H torsion
[ 11005 11000 10999 10996 ] final  100.64 input  -57.11 | X-H torsion

> <Gold.Protein.ActiveResidues>
 VAL166  LYS551  ARG553  GLY616  TRP617  ASP618  TYR619  PRO620  LYS621  CYS622 
 ASP623  PHE694  ASN695  SER759  ASP760  ASP761  ALA762  ILE779  LEU786  VAL792 
 PHE793  MET794  SER795  GLU796  ALA797  LYS798  CYS799  TRP800  GLU811  SER814 

> <Gold.Protein.RotatedAtoms>
  152.0294  133.3931  159.4290 H   0  0  0  0  0  0  0  0  0  0  0  0  # atno 6907 bound_to 6896
  150.6883  134.3538  159.4930 H   0  0  0  0  0  0  0  0  0  0  0  0  # atno 6908 bound_to 6896
  152.1322  134.9126  160.0609 H   0  0  0  0  0  0  0  0  0  0  0  0  # atno 6909 bound_to 6896
  144.7629  139.8063  143.6326 H   0  0  0  0  0  0  0  0  0  0  0  0  # atno 7974 bound_to 7965
  154.4922  140.0858  156.7620 H   0  0  0  0  0  0  0  0  0  0  0  0  # atno 8008 bound_to 7997
  155.4202  140.3445  155.4252 H   0  0  0  0  0  0  0  0  0  0  0  0  # atno 8009 bound_to 7997
  156.1346  140.1511  156.9002 H   0  0  0  0  0  0  0  0  0  0  0  0  # atno 8010 bound_to 7997
  140.5246  143.2328  151.7370 H   0  0  0  0  0  0  0  0  0  0  0  0  # atno 10167 bound_to 10162
  155.9996  130.4735  150.4583 H   0  0  0  0  0  0  0  0  0  0  0  0  # atno 10718 bound_to 10713
  153.9867  135.6710  153.4752 H   0  0  0  0  0  0  0  0  0  0  0  0  # atno 10763 bound_to 10752
  153.0723  135.4967  154.8328 H   0  0  0  0  0  0  0  0  0  0  0  0  # atno 10764 bound_to 10752
  154.7133  135.3102  154.9125 H   0  0  0  0  0  0  0  0  0  0  0  0  # atno 10765 bound_to 10752
  139.8771  134.9149  156.4787 H   0  0  0  0  0  0  0  0  0  0  0  0  # atno 11005 bound_to 11000
  146.1709  139.4859  142.9928 LP  0  0  0  0  0  0  0  0  0  0  0  0  # atno 17320 bound_to 7965
  145.6562  141.0251  143.1733 LP  0  0  0  0  0  0  0  0  0  0  0  0  # atno 17321 bound_to 7965
  139.4934  144.4205  151.9983 LP  0  0  0  0  0  0  0  0  0  0  0  0  # atno 17342 bound_to 10162
  140.3303  144.3324  150.5989 LP  0  0  0  0  0  0  0  0  0  0  0  0  # atno 17343 bound_to 10162
  157.2610  131.0567  151.2320 LP  0  0  0  0  0  0  0  0  0  0  0  0  # atno 17370 bound_to 10713
  157.3435  130.7045  149.6396 LP  0  0  0  0  0  0  0  0  0  0  0  0  # atno 17371 bound_to 10713
  140.8743  133.7965  155.9398 LP  0  0  0  0  0  0  0  0  0  0  0  0  # atno 17394 bound_to 11000
  140.8920  134.2483  157.5089 LP  0  0  0  0  0  0  0  0  0  0  0  0  # atno 17395 bound_to 11000

$$$$
