AV-unprocessed.smi:818|AV-procd|sdf|3832|dock5
  -GOLD-   22720 1273D 1   1.00000     0.00000
 Structure written by MMmdl.
 44 45  0  0  0  0  0  0  0  0  1 V2000
  136.1492  137.2690  154.4735 C   0  0  0  0  0  0  0  0  0  0  0  0
  137.0108  138.3559  153.8206 C   0  0  0  0  0  0  0  0  0  0  0  0
  138.4121  137.9851  153.7968 N   0  0  0  0  0  0  0  0  0  0  0  0
  139.4617  138.6542  153.1991 C   0  0  0  0  0  0  0  0  0  0  0  0
  140.5748  137.9088  153.4677 C   0  0  0  0  0  0  0  0  0  0  0  0
  141.9231  138.1395  153.0953 N   0  0  0  0  0  0  0  0  0  0  0  0
  142.9523  137.2816  153.1878 C   0  0  0  0  0  0  0  0  0  0  0  0
  142.8823  136.1365  153.6353 O   0  0  0  0  0  0  0  0  0  0  0  0
  144.0859  137.8284  152.7242 N   0  0  0  0  0  0  0  0  0  0  0  0
  145.3798  137.1510  152.6526 C   0  0  2  0  0  0  0  0  0  0  0  0
  146.3720  138.0903  151.9472 C   0  0  0  0  0  0  0  0  0  0  0  0
  145.2687  135.8610  151.8243 C   0  0  0  0  0  0  0  0  0  0  0  0
  144.2540  135.6222  151.1673 O   0  0  0  0  0  0  0  0  0  0  0  0
  146.3313  135.0431  151.8581 N   0  0  0  0  0  0  0  0  0  0  0  0
  146.4301  133.7688  151.1526 C   0  0  0  0  0  0  0  0  0  0  0  0
  145.0917  133.0001  151.1728 C   0  0  0  0  0  0  0  0  0  0  0  0
  145.4246  131.5802  151.6344 C   0  0  0  0  0  0  0  0  0  0  0  0
  146.6522  131.7503  152.5232 C   0  0  0  0  0  0  0  0  0  0  0  0
  147.4603  132.8507  151.8351 C   0  0  0  0  0  0  0  0  0  0  0  0
  140.1246  136.8018  154.2327 C   0  0  0  0  0  0  0  0  0  0  0  0
  138.8157  136.8547  154.4279 N   0  0  0  0  0  0  0  0  0  0  0  0
  135.0996  137.5627  154.4864 H   0  0  0  0  0  0  0  0  0  0  0  0
  136.4575  137.0888  155.5038 H   0  0  0  0  0  0  0  0  0  0  0  0
  136.2240  136.3259  153.9309 H   0  0  0  0  0  0  0  0  0  0  0  0
  136.6776  138.5432  152.7987 H   0  0  0  0  0  0  0  0  0  0  0  0
  136.9082  139.2954  154.3647 H   0  0  0  0  0  0  0  0  0  0  0  0
  139.3188  139.5764  152.6554 H   0  0  0  0  0  0  0  0  0  0  0  0
  142.1226  139.0501  152.7080 H   0  0  0  0  0  0  0  0  0  0  0  0
  144.0486  138.7726  152.3692 H   0  0  0  0  0  0  0  0  0  0  0  0
  145.7396  136.9264  153.6587 H   0  0  0  0  0  0  0  0  0  0  0  0
  147.3604  137.6354  151.8683 H   0  0  0  0  0  0  0  0  0  0  0  0
  146.4884  139.0213  152.5029 H   0  0  0  0  0  0  0  0  0  0  0  0
  146.0428  138.3476  150.9392 H   0  0  0  0  0  0  0  0  0  0  0  0
  147.1231  135.3164  152.4218 H   0  0  0  0  0  0  0  0  0  0  0  0
  146.7476  133.9489  150.1238 H   0  0  0  0  0  0  0  0  0  0  0  0
  144.3990  133.4507  151.8859 H   0  0  0  0  0  0  0  0  0  0  0  0
  144.5990  133.0072  150.1999 H   0  0  0  0  0  0  0  0  0  0  0  0
  144.5932  131.1016  152.1527 H   0  0  0  0  0  0  0  0  0  0  0  0
  145.6798  130.9631  150.7718 H   0  0  0  0  0  0  0  0  0  0  0  0
  146.3446  132.0841  153.5152 H   0  0  0  0  0  0  0  0  0  0  0  0
  147.2175  130.8254  152.6417 H   0  0  0  0  0  0  0  0  0  0  0  0
  148.0986  132.4012  151.0733 H   0  0  0  0  0  0  0  0  0  0  0  0
  148.1162  133.3751  152.5317 H   0  0  0  0  0  0  0  0  0  0  0  0
  140.6910  135.9799  154.6455 H   0  0  0  0  0  0  0  0  0  0  0  0
  1  2  1  0  0  0  0
  1 22  1  0  0  0  0
  1 23  1  0  0  0  0
  1 24  1  0  0  0  0
  2  3  1  0  0  0  0
  2 25  1  0  0  0  0
  2 26  1  0  0  0  0
  3 21  1  0  0  0  0
  3  4  1  0  0  0  0
  4  5  2  0  0  0  0
  4 27  1  0  0  0  0
  5  6  1  0  0  0  0
  5 20  1  0  0  0  0
  6  7  1  0  0  0  0
  6 28  1  0  0  0  0
  7  8  2  0  0  0  0
  7  9  1  0  0  0  0
  9 10  1  0  0  0  0
  9 29  1  0  0  0  0
 10 11  1  0  0  0  0
 10 12  1  0  0  0  0
 10 30  1  0  0  0  0
 11 31  1  0  0  0  0
 11 32  1  0  0  0  0
 11 33  1  0  0  0  0
 12 13  2  0  0  0  0
 12 14  1  0  0  0  0
 14 15  1  0  0  0  0
 14 34  1  0  0  0  0
 15 19  1  0  0  0  0
 15 16  1  0  0  0  0
 15 35  1  0  0  0  0
 16 17  1  0  0  0  0
 16 36  1  0  0  0  0
 16 37  1  0  0  0  0
 17 18  1  0  0  0  0
 17 38  1  0  0  0  0
 17 39  1  0  0  0  0
 18 19  1  0  0  0  0
 18 40  1  0  0  0  0
 18 41  1  0  0  0  0
 19 42  1  0  0  0  0
 19 43  1  0  0  0  0
 20 21  2  0  0  0  0
 20 44  1  0  0  0  0
M  END
> <s_m_source_file>
AV-unprocessed.smi

> <i_m_source_file_index>
818

> <i_lp_mmshare_version>
43012

> <i_f3d_flags>
0

> <s_epik_input>
W0NIM11bQ0gyXW4xW2NIXWMoW2NIXW4xKVtOSF1DKD1PKVtOSF1bQ0BIXShbQ0gzXSlDKD1PKVtOSF1bQ0hdMltDSDJdW0NIMl1bQ0gyXVtDSDJdMg==

> <s_epik_cmdline>
J2VwaWtfcHl0aG9uJywgJy1waCcsICc3LjAnLCAnLXRuJywgJzgnLCAnLW1hJywgJzIwMCcsICctbWV0YWxfYmluZGluZycsICctaW1hZScsICc8aW5maWxlLm1hZT4nLCAnLW9tYWUnLCAnPG91dGZpbGUubWFlPic=

> <r_lp_tautomer_probability>
1

> <r_epik_Ionization_Penalty>
0.00015627

> <r_epik_Ionization_Penalty_Charging>
0

> <r_epik_Ionization_Penalty_Neutral>
0.00015627

> <r_epik_State_Penalty>
-0

> <r_epik_Charging_Adjusted_Penalty>
0

> <i_epik_Tot_Q>
0

> <i_epik_Tot_abs_Q>
0

> <r_epik_Metal_State_Penalty>
-0

> <b_epik_Metal_Only>
0

> <s_lp_Force_Field>
OPLS_2005

> <r_lp_Energy>
21.5062

> <b_lp_Chiralities_Consistent>
1

> <s_lp_Variant>
AV-unprocessed.smi:818-1

> <Gold.Version>
5.8.1

> <Gold.Id.Protein>
6NUR|6NUR_protein|mol2

> <Gold.PLP.Fitness>
48.0349

> <Gold.PLP.PLP>
-36.8447

> <Gold.PLP.part.hbond>
-4.0000

> <Gold.PLP.part.metal>
0.0000

> <Gold.PLP.part.buried>
-3.0710

> <Gold.PLP.part.nonpolar>
-31.0442

> <Gold.PLP.part.repulsive>
0.4757

> <Gold.PLP.ligand.clash>
0.0000

> <Gold.PLP.ligand.torsion>
0.6318

> <Gold.PLP.Chemscore.Hbond>
2.5529

> <Gold.PLP.Chemscore.CHOScore>
1.5896

> <Gold.PLP.Chemscore.Metal>
0.0000

> <Gold.Chemscore.Hbonds>
donor molecule, donor type, donor heavy atom, donor atom, acceptor molecule, acceptor atom, score
      L1  H     6    28       P1 10175  0.87
      L1  H     9    29       P1 10175  1.00
      L1  H    14    34       P1  7948  0.49
      L1  C     4    27       P1 10160  1.00
      L1  C    20    44       P1 11000  0.47

> <Gold.PLP.Chemscore.Internal.Correction>
0.0264

> <Gold.Rescore>
     Score         DG    S(hbond)    S(metal)    S(lipo)     H(rot)  DE(clash)    DE(int)     intcor
     13.15     -17.76       2.30        0.00      76.09       1.68       0.33       4.28       ----

> <Gold.Chemscore.Fitness>
13.1543

> <Gold.Chemscore.DG>
-17.7569

> <Gold.Chemscore.ZeroCoef>
-5.4800

> <Gold.Chemscore.Hbond>
2.3001

> <Gold.Chemscore.Metal>
0.0000

> <Gold.Chemscore.Lipo>
76.0924

> <Gold.Chemscore.Internal_Hbond>
0.0000

> <Gold.Chemscore.DEClash>
0.3253

> <Gold.Chemscore.DEInternal>
4.2773

> <Gold.Chemscore.Rot>
1.6828

> <Gold.Chemscore.Internal.Correction>
   9.000000E+99

> <Gold.Chemscore.Hbonds>
donor molecule, donor type, donor heavy atom, donor atom, acceptor molecule, acceptor atom, score
      L1  H     6    28       P1 10175  0.74
      L1  H     9    29       P1 10175  0.98
      L1  H    14    34       P1  7948  0.48

> <Gold.Chemscore.Hbond.Weighted>
-7.6822

> <Gold.Chemscore.Metal.Weighted>
-0.0000

> <Gold.Chemscore.Lipo.Weighted>
-8.9028

> <Gold.Chemscore.Internal_Hbond.Weighted>
0.0000

> <Gold.Chemscore.DEClash.Weighted>
0.3253

> <Gold.Chemscore.DEInternal.Weighted>
4.2773

> <Gold.Chemscore.Rot.Weighted>
4.3081

> <Gold.Chemscore.Internal.Correction.Weighted>
   9.000000E+99

> <Gold.Protein.RotatedTorsions>
[ 6907 6896 6895 6894 ] final  162.26 input  -60.11 | X-H torsion
[ 7974 7965 7964 7962 ] final  167.32 input  175.53 | X-H torsion
[ 8008 7997 7996 7995 ] final -151.75 input   59.86 | X-H torsion
[ 10167 10162 10161 10158 ] final    5.55 input  -65.29 | X-H torsion
[ 10718 10713 10712 10709 ] final -132.89 input   66.30 | X-H torsion
[ 10763 10752 10751 10750 ] final   84.86 input  -60.55 | X-H torsion
[ 11005 11000 10999 10996 ] final -168.95 input  -57.11 | X-H torsion

> <Gold.Protein.ActiveResidues>
 VAL166  LYS551  ARG553  GLY616  TRP617  ASP618  TYR619  PRO620  LYS621  CYS622 
 ASP623  PHE694  ASN695  SER759  ASP760  ASP761  ALA762  ILE779  LEU786  VAL792 
 PHE793  MET794  SER795  GLU796  ALA797  LYS798  CYS799  TRP800  GLU811  SER814 

> <Gold.Protein.RotatedAtoms>
  151.9431  133.3644  159.3972 H   0  0  0  0  0  0  0  0  0  0  0  0  # atno 6907 bound_to 6896
  150.6994  134.4418  159.5305 H   0  0  0  0  0  0  0  0  0  0  0  0  # atno 6908 bound_to 6896
  152.2079  134.8529  160.0551 H   0  0  0  0  0  0  0  0  0  0  0  0  # atno 6909 bound_to 6896
  144.7429  139.8744  143.6391 H   0  0  0  0  0  0  0  0  0  0  0  0  # atno 7974 bound_to 7965
  155.6443  140.0705  157.2608 H   0  0  0  0  0  0  0  0  0  0  0  0  # atno 8008 bound_to 7997
  154.4176  140.1745  156.1656 H   0  0  0  0  0  0  0  0  0  0  0  0  # atno 8009 bound_to 7997
  155.9829  140.3352  155.6684 H   0  0  0  0  0  0  0  0  0  0  0  0  # atno 8010 bound_to 7997
  140.6476  143.7624  150.7523 H   0  0  0  0  0  0  0  0  0  0  0  0  # atno 10167 bound_to 10162
  156.2392  130.7085  151.0940 H   0  0  0  0  0  0  0  0  0  0  0  0  # atno 10718 bound_to 10713
  153.1421  135.4638  154.9511 H   0  0  0  0  0  0  0  0  0  0  0  0  # atno 10763 bound_to 10752
  154.7755  135.3172  154.8103 H   0  0  0  0  0  0  0  0  0  0  0  0  # atno 10764 bound_to 10752
  153.8624  135.6911  153.4836 H   0  0  0  0  0  0  0  0  0  0  0  0  # atno 10765 bound_to 10752
  140.5362  134.5568  157.5088 H   0  0  0  0  0  0  0  0  0  0  0  0  # atno 11005 bound_to 11000
  146.1257  139.4283  143.0200 LP  0  0  0  0  0  0  0  0  0  0  0  0  # atno 17320 bound_to 7965
  145.7238  141.0066  143.1388 LP  0  0  0  0  0  0  0  0  0  0  0  0  # atno 17321 bound_to 7965
  140.1268  143.4562  152.2279 LP  0  0  0  0  0  0  0  0  0  0  0  0  # atno 17342 bound_to 10162
  139.5688  144.7451  151.3948 LP  0  0  0  0  0  0  0  0  0  0  0  0  # atno 17343 bound_to 10162
  157.7168  131.0705  150.6295 LP  0  0  0  0  0  0  0  0  0  0  0  0  # atno 17370 bound_to 10713
  156.6368  130.4447  149.5767 LP  0  0  0  0  0  0  0  0  0  0  0  0  # atno 17371 bound_to 10713
  139.9528  134.7587  156.0409 LP  0  0  0  0  0  0  0  0  0  0  0  0  # atno 17394 bound_to 11000
  141.1253  133.6601  156.3321 LP  0  0  0  0  0  0  0  0  0  0  0  0  # atno 17395 bound_to 11000

$$$$
