AV-unprocessed.smi:2328|AV-procd|sdf|9301|dock5
  -GOLD-   2272012523D 1   1.00000     0.00000
 Structure written by MMmdl.
 40 40  0  0  0  0  0  0  0  0  1 V2000
  147.2199  142.0059  153.3072 C   0  0  0  0  0  0  0  0  0  0  0  0
  148.3785  141.6455  154.2611 C   0  0  0  0  0  0  0  0  0  0  0  0
  148.1866  140.4361  155.2448 C   0  0  2  0  0  0  0  0  0  0  0  0
  149.2729  140.4489  156.2510 N   0  0  0  0  0  0  0  0  0  0  0  0
  150.6199  140.4599  156.1642 C   0  0  0  0  0  0  0  0  0  0  0  0
  151.1556  140.4705  155.0570 O   0  0  0  0  0  0  0  0  0  0  0  0
  151.5008  140.4719  157.4265 C   0  0  0  0  0  0  0  0  0  0  0  0
  151.8130  141.8893  157.8776 C   0  0  0  0  0  0  0  0  0  0  0  0
  152.6979  142.1335  158.9485 C   0  0  0  0  0  0  0  0  0  0  0  0
  152.9532  143.4658  159.3267 C   0  0  0  0  0  0  0  0  0  0  0  0
  152.3113  144.4994  158.6157 C   0  0  0  0  0  0  0  0  0  0  0  0
  151.4619  144.2778  157.5893 N   0  0  0  0  0  0  0  0  0  0  0  0
  151.2223  142.9976  157.2334 C   0  0  0  0  0  0  0  0  0  0  0  0
  148.1481  139.0888  154.4583 C   0  0  0  0  0  0  0  0  0  0  0  0
  149.1838  138.7633  153.6754 N   0  0  0  0  0  0  0  0  0  0  0  0
  147.1956  138.3213  154.5730 O   0  0  0  0  0  0  0  0  0  0  0  0
  146.8443  140.5839  156.0527 C   0  0  0  0  0  0  0  0  0  0  0  0
  146.6814  141.9614  156.7354 C   0  0  0  0  0  0  0  0  0  0  0  0
  146.6207  139.4871  157.1219 C   0  0  0  0  0  0  0  0  0  0  0  0
  147.4946  142.8677  152.6989 H   0  0  0  0  0  0  0  0  0  0  0  0
  146.3102  142.2770  153.8409 H   0  0  0  0  0  0  0  0  0  0  0  0
  146.9770  141.2010  152.6162 H   0  0  0  0  0  0  0  0  0  0  0  0
  149.2409  141.4707  153.6213 H   0  0  0  0  0  0  0  0  0  0  0  0
  148.6310  142.5397  154.8322 H   0  0  0  0  0  0  0  0  0  0  0  0
  148.9281  140.5001  157.1986 H   0  0  0  0  0  0  0  0  0  0  0  0
  151.0208  139.9634  158.2598 H   0  0  0  0  0  0  0  0  0  0  0  0
  152.4302  139.9416  157.2170 H   0  0  0  0  0  0  0  0  0  0  0  0
  153.1745  141.3166  159.4703 H   0  0  0  0  0  0  0  0  0  0  0  0
  153.6254  143.6904  160.1414 H   0  0  0  0  0  0  0  0  0  0  0  0
  152.4845  145.5323  158.8794 H   0  0  0  0  0  0  0  0  0  0  0  0
  150.5396  142.8529  156.4089 H   0  0  0  0  0  0  0  0  0  0  0  0
  149.1692  137.8970  153.1566 H   0  0  0  0  0  0  0  0  0  0  0  0
  149.9734  139.3884  153.6024 H   0  0  0  0  0  0  0  0  0  0  0  0
  146.0151  140.4809  155.3519 H   0  0  0  0  0  0  0  0  0  0  0  0
  147.4529  142.1365  157.4856 H   0  0  0  0  0  0  0  0  0  0  0  0
  145.7183  142.0309  157.2416 H   0  0  0  0  0  0  0  0  0  0  0  0
  146.7182  142.7864  156.0256 H   0  0  0  0  0  0  0  0  0  0  0  0
  147.4093  139.4869  157.8748 H   0  0  0  0  0  0  0  0  0  0  0  0
  146.5720  138.4878  156.6898 H   0  0  0  0  0  0  0  0  0  0  0  0
  145.6764  139.6420  157.6445 H   0  0  0  0  0  0  0  0  0  0  0  0
  1  2  1  0  0  0  0
  1 20  1  0  0  0  0
  1 21  1  0  0  0  0
  1 22  1  0  0  0  0
  2  3  1  0  0  0  0
  2 23  1  0  0  0  0
  2 24  1  0  0  0  0
  3  4  1  0  0  0  0
  3 14  1  0  0  0  0
  3 17  1  0  0  0  0
  4  5  1  0  0  0  0
  4 25  1  0  0  0  0
  5  6  2  0  0  0  0
  5  7  1  0  0  0  0
  7  8  1  0  0  0  0
  7 26  1  0  0  0  0
  7 27  1  0  0  0  0
  8 13  1  0  0  0  0
  8  9  2  0  0  0  0
  9 10  1  0  0  0  0
  9 28  1  0  0  0  0
 10 11  2  0  0  0  0
 10 29  1  0  0  0  0
 11 12  1  0  0  0  0
 11 30  1  0  0  0  0
 12 13  2  0  0  0  0
 13 31  1  0  0  0  0
 14 15  1  0  0  0  0
 14 16  2  0  0  0  0
 15 32  1  0  0  0  0
 15 33  1  0  0  0  0
 17 18  1  0  0  0  0
 17 19  1  0  0  0  0
 17 34  1  0  0  0  0
 18 35  1  0  0  0  0
 18 36  1  0  0  0  0
 18 37  1  0  0  0  0
 19 38  1  0  0  0  0
 19 39  1  0  0  0  0
 19 40  1  0  0  0  0
M  END
> <s_m_source_file>
AV-unprocessed.smi

> <i_m_source_file_index>
2328

> <i_lp_mmshare_version>
43012

> <i_f3d_flags>
0

> <s_epik_input>
W0NIM11bQ0gyXVtDQEBdKEMoPU8pW05IMl0pKFtDSF0oW0NIM10pW0NIM10pW05IXUMoPU8pW0NIMl1jMVtjSF1bY0hdW2NIXW5bY0hdMQ==

> <s_epik_cmdline>
J2VwaWtfcHl0aG9uJywgJy1waCcsICc3LjAnLCAnLXRuJywgJzgnLCAnLW1hJywgJzIwMCcsICctbWV0YWxfYmluZGluZycsICctaW1hZScsICc8aW5maWxlLm1hZT4nLCAnLW9tYWUnLCAnPG91dGZpbGUubWFlPic=

> <r_epik_Ionization_Penalty>
0.00378489

> <r_epik_Ionization_Penalty_Charging>
0

> <r_epik_Ionization_Penalty_Neutral>
0.00378489

> <r_epik_State_Penalty>
0.00269972

> <r_epik_Charging_Adjusted_Penalty>
0.00269972

> <i_epik_Tot_Q>
0

> <i_epik_Tot_abs_Q>
0

> <r_epik_Metal_State_Penalty>
-0

> <b_epik_Metal_Only>
0

> <s_lp_Force_Field>
OPLS_2005

> <r_lp_Energy>
16.0565

> <b_lp_Chiralities_Consistent>
1

> <s_lp_Variant>
AV-unprocessed.smi:2328-2

> <Gold.Version>
5.8.1

> <Gold.Id.Protein>
6NUR|6NUR_protein|mol2

> <Gold.PLP.Fitness>
38.2649

> <Gold.PLP.PLP>
-31.7128

> <Gold.PLP.part.hbond>
-2.8777

> <Gold.PLP.part.metal>
0.0000

> <Gold.PLP.part.buried>
-5.4343

> <Gold.PLP.part.nonpolar>
-23.5700

> <Gold.PLP.part.repulsive>
0.3850

> <Gold.PLP.ligand.clash>
0.0000

> <Gold.PLP.ligand.torsion>
0.6427

> <Gold.PLP.Chemscore.Hbond>
1.9020

> <Gold.PLP.Chemscore.CHOScore>
0.6616

> <Gold.PLP.Chemscore.Metal>
0.0000

> <Gold.Chemscore.Hbonds>
donor molecule, donor type, donor heavy atom, donor atom, acceptor molecule, acceptor atom, score
      L1  H    15    32       P1  7948  0.84
      P1  H  7989  7998       L1     6  1.00
      L1  C    13    31       P1  8028  0.68

> <Gold.PLP.Chemscore.Internal.Correction>
0.1466

> <Gold.Rescore>
     Score         DG    S(hbond)    S(metal)    S(lipo)     H(rot)  DE(clash)    DE(int)     intcor
     13.56     -15.40       1.95        0.00      79.40       2.29       0.09       1.75       ----

> <Gold.Chemscore.Fitness>
13.5591

> <Gold.Chemscore.DG>
-15.4034

> <Gold.Chemscore.ZeroCoef>
-5.4800

> <Gold.Chemscore.Hbond>
1.9465

> <Gold.Chemscore.Metal>
0.0000

> <Gold.Chemscore.Lipo>
79.4000

> <Gold.Chemscore.Internal_Hbond>
0.0000

> <Gold.Chemscore.DEClash>
0.0899

> <Gold.Chemscore.DEInternal>
1.7545

> <Gold.Chemscore.Rot>
2.2921

> <Gold.Chemscore.Internal.Correction>
   9.000000E+99

> <Gold.Chemscore.Hbonds>
donor molecule, donor type, donor heavy atom, donor atom, acceptor molecule, acceptor atom, score
      L1  H    15    32       P1  7948  0.82
      P1  H  7989  7998       L1     6  0.94

> <Gold.Chemscore.Hbond.Weighted>
-6.5013

> <Gold.Chemscore.Metal.Weighted>
-0.0000

> <Gold.Chemscore.Lipo.Weighted>
-9.2898

> <Gold.Chemscore.Internal_Hbond.Weighted>
0.0000

> <Gold.Chemscore.DEClash.Weighted>
0.0899

> <Gold.Chemscore.DEInternal.Weighted>
1.7545

> <Gold.Chemscore.Rot.Weighted>
5.8677

> <Gold.Chemscore.Internal.Correction.Weighted>
   9.000000E+99

> <Gold.Protein.RotatedTorsions>
[ 6907 6896 6895 6894 ] final  122.80 input  -60.11 | X-H torsion
[ 7974 7965 7964 7962 ] final  -91.82 input  175.53 | X-H torsion
[ 8008 7997 7996 7995 ] final   33.84 input   59.86 | X-H torsion
[ 10167 10162 10161 10158 ] final  -74.20 input  -65.29 | X-H torsion
[ 10718 10713 10712 10709 ] final  118.98 input   66.30 | X-H torsion
[ 10763 10752 10751 10750 ] final -154.37 input  -60.55 | X-H torsion
[ 11005 11000 10999 10996 ] final   34.73 input  -57.11 | X-H torsion

> <Gold.Protein.ActiveResidues>
 VAL166  LYS551  ARG553  GLY616  TRP617  ASP618  TYR619  PRO620  LYS621  CYS622 
 ASP623  PHE694  ASN695  SER759  ASP760  ASP761  ALA762  ILE779  LEU786  VAL792 
 PHE793  MET794  SER795  GLU796  ALA797  LYS798  CYS799  TRP800  GLU811  SER814 

> <Gold.Protein.RotatedAtoms>
  152.4213  133.7121  159.6484 H   0  0  0  0  0  0  0  0  0  0  0  0  # atno 6907 bound_to 6896
  150.8089  133.8447  159.3197 H   0  0  0  0  0  0  0  0  0  0  0  0  # atno 6908 bound_to 6896
  151.6163  135.1038  160.0143 H   0  0  0  0  0  0  0  0  0  0  0  0  # atno 6909 bound_to 6896
  145.4080  140.9543  143.2250 H   0  0  0  0  0  0  0  0  0  0  0  0  # atno 7974 bound_to 7965
  155.1452  140.3270  155.4443 H   0  0  0  0  0  0  0  0  0  0  0  0  # atno 8008 bound_to 7997
  156.2592  140.1986  156.6516 H   0  0  0  0  0  0  0  0  0  0  0  0  # atno 8009 bound_to 7997
  154.6513  140.0558  156.9945 H   0  0  0  0  0  0  0  0  0  0  0  0  # atno 8010 bound_to 7997
  140.5047  143.2355  151.7694 H   0  0  0  0  0  0  0  0  0  0  0  0  # atno 10167 bound_to 10162
  157.5993  131.1053  150.7832 H   0  0  0  0  0  0  0  0  0  0  0  0  # atno 10718 bound_to 10713
  154.7863  135.3191  154.7878 H   0  0  0  0  0  0  0  0  0  0  0  0  # atno 10763 bound_to 10752
  153.8578  135.6856  153.4790 H   0  0  0  0  0  0  0  0  0  0  0  0  # atno 10764 bound_to 10752
  153.1516  135.4697  154.9584 H   0  0  0  0  0  0  0  0  0  0  0  0  # atno 10765 bound_to 10752
  140.2499  134.3316  155.7894 H   0  0  0  0  0  0  0  0  0  0  0  0  # atno 11005 bound_to 11000
  144.8328  139.5599  143.6936 LP  0  0  0  0  0  0  0  0  0  0  0  0  # atno 17320 bound_to 7965
  146.2719  139.6656  142.9290 LP  0  0  0  0  0  0  0  0  0  0  0  0  # atno 17321 bound_to 7965
  139.4880  144.4474  151.9694 LP  0  0  0  0  0  0  0  0  0  0  0  0  # atno 17342 bound_to 10162
  140.3564  144.3027  150.5940 LP  0  0  0  0  0  0  0  0  0  0  0  0  # atno 17343 bound_to 10162
  156.8235  130.4992  149.5340 LP  0  0  0  0  0  0  0  0  0  0  0  0  # atno 17370 bound_to 10713
  156.1063  130.6007  150.9976 LP  0  0  0  0  0  0  0  0  0  0  0  0  # atno 17371 bound_to 10713
  141.2202  133.7347  156.9020 LP  0  0  0  0  0  0  0  0  0  0  0  0  # atno 17394 bound_to 11000
  140.1569  134.9192  157.2665 LP  0  0  0  0  0  0  0  0  0  0  0  0  # atno 17395 bound_to 11000

$$$$
