AV-unprocessed.smi:551|AV-procd|sdf|2901|dock5
  -GOLD-   2262023393D 1   1.00000     0.00000
 Structure written by MMmdl.
 38 39  0  0  0  0  0  0  0  0  1 V2000
  149.1452  138.3649  156.7998 C   0  0  0  0  0  0  0  0  0  0  0  0
  150.3617  139.2016  156.3816 C   0  0  1  0  0  0  0  0  0  0  0  0
  150.2746  139.6188  154.8985 C   0  0  0  0  0  0  0  0  0  0  0  0
  148.9964  140.2171  154.5585 N   0  0  0  0  0  0  0  0  0  0  0  0
  147.8295  139.5544  154.1999 C   0  0  0  0  0  0  0  0  0  0  0  0
  146.8790  140.5248  153.9778 C   0  0  0  0  0  0  0  0  0  0  0  0
  147.4370  141.7840  154.1863 N   0  0  0  0  0  0  0  0  0  0  0  0
  148.6924  141.5218  154.5262 C   0  0  0  0  0  0  0  0  0  0  0  0
  150.4495  140.3781  157.2456 N   0  0  0  0  0  0  0  0  0  0  0  0
  151.4995  140.7099  158.0142 C   0  0  0  0  0  0  0  0  0  0  0  0
  152.5184  140.0239  158.1018 O   0  0  0  0  0  0  0  0  0  0  0  0
  151.3878  142.0297  158.7880 C   0  0  0  0  0  0  0  0  0  0  0  0
  151.1930  143.2147  157.8183 C   0  0  0  0  0  0  0  0  0  0  0  0
  151.0935  144.5481  158.5770 C   0  0  0  0  0  0  0  0  0  0  0  0
  152.3229  144.7726  159.4715 C   0  0  0  0  0  0  0  0  0  0  0  0
  152.5297  143.5949  160.4375 C   0  0  0  0  0  0  0  0  0  0  0  0
  152.6286  142.2621  159.6770 C   0  0  0  0  0  0  0  0  0  0  0  0
  149.0647  137.4615  156.1947 H   0  0  0  0  0  0  0  0  0  0  0  0
  148.2174  138.9263  156.6842 H   0  0  0  0  0  0  0  0  0  0  0  0
  149.2205  138.0557  157.8429 H   0  0  0  0  0  0  0  0  0  0  0  0
  151.2445  138.5735  156.5159 H   0  0  0  0  0  0  0  0  0  0  0  0
  151.0552  140.3443  154.6659 H   0  0  0  0  0  0  0  0  0  0  0  0
  150.4437  138.7599  154.2475 H   0  0  0  0  0  0  0  0  0  0  0  0
  147.7716  138.4776  154.1409 H   0  0  0  0  0  0  0  0  0  0  0  0
  145.8451  140.4142  153.6857 H   0  0  0  0  0  0  0  0  0  0  0  0
  149.4068  142.2968  154.7626 H   0  0  0  0  0  0  0  0  0  0  0  0
  149.6581  141.0050  157.2381 H   0  0  0  0  0  0  0  0  0  0  0  0
  150.5118  141.9741  159.4371 H   0  0  0  0  0  0  0  0  0  0  0  0
  152.0236  143.2648  157.1121 H   0  0  0  0  0  0  0  0  0  0  0  0
  150.2916  143.0678  157.2215 H   0  0  0  0  0  0  0  0  0  0  0  0
  150.9928  145.3717  157.8698 H   0  0  0  0  0  0  0  0  0  0  0  0
  150.1906  144.5538  159.1886 H   0  0  0  0  0  0  0  0  0  0  0  0
  153.2100  144.8944  158.8486 H   0  0  0  0  0  0  0  0  0  0  0  0
  152.2095  145.7000  160.0336 H   0  0  0  0  0  0  0  0  0  0  0  0
  153.4321  143.7533  161.0285 H   0  0  0  0  0  0  0  0  0  0  0  0
  151.7005  143.5518  161.1447 H   0  0  0  0  0  0  0  0  0  0  0  0
  152.7387  141.4440  160.3898 H   0  0  0  0  0  0  0  0  0  0  0  0
  153.5342  142.2649  159.0680 H   0  0  0  0  0  0  0  0  0  0  0  0
  1  2  1  0  0  0  0
  1 18  1  0  0  0  0
  1 19  1  0  0  0  0
  1 20  1  0  0  0  0
  2  3  1  0  0  0  0
  2  9  1  0  0  0  0
  2 21  1  0  0  0  0
  3  4  1  0  0  0  0
  3 22  1  0  0  0  0
  3 23  1  0  0  0  0
  4  8  1  0  0  0  0
  4  5  1  0  0  0  0
  5  6  2  0  0  0  0
  5 24  1  0  0  0  0
  6  7  1  0  0  0  0
  6 25  1  0  0  0  0
  7  8  2  0  0  0  0
  8 26  1  0  0  0  0
  9 10  1  0  0  0  0
  9 27  1  0  0  0  0
 10 11  2  0  0  0  0
 10 12  1  0  0  0  0
 12 17  1  0  0  0  0
 12 13  1  0  0  0  0
 12 28  1  0  0  0  0
 13 14  1  0  0  0  0
 13 29  1  0  0  0  0
 13 30  1  0  0  0  0
 14 15  1  0  0  0  0
 14 31  1  0  0  0  0
 14 32  1  0  0  0  0
 15 16  1  0  0  0  0
 15 33  1  0  0  0  0
 15 34  1  0  0  0  0
 16 17  1  0  0  0  0
 16 35  1  0  0  0  0
 16 36  1  0  0  0  0
 17 37  1  0  0  0  0
 17 38  1  0  0  0  0
M  END
> <s_m_source_file>
AV-unprocessed.smi

> <i_m_source_file_index>
551

> <i_lp_mmshare_version>
43012

> <i_f3d_flags>
0

> <s_epik_input>
W2NIXTFuW2NIXVtjSF1uMVtDSDJdW0NAQEhdKFtDSDNdKVtOSF1DKD1PKVtDSF0yW0NIMl1bQ0gyXVtDSDJdW0NIMl1bQ0gyXTI=

> <s_epik_cmdline>
J2VwaWtfcHl0aG9uJywgJy1waCcsICc3LjAnLCAnLXRuJywgJzgnLCAnLW1hJywgJzIwMCcsICctbWV0YWxfYmluZGluZycsICctaW1hZScsICc8aW5maWxlLm1hZT4nLCAnLW9tYWUnLCAnPG91dGZpbGUubWFlPic=

> <r_lp_tautomer_probability>
1

> <r_epik_Ionization_Penalty>
0.642614

> <r_epik_Ionization_Penalty_Charging>
0.642614

> <r_epik_Ionization_Penalty_Neutral>
3.29891e-08

> <r_epik_State_Penalty>
0.660429

> <r_epik_Charging_Adjusted_Penalty>
1.30304

> <i_epik_Tot_Q>
0

> <i_epik_Tot_abs_Q>
0

> <r_epik_Metal_State_Penalty>
0.31224

> <b_epik_Metal_Only>
0

> <s_lp_Force_Field>
OPLS_2005

> <r_lp_Energy>
12.4308

> <b_lp_Chiralities_Consistent>
1

> <s_lp_Variant>
AV-unprocessed.smi:551-4

> <Gold.Version>
5.8.1

> <Gold.Id.Protein>
6NUR|6NUR_protein|mol2

> <Gold.PLP.Fitness>
43.1204

> <Gold.PLP.PLP>
-34.9583

> <Gold.PLP.part.hbond>
-1.0000

> <Gold.PLP.part.metal>
0.0000

> <Gold.PLP.part.buried>
-1.5480

> <Gold.PLP.part.nonpolar>
-32.7252

> <Gold.PLP.part.repulsive>
0.1951

> <Gold.PLP.ligand.clash>
0.0000

> <Gold.PLP.ligand.torsion>
0.4311

> <Gold.PLP.Chemscore.Hbond>
1.0000

> <Gold.PLP.Chemscore.CHOScore>
2.0000

> <Gold.PLP.Chemscore.Metal>
0.0000

> <Gold.Chemscore.Hbonds>
donor molecule, donor type, donor heavy atom, donor atom, acceptor molecule, acceptor atom, score
      P1  H  7997  8009       L1    11  0.29
      L1  C     6    25       P1 10175  1.00
      L1  C     8    26       P1  8028  0.72

> <Gold.PLP.Chemscore.Internal.Correction>
0.0244

> <Gold.Rescore>
     Score         DG    S(hbond)    S(metal)    S(lipo)     H(rot)  DE(clash)    DE(int)     intcor
     14.63     -15.04       0.95        0.00      92.54       1.73       0.01       0.41       ----

> <Gold.Chemscore.Fitness>
14.6305

> <Gold.Chemscore.DG>
-15.0441

> <Gold.Chemscore.ZeroCoef>
-5.4800

> <Gold.Chemscore.Hbond>
0.9493

> <Gold.Chemscore.Metal>
0.0000

> <Gold.Chemscore.Lipo>
92.5414

> <Gold.Chemscore.Internal_Hbond>
0.0000

> <Gold.Chemscore.DEClash>
0.0077

> <Gold.Chemscore.DEInternal>
0.4058

> <Gold.Chemscore.Rot>
1.7319

> <Gold.Chemscore.Internal.Correction>
   9.000000E+99

> <Gold.Chemscore.Hbonds>
donor molecule, donor type, donor heavy atom, donor atom, acceptor molecule, acceptor atom, score
      P1  H  7997  8009       L1    11  0.30

> <Gold.Chemscore.Hbond.Weighted>
-3.1706

> <Gold.Chemscore.Metal.Weighted>
-0.0000

> <Gold.Chemscore.Lipo.Weighted>
-10.8273

> <Gold.Chemscore.Internal_Hbond.Weighted>
0.0000

> <Gold.Chemscore.DEClash.Weighted>
0.0077

> <Gold.Chemscore.DEInternal.Weighted>
0.4058

> <Gold.Chemscore.Rot.Weighted>
4.4338

> <Gold.Chemscore.Internal.Correction.Weighted>
   9.000000E+99

> <Gold.Protein.RotatedTorsions>
[ 6907 6896 6895 6894 ] final -118.74 input  -60.11 | X-H torsion
[ 7974 7965 7964 7962 ] final  132.94 input  175.53 | X-H torsion
[ 8008 7997 7996 7995 ] final  169.38 input   59.86 | X-H torsion
[ 10167 10162 10161 10158 ] final   99.16 input  -65.29 | X-H torsion
[ 10718 10713 10712 10709 ] final -142.14 input   66.30 | X-H torsion
[ 10763 10752 10751 10750 ] final  -69.06 input  -60.55 | X-H torsion
[ 11005 11000 10999 10996 ] final   50.68 input  -57.11 | X-H torsion

> <Gold.Protein.ActiveResidues>
 VAL166  LYS551  ARG553  GLY616  TRP617  ASP618  TYR619  PRO620  LYS621  CYS622 
 ASP623  PHE694  ASN695  SER759  ASP760  ASP761  ALA762  ILE779  LEU786  VAL792 
 PHE793  MET794  SER795  GLU796  ALA797  LYS798  CYS799  TRP800  GLU811  SER814 

> <Gold.Protein.RotatedAtoms>
  150.8245  133.8195  159.3124 H   0  0  0  0  0  0  0  0  0  0  0  0  # atno 6907 bound_to 6896
  151.5943  135.1050  160.0055 H   0  0  0  0  0  0  0  0  0  0  0  0  # atno 6908 bound_to 6896
  152.4331  133.7272  159.6623 H   0  0  0  0  0  0  0  0  0  0  0  0  # atno 6909 bound_to 6896
  144.9916  139.4401  143.5336 H   0  0  0  0  0  0  0  0  0  0  0  0  # atno 7974 bound_to 7965
  156.1462  140.1565  156.8843 H   0  0  0  0  0  0  0  0  0  0  0  0  # atno 8008 bound_to 7997
  154.5030  140.0820  156.7875 H   0  0  0  0  0  0  0  0  0  0  0  0  # atno 8009 bound_to 7997
  155.3984  140.3413  155.4257 H   0  0  0  0  0  0  0  0  0  0  0  0  # atno 8010 bound_to 7997
  139.7643  144.6944  151.0248 H   0  0  0  0  0  0  0  0  0  0  0  0  # atno 10167 bound_to 10162
  156.3423  130.7644  151.1782 H   0  0  0  0  0  0  0  0  0  0  0  0  # atno 10718 bound_to 10713
  154.3979  135.6038  153.5880 H   0  0  0  0  0  0  0  0  0  0  0  0  # atno 10763 bound_to 10752
  152.9788  135.5899  154.4219 H   0  0  0  0  0  0  0  0  0  0  0  0  # atno 10764 bound_to 10752
  154.4013  135.2843  155.2073 H   0  0  0  0  0  0  0  0  0  0  0  0  # atno 10765 bound_to 10752
  140.0997  134.5098  155.8774 H   0  0  0  0  0  0  0  0  0  0  0  0  # atno 11005 bound_to 11000
  146.3432  139.9251  142.8761 LP  0  0  0  0  0  0  0  0  0  0  0  0  # atno 17320 bound_to 7965
  145.2277  140.9961  143.4008 LP  0  0  0  0  0  0  0  0  0  0  0  0  # atno 17321 bound_to 7965
  140.7809  143.4661  151.0210 LP  0  0  0  0  0  0  0  0  0  0  0  0  # atno 17342 bound_to 10162
  139.8347  143.7644  152.3180 LP  0  0  0  0  0  0  0  0  0  0  0  0  # atno 17343 bound_to 10162
  157.7449  131.0451  150.4826 LP  0  0  0  0  0  0  0  0  0  0  0  0  # atno 17370 bound_to 10713
  156.5008  130.4116  149.6354 LP  0  0  0  0  0  0  0  0  0  0  0  0  # atno 17371 bound_to 10713
  141.2102  133.6692  156.6493 LP  0  0  0  0  0  0  0  0  0  0  0  0  # atno 17394 bound_to 11000
  140.3237  134.7986  157.4272 LP  0  0  0  0  0  0  0  0  0  0  0  0  # atno 17395 bound_to 11000

$$$$
