AV-unprocessed.smi:1285|AV-procd|sdf|5371|dock8
  -GOLD-   22720 4513D 1   1.00000     0.00000
 Structure written by MMmdl.
 47 48  0  0  0  0  0  0  0  0  2 V2000
  147.8116  133.9699  157.2741 C   0  0  0  0  0  0  0  0  0  0  0  0
  147.3567  133.7781  155.8163 C   0  0  0  0  0  0  0  0  0  0  0  0
  147.9902  134.7542  154.7769 C   0  0  1  0  0  0  0  0  0  0  0  0
  147.5653  136.1912  155.1815 C   0  0  0  0  0  0  0  0  0  0  0  0
  149.5470  134.6554  154.8365 C   0  0  0  0  0  0  0  0  0  0  0  0
  150.2138  135.8941  154.4414 N   0  0  0  0  0  0  0  0  0  0  0  0
  151.0890  136.5895  155.1845 C   0  0  0  0  0  0  0  0  0  0  0  0
  151.5004  136.2066  156.2802 O   0  0  0  0  0  0  0  0  0  0  0  0
  151.5226  137.9450  154.6088 C   0  0  2  0  0  0  0  0  0  0  0  0
  152.7691  138.5242  155.3039 C   0  0  0  0  0  0  0  0  0  0  0  0
  150.4020  138.8739  154.6655 N   0  0  0  0  0  0  0  0  0  0  0  0
  149.1242  138.7265  154.3037 C   0  0  0  0  0  0  0  0  0  0  0  0
  148.3945  139.8230  154.4508 N   0  0  0  0  0  0  0  0  0  0  0  0
  149.3497  140.6687  154.9384 C   0  0  0  0  0  0  0  0  0  0  0  0
  150.5716  140.1539  155.0755 N   0  0  0  0  0  0  0  0  0  0  0  0
  147.4883  134.4274  153.3920 N   0  3  0  0  0  0  0  0  0  0  0  0
  147.8863  133.0983  152.8473 C   0  0  0  0  0  0  0  0  0  0  0  0
  147.4768  132.9752  151.3695 C   0  0  0  0  0  0  0  0  0  0  0  0
  146.0772  133.1796  151.2378 O   0  0  0  0  0  0  0  0  0  0  0  0
  145.6930  134.4772  151.6697 C   0  0  0  0  0  0  0  0  0  0  0  0
  146.0315  134.6431  153.1600 C   0  0  0  0  0  0  0  0  0  0  0  0
  147.3240  133.2410  157.9218 H   0  0  0  0  0  0  0  0  0  0  0  0
  147.5588  134.9596  157.6539 H   0  0  0  0  0  0  0  0  0  0  0  0
  148.8865  133.8297  157.3850 H   0  0  0  0  0  0  0  0  0  0  0  0
  147.5900  132.7491  155.5419 H   0  0  0  0  0  0  0  0  0  0  0  0
  146.2690  133.8290  155.7743 H   0  0  0  0  0  0  0  0  0  0  0  0
  147.7061  136.3689  156.2486 H   0  0  0  0  0  0  0  0  0  0  0  0
  146.5144  136.3808  154.9619 H   0  0  0  0  0  0  0  0  0  0  0  0
  148.1520  136.9522  154.6665 H   0  0  0  0  0  0  0  0  0  0  0  0
  149.8857  134.3601  155.8297 H   0  0  0  0  0  0  0  0  0  0  0  0
  149.9065  133.8824  154.1582 H   0  0  0  0  0  0  0  0  0  0  0  0
  149.9383  136.2918  153.5546 H   0  0  0  0  0  0  0  0  0  0  0  0
  151.7785  137.7879  153.5589 H   0  0  0  0  0  0  0  0  0  0  0  0
  153.6120  137.8351  155.2389 H   0  0  0  0  0  0  0  0  0  0  0  0
  152.5891  138.7307  156.3597 H   0  0  0  0  0  0  0  0  0  0  0  0
  153.0755  139.4591  154.8336 H   0  0  0  0  0  0  0  0  0  0  0  0
  148.7233  137.8023  153.9134 H   0  0  0  0  0  0  0  0  0  0  0  0
  149.1400  141.6975  155.1919 H   0  0  0  0  0  0  0  0  0  0  0  0
  148.9627  132.9469  152.9018 H   0  0  0  0  0  0  0  0  0  0  0  0
  147.4181  132.2991  153.4225 H   0  0  0  0  0  0  0  0  0  0  0  0
  148.0212  133.6928  150.7536 H   0  0  0  0  0  0  0  0  0  0  0  0
  147.7243  131.9825  150.9932 H   0  0  0  0  0  0  0  0  0  0  0  0
  146.1893  135.2402  151.0676 H   0  0  0  0  0  0  0  0  0  0  0  0
  144.6208  134.5958  151.5129 H   0  0  0  0  0  0  0  0  0  0  0  0
  145.4444  133.9278  153.7362 H   0  0  0  0  0  0  0  0  0  0  0  0
  145.7193  135.6385  153.4695 H   0  0  0  0  0  0  0  0  0  0  0  0
  147.9511  135.0994  152.7965 H   0  0  0  0  0  0  0  0  0  0  0  0
  1  2  1  0  0  0  0
  1 22  1  0  0  0  0
  1 23  1  0  0  0  0
  1 24  1  0  0  0  0
  2  3  1  0  0  0  0
  2 25  1  0  0  0  0
  2 26  1  0  0  0  0
  3  4  1  0  0  0  0
  3  5  1  0  0  0  0
  3 16  1  0  0  0  0
  4 27  1  0  0  0  0
  4 28  1  0  0  0  0
  4 29  1  0  0  0  0
  5  6  1  0  0  0  0
  5 30  1  0  0  0  0
  5 31  1  0  0  0  0
  6  7  1  0  0  0  0
  6 32  1  0  0  0  0
  7  8  2  0  0  0  0
  7  9  1  0  0  0  0
  9 10  1  0  0  0  0
  9 11  1  0  0  0  0
  9 33  1  0  0  0  0
 10 34  1  0  0  0  0
 10 35  1  0  0  0  0
 10 36  1  0  0  0  0
 11 15  1  0  0  0  0
 11 12  1  0  0  0  0
 12 13  2  0  0  0  0
 12 37  1  0  0  0  0
 13 14  1  0  0  0  0
 14 15  2  0  0  0  0
 14 38  1  0  0  0  0
 16 21  1  0  0  0  0
 16 17  1  0  0  0  0
 16 47  1  0  0  0  0
 17 18  1  0  0  0  0
 17 39  1  0  0  0  0
 17 40  1  0  0  0  0
 18 19  1  0  0  0  0
 18 41  1  0  0  0  0
 18 42  1  0  0  0  0
 19 20  1  0  0  0  0
 20 21  1  0  0  0  0
 20 43  1  0  0  0  0
 20 44  1  0  0  0  0
 21 45  1  0  0  0  0
 21 46  1  0  0  0  0
M  CHG  1  16   1
M  END
> <s_m_source_file>
AV-unprocessed.smi

> <i_m_source_file_index>
1285

> <i_lp_mmshare_version>
43012

> <i_f3d_flags>
0

> <s_epik_input>
W0NIMl0xW0NIMl1PW0NIMl1bQ0gyXU4xW0NAQF0oW0NIM10pKFtDSDJdW0NIM10pW0NIMl1bTkhdQyg9TylbQ0BIXShbQ0gzXSluMltjSF1uW2NIXW4y

> <s_epik_cmdline>
J2VwaWtfcHl0aG9uJywgJy1waCcsICc3LjAnLCAnLXRuJywgJzgnLCAnLW1hJywgJzIwMCcsICctbWV0YWxfYmluZGluZycsICctaW1hZScsICc8aW5maWxlLm1hZT4nLCAnLW9tYWUnLCAnPG91dGZpbGUubWFlPic=

> <r_lp_tautomer_probability>
1

> <r_epik_Ionization_Penalty>
0.569304

> <r_epik_Ionization_Penalty_Charging>
0.569295

> <r_epik_Ionization_Penalty_Neutral>
8.22697e-06

> <r_epik_State_Penalty>
0.581114

> <r_epik_Charging_Adjusted_Penalty>
1.15041

> <i_epik_Tot_Q>
1

> <i_epik_Tot_abs_Q>
1

> <r_epik_Metal_State_Penalty>
0.581117

> <b_epik_Metal_Only>
0

> <s_lp_Force_Field>
OPLS_2005

> <r_lp_Energy>
33.7003

> <b_lp_Chiralities_Consistent>
1

> <s_lp_Variant>
AV-unprocessed.smi:1285-5

> <Gold.Version>
5.8.1

> <Gold.Id.Protein>
6NUR|6NUR_protein|mol2

> <Gold.PLP.Fitness>
46.2416

> <Gold.PLP.PLP>
-30.7857

> <Gold.PLP.part.hbond>
-5.0000

> <Gold.PLP.part.metal>
0.0000

> <Gold.PLP.part.buried>
-0.2768

> <Gold.PLP.part.nonpolar>
-25.4806

> <Gold.PLP.part.repulsive>
0.4221

> <Gold.PLP.ligand.clash>
0.0000

> <Gold.PLP.ligand.torsion>
1.0775

> <Gold.PLP.Chemscore.Hbond>
4.7780

> <Gold.PLP.Chemscore.CHOScore>
0.9953

> <Gold.PLP.Chemscore.Metal>
0.0000

> <Gold.Chemscore.Hbonds>
donor molecule, donor type, donor heavy atom, donor atom, acceptor molecule, acceptor atom, score
      L1  H     6    32       P1  7948  0.80
      L1  H    16    47       P1  7948  2.00
      P1  H  7989  7998       L1    15  1.00
      P1  H 10752 10765       L1     8  0.17
      L1  C    12    37       P1  7948  0.88

> <Gold.PLP.Chemscore.Internal.Correction>
0.2911

> <Gold.Rescore>
     Score         DG    S(hbond)    S(metal)    S(lipo)     H(rot)  DE(clash)    DE(int)     intcor
     10.38     -11.76       2.30        0.00      48.49       2.76       0.11       1.28       ----

> <Gold.Chemscore.Fitness>
10.3804

> <Gold.Chemscore.DG>
-11.7643

> <Gold.Chemscore.ZeroCoef>
-5.4800

> <Gold.Chemscore.Hbond>
2.2976

> <Gold.Chemscore.Metal>
0.0000

> <Gold.Chemscore.Lipo>
48.4872

> <Gold.Chemscore.Internal_Hbond>
0.0000

> <Gold.Chemscore.DEClash>
0.1058

> <Gold.Chemscore.DEInternal>
1.2782

> <Gold.Chemscore.Rot>
2.7589

> <Gold.Chemscore.Internal.Correction>
   9.000000E+99

> <Gold.Chemscore.Hbonds>
donor molecule, donor type, donor heavy atom, donor atom, acceptor molecule, acceptor atom, score
      L1  H     6    32       P1  7948  0.11
      L1  H    16    47       P1  7948  0.98
      P1  H  7989  7998       L1    15  0.12

> <Gold.Chemscore.Hbond.Weighted>
-7.6740

> <Gold.Chemscore.Metal.Weighted>
-0.0000

> <Gold.Chemscore.Lipo.Weighted>
-5.6730

> <Gold.Chemscore.Internal_Hbond.Weighted>
0.0000

> <Gold.Chemscore.DEClash.Weighted>
0.1058

> <Gold.Chemscore.DEInternal.Weighted>
1.2782

> <Gold.Chemscore.Rot.Weighted>
7.0627

> <Gold.Chemscore.Internal.Correction.Weighted>
   9.000000E+99

> <Gold.Protein.RotatedTorsions>
[ 6907 6896 6895 6894 ] final  123.14 input  -60.11 | X-H torsion
[ 7974 7965 7964 7962 ] final  164.36 input  175.53 | X-H torsion
[ 8008 7997 7996 7995 ] final -156.31 input   59.86 | X-H torsion
[ 10167 10162 10161 10158 ] final -146.58 input  -65.29 | X-H torsion
[ 10718 10713 10712 10709 ] final    6.71 input   66.30 | X-H torsion
[ 10763 10752 10751 10750 ] final -136.49 input  -60.55 | X-H torsion
[ 11005 11000 10999 10996 ] final    2.06 input  -57.11 | X-H torsion

> <Gold.Protein.ActiveResidues>
 VAL166  LYS551  ARG553  GLY616  TRP617  ASP618  TYR619  PRO620  LYS621  CYS622 
 ASP623  PHE694  ASN695  SER759  ASP760  ASP761  ALA762  ILE779  LEU786  VAL792 
 PHE793  MET794  SER795  GLU796  ALA797  LYS798  CYS799  TRP800  GLU811  SER814 

> <Gold.Protein.RotatedAtoms>
  152.4186  133.7079  159.6461 H   0  0  0  0  0  0  0  0  0  0  0  0  # atno 6907 bound_to 6896
  150.8063  133.8494  159.3210 H   0  0  0  0  0  0  0  0  0  0  0  0  # atno 6908 bound_to 6896
  151.6217  135.1033  160.0154 H   0  0  0  0  0  0  0  0  0  0  0  0  # atno 6909 bound_to 6896
  144.7548  139.8315  143.6353 H   0  0  0  0  0  0  0  0  0  0  0  0  # atno 7974 bound_to 7965
  155.7152  140.0783  157.2354 H   0  0  0  0  0  0  0  0  0  0  0  0  # atno 8008 bound_to 7997
  154.4053  140.1623  156.2395 H   0  0  0  0  0  0  0  0  0  0  0  0  # atno 8009 bound_to 7997
  155.9246  140.3395  155.6203 H   0  0  0  0  0  0  0  0  0  0  0  0  # atno 8010 bound_to 7997
  139.7700  143.8252  152.2623 H   0  0  0  0  0  0  0  0  0  0  0  0  # atno 10167 bound_to 10162
  156.9262  130.5809  149.5648 H   0  0  0  0  0  0  0  0  0  0  0  0  # atno 10718 bound_to 10713
  154.8682  135.3671  154.5069 H   0  0  0  0  0  0  0  0  0  0  0  0  # atno 10763 bound_to 10752
  153.5706  135.7021  153.5511 H   0  0  0  0  0  0  0  0  0  0  0  0  # atno 10764 bound_to 10752
  153.3545  135.4063  155.1634 H   0  0  0  0  0  0  0  0  0  0  0  0  # atno 10765 bound_to 10752
  140.6085  133.9770  155.8166 H   0  0  0  0  0  0  0  0  0  0  0  0  # atno 11005 bound_to 11000
  146.1545  139.4639  143.0027 LP  0  0  0  0  0  0  0  0  0  0  0  0  # atno 17320 bound_to 7965
  145.6816  141.0189  143.1603 LP  0  0  0  0  0  0  0  0  0  0  0  0  # atno 17321 bound_to 7965
  139.8283  144.7265  150.9483 LP  0  0  0  0  0  0  0  0  0  0  0  0  # atno 17342 bound_to 10162
  140.7813  143.4094  151.1018 LP  0  0  0  0  0  0  0  0  0  0  0  0  # atno 17343 bound_to 10162
  156.0468  130.5543  150.8899 LP  0  0  0  0  0  0  0  0  0  0  0  0  # atno 17370 bound_to 10713
  157.5876  131.0945  150.9171 LP  0  0  0  0  0  0  0  0  0  0  0  0  # atno 17371 bound_to 10713
  141.0824  134.0042  157.3366 LP  0  0  0  0  0  0  0  0  0  0  0  0  # atno 17394 bound_to 11000
  139.9202  135.0200  156.8035 LP  0  0  0  0  0  0  0  0  0  0  0  0  # atno 17395 bound_to 11000

$$$$
