AV-unprocessed.smi:3117|AV-procd|sdf|11879|dock5
  -GOLD-   2272017263D 1   1.00000     0.00000
 Structure written by MMmdl.
 37 37  0  0  0  0  0  0  0  0  2 V2000
  151.7662  140.7128  157.5741 C   0  0  0  0  0  0  0  0  0  0  0  0
  150.5280  141.4286  157.0045 C   0  0  1  0  0  0  0  0  0  0  0  0
  150.6812  142.8855  157.2157 N   0  3  0  0  0  0  0  0  0  0  0  0
  150.5904  143.3236  158.6258 C   0  0  0  0  0  0  0  0  0  0  0  0
  151.9148  143.9280  159.1388 C   0  0  0  0  0  0  0  0  0  0  0  0
  152.6394  144.6653  158.0002 C   0  0  0  0  0  0  0  0  0  0  0  0
  151.7050  144.8721  160.3370 C   0  0  0  0  0  0  0  0  0  0  0  0
  152.7591  142.8672  159.5426 O   0  0  0  0  0  0  0  0  0  0  0  0
  150.2857  141.1169  155.5026 C   0  0  2  0  0  0  0  0  0  0  0  0
  148.9554  141.6894  154.9755 C   0  0  0  0  0  0  0  0  0  0  0  0
  150.3563  139.6874  155.2251 N   0  0  0  0  0  0  0  0  0  0  0  0
  149.6411  138.6647  155.8141 C   0  0  0  0  0  0  0  0  0  0  0  0
  150.0428  137.4966  155.2318 C   0  0  0  0  0  0  0  0  0  0  0  0
  151.0235  137.9092  154.2874 C   0  0  0  0  0  0  0  0  0  0  0  0
  151.2087  139.2192  154.2853 N   0  0  0  0  0  0  0  0  0  0  0  0
  151.6619  139.6283  157.5370 H   0  0  0  0  0  0  0  0  0  0  0  0
  151.9258  140.9808  158.6191 H   0  0  0  0  0  0  0  0  0  0  0  0
  152.6679  140.9795  157.0217 H   0  0  0  0  0  0  0  0  0  0  0  0
  149.6668  141.0768  157.5758 H   0  0  0  0  0  0  0  0  0  0  0  0
  151.5835  143.1663  156.8601 H   0  0  0  0  0  0  0  0  0  0  0  0
  149.7871  144.0556  158.7210 H   0  0  0  0  0  0  0  0  0  0  0  0
  150.3097  142.4672  159.2408 H   0  0  0  0  0  0  0  0  0  0  0  0
  152.0469  145.5045  157.6341 H   0  0  0  0  0  0  0  0  0  0  0  0
  152.8303  144.0045  157.1537 H   0  0  0  0  0  0  0  0  0  0  0  0
  153.6005  145.0626  158.3295 H   0  0  0  0  0  0  0  0  0  0  0  0
  151.0476  145.7012  160.0732 H   0  0  0  0  0  0  0  0  0  0  0  0
  152.6503  145.2991  160.6746 H   0  0  0  0  0  0  0  0  0  0  0  0
  151.2603  144.3570  161.1889 H   0  0  0  0  0  0  0  0  0  0  0  0
  152.3752  142.4463  160.2973 H   0  0  0  0  0  0  0  0  0  0  0  0
  151.0898  141.5836  154.9310 H   0  0  0  0  0  0  0  0  0  0  0  0
  148.9361  142.7778  155.0324 H   0  0  0  0  0  0  0  0  0  0  0  0
  148.1041  141.3119  155.5426 H   0  0  0  0  0  0  0  0  0  0  0  0
  148.8020  141.4204  153.9300 H   0  0  0  0  0  0  0  0  0  0  0  0
  148.9122  138.8499  156.5892 H   0  0  0  0  0  0  0  0  0  0  0  0
  149.6911  136.4987  155.4483 H   0  0  0  0  0  0  0  0  0  0  0  0
  151.6020  137.3008  153.6078 H   0  0  0  0  0  0  0  0  0  0  0  0
  149.9665  143.3641  156.6857 H   0  0  0  0  0  0  0  0  0  0  0  0
  1  2  1  0  0  0  0
  1 16  1  0  0  0  0
  1 17  1  0  0  0  0
  1 18  1  0  0  0  0
  2  3  1  0  0  0  0
  2  9  1  0  0  0  0
  2 19  1  0  0  0  0
  3  4  1  0  0  0  0
  3 20  1  0  0  0  0
  3 37  1  0  0  0  0
  4  5  1  0  0  0  0
  4 21  1  0  0  0  0
  4 22  1  0  0  0  0
  5  6  1  0  0  0  0
  5  7  1  0  0  0  0
  5  8  1  0  0  0  0
  6 23  1  0  0  0  0
  6 24  1  0  0  0  0
  6 25  1  0  0  0  0
  7 26  1  0  0  0  0
  7 27  1  0  0  0  0
  7 28  1  0  0  0  0
  8 29  1  0  0  0  0
  9 10  1  0  0  0  0
  9 11  1  0  0  0  0
  9 30  1  0  0  0  0
 10 31  1  0  0  0  0
 10 32  1  0  0  0  0
 10 33  1  0  0  0  0
 11 15  1  0  0  0  0
 11 12  1  0  0  0  0
 12 13  2  0  0  0  0
 12 34  1  0  0  0  0
 13 14  1  0  0  0  0
 13 35  1  0  0  0  0
 14 15  2  0  0  0  0
 14 36  1  0  0  0  0
M  CHG  1   3   1
M  END
> <s_m_source_file>
AV-unprocessed.smi

> <i_m_source_file_index>
3117

> <i_lp_mmshare_version>
43012

> <i_f3d_flags>
0

> <s_epik_input>
W0NIM11DKFtDSDNdKShbT0hdKVtDSDJdW05IXVtDQEBIXShbQ0gzXSlbQ0BIXShbQ0gzXSluMVtjSF1bY0hdW2NIXW4x

> <s_epik_cmdline>
J2VwaWtfcHl0aG9uJywgJy1waCcsICc3LjAnLCAnLXRuJywgJzgnLCAnLW1hJywgJzIwMCcsICctbWV0YWxfYmluZGluZycsICctaW1hZScsICc8aW5maWxlLm1hZT4nLCAnLW9tYWUnLCAnPG91dGZpbGUubWFlPic=

> <r_lp_tautomer_probability>
1

> <r_epik_Ionization_Penalty>
0.0164263

> <r_epik_Ionization_Penalty_Charging>
0.0164138

> <r_epik_Ionization_Penalty_Neutral>
1.24697e-05

> <r_epik_State_Penalty>
0.0129543

> <r_epik_Charging_Adjusted_Penalty>
0.0293681

> <i_epik_Tot_Q>
1

> <i_epik_Tot_abs_Q>
1

> <r_epik_Metal_State_Penalty>
0.0129806

> <b_epik_Metal_Only>
0

> <s_lp_Force_Field>
OPLS_2005

> <r_lp_Energy>
13.915

> <b_lp_Chiralities_Consistent>
1

> <s_lp_Variant>
AV-unprocessed.smi:3117-2

> <Gold.Version>
5.8.1

> <Gold.Id.Protein>
6NUR|6NUR_protein|mol2

> <Gold.PLP.Fitness>
42.8243

> <Gold.PLP.PLP>
-32.9791

> <Gold.PLP.part.hbond>
-2.0000

> <Gold.PLP.part.metal>
0.0000

> <Gold.PLP.part.buried>
-2.9013

> <Gold.PLP.part.nonpolar>
-28.8112

> <Gold.PLP.part.repulsive>
0.1672

> <Gold.PLP.ligand.clash>
0.0000

> <Gold.PLP.ligand.torsion>
1.0519

> <Gold.PLP.Chemscore.Hbond>
2.9500

> <Gold.PLP.Chemscore.CHOScore>
1.0000

> <Gold.PLP.Chemscore.Metal>
0.0000

> <Gold.Chemscore.Hbonds>
donor molecule, donor type, donor heavy atom, donor atom, acceptor molecule, acceptor atom, score
      L1  H     3    37       P1  8028  2.00
      P1  H  7989  7998       L1    15  0.90
      L1  C    14    36       P1  7949  1.00

> <Gold.PLP.Chemscore.Internal.Correction>
0.0989

> <Gold.Rescore>
     Score         DG    S(hbond)    S(metal)    S(lipo)     H(rot)  DE(clash)    DE(int)     intcor
     13.82     -15.89       1.68        0.00      90.65       2.27       1.04       1.02       ----

> <Gold.Chemscore.Fitness>
13.8230

> <Gold.Chemscore.DG>
-15.8871

> <Gold.Chemscore.ZeroCoef>
-5.4800

> <Gold.Chemscore.Hbond>
1.6822

> <Gold.Chemscore.Metal>
0.0000

> <Gold.Chemscore.Lipo>
90.6510

> <Gold.Chemscore.Internal_Hbond>
0.0000

> <Gold.Chemscore.DEClash>
1.0406

> <Gold.Chemscore.DEInternal>
1.0235

> <Gold.Chemscore.Rot>
2.2725

> <Gold.Chemscore.Internal.Correction>
   9.000000E+99

> <Gold.Chemscore.Hbonds>
donor molecule, donor type, donor heavy atom, donor atom, acceptor molecule, acceptor atom, score
      L1  H     3    37       P1  8028  0.95
      P1  H  7989  7998       L1    15  0.18

> <Gold.Chemscore.Hbond.Weighted>
-5.6186

> <Gold.Chemscore.Metal.Weighted>
-0.0000

> <Gold.Chemscore.Lipo.Weighted>
-10.6062

> <Gold.Chemscore.Internal_Hbond.Weighted>
0.0000

> <Gold.Chemscore.DEClash.Weighted>
1.0406

> <Gold.Chemscore.DEInternal.Weighted>
1.0235

> <Gold.Chemscore.Rot.Weighted>
5.8176

> <Gold.Chemscore.Internal.Correction.Weighted>
   9.000000E+99

> <Gold.Protein.RotatedTorsions>
[ 6907 6896 6895 6894 ] final   23.56 input  -60.11 | X-H torsion
[ 7974 7965 7964 7962 ] final   60.81 input  175.53 | X-H torsion
[ 8008 7997 7996 7995 ] final  -10.49 input   59.86 | X-H torsion
[ 10167 10162 10161 10158 ] final  136.79 input  -65.29 | X-H torsion
[ 10718 10713 10712 10709 ] final   -6.60 input   66.30 | X-H torsion
[ 10763 10752 10751 10750 ] final  -82.99 input  -60.55 | X-H torsion
[ 11005 11000 10999 10996 ] final  122.03 input  -57.11 | X-H torsion

> <Gold.Protein.ActiveResidues>
 VAL166  LYS551  ARG553  GLY616  TRP617  ASP618  TYR619  PRO620  LYS621  CYS622 
 ASP623  PHE694  ASN695  SER759  ASP760  ASP761  ALA762  ILE779  LEU786  VAL792 
 PHE793  MET794  SER795  GLU796  ALA797  LYS798  CYS799  TRP800  GLU811  SER814 

> <Gold.Protein.RotatedAtoms>
  151.9442  135.0199  160.0537 H   0  0  0  0  0  0  0  0  0  0  0  0  # atno 6907 bound_to 6896
  152.2010  133.4836  159.5066 H   0  0  0  0  0  0  0  0  0  0  0  0  # atno 6908 bound_to 6896
  150.6954  134.1508  159.4182 H   0  0  0  0  0  0  0  0  0  0  0  0  # atno 6909 bound_to 6896
  145.8918  139.3517  143.0644 H   0  0  0  0  0  0  0  0  0  0  0  0  # atno 7974 bound_to 7965
  154.5550  140.2327  155.8424 H   0  0  0  0  0  0  0  0  0  0  0  0  # atno 8008 bound_to 7997
  156.1980  140.3060  155.9428 H   0  0  0  0  0  0  0  0  0  0  0  0  # atno 8009 bound_to 7997
  155.2997  140.0430  157.3019 H   0  0  0  0  0  0  0  0  0  0  0  0  # atno 8010 bound_to 7997
  139.5167  144.6445  151.5477 H   0  0  0  0  0  0  0  0  0  0  0  0  # atno 10167 bound_to 10162
  156.7295  130.5176  149.5849 H   0  0  0  0  0  0  0  0  0  0  0  0  # atno 10718 bound_to 10713
  154.5824  135.5572  153.7198 H   0  0  0  0  0  0  0  0  0  0  0  0  # atno 10763 bound_to 10752
  153.0086  135.6323  154.1964 H   0  0  0  0  0  0  0  0  0  0  0  0  # atno 10764 bound_to 10752
  154.1905  135.2882  155.3003 H   0  0  0  0  0  0  0  0  0  0  0  0  # atno 10765 bound_to 10752
  139.9251  134.9640  156.8048 H   0  0  0  0  0  0  0  0  0  0  0  0  # atno 11005 bound_to 11000
  145.8898  140.9311  143.0558 LP  0  0  0  0  0  0  0  0  0  0  0  0  # atno 17320 bound_to 7965
  144.6731  140.0891  143.7466 LP  0  0  0  0  0  0  0  0  0  0  0  0  # atno 17321 bound_to 7965
  140.6225  143.9232  150.6537 LP  0  0  0  0  0  0  0  0  0  0  0  0  # atno 17342 bound_to 10162
  140.2510  143.3593  152.1406 LP  0  0  0  0  0  0  0  0  0  0  0  0  # atno 17343 bound_to 10162
  156.1538  130.6328  151.0631 LP  0  0  0  0  0  0  0  0  0  0  0  0  # atno 17370 bound_to 10713
  157.6864  131.0823  150.7229 LP  0  0  0  0  0  0  0  0  0  0  0  0  # atno 17371 bound_to 10713
  140.6360  133.9862  155.7684 LP  0  0  0  0  0  0  0  0  0  0  0  0  # atno 17394 bound_to 11000
  141.0802  134.0074  157.3397 LP  0  0  0  0  0  0  0  0  0  0  0  0  # atno 17395 bound_to 11000

$$$$
