AV-unprocessed.smi:1743|AV-procd|sdf|7023|dock6
  -GOLD-   22720 8243D 1   1.00000     0.00000
 Structure written by MMmdl.
 38 39  0  0  0  0  0  0  0  0  1 V2000
  148.3592  136.1024  160.3424 C   0  0  0  0  0  0  0  0  0  0  0  0
  149.3823  136.2220  159.3599 O   0  0  0  0  0  0  0  0  0  0  0  0
  149.0747  135.9062  158.0523 C   0  0  0  0  0  0  0  0  0  0  0  0
  150.0988  135.9623  157.0861 C   0  0  0  0  0  0  0  0  0  0  0  0
  149.7929  135.6439  155.7492 C   0  0  0  0  0  0  0  0  0  0  0  0
  148.4645  135.2849  155.4186 C   0  0  0  0  0  0  0  0  0  0  0  0
  148.0364  134.9237  154.1127 N   0  0  0  0  0  0  0  0  0  0  0  0
  147.0994  134.0271  153.7592 C   0  0  0  0  0  0  0  0  0  0  0  0
  146.4666  133.3168  154.5403 O   0  0  0  0  0  0  0  0  0  0  0  0
  146.9516  133.9847  152.4271 N   0  0  0  0  0  0  0  0  0  0  0  0
  146.0353  133.1149  151.6939 C   0  0  2  0  0  0  0  0  0  0  0  0
  146.5073  132.9696  150.2353 C   0  0  0  0  0  0  0  0  0  0  0  0
  145.5271  132.1224  149.4044 C   0  0  0  0  0  0  0  0  0  0  0  0
  144.0848  132.6590  149.4750 C   0  0  2  0  0  0  0  0  0  0  0  0
  143.9879  133.8820  148.7722 O   0  0  0  0  0  0  0  0  0  0  0  0
  143.6216  132.8487  150.9320 C   0  0  0  0  0  0  0  0  0  0  0  0
  144.6103  133.6944  151.7538 C   0  0  0  0  0  0  0  0  0  0  0  0
  147.5171  135.2429  156.4624 C   0  0  0  0  0  0  0  0  0  0  0  0
  147.8030  135.5490  157.7453 N   0  0  0  0  0  0  0  0  0  0  0  0
  148.7590  136.3844  161.3163 H   0  0  0  0  0  0  0  0  0  0  0  0
  147.9959  135.0765  160.4185 H   0  0  0  0  0  0  0  0  0  0  0  0
  147.5192  136.7638  160.1252 H   0  0  0  0  0  0  0  0  0  0  0  0
  151.1040  136.2409  157.3662 H   0  0  0  0  0  0  0  0  0  0  0  0
  150.5809  135.6666  155.0128 H   0  0  0  0  0  0  0  0  0  0  0  0
  148.5386  135.3634  153.3555 H   0  0  0  0  0  0  0  0  0  0  0  0
  147.5237  134.6028  151.8707 H   0  0  0  0  0  0  0  0  0  0  0  0
  146.0126  132.1218  152.1464 H   0  0  0  0  0  0  0  0  0  0  0  0
  146.6110  133.9554  149.7793 H   0  0  0  0  0  0  0  0  0  0  0  0
  147.4976  132.5137  150.2079 H   0  0  0  0  0  0  0  0  0  0  0  0
  145.8614  132.0715  148.3675 H   0  0  0  0  0  0  0  0  0  0  0  0
  145.5425  131.0980  149.7786 H   0  0  0  0  0  0  0  0  0  0  0  0
  143.4178  131.9543  148.9772 H   0  0  0  0  0  0  0  0  0  0  0  0
  144.8579  134.1561  148.5255 H   0  0  0  0  0  0  0  0  0  0  0  0
  142.6291  133.3000  150.9587 H   0  0  0  0  0  0  0  0  0  0  0  0
  143.5216  131.8695  151.4021 H   0  0  0  0  0  0  0  0  0  0  0  0
  144.2730  133.7452  152.7898 H   0  0  0  0  0  0  0  0  0  0  0  0
  144.6107  134.7195  151.3806 H   0  0  0  0  0  0  0  0  0  0  0  0
  146.4940  134.9592  156.2630 H   0  0  0  0  0  0  0  0  0  0  0  0
  1  2  1  0  0  0  0
  1 20  1  0  0  0  0
  1 21  1  0  0  0  0
  1 22  1  0  0  0  0
  2  3  1  0  0  0  0
  3 19  1  0  0  0  0
  3  4  2  0  0  0  0
  4  5  1  0  0  0  0
  4 23  1  0  0  0  0
  5  6  2  0  0  0  0
  5 24  1  0  0  0  0
  6  7  1  0  0  0  0
  6 18  1  0  0  0  0
  7  8  1  0  0  0  0
  7 25  1  0  0  0  0
  8  9  2  0  0  0  0
  8 10  1  0  0  0  0
 10 11  1  0  0  0  0
 10 26  1  0  0  0  0
 11 17  1  0  0  0  0
 11 12  1  0  0  0  0
 11 27  1  0  0  0  0
 12 13  1  0  0  0  0
 12 28  1  0  0  0  0
 12 29  1  0  0  0  0
 13 14  1  0  0  0  0
 13 30  1  0  0  0  0
 13 31  1  0  0  0  0
 14 15  1  0  0  0  0
 14 16  1  0  0  0  0
 14 32  1  0  0  0  0
 15 33  1  0  0  0  0
 16 17  1  0  0  0  0
 16 34  1  0  0  0  0
 16 35  1  0  0  0  0
 17 36  1  0  0  0  0
 17 37  1  0  0  0  0
 18 19  2  0  0  0  0
 18 38  1  0  0  0  0
M  END
> <s_m_source_file>
AV-unprocessed.smi

> <i_m_source_file_index>
1743

> <i_lp_mmshare_version>
43012

> <i_f3d_flags>
0

> <s_epik_input>
W0NIM11PYzFbY0hdW2NIXWMoW2NIXW4xKVtOSF1DKD1PKVtOSF1bQ0BASF0yW0NIMl1bQ0gyXVtDQEBIXShbT0hdKVtDSDJdW0NIMl0y

> <s_epik_cmdline>
J2VwaWtfcHl0aG9uJywgJy1waCcsICc3LjAnLCAnLXRuJywgJzgnLCAnLW1hJywgJzIwMCcsICctbWV0YWxfYmluZGluZycsICctaW1hZScsICc8aW5maWxlLm1hZT4nLCAnLW9tYWUnLCAnPG91dGZpbGUubWFlPic=

> <r_lp_tautomer_probability>
1

> <r_epik_Ionization_Penalty>
9.95686e-05

> <r_epik_Ionization_Penalty_Charging>
0

> <r_epik_Ionization_Penalty_Neutral>
9.95686e-05

> <r_epik_State_Penalty>
-0

> <r_epik_Charging_Adjusted_Penalty>
0

> <i_epik_Tot_Q>
0

> <i_epik_Tot_abs_Q>
0

> <r_epik_Metal_State_Penalty>
-0

> <b_epik_Metal_Only>
0

> <s_lp_Force_Field>
OPLS_2005

> <r_lp_Energy>
13.581

> <b_lp_Chiralities_Consistent>
1

> <s_lp_Variant>
AV-unprocessed.smi:1743-2

> <Gold.Version>
5.8.1

> <Gold.Id.Protein>
6NUR|6NUR_protein|mol2

> <Gold.PLP.Fitness>
40.4100

> <Gold.PLP.PLP>
-29.5965

> <Gold.PLP.part.hbond>
-4.7689

> <Gold.PLP.part.metal>
0.0000

> <Gold.PLP.part.buried>
-4.8223

> <Gold.PLP.part.nonpolar>
-19.8271

> <Gold.PLP.part.repulsive>
0.0700

> <Gold.PLP.ligand.clash>
0.0000

> <Gold.PLP.ligand.torsion>
0.5111

> <Gold.PLP.Chemscore.Hbond>
3.9440

> <Gold.PLP.Chemscore.CHOScore>
0.0000

> <Gold.PLP.Chemscore.Metal>
0.0000

> <Gold.Chemscore.Hbonds>
donor molecule, donor type, donor heavy atom, donor atom, acceptor molecule, acceptor atom, score
      L1  H     7    25       P1  7948  1.00
      L1  H    10    26       P1  7948  0.75
      L1  H    15    33       P1  7921  1.00
      P1  H  6896  6908       L1     2  1.00

> <Gold.PLP.Chemscore.Internal.Correction>
0.0036

> <Gold.Rescore>
     Score         DG    S(hbond)    S(metal)    S(lipo)     H(rot)  DE(clash)    DE(int)     intcor
     16.87     -18.82       3.13        0.00      63.30       1.77       0.18       1.77       ----

> <Gold.Chemscore.Fitness>
16.8685

> <Gold.Chemscore.DG>
-18.8171

> <Gold.Chemscore.ZeroCoef>
-5.4800

> <Gold.Chemscore.Hbond>
3.1334

> <Gold.Chemscore.Metal>
0.0000

> <Gold.Chemscore.Lipo>
63.2999

> <Gold.Chemscore.Internal_Hbond>
0.0000

> <Gold.Chemscore.DEClash>
0.1809

> <Gold.Chemscore.DEInternal>
1.7676

> <Gold.Chemscore.Rot>
1.7714

> <Gold.Chemscore.Internal.Correction>
   9.000000E+99

> <Gold.Chemscore.Hbonds>
donor molecule, donor type, donor heavy atom, donor atom, acceptor molecule, acceptor atom, score
      L1  H     7    25       P1  7948  0.96
      L1  H    10    26       P1  7948  0.36
      L1  H    15    33       P1  7921  0.99
      P1  H  6896  6908       L1     2  0.21

> <Gold.Chemscore.Hbond.Weighted>
-10.4657

> <Gold.Chemscore.Metal.Weighted>
-0.0000

> <Gold.Chemscore.Lipo.Weighted>
-7.4061

> <Gold.Chemscore.Internal_Hbond.Weighted>
0.0000

> <Gold.Chemscore.DEClash.Weighted>
0.1809

> <Gold.Chemscore.DEInternal.Weighted>
1.7676

> <Gold.Chemscore.Rot.Weighted>
4.5347

> <Gold.Chemscore.Internal.Correction.Weighted>
   9.000000E+99

> <Gold.Protein.RotatedTorsions>
[ 6907 6896 6895 6894 ] final -165.45 input  -60.11 | X-H torsion
[ 7974 7965 7964 7962 ] final  -85.39 input  175.53 | X-H torsion
[ 8008 7997 7996 7995 ] final  156.80 input   59.86 | X-H torsion
[ 10167 10162 10161 10158 ] final  110.54 input  -65.29 | X-H torsion
[ 10718 10713 10712 10709 ] final -166.36 input   66.30 | X-H torsion
[ 10763 10752 10751 10750 ] final  164.96 input  -60.55 | X-H torsion
[ 11005 11000 10999 10996 ] final   39.37 input  -57.11 | X-H torsion

> <Gold.Protein.ActiveResidues>
 VAL166  LYS551  ARG553  GLY616  TRP617  ASP618  TYR619  PRO620  LYS621  CYS622 
 ASP623  PHE694  ASN695  SER759  ASP760  ASP761  ALA762  ILE779  LEU786  VAL792 
 PHE793  MET794  SER795  GLU796  ALA797  LYS798  CYS799  TRP800  GLU811  SER814 

> <Gold.Protein.RotatedAtoms>
  151.4279  133.3679  159.2764 H   0  0  0  0  0  0  0  0  0  0  0  0  # atno 6907 bound_to 6896
  150.9246  134.8665  159.7522 H   0  0  0  0  0  0  0  0  0  0  0  0  # atno 6908 bound_to 6896
  152.4999  134.4219  159.9535 H   0  0  0  0  0  0  0  0  0  0  0  0  # atno 6909 bound_to 6896
  145.4939  140.9551  143.1797 H   0  0  0  0  0  0  0  0  0  0  0  0  # atno 7974 bound_to 7965
  156.2401  140.1902  156.7012 H   0  0  0  0  0  0  0  0  0  0  0  0  # atno 8008 bound_to 7997
  154.6181  140.0612  156.9606 H   0  0  0  0  0  0  0  0  0  0  0  0  # atno 8009 bound_to 7997
  155.1907  140.3284  155.4362 H   0  0  0  0  0  0  0  0  0  0  0  0  # atno 8010 bound_to 7997
  139.6680  144.7126  151.1740 H   0  0  0  0  0  0  0  0  0  0  0  0  # atno 10167 bound_to 10162
  156.6667  130.9068  151.3037 H   0  0  0  0  0  0  0  0  0  0  0  0  # atno 10718 bound_to 10713
  154.3168  135.2756  155.2539 H   0  0  0  0  0  0  0  0  0  0  0  0  # atno 10763 bound_to 10752
  154.4910  135.5833  153.6463 H   0  0  0  0  0  0  0  0  0  0  0  0  # atno 10764 bound_to 10752
  152.9881  135.6134  154.3349 H   0  0  0  0  0  0  0  0  0  0  0  0  # atno 10765 bound_to 10752
  140.2034  134.3842  155.8084 H   0  0  0  0  0  0  0  0  0  0  0  0  # atno 11005 bound_to 11000
  144.7818  139.6510  143.7151 LP  0  0  0  0  0  0  0  0  0  0  0  0  # atno 17320 bound_to 7965
  146.2267  139.5736  142.9582 LP  0  0  0  0  0  0  0  0  0  0  0  0  # atno 17321 bound_to 7965
  140.7607  143.5888  150.8817 LP  0  0  0  0  0  0  0  0  0  0  0  0  # atno 17342 bound_to 10162
  139.9551  143.6227  152.3018 LP  0  0  0  0  0  0  0  0  0  0  0  0  # atno 17343 bound_to 10162
  157.7091  130.9419  150.1029 LP  0  0  0  0  0  0  0  0  0  0  0  0  # atno 17370 bound_to 10713
  156.1969  130.3658  149.8837 LP  0  0  0  0  0  0  0  0  0  0  0  0  # atno 17371 bound_to 10713
  141.2227  133.7106  156.8297 LP  0  0  0  0  0  0  0  0  0  0  0  0  # atno 17394 bound_to 11000
  140.2029  134.8884  157.3189 LP  0  0  0  0  0  0  0  0  0  0  0  0  # atno 17395 bound_to 11000

$$$$
