AV-unprocessed.smi:157|AV-procd|sdf|1303|dock3
  -GOLD-   2262018593D 1   1.00000     0.00000
 Structure written by MMmdl.
 35 37  0  0  0  0  0  0  0  0  1 V2000
  146.4122  131.3100  150.1815 O   0  0  0  0  0  0  0  0  0  0  0  0
  146.2316  132.4948  150.9295 C   0  0  0  0  0  0  0  0  0  0  0  0
  144.7427  132.8980  150.9673 C   0  0  1  0  0  0  0  0  0  0  0  0
  144.6509  134.1047  151.7279 O   0  0  0  0  0  0  0  0  0  0  0  0
  144.2740  135.1754  150.9127 C   0  0  1  0  0  0  0  0  0  0  0  0
  145.1753  136.3379  151.1882 N   0  0  0  0  0  0  0  0  0  0  0  0
  146.0585  136.8820  150.3402 C   0  0  0  0  0  0  0  0  0  0  0  0
  146.7305  137.9095  150.8317 N   0  0  0  0  0  0  0  0  0  0  0  0
  146.2262  138.0541  152.1232 C   0  0  0  0  0  0  0  0  0  0  0  0
  145.2532  137.0936  152.3610 C   0  0  0  0  0  0  0  0  0  0  0  0
  144.4277  136.7513  153.4151 N   0  0  0  0  0  0  0  0  0  0  0  0
  144.2317  137.6327  154.3444 C   0  0  0  0  0  0  0  0  0  0  0  0
  144.8015  138.8849  154.5247 N   0  0  0  0  0  0  0  0  0  0  0  0
  146.2325  139.1268  154.4513 C   0  0  0  0  0  0  0  0  0  0  0  0
  146.7820  139.1234  153.0194 C   0  0  2  0  0  0  0  0  0  0  0  0
  146.4964  140.3654  152.4090 O   0  0  0  0  0  0  0  0  0  0  0  0
  144.4327  134.7155  149.4680 C   0  0  0  0  0  0  0  0  0  0  0  0
  144.1034  133.2472  149.6106 C   0  0  1  0  0  0  0  0  0  0  0  0
  144.5859  132.4972  148.5142 O   0  0  0  0  0  0  0  0  0  0  0  0
  144.1682  132.1226  151.4759 H   0  0  0  0  0  0  0  0  0  0  0  0
  143.2648  135.5021  151.1662 H   0  0  0  0  0  0  0  0  0  0  0  0
  147.8680  139.0380  153.0670 H   0  0  0  0  0  0  0  0  0  0  0  0
  143.0216  133.1240  149.6773 H   0  0  0  0  0  0  0  0  0  0  0  0
  147.3340  131.1016  150.1660 H   0  0  0  0  0  0  0  0  0  0  0  0
  146.5858  132.2961  151.9414 H   0  0  0  0  0  0  0  0  0  0  0  0
  146.8551  133.2933  150.5267 H   0  0  0  0  0  0  0  0  0  0  0  0
  146.2160  136.5155  149.3365 H   0  0  0  0  0  0  0  0  0  0  0  0
  143.5211  137.3991  155.1385 H   0  0  0  0  0  0  0  0  0  0  0  0
  144.3539  139.5297  155.1599 H   0  0  0  0  0  0  0  0  0  0  0  0
  146.4784  140.0595  154.9597 H   0  0  0  0  0  0  0  0  0  0  0  0
  146.7230  138.3335  155.0172 H   0  0  0  0  0  0  0  0  0  0  0  0
  145.5572  140.4635  152.3660 H   0  0  0  0  0  0  0  0  0  0  0  0
  143.7646  135.2608  148.8009 H   0  0  0  0  0  0  0  0  0  0  0  0
  145.4648  134.8603  149.1437 H   0  0  0  0  0  0  0  0  0  0  0  0
  145.0282  133.0850  147.9207 H   0  0  0  0  0  0  0  0  0  0  0  0
  1  2  1  0  0  0  0
  1 24  1  0  0  0  0
  2  3  1  0  0  0  0
  2 25  1  0  0  0  0
  2 26  1  0  0  0  0
  3 20  1  0  0  0  0
  3 18  1  0  0  0  0
  3  4  1  0  0  0  0
  4  5  1  0  0  0  0
  5 21  1  0  0  0  0
  5  6  1  0  0  0  0
  5 17  1  0  0  0  0
  6 10  1  0  0  0  0
  6  7  1  0  0  0  0
  7  8  2  0  0  0  0
  7 27  1  0  0  0  0
  8  9  1  0  0  0  0
  9 15  1  0  0  0  0
  9 10  2  0  0  0  0
 10 11  1  0  0  0  0
 11 12  2  0  0  0  0
 12 13  1  0  0  0  0
 12 28  1  0  0  0  0
 13 14  1  0  0  0  0
 13 29  1  0  0  0  0
 14 15  1  0  0  0  0
 14 30  1  0  0  0  0
 14 31  1  0  0  0  0
 15 22  1  0  0  0  0
 15 16  1  0  0  0  0
 16 32  1  0  0  0  0
 17 18  1  0  0  0  0
 17 33  1  0  0  0  0
 17 34  1  0  0  0  0
 18 23  1  0  0  0  0
 18 19  1  0  0  0  0
 19 35  1  0  0  0  0
M  END
> <s_m_source_file>
AV-unprocessed.smi

> <i_m_source_file_index>
157

> <i_lp_mmshare_version>
43012

> <i_f3d_flags>
0

> <s_epik_input>
W09IXVtDSDJdW0NASF0xT1tDQEhdKFtDSDJdW0NAQEhdMVtPSF0pbihbY0hdbjIpYyhjMjMpTj1bQ0hdW05IXVtDSDJdW0NASF0zW09IXQ==

> <s_epik_cmdline>
J2VwaWtfcHl0aG9uJywgJy1waCcsICc3LjAnLCAnLXRuJywgJzgnLCAnLW1hJywgJzIwMCcsICctbWV0YWxfYmluZGluZycsICctaW1hZScsICc8aW5maWxlLm1hZT4nLCAnLW9tYWUnLCAnPG91dGZpbGUubWFlPic=

> <r_lp_tautomer_probability>
1

> <r_epik_Ionization_Penalty>
0.0357149

> <r_epik_Ionization_Penalty_Charging>
0.0355056

> <r_epik_Ionization_Penalty_Neutral>
0.000209255

> <r_epik_State_Penalty>
0.0296046

> <r_epik_Charging_Adjusted_Penalty>
0.0651102

> <i_epik_Tot_Q>
0

> <i_epik_Tot_abs_Q>
0

> <r_epik_Metal_State_Penalty>
3.03559e-05

> <b_epik_Metal_Only>
0

> <s_epik_Chemistry_Notes>
This compound has an imine and may undergo hydrolysis. This compound contains an acetal/aminal-like group ( X-CH(R)-Y where X, Y are N, S, or O) that may be acid/base labile, releasing an aldehyde.

> <s_lp_Force_Field>
OPLS_2005

> <r_lp_Energy>
46.7007

> <b_lp_Chiralities_Consistent>
1

> <s_lp_Variant>
AV-unprocessed.smi:157-13

> <Gold.Version>
5.8.1

> <Gold.Id.Protein>
6NUR|6NUR_protein|mol2

> <Gold.PLP.Fitness>
40.3750

> <Gold.PLP.PLP>
-25.4925

> <Gold.PLP.part.hbond>
-5.9565

> <Gold.PLP.part.metal>
0.0000

> <Gold.PLP.part.buried>
3.6663

> <Gold.PLP.part.nonpolar>
-26.2275

> <Gold.PLP.part.repulsive>
2.0389

> <Gold.PLP.ligand.clash>
0.0000

> <Gold.PLP.ligand.torsion>
0.0655

> <Gold.PLP.Chemscore.Hbond>
4.0000

> <Gold.PLP.Chemscore.CHOScore>
1.0000

> <Gold.PLP.Chemscore.Metal>
0.0000

> <Gold.Chemscore.Hbonds>
donor molecule, donor type, donor heavy atom, donor atom, acceptor molecule, acceptor atom, score
      L1  H     1    24       P1 10747  1.00
      L1  H    16    32       P1 10175  1.00
      L1  H    19    35       P1  7921  0.93
      P1  H  7954  7966       L1     8  1.00
      L1  C     7    27       P1  7921  1.00

> <Gold.PLP.Chemscore.Internal.Correction>
0.0135

> <Gold.Rescore>
     Score         DG    S(hbond)    S(metal)    S(lipo)     H(rot)  DE(clash)    DE(int)     intcor
      7.35     -10.86       2.83        0.00      44.90       3.64       3.46       0.04       ----

> <Gold.Chemscore.Fitness>
7.3526

> <Gold.Chemscore.DG>
-10.8612

> <Gold.Chemscore.ZeroCoef>
-5.4800

> <Gold.Chemscore.Hbond>
2.8253

> <Gold.Chemscore.Metal>
0.0000

> <Gold.Chemscore.Lipo>
44.9002

> <Gold.Chemscore.Internal_Hbond>
0.0000

> <Gold.Chemscore.DEClash>
3.4643

> <Gold.Chemscore.DEInternal>
0.0443

> <Gold.Chemscore.Rot>
3.6362

> <Gold.Chemscore.Internal.Correction>
   9.000000E+99

> <Gold.Chemscore.Hbonds>
donor molecule, donor type, donor heavy atom, donor atom, acceptor molecule, acceptor atom, score
      L1  H     1    24       P1 10747  1.00
      L1  H    16    32       P1 10175  0.40
      L1  H    19    35       P1  7921  0.19
      P1  H  7954  7966       L1     8  0.30

> <Gold.Chemscore.Hbond.Weighted>
-9.4366

> <Gold.Chemscore.Metal.Weighted>
-0.0000

> <Gold.Chemscore.Lipo.Weighted>
-5.2533

> <Gold.Chemscore.Internal_Hbond.Weighted>
0.0000

> <Gold.Chemscore.DEClash.Weighted>
3.4643

> <Gold.Chemscore.DEInternal.Weighted>
0.0443

> <Gold.Chemscore.Rot.Weighted>
9.3087

> <Gold.Chemscore.Internal.Correction.Weighted>
   9.000000E+99

> <Gold.Protein.RotatedTorsions>
[ 6907 6896 6895 6894 ] final -174.63 input  -60.11 | X-H torsion
[ 7974 7965 7964 7962 ] final   -4.40 input  175.53 | X-H torsion
[ 8008 7997 7996 7995 ] final   35.79 input   59.86 | X-H torsion
[ 10167 10162 10161 10158 ] final  161.12 input  -65.29 | X-H torsion
[ 10718 10713 10712 10709 ] final -144.99 input   66.30 | X-H torsion
[ 10763 10752 10751 10750 ] final -133.92 input  -60.55 | X-H torsion
[ 11005 11000 10999 10996 ] final  135.83 input  -57.11 | X-H torsion

> <Gold.Protein.ActiveResidues>
 VAL166  LYS551  ARG553  GLY616  TRP617  ASP618  TYR619  PRO620  LYS621  CYS622 
 ASP623  PHE694  ASN695  SER759  ASP760  ASP761  ALA762  ILE779  LEU786  VAL792 
 PHE793  MET794  SER795  GLU796  ALA797  LYS798  CYS799  TRP800  GLU811  SER814 

> <Gold.Protein.RotatedAtoms>
  151.5755  133.3384  159.2997 H   0  0  0  0  0  0  0  0  0  0  0  0  # atno 6907 bound_to 6896
  150.8343  134.7613  159.6891 H   0  0  0  0  0  0  0  0  0  0  0  0  # atno 6908 bound_to 6896
  152.4422  134.5575  159.9936 H   0  0  0  0  0  0  0  0  0  0  0  0  # atno 6909 bound_to 6896
  146.2373  140.1866  142.8332 H   0  0  0  0  0  0  0  0  0  0  0  0  # atno 7974 bound_to 7965
  155.1768  140.3296  155.4382 H   0  0  0  0  0  0  0  0  0  0  0  0  # atno 8008 bound_to 7997
  156.2491  140.1934  156.6819 H   0  0  0  0  0  0  0  0  0  0  0  0  # atno 8009 bound_to 7997
  154.6299  140.0584  156.9705 H   0  0  0  0  0  0  0  0  0  0  0  0  # atno 8010 bound_to 7997
  139.4846  144.4567  151.8759 H   0  0  0  0  0  0  0  0  0  0  0  0  # atno 10167 bound_to 10162
  156.3769  130.7817  151.2005 H   0  0  0  0  0  0  0  0  0  0  0  0  # atno 10718 bound_to 10713
  154.8726  135.3751  154.4651 H   0  0  0  0  0  0  0  0  0  0  0  0  # atno 10763 bound_to 10752
  153.5316  135.7027  153.5686 H   0  0  0  0  0  0  0  0  0  0  0  0  # atno 10764 bound_to 10752
  153.3888  135.3977  155.1873 H   0  0  0  0  0  0  0  0  0  0  0  0  # atno 10765 bound_to 10752
  140.0005  134.9480  157.0062 H   0  0  0  0  0  0  0  0  0  0  0  0  # atno 11005 bound_to 11000
  144.9892  140.8531  143.5350 LP  0  0  0  0  0  0  0  0  0  0  0  0  # atno 17320 bound_to 7965
  145.1869  139.2321  143.5263 LP  0  0  0  0  0  0  0  0  0  0  0  0  # atno 17321 bound_to 7965
  140.4027  144.2472  150.5892 LP  0  0  0  0  0  0  0  0  0  0  0  0  # atno 17342 bound_to 10162
  140.5042  143.2309  151.8633 LP  0  0  0  0  0  0  0  0  0  0  0  0  # atno 17343 bound_to 10162
  157.7489  131.0355  150.4368 LP  0  0  0  0  0  0  0  0  0  0  0  0  # atno 17370 bound_to 10713
  156.4605  130.4031  149.6579 LP  0  0  0  0  0  0  0  0  0  0  0  0  # atno 17371 bound_to 10713
  140.4736  134.1361  155.7206 LP  0  0  0  0  0  0  0  0  0  0  0  0  # atno 17394 bound_to 11000
  141.1638  133.8742  157.1772 LP  0  0  0  0  0  0  0  0  0  0  0  0  # atno 17395 bound_to 11000

$$$$
