AV-unprocessed.smi:113|AV-procd|sdf|1103|dock6
  -GOLD-   2262018213D 1   1.00000     0.00000
 Structure written by MMmdl.
 53 56  0  0  0  0  0  0  0  0  2 V2000
  155.6658  139.0505  162.8921 C   0  0  0  0  0  0  0  0  0  0  0  0
  154.8821  139.6286  161.7330 C   0  0  0  0  0  0  0  0  0  0  0  0
  154.7779  138.9705  160.4921 C   0  0  0  0  0  0  0  0  0  0  0  0
  154.0313  139.5576  159.4404 C   0  0  0  0  0  0  0  0  0  0  0  0
  153.9046  138.8673  158.0781 C   0  0  0  0  0  0  0  0  0  0  0  0
  152.5564  138.6017  157.5962 N   0  0  0  0  0  0  0  0  0  0  0  0
  151.7856  137.6388  158.2918 C   0  0  0  0  0  0  0  0  0  0  0  0
  152.2335  137.0432  159.2740 O   0  0  0  0  0  0  0  0  0  0  0  0
  150.4313  137.4331  157.7733 C   0  0  0  0  0  0  0  0  0  0  0  0
  149.5411  136.4198  158.4753 C   0  0  0  0  0  0  0  0  0  0  0  0
  150.0064  138.1446  156.7015 C   0  0  0  0  0  0  0  0  0  0  0  0
  150.7834  139.0753  156.0342 N   0  0  0  0  0  0  0  0  0  0  0  0
  150.1886  139.8553  154.8815 C   0  0  2  0  0  0  0  0  0  0  0  0
  149.9713  141.3454  155.1951 C   0  0  0  0  0  0  0  0  0  0  0  0
  148.4723  141.5242  155.0017 C   0  0  1  0  0  0  0  0  0  0  0  0
  148.1924  142.7644  154.3852 O   0  0  0  0  0  0  0  0  0  0  0  0
  148.0878  140.3348  154.1146 C   0  0  2  0  0  0  0  0  0  0  0  0
  146.6290  139.8735  154.2541 C   0  0  0  0  0  0  0  0  0  0  0  0
  146.2707  139.0289  153.1810 O   0  0  0  0  0  0  0  0  0  0  0  0
  148.9510  139.2996  154.5640 O   0  0  0  0  0  0  0  0  0  0  0  0
  152.0882  139.3547  156.4961 C   0  0  0  0  0  0  0  0  0  0  0  0
  152.7788  140.2312  155.9722 O   0  0  0  0  0  0  0  0  0  0  0  0
  153.3987  140.8085  159.6797 C   0  0  0  0  0  0  0  0  0  0  0  0
  152.6285  141.4660  158.6905 C   0  0  0  0  0  0  0  0  0  0  0  0
  152.0187  142.7061  158.9655 C   0  0  0  0  0  0  0  0  0  0  0  0
  152.1685  143.3060  160.2295 C   0  0  0  0  0  0  0  0  0  0  0  0
  152.9299  142.6661  161.2249 C   0  0  0  0  0  0  0  0  0  0  0  0
  153.5402  141.4255  160.9522 C   0  0  0  0  0  0  0  0  0  0  0  0
  154.2675  140.8153  161.9118 N   0  3  0  0  0  0  0  0  0  0  0  0
  156.1811  138.1348  162.6010 H   0  0  0  0  0  0  0  0  0  0  0  0
  154.9980  138.8171  163.7218 H   0  0  0  0  0  0  0  0  0  0  0  0
  156.4126  139.7644  163.2407 H   0  0  0  0  0  0  0  0  0  0  0  0
  155.2742  138.0202  160.3625 H   0  0  0  0  0  0  0  0  0  0  0  0
  154.4173  139.4518  157.3126 H   0  0  0  0  0  0  0  0  0  0  0  0
  154.4352  137.9140  158.0878 H   0  0  0  0  0  0  0  0  0  0  0  0
  148.5657  136.3351  157.9958 H   0  0  0  0  0  0  0  0  0  0  0  0
  149.3784  136.7105  159.5138 H   0  0  0  0  0  0  0  0  0  0  0  0
  150.0043  135.4324  158.4640 H   0  0  0  0  0  0  0  0  0  0  0  0
  148.9993  137.9717  156.3494 H   0  0  0  0  0  0  0  0  0  0  0  0
  150.8653  139.7189  154.0373 H   0  0  0  0  0  0  0  0  0  0  0  0
  150.3072  141.6167  156.1963 H   0  0  0  0  0  0  0  0  0  0  0  0
  150.5458  141.9280  154.4732 H   0  0  0  0  0  0  0  0  0  0  0  0
  147.9616  141.4678  155.9632 H   0  0  0  0  0  0  0  0  0  0  0  0
  148.6122  143.4482  154.8857 H   0  0  0  0  0  0  0  0  0  0  0  0
  148.3314  140.5394  153.0700 H   0  0  0  0  0  0  0  0  0  0  0  0
  146.5006  139.3180  155.1833 H   0  0  0  0  0  0  0  0  0  0  0  0
  145.9507  140.7265  154.2927 H   0  0  0  0  0  0  0  0  0  0  0  0
  145.4929  139.3768  152.7715 H   0  0  0  0  0  0  0  0  0  0  0  0
  152.4902  141.0368  157.7098 H   0  0  0  0  0  0  0  0  0  0  0  0
  151.4336  143.1988  158.2026 H   0  0  0  0  0  0  0  0  0  0  0  0
  151.6984  144.2568  160.4349 H   0  0  0  0  0  0  0  0  0  0  0  0
  153.0414  143.1314  162.1938 H   0  0  0  0  0  0  0  0  0  0  0  0
  154.3561  141.2746  162.8181 H   0  0  0  0  0  0  0  0  0  0  0  0
  1  2  1  0  0  0  0
  1 30  1  0  0  0  0
  1 31  1  0  0  0  0
  1 32  1  0  0  0  0
  2 29  1  0  0  0  0
  2  3  2  0  0  0  0
  3  4  1  0  0  0  0
  3 33  1  0  0  0  0
  4  5  1  0  0  0  0
  4 23  2  0  0  0  0
  5  6  1  0  0  0  0
  5 34  1  0  0  0  0
  5 35  1  0  0  0  0
  6 21  1  0  0  0  0
  6  7  1  0  0  0  0
  7  8  2  0  0  0  0
  7  9  1  0  0  0  0
  9 10  1  0  0  0  0
  9 11  2  0  0  0  0
 10 36  1  0  0  0  0
 10 37  1  0  0  0  0
 10 38  1  0  0  0  0
 11 12  1  0  0  0  0
 11 39  1  0  0  0  0
 12 13  1  0  0  0  0
 12 21  1  0  0  0  0
 13 20  1  0  0  0  0
 13 14  1  0  0  0  0
 13 40  1  0  0  0  0
 14 15  1  0  0  0  0
 14 41  1  0  0  0  0
 14 42  1  0  0  0  0
 15 16  1  0  0  0  0
 15 17  1  0  0  0  0
 15 43  1  0  0  0  0
 16 44  1  0  0  0  0
 17 18  1  0  0  0  0
 17 20  1  0  0  0  0
 17 45  1  0  0  0  0
 18 19  1  0  0  0  0
 18 46  1  0  0  0  0
 18 47  1  0  0  0  0
 19 48  1  0  0  0  0
 21 22  2  0  0  0  0
 23 28  1  0  0  0  0
 23 24  1  0  0  0  0
 24 25  2  0  0  0  0
 24 49  1  0  0  0  0
 25 26  1  0  0  0  0
 25 50  1  0  0  0  0
 26 27  2  0  0  0  0
 26 51  1  0  0  0  0
 27 28  1  0  0  0  0
 27 52  1  0  0  0  0
 28 29  2  0  0  0  0
 29 53  1  0  0  0  0
M  CHG  1  29   1
M  END
> <s_m_source_file>
AV-unprocessed.smi

> <i_m_source_file_index>
113

> <i_lp_mmshare_version>
43012

> <i_f3d_flags>
0

> <s_epik_input>
W2NIXTFbY0hdW2NIXVtjSF1jKGMxMiluYyhbQ0gzXSlbY0hdYzJbQ0gyXW4zYyg9TyljKFtDSDNdKVtjSF1uKGMzPU8pW0NAQEhdNFtDSDJdW0NAQEhdKFtPSF0pW0NASF0oTzQpW0NIMl1bT0hd

> <s_epik_cmdline>
J2VwaWtfcHl0aG9uJywgJy1waCcsICc3LjAnLCAnLXRuJywgJzgnLCAnLW1hJywgJzIwMCcsICctbWV0YWxfYmluZGluZycsICctaW1hZScsICc8aW5maWxlLm1hZT4nLCAnLW9tYWUnLCAnPG91dGZpbGUubWFlPic=

> <r_lp_tautomer_probability>
1

> <r_epik_Ionization_Penalty>
0.705471

> <r_epik_Ionization_Penalty_Charging>
0.70547

> <r_epik_Ionization_Penalty_Neutral>
1.19947e-07

> <r_epik_State_Penalty>
0.728574

> <r_epik_Charging_Adjusted_Penalty>
1.43404

> <i_epik_Tot_Q>
1

> <i_epik_Tot_abs_Q>
1

> <r_epik_Metal_State_Penalty>
4.61665

> <b_epik_Metal_Only>
0

> <s_epik_Chemistry_Notes>
This compound contains an acetal/aminal-like group ( X-CH(R)-Y where X, Y are N, S, or O) that may be acid/base labile, releasing an aldehyde.

> <s_lp_Force_Field>
OPLS_2005

> <r_lp_Energy>
37.5737

> <b_lp_Chiralities_Consistent>
1

> <s_lp_Variant>
AV-unprocessed.smi:113-13

> <Gold.Version>
5.8.1

> <Gold.Id.Protein>
6NUR|6NUR_protein|mol2

> <Gold.PLP.Fitness>
59.5521

> <Gold.PLP.PLP>
-48.2263

> <Gold.PLP.part.hbond>
-5.8580

> <Gold.PLP.part.metal>
0.0000

> <Gold.PLP.part.buried>
-4.6147

> <Gold.PLP.part.nonpolar>
-37.9812

> <Gold.PLP.part.repulsive>
0.1096

> <Gold.PLP.ligand.clash>
0.0000

> <Gold.PLP.ligand.torsion>
0.3564

> <Gold.PLP.Chemscore.Hbond>
4.0029

> <Gold.PLP.Chemscore.CHOScore>
0.0000

> <Gold.PLP.Chemscore.Metal>
0.0000

> <Gold.Chemscore.Hbonds>
donor molecule, donor type, donor heavy atom, donor atom, acceptor molecule, acceptor atom, score
      L1  H    16    44       P1  8028  0.89
      L1  H    19    48       P1 10175  0.73
      P1  H  6896  6909       L1     8  0.78
      P1  H  7997  8008       L1    22  1.00

> <Gold.PLP.Chemscore.Internal.Correction>
0.0301

> <Gold.Rescore>
     Score         DG    S(hbond)    S(metal)    S(lipo)     H(rot)  DE(clash)    DE(int)     intcor
     24.03     -25.14       3.91        0.00     122.32       3.01       0.01       1.10       ----

> <Gold.Chemscore.Fitness>
24.0298

> <Gold.Chemscore.DG>
-25.1379

> <Gold.Chemscore.ZeroCoef>
-5.4800

> <Gold.Chemscore.Hbond>
3.9093

> <Gold.Chemscore.Metal>
0.0000

> <Gold.Chemscore.Lipo>
122.3224

> <Gold.Chemscore.Internal_Hbond>
0.0000

> <Gold.Chemscore.DEClash>
0.0118

> <Gold.Chemscore.DEInternal>
1.0963

> <Gold.Chemscore.Rot>
3.0120

> <Gold.Chemscore.Internal.Correction>
   9.000000E+99

> <Gold.Chemscore.Hbonds>
donor molecule, donor type, donor heavy atom, donor atom, acceptor molecule, acceptor atom, score
      L1  H    16    44       P1  8028  0.85
      L1  H    19    48       P1 10175  0.73
      P1  H  6896  6909       L1     8  0.72
      P1  H  7997  8008       L1    22  0.94

> <Gold.Chemscore.Hbond.Weighted>
-13.0569

> <Gold.Chemscore.Metal.Weighted>
-0.0000

> <Gold.Chemscore.Lipo.Weighted>
-14.3117

> <Gold.Chemscore.Internal_Hbond.Weighted>
0.0000

> <Gold.Chemscore.DEClash.Weighted>
0.0118

> <Gold.Chemscore.DEInternal.Weighted>
1.0963

> <Gold.Chemscore.Rot.Weighted>
7.7108

> <Gold.Chemscore.Internal.Correction.Weighted>
   9.000000E+99

> <Gold.Protein.RotatedTorsions>
[ 6907 6896 6895 6894 ] final  116.33 input  -60.11 | X-H torsion
[ 7974 7965 7964 7962 ] final   89.55 input  175.53 | X-H torsion
[ 8008 7997 7996 7995 ] final  -27.71 input   59.86 | X-H torsion
[ 10167 10162 10161 10158 ] final  -80.04 input  -65.29 | X-H torsion
[ 10718 10713 10712 10709 ] final   83.76 input   66.30 | X-H torsion
[ 10763 10752 10751 10750 ] final -177.87 input  -60.55 | X-H torsion
[ 11005 11000 10999 10996 ] final  -78.44 input  -57.11 | X-H torsion

> <Gold.Protein.ActiveResidues>
 VAL166  LYS551  ARG553  GLY616  TRP617  ASP618  TYR619  PRO620  LYS621  CYS622 
 ASP623  PHE694  ASN695  SER759  ASP760  ASP761  ALA762  ILE779  LEU786  VAL792 
 PHE793  MET794  SER795  GLU796  ALA797  LYS798  CYS799  TRP800  GLU811  SER814 

> <Gold.Protein.RotatedAtoms>
  152.4685  133.7976  159.6935 H   0  0  0  0  0  0  0  0  0  0  0  0  # atno 6907 bound_to 6896
  150.8662  133.7562  159.2982 H   0  0  0  0  0  0  0  0  0  0  0  0  # atno 6908 bound_to 6896
  151.5112  135.1068  159.9906 H   0  0  0  0  0  0  0  0  0  0  0  0  # atno 6909 bound_to 6896
  145.5308  139.2283  143.2620 H   0  0  0  0  0  0  0  0  0  0  0  0  # atno 7974 bound_to 7965
  154.4364  140.1865  156.0976 H   0  0  0  0  0  0  0  0  0  0  0  0  # atno 8008 bound_to 7997
  156.0317  140.3330  155.7121 H   0  0  0  0  0  0  0  0  0  0  0  0  # atno 8009 bound_to 7997
  155.5829  140.0623  157.2769 H   0  0  0  0  0  0  0  0  0  0  0  0  # atno 8010 bound_to 7997
  140.4539  143.2474  151.8448 H   0  0  0  0  0  0  0  0  0  0  0  0  # atno 10167 bound_to 10162
  157.6885  131.0104  150.2571 H   0  0  0  0  0  0  0  0  0  0  0  0  # atno 10718 bound_to 10713
  154.5548  135.2815  155.0975 H   0  0  0  0  0  0  0  0  0  0  0  0  # atno 10763 bound_to 10752
  154.2407  135.6357  153.5210 H   0  0  0  0  0  0  0  0  0  0  0  0  # atno 10764 bound_to 10752
  153.0012  135.5559  154.6124 H   0  0  0  0  0  0  0  0  0  0  0  0  # atno 10765 bound_to 10752
  141.1665  133.7063  156.7973 H   0  0  0  0  0  0  0  0  0  0  0  0  # atno 11005 bound_to 11000
  146.2045  140.6124  142.9087 LP  0  0  0  0  0  0  0  0  0  0  0  0  # atno 17320 bound_to 7965
  144.7627  140.5459  143.6724 LP  0  0  0  0  0  0  0  0  0  0  0  0  # atno 17321 bound_to 7965
  139.4799  144.5087  151.8962 LP  0  0  0  0  0  0  0  0  0  0  0  0  # atno 17342 bound_to 10162
  140.4174  144.2289  150.5887 LP  0  0  0  0  0  0  0  0  0  0  0  0  # atno 17343 bound_to 10162
  156.3157  130.3778  149.7621 LP  0  0  0  0  0  0  0  0  0  0  0  0  # atno 17370 bound_to 10713
  156.5207  130.8213  151.3202 LP  0  0  0  0  0  0  0  0  0  0  0  0  # atno 17371 bound_to 10713
  140.2282  134.8706  157.3449 LP  0  0  0  0  0  0  0  0  0  0  0  0  # atno 17394 bound_to 11000
  140.1918  134.4362  155.7711 LP  0  0  0  0  0  0  0  0  0  0  0  0  # atno 17395 bound_to 11000

$$$$
