AV-unprocessed.smi:881|AV-procd|sdf|4036|dock3
  -GOLD-   22720 1533D 1   1.00000     0.00000
 Structure written by MMmdl.
 31 32  0  0  0  0  0  0  0  0  2 V2000
  152.4556  139.3049  159.2008 O   0  0  0  0  0  0  0  0  0  0  0  0
  152.4694  139.7776  158.0619 C   0  0  0  0  0  0  0  0  0  0  0  0
  152.8655  139.1414  156.9357 N   0  5  0  0  0  0  0  0  0  0  0  0
  152.0779  139.1485  155.8477 C   0  0  0  0  0  0  0  0  0  0  0  0
  151.4892  140.2670  155.3945 N   0  0  0  0  0  0  0  0  0  0  0  0
  150.7215  140.0576  154.2569 N   0  0  0  0  0  0  0  0  0  0  0  0
  150.7585  138.7815  153.8740 C   0  0  0  0  0  0  0  0  0  0  0  0
  151.7365  137.7206  154.8659 S   0  0  0  0  0  0  0  0  0  0  0  0
  152.0644  141.0393  157.8535 N   0  0  0  0  0  0  0  0  0  0  0  0
  151.5868  141.9775  158.8684 C   0  0  0  0  0  0  0  0  0  0  0  0
  150.9293  143.1881  158.1734 C   0  0  0  0  0  0  0  0  0  0  0  0
  150.4168  144.2895  159.1175 C   0  0  0  0  0  0  0  0  0  0  0  0
  151.5517  145.1377  159.7134 C   0  0  0  0  0  0  0  0  0  0  0  0
  152.1884  144.5795  160.9981 C   0  0  0  0  0  0  0  0  0  0  0  0
  152.3263  143.0495  161.0884 C   0  0  0  0  0  0  0  0  0  0  0  0
  152.7657  142.3443  159.7940 C   0  0  0  0  0  0  0  0  0  0  0  0
  150.2092  138.4635  153.0006 H   0  0  0  0  0  0  0  0  0  0  0  0
  152.0925  141.3781  156.9032 H   0  0  0  0  0  0  0  0  0  0  0  0
  150.8332  141.4711  159.4743 H   0  0  0  0  0  0  0  0  0  0  0  0
  151.6215  143.6215  157.4500 H   0  0  0  0  0  0  0  0  0  0  0  0
  150.0826  142.8300  157.5862 H   0  0  0  0  0  0  0  0  0  0  0  0
  149.7771  144.9509  158.5326 H   0  0  0  0  0  0  0  0  0  0  0  0
  149.7794  143.8752  159.8994 H   0  0  0  0  0  0  0  0  0  0  0  0
  152.3248  145.2874  158.9588 H   0  0  0  0  0  0  0  0  0  0  0  0
  151.1715  146.1357  159.9339 H   0  0  0  0  0  0  0  0  0  0  0  0
  153.1720  145.0356  161.1156 H   0  0  0  0  0  0  0  0  0  0  0  0
  151.6071  144.9156  161.8577 H   0  0  0  0  0  0  0  0  0  0  0  0
  153.0501  142.8272  161.8734 H   0  0  0  0  0  0  0  0  0  0  0  0
  151.3877  142.6167  161.4368 H   0  0  0  0  0  0  0  0  0  0  0  0
  153.2676  141.4194  160.0826 H   0  0  0  0  0  0  0  0  0  0  0  0
  153.5141  142.9351  159.2643 H   0  0  0  0  0  0  0  0  0  0  0  0
  1  2  2  0  0  0  0
  2  3  1  0  0  0  0
  2  9  1  0  0  0  0
  3  4  1  0  0  0  0
  4  8  1  0  0  0  0
  4  5  2  0  0  0  0
  5  6  1  0  0  0  0
  6  7  2  0  0  0  0
  7  8  1  0  0  0  0
  7 17  1  0  0  0  0
  9 10  1  0  0  0  0
  9 18  1  0  0  0  0
 10 16  1  0  0  0  0
 10 11  1  0  0  0  0
 10 19  1  0  0  0  0
 11 12  1  0  0  0  0
 11 20  1  0  0  0  0
 11 21  1  0  0  0  0
 12 13  1  0  0  0  0
 12 22  1  0  0  0  0
 12 23  1  0  0  0  0
 13 14  1  0  0  0  0
 13 24  1  0  0  0  0
 13 25  1  0  0  0  0
 14 15  1  0  0  0  0
 14 26  1  0  0  0  0
 14 27  1  0  0  0  0
 15 16  1  0  0  0  0
 15 28  1  0  0  0  0
 15 29  1  0  0  0  0
 16 30  1  0  0  0  0
 16 31  1  0  0  0  0
M  CHG  1   3  -1
M  END
> <s_m_source_file>
AV-unprocessed.smi

> <i_m_source_file_index>
881

> <i_lp_mmshare_version>
43012

> <i_f3d_flags>
0

> <s_epik_input>
czFbY0hdbm5jMVtOSF1DKD1PKVtOSF1bQ0hdMltDSDJdW0NIMl1bQ0gyXVtDSDJdW0NIMl1bQ0gyXTI=

> <s_epik_cmdline>
J2VwaWtfcHl0aG9uJywgJy1waCcsICc3LjAnLCAnLXRuJywgJzgnLCAnLW1hJywgJzIwMCcsICctbWV0YWxfYmluZGluZycsICctaW1hZScsICc8aW5maWxlLm1hZT4nLCAnLW9tYWUnLCAnPG91dGZpbGUubWFlPic=

> <r_lp_tautomer_probability>
1

> <r_epik_Ionization_Penalty>
4.55263

> <r_epik_Ionization_Penalty_Charging>
4.50588

> <r_epik_Ionization_Penalty_Neutral>
0.0467569

> <r_epik_State_Penalty>
4.50558

> <r_epik_Charging_Adjusted_Penalty>
9.01146

> <i_epik_Tot_Q>
-1

> <i_epik_Tot_abs_Q>
1

> <r_epik_Metal_State_Penalty>
0.822218

> <b_epik_Metal_Only>
1

> <s_lp_Force_Field>
OPLS_2005

> <r_lp_Energy>
12.3928

> <b_lp_Chiralities_Consistent>
1

> <s_lp_Variant>
AV-unprocessed.smi:881-2

> <Gold.Version>
5.8.1

> <Gold.Id.Protein>
6NUR|6NUR_protein|mol2

> <Gold.PLP.Fitness>
44.2097

> <Gold.PLP.PLP>
-34.3678

> <Gold.PLP.part.hbond>
-3.0000

> <Gold.PLP.part.metal>
0.0000

> <Gold.PLP.part.buried>
-6.4501

> <Gold.PLP.part.nonpolar>
-25.7378

> <Gold.PLP.part.repulsive>
0.2173

> <Gold.PLP.ligand.clash>
0.0000

> <Gold.PLP.ligand.torsion>
0.9252

> <Gold.PLP.Chemscore.Hbond>
2.5000

> <Gold.PLP.Chemscore.CHOScore>
1.3896

> <Gold.PLP.Chemscore.Metal>
0.0000

> <Gold.Chemscore.Hbonds>
donor molecule, donor type, donor heavy atom, donor atom, acceptor molecule, acceptor atom, score
      P1  H  7989  7998       L1     6  0.42
      P1  H  7997  8010       L1     3  2.00
      L1  C     7    17       P1  7948  0.45
      L1  C     7    17       P1  7957  0.86

> <Gold.PLP.Chemscore.Internal.Correction>
0.0236

> <Gold.Rescore>
     Score         DG    S(hbond)    S(metal)    S(lipo)     H(rot)  DE(clash)    DE(int)     intcor
     15.09     -16.11       0.86        0.00      88.16       1.00       0.07       0.95       ----

> <Gold.Chemscore.Fitness>
15.0891

> <Gold.Chemscore.DG>
-16.1089

> <Gold.Chemscore.ZeroCoef>
-5.4800

> <Gold.Chemscore.Hbond>
0.8604

> <Gold.Chemscore.Metal>
0.0000

> <Gold.Chemscore.Lipo>
88.1623

> <Gold.Chemscore.Internal_Hbond>
0.0000

> <Gold.Chemscore.DEClash>
0.0727

> <Gold.Chemscore.DEInternal>
0.9470

> <Gold.Chemscore.Rot>
1.0000

> <Gold.Chemscore.Internal.Correction>
   9.000000E+99

> <Gold.Chemscore.Hbonds>
donor molecule, donor type, donor heavy atom, donor atom, acceptor molecule, acceptor atom, score
      P1  H  7989  7998       L1     6  0.02
      P1  H  7997  8010       L1     3  0.19

> <Gold.Chemscore.Hbond.Weighted>
-2.8739

> <Gold.Chemscore.Metal.Weighted>
-0.0000

> <Gold.Chemscore.Lipo.Weighted>
-10.3150

> <Gold.Chemscore.Internal_Hbond.Weighted>
0.0000

> <Gold.Chemscore.DEClash.Weighted>
0.0727

> <Gold.Chemscore.DEInternal.Weighted>
0.9470

> <Gold.Chemscore.Rot.Weighted>
2.5600

> <Gold.Chemscore.Internal.Correction.Weighted>
   9.000000E+99

> <Gold.Protein.RotatedTorsions>
[ 6907 6896 6895 6894 ] final -155.82 input  -60.11 | X-H torsion
[ 7974 7965 7964 7962 ] final  -21.59 input  175.53 | X-H torsion
[ 8008 7997 7996 7995 ] final   69.94 input   59.86 | X-H torsion
[ 10167 10162 10161 10158 ] final  154.47 input  -65.29 | X-H torsion
[ 10718 10713 10712 10709 ] final -137.83 input   66.30 | X-H torsion
[ 10763 10752 10751 10750 ] final  114.43 input  -60.55 | X-H torsion
[ 11005 11000 10999 10996 ] final   12.79 input  -57.11 | X-H torsion

> <Gold.Protein.ActiveResidues>
 VAL166  LYS551  ARG553  GLY616  TRP617  ASP618  TYR619  PRO620  LYS621  CYS622 
 ASP623  PHE694  ASN695  SER759  ASP760  ASP761  ALA762  ILE779  LEU786  VAL792 
 PHE793  MET794  SER795  GLU796  ALA797  LYS798  CYS799  TRP800  GLU811  SER814 

> <Gold.Protein.RotatedAtoms>
  151.2782  133.4222  159.2625 H   0  0  0  0  0  0  0  0  0  0  0  0  # atno 6907 bound_to 6896
  151.0384  134.9590  159.8159 H   0  0  0  0  0  0  0  0  0  0  0  0  # atno 6908 bound_to 6896
  152.5360  134.2741  159.9035 H   0  0  0  0  0  0  0  0  0  0  0  0  # atno 6909 bound_to 6896
  146.1724  140.4362  142.8527 H   0  0  0  0  0  0  0  0  0  0  0  0  # atno 7974 bound_to 7965
  155.7313  140.3492  155.5061 H   0  0  0  0  0  0  0  0  0  0  0  0  # atno 8008 bound_to 7997
  155.9180  140.1062  157.1250 H   0  0  0  0  0  0  0  0  0  0  0  0  # atno 8009 bound_to 7997
  154.4065  140.1255  156.4629 H   0  0  0  0  0  0  0  0  0  0  0  0  # atno 8010 bound_to 7997
  139.4823  144.5183  151.7916 H   0  0  0  0  0  0  0  0  0  0  0  0  # atno 10167 bound_to 10162
  156.2926  130.7383  151.1413 H   0  0  0  0  0  0  0  0  0  0  0  0  # atno 10718 bound_to 10713
  153.5072  135.3625  155.2569 H   0  0  0  0  0  0  0  0  0  0  0  0  # atno 10763 bound_to 10752
  154.8744  135.4014  154.3411 H   0  0  0  0  0  0  0  0  0  0  0  0  # atno 10764 bound_to 10752
  153.4057  135.7076  153.6461 H   0  0  0  0  0  0  0  0  0  0  0  0  # atno 10765 bound_to 10752
  140.4880  134.0868  155.7765 H   0  0  0  0  0  0  0  0  0  0  0  0  # atno 11005 bound_to 11000
  144.8184  140.6507  143.6369 LP  0  0  0  0  0  0  0  0  0  0  0  0  # atno 17320 bound_to 7965
  145.4303  139.1550  143.4026 LP  0  0  0  0  0  0  0  0  0  0  0  0  # atno 17321 bound_to 7965
  140.4695  144.1608  150.5916 LP  0  0  0  0  0  0  0  0  0  0  0  0  # atno 17342 bound_to 10162
  140.4398  143.2531  151.9488 LP  0  0  0  0  0  0  0  0  0  0  0  0  # atno 17343 bound_to 10162
  157.7346  131.0580  150.5513 LP  0  0  0  0  0  0  0  0  0  0  0  0  # atno 17370 bound_to 10713
  156.5631  130.4260  149.6053 LP  0  0  0  0  0  0  0  0  0  0  0  0  # atno 17371 bound_to 10713
  141.1498  133.8989  157.2126 LP  0  0  0  0  0  0  0  0  0  0  0  0  # atno 17394 bound_to 11000
  139.9786  135.0106  156.9693 LP  0  0  0  0  0  0  0  0  0  0  0  0  # atno 17395 bound_to 11000

$$$$
