AV-unprocessed.smi:1240|AV-procd|sdf|5213|dock5
  -GOLD-   22720 4303D 1   1.00000     0.00000
 Structure written by MMmdl.
 48 50  0  0  0  0  0  0  0  0  4 V2000
  154.3040  137.2570  158.7676 O   0  0  0  0  0  0  0  0  0  0  0  0
  153.9979  138.2851  159.3823 C   0  0  0  0  0  0  0  0  0  0  0  0
  153.7412  139.5162  158.8657 N   0  5  0  0  0  0  0  0  0  0  0  0
  152.6390  140.3824  159.2839 C   0  0  0  0  0  0  0  0  0  0  0  0
  152.3380  141.4788  158.2011 C   0  0  2  0  0  0  0  0  0  0  0  0
  151.7075  142.7799  158.7926 C   0  0  1  0  0  0  0  0  0  0  0  0
  152.1062  143.1408  160.2215 C   0  0  0  0  0  0  0  0  0  0  0  0
  151.7562  144.6228  160.3022 C   0  0  0  0  0  0  0  0  0  0  0  0
  151.9200  145.1322  158.9841 O   0  0  0  0  0  0  0  0  0  0  0  0
  152.1570  144.0616  158.0780 C   0  0  0  0  0  0  0  0  0  0  0  0
  151.5153  141.0265  157.0211 N   0  3  0  0  0  0  0  0  0  0  0  0
  150.8725  142.0944  156.2119 C   0  0  0  0  0  0  0  0  0  0  0  0
  149.8011  141.4790  155.2976 C   0  0  0  0  0  0  0  0  0  0  0  0
  150.3894  140.4780  154.4742 O   0  0  0  0  0  0  0  0  0  0  0  0
  150.9438  139.4107  155.2355 C   0  0  0  0  0  0  0  0  0  0  0  0
  152.0578  139.9476  156.1488 C   0  0  0  0  0  0  0  0  0  0  0  0
  153.9179  138.2732  160.7248 N   0  0  0  0  0  0  0  0  0  0  0  0
  154.0616  137.1765  161.6164 C   0  0  0  0  0  0  0  0  0  0  0  0
  153.7652  137.3934  162.9801 C   0  0  0  0  0  0  0  0  0  0  0  0
  153.8714  136.3238  163.8920 C   0  0  0  0  0  0  0  0  0  0  0  0
  154.2409  135.1007  163.4544 N   0  3  0  0  0  0  0  0  0  0  0  0
  154.5164  134.8416  162.1578 C   0  0  0  0  0  0  0  0  0  0  0  0
  154.4285  135.8719  161.2001 C   0  0  0  0  0  0  0  0  0  0  0  0
  151.7222  139.8272  159.4861 H   0  0  0  0  0  0  0  0  0  0  0  0
  152.8871  140.8745  160.2238 H   0  0  0  0  0  0  0  0  0  0  0  0
  153.3022  141.7893  157.7948 H   0  0  0  0  0  0  0  0  0  0  0  0
  150.6174  142.7344  158.7431 H   0  0  0  0  0  0  0  0  0  0  0  0
  151.5860  142.5568  160.9814 H   0  0  0  0  0  0  0  0  0  0  0  0
  153.1793  143.0033  160.3636 H   0  0  0  0  0  0  0  0  0  0  0  0
  150.7139  144.7522  160.5955 H   0  0  0  0  0  0  0  0  0  0  0  0
  152.3795  145.1584  161.0185 H   0  0  0  0  0  0  0  0  0  0  0  0
  153.2257  144.0277  157.8609 H   0  0  0  0  0  0  0  0  0  0  0  0
  151.6290  144.2252  157.1382 H   0  0  0  0  0  0  0  0  0  0  0  0
  150.4151  142.8389  156.8639 H   0  0  0  0  0  0  0  0  0  0  0  0
  151.6121  142.6099  155.5993 H   0  0  0  0  0  0  0  0  0  0  0  0
  148.9868  141.0512  155.8850 H   0  0  0  0  0  0  0  0  0  0  0  0
  149.3643  142.2483  154.6609 H   0  0  0  0  0  0  0  0  0  0  0  0
  150.1631  138.9220  155.8208 H   0  0  0  0  0  0  0  0  0  0  0  0
  151.3455  138.6615  154.5533 H   0  0  0  0  0  0  0  0  0  0  0  0
  152.8734  140.3284  155.5323 H   0  0  0  0  0  0  0  0  0  0  0  0
  152.4591  139.1334  156.7519 H   0  0  0  0  0  0  0  0  0  0  0  0
  153.7814  139.1742  161.1587 H   0  0  0  0  0  0  0  0  0  0  0  0
  153.4655  138.3717  163.3271 H   0  0  0  0  0  0  0  0  0  0  0  0
  153.6703  136.4090  164.9498 H   0  0  0  0  0  0  0  0  0  0  0  0
  154.7897  133.8231  161.9245 H   0  0  0  0  0  0  0  0  0  0  0  0
  154.6294  135.6444  160.1639 H   0  0  0  0  0  0  0  0  0  0  0  0
  150.7264  140.5888  157.4735 H   0  0  0  0  0  0  0  0  0  0  0  0
  154.3092  134.3395  164.1302 H   0  0  0  0  0  0  0  0  0  0  0  0
  1  2  2  0  0  0  0
  2  3  1  0  0  0  0
  2 17  1  0  0  0  0
  3  4  1  0  0  0  0
  4  5  1  0  0  0  0
  4 24  1  0  0  0  0
  4 25  1  0  0  0  0
  5  6  1  0  0  0  0
  5 11  1  0  0  0  0
  5 26  1  0  0  0  0
  6 10  1  0  0  0  0
  6  7  1  0  0  0  0
  6 27  1  0  0  0  0
  7  8  1  0  0  0  0
  7 28  1  0  0  0  0
  7 29  1  0  0  0  0
  8  9  1  0  0  0  0
  8 30  1  0  0  0  0
  8 31  1  0  0  0  0
  9 10  1  0  0  0  0
 10 32  1  0  0  0  0
 10 33  1  0  0  0  0
 11 16  1  0  0  0  0
 11 12  1  0  0  0  0
 11 47  1  0  0  0  0
 12 13  1  0  0  0  0
 12 34  1  0  0  0  0
 12 35  1  0  0  0  0
 13 14  1  0  0  0  0
 13 36  1  0  0  0  0
 13 37  1  0  0  0  0
 14 15  1  0  0  0  0
 15 16  1  0  0  0  0
 15 38  1  0  0  0  0
 15 39  1  0  0  0  0
 16 40  1  0  0  0  0
 16 41  1  0  0  0  0
 17 18  1  0  0  0  0
 17 42  1  0  0  0  0
 18 23  1  0  0  0  0
 18 19  2  0  0  0  0
 19 20  1  0  0  0  0
 19 43  1  0  0  0  0
 20 21  2  0  0  0  0
 20 44  1  0  0  0  0
 21 22  1  0  0  0  0
 21 48  1  0  0  0  0
 22 23  2  0  0  0  0
 22 45  1  0  0  0  0
 23 46  1  0  0  0  0
M  CHG  1   3  -1
M  CHG  1  11   1
M  CHG  1  21   1
M  END
> <s_m_source_file>
AV-unprocessed.smi

> <i_m_source_file_index>
1240

> <i_lp_mmshare_version>
43012

> <i_f3d_flags>
0

> <s_epik_input>
W2NIXTFbY0hdbltjSF1bY0hdYzFbTkhdQyg9TylbTkhdW0NIMl1bQ0BIXShbQ0BASF0yW0NIMl1bQ0gyXU9bQ0gyXTIpTjNbQ0gyXVtDSDJdT1tDSDJdW0NIMl0z

> <s_epik_cmdline>
J2VwaWtfcHl0aG9uJywgJy1waCcsICc3LjAnLCAnLXRuJywgJzgnLCAnLW1hJywgJzIwMCcsICctbWV0YWxfYmluZGluZycsICctaW1hZScsICc8aW5maWxlLm1hZT4nLCAnLW9tYWUnLCAnPG91dGZpbGUubWFlPic=

> <r_epik_Ionization_Penalty>
8.41087

> <r_epik_Ionization_Penalty_Charging>
8.41087

> <r_epik_Ionization_Penalty_Neutral>
3.12936e-06

> <r_epik_State_Penalty>
8.81894

> <r_epik_Charging_Adjusted_Penalty>
17.2298

> <i_epik_Tot_Q>
1

> <i_epik_Tot_abs_Q>
3

> <r_epik_Metal_State_Penalty>
4.82983

> <b_epik_Metal_Only>
1

> <s_lp_Force_Field>
OPLS_2005

> <r_lp_Energy>
48.3521

> <b_lp_Chiralities_Consistent>
1

> <s_lp_Variant>
AV-unprocessed.smi:1240-19

> <Gold.Version>
5.8.1

> <Gold.Id.Protein>
6NUR|6NUR_protein|mol2

> <Gold.PLP.Fitness>
51.1295

> <Gold.PLP.PLP>
-44.8524

> <Gold.PLP.part.hbond>
-2.0000

> <Gold.PLP.part.metal>
0.0000

> <Gold.PLP.part.buried>
-7.0484

> <Gold.PLP.part.nonpolar>
-35.5716

> <Gold.PLP.part.repulsive>
0.3107

> <Gold.PLP.ligand.clash>
0.0000

> <Gold.PLP.ligand.torsion>
1.6661

> <Gold.PLP.Chemscore.Hbond>
3.0000

> <Gold.PLP.Chemscore.CHOScore>
0.0000

> <Gold.PLP.Chemscore.Metal>
0.0000

> <Gold.Chemscore.Hbonds>
donor molecule, donor type, donor heavy atom, donor atom, acceptor molecule, acceptor atom, score
      P1  H  7989  7998       L1    14  0.98
      P1  H  7997  8008       L1     3  1.98

> <Gold.PLP.Chemscore.Internal.Correction>
0.6093

> <Gold.Rescore>
     Score         DG    S(hbond)    S(metal)    S(lipo)     H(rot)  DE(clash)    DE(int)     intcor
     16.82     -20.76       1.49        0.00     125.40       1.70       0.07       3.87       ----

> <Gold.Chemscore.Fitness>
16.8154

> <Gold.Chemscore.DG>
-20.7575

> <Gold.Chemscore.ZeroCoef>
-5.4800

> <Gold.Chemscore.Hbond>
1.4861

> <Gold.Chemscore.Metal>
0.0000

> <Gold.Chemscore.Lipo>
125.3974

> <Gold.Chemscore.Internal_Hbond>
0.0000

> <Gold.Chemscore.DEClash>
0.0696

> <Gold.Chemscore.DEInternal>
3.8724

> <Gold.Chemscore.Rot>
1.7021

> <Gold.Chemscore.Internal.Correction>
   9.000000E+99

> <Gold.Chemscore.Hbonds>
donor molecule, donor type, donor heavy atom, donor atom, acceptor molecule, acceptor atom, score
      P1  H  7989  7998       L1    14  0.36
      P1  H  7997  8008       L1     3  0.82

> <Gold.Chemscore.Hbond.Weighted>
-4.9635

> <Gold.Chemscore.Metal.Weighted>
-0.0000

> <Gold.Chemscore.Lipo.Weighted>
-14.6715

> <Gold.Chemscore.Internal_Hbond.Weighted>
0.0000

> <Gold.Chemscore.DEClash.Weighted>
0.0696

> <Gold.Chemscore.DEInternal.Weighted>
3.8724

> <Gold.Chemscore.Rot.Weighted>
4.3575

> <Gold.Chemscore.Internal.Correction.Weighted>
   9.000000E+99

> <Gold.Protein.RotatedTorsions>
[ 6907 6896 6895 6894 ] final   54.79 input  -60.11 | X-H torsion
[ 7974 7965 7964 7962 ] final -138.84 input  175.53 | X-H torsion
[ 8008 7997 7996 7995 ] final -105.01 input   59.86 | X-H torsion
[ 10167 10162 10161 10158 ] final  149.80 input  -65.29 | X-H torsion
[ 10718 10713 10712 10709 ] final   44.31 input   66.30 | X-H torsion
[ 10763 10752 10751 10750 ] final  -89.23 input  -60.55 | X-H torsion
[ 11005 11000 10999 10996 ] final  -61.11 input  -57.11 | X-H torsion

> <Gold.Protein.ActiveResidues>
 VAL166  LYS551  ARG553  GLY616  TRP617  ASP618  TYR619  PRO620  LYS621  CYS622 
 ASP623  PHE694  ASN695  SER759  ASP760  ASP761  ALA762  ILE779  LEU786  VAL792 
 PHE793  MET794  SER795  GLU796  ALA797  LYS798  CYS799  TRP800  GLU811  SER814 

> <Gold.Protein.RotatedAtoms>
  152.3474  134.7052  160.0245 H   0  0  0  0  0  0  0  0  0  0  0  0  # atno 6907 bound_to 6896
  151.7417  133.3317  159.3375 H   0  0  0  0  0  0  0  0  0  0  0  0  # atno 6908 bound_to 6896
  150.7518  134.6205  159.6178 H   0  0  0  0  0  0  0  0  0  0  0  0  # atno 6909 bound_to 6896
  144.8726  140.6389  143.5257 H   0  0  0  0  0  0  0  0  0  0  0  0  # atno 7974 bound_to 7965
  154.8936  140.0415  157.1853 H   0  0  0  0  0  0  0  0  0  0  0  0  # atno 8008 bound_to 7997
  154.8515  140.2930  155.5574 H   0  0  0  0  0  0  0  0  0  0  0  0  # atno 8009 bound_to 7997
  156.2996  140.2464  156.3475 H   0  0  0  0  0  0  0  0  0  0  0  0  # atno 8010 bound_to 7997
  139.4857  144.5573  151.7295 H   0  0  0  0  0  0  0  0  0  0  0  0  # atno 10167 bound_to 10162
  157.4254  130.7993  149.7553 H   0  0  0  0  0  0  0  0  0  0  0  0  # atno 10718 bound_to 10713
  154.6530  135.5348  153.7925 H   0  0  0  0  0  0  0  0  0  0  0  0  # atno 10763 bound_to 10752
  153.0397  135.6487  154.0987 H   0  0  0  0  0  0  0  0  0  0  0  0  # atno 10764 bound_to 10752
  154.0903  135.2940  155.3253 H   0  0  0  0  0  0  0  0  0  0  0  0  # atno 10765 bound_to 10752
  141.1312  133.6627  156.5326 H   0  0  0  0  0  0  0  0  0  0  0  0  # atno 11005 bound_to 11000
  145.4103  139.1581  143.4129 LP  0  0  0  0  0  0  0  0  0  0  0  0  # atno 17320 bound_to 7965
  146.2940  140.4206  142.8728 LP  0  0  0  0  0  0  0  0  0  0  0  0  # atno 17321 bound_to 7965
  140.5137  144.0986  150.6002 LP  0  0  0  0  0  0  0  0  0  0  0  0  # atno 17342 bound_to 10162
  140.3921  143.2747  152.0048 LP  0  0  0  0  0  0  0  0  0  0  0  0  # atno 17343 bound_to 10162
  155.9894  130.3951  150.3072 LP  0  0  0  0  0  0  0  0  0  0  0  0  # atno 17370 bound_to 10713
  157.1224  131.0250  151.3004 LP  0  0  0  0  0  0  0  0  0  0  0  0  # atno 17371 bound_to 10713
  140.4204  134.7192  157.4886 LP  0  0  0  0  0  0  0  0  0  0  0  0  # atno 17394 bound_to 11000
  140.0364  134.6331  155.9038 LP  0  0  0  0  0  0  0  0  0  0  0  0  # atno 17395 bound_to 11000

$$$$
