AV-unprocessed.smi:1055|AV-procd|sdf|4629|dock9
  -GOLD-   22720 3133D 1   1.00000     0.00000
 Structure written by MMmdl.
 50 51  0  0  0  0  0  0  0  0  1 V2000
  149.6379  141.7973  157.3997 C   0  0  0  0  0  0  0  0  0  0  0  0
  150.9699  141.8461  157.5645 C   0  0  0  0  0  0  0  0  0  0  0  0
  151.6519  143.0093  158.2601 C   0  0  0  0  0  0  0  0  0  0  0  0
  151.8805  140.7251  157.0847 C   0  0  0  0  0  0  0  0  0  0  0  0
  151.1838  139.6945  156.3146 N   0  0  0  0  0  0  0  0  0  0  0  0
  150.4741  138.7552  157.1904 C   0  0  0  0  0  0  0  0  0  0  0  0
  149.6990  137.7219  156.3548 C   0  0  0  0  0  0  0  0  0  0  0  0
  150.6398  136.9494  155.4144 C   0  0  0  0  0  0  0  0  0  0  0  0
  149.8846  136.0712  154.5258 N   0  0  0  0  0  0  0  0  0  0  0  0
  149.6843  134.7604  154.7225 C   0  0  0  0  0  0  0  0  0  0  0  0
  150.1325  134.1426  155.6880 O   0  0  0  0  0  0  0  0  0  0  0  0
  148.9557  134.2269  153.7270 N   0  0  0  0  0  0  0  0  0  0  0  0
  148.5103  132.8860  153.5767 C   0  0  0  0  0  0  0  0  0  0  0  0
  149.2196  131.8733  154.2496 C   0  0  0  0  0  0  0  0  0  0  0  0
  148.8133  130.5331  154.1063 C   0  0  0  0  0  0  0  0  0  0  0  0
  147.7030  130.2314  153.2793 C   0  0  0  0  0  0  0  0  0  0  0  0
  147.2527  128.9028  153.1038 N   0  0  0  0  0  0  0  0  0  0  0  0
  146.0817  128.6273  152.2806 C   0  0  0  0  0  0  0  0  0  0  0  0
  147.9976  127.7991  153.7012 C   0  0  0  0  0  0  0  0  0  0  0  0
  147.0323  131.2079  152.6202 N   0  0  0  0  0  0  0  0  0  0  0  0
  147.4236  132.4917  152.7616 C   0  0  0  0  0  0  0  0  0  0  0  0
  151.4561  137.9536  154.5879 C   0  0  0  0  0  0  0  0  0  0  0  0
  152.1622  138.9732  155.4983 C   0  0  0  0  0  0  0  0  0  0  0  0
  148.9996  142.5943  157.7516 H   0  0  0  0  0  0  0  0  0  0  0  0
  149.1651  140.9591  156.9094 H   0  0  0  0  0  0  0  0  0  0  0  0
  152.2134  142.6549  159.1245 H   0  0  0  0  0  0  0  0  0  0  0  0
  150.9268  143.7468  158.6055 H   0  0  0  0  0  0  0  0  0  0  0  0
  152.3442  143.5094  157.5824 H   0  0  0  0  0  0  0  0  0  0  0  0
  152.6587  141.1728  156.4651 H   0  0  0  0  0  0  0  0  0  0  0  0
  152.3817  140.2687  157.9400 H   0  0  0  0  0  0  0  0  0  0  0  0
  151.1821  138.2534  157.8518 H   0  0  0  0  0  0  0  0  0  0  0  0
  149.7669  139.2877  157.8262 H   0  0  0  0  0  0  0  0  0  0  0  0
  149.1799  137.0308  157.0199 H   0  0  0  0  0  0  0  0  0  0  0  0
  148.9270  138.2316  155.7759 H   0  0  0  0  0  0  0  0  0  0  0  0
  151.3322  136.3521  156.0112 H   0  0  0  0  0  0  0  0  0  0  0  0
  149.4824  136.4957  153.7029 H   0  0  0  0  0  0  0  0  0  0  0  0
  148.7314  134.8452  152.9613 H   0  0  0  0  0  0  0  0  0  0  0  0
  150.0661  132.1170  154.8749 H   0  0  0  0  0  0  0  0  0  0  0  0
  149.3617  129.7661  154.6317 H   0  0  0  0  0  0  0  0  0  0  0  0
  145.1961  129.1028  152.7034 H   0  0  0  0  0  0  0  0  0  0  0  0
  145.8846  127.5571  152.2149 H   0  0  0  0  0  0  0  0  0  0  0  0
  146.2289  129.0002  151.2664 H   0  0  0  0  0  0  0  0  0  0  0  0
  148.0507  127.9144  154.7843 H   0  0  0  0  0  0  0  0  0  0  0  0
  149.0133  127.7644  153.3059 H   0  0  0  0  0  0  0  0  0  0  0  0
  147.5247  126.8396  153.4920 H   0  0  0  0  0  0  0  0  0  0  0  0
  146.8528  133.2012  152.1836 H   0  0  0  0  0  0  0  0  0  0  0  0
  152.1953  137.4268  153.9834 H   0  0  0  0  0  0  0  0  0  0  0  0
  150.8049  138.4827  153.8902 H   0  0  0  0  0  0  0  0  0  0  0  0
  152.7158  139.6812  154.8804 H   0  0  0  0  0  0  0  0  0  0  0  0
  152.8892  138.4704  156.1382 H   0  0  0  0  0  0  0  0  0  0  0  0
  1  2  2  0  0  0  0
  1 24  1  0  0  0  0
  1 25  1  0  0  0  0
  2  3  1  0  0  0  0
  2  4  1  0  0  0  0
  3 26  1  0  0  0  0
  3 27  1  0  0  0  0
  3 28  1  0  0  0  0
  4  5  1  0  0  0  0
  4 29  1  0  0  0  0
  4 30  1  0  0  0  0
  5 23  1  0  0  0  0
  5  6  1  0  0  0  0
  6  7  1  0  0  0  0
  6 31  1  0  0  0  0
  6 32  1  0  0  0  0
  7  8  1  0  0  0  0
  7 33  1  0  0  0  0
  7 34  1  0  0  0  0
  8  9  1  0  0  0  0
  8 22  1  0  0  0  0
  8 35  1  0  0  0  0
  9 10  1  0  0  0  0
  9 36  1  0  0  0  0
 10 11  2  0  0  0  0
 10 12  1  0  0  0  0
 12 13  1  0  0  0  0
 12 37  1  0  0  0  0
 13 21  1  0  0  0  0
 13 14  2  0  0  0  0
 14 15  1  0  0  0  0
 14 38  1  0  0  0  0
 15 16  2  0  0  0  0
 15 39  1  0  0  0  0
 16 17  1  0  0  0  0
 16 20  1  0  0  0  0
 17 18  1  0  0  0  0
 17 19  1  0  0  0  0
 18 40  1  0  0  0  0
 18 41  1  0  0  0  0
 18 42  1  0  0  0  0
 19 43  1  0  0  0  0
 19 44  1  0  0  0  0
 19 45  1  0  0  0  0
 20 21  2  0  0  0  0
 21 46  1  0  0  0  0
 22 23  1  0  0  0  0
 22 47  1  0  0  0  0
 22 48  1  0  0  0  0
 23 49  1  0  0  0  0
 23 50  1  0  0  0  0
M  END
> <s_m_source_file>
AV-unprocessed.smi

> <i_m_source_file_index>
1055

> <i_lp_mmshare_version>
43012

> <i_f3d_flags>
0

> <s_epik_input>
W0NIMl09QyhbQ0gzXSlbQ0gyXU4xW0NIMl1bQ0gyXVtDSF0oW0NIMl1bQ0gyXTEpW05IXUMoPU8pW05IXWMyW2NIXVtjSF1jKE4oW0NIM10pW0NIM10pbltjSF0y

> <s_epik_cmdline>
J2VwaWtfcHl0aG9uJywgJy1waCcsICc3LjAnLCAnLXRuJywgJzgnLCAnLW1hJywgJzIwMCcsICctbWV0YWxfYmluZGluZycsICctaW1hZScsICc8aW5maWxlLm1hZT4nLCAnLW9tYWUnLCAnPG91dGZpbGUubWFlPic=

> <r_epik_Ionization_Penalty>
2.66572

> <r_epik_Ionization_Penalty_Charging>
0

> <r_epik_Ionization_Penalty_Neutral>
2.66572

> <r_epik_State_Penalty>
2.75204

> <r_epik_Charging_Adjusted_Penalty>
2.75204

> <i_epik_Tot_Q>
0

> <i_epik_Tot_abs_Q>
0

> <r_epik_Metal_State_Penalty>
2.38689

> <b_epik_Metal_Only>
1

> <s_lp_Force_Field>
OPLS_2005

> <r_lp_Energy>
18.8719

> <b_lp_Chiralities_Consistent>
1

> <s_lp_Variant>
AV-unprocessed.smi:1055-6

> <Gold.Version>
5.8.1

> <Gold.Id.Protein>
6NUR|6NUR_protein|mol2

> <Gold.PLP.Fitness>
42.0431

> <Gold.PLP.PLP>
-37.6933

> <Gold.PLP.part.hbond>
-2.2673

> <Gold.PLP.part.metal>
0.0000

> <Gold.PLP.part.buried>
-4.3668

> <Gold.PLP.part.nonpolar>
-31.3351

> <Gold.PLP.part.repulsive>
0.7491

> <Gold.PLP.ligand.clash>
0.0000

> <Gold.PLP.ligand.torsion>
0.6504

> <Gold.PLP.Chemscore.Hbond>
1.8800

> <Gold.PLP.Chemscore.CHOScore>
0.0000

> <Gold.PLP.Chemscore.Metal>
0.0000

> <Gold.Chemscore.Hbonds>
donor molecule, donor type, donor heavy atom, donor atom, acceptor molecule, acceptor atom, score
      L1  H     9    36       P1  7948  0.90
      L1  H    12    37       P1  7948  1.00

> <Gold.PLP.Chemscore.Internal.Correction>
0.0106

> <Gold.Rescore>
     Score         DG    S(hbond)    S(metal)    S(lipo)     H(rot)  DE(clash)    DE(int)     intcor
     15.37     -17.50       1.49        0.00      88.77       1.30       0.02       2.11       ----

> <Gold.Chemscore.Fitness>
15.3702

> <Gold.Chemscore.DG>
-17.4986

> <Gold.Chemscore.ZeroCoef>
-5.4800

> <Gold.Chemscore.Hbond>
1.4871

> <Gold.Chemscore.Metal>
0.0000

> <Gold.Chemscore.Lipo>
88.7732

> <Gold.Chemscore.Internal_Hbond>
0.0000

> <Gold.Chemscore.DEClash>
0.0207

> <Gold.Chemscore.DEInternal>
2.1077

> <Gold.Chemscore.Rot>
1.3027

> <Gold.Chemscore.Internal.Correction>
   9.000000E+99

> <Gold.Chemscore.Hbonds>
donor molecule, donor type, donor heavy atom, donor atom, acceptor molecule, acceptor atom, score
      L1  H     9    36       P1  7948  0.69
      L1  H    12    37       P1  7948  0.25

> <Gold.Chemscore.Hbond.Weighted>
-4.9670

> <Gold.Chemscore.Metal.Weighted>
-0.0000

> <Gold.Chemscore.Lipo.Weighted>
-10.3865

> <Gold.Chemscore.Internal_Hbond.Weighted>
0.0000

> <Gold.Chemscore.DEClash.Weighted>
0.0207

> <Gold.Chemscore.DEInternal.Weighted>
2.1077

> <Gold.Chemscore.Rot.Weighted>
3.3348

> <Gold.Chemscore.Internal.Correction.Weighted>
   9.000000E+99

> <Gold.Protein.RotatedTorsions>
[ 6907 6896 6895 6894 ] final   41.43 input  -60.11 | X-H torsion
[ 7974 7965 7964 7962 ] final  -63.54 input  175.53 | X-H torsion
[ 8008 7997 7996 7995 ] final   92.92 input   59.86 | X-H torsion
[ 10167 10162 10161 10158 ] final -175.18 input  -65.29 | X-H torsion
[ 10718 10713 10712 10709 ] final   10.85 input   66.30 | X-H torsion
[ 10763 10752 10751 10750 ] final  121.98 input  -60.55 | X-H torsion
[ 11005 11000 10999 10996 ] final   76.38 input  -57.11 | X-H torsion

> <Gold.Protein.ActiveResidues>
 VAL166  LYS551  ARG553  GLY616  TRP617  ASP618  TYR619  PRO620  LYS621  CYS622 
 ASP623  PHE694  ASN695  SER759  ASP760  ASP761  ALA762  ILE779  LEU786  VAL792 
 PHE793  MET794  SER795  GLU796  ALA797  LYS798  CYS799  TRP800  GLU811  SER814 

> <Gold.Protein.RotatedAtoms>
  152.1951  134.8637  160.0513 H   0  0  0  0  0  0  0  0  0  0  0  0  # atno 6907 bound_to 6896
  151.9511  133.3661  159.4008 H   0  0  0  0  0  0  0  0  0  0  0  0  # atno 6908 bound_to 6896
  150.6943  134.4263  159.5272 H   0  0  0  0  0  0  0  0  0  0  0  0  # atno 6909 bound_to 6896
  145.7777  140.8779  143.0346 H   0  0  0  0  0  0  0  0  0  0  0  0  # atno 7974 bound_to 7965
  156.0409  140.3319  155.7243 H   0  0  0  0  0  0  0  0  0  0  0  0  # atno 8008 bound_to 7997
  155.5746  140.0631  157.2816 H   0  0  0  0  0  0  0  0  0  0  0  0  # atno 8009 bound_to 7997
  154.4393  140.1855  156.0902 H   0  0  0  0  0  0  0  0  0  0  0  0  # atno 8010 bound_to 7997
  139.5595  144.1906  152.1215 H   0  0  0  0  0  0  0  0  0  0  0  0  # atno 10167 bound_to 10162
  156.9870  130.6027  149.5682 H   0  0  0  0  0  0  0  0  0  0  0  0  # atno 10718 bound_to 10713
  153.6225  135.3410  155.3015 H   0  0  0  0  0  0  0  0  0  0  0  0  # atno 10763 bound_to 10752
  154.8597  135.4276  154.2192 H   0  0  0  0  0  0  0  0  0  0  0  0  # atno 10764 bound_to 10752
  153.3068  135.7028  153.7225 H   0  0  0  0  0  0  0  0  0  0  0  0  # atno 10765 bound_to 10752
  139.9301  134.7596  156.1388 H   0  0  0  0  0  0  0  0  0  0  0  0  # atno 11005 bound_to 11000
  144.6801  139.9945  143.7484 LP  0  0  0  0  0  0  0  0  0  0  0  0  # atno 17320 bound_to 7965
  146.0105  139.3166  143.0873 LP  0  0  0  0  0  0  0  0  0  0  0  0  # atno 17321 bound_to 7965
  140.1417  144.5196  150.6740 LP  0  0  0  0  0  0  0  0  0  0  0  0  # atno 17342 bound_to 10162
  140.6872  143.2356  151.5228 LP  0  0  0  0  0  0  0  0  0  0  0  0  # atno 17343 bound_to 10162
  156.0222  130.5317  150.8307 LP  0  0  0  0  0  0  0  0  0  0  0  0  # atno 17370 bound_to 10713
  157.5486  131.0943  150.9728 LP  0  0  0  0  0  0  0  0  0  0  0  0  # atno 17371 bound_to 10713
  141.0884  133.6724  156.2487 LP  0  0  0  0  0  0  0  0  0  0  0  0  # atno 17394 bound_to 11000
  140.6226  134.5346  157.5549 LP  0  0  0  0  0  0  0  0  0  0  0  0  # atno 17395 bound_to 11000

$$$$
