AV-unprocessed.smi:1683|AV-procd|sdf|6752|dock1
  -GOLD-   22720 7513D 1   1.00000     0.00000
 Structure written by MMmdl.
 37 38  0  0  0  0  0  0  0  0  2 V2000
  144.3888  136.5577  151.9189 O   0  0  0  0  0  0  0  0  0  0  0  0
  145.6029  136.3725  151.8358 C   0  0  0  0  0  0  0  0  0  0  0  0
  146.5191  137.2604  152.2472 N   0  0  0  0  0  0  0  0  0  0  0  0
  146.2246  138.5567  152.8498 C   0  0  0  0  0  0  0  0  0  0  0  0
  147.5182  139.3222  153.1730 C   0  0  1  0  0  0  0  0  0  0  0  0
  147.3240  140.8004  153.5161 C   0  0  0  0  0  0  0  0  0  0  0  0
  148.5441  141.1627  154.3745 C   0  0  0  0  0  0  0  0  0  0  0  0
  149.1716  139.8853  154.7928 N   0  3  1  0  0  0  0  0  0  0  0  0
  149.6222  139.8255  156.2045 C   0  0  0  0  0  0  0  0  0  0  0  0
  151.0048  140.4681  156.4111 C   0  0  0  0  0  0  0  0  0  0  0  0
  151.3958  140.2661  157.6684 F   0  0  0  0  0  0  0  0  0  0  0  0
  151.8945  139.9084  155.5913 F   0  0  0  0  0  0  0  0  0  0  0  0
  150.9647  141.7807  156.1859 F   0  0  0  0  0  0  0  0  0  0  0  0
  148.2516  138.7979  154.4060 C   0  0  0  0  0  0  0  0  0  0  0  0
  146.1823  135.2718  151.3287 N   0  0  0  0  0  0  0  0  0  0  0  0
  145.5359  134.1224  150.8066 C   0  0  0  0  0  0  0  0  0  0  0  0
  146.1850  132.8937  150.5074 C   0  0  0  0  0  0  0  0  0  0  0  0
  145.3308  131.9980  150.0333 N   0  0  0  0  0  0  0  0  0  0  0  0
  144.1425  132.6432  150.0269 N   0  0  0  0  0  0  0  0  0  0  0  0
  144.2192  133.9385  150.4892 C   0  0  0  0  0  0  0  0  0  0  0  0
  143.2973  132.1913  149.7077 H   0  0  0  0  0  0  0  0  0  0  0  0
  147.4935  137.0214  152.1340 H   0  0  0  0  0  0  0  0  0  0  0  0
  145.6059  139.1278  152.1565 H   0  0  0  0  0  0  0  0  0  0  0  0
  145.6417  138.4410  153.7651 H   0  0  0  0  0  0  0  0  0  0  0  0
  148.1961  139.2521  152.3201 H   0  0  0  0  0  0  0  0  0  0  0  0
  147.2360  141.4288  152.6291 H   0  0  0  0  0  0  0  0  0  0  0  0
  146.4149  140.9313  154.1048 H   0  0  0  0  0  0  0  0  0  0  0  0
  149.2709  141.7391  153.8013 H   0  0  0  0  0  0  0  0  0  0  0  0
  148.2374  141.7703  155.2270 H   0  0  0  0  0  0  0  0  0  0  0  0
  148.8780  140.2832  156.8580 H   0  0  0  0  0  0  0  0  0  0  0  0
  149.6864  138.7762  156.4973 H   0  0  0  0  0  0  0  0  0  0  0  0
  147.5417  138.6133  155.2148 H   0  0  0  0  0  0  0  0  0  0  0  0
  148.7898  137.8700  154.2097 H   0  0  0  0  0  0  0  0  0  0  0  0
  147.1913  135.2513  151.3161 H   0  0  0  0  0  0  0  0  0  0  0  0
  147.2261  132.6274  150.6170 H   0  0  0  0  0  0  0  0  0  0  0  0
  143.3553  134.5842  150.5458 H   0  0  0  0  0  0  0  0  0  0  0  0
  149.9915  139.7693  154.2142 H   0  0  0  0  0  0  0  0  0  0  0  0
  1  2  2  0  0  0  0
  2  3  1  0  0  0  0
  2 15  1  0  0  0  0
  3  4  1  0  0  0  0
  3 22  1  0  0  0  0
  4  5  1  0  0  0  0
  4 23  1  0  0  0  0
  4 24  1  0  0  0  0
  5 14  1  0  0  0  0
  5  6  1  0  0  0  0
  5 25  1  0  0  0  0
  6  7  1  0  0  0  0
  6 26  1  0  0  0  0
  6 27  1  0  0  0  0
  7  8  1  0  0  0  0
  7 28  1  0  0  0  0
  7 29  1  0  0  0  0
  8  9  1  0  0  0  0
  8 14  1  0  0  0  0
  8 37  1  0  0  0  0
  9 10  1  0  0  0  0
  9 30  1  0  0  0  0
  9 31  1  0  0  0  0
 10 11  1  0  0  0  0
 10 12  1  0  0  0  0
 10 13  1  0  0  0  0
 14 32  1  0  0  0  0
 14 33  1  0  0  0  0
 15 16  1  0  0  0  0
 15 34  1  0  0  0  0
 16 20  2  0  0  0  0
 16 17  1  0  0  0  0
 17 18  2  0  0  0  0
 17 35  1  0  0  0  0
 18 19  1  0  0  0  0
 19 21  1  0  0  0  0
 19 20  1  0  0  0  0
 20 36  1  0  0  0  0
M  CHG  1   8   1
M  END
> <s_m_source_file>
AV-unprocessed.smi

> <i_m_source_file_index>
1683

> <i_lp_mmshare_version>
43012

> <i_f3d_flags>
0

> <s_epik_input>
W2NIXTFbbkhdbltjSF1jMVtOSF1DKD1PKVtOSF1bQ0gyXVtDQEBIXTJbQ0gyXVtDSDJdTihbQ0gyXTIpW0NIMl1DKEYpKEYpRg==

> <s_epik_cmdline>
J2VwaWtfcHl0aG9uJywgJy1waCcsICc3LjAnLCAnLXRuJywgJzgnLCAnLW1hJywgJzIwMCcsICctbWV0YWxfYmluZGluZycsICctaW1hZScsICc8aW5maWxlLm1hZT4nLCAnLW9tYWUnLCAnPG91dGZpbGUubWFlPic=

> <r_lp_tautomer_probability>
0.5

> <r_epik_Ionization_Penalty>
0.641865

> <r_epik_Ionization_Penalty_Charging>
0.64182

> <r_epik_Ionization_Penalty_Neutral>
4.50685e-05

> <r_epik_State_Penalty>
0.65957

> <r_epik_Charging_Adjusted_Penalty>
1.30139

> <i_epik_Tot_Q>
1

> <i_epik_Tot_abs_Q>
1

> <r_epik_Metal_State_Penalty>
0.659571

> <b_epik_Metal_Only>
0

> <s_lp_Force_Field>
OPLS_2005

> <r_lp_Energy>
31.2098

> <b_lp_Chiralities_Consistent>
1

> <s_lp_Variant>
AV-unprocessed.smi:1683-6

> <Gold.Version>
5.8.1

> <Gold.Id.Protein>
6NUR|6NUR_protein|mol2

> <Gold.PLP.Fitness>
43.9037

> <Gold.PLP.PLP>
-32.5666

> <Gold.PLP.part.hbond>
-2.0000

> <Gold.PLP.part.metal>
0.0000

> <Gold.PLP.part.buried>
-4.6759

> <Gold.PLP.part.nonpolar>
-27.4938

> <Gold.PLP.part.repulsive>
1.6669

> <Gold.PLP.ligand.clash>
0.0000

> <Gold.PLP.ligand.torsion>
0.4384

> <Gold.PLP.Chemscore.Hbond>
1.9516

> <Gold.PLP.Chemscore.CHOScore>
1.9661

> <Gold.PLP.Chemscore.Metal>
0.0000

> <Gold.Chemscore.Hbonds>
donor molecule, donor type, donor heavy atom, donor atom, acceptor molecule, acceptor atom, score
      L1  H     3    22       P1  7948  1.00
      L1  H    15    34       P1  7948  0.95
      L1  C    17    35       P1 10747  1.00
      L1  C    20    36       P1 10186  0.96

> <Gold.PLP.Chemscore.Internal.Correction>
0.4608

> <Gold.Rescore>
     Score         DG    S(hbond)    S(metal)    S(lipo)     H(rot)  DE(clash)    DE(int)     intcor
     12.63     -14.23       1.91        0.00      59.89       1.81       0.05       1.55       ----

> <Gold.Chemscore.Fitness>
12.6332

> <Gold.Chemscore.DG>
-14.2326

> <Gold.Chemscore.ZeroCoef>
-5.4800

> <Gold.Chemscore.Hbond>
1.9110

> <Gold.Chemscore.Metal>
0.0000

> <Gold.Chemscore.Lipo>
59.8940

> <Gold.Chemscore.Internal_Hbond>
0.0000

> <Gold.Chemscore.DEClash>
0.0458

> <Gold.Chemscore.DEInternal>
1.5535

> <Gold.Chemscore.Rot>
1.8116

> <Gold.Chemscore.Internal.Correction>
   9.000000E+99

> <Gold.Chemscore.Hbonds>
donor molecule, donor type, donor heavy atom, donor atom, acceptor molecule, acceptor atom, score
      L1  H     3    22       P1  7948  1.00
      L1  H    15    34       P1  7948  0.70

> <Gold.Chemscore.Hbond.Weighted>
-6.3828

> <Gold.Chemscore.Metal.Weighted>
-0.0000

> <Gold.Chemscore.Lipo.Weighted>
-7.0076

> <Gold.Chemscore.Internal_Hbond.Weighted>
0.0000

> <Gold.Chemscore.DEClash.Weighted>
0.0458

> <Gold.Chemscore.DEInternal.Weighted>
1.5535

> <Gold.Chemscore.Rot.Weighted>
4.6378

> <Gold.Chemscore.Internal.Correction.Weighted>
   9.000000E+99

> <Gold.Protein.RotatedTorsions>
[ 6907 6896 6895 6894 ] final  -17.85 input  -60.11 | X-H torsion
[ 7974 7965 7964 7962 ] final  -42.33 input  175.53 | X-H torsion
[ 8008 7997 7996 7995 ] final   70.90 input   59.86 | X-H torsion
[ 10167 10162 10161 10158 ] final  -61.19 input  -65.29 | X-H torsion
[ 10718 10713 10712 10709 ] final  -90.18 input   66.30 | X-H torsion
[ 10763 10752 10751 10750 ] final  -14.27 input  -60.55 | X-H torsion
[ 11005 11000 10999 10996 ] final  111.18 input  -57.11 | X-H torsion

> <Gold.Protein.ActiveResidues>
 VAL166  LYS551  ARG553  GLY616  TRP617  ASP618  TYR619  PRO620  LYS621  CYS622 
 ASP623  PHE694  ASN695  SER759  ASP760  ASP761  ALA762  ILE779  LEU786  VAL792 
 PHE793  MET794  SER795  GLU796  ALA797  LYS798  CYS799  TRP800  GLU811  SER814 

> <Gold.Protein.RotatedAtoms>
  151.2871  135.0731  159.9190 H   0  0  0  0  0  0  0  0  0  0  0  0  # atno 6907 bound_to 6896
  152.5323  133.9970  159.7887 H   0  0  0  0  0  0  0  0  0  0  0  0  # atno 6908 bound_to 6896
  151.0234  133.5805  159.2699 H   0  0  0  0  0  0  0  0  0  0  0  0  # atno 6909 bound_to 6896
  146.0126  140.6946  142.9217 H   0  0  0  0  0  0  0  0  0  0  0  0  # atno 7974 bound_to 7965
  155.7458  140.3489  155.5126 H   0  0  0  0  0  0  0  0  0  0  0  0  # atno 8008 bound_to 7997
  155.9051  140.1041  157.1342 H   0  0  0  0  0  0  0  0  0  0  0  0  # atno 8009 bound_to 7997
  154.4048  140.1278  156.4473 H   0  0  0  0  0  0  0  0  0  0  0  0  # atno 8010 bound_to 7997
  140.6022  143.2364  151.5902 H   0  0  0  0  0  0  0  0  0  0  0  0  # atno 10167 bound_to 10162
  155.9987  130.4900  150.5284 H   0  0  0  0  0  0  0  0  0  0  0  0  # atno 10718 bound_to 10713
  153.5258  135.7015  153.5708 H   0  0  0  0  0  0  0  0  0  0  0  0  # atno 10763 bound_to 10752
  153.3737  135.3938  155.1807 H   0  0  0  0  0  0  0  0  0  0  0  0  # atno 10764 bound_to 10752
  154.8690  135.3818  154.4751 H   0  0  0  0  0  0  0  0  0  0  0  0  # atno 10765 bound_to 10752
  139.8898  134.9502  156.6393 H   0  0  0  0  0  0  0  0  0  0  0  0  # atno 11005 bound_to 11000
  144.6959  140.3425  143.7196 LP  0  0  0  0  0  0  0  0  0  0  0  0  # atno 17320 bound_to 7965
  145.7318  139.1738  143.2426 LP  0  0  0  0  0  0  0  0  0  0  0  0  # atno 17321 bound_to 7965
  139.5299  144.2946  152.1124 LP  0  0  0  0  0  0  0  0  0  0  0  0  # atno 17342 bound_to 10162
  140.2129  144.4544  150.6377 LP  0  0  0  0  0  0  0  0  0  0  0  0  # atno 17343 bound_to 10162
  157.3236  131.0686  151.1913 LP  0  0  0  0  0  0  0  0  0  0  0  0  # atno 17370 bound_to 10713
  157.2818  130.6754  149.6070 LP  0  0  0  0  0  0  0  0  0  0  0  0  # atno 17371 bound_to 10713
  140.7606  133.8821  155.8415 LP  0  0  0  0  0  0  0  0  0  0  0  0  # atno 17394 bound_to 11000
  140.9925  134.1259  157.4394 LP  0  0  0  0  0  0  0  0  0  0  0  0  # atno 17395 bound_to 11000

$$$$
