AV-unprocessed.smi:549|AV-procd|sdf|2893|dock2
  -GOLD-   2262023383D 1   1.00000     0.00000
 Structure written by MMmdl.
 44 45  0  0  0  0  0  0  0  0  2 V2000
  144.8881  131.4377  158.3576 C   0  0  0  0  0  0  0  0  0  0  0  0
  144.5781  132.0087  157.0579 N   0  0  0  0  0  0  0  0  0  0  0  0
  145.4238  132.9648  156.4809 C   0  0  0  0  0  0  0  0  0  0  0  0
  146.6128  133.4432  157.0798 C   0  0  0  0  0  0  0  0  0  0  0  0
  147.3885  134.4076  156.4039 C   0  0  0  0  0  0  0  0  0  0  0  0
  146.9696  134.8910  155.1457 C   0  0  0  0  0  0  0  0  0  0  0  0
  147.7939  135.8521  154.4987 N   0  0  0  0  0  0  0  0  0  0  0  0
  148.5168  136.8439  155.0475 C   0  0  0  0  0  0  0  0  0  0  0  0
  148.6161  137.0694  156.2531 O   0  0  0  0  0  0  0  0  0  0  0  0
  149.1463  137.5637  154.1077 N   0  0  0  0  0  0  0  0  0  0  0  0
  150.0138  138.7090  154.3689 C   0  0  0  0  0  0  0  0  0  0  0  0
  151.2817  138.2479  155.1024 C   0  0  0  0  0  0  0  0  0  0  0  0
  152.1963  139.4376  155.4438 C   0  0  0  0  0  0  0  0  0  0  0  0
  151.4737  140.4833  156.1956 N   0  0  0  0  0  0  0  0  0  0  0  0
  151.6748  140.6109  157.9196 S   0  0  0  0  0  0  0  0  0  0  0  0
  151.6102  142.4199  158.2466 C   0  0  0  0  0  0  0  0  0  0  0  0
  150.5042  139.9879  158.5563 O   0  0  0  0  0  0  0  0  0  0  0  0
  153.0257  140.1327  158.2514 O   0  0  0  0  0  0  0  0  0  0  0  0
  150.2205  140.9425  155.5632 C   0  0  0  0  0  0  0  0  0  0  0  0
  149.2905  139.7652  155.2218 C   0  0  0  0  0  0  0  0  0  0  0  0
  145.7755  134.3688  154.5912 C   0  0  0  0  0  0  0  0  0  0  0  0
  145.0626  133.4445  155.2709 N   0  3  0  0  0  0  0  0  0  0  0  0
  144.1240  130.7114  158.6347 H   0  0  0  0  0  0  0  0  0  0  0  0
  144.9155  132.2126  159.1242 H   0  0  0  0  0  0  0  0  0  0  0  0
  145.8510  130.9265  158.3372 H   0  0  0  0  0  0  0  0  0  0  0  0
  143.7311  131.7260  156.5861 H   0  0  0  0  0  0  0  0  0  0  0  0
  146.9417  133.0843  158.0437 H   0  0  0  0  0  0  0  0  0  0  0  0
  148.2989  134.7750  156.8551 H   0  0  0  0  0  0  0  0  0  0  0  0
  147.8708  135.7521  153.4970 H   0  0  0  0  0  0  0  0  0  0  0  0
  149.0139  137.3066  153.1405 H   0  0  0  0  0  0  0  0  0  0  0  0
  150.3104  139.1573  153.4183 H   0  0  0  0  0  0  0  0  0  0  0  0
  151.0113  137.7145  156.0132 H   0  0  0  0  0  0  0  0  0  0  0  0
  151.8303  137.5358  154.4848 H   0  0  0  0  0  0  0  0  0  0  0  0
  153.0665  139.0983  156.0049 H   0  0  0  0  0  0  0  0  0  0  0  0
  152.5784  139.8792  154.5226 H   0  0  0  0  0  0  0  0  0  0  0  0
  151.7340  142.5917  159.3156 H   0  0  0  0  0  0  0  0  0  0  0  0
  150.6470  142.8196  157.9346 H   0  0  0  0  0  0  0  0  0  0  0  0
  152.4149  142.9228  157.7134 H   0  0  0  0  0  0  0  0  0  0  0  0
  149.7084  141.6562  156.2079 H   0  0  0  0  0  0  0  0  0  0  0  0
  150.4741  141.4816  154.6496 H   0  0  0  0  0  0  0  0  0  0  0  0
  148.4156  140.1423  154.6910 H   0  0  0  0  0  0  0  0  0  0  0  0
  148.9153  139.3092  156.1374 H   0  0  0  0  0  0  0  0  0  0  0  0
  145.3628  134.6376  153.6308 H   0  0  0  0  0  0  0  0  0  0  0  0
  144.2069  133.0895  154.8433 H   0  0  0  0  0  0  0  0  0  0  0  0
  1  2  1  0  0  0  0
  1 23  1  0  0  0  0
  1 24  1  0  0  0  0
  1 25  1  0  0  0  0
  2  3  1  0  0  0  0
  2 26  1  0  0  0  0
  3 22  1  0  0  0  0
  3  4  2  0  0  0  0
  4  5  1  0  0  0  0
  4 27  1  0  0  0  0
  5  6  2  0  0  0  0
  5 28  1  0  0  0  0
  6  7  1  0  0  0  0
  6 21  1  0  0  0  0
  7  8  1  0  0  0  0
  7 29  1  0  0  0  0
  8  9  2  0  0  0  0
  8 10  1  0  0  0  0
 10 11  1  0  0  0  0
 10 30  1  0  0  0  0
 11 20  1  0  0  0  0
 11 12  1  0  0  0  0
 11 31  1  0  0  0  0
 12 13  1  0  0  0  0
 12 32  1  0  0  0  0
 12 33  1  0  0  0  0
 13 14  1  0  0  0  0
 13 34  1  0  0  0  0
 13 35  1  0  0  0  0
 14 15  1  0  0  0  0
 14 19  1  0  0  0  0
 15 16  1  0  0  0  0
 15 17  2  0  0  0  0
 15 18  2  0  0  0  0
 16 36  1  0  0  0  0
 16 37  1  0  0  0  0
 16 38  1  0  0  0  0
 19 20  1  0  0  0  0
 19 39  1  0  0  0  0
 19 40  1  0  0  0  0
 20 41  1  0  0  0  0
 20 42  1  0  0  0  0
 21 22  2  0  0  0  0
 21 43  1  0  0  0  0
 22 44  1  0  0  0  0
M  CHG  1  22   1
M  END
> <s_m_source_file>
AV-unprocessed.smi

> <i_m_source_file_index>
549

> <i_lp_mmshare_version>
43012

> <i_f3d_flags>
0

> <s_epik_input>
W0NIM11bTkhdYzFbY0hdW2NIXWMoW2NIXW4xKVtOSF1DKD1PKVtOSF1bQ0hdMltDSDJdW0NIMl1OKFMoPU8pKD1PKVtDSDNdKVtDSDJdW0NIMl0y

> <s_epik_cmdline>
J2VwaWtfcHl0aG9uJywgJy1waCcsICc3LjAnLCAnLXRuJywgJzgnLCAnLW1hJywgJzIwMCcsICctbWV0YWxfYmluZGluZycsICctaW1hZScsICc8aW5maWxlLm1hZT4nLCAnLW9tYWUnLCAnPG91dGZpbGUubWFlPic=

> <r_lp_tautomer_probability>
0.999994

> <r_epik_Ionization_Penalty>
0.450019

> <r_epik_Ionization_Penalty_Charging>
0.449999

> <r_epik_Ionization_Penalty_Neutral>
1.96337e-05

> <r_epik_State_Penalty>
0.452724

> <r_epik_Charging_Adjusted_Penalty>
0.902724

> <i_epik_Tot_Q>
1

> <i_epik_Tot_abs_Q>
1

> <r_epik_Metal_State_Penalty>
0.680753

> <b_epik_Metal_Only>
0

> <s_lp_Force_Field>
OPLS_2005

> <r_lp_Energy>
8.99887

> <b_lp_Chiralities_Consistent>
1

> <s_lp_Variant>
AV-unprocessed.smi:549-2

> <Gold.Version>
5.8.1

> <Gold.Id.Protein>
6NUR|6NUR_protein|mol2

> <Gold.PLP.Fitness>
45.6552

> <Gold.PLP.PLP>
-25.8508

> <Gold.PLP.part.hbond>
-5.0000

> <Gold.PLP.part.metal>
0.0000

> <Gold.PLP.part.buried>
-3.2861

> <Gold.PLP.part.nonpolar>
-18.5816

> <Gold.PLP.part.repulsive>
0.0288

> <Gold.PLP.ligand.clash>
0.0000

> <Gold.PLP.ligand.torsion>
1.3941

> <Gold.PLP.Chemscore.Hbond>
6.8465

> <Gold.PLP.Chemscore.CHOScore>
0.0000

> <Gold.PLP.Chemscore.Metal>
0.0000

> <Gold.Chemscore.Hbonds>
donor molecule, donor type, donor heavy atom, donor atom, acceptor molecule, acceptor atom, score
      L1  H     2    26       P1 10957  1.89
      L1  H     7    29       P1  7948  0.91
      L1  H    10    30       P1  7948  1.00
      L1  H    22    44       P1 10957  2.00
      P1  H  7997  8010       L1    18  1.00

> <Gold.PLP.Chemscore.Internal.Correction>
2.0530

> <Gold.Rescore>
     Score         DG    S(hbond)    S(metal)    S(lipo)     H(rot)  DE(clash)    DE(int)     intcor
     19.67     -23.43       4.45        0.00      48.30       1.00       0.01       3.75       ----

> <Gold.Chemscore.Fitness>
19.6711

> <Gold.Chemscore.DG>
-23.4288

> <Gold.Chemscore.ZeroCoef>
-5.4800

> <Gold.Chemscore.Hbond>
4.4483

> <Gold.Chemscore.Metal>
0.0000

> <Gold.Chemscore.Lipo>
48.3026

> <Gold.Chemscore.Internal_Hbond>
0.0000

> <Gold.Chemscore.DEClash>
0.0060

> <Gold.Chemscore.DEInternal>
3.7517

> <Gold.Chemscore.Rot>
1.0000

> <Gold.Chemscore.Internal.Correction>
   9.000000E+99

> <Gold.Chemscore.Hbonds>
donor molecule, donor type, donor heavy atom, donor atom, acceptor molecule, acceptor atom, score
      L1  H     2    26       P1 10957  0.63
      L1  H     7    29       P1  7948  0.84
      L1  H    10    30       P1  7948  0.98
      L1  H    22    44       P1 10957  0.88
      P1  H  7997  8010       L1    18  0.91

> <Gold.Chemscore.Hbond.Weighted>
-14.8573

> <Gold.Chemscore.Metal.Weighted>
-0.0000

> <Gold.Chemscore.Lipo.Weighted>
-5.6514

> <Gold.Chemscore.Internal_Hbond.Weighted>
0.0000

> <Gold.Chemscore.DEClash.Weighted>
0.0060

> <Gold.Chemscore.DEInternal.Weighted>
3.7517

> <Gold.Chemscore.Rot.Weighted>
2.5600

> <Gold.Chemscore.Internal.Correction.Weighted>
   9.000000E+99

> <Gold.Protein.RotatedTorsions>
[ 6907 6896 6895 6894 ] final  -57.89 input  -60.11 | X-H torsion
[ 7974 7965 7964 7962 ] final -140.82 input  175.53 | X-H torsion
[ 8008 7997 7996 7995 ] final   39.52 input   59.86 | X-H torsion
[ 10167 10162 10161 10158 ] final   57.99 input  -65.29 | X-H torsion
[ 10718 10713 10712 10709 ] final   99.34 input   66.30 | X-H torsion
[ 10763 10752 10751 10750 ] final  177.98 input  -60.55 | X-H torsion
[ 11005 11000 10999 10996 ] final   71.16 input  -57.11 | X-H torsion

> <Gold.Protein.ActiveResidues>
 VAL166  LYS551  ARG553  GLY616  TRP617  ASP618  TYR619  PRO620  LYS621  CYS622 
 ASP623  PHE694  ASN695  SER759  ASP760  ASP761  ALA762  ILE779  LEU786  VAL792 
 PHE793  MET794  SER795  GLU796  ALA797  LYS798  CYS799  TRP800  GLU811  SER814 

> <Gold.Protein.RotatedAtoms>
  150.8050  134.7168  159.6635 H   0  0  0  0  0  0  0  0  0  0  0  0  # atno 6907 bound_to 6896
  152.4169  134.6023  160.0013 H   0  0  0  0  0  0  0  0  0  0  0  0  # atno 6908 bound_to 6896
  151.6249  133.3299  159.3132 H   0  0  0  0  0  0  0  0  0  0  0  0  # atno 6909 bound_to 6896
  144.8567  140.6154  143.5355 H   0  0  0  0  0  0  0  0  0  0  0  0  # atno 7974 bound_to 7965
  155.2380  140.3343  155.4295 H   0  0  0  0  0  0  0  0  0  0  0  0  # atno 8008 bound_to 7997
  156.2267  140.1832  156.7389 H   0  0  0  0  0  0  0  0  0  0  0  0  # atno 8009 bound_to 7997
  154.5911  140.0638  156.9225 H   0  0  0  0  0  0  0  0  0  0  0  0  # atno 8010 bound_to 7997
  140.1921  144.4075  150.6566 H   0  0  0  0  0  0  0  0  0  0  0  0  # atno 10167 bound_to 10162
  157.6878  131.0667  150.4934 H   0  0  0  0  0  0  0  0  0  0  0  0  # atno 10718 bound_to 10713
  154.5017  135.2784  155.1415 H   0  0  0  0  0  0  0  0  0  0  0  0  # atno 10763 bound_to 10752
  154.3046  135.6241  153.5443 H   0  0  0  0  0  0  0  0  0  0  0  0  # atno 10764 bound_to 10752
  152.9903  135.5705  154.5461 H   0  0  0  0  0  0  0  0  0  0  0  0  # atno 10765 bound_to 10752
  139.9558  134.7147  156.0756 H   0  0  0  0  0  0  0  0  0  0  0  0  # atno 11005 bound_to 11000
  145.4392  139.1538  143.3980 LP  0  0  0  0  0  0  0  0  0  0  0  0  # atno 17320 bound_to 7965
  146.2829  140.4512  142.8769 LP  0  0  0  0  0  0  0  0  0  0  0  0  # atno 17321 bound_to 7965
  140.6449  143.2211  151.6209 LP  0  0  0  0  0  0  0  0  0  0  0  0  # atno 17342 bound_to 10162
  139.5252  144.3082  152.1015 LP  0  0  0  0  0  0  0  0  0  0  0  0  # atno 17343 bound_to 10162
  156.5259  130.4173  149.6226 LP  0  0  0  0  0  0  0  0  0  0  0  0  # atno 17370 bound_to 10713
  156.3112  130.7230  151.2123 LP  0  0  0  0  0  0  0  0  0  0  0  0  # atno 17371 bound_to 10713
  141.1229  133.6607  156.3261 LP  0  0  0  0  0  0  0  0  0  0  0  0  # atno 17394 bound_to 11000
  140.5613  134.5932  157.5434 LP  0  0  0  0  0  0  0  0  0  0  0  0  # atno 17395 bound_to 11000

$$$$
