AV-unprocessed.smi:2539|AV-procd|sdf|9986|dock10
  -GOLD-   2272014 33D 1   1.00000     0.00000
 Structure written by MMmdl.
 41 42  0  0  0  0  0  0  0  0  2 V2000
  145.8346  136.8226  153.9409 O   0  0  0  0  0  0  0  0  0  0  0  0
  145.2760  136.9597  152.8514 C   0  0  0  0  0  0  0  0  0  0  0  0
  145.5632  137.9792  152.0227 N   0  0  0  0  0  0  0  0  0  0  0  0
  146.5947  138.9913  152.2368 C   0  0  0  0  0  0  0  0  0  0  0  0
  146.0804  140.1789  153.0746 C   0  0  0  0  0  0  0  0  0  0  0  0
  147.0299  140.5988  154.1839 C   0  0  0  0  0  0  0  0  0  0  0  0
  147.8590  139.6499  154.8229 C   0  0  0  0  0  0  0  0  0  0  0  0
  148.7031  140.0654  155.8735 C   0  0  0  0  0  0  0  0  0  0  0  0
  148.7004  141.4205  156.2613 C   0  0  0  0  0  0  0  0  0  0  0  0
  147.8974  142.3004  155.6240 N   0  3  0  0  0  0  0  0  0  0  0  0
  147.0760  141.9430  154.6129 C   0  0  0  0  0  0  0  0  0  0  0  0
  144.3373  136.0980  152.3855 N   0  0  0  0  0  0  0  0  0  0  0  0
  143.8458  136.0154  151.0015 C   0  0  0  0  0  0  0  0  0  0  0  0
  144.5389  134.8276  150.3063 C   0  0  0  0  0  0  0  0  0  0  0  0
  144.3342  133.4946  151.0739 C   0  0  0  0  0  0  0  0  0  0  0  0
  142.9779  133.1157  150.9197 O   0  0  0  0  0  0  0  0  0  0  0  0
  145.1967  132.3567  150.4779 C   0  0  0  0  0  0  0  0  0  0  0  0
  146.4898  132.6031  150.6919 F   0  0  0  0  0  0  0  0  0  0  0  0
  144.8968  131.1886  151.0470 F   0  0  0  0  0  0  0  0  0  0  0  0
  145.0049  132.2633  149.1613 F   0  0  0  0  0  0  0  0  0  0  0  0
  144.5993  133.6777  152.5918 C   0  0  0  0  0  0  0  0  0  0  0  0
  143.9055  134.9309  153.1614 C   0  0  0  0  0  0  0  0  0  0  0  0
  145.0493  138.0340  151.1551 H   0  0  0  0  0  0  0  0  0  0  0  0
  147.4314  138.5183  152.7514 H   0  0  0  0  0  0  0  0  0  0  0  0
  146.9891  139.3454  151.2830 H   0  0  0  0  0  0  0  0  0  0  0  0
  145.8943  141.0327  152.4215 H   0  0  0  0  0  0  0  0  0  0  0  0
  145.1175  139.9234  153.5180 H   0  0  0  0  0  0  0  0  0  0  0  0
  147.8421  138.6128  154.5214 H   0  0  0  0  0  0  0  0  0  0  0  0
  149.3413  139.3541  156.3769 H   0  0  0  0  0  0  0  0  0  0  0  0
  149.3112  141.8242  157.0557 H   0  0  0  0  0  0  0  0  0  0  0  0
  146.4742  142.7347  154.1908 H   0  0  0  0  0  0  0  0  0  0  0  0
  142.7651  135.8670  151.0110 H   0  0  0  0  0  0  0  0  0  0  0  0
  143.9998  136.9268  150.4238 H   0  0  0  0  0  0  0  0  0  0  0  0
  144.1785  134.7367  149.2812 H   0  0  0  0  0  0  0  0  0  0  0  0
  145.6048  135.0453  150.2325 H   0  0  0  0  0  0  0  0  0  0  0  0
  142.5803  133.6785  150.2728 H   0  0  0  0  0  0  0  0  0  0  0  0
  144.2774  132.7934  153.1434 H   0  0  0  0  0  0  0  0  0  0  0  0
  145.6722  133.7675  152.7658 H   0  0  0  0  0  0  0  0  0  0  0  0
  144.1243  135.0297  154.2254 H   0  0  0  0  0  0  0  0  0  0  0  0
  142.8215  134.8279  153.0958 H   0  0  0  0  0  0  0  0  0  0  0  0
  147.9087  143.2764  155.9215 H   0  0  0  0  0  0  0  0  0  0  0  0
  1  2  2  0  0  0  0
  2  3  1  0  0  0  0
  2 12  1  0  0  0  0
  3  4  1  0  0  0  0
  3 23  1  0  0  0  0
  4  5  1  0  0  0  0
  4 24  1  0  0  0  0
  4 25  1  0  0  0  0
  5  6  1  0  0  0  0
  5 26  1  0  0  0  0
  5 27  1  0  0  0  0
  6 11  1  0  0  0  0
  6  7  2  0  0  0  0
  7  8  1  0  0  0  0
  7 28  1  0  0  0  0
  8  9  2  0  0  0  0
  8 29  1  0  0  0  0
  9 10  1  0  0  0  0
  9 30  1  0  0  0  0
 10 11  2  0  0  0  0
 10 41  1  0  0  0  0
 11 31  1  0  0  0  0
 12 22  1  0  0  0  0
 12 13  1  0  0  0  0
 13 14  1  0  0  0  0
 13 32  1  0  0  0  0
 13 33  1  0  0  0  0
 14 15  1  0  0  0  0
 14 34  1  0  0  0  0
 14 35  1  0  0  0  0
 15 16  1  0  0  0  0
 15 17  1  0  0  0  0
 15 21  1  0  0  0  0
 16 36  1  0  0  0  0
 17 18  1  0  0  0  0
 17 19  1  0  0  0  0
 17 20  1  0  0  0  0
 21 22  1  0  0  0  0
 21 37  1  0  0  0  0
 21 38  1  0  0  0  0
 22 39  1  0  0  0  0
 22 40  1  0  0  0  0
M  CHG  1  10   1
M  END
> <s_m_source_file>
AV-unprocessed.smi

> <i_m_source_file_index>
2539

> <i_lp_mmshare_version>
43012

> <i_f3d_flags>
0

> <s_epik_input>
RkMoRikoRilDMShbT0hdKVtDSDJdW0NIMl1OKFtDSDJdW0NIMl0xKUMoPU8pW05IXVtDSDJdW0NIMl1jMltjSF1bY0hdW2NIXW5bY0hdMg==

> <s_epik_cmdline>
J2VwaWtfcHl0aG9uJywgJy1waCcsICc3LjAnLCAnLXRuJywgJzgnLCAnLW1hJywgJzIwMCcsICctbWV0YWxfYmluZGluZycsICctaW1hZScsICc8aW5maWxlLm1hZT4nLCAnLW9tYWUnLCAnPG91dGZpbGUubWFlPic=

> <r_epik_Ionization_Penalty>
2.21039

> <r_epik_Ionization_Penalty_Charging>
2.21033

> <r_epik_Ionization_Penalty_Neutral>
5.75735e-05

> <r_epik_State_Penalty>
2.3545

> <r_epik_Charging_Adjusted_Penalty>
4.56483

> <i_epik_Tot_Q>
1

> <i_epik_Tot_abs_Q>
1

> <r_epik_Metal_State_Penalty>
2.36861

> <b_epik_Metal_Only>
0

> <s_lp_Force_Field>
OPLS_2005

> <r_lp_Energy>
41.3462

> <b_lp_Chiralities_Consistent>
1

> <s_lp_Variant>
AV-unprocessed.smi:2539-2

> <Gold.Version>
5.8.1

> <Gold.Id.Protein>
6NUR|6NUR_protein|mol2

> <Gold.PLP.Fitness>
51.7108

> <Gold.PLP.PLP>
-41.6162

> <Gold.PLP.part.hbond>
-3.3091

> <Gold.PLP.part.metal>
0.0000

> <Gold.PLP.part.buried>
-0.7140

> <Gold.PLP.part.nonpolar>
-38.3989

> <Gold.PLP.part.repulsive>
0.7581

> <Gold.PLP.ligand.clash>
0.0000

> <Gold.PLP.ligand.torsion>
0.9978

> <Gold.PLP.Chemscore.Hbond>
4.0000

> <Gold.PLP.Chemscore.CHOScore>
0.0000

> <Gold.PLP.Chemscore.Metal>
0.0000

> <Gold.Chemscore.Hbonds>
donor molecule, donor type, donor heavy atom, donor atom, acceptor molecule, acceptor atom, score
      L1  H     3    23       P1 10171  1.00
      L1  H    10    41       P1  8028  1.57
      L1  H    16    36       P1 10186  0.96

> <Gold.PLP.Chemscore.Internal.Correction>
0.0903

> <Gold.Rescore>
     Score         DG    S(hbond)    S(metal)    S(lipo)     H(rot)  DE(clash)    DE(int)     intcor
     16.07     -18.86       2.79        0.00      79.80       2.06       1.93       0.87       ----

> <Gold.Chemscore.Fitness>
16.0688

> <Gold.Chemscore.DG>
-18.8649

> <Gold.Chemscore.ZeroCoef>
-5.4800

> <Gold.Chemscore.Hbond>
2.7888

> <Gold.Chemscore.Metal>
0.0000

> <Gold.Chemscore.Lipo>
79.7993

> <Gold.Chemscore.Internal_Hbond>
0.0000

> <Gold.Chemscore.DEClash>
1.9298

> <Gold.Chemscore.DEInternal>
0.8663

> <Gold.Chemscore.Rot>
2.0572

> <Gold.Chemscore.Internal.Correction>
   9.000000E+99

> <Gold.Chemscore.Hbonds>
donor molecule, donor type, donor heavy atom, donor atom, acceptor molecule, acceptor atom, score
      L1  H     3    23       P1 10171  1.00
      L1  H    10    41       P1  8028  0.23
      L1  H    16    36       P1 10186  0.92

> <Gold.Chemscore.Hbond.Weighted>
-9.3147

> <Gold.Chemscore.Metal.Weighted>
-0.0000

> <Gold.Chemscore.Lipo.Weighted>
-9.3365

> <Gold.Chemscore.Internal_Hbond.Weighted>
0.0000

> <Gold.Chemscore.DEClash.Weighted>
1.9298

> <Gold.Chemscore.DEInternal.Weighted>
0.8663

> <Gold.Chemscore.Rot.Weighted>
5.2663

> <Gold.Chemscore.Internal.Correction.Weighted>
   9.000000E+99

> <Gold.Protein.RotatedTorsions>
[ 6907 6896 6895 6894 ] final -135.37 input  -60.11 | X-H torsion
[ 7974 7965 7964 7962 ] final -178.51 input  175.53 | X-H torsion
[ 8008 7997 7996 7995 ] final   74.00 input   59.86 | X-H torsion
[ 10167 10162 10161 10158 ] final  -22.77 input  -65.29 | X-H torsion
[ 10718 10713 10712 10709 ] final  -99.09 input   66.30 | X-H torsion
[ 10763 10752 10751 10750 ] final  104.56 input  -60.55 | X-H torsion
[ 11005 11000 10999 10996 ] final  176.07 input  -57.11 | X-H torsion

> <Gold.Protein.ActiveResidues>
 VAL166  LYS551  ARG553  GLY616  TRP617  ASP618  TYR619  PRO620  LYS621  CYS622 
 ASP623  PHE694  ASN695  SER759  ASP760  ASP761  ALA762  ILE779  LEU786  VAL792 
 PHE793  MET794  SER795  GLU796  ALA797  LYS798  CYS799  TRP800  GLU811  SER814 

> <Gold.Protein.RotatedAtoms>
  150.9970  133.6093  159.2699 H   0  0  0  0  0  0  0  0  0  0  0  0  # atno 6907 bound_to 6896
  151.3293  135.0837  159.9342 H   0  0  0  0  0  0  0  0  0  0  0  0  # atno 6908 bound_to 6896
  152.5263  133.9603  159.7768 H   0  0  0  0  0  0  0  0  0  0  0  0  # atno 6909 bound_to 6896
  144.7131  140.0858  143.6423 H   0  0  0  0  0  0  0  0  0  0  0  0  # atno 7974 bound_to 7965
  155.7920  140.3479  155.5354 H   0  0  0  0  0  0  0  0  0  0  0  0  # atno 8008 bound_to 7997
  155.8624  140.0973  157.1625 H   0  0  0  0  0  0  0  0  0  0  0  0  # atno 8009 bound_to 7997
  154.4012  140.1356  156.3965 H   0  0  0  0  0  0  0  0  0  0  0  0  # atno 8010 bound_to 7997
  140.7287  143.4504  151.0525 H   0  0  0  0  0  0  0  0  0  0  0  0  # atno 10167 bound_to 10162
  156.0125  130.5267  150.6620 H   0  0  0  0  0  0  0  0  0  0  0  0  # atno 10718 bound_to 10713
  153.3675  135.3939  155.1764 H   0  0  0  0  0  0  0  0  0  0  0  0  # atno 10763 bound_to 10752
  154.8689  135.3694  154.5020 H   0  0  0  0  0  0  0  0  0  0  0  0  # atno 10764 bound_to 10752
  153.5484  135.7083  153.5663 H   0  0  0  0  0  0  0  0  0  0  0  0  # atno 10765 bound_to 10752
  140.3691  134.7046  157.4380 H   0  0  0  0  0  0  0  0  0  0  0  0  # atno 11005 bound_to 11000
  145.9663  139.2837  143.1126 LP  0  0  0  0  0  0  0  0  0  0  0  0  # atno 17320 bound_to 7965
  145.9166  140.9144  143.0426 LP  0  0  0  0  0  0  0  0  0  0  0  0  # atno 17321 bound_to 7965
  139.8180  143.7860  152.3175 LP  0  0  0  0  0  0  0  0  0  0  0  0  # atno 17342 bound_to 10162
  139.7932  144.7402  150.9926 LP  0  0  0  0  0  0  0  0  0  0  0  0  # atno 17343 bound_to 10162
  157.4360  131.0855  151.0991 LP  0  0  0  0  0  0  0  0  0  0  0  0  # atno 17370 bound_to 10713
  157.1550  130.6200  149.5593 LP  0  0  0  0  0  0  0  0  0  0  0  0  # atno 17371 bound_to 10713
  140.0566  134.6055  155.8798 LP  0  0  0  0  0  0  0  0  0  0  0  0  # atno 17394 bound_to 11000
  141.1960  133.6590  156.5672 LP  0  0  0  0  0  0  0  0  0  0  0  0  # atno 17395 bound_to 11000

$$$$
