AV-unprocessed.smi:3330|AV-procd|sdf|12816|dock8
  -GOLD-   2272019183D 1   1.00000     0.00000
 Structure written by MMmdl.
 37 38  0  0  0  0  0  0  0  0  2 V2000
  146.7935  133.3364  154.0337 C   0  0  0  0  0  0  0  0  0  0  0  0
  147.5833  132.9274  152.7750 C   0  0  1  0  0  0  0  0  0  0  0  0
  148.4752  131.8225  153.1153 N   0  0  0  0  0  0  0  0  0  0  0  0
  149.4841  132.2129  154.0896 C   0  0  0  0  0  0  0  0  0  0  0  0
  150.0850  130.9568  154.7439 C   0  0  0  0  0  0  0  0  0  0  0  0
  150.9480  131.2926  155.8845 N   0  0  0  0  0  0  0  0  0  0  0  0
  152.1725  130.7932  156.0805 C   0  0  0  0  0  0  0  0  0  0  0  0
  152.7894  129.9990  155.3699 O   0  0  0  0  0  0  0  0  0  0  0  0
  152.7100  131.3917  157.3595 C   0  0  0  0  0  0  0  0  0  0  0  0
  151.6327  132.2627  157.7698 N   0  5  0  0  0  0  0  0  0  0  0  0
  150.6306  132.1598  156.8655 C   0  0  0  0  0  0  0  0  0  0  0  0
  149.5555  132.7584  156.8900 O   0  0  0  0  0  0  0  0  0  0  0  0
  146.6686  132.4773  151.6030 C   0  0  1  0  0  0  0  0  0  0  0  0
  145.9997  131.1129  151.8531 C   0  0  0  0  0  0  0  0  0  0  0  0
  145.6467  133.4760  151.3020 N   0  0  0  0  0  0  0  0  0  0  0  0
  145.8206  134.8200  151.0429 C   0  0  0  0  0  0  0  0  0  0  0  0
  144.5850  135.3579  150.8255 C   0  0  0  0  0  0  0  0  0  0  0  0
  143.7033  134.2516  150.9767 C   0  0  0  0  0  0  0  0  0  0  0  0
  144.3408  133.1265  151.2542 N   0  0  0  0  0  0  0  0  0  0  0  0
  146.1615  134.2032  153.8437 H   0  0  0  0  0  0  0  0  0  0  0  0
  147.4541  133.6103  154.8558 H   0  0  0  0  0  0  0  0  0  0  0  0
  146.1518  132.5258  154.3801 H   0  0  0  0  0  0  0  0  0  0  0  0
  148.1767  133.7770  152.4332 H   0  0  0  0  0  0  0  0  0  0  0  0
  148.9573  131.5381  152.2737 H   0  0  0  0  0  0  0  0  0  0  0  0
  150.2746  132.7977  153.6172 H   0  0  0  0  0  0  0  0  0  0  0  0
  149.0261  132.8440  154.8510 H   0  0  0  0  0  0  0  0  0  0  0  0
  149.2750  130.3149  155.0937 H   0  0  0  0  0  0  0  0  0  0  0  0
  150.6259  130.3610  154.0067 H   0  0  0  0  0  0  0  0  0  0  0  0
  152.9202  130.5996  158.0788 H   0  0  0  0  0  0  0  0  0  0  0  0
  153.6414  131.9224  157.1626 H   0  0  0  0  0  0  0  0  0  0  0  0
  147.2861  132.3787  150.7086 H   0  0  0  0  0  0  0  0  0  0  0  0
  146.7323  130.3085  151.9078 H   0  0  0  0  0  0  0  0  0  0  0  0
  145.3118  130.8620  151.0449 H   0  0  0  0  0  0  0  0  0  0  0  0
  145.4318  131.1119  152.7840 H   0  0  0  0  0  0  0  0  0  0  0  0
  146.7985  135.2784  151.0410 H   0  0  0  0  0  0  0  0  0  0  0  0
  144.3459  136.3867  150.6016 H   0  0  0  0  0  0  0  0  0  0  0  0
  142.6266  134.2332  150.8946 H   0  0  0  0  0  0  0  0  0  0  0  0
  1  2  1  0  0  0  0
  1 20  1  0  0  0  0
  1 21  1  0  0  0  0
  1 22  1  0  0  0  0
  2  3  1  0  0  0  0
  2 13  1  0  0  0  0
  2 23  1  0  0  0  0
  3  4  1  0  0  0  0
  3 24  1  0  0  0  0
  4  5  1  0  0  0  0
  4 25  1  0  0  0  0
  4 26  1  0  0  0  0
  5  6  1  0  0  0  0
  5 27  1  0  0  0  0
  5 28  1  0  0  0  0
  6 11  1  0  0  0  0
  6  7  1  0  0  0  0
  7  8  2  0  0  0  0
  7  9  1  0  0  0  0
  9 10  1  0  0  0  0
  9 29  1  0  0  0  0
  9 30  1  0  0  0  0
 10 11  1  0  0  0  0
 11 12  2  0  0  0  0
 13 14  1  0  0  0  0
 13 15  1  0  0  0  0
 13 31  1  0  0  0  0
 14 32  1  0  0  0  0
 14 33  1  0  0  0  0
 14 34  1  0  0  0  0
 15 19  1  0  0  0  0
 15 16  1  0  0  0  0
 16 17  2  0  0  0  0
 16 35  1  0  0  0  0
 17 18  1  0  0  0  0
 17 36  1  0  0  0  0
 18 19  2  0  0  0  0
 18 37  1  0  0  0  0
M  CHG  1  10  -1
M  END
> <s_m_source_file>
AV-unprocessed.smi

> <i_m_source_file_index>
3330

> <i_lp_mmshare_version>
43012

> <i_f3d_flags>
0

> <s_epik_input>
bjFbY0hdW2NIXVtjSF1uMVtDQEBIXShbQ0gzXSlbQ0BIXShbQ0gzXSlbTkhdW0NIMl1bQ0gyXU4yQyg9TylbQ0gyXVtOSF1DMj1P

> <s_epik_cmdline>
J2VwaWtfcHl0aG9uJywgJy1waCcsICc3LjAnLCAnLXRuJywgJzgnLCAnLW1hJywgJzIwMCcsICctbWV0YWxfYmluZGluZycsICctaW1hZScsICc8aW5maWxlLm1hZT4nLCAnLW9tYWUnLCAnPG91dGZpbGUubWFlPic=

> <r_lp_tautomer_probability>
1

> <r_epik_Ionization_Penalty>
8.77477

> <r_epik_Ionization_Penalty_Charging>
6.28461

> <r_epik_Ionization_Penalty_Neutral>
2.49016

> <r_epik_State_Penalty>
8.73376

> <r_epik_Charging_Adjusted_Penalty>
15.0184

> <i_epik_Tot_Q>
-1

> <i_epik_Tot_abs_Q>
1

> <r_epik_Metal_State_Penalty>
4.73175

> <b_epik_Metal_Only>
1

> <s_lp_Force_Field>
OPLS_2005

> <r_lp_Energy>
23.0712

> <b_lp_Chiralities_Consistent>
1

> <s_lp_Variant>
AV-unprocessed.smi:3330-16

> <Gold.Version>
5.8.1

> <Gold.Id.Protein>
6NUR|6NUR_protein|mol2

> <Gold.PLP.Fitness>
44.4211

> <Gold.PLP.PLP>
-30.1295

> <Gold.PLP.part.hbond>
-2.0000

> <Gold.PLP.part.metal>
0.0000

> <Gold.PLP.part.buried>
-2.8670

> <Gold.PLP.part.nonpolar>
-25.7995

> <Gold.PLP.part.repulsive>
0.1770

> <Gold.PLP.ligand.clash>
0.0000

> <Gold.PLP.ligand.torsion>
0.3986

> <Gold.PLP.Chemscore.Hbond>
3.0000

> <Gold.PLP.Chemscore.CHOScore>
2.0000

> <Gold.PLP.Chemscore.Metal>
0.0000

> <Gold.Chemscore.Hbonds>
donor molecule, donor type, donor heavy atom, donor atom, acceptor molecule, acceptor atom, score
      L1  H     3    24       P1 10747  0.86
      P1  H  6896  6907       L1    10  2.00
      L1  C    16    35       P1  7948  1.00
      L1  C    18    37       P1 10186  1.00

> <Gold.PLP.Chemscore.Internal.Correction>
0.0888

> <Gold.Rescore>
     Score         DG    S(hbond)    S(metal)    S(lipo)     H(rot)  DE(clash)    DE(int)     intcor
     11.12     -11.76       1.78        0.00      57.84       2.52       0.33       0.32       ----

> <Gold.Chemscore.Fitness>
11.1223

> <Gold.Chemscore.DG>
-11.7650

> <Gold.Chemscore.ZeroCoef>
-5.4800

> <Gold.Chemscore.Hbond>
1.7839

> <Gold.Chemscore.Metal>
0.0000

> <Gold.Chemscore.Lipo>
57.8431

> <Gold.Chemscore.Internal_Hbond>
0.0000

> <Gold.Chemscore.DEClash>
0.3268

> <Gold.Chemscore.DEInternal>
0.3159

> <Gold.Chemscore.Rot>
2.5160

> <Gold.Chemscore.Internal.Correction>
   9.000000E+99

> <Gold.Chemscore.Hbonds>
donor molecule, donor type, donor heavy atom, donor atom, acceptor molecule, acceptor atom, score
      L1  H     3    24       P1 10747  0.61
      P1  H  6896  6907       L1    10  0.99

> <Gold.Chemscore.Hbond.Weighted>
-5.9584

> <Gold.Chemscore.Metal.Weighted>
-0.0000

> <Gold.Chemscore.Lipo.Weighted>
-6.7676

> <Gold.Chemscore.Internal_Hbond.Weighted>
0.0000

> <Gold.Chemscore.DEClash.Weighted>
0.3268

> <Gold.Chemscore.DEInternal.Weighted>
0.3159

> <Gold.Chemscore.Rot.Weighted>
6.4410

> <Gold.Chemscore.Internal.Correction.Weighted>
   9.000000E+99

> <Gold.Protein.RotatedTorsions>
[ 6907 6896 6895 6894 ] final -170.95 input  -60.11 | X-H torsion
[ 7974 7965 7964 7962 ] final -149.86 input  175.53 | X-H torsion
[ 8008 7997 7996 7995 ] final -142.76 input   59.86 | X-H torsion
[ 10167 10162 10161 10158 ] final  140.98 input  -65.29 | X-H torsion
[ 10718 10713 10712 10709 ] final   58.22 input   66.30 | X-H torsion
[ 10763 10752 10751 10750 ] final   97.18 input  -60.55 | X-H torsion
[ 11005 11000 10999 10996 ] final  -37.50 input  -57.11 | X-H torsion

> <Gold.Protein.ActiveResidues>
 VAL166  LYS551  ARG553  GLY616  TRP617  ASP618  TYR619  PRO620  LYS621  CYS622 
 ASP623  PHE694  ASN695  SER759  ASP760  ASP761  ALA762  ILE779  LEU786  VAL792 
 PHE793  MET794  SER795  GLU796  ALA797  LYS798  CYS799  TRP800  GLU811  SER814 

> <Gold.Protein.RotatedAtoms>
  151.5160  133.3475  159.2892 H   0  0  0  0  0  0  0  0  0  0  0  0  # atno 6907 bound_to 6896
  150.8682  134.8052  159.7146 H   0  0  0  0  0  0  0  0  0  0  0  0  # atno 6908 bound_to 6896
  152.4679  134.5040  159.9785 H   0  0  0  0  0  0  0  0  0  0  0  0  # atno 6909 bound_to 6896
  144.7942  140.5008  143.5752 H   0  0  0  0  0  0  0  0  0  0  0  0  # atno 7974 bound_to 7965
  155.4995  140.0574  157.2941 H   0  0  0  0  0  0  0  0  0  0  0  0  # atno 8008 bound_to 7997
  154.4592  140.1988  156.0242 H   0  0  0  0  0  0  0  0  0  0  0  0  # atno 8009 bound_to 7997
  156.0858  140.3240  155.7756 H   0  0  0  0  0  0  0  0  0  0  0  0  # atno 8010 bound_to 7997
  139.5033  144.6200  151.6073 H   0  0  0  0  0  0  0  0  0  0  0  0  # atno 10167 bound_to 10162
  157.5579  130.8813  149.9064 H   0  0  0  0  0  0  0  0  0  0  0  0  # atno 10718 bound_to 10713
  153.2738  135.4192  155.1013 H   0  0  0  0  0  0  0  0  0  0  0  0  # atno 10763 bound_to 10752
  154.8465  135.3478  154.6207 H   0  0  0  0  0  0  0  0  0  0  0  0  # atno 10764 bound_to 10752
  153.6627  135.7047  153.5229 H   0  0  0  0  0  0  0  0  0  0  0  0  # atno 10765 bound_to 10752
  140.9956  133.6982  156.1929 H   0  0  0  0  0  0  0  0  0  0  0  0  # atno 11005 bound_to 11000
  145.5716  139.1484  143.3285 LP  0  0  0  0  0  0  0  0  0  0  0  0  # atno 17320 bound_to 7965
  146.2204  140.5849  142.9019 LP  0  0  0  0  0  0  0  0  0  0  0  0  # atno 17321 bound_to 7965
  140.5899  143.9798  150.6318 LP  0  0  0  0  0  0  0  0  0  0  0  0  # atno 17342 bound_to 10162
  140.2975  143.3283  152.1004 LP  0  0  0  0  0  0  0  0  0  0  0  0  # atno 17343 bound_to 10162
  156.0635  130.3696  150.0930 LP  0  0  0  0  0  0  0  0  0  0  0  0  # atno 17370 bound_to 10713
  156.9097  130.9647  151.3565 LP  0  0  0  0  0  0  0  0  0  0  0  0  # atno 17371 bound_to 10713
  140.6971  134.4604  157.5587 LP  0  0  0  0  0  0  0  0  0  0  0  0  # atno 17394 bound_to 11000
  139.9013  134.8549  156.1884 LP  0  0  0  0  0  0  0  0  0  0  0  0  # atno 17395 bound_to 11000

$$$$
