AV-unprocessed.smi:242|AV-procd|sdf|1844|dock10
  -GOLD-   2262020463D 1   1.00000     0.00000
 Structure written by MMmdl.
 58 61  0  0  0  0  0  0  0  0  2 V2000
  145.3356  143.0942  154.5100 C   0  0  0  0  0  0  0  0  0  0  0  0
  145.9765  142.4770  155.7685 C   0  0  0  0  0  0  0  0  0  0  0  0
  145.6006  143.3256  156.9988 C   0  0  0  0  0  0  0  0  0  0  0  0
  147.4559  142.3540  155.6339 N   0  3  2  0  0  0  0  0  0  0  0  0
  147.9390  141.7205  154.3816 C   0  0  0  0  0  0  0  0  0  0  0  0
  149.2939  141.1048  154.7228 C   0  0  0  0  0  0  0  0  0  0  0  0
  149.0375  140.5940  156.1366 C   0  0  1  0  0  0  0  0  0  0  0  0
  150.2351  140.2633  156.9172 N   0  0  0  0  0  0  0  0  0  0  0  0
  151.5366  140.8112  156.5429 C   0  0  0  0  0  0  0  0  0  0  0  0
  150.2565  139.1204  157.6549 C   0  0  0  0  0  0  0  0  0  0  0  0
  151.4431  138.5028  157.9007 N   0  0  0  0  0  0  0  0  0  0  0  0
  151.4884  137.3822  158.6264 C   0  0  0  0  0  0  0  0  0  0  0  0
  150.4817  136.7131  159.1897 N   0  0  0  0  0  0  0  0  0  0  0  0
  149.2859  137.3209  158.9456 C   0  0  0  0  0  0  0  0  0  0  0  0
  149.0843  138.5146  158.1952 C   0  0  0  0  0  0  0  0  0  0  0  0
  147.7272  138.8138  158.1462 N   0  0  0  0  0  0  0  0  0  0  0  0
  147.1618  137.8562  158.8281 C   0  0  0  0  0  0  0  0  0  0  0  0
  148.0248  136.9213  159.3525 N   0  0  0  0  0  0  0  0  0  0  0  0
  147.6678  135.7515  160.1405 C   0  0  0  0  0  0  0  0  0  0  0  0
  147.3383  136.0572  161.6275 C   0  0  0  0  0  0  0  0  0  0  0  0
  148.3858  136.8569  162.1427 O   0  0  0  0  0  0  0  0  0  0  0  0
  146.0188  136.8294  161.8400 C   0  0  0  0  0  0  0  0  0  0  0  0
  144.7984  135.9305  161.5778 C   0  0  0  0  0  0  0  0  0  0  0  0
  144.8504  134.7882  162.4260 O   0  0  0  0  0  0  0  0  0  0  0  0
  145.9928  133.9697  162.1977 C   0  0  0  0  0  0  0  0  0  0  0  0
  147.2815  134.7679  162.4704 C   0  0  0  0  0  0  0  0  0  0  0  0
  148.1418  141.6719  156.7627 C   0  0  0  0  0  0  0  0  0  0  0  0
  144.2601  143.2174  154.6415 H   0  0  0  0  0  0  0  0  0  0  0  0
  145.4723  142.4681  153.6283 H   0  0  0  0  0  0  0  0  0  0  0  0
  145.7551  144.0770  154.2914 H   0  0  0  0  0  0  0  0  0  0  0  0
  145.5646  141.4753  155.9005 H   0  0  0  0  0  0  0  0  0  0  0  0
  144.5185  143.4306  157.0840 H   0  0  0  0  0  0  0  0  0  0  0  0
  146.0232  144.3286  156.9313 H   0  0  0  0  0  0  0  0  0  0  0  0
  145.9476  142.8827  157.9318 H   0  0  0  0  0  0  0  0  0  0  0  0
  147.2529  140.9265  154.0805 H   0  0  0  0  0  0  0  0  0  0  0  0
  148.0055  142.4391  153.5642 H   0  0  0  0  0  0  0  0  0  0  0  0
  149.5861  140.3154  154.0299 H   0  0  0  0  0  0  0  0  0  0  0  0
  150.0678  141.8728  154.7109 H   0  0  0  0  0  0  0  0  0  0  0  0
  148.4146  139.7013  156.0563 H   0  0  0  0  0  0  0  0  0  0  0  0
  152.2882  140.0255  156.4535 H   0  0  0  0  0  0  0  0  0  0  0  0
  151.8735  141.5254  157.2944 H   0  0  0  0  0  0  0  0  0  0  0  0
  151.4947  141.3304  155.5859 H   0  0  0  0  0  0  0  0  0  0  0  0
  152.4712  136.9604  158.7766 H   0  0  0  0  0  0  0  0  0  0  0  0
  146.0922  137.8071  158.9709 H   0  0  0  0  0  0  0  0  0  0  0  0
  146.8241  135.2702  159.6470 H   0  0  0  0  0  0  0  0  0  0  0  0
  148.4910  135.0380  160.0794 H   0  0  0  0  0  0  0  0  0  0  0  0
  148.4462  136.7110  163.0743 H   0  0  0  0  0  0  0  0  0  0  0  0
  145.9647  137.1800  162.8718 H   0  0  0  0  0  0  0  0  0  0  0  0
  145.9748  137.7260  161.2224 H   0  0  0  0  0  0  0  0  0  0  0  0
  143.8804  136.4788  161.7885 H   0  0  0  0  0  0  0  0  0  0  0  0
  144.7476  135.6226  160.5329 H   0  0  0  0  0  0  0  0  0  0  0  0
  145.9426  133.1089  162.8643 H   0  0  0  0  0  0  0  0  0  0  0  0
  145.9741  133.5766  161.1807 H   0  0  0  0  0  0  0  0  0  0  0  0
  148.1578  134.1460  162.2836 H   0  0  0  0  0  0  0  0  0  0  0  0
  147.3075  135.0209  163.5315 H   0  0  0  0  0  0  0  0  0  0  0  0
  148.7116  142.4246  157.3071 H   0  0  0  0  0  0  0  0  0  0  0  0
  147.4495  141.2118  157.4687 H   0  0  0  0  0  0  0  0  0  0  0  0
  147.8227  143.2950  155.6220 H   0  0  0  0  0  0  0  0  0  0  0  0
  1  2  1  0  0  0  0
  1 28  1  0  0  0  0
  1 29  1  0  0  0  0
  1 30  1  0  0  0  0
  2  3  1  0  0  0  0
  2  4  1  0  0  0  0
  2 31  1  0  0  0  0
  3 32  1  0  0  0  0
  3 33  1  0  0  0  0
  3 34  1  0  0  0  0
  4 27  1  0  0  0  0
  4  5  1  0  0  0  0
  4 58  1  0  0  0  0
  5  6  1  0  0  0  0
  5 35  1  0  0  0  0
  5 36  1  0  0  0  0
  6  7  1  0  0  0  0
  6 37  1  0  0  0  0
  6 38  1  0  0  0  0
  7  8  1  0  0  0  0
  7 27  1  0  0  0  0
  7 39  1  0  0  0  0
  8  9  1  0  0  0  0
  8 10  1  0  0  0  0
  9 40  1  0  0  0  0
  9 41  1  0  0  0  0
  9 42  1  0  0  0  0
 10 15  1  0  0  0  0
 10 11  2  0  0  0  0
 11 12  1  0  0  0  0
 12 13  2  0  0  0  0
 12 43  1  0  0  0  0
 13 14  1  0  0  0  0
 14 18  1  0  0  0  0
 14 15  2  0  0  0  0
 15 16  1  0  0  0  0
 16 17  2  0  0  0  0
 17 18  1  0  0  0  0
 17 44  1  0  0  0  0
 18 19  1  0  0  0  0
 19 20  1  0  0  0  0
 19 45  1  0  0  0  0
 19 46  1  0  0  0  0
 20 26  1  0  0  0  0
 20 21  1  0  0  0  0
 20 22  1  0  0  0  0
 21 47  1  0  0  0  0
 22 23  1  0  0  0  0
 22 48  1  0  0  0  0
 22 49  1  0  0  0  0
 23 24  1  0  0  0  0
 23 50  1  0  0  0  0
 23 51  1  0  0  0  0
 24 25  1  0  0  0  0
 25 26  1  0  0  0  0
 25 52  1  0  0  0  0
 25 53  1  0  0  0  0
 26 54  1  0  0  0  0
 26 55  1  0  0  0  0
 27 56  1  0  0  0  0
 27 57  1  0  0  0  0
M  CHG  1   4   1
M  END
> <s_m_source_file>
AV-unprocessed.smi

> <i_m_source_file_index>
242

> <i_lp_mmshare_version>
43012

> <i_f3d_flags>
0

> <s_epik_input>
W0NIM11bQ0hdKFtDSDNdKU4xW0NIMl1bQ0gyXVtDQEhdKFtDSDJdMSlOKFtDSDNdKWMobltjSF1uMiljKGMyMyluW2NIXW4zW0NIMl1DNChbT0hdKVtDSDJdW0NIMl1PW0NIMl1bQ0gyXTQ=

> <s_epik_cmdline>
J2VwaWtfcHl0aG9uJywgJy1waCcsICc3LjAnLCAnLXRuJywgJzgnLCAnLW1hJywgJzIwMCcsICctbWV0YWxfYmluZGluZycsICctaW1hZScsICc8aW5maWxlLm1hZT4nLCAnLW9tYWUnLCAnPG91dGZpbGUubWFlPic=

> <r_lp_tautomer_probability>
1

> <r_epik_Ionization_Penalty>
0.000825961

> <r_epik_Ionization_Penalty_Charging>
0.00034898

> <r_epik_Ionization_Penalty_Neutral>
0.000476981

> <r_epik_State_Penalty>
-0

> <r_epik_Charging_Adjusted_Penalty>
0.00034898

> <i_epik_Tot_Q>
1

> <i_epik_Tot_abs_Q>
1

> <r_epik_Metal_State_Penalty>
-0

> <b_epik_Metal_Only>
0

> <s_lp_Force_Field>
OPLS_2005

> <r_lp_Energy>
46.8911

> <b_lp_Chiralities_Consistent>
1

> <s_lp_Variant>
AV-unprocessed.smi:242-1

> <Gold.Version>
5.8.1

> <Gold.Id.Protein>
6NUR|6NUR_protein|mol2

> <Gold.PLP.Fitness>
53.7209

> <Gold.PLP.PLP>
-43.0871

> <Gold.PLP.part.hbond>
-3.7545

> <Gold.PLP.part.metal>
0.0000

> <Gold.PLP.part.buried>
-6.8214

> <Gold.PLP.part.nonpolar>
-33.1494

> <Gold.PLP.part.repulsive>
0.0858

> <Gold.PLP.ligand.clash>
0.0000

> <Gold.PLP.ligand.torsion>
1.0494

> <Gold.PLP.Chemscore.Hbond>
4.0000

> <Gold.PLP.Chemscore.CHOScore>
0.0000

> <Gold.PLP.Chemscore.Metal>
0.0000

> <Gold.Chemscore.Hbonds>
donor molecule, donor type, donor heavy atom, donor atom, acceptor molecule, acceptor atom, score
      L1  H     4    58       P1  8028  2.00
      P1  H  6896  6908       L1    13  1.00
      P1  H  6931  6943       L1    21  1.00

> <Gold.PLP.Chemscore.Internal.Correction>
0.7326

> <Gold.Rescore>
     Score         DG    S(hbond)    S(metal)    S(lipo)     H(rot)  DE(clash)    DE(int)     intcor
     16.90     -19.09       2.75        0.00      86.42       2.22       0.09       2.10       ----

> <Gold.Chemscore.Fitness>
16.8998

> <Gold.Chemscore.DG>
-19.0892

> <Gold.Chemscore.ZeroCoef>
-5.4800

> <Gold.Chemscore.Hbond>
2.7515

> <Gold.Chemscore.Metal>
0.0000

> <Gold.Chemscore.Lipo>
86.4198

> <Gold.Chemscore.Internal_Hbond>
0.0000

> <Gold.Chemscore.DEClash>
0.0917

> <Gold.Chemscore.DEInternal>
2.0977

> <Gold.Chemscore.Rot>
2.2234

> <Gold.Chemscore.Internal.Correction>
   9.000000E+99

> <Gold.Chemscore.Hbonds>
donor molecule, donor type, donor heavy atom, donor atom, acceptor molecule, acceptor atom, score
      L1  H     4    58       P1  8028  0.35
      P1  H  6896  6908       L1    13  0.89
      P1  H  6931  6943       L1    21  0.42

> <Gold.Chemscore.Hbond.Weighted>
-9.1900

> <Gold.Chemscore.Metal.Weighted>
-0.0000

> <Gold.Chemscore.Lipo.Weighted>
-10.1111

> <Gold.Chemscore.Internal_Hbond.Weighted>
0.0000

> <Gold.Chemscore.DEClash.Weighted>
0.0917

> <Gold.Chemscore.DEInternal.Weighted>
2.0977

> <Gold.Chemscore.Rot.Weighted>
5.6919

> <Gold.Chemscore.Internal.Correction.Weighted>
   9.000000E+99

> <Gold.Protein.RotatedTorsions>
[ 6907 6896 6895 6894 ] final -165.28 input  -60.11 | X-H torsion
[ 7974 7965 7964 7962 ] final  -50.35 input  175.53 | X-H torsion
[ 8008 7997 7996 7995 ] final -104.24 input   59.86 | X-H torsion
[ 10167 10162 10161 10158 ] final   93.90 input  -65.29 | X-H torsion
[ 10718 10713 10712 10709 ] final -105.13 input   66.30 | X-H torsion
[ 10763 10752 10751 10750 ] final -170.44 input  -60.55 | X-H torsion
[ 11005 11000 10999 10996 ] final  136.07 input  -57.11 | X-H torsion

> <Gold.Protein.ActiveResidues>
 VAL166  LYS551  ARG553  GLY616  TRP617  ASP618  TYR619  PRO620  LYS621  CYS622 
 ASP623  PHE694  ASN695  SER759  ASP760  ASP761  ALA762  ILE779  LEU786  VAL792 
 PHE793  MET794  SER795  GLU796  ALA797  LYS798  CYS799  TRP800  GLU811  SER814 

> <Gold.Protein.RotatedAtoms>
  151.4252  133.3686  159.2761 H   0  0  0  0  0  0  0  0  0  0  0  0  # atno 6907 bound_to 6896
  150.9265  134.8683  159.7534 H   0  0  0  0  0  0  0  0  0  0  0  0  # atno 6908 bound_to 6896
  152.5007  134.4193  159.9527 H   0  0  0  0  0  0  0  0  0  0  0  0  # atno 6909 bound_to 6896
  145.9307  140.7751  142.9601 H   0  0  0  0  0  0  0  0  0  0  0  0  # atno 7974 bound_to 7965
  154.8825  140.0419  157.1790 H   0  0  0  0  0  0  0  0  0  0  0  0  # atno 8008 bound_to 7997
  154.8625  140.2946  155.5510 H   0  0  0  0  0  0  0  0  0  0  0  0  # atno 8009 bound_to 7997
  156.2998  140.2444  156.3601 H   0  0  0  0  0  0  0  0  0  0  0  0  # atno 8010 bound_to 7997
  139.8135  144.6763  150.9610 H   0  0  0  0  0  0  0  0  0  0  0  0  # atno 10167 bound_to 10162
  156.0333  130.5549  150.7496 H   0  0  0  0  0  0  0  0  0  0  0  0  # atno 10718 bound_to 10713
  154.6415  135.2899  155.0098 H   0  0  0  0  0  0  0  0  0  0  0  0  # atno 10763 bound_to 10752
  154.1223  135.6546  153.4909 H   0  0  0  0  0  0  0  0  0  0  0  0  # atno 10764 bound_to 10752
  153.0329  135.5290  154.7284 H   0  0  0  0  0  0  0  0  0  0  0  0  # atno 10765 bound_to 10752
  140.0022  134.9474  157.0096 H   0  0  0  0  0  0  0  0  0  0  0  0  # atno 11005 bound_to 11000
  144.6764  140.2123  143.7375 LP  0  0  0  0  0  0  0  0  0  0  0  0  # atno 17320 bound_to 7965
  145.8429  139.2138  143.1817 LP  0  0  0  0  0  0  0  0  0  0  0  0  # atno 17321 bound_to 7965
  140.7817  143.4162  151.0914 LP  0  0  0  0  0  0  0  0  0  0  0  0  # atno 17342 bound_to 10162
  139.7827  143.8332  152.3140 LP  0  0  0  0  0  0  0  0  0  0  0  0  # atno 17343 bound_to 10162
  157.5044  131.0921  151.0275 LP  0  0  0  0  0  0  0  0  0  0  0  0  # atno 17370 bound_to 10713
  157.0648  130.5840  149.5392 LP  0  0  0  0  0  0  0  0  0  0  0  0  # atno 17371 bound_to 10713
  140.4708  134.1389  155.7203 LP  0  0  0  0  0  0  0  0  0  0  0  0  # atno 17394 bound_to 11000
  141.1650  133.8720  157.1740 LP  0  0  0  0  0  0  0  0  0  0  0  0  # atno 17395 bound_to 11000

$$$$
