AV-unprocessed.smi:2365|AV-procd|sdf|9421|dock7
  -GOLD-   2272013 53D 1   1.00000     0.00000
 Structure written by MMmdl.
 29 30  0  0  0  0  0  0  0  0  1 V2000
  151.5350  144.1201  161.0337 C   0  0  0  0  0  0  0  0  0  0  0  0
  152.4575  142.8976  160.9923 C   0  0  2  0  0  0  0  0  0  0  0  0
  153.7169  143.0942  160.1562 C   0  0  0  0  0  0  0  0  0  0  0  0
  154.1324  141.6623  159.8848 C   0  0  0  0  0  0  0  0  0  0  0  0
  152.7963  140.8977  159.8559 C   0  0  2  0  0  0  0  0  0  0  0  0
  152.3655  140.4462  158.4552 C   0  0  0  0  0  0  0  0  0  0  0  0
  152.9888  139.5539  157.8800 O   0  0  0  0  0  0  0  0  0  0  0  0
  151.2937  141.0787  157.9444 N   0  0  0  0  0  0  0  0  0  0  0  0
  150.6653  140.8789  156.6836 C   0  0  0  0  0  0  0  0  0  0  0  0
  151.2773  140.1851  155.6101 C   0  0  0  0  0  0  0  0  0  0  0  0
  150.6934  140.0111  154.4055 N   0  0  0  0  0  0  0  0  0  0  0  0
  149.4643  140.5332  154.2159 C   0  0  0  0  0  0  0  0  0  0  0  0
  148.7690  141.2552  155.2052 C   0  0  0  0  0  0  0  0  0  0  0  0
  147.2009  141.8964  154.8642 Cl  0  0  0  0  0  0  0  0  0  0  0  0
  149.3843  141.4366  156.4630 C   0  0  0  0  0  0  0  0  0  0  0  0
  148.5774  142.3217  157.7135 Cl  0  0  0  0  0  0  0  0  0  0  0  0
  151.8140  141.8080  160.3481 O   0  0  0  0  0  0  0  0  0  0  0  0
  152.0328  144.9706  161.5002 H   0  0  0  0  0  0  0  0  0  0  0  0
  150.6326  143.9061  161.6068 H   0  0  0  0  0  0  0  0  0  0  0  0
  151.2293  144.4185  160.0305 H   0  0  0  0  0  0  0  0  0  0  0  0
  152.7278  142.5939  162.0053 H   0  0  0  0  0  0  0  0  0  0  0  0
  153.4779  143.5966  159.2177 H   0  0  0  0  0  0  0  0  0  0  0  0
  154.4858  143.6723  160.6693 H   0  0  0  0  0  0  0  0  0  0  0  0
  154.7203  141.5714  158.9702 H   0  0  0  0  0  0  0  0  0  0  0  0
  154.7489  141.2921  160.7048 H   0  0  0  0  0  0  0  0  0  0  0  0
  152.8527  140.0388  160.5270 H   0  0  0  0  0  0  0  0  0  0  0  0
  150.8295  141.7284  158.5628 H   0  0  0  0  0  0  0  0  0  0  0  0
  152.2703  139.7707  155.6919 H   0  0  0  0  0  0  0  0  0  0  0  0
  149.0245  140.3753  153.2421 H   0  0  0  0  0  0  0  0  0  0  0  0
  1  2  1  0  0  0  0
  1 18  1  0  0  0  0
  1 19  1  0  0  0  0
  1 20  1  0  0  0  0
  2 17  1  0  0  0  0
  2  3  1  0  0  0  0
  2 21  1  0  0  0  0
  3  4  1  0  0  0  0
  3 22  1  0  0  0  0
  3 23  1  0  0  0  0
  4  5  1  0  0  0  0
  4 24  1  0  0  0  0
  4 25  1  0  0  0  0
  5  6  1  0  0  0  0
  5 17  1  0  0  0  0
  5 26  1  0  0  0  0
  6  7  2  0  0  0  0
  6  8  1  0  0  0  0
  8  9  1  0  0  0  0
  8 27  1  0  0  0  0
  9 15  1  0  0  0  0
  9 10  2  0  0  0  0
 10 11  1  0  0  0  0
 10 28  1  0  0  0  0
 11 12  2  0  0  0  0
 12 13  1  0  0  0  0
 12 29  1  0  0  0  0
 13 14  1  0  0  0  0
 13 15  2  0  0  0  0
 15 16  1  0  0  0  0
M  END
> <s_m_source_file>
AV-unprocessed.smi

> <i_m_source_file_index>
2365

> <i_lp_mmshare_version>
43012

> <i_f3d_flags>
0

> <s_epik_input>
W0NIM11bQ0BASF0xW0NIMl1bQ0gyXVtDQEhdKE8xKUMoPU8pW05IXWMyW2NIXW5bY0hdYyhDbCljMkNs

> <s_epik_cmdline>
J2VwaWtfcHl0aG9uJywgJy1waCcsICc3LjAnLCAnLXRuJywgJzgnLCAnLW1hJywgJzIwMCcsICctbWV0YWxfYmluZGluZycsICctaW1hZScsICc8aW5maWxlLm1hZT4nLCAnLW9tYWUnLCAnPG91dGZpbGUubWFlPic=

> <r_lp_tautomer_probability>
1

> <r_epik_Ionization_Penalty>
7.32461e-06

> <r_epik_Ionization_Penalty_Charging>
0

> <r_epik_Ionization_Penalty_Neutral>
7.32461e-06

> <r_epik_State_Penalty>
-0

> <r_epik_Charging_Adjusted_Penalty>
0

> <i_epik_Tot_Q>
0

> <i_epik_Tot_abs_Q>
0

> <r_epik_Metal_State_Penalty>
-0

> <b_epik_Metal_Only>
0

> <s_lp_Force_Field>
OPLS_2005

> <r_lp_Energy>
23.8837

> <b_lp_Chiralities_Consistent>
1

> <s_lp_Variant>
AV-unprocessed.smi:2365-3

> <Gold.Version>
5.8.1

> <Gold.Id.Protein>
6NUR|6NUR_protein|mol2

> <Gold.PLP.Fitness>
40.4869

> <Gold.PLP.PLP>
-31.8488

> <Gold.PLP.part.hbond>
-3.0000

> <Gold.PLP.part.metal>
0.0000

> <Gold.PLP.part.buried>
-1.8579

> <Gold.PLP.part.nonpolar>
-25.4067

> <Gold.PLP.part.repulsive>
0.1991

> <Gold.PLP.ligand.clash>
0.0000

> <Gold.PLP.ligand.torsion>
0.1848

> <Gold.PLP.Chemscore.Hbond>
2.0000

> <Gold.PLP.Chemscore.CHOScore>
1.0000

> <Gold.PLP.Chemscore.Metal>
0.0000

> <Gold.Chemscore.Hbonds>
donor molecule, donor type, donor heavy atom, donor atom, acceptor molecule, acceptor atom, score
      P1  H  7989  7998       L1    11  1.00
      P1  H  7997  8010       L1     7  1.00
      L1  C    12    29       P1  7957  1.00

> <Gold.PLP.Chemscore.Internal.Correction>
0.0077

> <Gold.Rescore>
     Score         DG    S(hbond)    S(metal)    S(lipo)     H(rot)  DE(clash)    DE(int)     intcor
     15.94     -17.36       1.08        0.00      92.50       1.00       0.03       1.39       ----

> <Gold.Chemscore.Fitness>
15.9379

> <Gold.Chemscore.DG>
-17.3599

> <Gold.Chemscore.ZeroCoef>
-5.4800

> <Gold.Chemscore.Hbond>
1.0831

> <Gold.Chemscore.Metal>
0.0000

> <Gold.Chemscore.Lipo>
92.4977

> <Gold.Chemscore.Internal_Hbond>
0.0000

> <Gold.Chemscore.DEClash>
0.0313

> <Gold.Chemscore.DEInternal>
1.3908

> <Gold.Chemscore.Rot>
1.0000

> <Gold.Chemscore.Internal.Correction>
   9.000000E+99

> <Gold.Chemscore.Hbonds>
donor molecule, donor type, donor heavy atom, donor atom, acceptor molecule, acceptor atom, score
      P1  H  7989  7998       L1    11  0.13
      P1  H  7997  8010       L1     7  0.94

> <Gold.Chemscore.Hbond.Weighted>
-3.6177

> <Gold.Chemscore.Metal.Weighted>
-0.0000

> <Gold.Chemscore.Lipo.Weighted>
-10.8222

> <Gold.Chemscore.Internal_Hbond.Weighted>
0.0000

> <Gold.Chemscore.DEClash.Weighted>
0.0313

> <Gold.Chemscore.DEInternal.Weighted>
1.3908

> <Gold.Chemscore.Rot.Weighted>
2.5600

> <Gold.Chemscore.Internal.Correction.Weighted>
   9.000000E+99

> <Gold.Protein.RotatedTorsions>
[ 6907 6896 6895 6894 ] final   80.37 input  -60.11 | X-H torsion
[ 7974 7965 7964 7962 ] final   77.38 input  175.53 | X-H torsion
[ 8008 7997 7996 7995 ] final   40.65 input   59.86 | X-H torsion
[ 10167 10162 10161 10158 ] final  161.20 input  -65.29 | X-H torsion
[ 10718 10713 10712 10709 ] final  -35.77 input   66.30 | X-H torsion
[ 10763 10752 10751 10750 ] final  152.90 input  -60.55 | X-H torsion
[ 11005 11000 10999 10996 ] final  132.38 input  -57.11 | X-H torsion

> <Gold.Protein.ActiveResidues>
 VAL166  LYS551  ARG553  GLY616  TRP617  ASP618  TYR619  PRO620  LYS621  CYS622 
 ASP623  PHE694  ASN695  SER759  ASP760  ASP761  ALA762  ILE779  LEU786  VAL792 
 PHE793  MET794  SER795  GLU796  ALA797  LYS798  CYS799  TRP800  GLU811  SER814 

> <Gold.Protein.RotatedAtoms>
  152.5232  134.3367  159.9202 H   0  0  0  0  0  0  0  0  0  0  0  0  # atno 6907 bound_to 6896
  151.3317  133.3992  159.2671 H   0  0  0  0  0  0  0  0  0  0  0  0  # atno 6908 bound_to 6896
  150.9875  134.9235  159.7938 H   0  0  0  0  0  0  0  0  0  0  0  0  # atno 6909 bound_to 6896
  145.6907  139.2551  143.1761 H   0  0  0  0  0  0  0  0  0  0  0  0  # atno 7974 bound_to 7965
  155.2566  140.3356  155.4277 H   0  0  0  0  0  0  0  0  0  0  0  0  # atno 8008 bound_to 7997
  156.2193  140.1802  156.7559 H   0  0  0  0  0  0  0  0  0  0  0  0  # atno 8009 bound_to 7997
  154.5800  140.0655  156.9075 H   0  0  0  0  0  0  0  0  0  0  0  0  # atno 8010 bound_to 7997
  139.4847  144.4559  151.8768 H   0  0  0  0  0  0  0  0  0  0  0  0  # atno 10167 bound_to 10162
  156.3347  130.4284  149.7840 H   0  0  0  0  0  0  0  0  0  0  0  0  # atno 10718 bound_to 10713
  154.1275  135.2829  155.3193 H   0  0  0  0  0  0  0  0  0  0  0  0  # atno 10763 bound_to 10752
  154.6379  135.5412  153.7759 H   0  0  0  0  0  0  0  0  0  0  0  0  # atno 10764 bound_to 10752
  153.0292  135.6479  154.1426 H   0  0  0  0  0  0  0  0  0  0  0  0  # atno 10765 bound_to 10752
  139.9786  134.9555  156.9573 H   0  0  0  0  0  0  0  0  0  0  0  0  # atno 11005 bound_to 11000
  146.0884  140.7684  142.9607 LP  0  0  0  0  0  0  0  0  0  0  0  0  # atno 17320 bound_to 7965
  144.6997  140.3598  143.7166 LP  0  0  0  0  0  0  0  0  0  0  0  0  # atno 17321 bound_to 7965
  140.4019  144.2482  150.5892 LP  0  0  0  0  0  0  0  0  0  0  0  0  # atno 17342 bound_to 10162
  140.5049  143.2307  151.8623 LP  0  0  0  0  0  0  0  0  0  0  0  0  # atno 17343 bound_to 10162
  156.5099  130.8167  151.3165 LP  0  0  0  0  0  0  0  0  0  0  0  0  # atno 17370 bound_to 10713
  157.7436  130.9917  150.2610 LP  0  0  0  0  0  0  0  0  0  0  0  0  # atno 17371 bound_to 10713
  140.5142  134.0971  155.7277 LP  0  0  0  0  0  0  0  0  0  0  0  0  # atno 17394 bound_to 11000
  141.1461  133.9053  157.2212 LP  0  0  0  0  0  0  0  0  0  0  0  0  # atno 17395 bound_to 11000

$$$$
