AV-unprocessed.smi:2090|AV-procd|sdf|8533|dock5
  -GOLD-   2272011253D 1   1.00000     0.00000
 Structure written by MMmdl.
 42 43  0  0  0  0  0  0  0  0  2 V2000
  152.7718  138.3406  158.5682 C   0  0  0  0  0  0  0  0  0  0  0  0
  152.2697  138.6475  157.1990 C   0  0  0  0  0  0  0  0  0  0  0  0
  151.0521  138.4934  156.5978 C   0  0  0  0  0  0  0  0  0  0  0  0
  151.2771  138.9941  155.2879 C   0  0  0  0  0  0  0  0  0  0  0  0
  150.2342  139.0158  154.3269 N   0  0  0  0  0  0  0  0  0  0  0  0
  148.9596  138.6248  154.4958 C   0  0  0  0  0  0  0  0  0  0  0  0
  148.4826  138.1898  155.5446 O   0  0  0  0  0  0  0  0  0  0  0  0
  148.2505  138.7600  153.3656 N   0  0  0  0  0  0  0  0  0  0  0  0
  146.8398  138.4169  153.2245 C   0  0  0  0  0  0  0  0  0  0  0  0
  146.5080  137.0873  153.9298 C   0  0  0  0  0  0  0  0  0  0  0  0
  146.5726  135.9239  153.0097 N   0  3  2  0  0  0  0  0  0  0  0  0
  145.6512  136.0745  151.8539 C   0  0  0  0  0  0  0  0  0  0  0  0
  145.8333  134.9306  150.8405 C   0  0  0  0  0  0  0  0  0  0  0  0
  145.6589  133.5456  151.4891 C   0  0  2  0  0  0  0  0  0  0  0  0
  144.1894  133.2170  151.8060 C   0  0  0  0  0  0  0  0  0  0  0  0
  146.5729  133.4415  152.7235 C   0  0  0  0  0  0  0  0  0  0  0  0
  146.3789  134.6191  153.6963 C   0  0  0  0  0  0  0  0  0  0  0  0
  152.5194  139.4147  155.1056 N   0  0  0  0  0  0  0  0  0  0  0  0
  153.1622  139.1936  156.3292 O   0  0  0  0  0  0  0  0  0  0  0  0
  151.9574  138.0261  159.2209 H   0  0  0  0  0  0  0  0  0  0  0  0
  153.2417  139.2177  159.0134 H   0  0  0  0  0  0  0  0  0  0  0  0
  153.5099  137.5390  158.5379 H   0  0  0  0  0  0  0  0  0  0  0  0
  150.1485  138.0891  157.0295 H   0  0  0  0  0  0  0  0  0  0  0  0
  150.4897  139.3572  153.4121 H   0  0  0  0  0  0  0  0  0  0  0  0
  148.7171  139.1283  152.5492 H   0  0  0  0  0  0  0  0  0  0  0  0
  146.2204  139.2247  153.6185 H   0  0  0  0  0  0  0  0  0  0  0  0
  146.6288  138.3555  152.1575 H   0  0  0  0  0  0  0  0  0  0  0  0
  147.1695  136.9235  154.7819 H   0  0  0  0  0  0  0  0  0  0  0  0
  145.4981  137.1574  154.3360 H   0  0  0  0  0  0  0  0  0  0  0  0
  144.6206  136.1131  152.2089 H   0  0  0  0  0  0  0  0  0  0  0  0
  145.8442  137.0232  151.3513 H   0  0  0  0  0  0  0  0  0  0  0  0
  145.1359  135.0507  150.0105 H   0  0  0  0  0  0  0  0  0  0  0  0
  146.8319  134.9989  150.4072 H   0  0  0  0  0  0  0  0  0  0  0  0
  145.9927  132.7990  150.7670 H   0  0  0  0  0  0  0  0  0  0  0  0
  143.7586  133.9091  152.5290 H   0  0  0  0  0  0  0  0  0  0  0  0
  144.0942  132.2113  152.2166 H   0  0  0  0  0  0  0  0  0  0  0  0
  143.5776  133.2598  150.9043 H   0  0  0  0  0  0  0  0  0  0  0  0
  146.4026  132.4966  153.2405 H   0  0  0  0  0  0  0  0  0  0  0  0
  147.6134  133.4226  152.3962 H   0  0  0  0  0  0  0  0  0  0  0  0
  147.0908  134.5140  154.5138 H   0  0  0  0  0  0  0  0  0  0  0  0
  145.3850  134.5843  154.1443 H   0  0  0  0  0  0  0  0  0  0  0  0
  147.5059  135.9190  152.6234 H   0  0  0  0  0  0  0  0  0  0  0  0
  1  2  1  0  0  0  0
  1 20  1  0  0  0  0
  1 21  1  0  0  0  0
  1 22  1  0  0  0  0
  2 19  1  0  0  0  0
  2  3  2  0  0  0  0
  3  4  1  0  0  0  0
  3 23  1  0  0  0  0
  4  5  1  0  0  0  0
  4 18  2  0  0  0  0
  5  6  1  0  0  0  0
  5 24  1  0  0  0  0
  6  7  2  0  0  0  0
  6  8  1  0  0  0  0
  8  9  1  0  0  0  0
  8 25  1  0  0  0  0
  9 10  1  0  0  0  0
  9 26  1  0  0  0  0
  9 27  1  0  0  0  0
 10 11  1  0  0  0  0
 10 28  1  0  0  0  0
 10 29  1  0  0  0  0
 11 17  1  0  0  0  0
 11 12  1  0  0  0  0
 11 42  1  0  0  0  0
 12 13  1  0  0  0  0
 12 30  1  0  0  0  0
 12 31  1  0  0  0  0
 13 14  1  0  0  0  0
 13 32  1  0  0  0  0
 13 33  1  0  0  0  0
 14 15  1  0  0  0  0
 14 16  1  0  0  0  0
 14 34  1  0  0  0  0
 15 35  1  0  0  0  0
 15 36  1  0  0  0  0
 15 37  1  0  0  0  0
 16 17  1  0  0  0  0
 16 38  1  0  0  0  0
 16 39  1  0  0  0  0
 17 40  1  0  0  0  0
 17 41  1  0  0  0  0
 18 19  1  0  0  0  0
M  CHG  1  11   1
M  END
> <s_m_source_file>
AV-unprocessed.smi

> <i_m_source_file_index>
2090

> <i_lp_mmshare_version>
43012

> <i_f3d_flags>
0

> <s_epik_input>
W0NIM11jMVtjSF1jKG5vMSlbTkhdQyg9TylbTkhdW0NIMl1bQ0gyXU4yW0NIMl1bQ0gyXVtDSF0oW0NIM10pW0NIMl1bQ0gyXTI=

> <s_epik_cmdline>
J2VwaWtfcHl0aG9uJywgJy1waCcsICc3LjAnLCAnLXRuJywgJzgnLCAnLW1hJywgJzIwMCcsICctbWV0YWxfYmluZGluZycsICctaW1hZScsICc8aW5maWxlLm1hZT4nLCAnLW9tYWUnLCAnPG91dGZpbGUubWFlPic=

> <r_epik_Ionization_Penalty>
0.00176265

> <r_epik_Ionization_Penalty_Charging>
0.00172695

> <r_epik_Ionization_Penalty_Neutral>
3.56992e-05

> <r_epik_State_Penalty>
0.00116803

> <r_epik_Charging_Adjusted_Penalty>
0.00289498

> <i_epik_Tot_Q>
1

> <i_epik_Tot_abs_Q>
1

> <r_epik_Metal_State_Penalty>
0.0215312

> <b_epik_Metal_Only>
0

> <s_lp_Force_Field>
OPLS_2005

> <r_lp_Energy>
14.8541

> <b_lp_Chiralities_Consistent>
1

> <s_lp_Variant>
AV-unprocessed.smi:2090-2

> <Gold.Version>
5.8.1

> <Gold.Id.Protein>
6NUR|6NUR_protein|mol2

> <Gold.PLP.Fitness>
45.9074

> <Gold.PLP.PLP>
-29.4200

> <Gold.PLP.part.hbond>
-5.9452

> <Gold.PLP.part.metal>
0.0000

> <Gold.PLP.part.buried>
-3.0519

> <Gold.PLP.part.nonpolar>
-20.9345

> <Gold.PLP.part.repulsive>
0.3318

> <Gold.PLP.ligand.clash>
0.0000

> <Gold.PLP.ligand.torsion>
0.3595

> <Gold.PLP.Chemscore.Hbond>
5.7304

> <Gold.PLP.Chemscore.CHOScore>
0.0000

> <Gold.PLP.Chemscore.Metal>
0.0000

> <Gold.Chemscore.Hbonds>
donor molecule, donor type, donor heavy atom, donor atom, acceptor molecule, acceptor atom, score
      L1  H     8    25       P1  7957  1.00
      L1  H    11    42       P1  7948  2.00
      P1  H  7989  7998       L1    18  0.08
      P1  H  7997  8008       L1    19  0.61

> <Gold.PLP.Chemscore.Internal.Correction>
0.0153

> <Gold.Rescore>
     Score         DG    S(hbond)    S(metal)    S(lipo)     H(rot)  DE(clash)    DE(int)     intcor
     19.17     -22.34       4.43        0.00      51.93       1.57       0.04       3.12       ----

> <Gold.Chemscore.Fitness>
19.1679

> <Gold.Chemscore.DG>
-22.3360

> <Gold.Chemscore.ZeroCoef>
-5.4800

> <Gold.Chemscore.Hbond>
4.4308

> <Gold.Chemscore.Metal>
0.0000

> <Gold.Chemscore.Lipo>
51.9290

> <Gold.Chemscore.Internal_Hbond>
0.0000

> <Gold.Chemscore.DEClash>
0.0441

> <Gold.Chemscore.DEInternal>
3.1240

> <Gold.Chemscore.Rot>
1.5697

> <Gold.Chemscore.Internal.Correction>
   9.000000E+99

> <Gold.Chemscore.Hbonds>
donor molecule, donor type, donor heavy atom, donor atom, acceptor molecule, acceptor atom, score
      L1  H     5    24       P1  7957  0.01
      L1  H     8    25       P1  7957  1.00
      L1  H    11    42       P1  7948  1.00
      P1  H  7997  8008       L1    19  0.08

> <Gold.Chemscore.Hbond.Weighted>
-14.7988

> <Gold.Chemscore.Metal.Weighted>
-0.0000

> <Gold.Chemscore.Lipo.Weighted>
-6.0757

> <Gold.Chemscore.Internal_Hbond.Weighted>
0.0000

> <Gold.Chemscore.DEClash.Weighted>
0.0441

> <Gold.Chemscore.DEInternal.Weighted>
3.1240

> <Gold.Chemscore.Rot.Weighted>
4.0185

> <Gold.Chemscore.Internal.Correction.Weighted>
   9.000000E+99

> <Gold.Protein.RotatedTorsions>
[ 6907 6896 6895 6894 ] final  177.39 input  -60.11 | X-H torsion
[ 7974 7965 7964 7962 ] final  -28.64 input  175.53 | X-H torsion
[ 8008 7997 7996 7995 ] final  -21.78 input   59.86 | X-H torsion
[ 10167 10162 10161 10158 ] final  -19.27 input  -65.29 | X-H torsion
[ 10718 10713 10712 10709 ] final   36.78 input   66.30 | X-H torsion
[ 10763 10752 10751 10750 ] final  -23.13 input  -60.55 | X-H torsion
[ 11005 11000 10999 10996 ] final  -27.32 input  -57.11 | X-H torsion

> <Gold.Protein.ActiveResidues>
 VAL166  LYS551  ARG553  GLY616  TRP617  ASP618  TYR619  PRO620  LYS621  CYS622 
 ASP623  PHE694  ASN695  SER759  ASP760  ASP761  ALA762  ILE779  LEU786  VAL792 
 PHE793  MET794  SER795  GLU796  ALA797  LYS798  CYS799  TRP800  GLU811  SER814 

> <Gold.Protein.RotatedAtoms>
  151.7048  133.3311  159.3275 H   0  0  0  0  0  0  0  0  0  0  0  0  # atno 6907 bound_to 6896
  150.7720  134.6584  159.6335 H   0  0  0  0  0  0  0  0  0  0  0  0  # atno 6908 bound_to 6896
  152.3748  134.6683  160.0215 H   0  0  0  0  0  0  0  0  0  0  0  0  # atno 6909 bound_to 6896
  146.1274  140.5308  142.8708 H   0  0  0  0  0  0  0  0  0  0  0  0  # atno 7974 bound_to 7965
  154.4684  140.2025  156.0058 H   0  0  0  0  0  0  0  0  0  0  0  0  # atno 8008 bound_to 7997
  156.0968  140.3250  155.7859 H   0  0  0  0  0  0  0  0  0  0  0  0  # atno 8009 bound_to 7997
  155.4865  140.0543  157.2950 H   0  0  0  0  0  0  0  0  0  0  0  0  # atno 8010 bound_to 7997
  140.7267  143.4835  151.0086 H   0  0  0  0  0  0  0  0  0  0  0  0  # atno 10167 bound_to 10162
  157.3390  130.7537  149.6898 H   0  0  0  0  0  0  0  0  0  0  0  0  # atno 10718 bound_to 10713
  153.6629  135.6975  153.5171 H   0  0  0  0  0  0  0  0  0  0  0  0  # atno 10763 bound_to 10752
  153.2617  135.4242  155.0900 H   0  0  0  0  0  0  0  0  0  0  0  0  # atno 10764 bound_to 10752
  154.8447  135.3556  154.6174 H   0  0  0  0  0  0  0  0  0  0  0  0  # atno 10765 bound_to 10752
  140.9109  133.7461  156.0669 H   0  0  0  0  0  0  0  0  0  0  0  0  # atno 11005 bound_to 11000
  144.7656  140.5522  143.6705 LP  0  0  0  0  0  0  0  0  0  0  0  0  # atno 17320 bound_to 7965
  145.5336  139.1475  143.3486 LP  0  0  0  0  0  0  0  0  0  0  0  0  # atno 17321 bound_to 7965
  139.8535  143.7407  152.3177 LP  0  0  0  0  0  0  0  0  0  0  0  0  # atno 17342 bound_to 10162
  139.7598  144.7510  151.0381 LP  0  0  0  0  0  0  0  0  0  0  0  0  # atno 17343 bound_to 10162
  155.9705  130.4173  150.4274 LP  0  0  0  0  0  0  0  0  0  0  0  0  # atno 17370 bound_to 10713
  157.2318  131.0506  151.2488 LP  0  0  0  0  0  0  0  0  0  0  0  0  # atno 17371 bound_to 10713
  140.8111  134.3398  157.5411 LP  0  0  0  0  0  0  0  0  0  0  0  0  # atno 17394 bound_to 11000
  139.8757  134.9255  156.3375 LP  0  0  0  0  0  0  0  0  0  0  0  0  # atno 17395 bound_to 11000

$$$$
