AV-unprocessed.smi:1428|AV-procd|sdf|5813|dock4
  -GOLD-   22720 5463D 1   1.00000     0.00000
 Structure written by MMmdl.
 43 44  0  0  0  0  0  0  0  0  1 V2000
  151.9464  138.7251  154.6948 C   0  0  0  0  0  0  0  0  0  0  0  0
  150.6026  138.4198  154.3383 O   0  0  0  0  0  0  0  0  0  0  0  0
  149.6770  139.4457  154.3148 C   0  0  0  0  0  0  0  0  0  0  0  0
  150.0842  140.6902  154.6698 N   0  0  0  0  0  0  0  0  0  0  0  0
  149.1832  141.6936  154.6427 C   0  0  0  0  0  0  0  0  0  0  0  0
  147.8419  141.5142  154.2582 C   0  0  0  0  0  0  0  0  0  0  0  0
  147.4169  140.2244  153.8892 C   0  0  0  0  0  0  0  0  0  0  0  0
  148.3477  139.1577  153.9264 C   0  0  0  0  0  0  0  0  0  0  0  0
  148.0313  137.8222  153.5534 N   0  0  0  0  0  0  0  0  0  0  0  0
  146.8485  137.3192  153.1617 C   0  0  0  0  0  0  0  0  0  0  0  0
  145.7920  137.9480  153.0998 O   0  0  0  0  0  0  0  0  0  0  0  0
  146.9541  136.0184  152.8562 N   0  0  0  0  0  0  0  0  0  0  0  0
  145.8575  135.1699  152.3994 C   0  0  0  0  0  0  0  0  0  0  0  0
  146.3315  133.7133  152.3000 C   0  0  0  0  0  0  0  0  0  0  0  0
  145.2370  132.8129  151.7014 C   0  0  0  0  0  0  0  0  0  0  0  0
  144.8442  133.2916  150.3717 N   0  0  0  0  0  0  0  0  0  0  0  0
  143.8877  132.3331  149.7707 C   0  0  0  0  0  0  0  0  0  0  0  0
  143.4372  132.6829  148.3472 C   0  0  0  0  0  0  0  0  0  0  0  0
  142.2869  132.1514  147.9250 N   0  0  0  0  0  0  0  0  0  0  0  0
  144.1151  133.4281  147.6434 O   0  0  0  0  0  0  0  0  0  0  0  0
  144.2922  134.6513  150.4661 C   0  0  0  0  0  0  0  0  0  0  0  0
  145.3467  135.6243  151.0217 C   0  0  0  0  0  0  0  0  0  0  0  0
  152.5445  137.8150  154.6586 H   0  0  0  0  0  0  0  0  0  0  0  0
  152.0088  139.1221  155.7090 H   0  0  0  0  0  0  0  0  0  0  0  0
  152.3915  139.4401  154.0012 H   0  0  0  0  0  0  0  0  0  0  0  0
  149.5443  142.6701  154.9299 H   0  0  0  0  0  0  0  0  0  0  0  0
  147.1561  142.3482  154.2413 H   0  0  0  0  0  0  0  0  0  0  0  0
  146.3954  140.0841  153.5719 H   0  0  0  0  0  0  0  0  0  0  0  0
  148.7873  137.1596  153.6467 H   0  0  0  0  0  0  0  0  0  0  0  0
  147.8610  135.5827  152.9403 H   0  0  0  0  0  0  0  0  0  0  0  0
  145.0391  135.2184  153.1204 H   0  0  0  0  0  0  0  0  0  0  0  0
  147.2282  133.6524  151.6809 H   0  0  0  0  0  0  0  0  0  0  0  0
  146.6122  133.3446  153.2872 H   0  0  0  0  0  0  0  0  0  0  0  0
  145.6217  131.7947  151.6287 H   0  0  0  0  0  0  0  0  0  0  0  0
  144.3711  132.7780  152.3654 H   0  0  0  0  0  0  0  0  0  0  0  0
  144.3424  131.3422  149.7296 H   0  0  0  0  0  0  0  0  0  0  0  0
  143.0071  132.2425  150.4098 H   0  0  0  0  0  0  0  0  0  0  0  0
  141.9487  132.3605  146.9969 H   0  0  0  0  0  0  0  0  0  0  0  0
  141.7572  131.5487  148.5378 H   0  0  0  0  0  0  0  0  0  0  0  0
  143.9817  135.0158  149.4871 H   0  0  0  0  0  0  0  0  0  0  0  0
  143.4030  134.6544  151.0991 H   0  0  0  0  0  0  0  0  0  0  0  0
  144.9183  136.6250  151.0899 H   0  0  0  0  0  0  0  0  0  0  0  0
  146.1792  135.6927  150.3196 H   0  0  0  0  0  0  0  0  0  0  0  0
  1  2  1  0  0  0  0
  1 23  1  0  0  0  0
  1 24  1  0  0  0  0
  1 25  1  0  0  0  0
  2  3  1  0  0  0  0
  3  8  1  0  0  0  0
  3  4  2  0  0  0  0
  4  5  1  0  0  0  0
  5  6  2  0  0  0  0
  5 26  1  0  0  0  0
  6  7  1  0  0  0  0
  6 27  1  0  0  0  0
  7  8  2  0  0  0  0
  7 28  1  0  0  0  0
  8  9  1  0  0  0  0
  9 10  1  0  0  0  0
  9 29  1  0  0  0  0
 10 11  2  0  0  0  0
 10 12  1  0  0  0  0
 12 13  1  0  0  0  0
 12 30  1  0  0  0  0
 13 22  1  0  0  0  0
 13 14  1  0  0  0  0
 13 31  1  0  0  0  0
 14 15  1  0  0  0  0
 14 32  1  0  0  0  0
 14 33  1  0  0  0  0
 15 16  1  0  0  0  0
 15 34  1  0  0  0  0
 15 35  1  0  0  0  0
 16 17  1  0  0  0  0
 16 21  1  0  0  0  0
 17 18  1  0  0  0  0
 17 36  1  0  0  0  0
 17 37  1  0  0  0  0
 18 19  1  0  0  0  0
 18 20  2  0  0  0  0
 19 38  1  0  0  0  0
 19 39  1  0  0  0  0
 21 22  1  0  0  0  0
 21 40  1  0  0  0  0
 21 41  1  0  0  0  0
 22 42  1  0  0  0  0
 22 43  1  0  0  0  0
M  END
> <s_m_source_file>
AV-unprocessed.smi

> <i_m_source_file_index>
1428

> <i_lp_mmshare_version>
43012

> <i_f3d_flags>
0

> <s_epik_input>
W0NIM11PYzFuW2NIXVtjSF1bY0hdYzFbTkhdQyg9TylbTkhdW0NIXTJbQ0gyXVtDSDJdTihbQ0gyXVtDSDJdMilbQ0gyXUMoPU8pW05IMl0=

> <s_epik_cmdline>
J2VwaWtfcHl0aG9uJywgJy1waCcsICc3LjAnLCAnLXRuJywgJzgnLCAnLW1hJywgJzIwMCcsICctbWV0YWxfYmluZGluZycsICctaW1hZScsICc8aW5maWxlLm1hZT4nLCAnLW9tYWUnLCAnPG91dGZpbGUubWFlPic=

> <r_lp_tautomer_probability>
1

> <r_epik_Ionization_Penalty>
0.16483

> <r_epik_Ionization_Penalty_Charging>
0

> <r_epik_Ionization_Penalty_Neutral>
0.16483

> <r_epik_State_Penalty>
0.154069

> <r_epik_Charging_Adjusted_Penalty>
0.154069

> <i_epik_Tot_Q>
0

> <i_epik_Tot_abs_Q>
0

> <r_epik_Metal_State_Penalty>
0.171364

> <b_epik_Metal_Only>
0

> <s_lp_Force_Field>
OPLS_2005

> <r_lp_Energy>
13.8311

> <b_lp_Chiralities_Consistent>
1

> <s_lp_Variant>
AV-unprocessed.smi:1428-1

> <Gold.Version>
5.8.1

> <Gold.Id.Protein>
6NUR|6NUR_protein|mol2

> <Gold.PLP.Fitness>
51.5089

> <Gold.PLP.PLP>
-37.2579

> <Gold.PLP.part.hbond>
-6.2029

> <Gold.PLP.part.metal>
0.0000

> <Gold.PLP.part.buried>
-3.2990

> <Gold.PLP.part.nonpolar>
-33.4588

> <Gold.PLP.part.repulsive>
5.5954

> <Gold.PLP.ligand.clash>
0.0000

> <Gold.PLP.ligand.torsion>
0.3461

> <Gold.PLP.Chemscore.Hbond>
3.9781

> <Gold.PLP.Chemscore.CHOScore>
1.0000

> <Gold.PLP.Chemscore.Metal>
0.0000

> <Gold.Chemscore.Hbonds>
donor molecule, donor type, donor heavy atom, donor atom, acceptor molecule, acceptor atom, score
      L1  H     9    29       P1  7948  0.14
      L1  H    12    30       P1  7948  0.24
      L1  H    19    38       P1 10195  1.00
      L1  H    19    39       P1 10952  1.00
      P1  H  7918  7932       L1    20  0.69
      P1  H  7989  7998       L1     4  0.82
      L1  C     5    26       P1  8028  1.00

> <Gold.PLP.Chemscore.Internal.Correction>
0.0091

> <Gold.Rescore>
     Score         DG    S(hbond)    S(metal)    S(lipo)     H(rot)  DE(clash)    DE(int)     intcor
     12.95     -19.22       3.29        0.00      73.78       2.29       3.79       2.48       ----

> <Gold.Chemscore.Fitness>
12.9469

> <Gold.Chemscore.DG>
-19.2191

> <Gold.Chemscore.ZeroCoef>
-5.4800

> <Gold.Chemscore.Hbond>
3.2880

> <Gold.Chemscore.Metal>
0.0000

> <Gold.Chemscore.Lipo>
73.7804

> <Gold.Chemscore.Internal_Hbond>
0.0000

> <Gold.Chemscore.DEClash>
3.7940

> <Gold.Chemscore.DEInternal>
2.4781

> <Gold.Chemscore.Rot>
2.2949

> <Gold.Chemscore.Internal.Correction>
   9.000000E+99

> <Gold.Chemscore.Hbonds>
donor molecule, donor type, donor heavy atom, donor atom, acceptor molecule, acceptor atom, score
      L1  H     9    29       P1  7948  0.14
      L1  H    12    30       P1  7948  0.24
      L1  H    19    38       P1 10195  0.99
      L1  H    19    39       P1 10952  1.00
      P1  H  7918  7932       L1    20  0.68
      P1  H  7989  7998       L1     4  0.19

> <Gold.Chemscore.Hbond.Weighted>
-10.9818

> <Gold.Chemscore.Metal.Weighted>
-0.0000

> <Gold.Chemscore.Lipo.Weighted>
-8.6323

> <Gold.Chemscore.Internal_Hbond.Weighted>
0.0000

> <Gold.Chemscore.DEClash.Weighted>
3.7940

> <Gold.Chemscore.DEInternal.Weighted>
2.4781

> <Gold.Chemscore.Rot.Weighted>
5.8750

> <Gold.Chemscore.Internal.Correction.Weighted>
   9.000000E+99

> <Gold.Protein.RotatedTorsions>
[ 6907 6896 6895 6894 ] final  131.41 input  -60.11 | X-H torsion
[ 7974 7965 7964 7962 ] final   39.14 input  175.53 | X-H torsion
[ 8008 7997 7996 7995 ] final  -67.63 input   59.86 | X-H torsion
[ 10167 10162 10161 10158 ] final  137.09 input  -65.29 | X-H torsion
[ 10718 10713 10712 10709 ] final  -95.19 input   66.30 | X-H torsion
[ 10763 10752 10751 10750 ] final -111.10 input  -60.55 | X-H torsion
[ 11005 11000 10999 10996 ] final  106.97 input  -57.11 | X-H torsion

> <Gold.Protein.ActiveResidues>
 VAL166  LYS551  ARG553  GLY616  TRP617  ASP618  TYR619  PRO620  LYS621  CYS622 
 ASP623  PHE694  ASN695  SER759  ASP760  ASP761  ALA762  ILE779  LEU786  VAL792 
 PHE793  MET794  SER795  GLU796  ALA797  LYS798  CYS799  TRP800  GLU811  SER814 

> <Gold.Protein.RotatedAtoms>
  152.3428  133.6087  159.5888 H   0  0  0  0  0  0  0  0  0  0  0  0  # atno 6907 bound_to 6896
  150.7489  133.9695  159.3550 H   0  0  0  0  0  0  0  0  0  0  0  0  # atno 6908 bound_to 6896
  151.7557  135.0823  160.0389 H   0  0  0  0  0  0  0  0  0  0  0  0  # atno 6909 bound_to 6896
  146.1007  139.5687  142.9416 H   0  0  0  0  0  0  0  0  0  0  0  0  # atno 7974 bound_to 7965
  154.4813  140.0889  156.7383 H   0  0  0  0  0  0  0  0  0  0  0  0  # atno 8008 bound_to 7997
  155.4464  140.3455  155.4277 H   0  0  0  0  0  0  0  0  0  0  0  0  # atno 8009 bound_to 7997
  156.1195  140.1470  156.9213 H   0  0  0  0  0  0  0  0  0  0  0  0  # atno 8010 bound_to 7997
  139.5156  144.6429  151.5520 H   0  0  0  0  0  0  0  0  0  0  0  0  # atno 10167 bound_to 10162
  156.0039  130.5099  150.6039 H   0  0  0  0  0  0  0  0  0  0  0  0  # atno 10718 bound_to 10713
  154.8283  135.4540  154.0987 H   0  0  0  0  0  0  0  0  0  0  0  0  # atno 10763 bound_to 10752
  153.2282  135.6902  153.7926 H   0  0  0  0  0  0  0  0  0  0  0  0  # atno 10764 bound_to 10752
  153.7319  135.3325  155.3264 H   0  0  0  0  0  0  0  0  0  0  0  0  # atno 10765 bound_to 10752
  139.8821  134.9386  156.5748 H   0  0  0  0  0  0  0  0  0  0  0  0  # atno 11005 bound_to 11000
  145.5860  141.0376  143.2096 LP  0  0  0  0  0  0  0  0  0  0  0  0  # atno 17320 bound_to 7965
  144.7430  139.7395  143.7303 LP  0  0  0  0  0  0  0  0  0  0  0  0  # atno 17321 bound_to 7965
  140.6202  143.9272  150.6520 LP  0  0  0  0  0  0  0  0  0  0  0  0  # atno 17342 bound_to 10162
  140.2543  143.3570  152.1378 LP  0  0  0  0  0  0  0  0  0  0  0  0  # atno 17343 bound_to 10162
  157.3883  131.0792  151.1416 LP  0  0  0  0  0  0  0  0  0  0  0  0  # atno 17370 bound_to 10713
  157.2116  130.6440  149.5776 LP  0  0  0  0  0  0  0  0  0  0  0  0  # atno 17371 bound_to 10713
  140.8071  133.8458  155.8777 LP  0  0  0  0  0  0  0  0  0  0  0  0  # atno 17394 bound_to 11000
  140.9540  134.1742  157.4706 LP  0  0  0  0  0  0  0  0  0  0  0  0  # atno 17395 bound_to 11000

$$$$
