AV-unprocessed.smi:149|AV-procd|sdf|1237|dock6
  -GOLD-   2262018453D 1   1.00000     0.00000
 Structure written by MMmdl.
 60 64  0  0  0  0  0  0  0  0  2 V2000
  145.4512  131.7722  149.8415 C   0  0  0  0  0  0  0  0  0  0  0  0
  146.4168  132.1165  150.9920 C   0  0  1  0  0  0  0  0  0  0  0  0
  146.1041  133.5188  151.5452 C   0  0  0  0  0  0  0  0  0  0  0  0
  146.2294  133.4399  152.9908 N   0  0  0  0  0  0  0  0  0  0  0  0
  146.5221  134.5466  153.7238 C   0  0  0  0  0  0  0  0  0  0  0  0
  147.2963  134.4094  154.8333 N   0  0  0  0  0  0  0  0  0  0  0  0
  147.6143  135.4735  155.5756 C   0  0  0  0  0  0  0  0  0  0  0  0
  147.2620  136.7473  155.3994 N   0  0  0  0  0  0  0  0  0  0  0  0
  146.4683  136.8952  154.3005 C   0  0  0  0  0  0  0  0  0  0  0  0
  146.0575  135.8591  153.4126 C   0  0  0  0  0  0  0  0  0  0  0  0
  145.2636  136.3973  152.4065 N   0  0  0  0  0  0  0  0  0  0  0  0
  145.2232  137.6736  152.6732 C   0  0  0  0  0  0  0  0  0  0  0  0
  145.8930  138.0578  153.8141 N   0  0  0  0  0  0  0  0  0  0  0  0
  146.0445  139.3918  154.3324 C   0  0  0  0  0  0  0  0  0  0  0  0
  147.0624  140.3539  153.7031 C   0  0  0  0  0  0  0  0  0  0  0  0
  148.0224  140.1186  154.8898 C   0  0  0  0  0  0  0  0  0  0  0  0
  149.0754  139.0232  154.6338 C   0  0  0  0  0  0  0  0  0  0  0  0
  150.1783  139.5219  153.9041 O   0  0  0  0  0  0  0  0  0  0  0  0
  148.7732  141.3533  155.4269 C   0  0  0  0  0  0  0  0  0  0  0  0
  149.3120  142.1547  154.3944 O   0  0  0  0  0  0  0  0  0  0  0  0
  146.7650  139.6610  155.6621 C   0  0  0  0  0  0  0  0  0  0  0  0
  146.7339  132.1329  153.3688 C   0  0  0  0  0  0  0  0  0  0  0  0
  146.3341  131.1882  152.2276 C   0  0  2  0  0  0  0  0  0  0  0  0
  147.2165  129.9822  152.2111 N   0  3  0  0  0  0  0  0  0  0  0  0
  147.5364  129.5014  153.5811 C   0  0  0  0  0  0  0  0  0  0  0  0
  148.5071  128.3103  153.5358 C   0  0  0  0  0  0  0  0  0  0  0  0
  147.9383  127.2671  152.7581 O   0  0  0  0  0  0  0  0  0  0  0  0
  147.7232  127.6755  151.4149 C   0  0  0  0  0  0  0  0  0  0  0  0
  146.7333  128.8528  151.3765 C   0  0  0  0  0  0  0  0  0  0  0  0
  144.4167  131.7625  150.1864 H   0  0  0  0  0  0  0  0  0  0  0  0
  145.6517  130.8020  149.3923 H   0  0  0  0  0  0  0  0  0  0  0  0
  145.5234  132.5131  149.0447 H   0  0  0  0  0  0  0  0  0  0  0  0
  147.4435  132.1271  150.6226 H   0  0  0  0  0  0  0  0  0  0  0  0
  146.7816  134.2609  151.1204 H   0  0  0  0  0  0  0  0  0  0  0  0
  145.0831  133.8188  151.3058 H   0  0  0  0  0  0  0  0  0  0  0  0
  148.2395  135.2763  156.4339 H   0  0  0  0  0  0  0  0  0  0  0  0
  144.6915  138.3653  152.0372 H   0  0  0  0  0  0  0  0  0  0  0  0
  145.0423  139.8225  154.3331 H   0  0  0  0  0  0  0  0  0  0  0  0
  147.4625  140.0400  152.7387 H   0  0  0  0  0  0  0  0  0  0  0  0
  146.6759  141.3721  153.6420 H   0  0  0  0  0  0  0  0  0  0  0  0
  149.4548  138.6103  155.5684 H   0  0  0  0  0  0  0  0  0  0  0  0
  148.6433  138.1845  154.0868 H   0  0  0  0  0  0  0  0  0  0  0  0
  150.0325  139.3523  152.9859 H   0  0  0  0  0  0  0  0  0  0  0  0
  148.1135  141.9863  156.0209 H   0  0  0  0  0  0  0  0  0  0  0  0
  149.5938  141.0544  156.0799 H   0  0  0  0  0  0  0  0  0  0  0  0
  149.4004  143.0390  154.7157 H   0  0  0  0  0  0  0  0  0  0  0  0
  146.2869  140.4636  156.2257 H   0  0  0  0  0  0  0  0  0  0  0  0
  146.9215  138.7947  156.3036 H   0  0  0  0  0  0  0  0  0  0  0  0
  147.8195  132.1816  153.4689 H   0  0  0  0  0  0  0  0  0  0  0  0
  146.3126  131.8152  154.3232 H   0  0  0  0  0  0  0  0  0  0  0  0
  145.2955  130.8810  152.3650 H   0  0  0  0  0  0  0  0  0  0  0  0
  147.9856  130.2991  154.1724 H   0  0  0  0  0  0  0  0  0  0  0  0
  146.6161  129.2086  154.0888 H   0  0  0  0  0  0  0  0  0  0  0  0
  149.4731  128.6073  153.1243 H   0  0  0  0  0  0  0  0  0  0  0  0
  148.6913  127.9378  154.5438 H   0  0  0  0  0  0  0  0  0  0  0  0
  148.6715  127.9497  150.9495 H   0  0  0  0  0  0  0  0  0  0  0  0
  147.3254  126.8326  150.8496 H   0  0  0  0  0  0  0  0  0  0  0  0
  145.7512  128.5300  151.7261 H   0  0  0  0  0  0  0  0  0  0  0  0
  146.6327  129.1659  150.3385 H   0  0  0  0  0  0  0  0  0  0  0  0
  148.0891  130.2780  151.7968 H   0  0  0  0  0  0  0  0  0  0  0  0
  1  2  1  0  0  0  0
  1 30  1  0  0  0  0
  1 31  1  0  0  0  0
  1 32  1  0  0  0  0
  2 23  1  0  0  0  0
  2  3  1  0  0  0  0
  2 33  1  0  0  0  0
  3  4  1  0  0  0  0
  3 34  1  0  0  0  0
  3 35  1  0  0  0  0
  4  5  1  0  0  0  0
  4 22  1  0  0  0  0
  5 10  1  0  0  0  0
  5  6  2  0  0  0  0
  6  7  1  0  0  0  0
  7  8  2  0  0  0  0
  7 36  1  0  0  0  0
  8  9  1  0  0  0  0
  9 13  1  0  0  0  0
  9 10  2  0  0  0  0
 10 11  1  0  0  0  0
 11 12  2  0  0  0  0
 12 13  1  0  0  0  0
 12 37  1  0  0  0  0
 13 14  1  0  0  0  0
 14 21  1  0  0  0  0
 14 15  1  0  0  0  0
 14 38  1  0  0  0  0
 15 16  1  0  0  0  0
 15 39  1  0  0  0  0
 15 40  1  0  0  0  0
 16 17  1  0  0  0  0
 16 19  1  0  0  0  0
 16 21  1  0  0  0  0
 17 18  1  0  0  0  0
 17 41  1  0  0  0  0
 17 42  1  0  0  0  0
 18 43  1  0  0  0  0
 19 20  1  0  0  0  0
 19 44  1  0  0  0  0
 19 45  1  0  0  0  0
 20 46  1  0  0  0  0
 21 47  1  0  0  0  0
 21 48  1  0  0  0  0
 22 23  1  0  0  0  0
 22 49  1  0  0  0  0
 22 50  1  0  0  0  0
 23 24  1  0  0  0  0
 23 51  1  0  0  0  0
 24 29  1  0  0  0  0
 24 25  1  0  0  0  0
 24 60  1  0  0  0  0
 25 26  1  0  0  0  0
 25 52  1  0  0  0  0
 25 53  1  0  0  0  0
 26 27  1  0  0  0  0
 26 54  1  0  0  0  0
 26 55  1  0  0  0  0
 27 28  1  0  0  0  0
 28 29  1  0  0  0  0
 28 56  1  0  0  0  0
 28 57  1  0  0  0  0
 29 58  1  0  0  0  0
 29 59  1  0  0  0  0
M  CHG  1  24   1
M  END
> <s_m_source_file>
AV-unprocessed.smi

> <i_m_source_file_index>
149

> <i_lp_mmshare_version>
43012

> <i_f3d_flags>
0

> <s_epik_input>
W0NIMl0xW0NIMl1PW0NIMl1bQ0gyXU4xW0NAQEhdMltDSDJdTihbQ0gyXVtDQEhdMltDSDNdKWMobltjSF1uMyljKGMzNCluW2NIXW40W0NIXShbQ0gyXTUpW0NIMl1DNShbQ0gyXVtPSF0pW0NIMl1bT0hd

> <s_epik_cmdline>
J2VwaWtfcHl0aG9uJywgJy1waCcsICc3LjAnLCAnLXRuJywgJzgnLCAnLW1hJywgJzIwMCcsICctbWV0YWxfYmluZGluZycsICctaW1hZScsICc8aW5maWxlLm1hZT4nLCAnLW9tYWUnLCAnPG91dGZpbGUubWFlPic=

> <r_lp_tautomer_probability>
1

> <r_epik_Ionization_Penalty>
0.404847

> <r_epik_Ionization_Penalty_Charging>
0.404623

> <r_epik_Ionization_Penalty_Neutral>
0.000224096

> <r_epik_State_Penalty>
0.238803

> <r_epik_Charging_Adjusted_Penalty>
0.643425

> <i_epik_Tot_Q>
1

> <i_epik_Tot_abs_Q>
1

> <r_epik_Metal_State_Penalty>
0.239083

> <b_epik_Metal_Only>
0

> <s_lp_Force_Field>
OPLS_2005

> <r_lp_Energy>
71.3702

> <b_lp_Chiralities_Consistent>
1

> <s_lp_Variant>
AV-unprocessed.smi:149-4

> <Gold.Version>
5.8.1

> <Gold.Id.Protein>
6NUR|6NUR_protein|mol2

> <Gold.PLP.Fitness>
52.7188

> <Gold.PLP.PLP>
-36.5413

> <Gold.PLP.part.hbond>
-5.3645

> <Gold.PLP.part.metal>
0.0000

> <Gold.PLP.part.buried>
-1.2777

> <Gold.PLP.part.nonpolar>
-29.8229

> <Gold.PLP.part.repulsive>
0.3941

> <Gold.PLP.ligand.clash>
0.0000

> <Gold.PLP.ligand.torsion>
1.5135

> <Gold.PLP.Chemscore.Hbond>
4.1496

> <Gold.PLP.Chemscore.CHOScore>
1.9911

> <Gold.PLP.Chemscore.Metal>
0.0000

> <Gold.Chemscore.Hbonds>
donor molecule, donor type, donor heavy atom, donor atom, acceptor molecule, acceptor atom, score
      L1  H    18    43       P1  7957  0.99
      L1  H    20    46       P1  8028  1.00
      L1  H    24    60       P1 10747  0.96
      P1  H  7989  7998       L1    18  0.55
      P1  H  8011  8017       L1    20  0.21
      L1  C    12    37       P1 10171  1.00
      L1  C    12    37       P1 10175  1.00

> <Gold.PLP.Chemscore.Internal.Correction>
0.7822

> <Gold.Rescore>
     Score         DG    S(hbond)    S(metal)    S(lipo)     H(rot)  DE(clash)    DE(int)     intcor
     17.45     -20.16       3.54        0.00      92.00       3.09       0.05       2.66       ----

> <Gold.Chemscore.Fitness>
17.4533

> <Gold.Chemscore.DG>
-20.1642

> <Gold.Chemscore.ZeroCoef>
-5.4800

> <Gold.Chemscore.Hbond>
3.5428

> <Gold.Chemscore.Metal>
0.0000

> <Gold.Chemscore.Lipo>
92.0049

> <Gold.Chemscore.Internal_Hbond>
0.0000

> <Gold.Chemscore.DEClash>
0.0484

> <Gold.Chemscore.DEInternal>
2.6625

> <Gold.Chemscore.Rot>
3.0912

> <Gold.Chemscore.Internal.Correction>
   9.000000E+99

> <Gold.Chemscore.Hbonds>
donor molecule, donor type, donor heavy atom, donor atom, acceptor molecule, acceptor atom, score
      L1  H    18    43       P1  7957  0.89
      L1  H    20    46       P1  8028  0.97
      L1  H    24    60       P1 10747  0.91
      P1  H  7989  7998       L1    18  0.03
      P1  H  8011  8017       L1    20  0.06

> <Gold.Chemscore.Hbond.Weighted>
-11.8331

> <Gold.Chemscore.Metal.Weighted>
-0.0000

> <Gold.Chemscore.Lipo.Weighted>
-10.7646

> <Gold.Chemscore.Internal_Hbond.Weighted>
0.0000

> <Gold.Chemscore.DEClash.Weighted>
0.0484

> <Gold.Chemscore.DEInternal.Weighted>
2.6625

> <Gold.Chemscore.Rot.Weighted>
7.9135

> <Gold.Chemscore.Internal.Correction.Weighted>
   9.000000E+99

> <Gold.Protein.RotatedTorsions>
[ 6907 6896 6895 6894 ] final   -8.17 input  -60.11 | X-H torsion
[ 7974 7965 7964 7962 ] final  147.57 input  175.53 | X-H torsion
[ 8008 7997 7996 7995 ] final -102.06 input   59.86 | X-H torsion
[ 10167 10162 10161 10158 ] final -171.69 input  -65.29 | X-H torsion
[ 10718 10713 10712 10709 ] final  -72.70 input   66.30 | X-H torsion
[ 10763 10752 10751 10750 ] final  -66.72 input  -60.55 | X-H torsion
[ 11005 11000 10999 10996 ] final -134.54 input  -57.11 | X-H torsion

> <Gold.Protein.ActiveResidues>
 VAL166  LYS551  ARG553  GLY616  TRP617  ASP618  TYR619  PRO620  LYS621  CYS622 
 ASP623  PHE694  ASN695  SER759  ASP760  ASP761  ALA762  ILE779  LEU786  VAL792 
 PHE793  MET794  SER795  GLU796  ALA797  LYS798  CYS799  TRP800  GLU811  SER814 

> <Gold.Protein.RotatedAtoms>
  151.4378  135.1017  159.9661 H   0  0  0  0  0  0  0  0  0  0  0  0  # atno 6907 bound_to 6896
  152.4933  133.8556  159.7234 H   0  0  0  0  0  0  0  0  0  0  0  0  # atno 6908 bound_to 6896
  150.9109  133.6940  159.2882 H   0  0  0  0  0  0  0  0  0  0  0  0  # atno 6909 bound_to 6896
  144.8581  139.6045  143.5943 H   0  0  0  0  0  0  0  0  0  0  0  0  # atno 7974 bound_to 7965
  154.8514  140.0430  157.1606 H   0  0  0  0  0  0  0  0  0  0  0  0  # atno 8008 bound_to 7997
  154.8939  140.2990  155.5335 H   0  0  0  0  0  0  0  0  0  0  0  0  # atno 8009 bound_to 7997
  156.2996  140.2388  156.3958 H   0  0  0  0  0  0  0  0  0  0  0  0  # atno 8010 bound_to 7997
  139.5787  144.1472  152.1486 H   0  0  0  0  0  0  0  0  0  0  0  0  # atno 10167 bound_to 10162
  156.0310  130.4378  150.2632 H   0  0  0  0  0  0  0  0  0  0  0  0  # atno 10718 bound_to 10713
  154.3639  135.6110  153.5705 H   0  0  0  0  0  0  0  0  0  0  0  0  # atno 10763 bound_to 10752
  152.9792  135.5822  154.4600 H   0  0  0  0  0  0  0  0  0  0  0  0  # atno 10764 bound_to 10752
  154.4343  135.2848  155.1869 H   0  0  0  0  0  0  0  0  0  0  0  0  # atno 10765 bound_to 10752
  140.8980  134.1726  157.4481 H   0  0  0  0  0  0  0  0  0  0  0  0  # atno 11005 bound_to 11000
  146.2839  139.6951  142.9209 LP  0  0  0  0  0  0  0  0  0  0  0  0  # atno 17320 bound_to 7965
  145.4366  141.0419  143.2881 LP  0  0  0  0  0  0  0  0  0  0  0  0  # atno 17321 bound_to 7965
  140.1020  144.5531  150.6982 LP  0  0  0  0  0  0  0  0  0  0  0  0  # atno 17342 bound_to 10162
  140.7068  143.2474  151.4703 LP  0  0  0  0  0  0  0  0  0  0  0  0  # atno 17343 bound_to 10162
  157.0734  131.0123  151.3182 LP  0  0  0  0  0  0  0  0  0  0  0  0  # atno 17370 bound_to 10713
  157.4982  130.7864  149.7577 LP  0  0  0  0  0  0  0  0  0  0  0  0  # atno 17371 bound_to 10713
  139.8738  134.9886  156.5421 LP  0  0  0  0  0  0  0  0  0  0  0  0  # atno 17394 bound_to 11000
  140.8265  133.8313  155.8944 LP  0  0  0  0  0  0  0  0  0  0  0  0  # atno 17395 bound_to 11000

$$$$
