AV-unprocessed.smi:109|AV-procd|sdf|1048|dock4
  -GOLD-   2262018 93D 1   1.00000     0.00000
 Structure written by MMmdl.
 58 61  0  0  0  0  0  0  0  0  1 V2000
  149.1945  141.3354  153.4657 O   0  0  0  0  0  0  0  0  0  0  0  0
  149.1656  141.2876  154.8759 C   0  0  0  0  0  0  0  0  0  0  0  0
  150.5100  140.7645  155.4117 C   0  0  0  0  0  0  0  0  0  0  0  0
  150.5775  140.6538  156.9551 C   0  0  1  0  0  0  0  0  0  0  0  0
  150.9061  139.2764  157.3304 N   0  0  0  0  0  0  0  0  0  0  0  0
  150.0803  138.2416  157.0570 C   0  0  0  0  0  0  0  0  0  0  0  0
  149.8202  137.8580  155.7800 N   0  0  0  0  0  0  0  0  0  0  0  0
  149.0053  136.8257  155.5426 C   0  0  0  0  0  0  0  0  0  0  0  0
  148.3603  136.0528  156.4196 N   0  0  0  0  0  0  0  0  0  0  0  0
  148.6187  136.4361  157.7034 C   0  0  0  0  0  0  0  0  0  0  0  0
  149.4591  137.5114  158.1024 C   0  0  0  0  0  0  0  0  0  0  0  0
  149.4881  137.5959  159.4881 N   0  0  0  0  0  0  0  0  0  0  0  0
  148.7145  136.6190  159.8800 C   0  0  0  0  0  0  0  0  0  0  0  0
  148.1514  135.8693  158.8689 N   0  0  0  0  0  0  0  0  0  0  0  0
  147.2390  134.6831  158.9611 C   0  0  2  0  0  0  0  0  0  0  0  0
  146.6020  134.7441  160.2017 O   0  0  0  0  0  0  0  0  0  0  0  0
  146.9757  133.6393  161.0212 C   0  0  2  0  0  0  0  0  0  0  0  0
  147.1298  134.1020  162.4794 C   0  0  0  0  0  0  0  0  0  0  0  0
  145.8677  134.3584  163.0566 O   0  0  0  0  0  0  0  0  0  0  0  0
  148.2491  133.0705  160.3841 C   0  0  1  0  0  0  0  0  0  0  0  0
  148.3427  131.6767  160.6012 O   0  0  0  0  0  0  0  0  0  0  0  0
  148.0259  133.3594  158.9093 C   0  0  2  0  0  0  0  0  0  0  0  0
  149.2604  133.4389  158.2184 O   0  0  0  0  0  0  0  0  0  0  0  0
  151.6018  141.6252  157.6087 C   0  0  0  0  0  0  0  0  0  0  0  0
  151.7452  141.3385  159.1255 C   0  0  0  0  0  0  0  0  0  0  0  0
  152.7464  142.2804  159.8124 C   0  0  0  0  0  0  0  0  0  0  0  0
  152.3600  143.7486  159.5994 C   0  0  0  0  0  0  0  0  0  0  0  0
  152.2407  144.0618  158.1033 C   0  0  0  0  0  0  0  0  0  0  0  0
  151.2434  143.1195  157.4092 C   0  0  0  0  0  0  0  0  0  0  0  0
  146.5306  134.8106  158.1416 H   0  0  0  0  0  0  0  0  0  0  0  0
  146.1621  132.9155  160.9407 H   0  0  0  0  0  0  0  0  0  0  0  0
  149.1353  133.5864  160.7573 H   0  0  0  0  0  0  0  0  0  0  0  0
  147.3815  132.6052  158.4546 H   0  0  0  0  0  0  0  0  0  0  0  0
  149.4026  140.4733  153.1390 H   0  0  0  0  0  0  0  0  0  0  0  0
  148.9622  142.2877  155.2592 H   0  0  0  0  0  0  0  0  0  0  0  0
  148.3399  140.6452  155.1818 H   0  0  0  0  0  0  0  0  0  0  0  0
  150.7346  139.7959  154.9624 H   0  0  0  0  0  0  0  0  0  0  0  0
  151.2763  141.4529  155.0591 H   0  0  0  0  0  0  0  0  0  0  0  0
  149.5984  140.9359  157.3410 H   0  0  0  0  0  0  0  0  0  0  0  0
  151.8450  139.1385  157.6760 H   0  0  0  0  0  0  0  0  0  0  0  0
  148.8498  136.5839  154.5014 H   0  0  0  0  0  0  0  0  0  0  0  0
  148.5391  136.4186  160.9258 H   0  0  0  0  0  0  0  0  0  0  0  0
  147.6609  133.3622  163.0778 H   0  0  0  0  0  0  0  0  0  0  0  0
  147.7104  135.0239  162.5182 H   0  0  0  0  0  0  0  0  0  0  0  0
  145.8312  135.2685  163.3086 H   0  0  0  0  0  0  0  0  0  0  0  0
  148.8732  131.3039  159.9137 H   0  0  0  0  0  0  0  0  0  0  0  0
  149.1761  132.9728  157.4003 H   0  0  0  0  0  0  0  0  0  0  0  0
  152.5731  141.4555  157.1409 H   0  0  0  0  0  0  0  0  0  0  0  0
  150.7715  141.4330  159.6083 H   0  0  0  0  0  0  0  0  0  0  0  0
  152.0693  140.3116  159.2955 H   0  0  0  0  0  0  0  0  0  0  0  0
  152.7906  142.0599  160.8793 H   0  0  0  0  0  0  0  0  0  0  0  0
  153.7473  142.1023  159.4172 H   0  0  0  0  0  0  0  0  0  0  0  0
  151.4110  143.9560  160.0957 H   0  0  0  0  0  0  0  0  0  0  0  0
  153.1014  144.4019  160.0604 H   0  0  0  0  0  0  0  0  0  0  0  0
  151.9292  145.0977  157.9654 H   0  0  0  0  0  0  0  0  0  0  0  0
  153.2197  143.9690  157.6314 H   0  0  0  0  0  0  0  0  0  0  0  0
  151.2350  143.3780  156.3516 H   0  0  0  0  0  0  0  0  0  0  0  0
  150.2378  143.3109  157.7859 H   0  0  0  0  0  0  0  0  0  0  0  0
  1  2  1  0  0  0  0
  1 34  1  0  0  0  0
  2  3  1  0  0  0  0
  2 35  1  0  0  0  0
  2 36  1  0  0  0  0
  3  4  1  0  0  0  0
  3 37  1  0  0  0  0
  3 38  1  0  0  0  0
  4  5  1  0  0  0  0
  4 24  1  0  0  0  0
  4 39  1  0  0  0  0
  5  6  1  0  0  0  0
  5 40  1  0  0  0  0
  6 11  1  0  0  0  0
  6  7  2  0  0  0  0
  7  8  1  0  0  0  0
  8  9  2  0  0  0  0
  8 41  1  0  0  0  0
  9 10  1  0  0  0  0
 10 14  1  0  0  0  0
 10 11  2  0  0  0  0
 11 12  1  0  0  0  0
 12 13  2  0  0  0  0
 13 14  1  0  0  0  0
 13 42  1  0  0  0  0
 14 15  1  0  0  0  0
 15 30  1  0  0  0  0
 15 22  1  0  0  0  0
 15 16  1  0  0  0  0
 16 17  1  0  0  0  0
 17 31  1  0  0  0  0
 17 18  1  0  0  0  0
 17 20  1  0  0  0  0
 18 19  1  0  0  0  0
 18 43  1  0  0  0  0
 18 44  1  0  0  0  0
 19 45  1  0  0  0  0
 20 32  1  0  0  0  0
 20 21  1  0  0  0  0
 20 22  1  0  0  0  0
 21 46  1  0  0  0  0
 22 33  1  0  0  0  0
 22 23  1  0  0  0  0
 23 47  1  0  0  0  0
 24 29  1  0  0  0  0
 24 25  1  0  0  0  0
 24 48  1  0  0  0  0
 25 26  1  0  0  0  0
 25 49  1  0  0  0  0
 25 50  1  0  0  0  0
 26 27  1  0  0  0  0
 26 51  1  0  0  0  0
 26 52  1  0  0  0  0
 27 28  1  0  0  0  0
 27 53  1  0  0  0  0
 27 54  1  0  0  0  0
 28 29  1  0  0  0  0
 28 55  1  0  0  0  0
 28 56  1  0  0  0  0
 29 57  1  0  0  0  0
 29 58  1  0  0  0  0
M  END
> <s_m_source_file>
AV-unprocessed.smi

> <i_m_source_file_index>
109

> <i_lp_mmshare_version>
43012

> <i_f3d_flags>
0

> <s_epik_input>
W0NIMl0xW0NIMl1bQ0gyXVtDSDJdW0NIMl1bQ0hdMVtDQEhdKFtDSDJdW0NIMl1bT0hdKVtOSF1jKG5bY0hdbjIpYyhjMjMpbltjSF1uM1tDQEBIXTRPW0NASF0oW0NIMl1bT0hdKVtDQEBIXShbT0hdKVtDQEhdNFtPSF0=

> <s_epik_cmdline>
J2VwaWtfcHl0aG9uJywgJy1waCcsICc3LjAnLCAnLXRuJywgJzgnLCAnLW1hJywgJzIwMCcsICctbWV0YWxfYmluZGluZycsICctaW1hZScsICc8aW5maWxlLm1hZT4nLCAnLW9tYWUnLCAnPG91dGZpbGUubWFlPic=

> <r_lp_tautomer_probability>
1

> <r_epik_Ionization_Penalty>
0.000793976

> <r_epik_Ionization_Penalty_Charging>
0

> <r_epik_Ionization_Penalty_Neutral>
0.000793976

> <r_epik_State_Penalty>
-0

> <r_epik_Charging_Adjusted_Penalty>
0

> <i_epik_Tot_Q>
0

> <i_epik_Tot_abs_Q>
0

> <r_epik_Metal_State_Penalty>
-0

> <b_epik_Metal_Only>
0

> <s_epik_Chemistry_Notes>
This compound contains an acetal/aminal-like group ( X-CH(R)-Y where X, Y are N, S, or O) that may be acid/base labile, releasing an aldehyde.

> <s_lp_Force_Field>
OPLS_2005

> <r_lp_Energy>
53.2153

> <b_lp_Chiralities_Consistent>
1

> <s_lp_Variant>
AV-unprocessed.smi:109-18

> <Gold.Version>
5.8.1

> <Gold.Id.Protein>
6NUR|6NUR_protein|mol2

> <Gold.PLP.Fitness>
52.2588

> <Gold.PLP.PLP>
-47.3085

> <Gold.PLP.part.hbond>
-6.0000

> <Gold.PLP.part.metal>
0.0000

> <Gold.PLP.part.buried>
-6.0860

> <Gold.PLP.part.nonpolar>
-34.6993

> <Gold.PLP.part.repulsive>
0.0765

> <Gold.PLP.ligand.clash>
0.0000

> <Gold.PLP.ligand.torsion>
2.2173

> <Gold.PLP.Chemscore.Hbond>
2.4199

> <Gold.PLP.Chemscore.CHOScore>
0.6529

> <Gold.PLP.Chemscore.Metal>
0.0000

> <Gold.Chemscore.Hbonds>
donor molecule, donor type, donor heavy atom, donor atom, acceptor molecule, acceptor atom, score
      L1  H     1    34       P1  7957  0.46
      P1  H  6896  6907       L1    23  1.00
      P1  H  8011  8017       L1     1  0.96
      L1  C     8    41       P1  7948  0.70

> <Gold.PLP.Chemscore.Internal.Correction>
0.1663

> <Gold.Rescore>
     Score         DG    S(hbond)    S(metal)    S(lipo)     H(rot)  DE(clash)    DE(int)     intcor
      7.90     -11.46       2.22        0.00     107.31       5.47       0.32       3.24       ----

> <Gold.Chemscore.Fitness>
7.8990

> <Gold.Chemscore.DG>
-11.4588

> <Gold.Chemscore.ZeroCoef>
-5.4800

> <Gold.Chemscore.Hbond>
2.2207

> <Gold.Chemscore.Metal>
0.0000

> <Gold.Chemscore.Lipo>
107.3082

> <Gold.Chemscore.Internal_Hbond>
0.0000

> <Gold.Chemscore.DEClash>
0.3193

> <Gold.Chemscore.DEInternal>
3.2405

> <Gold.Chemscore.Rot>
5.4662

> <Gold.Chemscore.Internal.Correction>
   9.000000E+99

> <Gold.Chemscore.Hbonds>
donor molecule, donor type, donor heavy atom, donor atom, acceptor molecule, acceptor atom, score
      L1  H     1    34       P1  7957  0.43
      P1  H  6896  6907       L1    23  0.94
      P1  H  8011  8017       L1     1  0.51

> <Gold.Chemscore.Hbond.Weighted>
-7.4173

> <Gold.Chemscore.Metal.Weighted>
-0.0000

> <Gold.Chemscore.Lipo.Weighted>
-12.5551

> <Gold.Chemscore.Internal_Hbond.Weighted>
0.0000

> <Gold.Chemscore.DEClash.Weighted>
0.3193

> <Gold.Chemscore.DEInternal.Weighted>
3.2405

> <Gold.Chemscore.Rot.Weighted>
13.9935

> <Gold.Chemscore.Internal.Correction.Weighted>
   9.000000E+99

> <Gold.Protein.RotatedTorsions>
[ 6907 6896 6895 6894 ] final -129.43 input  -60.11 | X-H torsion
[ 7974 7965 7964 7962 ] final  143.79 input  175.53 | X-H torsion
[ 8008 7997 7996 7995 ] final  179.41 input   59.86 | X-H torsion
[ 10167 10162 10161 10158 ] final  -13.49 input  -65.29 | X-H torsion
[ 10718 10713 10712 10709 ] final   98.58 input   66.30 | X-H torsion
[ 10763 10752 10751 10750 ] final  121.95 input  -60.55 | X-H torsion
[ 11005 11000 10999 10996 ] final   29.97 input  -57.11 | X-H torsion

> <Gold.Protein.ActiveResidues>
 VAL166  LYS551  ARG553  GLY616  TRP617  ASP618  TYR619  PRO620  LYS621  CYS622 
 ASP623  PHE694  ASN695  SER759  ASP760  ASP761  ALA762  ILE779  LEU786  VAL792 
 PHE793  MET794  SER795  GLU796  ALA797  LYS798  CYS799  TRP800  GLU811  SER814 

> <Gold.Protein.RotatedAtoms>
  150.9286  133.6793  159.2815 H   0  0  0  0  0  0  0  0  0  0  0  0  # atno 6907 bound_to 6896
  151.4223  135.0998  159.9627 H   0  0  0  0  0  0  0  0  0  0  0  0  # atno 6908 bound_to 6896
  152.5015  133.8735  159.7365 H   0  0  0  0  0  0  0  0  0  0  0  0  # atno 6909 bound_to 6896
  144.8890  139.5585  143.5807 H   0  0  0  0  0  0  0  0  0  0  0  0  # atno 7974 bound_to 7965
  156.0437  140.1309  157.0127 H   0  0  0  0  0  0  0  0  0  0  0  0  # atno 8008 bound_to 7997
  154.4403  140.1025  156.6346 H   0  0  0  0  0  0  0  0  0  0  0  0  # atno 8009 bound_to 7997
  155.5627  140.3465  155.4497 H   0  0  0  0  0  0  0  0  0  0  0  0  # atno 8010 bound_to 7997
  140.7183  143.5421  150.9398 H   0  0  0  0  0  0  0  0  0  0  0  0  # atno 10167 bound_to 10162
  157.6893  131.0644  150.4818 H   0  0  0  0  0  0  0  0  0  0  0  0  # atno 10718 bound_to 10713
  153.6221  135.3411  155.3014 H   0  0  0  0  0  0  0  0  0  0  0  0  # atno 10763 bound_to 10752
  154.8598  135.4275  154.2197 H   0  0  0  0  0  0  0  0  0  0  0  0  # atno 10764 bound_to 10752
  153.3072  135.7029  153.7221 H   0  0  0  0  0  0  0  0  0  0  0  0  # atno 10765 bound_to 10752
  140.2993  134.2774  155.7757 H   0  0  0  0  0  0  0  0  0  0  0  0  # atno 11005 bound_to 11000
  146.3042  139.7526  142.9068 LP  0  0  0  0  0  0  0  0  0  0  0  0  # atno 17320 bound_to 7965
  145.3816  141.0359  143.3174 LP  0  0  0  0  0  0  0  0  0  0  0  0  # atno 17321 bound_to 7965
  139.9143  143.6682  152.3109 LP  0  0  0  0  0  0  0  0  0  0  0  0  # atno 17342 bound_to 10162
  139.7076  144.7625  151.1166 LP  0  0  0  0  0  0  0  0  0  0  0  0  # atno 17343 bound_to 10162
  156.5149  130.4148  149.6281 LP  0  0  0  0  0  0  0  0  0  0  0  0  # atno 17370 bound_to 10713
  156.3206  130.7278  151.2190 LP  0  0  0  0  0  0  0  0  0  0  0  0  # atno 17371 bound_to 10713
  141.2131  133.7636  156.9743 LP  0  0  0  0  0  0  0  0  0  0  0  0  # atno 17394 bound_to 11000
  140.1123  134.9469  157.2084 LP  0  0  0  0  0  0  0  0  0  0  0  0  # atno 17395 bound_to 11000

$$$$
