AV-unprocessed.smi:155|AV-procd|sdf|1280|dock10
  -GOLD-   2262018553D 1   1.00000     0.00000
 Structure written by MMmdl.
 64 67  0  0  0  0  0  0  0  0  3 V2000
  150.4812  144.9071  158.5400 C   0  0  0  0  0  0  0  0  0  0  0  0
  150.7377  143.4678  158.7741 N   0  3  0  0  0  0  0  0  0  0  0  0
  151.7334  143.2725  159.8533 C   0  0  0  0  0  0  0  0  0  0  0  0
  151.0685  142.7519  157.5118 C   0  0  0  0  0  0  0  0  0  0  0  0
  151.4530  141.2676  157.7173 C   0  0  0  0  0  0  0  0  0  0  0  0
  151.2702  140.4203  156.5076 N   0  3  1  0  0  0  0  0  0  0  0  0
  150.2964  140.9807  155.5328 C   0  0  0  0  0  0  0  0  0  0  0  0
  149.3410  139.8804  155.0385 C   0  0  0  0  0  0  0  0  0  0  0  0
  149.9969  138.8482  154.1021 C   0  0  0  0  0  0  0  0  0  0  0  0
  151.2031  138.2450  154.6678 N   0  0  0  0  0  0  0  0  0  0  0  0
  151.1465  137.1966  155.5450 C   0  0  0  0  0  0  0  0  0  0  0  0
  152.0840  136.2180  155.4195 N   0  0  0  0  0  0  0  0  0  0  0  0
  152.1085  135.1714  156.2467 C   0  0  0  0  0  0  0  0  0  0  0  0
  151.3021  134.9059  157.2720 N   0  0  0  0  0  0  0  0  0  0  0  0
  150.3478  135.8684  157.4105 C   0  0  0  0  0  0  0  0  0  0  0  0
  150.1975  137.0373  156.6050 C   0  0  0  0  0  0  0  0  0  0  0  0
  149.1234  137.7809  157.0840 N   0  0  0  0  0  0  0  0  0  0  0  0
  148.6655  137.0954  158.0938 C   0  0  0  0  0  0  0  0  0  0  0  0
  149.3369  135.9247  158.3538 N   0  0  0  0  0  0  0  0  0  0  0  0
  149.0403  134.9706  159.4109 C   0  0  0  0  0  0  0  0  0  0  0  0
  148.1309  135.5206  160.5346 C   0  0  2  0  0  0  0  0  0  0  0  0
  148.8778  136.2589  161.4818 O   0  0  0  0  0  0  0  0  0  0  0  0
  147.2488  134.4703  161.2481 C   0  0  2  0  0  0  0  0  0  0  0  0
  147.9951  133.2836  161.8655 C   0  0  0  0  0  0  0  0  0  0  0  0
  146.9052  132.2372  161.9204 C   0  0  0  0  0  0  0  0  0  0  0  0
  146.1604  132.5018  160.6157 C   0  0  0  0  0  0  0  0  0  0  0  0
  146.2523  133.9061  160.3981 O   0  0  0  0  0  0  0  0  0  0  0  0
  152.3998  139.0922  154.6403 C   0  0  0  0  0  0  0  0  0  0  0  0
  152.5560  139.9990  155.8826 C   0  0  0  0  0  0  0  0  0  0  0  0
  151.3732  145.4061  158.1587 H   0  0  0  0  0  0  0  0  0  0  0  0
  150.1816  145.4028  159.4642 H   0  0  0  0  0  0  0  0  0  0  0  0
  149.6748  145.0479  157.8193 H   0  0  0  0  0  0  0  0  0  0  0  0
  152.7271  143.5842  159.5301 H   0  0  0  0  0  0  0  0  0  0  0  0
  151.7818  142.2321  160.1682 H   0  0  0  0  0  0  0  0  0  0  0  0
  151.4687  143.8551  160.7364 H   0  0  0  0  0  0  0  0  0  0  0  0
  150.1712  142.7505  156.8911 H   0  0  0  0  0  0  0  0  0  0  0  0
  151.8102  143.3090  156.9405 H   0  0  0  0  0  0  0  0  0  0  0  0
  152.4896  141.2400  158.0556 H   0  0  0  0  0  0  0  0  0  0  0  0
  150.8622  140.8399  158.5287 H   0  0  0  0  0  0  0  0  0  0  0  0
  149.6856  141.7533  156.0003 H   0  0  0  0  0  0  0  0  0  0  0  0
  150.8060  141.4722  154.7026 H   0  0  0  0  0  0  0  0  0  0  0  0
  148.8912  139.3822  155.8971 H   0  0  0  0  0  0  0  0  0  0  0  0
  148.5136  140.3465  154.5029 H   0  0  0  0  0  0  0  0  0  0  0  0
  149.2853  138.0840  153.7943 H   0  0  0  0  0  0  0  0  0  0  0  0
  150.2729  139.3483  153.1730 H   0  0  0  0  0  0  0  0  0  0  0  0
  152.8876  134.4459  156.0635 H   0  0  0  0  0  0  0  0  0  0  0  0
  147.8119  137.4195  158.6716 H   0  0  0  0  0  0  0  0  0  0  0  0
  148.5804  134.0924  158.9563 H   0  0  0  0  0  0  0  0  0  0  0  0
  149.9843  134.6300  159.8379 H   0  0  0  0  0  0  0  0  0  0  0  0
  147.4556  136.2391  160.0689 H   0  0  0  0  0  0  0  0  0  0  0  0
  149.3424  135.6533  162.0387 H   0  0  0  0  0  0  0  0  0  0  0  0
  146.7057  134.9712  162.0509 H   0  0  0  0  0  0  0  0  0  0  0  0
  148.8009  132.9360  161.2179 H   0  0  0  0  0  0  0  0  0  0  0  0
  148.4200  133.5107  162.8436 H   0  0  0  0  0  0  0  0  0  0  0  0
  147.2887  131.2192  161.9934 H   0  0  0  0  0  0  0  0  0  0  0  0
  146.2502  132.4204  162.7731 H   0  0  0  0  0  0  0  0  0  0  0  0
  146.6529  131.9913  159.7872 H   0  0  0  0  0  0  0  0  0  0  0  0
  145.1227  132.1695  160.6499 H   0  0  0  0  0  0  0  0  0  0  0  0
  153.2989  138.4942  154.4867 H   0  0  0  0  0  0  0  0  0  0  0  0
  152.3401  139.7285  153.7567 H   0  0  0  0  0  0  0  0  0  0  0  0
  153.1516  140.8745  155.6204 H   0  0  0  0  0  0  0  0  0  0  0  0
  153.1364  139.4469  156.6197 H   0  0  0  0  0  0  0  0  0  0  0  0
  149.8638  143.0859  159.1075 H   0  0  0  0  0  0  0  0  0  0  0  0
  150.8318  139.5738  156.8402 H   0  0  0  0  0  0  0  0  0  0  0  0
  1  2  1  0  0  0  0
  1 30  1  0  0  0  0
  1 31  1  0  0  0  0
  1 32  1  0  0  0  0
  2  3  1  0  0  0  0
  2  4  1  0  0  0  0
  2 63  1  0  0  0  0
  3 33  1  0  0  0  0
  3 34  1  0  0  0  0
  3 35  1  0  0  0  0
  4  5  1  0  0  0  0
  4 36  1  0  0  0  0
  4 37  1  0  0  0  0
  5  6  1  0  0  0  0
  5 38  1  0  0  0  0
  5 39  1  0  0  0  0
  6 29  1  0  0  0  0
  6  7  1  0  0  0  0
  6 64  1  0  0  0  0
  7  8  1  0  0  0  0
  7 40  1  0  0  0  0
  7 41  1  0  0  0  0
  8  9  1  0  0  0  0
  8 42  1  0  0  0  0
  8 43  1  0  0  0  0
  9 10  1  0  0  0  0
  9 44  1  0  0  0  0
  9 45  1  0  0  0  0
 10 11  1  0  0  0  0
 10 28  1  0  0  0  0
 11 16  1  0  0  0  0
 11 12  2  0  0  0  0
 12 13  1  0  0  0  0
 13 14  2  0  0  0  0
 13 46  1  0  0  0  0
 14 15  1  0  0  0  0
 15 19  1  0  0  0  0
 15 16  2  0  0  0  0
 16 17  1  0  0  0  0
 17 18  2  0  0  0  0
 18 19  1  0  0  0  0
 18 47  1  0  0  0  0
 19 20  1  0  0  0  0
 20 21  1  0  0  0  0
 20 48  1  0  0  0  0
 20 49  1  0  0  0  0
 21 22  1  0  0  0  0
 21 23  1  0  0  0  0
 21 50  1  0  0  0  0
 22 51  1  0  0  0  0
 23 27  1  0  0  0  0
 23 24  1  0  0  0  0
 23 52  1  0  0  0  0
 24 25  1  0  0  0  0
 24 53  1  0  0  0  0
 24 54  1  0  0  0  0
 25 26  1  0  0  0  0
 25 55  1  0  0  0  0
 25 56  1  0  0  0  0
 26 27  1  0  0  0  0
 26 57  1  0  0  0  0
 26 58  1  0  0  0  0
 28 29  1  0  0  0  0
 28 59  1  0  0  0  0
 28 60  1  0  0  0  0
 29 61  1  0  0  0  0
 29 62  1  0  0  0  0
M  CHG  1   2   1
M  CHG  1   6   1
M  END
> <s_m_source_file>
AV-unprocessed.smi

> <i_m_source_file_index>
155

> <i_lp_mmshare_version>
43012

> <i_f3d_flags>
0

> <s_epik_input>
W0NIM11OKFtDSDNdKVtDSDJdW0NIMl1OMVtDSDJdW0NIMl1bQ0gyXU4oW0NIMl1bQ0gyXTEpYyhuW2NIXW4yKWMoYzIzKW5bY0hdbjNbQ0gyXVtDQEhdKFtPSF0pW0NAQEhdNFtDSDJdW0NIMl1bQ0gyXU80

> <s_epik_cmdline>
J2VwaWtfcHl0aG9uJywgJy1waCcsICc3LjAnLCAnLXRuJywgJzgnLCAnLW1hJywgJzIwMCcsICctbWV0YWxfYmluZGluZycsICctaW1hZScsICc8aW5maWxlLm1hZT4nLCAnLW9tYWUnLCAnPG91dGZpbGUubWFlPic=

> <r_lp_tautomer_probability>
1

> <r_epik_Ionization_Penalty>
3.0333

> <r_epik_Ionization_Penalty_Charging>
3.03317

> <r_epik_Ionization_Penalty_Neutral>
0.000131872

> <r_epik_State_Penalty>
1.99939

> <r_epik_Charging_Adjusted_Penalty>
5.03256

> <i_epik_Tot_Q>
2

> <i_epik_Tot_abs_Q>
2

> <r_epik_Metal_State_Penalty>
2.00021

> <b_epik_Metal_Only>
0

> <s_lp_Force_Field>
OPLS_2005

> <r_lp_Energy>
60.5665

> <b_lp_Chiralities_Consistent>
1

> <s_lp_Variant>
AV-unprocessed.smi:155-14

> <Gold.Version>
5.8.1

> <Gold.Id.Protein>
6NUR|6NUR_protein|mol2

> <Gold.PLP.Fitness>
51.9975

> <Gold.PLP.PLP>
-48.3978

> <Gold.PLP.part.hbond>
-3.1088

> <Gold.PLP.part.metal>
0.0000

> <Gold.PLP.part.buried>
-6.4083

> <Gold.PLP.part.nonpolar>
-39.0063

> <Gold.PLP.part.repulsive>
0.2188

> <Gold.PLP.ligand.clash>
0.0000

> <Gold.PLP.ligand.torsion>
2.2480

> <Gold.PLP.Chemscore.Hbond>
2.5920

> <Gold.PLP.Chemscore.CHOScore>
0.0000

> <Gold.PLP.Chemscore.Metal>
0.0000

> <Gold.Chemscore.Hbonds>
donor molecule, donor type, donor heavy atom, donor atom, acceptor molecule, acceptor atom, score
      P1  H  6896  6909       L1    14  0.03
      P1  H  6931  6943       L1    22  1.00
      P1  H 10752 10763       L1    12  0.02

> <Gold.PLP.Chemscore.Internal.Correction>
0.3198

> <Gold.Rescore>
     Score         DG    S(hbond)    S(metal)    S(lipo)     H(rot)  DE(clash)    DE(int)     intcor
     14.71     -18.26       1.89        0.00     115.39       2.75       0.27       3.28       ----

> <Gold.Chemscore.Fitness>
14.7068

> <Gold.Chemscore.DG>
-18.2555

> <Gold.Chemscore.ZeroCoef>
-5.4800

> <Gold.Chemscore.Hbond>
1.8901

> <Gold.Chemscore.Metal>
0.0000

> <Gold.Chemscore.Lipo>
115.3930

> <Gold.Chemscore.Internal_Hbond>
0.0000

> <Gold.Chemscore.DEClash>
0.2717

> <Gold.Chemscore.DEInternal>
3.2770

> <Gold.Chemscore.Rot>
2.7493

> <Gold.Chemscore.Internal.Correction>
   9.000000E+99

> <Gold.Chemscore.Hbonds>
donor molecule, donor type, donor heavy atom, donor atom, acceptor molecule, acceptor atom, score
      P1  H  6931  6943       L1    22  0.88

> <Gold.Chemscore.Hbond.Weighted>
-6.3128

> <Gold.Chemscore.Metal.Weighted>
-0.0000

> <Gold.Chemscore.Lipo.Weighted>
-13.5010

> <Gold.Chemscore.Internal_Hbond.Weighted>
0.0000

> <Gold.Chemscore.DEClash.Weighted>
0.2717

> <Gold.Chemscore.DEInternal.Weighted>
3.2770

> <Gold.Chemscore.Rot.Weighted>
7.0383

> <Gold.Chemscore.Internal.Correction.Weighted>
   9.000000E+99

> <Gold.Protein.RotatedTorsions>
[ 6907 6896 6895 6894 ] final    9.17 input  -60.11 | X-H torsion
[ 7974 7965 7964 7962 ] final  155.90 input  175.53 | X-H torsion
[ 8008 7997 7996 7995 ] final -158.64 input   59.86 | X-H torsion
[ 10167 10162 10161 10158 ] final  150.20 input  -65.29 | X-H torsion
[ 10718 10713 10712 10709 ] final   54.54 input   66.30 | X-H torsion
[ 10763 10752 10751 10750 ] final   74.78 input  -60.55 | X-H torsion
[ 11005 11000 10999 10996 ] final  -87.96 input  -57.11 | X-H torsion

> <Gold.Protein.ActiveResidues>
 VAL166  LYS551  ARG553  GLY616  TRP617  ASP618  TYR619  PRO620  LYS621  CYS622 
 ASP623  PHE694  ASN695  SER759  ASP760  ASP761  ALA762  ILE779  LEU786  VAL792 
 PHE793  MET794  SER795  GLU796  ALA797  LYS798  CYS799  TRP800  GLU811  SER814 

> <Gold.Protein.RotatedAtoms>
  151.7178  135.0900  160.0278 H   0  0  0  0  0  0  0  0  0  0  0  0  # atno 6907 bound_to 6896
  152.3621  133.6306  159.6031 H   0  0  0  0  0  0  0  0  0  0  0  0  # atno 6908 bound_to 6896
  150.7612  133.9323  159.3472 H   0  0  0  0  0  0  0  0  0  0  0  0  # atno 6909 bound_to 6896
  144.7996  139.7130  143.6187 H   0  0  0  0  0  0  0  0  0  0  0  0  # atno 7974 bound_to 7965
  155.7506  140.0826  157.2203 H   0  0  0  0  0  0  0  0  0  0  0  0  # atno 8008 bound_to 7997
  154.4012  140.1561  156.2775 H   0  0  0  0  0  0  0  0  0  0  0  0  # atno 8009 bound_to 7997
  155.8934  140.3414  155.5976 H   0  0  0  0  0  0  0  0  0  0  0  0  # atno 8010 bound_to 7997
  139.4853  144.5541  151.7349 H   0  0  0  0  0  0  0  0  0  0  0  0  # atno 10167 bound_to 10162
  157.5266  130.8601  149.8630 H   0  0  0  0  0  0  0  0  0  0  0  0  # atno 10718 bound_to 10713
  153.0609  135.5013  154.8092 H   0  0  0  0  0  0  0  0  0  0  0  0  # atno 10763 bound_to 10752
  154.6882  135.2980  154.9520 H   0  0  0  0  0  0  0  0  0  0  0  0  # atno 10764 bound_to 10752
  154.0284  135.6733  153.4831 H   0  0  0  0  0  0  0  0  0  0  0  0  # atno 10765 bound_to 10752
  141.1609  133.7542  156.9383 H   0  0  0  0  0  0  0  0  0  0  0  0  # atno 11005 bound_to 11000
  146.2274  139.5749  142.9578 LP  0  0  0  0  0  0  0  0  0  0  0  0  # atno 17320 bound_to 7965
  145.5586  141.0406  143.2239 LP  0  0  0  0  0  0  0  0  0  0  0  0  # atno 17321 bound_to 7965
  140.5100  144.1040  150.5992 LP  0  0  0  0  0  0  0  0  0  0  0  0  # atno 17342 bound_to 10162
  140.3962  143.2727  152.0002 LP  0  0  0  0  0  0  0  0  0  0  0  0  # atno 17343 bound_to 10162
  156.0391  130.3743  150.1481 LP  0  0  0  0  0  0  0  0  0  0  0  0  # atno 17370 bound_to 10713
  156.9667  130.9822  151.3467 LP  0  0  0  0  0  0  0  0  0  0  0  0  # atno 17371 bound_to 10713
  140.1339  134.9338  157.2375 LP  0  0  0  0  0  0  0  0  0  0  0  0  # atno 17394 bound_to 11000
  140.2919  134.3231  155.7313 LP  0  0  0  0  0  0  0  0  0  0  0  0  # atno 17395 bound_to 11000

$$$$
