AV-unprocessed.smi:1208|AV-procd|sdf|5067|dock4
  -GOLD-   22720 4103D 1   1.00000     0.00000
 Structure written by MMmdl.
 36 37  0  0  0  0  0  0  0  0  1 V2000
  152.1166  138.7474  159.0467 C   0  0  0  0  0  0  0  0  0  0  0  0
  151.1601  138.9150  157.8548 C   0  0  2  0  0  0  0  0  0  0  0  0
  149.8208  138.4706  158.2262 N   0  0  0  0  0  0  0  0  0  0  0  0
  149.4986  137.2784  158.7555 C   0  0  0  0  0  0  0  0  0  0  0  0
  150.3283  136.3944  158.9645 O   0  0  0  0  0  0  0  0  0  0  0  0
  148.0247  137.0244  159.1182 C   0  0  0  0  0  0  0  0  0  0  0  0
  147.8191  136.2339  160.3432 N   0  0  0  0  0  0  0  0  0  0  0  0
  147.9542  136.9631  161.5151 N   0  0  0  0  0  0  0  0  0  0  0  0
  147.7717  136.3899  162.6563 C   0  0  0  0  0  0  0  0  0  0  0  0
  147.9103  137.1502  163.7913 O   0  0  0  0  0  0  0  0  0  0  0  0
  147.4305  134.9870  162.7429 C   0  0  0  0  0  0  0  0  0  0  0  0
  147.3017  134.2848  161.5959 C   0  0  0  0  0  0  0  0  0  0  0  0
  147.4940  134.9059  160.2842 C   0  0  0  0  0  0  0  0  0  0  0  0
  147.3629  134.2953  159.2241 O   0  0  0  0  0  0  0  0  0  0  0  0
  151.6365  138.1261  156.6200 C   0  0  1  0  0  0  0  0  0  0  0  0
  150.7158  138.2274  155.4020 C   0  0  0  0  0  0  0  0  0  0  0  0
  151.6652  137.8893  154.2760 C   0  0  0  0  0  0  0  0  0  0  0  0
  152.9533  138.5679  154.7344 C   0  0  0  0  0  0  0  0  0  0  0  0
  152.8908  138.6211  156.1580 O   0  0  0  0  0  0  0  0  0  0  0  0
  147.4042  136.7077  164.4551 H   0  0  0  0  0  0  0  0  0  0  0  0
  153.1214  139.0874  158.7953 H   0  0  0  0  0  0  0  0  0  0  0  0
  152.1862  137.7042  159.3562 H   0  0  0  0  0  0  0  0  0  0  0  0
  151.7820  139.3281  159.9068 H   0  0  0  0  0  0  0  0  0  0  0  0
  151.1196  139.9720  157.5853 H   0  0  0  0  0  0  0  0  0  0  0  0
  149.0729  139.1344  158.0873 H   0  0  0  0  0  0  0  0  0  0  0  0
  147.5130  137.9853  159.1923 H   0  0  0  0  0  0  0  0  0  0  0  0
  147.5562  136.5159  158.2737 H   0  0  0  0  0  0  0  0  0  0  0  0
  147.2850  134.5194  163.7056 H   0  0  0  0  0  0  0  0  0  0  0  0
  147.0481  133.2363  161.6454 H   0  0  0  0  0  0  0  0  0  0  0  0
  151.7671  137.0727  156.8746 H   0  0  0  0  0  0  0  0  0  0  0  0
  149.8602  137.5532  155.4549 H   0  0  0  0  0  0  0  0  0  0  0  0
  150.3434  139.2460  155.2839 H   0  0  0  0  0  0  0  0  0  0  0  0
  151.8079  136.8094  154.2209 H   0  0  0  0  0  0  0  0  0  0  0  0
  151.3210  138.2393  153.3026 H   0  0  0  0  0  0  0  0  0  0  0  0
  153.8422  138.0350  154.3963 H   0  0  0  0  0  0  0  0  0  0  0  0
  153.0054  139.5886  154.3533 H   0  0  0  0  0  0  0  0  0  0  0  0
  1  2  1  0  0  0  0
  1 21  1  0  0  0  0
  1 22  1  0  0  0  0
  1 23  1  0  0  0  0
  2  3  1  0  0  0  0
  2 15  1  0  0  0  0
  2 24  1  0  0  0  0
  3  4  1  0  0  0  0
  3 25  1  0  0  0  0
  4  5  2  0  0  0  0
  4  6  1  0  0  0  0
  6 26  1  0  0  0  0
  6 27  1  0  0  0  0
  6  7  1  0  0  0  0
  7  8  1  0  0  0  0
  7 13  1  0  0  0  0
  8  9  2  0  0  0  0
  9 10  1  0  0  0  0
  9 11  1  0  0  0  0
 10 20  1  0  0  0  0
 11 28  1  0  0  0  0
 11 12  2  0  0  0  0
 12 29  1  0  0  0  0
 12 13  1  0  0  0  0
 13 14  2  0  0  0  0
 15 19  1  0  0  0  0
 15 16  1  0  0  0  0
 15 30  1  0  0  0  0
 16 17  1  0  0  0  0
 16 31  1  0  0  0  0
 16 32  1  0  0  0  0
 17 18  1  0  0  0  0
 17 33  1  0  0  0  0
 17 34  1  0  0  0  0
 18 19  1  0  0  0  0
 18 35  1  0  0  0  0
 18 36  1  0  0  0  0
M  END
> <s_m_source_file>
AV-unprocessed.smi

> <i_m_source_file_index>
1208

> <i_lp_mmshare_version>
43012

> <i_f3d_flags>
0

> <s_epik_input>
TzFbQ0gyXVtDSDJdW0NIMl1bQ0BIXTFbQ0BIXShbQ0gzXSlbTkhdQyg9TylbQ0gyXW4yW25IXWMoPU8pW2NIXVtjSF1jMj1P

> <s_epik_cmdline>
J2VwaWtfcHl0aG9uJywgJy1waCcsICc3LjAnLCAnLXRuJywgJzgnLCAnLW1hJywgJzIwMCcsICctbWV0YWxfYmluZGluZycsICctaW1hZScsICc8aW5maWxlLm1hZT4nLCAnLW9tYWUnLCAnPG91dGZpbGUubWFlPic=

> <r_lp_tautomer_probability>
0.9996

> <r_epik_Ionization_Penalty>
2.12735

> <r_epik_Ionization_Penalty_Charging>
3.86665e-08

> <r_epik_Ionization_Penalty_Neutral>
2.12735

> <r_epik_State_Penalty>
1.70441

> <r_epik_Charging_Adjusted_Penalty>
1.70441

> <i_epik_Tot_Q>
0

> <i_epik_Tot_abs_Q>
0

> <r_epik_Metal_State_Penalty>
1.70441

> <b_epik_Metal_Only>
0

> <s_lp_Force_Field>
OPLS_2005

> <r_lp_Energy>
27.2877

> <b_lp_Chiralities_Consistent>
1

> <s_lp_Variant>
AV-unprocessed.smi:1208-7

> <Gold.Version>
5.8.1

> <Gold.Id.Protein>
6NUR|6NUR_protein|mol2

> <Gold.PLP.Fitness>
44.4130

> <Gold.PLP.PLP>
-34.8321

> <Gold.PLP.part.hbond>
-5.0000

> <Gold.PLP.part.metal>
0.0000

> <Gold.PLP.part.buried>
-4.1970

> <Gold.PLP.part.nonpolar>
-26.0294

> <Gold.PLP.part.repulsive>
0.1415

> <Gold.PLP.ligand.clash>
0.0000

> <Gold.PLP.ligand.torsion>
0.6714

> <Gold.PLP.Chemscore.Hbond>
3.6320

> <Gold.PLP.Chemscore.CHOScore>
0.0000

> <Gold.PLP.Chemscore.Metal>
0.0000

> <Gold.Chemscore.Hbonds>
donor molecule, donor type, donor heavy atom, donor atom, acceptor molecule, acceptor atom, score
      P1  H  6896  6909       L1     5  1.00
      P1  H  6931  6943       L1     8  1.00
      P1  H  6934  6947       L1     8  0.29
      P1  H  7997  8008       L1    19  0.76

> <Gold.PLP.Chemscore.Internal.Correction>
0.0279

> <Gold.Rescore>
     Score         DG    S(hbond)    S(metal)    S(lipo)     H(rot)  DE(clash)    DE(int)     intcor
     11.66     -13.62       2.41        0.00      58.31       2.63       0.05       1.91       ----

> <Gold.Chemscore.Fitness>
11.6630

> <Gold.Chemscore.DG>
-13.6235

> <Gold.Chemscore.ZeroCoef>
-5.4800

> <Gold.Chemscore.Hbond>
2.4088

> <Gold.Chemscore.Metal>
0.0000

> <Gold.Chemscore.Lipo>
58.3058

> <Gold.Chemscore.Internal_Hbond>
0.0000

> <Gold.Chemscore.DEClash>
0.0512

> <Gold.Chemscore.DEInternal>
1.9093

> <Gold.Chemscore.Rot>
2.6264

> <Gold.Chemscore.Internal.Correction>
   9.000000E+99

> <Gold.Chemscore.Hbonds>
donor molecule, donor type, donor heavy atom, donor atom, acceptor molecule, acceptor atom, score
      P1  H  6896  6909       L1     5  0.98
      P1  H  6931  6943       L1     8  0.35
      P1  H  6934  6947       L1     8  0.13
      P1  H  7997  8008       L1    19  0.14

> <Gold.Chemscore.Hbond.Weighted>
-8.0454

> <Gold.Chemscore.Metal.Weighted>
-0.0000

> <Gold.Chemscore.Lipo.Weighted>
-6.8218

> <Gold.Chemscore.Internal_Hbond.Weighted>
0.0000

> <Gold.Chemscore.DEClash.Weighted>
0.0512

> <Gold.Chemscore.DEInternal.Weighted>
1.9093

> <Gold.Chemscore.Rot.Weighted>
6.7237

> <Gold.Chemscore.Internal.Correction.Weighted>
   9.000000E+99

> <Gold.Protein.RotatedTorsions>
[ 6907 6896 6895 6894 ] final   68.32 input  -60.11 | X-H torsion
[ 7974 7965 7964 7962 ] final    5.97 input  175.53 | X-H torsion
[ 8008 7997 7996 7995 ] final  -51.72 input   59.86 | X-H torsion
[ 10167 10162 10161 10158 ] final -120.45 input  -65.29 | X-H torsion
[ 10718 10713 10712 10709 ] final -137.20 input   66.30 | X-H torsion
[ 10763 10752 10751 10750 ] final -131.31 input  -60.55 | X-H torsion
[ 11005 11000 10999 10996 ] final  110.71 input  -57.11 | X-H torsion

> <Gold.Protein.ActiveResidues>
 VAL166  LYS551  ARG553  GLY616  TRP617  ASP618  TYR619  PRO620  LYS621  CYS622 
 ASP623  PHE694  ASN695  SER759  ASP760  ASP761  ALA762  ILE779  LEU786  VAL792 
 PHE793  MET794  SER795  GLU796  ALA797  LYS798  CYS799  TRP800  GLU811  SER814 

> <Gold.Protein.RotatedAtoms>
  152.4612  134.5179  159.9773 H   0  0  0  0  0  0  0  0  0  0  0  0  # atno 6907 bound_to 6896
  151.5228  133.3457  159.2912 H   0  0  0  0  0  0  0  0  0  0  0  0  # atno 6908 bound_to 6896
  150.8576  134.7949  159.7120 H   0  0  0  0  0  0  0  0  0  0  0  0  # atno 6909 bound_to 6896
  146.2437  140.0304  142.8390 H   0  0  0  0  0  0  0  0  0  0  0  0  # atno 7974 bound_to 7965
  154.4089  140.1241  156.4874 H   0  0  0  0  0  0  0  0  0  0  0  0  # atno 8008 bound_to 7997
  155.7024  140.3494  155.4919 H   0  0  0  0  0  0  0  0  0  0  0  0  # atno 8009 bound_to 7997
  155.9373  140.1080  157.1074 H   0  0  0  0  0  0  0  0  0  0  0  0  # atno 8010 bound_to 7997
  140.0357  143.5203  152.2155 H   0  0  0  0  0  0  0  0  0  0  0  0  # atno 10167 bound_to 10162
  156.2855  130.7345  151.1355 H   0  0  0  0  0  0  0  0  0  0  0  0  # atno 10718 bound_to 10713
  154.8751  135.3834  154.4226 H   0  0  0  0  0  0  0  0  0  0  0  0  # atno 10763 bound_to 10752
  153.4928  135.7030  153.5880 H   0  0  0  0  0  0  0  0  0  0  0  0  # atno 10764 bound_to 10752
  153.4246  135.3893  155.2100 H   0  0  0  0  0  0  0  0  0  0  0  0  # atno 10765 bound_to 10752
  139.8888  134.9491  156.6321 H   0  0  0  0  0  0  0  0  0  0  0  0  # atno 11005 bound_to 11000
  145.1160  140.9434  143.4628 LP  0  0  0  0  0  0  0  0  0  0  0  0  # atno 17320 bound_to 7965
  145.0529  139.3167  143.5919 LP  0  0  0  0  0  0  0  0  0  0  0  0  # atno 17321 bound_to 7965
  139.6047  144.7592  151.3091 LP  0  0  0  0  0  0  0  0  0  0  0  0  # atno 17342 bound_to 10162
  140.7282  143.6941  150.7898 LP  0  0  0  0  0  0  0  0  0  0  0  0  # atno 17343 bound_to 10162
  157.7327  131.0597  150.5614 LP  0  0  0  0  0  0  0  0  0  0  0  0  # atno 17370 bound_to 10713
  156.5724  130.4283  149.6013 LP  0  0  0  0  0  0  0  0  0  0  0  0  # atno 17371 bound_to 10713
  140.7658  133.8779  155.8453 LP  0  0  0  0  0  0  0  0  0  0  0  0  # atno 17394 bound_to 11000
  140.9883  134.1312  157.4431 LP  0  0  0  0  0  0  0  0  0  0  0  0  # atno 17395 bound_to 11000

$$$$
