AV-unprocessed.smi:3187|AV-procd|sdf|12176|dock4
  -GOLD-   2272018 13D 1   1.00000     0.00000
 Structure written by MMmdl.
 41 42  0  0  0  0  0  0  0  0  2 V2000
  147.9567  142.0127  154.1642 C   0  0  0  0  0  0  0  0  0  0  0  0
  149.0815  141.1954  154.7786 C   0  0  0  0  0  0  0  0  0  0  0  0
  149.7778  141.6938  155.8181 C   0  0  0  0  0  0  0  0  0  0  0  0
  150.9628  141.0077  156.4571 C   0  0  0  0  0  0  0  0  0  0  0  0
  151.5814  139.9822  155.5045 C   0  0  0  0  0  0  0  0  0  0  0  0
  150.5132  139.0443  154.9184 C   0  0  2  0  0  0  0  0  0  0  0  0
  151.1957  137.9773  154.0404 C   0  0  0  0  0  0  0  0  0  0  0  0
  149.3950  139.8196  154.1546 C   0  0  1  0  0  0  0  0  0  0  0  0
  148.1356  138.9249  154.0065 C   0  0  0  0  0  0  0  0  0  0  0  0
  147.8651  138.5394  152.6067 N   0  3  0  0  0  0  0  0  0  0  0  0
  146.4310  138.4063  152.2805 C   0  0  0  0  0  0  0  0  0  0  0  0
  145.7404  137.3734  153.1847 C   0  0  0  0  0  0  0  0  0  0  0  0
  145.2660  136.2239  152.4377 N   0  0  0  0  0  0  0  0  0  0  0  0
  144.0351  136.0833  151.8099 C   0  0  0  0  0  0  0  0  0  0  0  0
  144.0270  134.8315  151.2371 C   0  0  0  0  0  0  0  0  0  0  0  0
  145.2355  134.1895  151.4972 N   0  0  0  0  0  0  0  0  0  0  0  0
  145.9198  135.0767  152.2070 C   0  0  0  0  0  0  0  0  0  0  0  0
  148.0777  142.0778  153.0828 H   0  0  0  0  0  0  0  0  0  0  0  0
  147.9475  143.0304  154.5564 H   0  0  0  0  0  0  0  0  0  0  0  0
  146.9862  141.5707  154.3883 H   0  0  0  0  0  0  0  0  0  0  0  0
  149.5090  142.6524  156.2380 H   0  0  0  0  0  0  0  0  0  0  0  0
  151.7081  141.7571  156.7258 H   0  0  0  0  0  0  0  0  0  0  0  0
  150.6363  140.5328  157.3829 H   0  0  0  0  0  0  0  0  0  0  0  0
  152.0947  140.5023  154.6941 H   0  0  0  0  0  0  0  0  0  0  0  0
  152.3440  139.4107  156.0349 H   0  0  0  0  0  0  0  0  0  0  0  0
  150.0505  138.5301  155.7627 H   0  0  0  0  0  0  0  0  0  0  0  0
  151.6723  138.4283  153.1694 H   0  0  0  0  0  0  0  0  0  0  0  0
  150.4975  137.2231  153.6814 H   0  0  0  0  0  0  0  0  0  0  0  0
  151.9690  137.4495  154.5995 H   0  0  0  0  0  0  0  0  0  0  0  0
  149.7792  140.0366  153.1565 H   0  0  0  0  0  0  0  0  0  0  0  0
  148.2422  138.0015  154.5732 H   0  0  0  0  0  0  0  0  0  0  0  0
  147.2668  139.4391  154.4202 H   0  0  0  0  0  0  0  0  0  0  0  0
  148.2682  139.2398  152.0006 H   0  0  0  0  0  0  0  0  0  0  0  0
  145.9426  139.3773  152.3746 H   0  0  0  0  0  0  0  0  0  0  0  0
  146.3331  138.0995  151.2386 H   0  0  0  0  0  0  0  0  0  0  0  0
  146.4373  137.0192  153.9452 H   0  0  0  0  0  0  0  0  0  0  0  0
  144.9008  137.8261  153.7145 H   0  0  0  0  0  0  0  0  0  0  0  0
  143.2868  136.8622  151.8225 H   0  0  0  0  0  0  0  0  0  0  0  0
  143.2507  134.3479  150.6622 H   0  0  0  0  0  0  0  0  0  0  0  0
  146.9176  134.8839  152.5738 H   0  0  0  0  0  0  0  0  0  0  0  0
  148.3192  137.6554  152.4251 H   0  0  0  0  0  0  0  0  0  0  0  0
  1  2  1  0  0  0  0
  1 18  1  0  0  0  0
  1 19  1  0  0  0  0
  1 20  1  0  0  0  0
  2  8  1  0  0  0  0
  2  3  2  0  0  0  0
  3  4  1  0  0  0  0
  3 21  1  0  0  0  0
  4  5  1  0  0  0  0
  4 22  1  0  0  0  0
  4 23  1  0  0  0  0
  5  6  1  0  0  0  0
  5 24  1  0  0  0  0
  5 25  1  0  0  0  0
  6  7  1  0  0  0  0
  6  8  1  0  0  0  0
  6 26  1  0  0  0  0
  7 27  1  0  0  0  0
  7 28  1  0  0  0  0
  7 29  1  0  0  0  0
  8  9  1  0  0  0  0
  8 30  1  0  0  0  0
  9 10  1  0  0  0  0
  9 31  1  0  0  0  0
  9 32  1  0  0  0  0
 10 11  1  0  0  0  0
 10 33  1  0  0  0  0
 10 41  1  0  0  0  0
 11 12  1  0  0  0  0
 11 34  1  0  0  0  0
 11 35  1  0  0  0  0
 12 13  1  0  0  0  0
 12 36  1  0  0  0  0
 12 37  1  0  0  0  0
 13 17  1  0  0  0  0
 13 14  1  0  0  0  0
 14 15  2  0  0  0  0
 14 38  1  0  0  0  0
 15 16  1  0  0  0  0
 15 39  1  0  0  0  0
 16 17  2  0  0  0  0
 17 40  1  0  0  0  0
M  CHG  1  10   1
M  END
> <s_m_source_file>
AV-unprocessed.smi

> <i_m_source_file_index>
3187

> <i_lp_mmshare_version>
43012

> <i_f3d_flags>
0

> <s_epik_input>
W0NIM11DMT1bQ0hdW0NIMl1bQ0gyXVtDQEBIXShbQ0gzXSlbQ0BIXTFbQ0gyXVtOSF1bQ0gyXVtDSDJdbjJbY0hdW2NIXW5bY0hdMg==

> <s_epik_cmdline>
J2VwaWtfcHl0aG9uJywgJy1waCcsICc3LjAnLCAnLXRuJywgJzgnLCAnLW1hJywgJzIwMCcsICctbWV0YWxfYmluZGluZycsICctaW1hZScsICc8aW5maWxlLm1hZT4nLCAnLW9tYWUnLCAnPG91dGZpbGUubWFlPic=

> <r_lp_tautomer_probability>
1

> <r_epik_Ionization_Penalty>
0.0501625

> <r_epik_Ionization_Penalty_Charging>
0.0501625

> <r_epik_Ionization_Penalty_Neutral>
0

> <r_epik_State_Penalty>
0.0972392

> <r_epik_Charging_Adjusted_Penalty>
0.147402

> <i_epik_Tot_Q>
1

> <i_epik_Tot_abs_Q>
1

> <r_epik_Metal_State_Penalty>
0.000104376

> <b_epik_Metal_Only>
0

> <s_lp_Force_Field>
OPLS_2005

> <r_lp_Energy>
17.5131

> <b_lp_Chiralities_Consistent>
1

> <s_lp_Variant>
AV-unprocessed.smi:3187-2

> <Gold.Version>
5.8.1

> <Gold.Id.Protein>
6NUR|6NUR_protein|mol2

> <Gold.PLP.Fitness>
48.5185

> <Gold.PLP.PLP>
-35.3458

> <Gold.PLP.part.hbond>
-2.0000

> <Gold.PLP.part.metal>
0.0000

> <Gold.PLP.part.buried>
1.5230

> <Gold.PLP.part.nonpolar>
-33.7548

> <Gold.PLP.part.repulsive>
0.1946

> <Gold.PLP.ligand.clash>
0.0000

> <Gold.PLP.ligand.torsion>
1.6969

> <Gold.PLP.Chemscore.Hbond>
3.0000

> <Gold.PLP.Chemscore.CHOScore>
2.4869

> <Gold.PLP.Chemscore.Metal>
0.0000

> <Gold.Chemscore.Hbonds>
donor molecule, donor type, donor heavy atom, donor atom, acceptor molecule, acceptor atom, score
      L1  H    10    33       P1  7957  1.00
      L1  H    10    41       P1  7948  2.00
      L1  C    14    38       P1 10171  0.33
      L1  C    15    39       P1 10186  1.00
      L1  C    17    40       P1  7948  0.87

> <Gold.PLP.Chemscore.Internal.Correction>
0.1057

> <Gold.Rescore>
     Score         DG    S(hbond)    S(metal)    S(lipo)     H(rot)  DE(clash)    DE(int)     intcor
     15.21     -17.30       1.98        0.00      85.83       1.89       0.40       1.69       ----

> <Gold.Chemscore.Fitness>
15.2105

> <Gold.Chemscore.DG>
-17.3001

> <Gold.Chemscore.ZeroCoef>
-5.4800

> <Gold.Chemscore.Hbond>
1.9772

> <Gold.Chemscore.Metal>
0.0000

> <Gold.Chemscore.Lipo>
85.8338

> <Gold.Chemscore.Internal_Hbond>
0.0000

> <Gold.Chemscore.DEClash>
0.3975

> <Gold.Chemscore.DEInternal>
1.6921

> <Gold.Chemscore.Rot>
1.8853

> <Gold.Chemscore.Internal.Correction>
   9.000000E+99

> <Gold.Chemscore.Hbonds>
donor molecule, donor type, donor heavy atom, donor atom, acceptor molecule, acceptor atom, score
      L1  H    10    33       P1  7957  0.98
      L1  H    10    41       P1  7948  1.00

> <Gold.Chemscore.Hbond.Weighted>
-6.6038

> <Gold.Chemscore.Metal.Weighted>
-0.0000

> <Gold.Chemscore.Lipo.Weighted>
-10.0426

> <Gold.Chemscore.Internal_Hbond.Weighted>
0.0000

> <Gold.Chemscore.DEClash.Weighted>
0.3975

> <Gold.Chemscore.DEInternal.Weighted>
1.6921

> <Gold.Chemscore.Rot.Weighted>
4.8263

> <Gold.Chemscore.Internal.Correction.Weighted>
   9.000000E+99

> <Gold.Protein.RotatedTorsions>
[ 6907 6896 6895 6894 ] final -168.28 input  -60.11 | X-H torsion
[ 7974 7965 7964 7962 ] final  118.66 input  175.53 | X-H torsion
[ 8008 7997 7996 7995 ] final   -3.04 input   59.86 | X-H torsion
[ 10167 10162 10161 10158 ] final   31.06 input  -65.29 | X-H torsion
[ 10718 10713 10712 10709 ] final  127.30 input   66.30 | X-H torsion
[ 10763 10752 10751 10750 ] final  -45.33 input  -60.55 | X-H torsion
[ 11005 11000 10999 10996 ] final   87.60 input  -57.11 | X-H torsion

> <Gold.Protein.ActiveResidues>
 VAL166  LYS551  ARG553  GLY616  TRP617  ASP618  TYR619  PRO620  LYS621  CYS622 
 ASP623  PHE694  ASN695  SER759  ASP760  ASP761  ALA762  ILE779  LEU786  VAL792 
 PHE793  MET794  SER795  GLU796  ALA797  LYS798  CYS799  TRP800  GLU811  SER814 

> <Gold.Protein.RotatedAtoms>
  151.4730  133.3564  159.2826 H   0  0  0  0  0  0  0  0  0  0  0  0  # atno 6907 bound_to 6896
  150.8948  134.8357  159.7329 H   0  0  0  0  0  0  0  0  0  0  0  0  # atno 6908 bound_to 6896
  152.4844  134.4644  159.9667 H   0  0  0  0  0  0  0  0  0  0  0  0  # atno 6909 bound_to 6896
  145.1525  139.3202  143.4559 H   0  0  0  0  0  0  0  0  0  0  0  0  # atno 7974 bound_to 7965
  154.6292  140.2519  155.7455 H   0  0  0  0  0  0  0  0  0  0  0  0  # atno 8008 bound_to 7997
  156.2470  140.2910  156.0555 H   0  0  0  0  0  0  0  0  0  0  0  0  # atno 8009 bound_to 7997
  155.1773  140.0388  157.2865 H   0  0  0  0  0  0  0  0  0  0  0  0  # atno 8010 bound_to 7997
  140.4623  144.0888  150.6216 H   0  0  0  0  0  0  0  0  0  0  0  0  # atno 10167 bound_to 10162
  157.5345  131.1098  150.8957 H   0  0  0  0  0  0  0  0  0  0  0  0  # atno 10718 bound_to 10713
  154.0268  135.6662  153.4777 H   0  0  0  0  0  0  0  0  0  0  0  0  # atno 10763 bound_to 10752
  153.0557  135.5057  154.7971 H   0  0  0  0  0  0  0  0  0  0  0  0  # atno 10764 bound_to 10752
  154.6903  135.3060  154.9454 H   0  0  0  0  0  0  0  0  0  0  0  0  # atno 10765 bound_to 10752
  139.8915  134.8433  156.2883 H   0  0  0  0  0  0  0  0  0  0  0  0  # atno 11005 bound_to 11000
  146.3493  140.1604  142.8591 LP  0  0  0  0  0  0  0  0  0  0  0  0  # atno 17320 bound_to 7965
  145.0416  140.8949  143.5049 LP  0  0  0  0  0  0  0  0  0  0  0  0  # atno 17321 bound_to 7965
  140.4079  143.2671  151.9869 LP  0  0  0  0  0  0  0  0  0  0  0  0  # atno 17342 bound_to 10162
  139.4808  144.5941  151.7720 LP  0  0  0  0  0  0  0  0  0  0  0  0  # atno 17343 bound_to 10162
  156.9528  130.5426  149.5283 LP  0  0  0  0  0  0  0  0  0  0  0  0  # atno 17370 bound_to 10713
  156.0448  130.5526  150.8855 LP  0  0  0  0  0  0  0  0  0  0  0  0  # atno 17371 bound_to 10713
  140.9993  133.7161  156.0935 LP  0  0  0  0  0  0  0  0  0  0  0  0  # atno 17394 bound_to 11000
  140.7520  134.4035  157.5540 LP  0  0  0  0  0  0  0  0  0  0  0  0  # atno 17395 bound_to 11000

$$$$
