AV-unprocessed.smi:467|AV-procd|sdf|2647|dock5
  -GOLD-   2262023 53D 1   1.00000     0.00000
 Structure written by MMmdl.
 45 47  0  0  0  0  0  0  0  0  2 V2000
  152.5542  143.7433  162.1463 C   0  0  0  0  0  0  0  0  0  0  0  0
  152.1738  143.1666  160.7933 C   0  0  0  0  0  0  0  0  0  0  0  0
  152.5641  141.8426  160.4909 C   0  0  0  0  0  0  0  0  0  0  0  0
  152.2058  141.3448  159.2440 C   0  0  0  0  0  0  0  0  0  0  0  0
  152.4413  140.1005  158.6556 N   0  3  0  0  0  0  0  0  0  0  0  0
  151.8980  140.0784  157.4075 C   0  0  0  0  0  0  0  0  0  0  0  0
  151.3168  141.2892  157.1904 N   0  0  0  0  0  0  0  0  0  0  0  0
  150.6004  141.7811  156.0049 C   0  0  0  0  0  0  0  0  0  0  0  0
  149.9059  140.6510  155.2170 C   0  0  2  0  0  0  0  0  0  0  0  0
  150.8379  140.0359  154.3511 O   0  0  0  0  0  0  0  0  0  0  0  0
  148.7319  141.1597  154.3567 C   0  0  0  0  0  0  0  0  0  0  0  0
  147.6034  141.7218  155.0996 N   0  0  0  0  0  0  0  0  0  0  0  0
  147.1098  140.8221  156.1408 C   0  0  0  0  0  0  0  0  0  0  0  0
  145.9012  141.4137  156.8876 C   0  0  0  0  0  0  0  0  0  0  0  0
  144.8709  141.7323  155.9584 O   0  0  0  0  0  0  0  0  0  0  0  0
  145.3009  142.6481  154.9572 C   0  0  0  0  0  0  0  0  0  0  0  0
  146.5024  142.0550  154.2015 C   0  0  0  0  0  0  0  0  0  0  0  0
  151.4824  142.1129  158.3106 C   0  0  0  0  0  0  0  0  0  0  0  0
  151.0875  143.4185  158.5945 C   0  0  0  0  0  0  0  0  0  0  0  0
  151.4440  143.9440  159.8572 C   0  0  0  0  0  0  0  0  0  0  0  0
  151.0296  145.3667  160.1924 C   0  0  0  0  0  0  0  0  0  0  0  0
  153.1490  143.0382  162.7278 H   0  0  0  0  0  0  0  0  0  0  0  0
  151.6612  143.9833  162.7241 H   0  0  0  0  0  0  0  0  0  0  0  0
  153.1434  144.6524  162.0244 H   0  0  0  0  0  0  0  0  0  0  0  0
  153.1197  141.2444  161.1982 H   0  0  0  0  0  0  0  0  0  0  0  0
  151.9248  139.2502  156.7139 H   0  0  0  0  0  0  0  0  0  0  0  0
  149.8577  142.4956  156.3617 H   0  0  0  0  0  0  0  0  0  0  0  0
  151.2855  142.3468  155.3731 H   0  0  0  0  0  0  0  0  0  0  0  0
  149.5651  139.8794  155.9069 H   0  0  0  0  0  0  0  0  0  0  0  0
  150.3632  139.5282  153.7112 H   0  0  0  0  0  0  0  0  0  0  0  0
  149.1210  141.9186  153.6763 H   0  0  0  0  0  0  0  0  0  0  0  0
  148.3721  140.3489  153.7208 H   0  0  0  0  0  0  0  0  0  0  0  0
  146.8275  139.8648  155.6996 H   0  0  0  0  0  0  0  0  0  0  0  0
  147.8943  140.6134  156.8669 H   0  0  0  0  0  0  0  0  0  0  0  0
  145.5172  140.6979  157.6145 H   0  0  0  0  0  0  0  0  0  0  0  0
  146.1905  142.3086  157.4408 H   0  0  0  0  0  0  0  0  0  0  0  0
  144.4764  142.8378  154.2697 H   0  0  0  0  0  0  0  0  0  0  0  0
  145.5643  143.6030  155.4151 H   0  0  0  0  0  0  0  0  0  0  0  0
  146.8409  142.7689  153.4497 H   0  0  0  0  0  0  0  0  0  0  0  0
  146.1816  141.1625  153.6617 H   0  0  0  0  0  0  0  0  0  0  0  0
  150.5359  144.0135  157.8823 H   0  0  0  0  0  0  0  0  0  0  0  0
  150.4596  145.8184  159.3800 H   0  0  0  0  0  0  0  0  0  0  0  0
  151.9072  145.9891  160.3690 H   0  0  0  0  0  0  0  0  0  0  0  0
  150.4059  145.3846  161.0864 H   0  0  0  0  0  0  0  0  0  0  0  0
  152.9376  139.3230  159.0722 H   0  0  0  0  0  0  0  0  0  0  0  0
  1  2  1  0  0  0  0
  1 22  1  0  0  0  0
  1 23  1  0  0  0  0
  1 24  1  0  0  0  0
  2 20  1  0  0  0  0
  2  3  2  0  0  0  0
  3  4  1  0  0  0  0
  3 25  1  0  0  0  0
  4 18  2  0  0  0  0
  4  5  1  0  0  0  0
  5  6  2  0  0  0  0
  5 45  1  0  0  0  0
  6  7  1  0  0  0  0
  6 26  1  0  0  0  0
  7  8  1  0  0  0  0
  7 18  1  0  0  0  0
  8  9  1  0  0  0  0
  8 27  1  0  0  0  0
  8 28  1  0  0  0  0
  9 10  1  0  0  0  0
  9 11  1  0  0  0  0
  9 29  1  0  0  0  0
 10 30  1  0  0  0  0
 11 12  1  0  0  0  0
 11 31  1  0  0  0  0
 11 32  1  0  0  0  0
 12 17  1  0  0  0  0
 12 13  1  0  0  0  0
 13 14  1  0  0  0  0
 13 33  1  0  0  0  0
 13 34  1  0  0  0  0
 14 15  1  0  0  0  0
 14 35  1  0  0  0  0
 14 36  1  0  0  0  0
 15 16  1  0  0  0  0
 16 17  1  0  0  0  0
 16 37  1  0  0  0  0
 16 38  1  0  0  0  0
 17 39  1  0  0  0  0
 17 40  1  0  0  0  0
 18 19  1  0  0  0  0
 19 20  2  0  0  0  0
 19 41  1  0  0  0  0
 20 21  1  0  0  0  0
 21 42  1  0  0  0  0
 21 43  1  0  0  0  0
 21 44  1  0  0  0  0
M  CHG  1   5   1
M  END
> <s_m_source_file>
AV-unprocessed.smi

> <i_m_source_file_index>
467

> <i_lp_mmshare_version>
43012

> <i_f3d_flags>
0

> <s_epik_input>
W0NIM11jKFtjSF0xKWMoW0NIM10pW2NIXWMoYzEyKW4oW2NIXW4yKVtDSDJdW0NASF0oW09IXSlbQ0gyXU4zW0NIMl1bQ0gyXU9bQ0gyXVtDSDJdMw==

> <s_epik_cmdline>
J2VwaWtfcHl0aG9uJywgJy1waCcsICc3LjAnLCAnLXRuJywgJzgnLCAnLW1hJywgJzIwMCcsICctbWV0YWxfYmluZGluZycsICctaW1hZScsICc8aW5maWxlLm1hZT4nLCAnLW9tYWUnLCAnPG91dGZpbGUubWFlPic=

> <r_epik_Ionization_Penalty>
1.42557

> <r_epik_Ionization_Penalty_Charging>
1.21121

> <r_epik_Ionization_Penalty_Neutral>
0.214359

> <r_epik_State_Penalty>
1.47019

> <r_epik_Charging_Adjusted_Penalty>
2.68141

> <i_epik_Tot_Q>
1

> <i_epik_Tot_abs_Q>
1

> <r_epik_Metal_State_Penalty>
5.48819

> <b_epik_Metal_Only>
0

> <s_lp_Force_Field>
OPLS_2005

> <r_lp_Energy>
33.4521

> <b_lp_Chiralities_Consistent>
1

> <s_lp_Variant>
AV-unprocessed.smi:467-5

> <Gold.Version>
5.8.1

> <Gold.Id.Protein>
6NUR|6NUR_protein|mol2

> <Gold.PLP.Fitness>
48.9230

> <Gold.PLP.PLP>
-47.2198

> <Gold.PLP.part.hbond>
-1.0000

> <Gold.PLP.part.metal>
0.0000

> <Gold.PLP.part.buried>
-8.5183

> <Gold.PLP.part.nonpolar>
-38.7476

> <Gold.PLP.part.repulsive>
1.2185

> <Gold.PLP.ligand.clash>
0.0000

> <Gold.PLP.ligand.torsion>
0.6510

> <Gold.PLP.Chemscore.Hbond>
1.0000

> <Gold.PLP.Chemscore.CHOScore>
0.0000

> <Gold.PLP.Chemscore.Metal>
0.0000

> <Gold.Chemscore.Hbonds>
donor molecule, donor type, donor heavy atom, donor atom, acceptor molecule, acceptor atom, score
      P1  H  7989  7998       L1    10  0.75

> <Gold.PLP.Chemscore.Internal.Correction>
0.0052

> <Gold.Rescore>
     Score         DG    S(hbond)    S(metal)    S(lipo)     H(rot)  DE(clash)    DE(int)     intcor
     15.08     -16.22       0.69        0.00     117.58       2.08       0.18       0.96       ----

> <Gold.Chemscore.Fitness>
15.0833

> <Gold.Chemscore.DG>
-16.2198

> <Gold.Chemscore.ZeroCoef>
-5.4800

> <Gold.Chemscore.Hbond>
0.6917

> <Gold.Chemscore.Metal>
0.0000

> <Gold.Chemscore.Lipo>
117.5829

> <Gold.Chemscore.Internal_Hbond>
0.0000

> <Gold.Chemscore.DEClash>
0.1787

> <Gold.Chemscore.DEInternal>
0.9579

> <Gold.Chemscore.Rot>
2.0811

> <Gold.Chemscore.Internal.Correction>
   9.000000E+99

> <Gold.Chemscore.Hbonds>
donor molecule, donor type, donor heavy atom, donor atom, acceptor molecule, acceptor atom, score
      P1  H  7989  7998       L1    10  0.19

> <Gold.Chemscore.Hbond.Weighted>
-2.3102

> <Gold.Chemscore.Metal.Weighted>
-0.0000

> <Gold.Chemscore.Lipo.Weighted>
-13.7572

> <Gold.Chemscore.Internal_Hbond.Weighted>
0.0000

> <Gold.Chemscore.DEClash.Weighted>
0.1787

> <Gold.Chemscore.DEInternal.Weighted>
0.9579

> <Gold.Chemscore.Rot.Weighted>
5.3275

> <Gold.Chemscore.Internal.Correction.Weighted>
   9.000000E+99

> <Gold.Protein.RotatedTorsions>
[ 6907 6896 6895 6894 ] final   84.20 input  -60.11 | X-H torsion
[ 7974 7965 7964 7962 ] final   10.25 input  175.53 | X-H torsion
[ 8008 7997 7996 7995 ] final    4.14 input   59.86 | X-H torsion
[ 10167 10162 10161 10158 ] final  105.52 input  -65.29 | X-H torsion
[ 10718 10713 10712 10709 ] final   23.02 input   66.30 | X-H torsion
[ 10763 10752 10751 10750 ] final  120.05 input  -60.55 | X-H torsion
[ 11005 11000 10999 10996 ] final  -68.94 input  -57.11 | X-H torsion

> <Gold.Protein.ActiveResidues>
 VAL166  LYS551  ARG553  GLY616  TRP617  ASP618  TYR619  PRO620  LYS621  CYS622 
 ASP623  PHE694  ASN695  SER759  ASP760  ASP761  ALA762  ILE779  LEU786  VAL792 
 PHE793  MET794  SER795  GLU796  ALA797  LYS798  CYS799  TRP800  GLU811  SER814 

> <Gold.Protein.RotatedAtoms>
  152.5346  134.2778  159.8995 H   0  0  0  0  0  0  0  0  0  0  0  0  # atno 6907 bound_to 6896
  151.2733  133.4238  159.2630 H   0  0  0  0  0  0  0  0  0  0  0  0  # atno 6908 bound_to 6896
  151.0348  134.9580  159.8187 H   0  0  0  0  0  0  0  0  0  0  0  0  # atno 6909 bound_to 6896
  146.2391  139.9662  142.8452 H   0  0  0  0  0  0  0  0  0  0  0  0  # atno 7974 bound_to 7965
  154.7122  140.2695  155.6618 H   0  0  0  0  0  0  0  0  0  0  0  0  # atno 8008 bound_to 7997
  156.2799  140.2751  156.1692 H   0  0  0  0  0  0  0  0  0  0  0  0  # atno 8009 bound_to 7997
  155.0619  140.0371  157.2569 H   0  0  0  0  0  0  0  0  0  0  0  0  # atno 8010 bound_to 7997
  139.7086  144.7082  151.1065 H   0  0  0  0  0  0  0  0  0  0  0  0  # atno 10167 bound_to 10162
  157.1604  130.6714  149.6042 H   0  0  0  0  0  0  0  0  0  0  0  0  # atno 10718 bound_to 10713
  153.5926  135.3463  155.2916 H   0  0  0  0  0  0  0  0  0  0  0  0  # atno 10763 bound_to 10752
  154.8650  135.4208  154.2500 H   0  0  0  0  0  0  0  0  0  0  0  0  # atno 10764 bound_to 10752
  153.3311  135.7044  153.7018 H   0  0  0  0  0  0  0  0  0  0  0  0  # atno 10765 bound_to 10752
  141.1543  133.6752  156.6524 H   0  0  0  0  0  0  0  0  0  0  0  0  # atno 11005 bound_to 11000
  145.1724  140.9727  143.4314 LP  0  0  0  0  0  0  0  0  0  0  0  0  # atno 17320 bound_to 7965
  145.0016  139.3593  143.6164 LP  0  0  0  0  0  0  0  0  0  0  0  0  # atno 17321 bound_to 7965
  140.7727  143.5325  150.9407 LP  0  0  0  0  0  0  0  0  0  0  0  0  # atno 17342 bound_to 10162
  139.9009  143.6837  152.3131 LP  0  0  0  0  0  0  0  0  0  0  0  0  # atno 17343 bound_to 10162
  155.9755  130.4713  150.6462 LP  0  0  0  0  0  0  0  0  0  0  0  0  # atno 17370 bound_to 10713
  157.4138  131.0827  151.1196 LP  0  0  0  0  0  0  0  0  0  0  0  0  # atno 17371 bound_to 10713
  140.3310  134.7928  157.4326 LP  0  0  0  0  0  0  0  0  0  0  0  0  # atno 17394 bound_to 11000
  140.1017  134.5464  155.8347 LP  0  0  0  0  0  0  0  0  0  0  0  0  # atno 17395 bound_to 11000

$$$$
