AV-unprocessed.smi:2224|AV-procd|sdf|8993|dock5
  -GOLD-   2272012203D 1   1.00000     0.00000
 Structure written by MMmdl.
 44 46  0  0  0  0  0  0  0  0  1 V2000
  144.7121  133.6086  150.2636 C   0  0  0  0  0  0  0  0  0  0  0  0
  144.6687  134.7423  151.2666 C   0  0  0  0  0  0  0  0  0  0  0  0
  143.4413  135.2851  151.6924 C   0  0  0  0  0  0  0  0  0  0  0  0
  143.4694  136.3378  152.6281 C   0  0  0  0  0  0  0  0  0  0  0  0
  142.1873  136.9683  153.1296 C   0  0  0  0  0  0  0  0  0  0  0  0
  144.6144  136.8447  153.1332 N   0  0  0  0  0  0  0  0  0  0  0  0
  145.8024  136.3292  152.7304 C   0  0  0  0  0  0  0  0  0  0  0  0
  147.0611  136.7926  153.1962 N   0  0  0  0  0  0  0  0  0  0  0  0
  147.4037  137.1574  154.4440 C   0  0  0  0  0  0  0  0  0  0  0  0
  146.6603  137.1315  155.4252 O   0  0  0  0  0  0  0  0  0  0  0  0
  148.6836  137.5490  154.4966 N   0  0  0  0  0  0  0  0  0  0  0  0
  149.3835  137.9681  155.7123 C   0  0  2  0  0  0  0  0  0  0  0  0
  149.2189  139.4753  156.0110 C   0  0  2  0  0  0  0  0  0  0  0  0
  148.2289  140.3522  155.2838 C   0  0  0  0  0  0  0  0  0  0  0  0
  149.0890  141.0073  154.1991 C   0  0  0  0  0  0  0  0  0  0  0  0
  150.2217  140.1510  154.0646 O   0  0  0  0  0  0  0  0  0  0  0  0
  150.5783  139.6895  155.3659 C   0  0  2  0  0  0  0  0  0  0  0  0
  150.9054  138.1868  155.4968 C   0  0  0  0  0  0  0  0  0  0  0  0
  151.7651  137.8366  156.7150 C   0  0  0  0  0  0  0  0  0  0  0  0
  151.5859  137.5304  154.2877 C   0  0  0  0  0  0  0  0  0  0  0  0
  145.8631  135.2734  151.7933 C   0  0  0  0  0  0  0  0  0  0  0  0
  143.7173  133.3789  149.8805 H   0  0  0  0  0  0  0  0  0  0  0  0
  145.1151  132.7090  150.7291 H   0  0  0  0  0  0  0  0  0  0  0  0
  145.3488  133.8740  149.4193 H   0  0  0  0  0  0  0  0  0  0  0  0
  142.5038  134.9052  151.3130 H   0  0  0  0  0  0  0  0  0  0  0  0
  141.3242  136.6077  152.5695 H   0  0  0  0  0  0  0  0  0  0  0  0
  142.2289  138.0530  153.0261 H   0  0  0  0  0  0  0  0  0  0  0  0
  142.0361  136.7283  154.1821 H   0  0  0  0  0  0  0  0  0  0  0  0
  147.7874  136.8496  152.4981 H   0  0  0  0  0  0  0  0  0  0  0  0
  149.2255  137.5316  153.6453 H   0  0  0  0  0  0  0  0  0  0  0  0
  149.1571  137.3526  156.5850 H   0  0  0  0  0  0  0  0  0  0  0  0
  149.2633  139.6630  157.0849 H   0  0  0  0  0  0  0  0  0  0  0  0
  147.4111  139.7775  154.8496 H   0  0  0  0  0  0  0  0  0  0  0  0
  147.7850  141.1031  155.9379 H   0  0  0  0  0  0  0  0  0  0  0  0
  148.5583  141.1212  153.2536 H   0  0  0  0  0  0  0  0  0  0  0  0
  149.4270  141.9928  154.5226 H   0  0  0  0  0  0  0  0  0  0  0  0
  151.2284  140.3755  155.9112 H   0  0  0  0  0  0  0  0  0  0  0  0
  152.7833  138.2123  156.6097 H   0  0  0  0  0  0  0  0  0  0  0  0
  151.8247  136.7582  156.8649 H   0  0  0  0  0  0  0  0  0  0  0  0
  151.3586  138.2655  157.6312 H   0  0  0  0  0  0  0  0  0  0  0  0
  152.6267  137.8419  154.1956 H   0  0  0  0  0  0  0  0  0  0  0  0
  151.0976  137.7903  153.3482 H   0  0  0  0  0  0  0  0  0  0  0  0
  151.5737  136.4430  154.3666 H   0  0  0  0  0  0  0  0  0  0  0  0
  146.8160  134.8709  151.4808 H   0  0  0  0  0  0  0  0  0  0  0  0
  1  2  1  0  0  0  0
  1 22  1  0  0  0  0
  1 23  1  0  0  0  0
  1 24  1  0  0  0  0
  2 21  1  0  0  0  0
  2  3  2  0  0  0  0
  3  4  1  0  0  0  0
  3 25  1  0  0  0  0
  4  5  1  0  0  0  0
  4  6  2  0  0  0  0
  5 26  1  0  0  0  0
  5 27  1  0  0  0  0
  5 28  1  0  0  0  0
  6  7  1  0  0  0  0
  7  8  1  0  0  0  0
  7 21  2  0  0  0  0
  8  9  1  0  0  0  0
  8 29  1  0  0  0  0
  9 10  2  0  0  0  0
  9 11  1  0  0  0  0
 11 12  1  0  0  0  0
 11 30  1  0  0  0  0
 12 18  1  0  0  0  0
 12 13  1  0  0  0  0
 12 31  1  0  0  0  0
 13 17  1  0  0  0  0
 13 14  1  0  0  0  0
 13 32  1  0  0  0  0
 14 15  1  0  0  0  0
 14 33  1  0  0  0  0
 14 34  1  0  0  0  0
 15 16  1  0  0  0  0
 15 35  1  0  0  0  0
 15 36  1  0  0  0  0
 16 17  1  0  0  0  0
 17 18  1  0  0  0  0
 17 37  1  0  0  0  0
 18 19  1  0  0  0  0
 18 20  1  0  0  0  0
 19 38  1  0  0  0  0
 19 39  1  0  0  0  0
 19 40  1  0  0  0  0
 20 41  1  0  0  0  0
 20 42  1  0  0  0  0
 20 43  1  0  0  0  0
 21 44  1  0  0  0  0
M  END
> <s_m_source_file>
AV-unprocessed.smi

> <i_m_source_file_index>
2224

> <i_lp_mmshare_version>
43012

> <i_f3d_flags>
0

> <s_epik_input>
W0NIM11jMVtjSF1jKFtDSDNdKW5jKFtjSF0xKVtOSF1DKD1PKVtOSF1bQ0BIXTJDKFtDSDNdKShbQ0gzXSlbQ0BIXShbQ0BASF0yMylPW0NIMl1bQ0gyXTM=

> <s_epik_cmdline>
J2VwaWtfcHl0aG9uJywgJy1waCcsICc3LjAnLCAnLXRuJywgJzgnLCAnLW1hJywgJzIwMCcsICctbWV0YWxfYmluZGluZycsICctaW1hZScsICc8aW5maWxlLm1hZT4nLCAnLW9tYWUnLCAnPG91dGZpbGUubWFlPic=

> <r_lp_tautomer_probability>
1

> <r_epik_Ionization_Penalty>
0.000276544

> <r_epik_Ionization_Penalty_Charging>
0

> <r_epik_Ionization_Penalty_Neutral>
0.000276544

> <r_epik_State_Penalty>
-0

> <r_epik_Charging_Adjusted_Penalty>
0

> <i_epik_Tot_Q>
0

> <i_epik_Tot_abs_Q>
0

> <r_epik_Metal_State_Penalty>
-0

> <b_epik_Metal_Only>
0

> <s_lp_Force_Field>
OPLS_2005

> <r_lp_Energy>
39.8946

> <b_lp_Chiralities_Consistent>
1

> <s_lp_Variant>
AV-unprocessed.smi:2224-3

> <Gold.Version>
5.8.1

> <Gold.Id.Protein>
6NUR|6NUR_protein|mol2

> <Gold.PLP.Fitness>
31.5453

> <Gold.PLP.PLP>
-25.8897

> <Gold.PLP.part.hbond>
-2.7583

> <Gold.PLP.part.metal>
0.0000

> <Gold.PLP.part.buried>
-5.4146

> <Gold.PLP.part.nonpolar>
-20.8437

> <Gold.PLP.part.repulsive>
1.2291

> <Gold.PLP.ligand.clash>
0.0000

> <Gold.PLP.ligand.torsion>
0.5239

> <Gold.PLP.Chemscore.Hbond>
2.1719

> <Gold.PLP.Chemscore.CHOScore>
0.0000

> <Gold.PLP.Chemscore.Metal>
0.0000

> <Gold.Chemscore.Hbonds>
donor molecule, donor type, donor heavy atom, donor atom, acceptor molecule, acceptor atom, score
      L1  H     8    29       P1  7948  0.81
      L1  H    11    30       P1  7948  0.34
      P1  H  7989  7998       L1    16  0.96

> <Gold.PLP.Chemscore.Internal.Correction>
0.1877

> <Gold.Rescore>
     Score         DG    S(hbond)    S(metal)    S(lipo)     H(rot)  DE(clash)    DE(int)     intcor
     15.64     -17.01       1.85        0.00      67.60       1.00       0.20       1.17       ----

> <Gold.Chemscore.Fitness>
15.6448

> <Gold.Chemscore.DG>
-17.0100

> <Gold.Chemscore.ZeroCoef>
-5.4800

> <Gold.Chemscore.Hbond>
1.8506

> <Gold.Chemscore.Metal>
0.0000

> <Gold.Chemscore.Lipo>
67.5988

> <Gold.Chemscore.Internal_Hbond>
0.0000

> <Gold.Chemscore.DEClash>
0.1978

> <Gold.Chemscore.DEInternal>
1.1675

> <Gold.Chemscore.Rot>
1.0000

> <Gold.Chemscore.Internal.Correction>
   9.000000E+99

> <Gold.Chemscore.Hbonds>
donor molecule, donor type, donor heavy atom, donor atom, acceptor molecule, acceptor atom, score
      L1  H     8    29       P1  7948  0.75
      L1  H    11    30       P1  7948  0.35
      P1  H  7989  7998       L1    16  0.43

> <Gold.Chemscore.Hbond.Weighted>
-6.1810

> <Gold.Chemscore.Metal.Weighted>
-0.0000

> <Gold.Chemscore.Lipo.Weighted>
-7.9091

> <Gold.Chemscore.Internal_Hbond.Weighted>
0.0000

> <Gold.Chemscore.DEClash.Weighted>
0.1978

> <Gold.Chemscore.DEInternal.Weighted>
1.1675

> <Gold.Chemscore.Rot.Weighted>
2.5600

> <Gold.Chemscore.Internal.Correction.Weighted>
   9.000000E+99

> <Gold.Protein.RotatedTorsions>
[ 6907 6896 6895 6894 ] final   93.81 input  -60.11 | X-H torsion
[ 7974 7965 7964 7962 ] final  136.25 input  175.53 | X-H torsion
[ 8008 7997 7996 7995 ] final  159.70 input   59.86 | X-H torsion
[ 10167 10162 10161 10158 ] final -109.81 input  -65.29 | X-H torsion
[ 10718 10713 10712 10709 ] final    4.26 input   66.30 | X-H torsion
[ 10763 10752 10751 10750 ] final   44.52 input  -60.55 | X-H torsion
[ 11005 11000 10999 10996 ] final  -53.40 input  -57.11 | X-H torsion

> <Gold.Protein.ActiveResidues>
 VAL166  LYS551  ARG553  GLY616  TRP617  ASP618  TYR619  PRO620  LYS621  CYS622 
 ASP623  PHE694  ASN695  SER759  ASP760  ASP761  ALA762  ILE779  LEU786  VAL792 
 PHE793  MET794  SER795  GLU796  ALA797  LYS798  CYS799  TRP800  GLU811  SER814 

> <Gold.Protein.RotatedAtoms>
  152.5451  134.1291  159.8430 H   0  0  0  0  0  0  0  0  0  0  0  0  # atno 6907 bound_to 6896
  151.1338  133.5011  159.2606 H   0  0  0  0  0  0  0  0  0  0  0  0  # atno 6908 bound_to 6896
  151.1646  135.0299  159.8780 H   0  0  0  0  0  0  0  0  0  0  0  0  # atno 6909 bound_to 6896
  144.9584  139.4739  143.5492 H   0  0  0  0  0  0  0  0  0  0  0  0  # atno 7974 bound_to 7965
  156.2221  140.1824  156.7451 H   0  0  0  0  0  0  0  0  0  0  0  0  # atno 8008 bound_to 7997
  154.5882  140.0655  156.9230 H   0  0  0  0  0  0  0  0  0  0  0  0  # atno 8009 bound_to 7997
  155.2382  140.3320  155.4298 H   0  0  0  0  0  0  0  0  0  0  0  0  # atno 8010 bound_to 7997
  140.1513  143.4197  152.1493 H   0  0  0  0  0  0  0  0  0  0  0  0  # atno 10167 bound_to 10162
  156.8900  130.5684  149.5650 H   0  0  0  0  0  0  0  0  0  0  0  0  # atno 10718 bound_to 10713
  152.9840  135.6068  154.3287 H   0  0  0  0  0  0  0  0  0  0  0  0  # atno 10763 bound_to 10752
  154.2992  135.2773  155.2621 H   0  0  0  0  0  0  0  0  0  0  0  0  # atno 10764 bound_to 10752
  154.4881  135.5899  153.6495 H   0  0  0  0  0  0  0  0  0  0  0  0  # atno 10765 bound_to 10752
  141.0974  133.6622  156.4167 H   0  0  0  0  0  0  0  0  0  0  0  0  # atno 11005 bound_to 11000
  146.3345  139.8716  142.8839 LP  0  0  0  0  0  0  0  0  0  0  0  0  # atno 17320 bound_to 7965
  145.2738  141.0117  143.3757 LP  0  0  0  0  0  0  0  0  0  0  0  0  # atno 17321 bound_to 7965
  139.5425  144.7269  151.4689 LP  0  0  0  0  0  0  0  0  0  0  0  0  # atno 17342 bound_to 10162
  140.6701  143.8313  150.6989 LP  0  0  0  0  0  0  0  0  0  0  0  0  # atno 17343 bound_to 10162
  156.0633  130.5682  150.9238 LP  0  0  0  0  0  0  0  0  0  0  0  0  # atno 17370 bound_to 10713
  157.6089  131.0937  150.8830 LP  0  0  0  0  0  0  0  0  0  0  0  0  # atno 17371 bound_to 10713
  140.5107  134.6398  157.5283 LP  0  0  0  0  0  0  0  0  0  0  0  0  # atno 17394 bound_to 11000
  139.9815  134.7130  155.9852 LP  0  0  0  0  0  0  0  0  0  0  0  0  # atno 17395 bound_to 11000

$$$$
