AV-unprocessed.smi:3232|AV-procd|sdf|12342|dock10
  -GOLD-   2272018203D 1   1.00000     0.00000
 Structure written by MMmdl.
 40 41  0  0  0  0  0  0  0  0  2 V2000
  147.5977  140.6094  153.3839 C   0  0  0  0  0  0  0  0  0  0  0  0
  148.5960  141.3624  154.2735 C   0  0  0  0  0  0  0  0  0  0  0  0
  149.3459  140.4507  155.1712 N   0  3  1  0  0  0  0  0  0  0  0  0
  149.9348  139.2702  154.5050 C   0  0  0  0  0  0  0  0  0  0  0  0
  151.0668  138.8255  155.4216 C   0  0  0  0  0  0  0  0  0  0  0  0
  151.6256  140.1461  155.9385 C   0  0  0  0  0  0  0  0  0  0  0  0
  150.4226  141.1115  155.9514 C   0  0  2  0  0  0  0  0  0  0  0  0
  149.9221  141.4604  157.3690 C   0  0  0  0  0  0  0  0  0  0  0  0
  150.8776  142.2820  158.1025 N   0  0  0  0  0  0  0  0  0  0  0  0
  150.6058  143.4759  158.6521 C   0  0  0  0  0  0  0  0  0  0  0  0
  149.4823  143.9805  158.6373 O   0  0  0  0  0  0  0  0  0  0  0  0
  151.7950  144.2115  159.2883 C   0  0  2  0  0  0  0  0  0  0  0  0
  152.9121  144.5374  158.2798 C   0  0  0  0  0  0  0  0  0  0  0  0
  152.3131  143.4406  160.4104 N   0  0  0  0  0  0  0  0  0  0  0  0
  152.9362  142.2591  160.4485 C   0  0  0  0  0  0  0  0  0  0  0  0
  153.2510  141.8574  161.6716 N   0  0  0  0  0  0  0  0  0  0  0  0
  152.7675  142.9140  162.3900 C   0  0  0  0  0  0  0  0  0  0  0  0
  152.1914  143.8866  161.6835 N   0  0  0  0  0  0  0  0  0  0  0  0
  147.0160  141.3077  152.7818 H   0  0  0  0  0  0  0  0  0  0  0  0
  146.8973  140.0266  153.9825 H   0  0  0  0  0  0  0  0  0  0  0  0
  148.1023  139.9292  152.6977 H   0  0  0  0  0  0  0  0  0  0  0  0
  149.2899  141.9410  153.6621 H   0  0  0  0  0  0  0  0  0  0  0  0
  148.0452  142.0789  154.8843 H   0  0  0  0  0  0  0  0  0  0  0  0
  149.1966  138.4836  154.3465 H   0  0  0  0  0  0  0  0  0  0  0  0
  150.3415  139.5555  153.5332 H   0  0  0  0  0  0  0  0  0  0  0  0
  150.6656  138.2423  156.2515 H   0  0  0  0  0  0  0  0  0  0  0  0
  151.8142  138.2176  154.9106 H   0  0  0  0  0  0  0  0  0  0  0  0
  152.1109  140.0324  156.9083 H   0  0  0  0  0  0  0  0  0  0  0  0
  152.3802  140.5172  155.2436 H   0  0  0  0  0  0  0  0  0  0  0  0
  150.7236  142.0279  155.4405 H   0  0  0  0  0  0  0  0  0  0  0  0
  148.9621  141.9774  157.3196 H   0  0  0  0  0  0  0  0  0  0  0  0
  149.7512  140.5475  157.9404 H   0  0  0  0  0  0  0  0  0  0  0  0
  151.8258  141.9385  158.1636 H   0  0  0  0  0  0  0  0  0  0  0  0
  151.4162  145.1597  159.6747 H   0  0  0  0  0  0  0  0  0  0  0  0
  152.5318  145.1277  157.4453 H   0  0  0  0  0  0  0  0  0  0  0  0
  153.3654  143.6337  157.8702 H   0  0  0  0  0  0  0  0  0  0  0  0
  153.7048  145.1167  158.7541 H   0  0  0  0  0  0  0  0  0  0  0  0
  153.1576  141.6794  159.5642 H   0  0  0  0  0  0  0  0  0  0  0  0
  152.8376  142.9657  163.4665 H   0  0  0  0  0  0  0  0  0  0  0  0
  148.6923  140.0938  155.8534 H   0  0  0  0  0  0  0  0  0  0  0  0
  1  2  1  0  0  0  0
  1 19  1  0  0  0  0
  1 20  1  0  0  0  0
  1 21  1  0  0  0  0
  2  3  1  0  0  0  0
  2 22  1  0  0  0  0
  2 23  1  0  0  0  0
  3  7  1  0  0  0  0
  3  4  1  0  0  0  0
  3 40  1  0  0  0  0
  4  5  1  0  0  0  0
  4 24  1  0  0  0  0
  4 25  1  0  0  0  0
  5  6  1  0  0  0  0
  5 26  1  0  0  0  0
  5 27  1  0  0  0  0
  6  7  1  0  0  0  0
  6 28  1  0  0  0  0
  6 29  1  0  0  0  0
  7  8  1  0  0  0  0
  7 30  1  0  0  0  0
  8  9  1  0  0  0  0
  8 31  1  0  0  0  0
  8 32  1  0  0  0  0
  9 10  1  0  0  0  0
  9 33  1  0  0  0  0
 10 11  2  0  0  0  0
 10 12  1  0  0  0  0
 12 13  1  0  0  0  0
 12 14  1  0  0  0  0
 12 34  1  0  0  0  0
 13 35  1  0  0  0  0
 13 36  1  0  0  0  0
 13 37  1  0  0  0  0
 14 18  1  0  0  0  0
 14 15  1  0  0  0  0
 15 16  2  0  0  0  0
 15 38  1  0  0  0  0
 16 17  1  0  0  0  0
 17 18  2  0  0  0  0
 17 39  1  0  0  0  0
M  CHG  1   3   1
M  END
> <s_m_source_file>
AV-unprocessed.smi

> <i_m_source_file_index>
3232

> <i_lp_mmshare_version>
43012

> <i_f3d_flags>
0

> <s_epik_input>
W0NIM11bQ0gyXU4xW0NIMl1bQ0gyXVtDSDJdW0NASF0xW0NIMl1bTkhdQyg9TylbQ0BIXShbQ0gzXSluMltjSF1uW2NIXW4y

> <s_epik_cmdline>
J2VwaWtfcHl0aG9uJywgJy1waCcsICc3LjAnLCAnLXRuJywgJzgnLCAnLW1hJywgJzIwMCcsICctbWV0YWxfYmluZGluZycsICctaW1hZScsICc8aW5maWxlLm1hZT4nLCAnLW9tYWUnLCAnPG91dGZpbGUubWFlPic=

> <r_lp_tautomer_probability>
1

> <r_epik_Ionization_Penalty>
0.00177695

> <r_epik_Ionization_Penalty_Charging>
0.00176881

> <r_epik_Ionization_Penalty_Neutral>
8.13528e-06

> <r_epik_State_Penalty>
0.00119827

> <r_epik_Charging_Adjusted_Penalty>
0.00296709

> <i_epik_Tot_Q>
1

> <i_epik_Tot_abs_Q>
1

> <r_epik_Metal_State_Penalty>
-0

> <b_epik_Metal_Only>
0

> <s_lp_Force_Field>
OPLS_2005

> <r_lp_Energy>
32.398

> <b_lp_Chiralities_Consistent>
1

> <s_lp_Variant>
AV-unprocessed.smi:3232-4

> <Gold.Version>
5.8.1

> <Gold.Id.Protein>
6NUR|6NUR_protein|mol2

> <Gold.PLP.Fitness>
43.4741

> <Gold.PLP.PLP>
-43.7133

> <Gold.PLP.part.hbond>
0.0000

> <Gold.PLP.part.metal>
0.0000

> <Gold.PLP.part.buried>
-5.9132

> <Gold.PLP.part.nonpolar>
-38.6106

> <Gold.PLP.part.repulsive>
0.7883

> <Gold.PLP.ligand.clash>
0.0000

> <Gold.PLP.ligand.torsion>
0.1590

> <Gold.PLP.Chemscore.Hbond>
0.0000

> <Gold.PLP.Chemscore.CHOScore>
0.0000

> <Gold.PLP.Chemscore.Metal>
0.0000

> <Gold.PLP.Chemscore.Internal.Correction>
0.0788

> <Gold.Rescore>
     Score         DG    S(hbond)    S(metal)    S(lipo)     H(rot)  DE(clash)    DE(int)     intcor
      7.41      -7.65       0.00        0.00      72.97       2.49       0.13       0.11       ----

> <Gold.Chemscore.Fitness>
7.4073

> <Gold.Chemscore.DG>
-7.6481

> <Gold.Chemscore.ZeroCoef>
-5.4800

> <Gold.Chemscore.Hbond>
0.0000

> <Gold.Chemscore.Metal>
0.0000

> <Gold.Chemscore.Lipo>
72.9733

> <Gold.Chemscore.Internal_Hbond>
0.0000

> <Gold.Chemscore.DEClash>
0.1288

> <Gold.Chemscore.DEInternal>
0.1121

> <Gold.Chemscore.Rot>
2.4882

> <Gold.Chemscore.Internal.Correction>
   9.000000E+99

> <Gold.Chemscore.Hbond.Weighted>
-0.0000

> <Gold.Chemscore.Metal.Weighted>
-0.0000

> <Gold.Chemscore.Lipo.Weighted>
-8.5379

> <Gold.Chemscore.Internal_Hbond.Weighted>
0.0000

> <Gold.Chemscore.DEClash.Weighted>
0.1288

> <Gold.Chemscore.DEInternal.Weighted>
0.1121

> <Gold.Chemscore.Rot.Weighted>
6.3697

> <Gold.Chemscore.Internal.Correction.Weighted>
   9.000000E+99

> <Gold.Protein.RotatedTorsions>
[ 6907 6896 6895 6894 ] final  119.02 input  -60.11 | X-H torsion
[ 7974 7965 7964 7962 ] final  -98.82 input  175.53 | X-H torsion
[ 8008 7997 7996 7995 ] final -142.76 input   59.86 | X-H torsion
[ 10167 10162 10161 10158 ] final    9.46 input  -65.29 | X-H torsion
[ 10718 10713 10712 10709 ] final  -57.31 input   66.30 | X-H torsion
[ 10763 10752 10751 10750 ] final  -26.43 input  -60.55 | X-H torsion
[ 11005 11000 10999 10996 ] final  -66.12 input  -57.11 | X-H torsion

> <Gold.Protein.ActiveResidues>
 VAL166  LYS551  ARG553  GLY616  TRP617  ASP618  TYR619  PRO620  LYS621  CYS622 
 ASP623  PHE694  ASN695  SER759  ASP760  ASP761  ALA762  ILE779  LEU786  VAL792 
 PHE793  MET794  SER795  GLU796  ALA797  LYS798  CYS799  TRP800  GLU811  SER814 

> <Gold.Protein.RotatedAtoms>
  152.4502  133.7613  159.6748 H   0  0  0  0  0  0  0  0  0  0  0  0  # atno 6907 bound_to 6896
  150.8411  133.7924  159.3066 H   0  0  0  0  0  0  0  0  0  0  0  0  # atno 6908 bound_to 6896
  151.5548  135.1069  160.0010 H   0  0  0  0  0  0  0  0  0  0  0  0  # atno 6909 bound_to 6896
  145.3156  140.9410  143.2745 H   0  0  0  0  0  0  0  0  0  0  0  0  # atno 7974 bound_to 7965
  155.4994  140.0574  157.2941 H   0  0  0  0  0  0  0  0  0  0  0  0  # atno 8008 bound_to 7997
  154.4593  140.1988  156.0241 H   0  0  0  0  0  0  0  0  0  0  0  0  # atno 8009 bound_to 7997
  156.0859  140.3240  155.7757 H   0  0  0  0  0  0  0  0  0  0  0  0  # atno 8010 bound_to 7997
  140.6254  143.8113  150.7226 H   0  0  0  0  0  0  0  0  0  0  0  0  # atno 10167 bound_to 10162
  156.1221  130.4165  150.0423 H   0  0  0  0  0  0  0  0  0  0  0  0  # atno 10718 bound_to 10713
  153.7158  135.6948  153.5025 H   0  0  0  0  0  0  0  0  0  0  0  0  # atno 10763 bound_to 10752
  153.2239  135.4360  155.0520 H   0  0  0  0  0  0  0  0  0  0  0  0  # atno 10764 bound_to 10752
  154.8300  135.3467  154.6693 H   0  0  0  0  0  0  0  0  0  0  0  0  # atno 10765 bound_to 10752
  141.1473  133.6693  156.6091 H   0  0  0  0  0  0  0  0  0  0  0  0  # atno 11005 bound_to 11000
  144.8981  139.4686  143.6646 LP  0  0  0  0  0  0  0  0  0  0  0  0  # atno 17320 bound_to 7965
  146.3102  139.7718  142.9026 LP  0  0  0  0  0  0  0  0  0  0  0  0  # atno 17321 bound_to 7965
  140.1712  143.4192  152.1999 LP  0  0  0  0  0  0  0  0  0  0  0  0  # atno 17342 bound_to 10162
  139.5475  144.7310  151.4537 LP  0  0  0  0  0  0  0  0  0  0  0  0  # atno 17343 bound_to 10162
  156.8358  130.9408  151.3634 LP  0  0  0  0  0  0  0  0  0  0  0  0  # atno 17370 bound_to 10713
  157.6404  130.8801  149.9437 LP  0  0  0  0  0  0  0  0  0  0  0  0  # atno 17371 bound_to 10713
  140.3628  134.7672  157.4546 LP  0  0  0  0  0  0  0  0  0  0  0  0  # atno 17394 bound_to 11000
  140.0771  134.5782  155.8579 LP  0  0  0  0  0  0  0  0  0  0  0  0  # atno 17395 bound_to 11000

$$$$
