AV-unprocessed.smi:1904|AV-procd|sdf|7724|dock6
  -GOLD-   22720 9463D 1   1.00000     0.00000
 Structure written by MMmdl.
 50 51  0  0  0  0  0  0  0  0  2 V2000
  152.4739  138.6667  154.6943 C   0  0  0  0  0  0  0  0  0  0  0  0
  151.5270  139.5330  155.4747 C   0  0  0  0  0  0  0  0  0  0  0  0
  151.9916  140.2481  156.4853 N   0  0  0  0  0  0  0  0  0  0  0  0
  150.9142  140.8940  156.9745 N   0  0  0  0  0  0  0  0  0  0  0  0
  151.0734  141.7828  158.1088 C   0  0  0  0  0  0  0  0  0  0  0  0
  149.7642  140.5789  156.2772 C   0  0  0  0  0  0  0  0  0  0  0  0
  148.4325  141.1554  156.6364 C   0  0  0  0  0  0  0  0  0  0  0  0
  150.1223  139.7001  155.2896 C   0  0  0  0  0  0  0  0  0  0  0  0
  149.2481  139.0442  154.2508 C   0  0  0  0  0  0  0  0  0  0  0  0
  148.2131  138.1614  154.9471 C   0  0  0  0  0  0  0  0  0  0  0  0
  147.5843  138.5927  155.9135 O   0  0  0  0  0  0  0  0  0  0  0  0
  148.0629  136.9185  154.4637 N   0  0  0  0  0  0  0  0  0  0  0  0
  147.1837  135.9045  155.0313 C   0  0  0  0  0  0  0  0  0  0  0  0
  147.3419  134.5605  154.2943 C   0  0  0  0  0  0  0  0  0  0  0  0
  146.8255  134.6032  152.9028 N   0  3  2  0  0  0  0  0  0  0  0  0
  145.4314  135.1142  152.8439 C   0  0  0  0  0  0  0  0  0  0  0  0
  144.9577  135.2856  151.3894 C   0  0  0  0  0  0  0  0  0  0  0  0
  145.0893  133.9851  150.5764 C   0  0  2  0  0  0  0  0  0  0  0  0
  144.0206  132.9407  150.9439 C   0  0  0  0  0  0  0  0  0  0  0  0
  146.5231  133.4418  150.7112 C   0  0  0  0  0  0  0  0  0  0  0  0
  146.9630  133.3102  152.1807 C   0  0  0  0  0  0  0  0  0  0  0  0
  152.2139  138.6538  153.6359 H   0  0  0  0  0  0  0  0  0  0  0  0
  152.4461  137.6386  155.0552 H   0  0  0  0  0  0  0  0  0  0  0  0
  153.5024  139.0205  154.7749 H   0  0  0  0  0  0  0  0  0  0  0  0
  150.5907  142.7376  157.8996 H   0  0  0  0  0  0  0  0  0  0  0  0
  152.1301  141.9618  158.3125 H   0  0  0  0  0  0  0  0  0  0  0  0
  150.6136  141.3356  158.9904 H   0  0  0  0  0  0  0  0  0  0  0  0
  147.6245  140.6393  156.1185 H   0  0  0  0  0  0  0  0  0  0  0  0
  148.3838  142.2111  156.3692 H   0  0  0  0  0  0  0  0  0  0  0  0
  148.2459  141.0678  157.7069 H   0  0  0  0  0  0  0  0  0  0  0  0
  148.7253  139.7803  153.6399 H   0  0  0  0  0  0  0  0  0  0  0  0
  149.8380  138.4462  153.5550 H   0  0  0  0  0  0  0  0  0  0  0  0
  148.6179  136.6501  153.6636 H   0  0  0  0  0  0  0  0  0  0  0  0
  147.3842  135.7848  156.0974 H   0  0  0  0  0  0  0  0  0  0  0  0
  146.1648  136.2801  154.9460 H   0  0  0  0  0  0  0  0  0  0  0  0
  148.3854  134.2409  154.2918 H   0  0  0  0  0  0  0  0  0  0  0  0
  146.7901  133.8002  154.8493 H   0  0  0  0  0  0  0  0  0  0  0  0
  144.7695  134.4371  153.3857 H   0  0  0  0  0  0  0  0  0  0  0  0
  145.3726  136.0792  153.3489 H   0  0  0  0  0  0  0  0  0  0  0  0
  143.9267  135.6409  151.3707 H   0  0  0  0  0  0  0  0  0  0  0  0
  145.5540  136.0658  150.9141 H   0  0  0  0  0  0  0  0  0  0  0  0
  144.9281  134.2343  149.5266 H   0  0  0  0  0  0  0  0  0  0  0  0
  144.0969  132.6194  151.9821 H   0  0  0  0  0  0  0  0  0  0  0  0
  144.1121  132.0530  150.3172 H   0  0  0  0  0  0  0  0  0  0  0  0
  143.0169  133.3407  150.7961 H   0  0  0  0  0  0  0  0  0  0  0  0
  146.6106  132.4792  150.2064 H   0  0  0  0  0  0  0  0  0  0  0  0
  147.2096  134.1155  150.1962 H   0  0  0  0  0  0  0  0  0  0  0  0
  147.9987  132.9735  152.1995 H   0  0  0  0  0  0  0  0  0  0  0  0
  146.3775  132.5423  152.6878 H   0  0  0  0  0  0  0  0  0  0  0  0
  147.3921  135.2783  152.4094 H   0  0  0  0  0  0  0  0  0  0  0  0
  1  2  1  0  0  0  0
  1 22  1  0  0  0  0
  1 23  1  0  0  0  0
  1 24  1  0  0  0  0
  2  8  1  0  0  0  0
  2  3  2  0  0  0  0
  3  4  1  0  0  0  0
  4  5  1  0  0  0  0
  4  6  1  0  0  0  0
  5 25  1  0  0  0  0
  5 26  1  0  0  0  0
  5 27  1  0  0  0  0
  6  7  1  0  0  0  0
  6  8  2  0  0  0  0
  7 28  1  0  0  0  0
  7 29  1  0  0  0  0
  7 30  1  0  0  0  0
  8  9  1  0  0  0  0
  9 10  1  0  0  0  0
  9 31  1  0  0  0  0
  9 32  1  0  0  0  0
 10 11  2  0  0  0  0
 10 12  1  0  0  0  0
 12 13  1  0  0  0  0
 12 33  1  0  0  0  0
 13 14  1  0  0  0  0
 13 34  1  0  0  0  0
 13 35  1  0  0  0  0
 14 15  1  0  0  0  0
 14 36  1  0  0  0  0
 14 37  1  0  0  0  0
 15 21  1  0  0  0  0
 15 16  1  0  0  0  0
 15 50  1  0  0  0  0
 16 17  1  0  0  0  0
 16 38  1  0  0  0  0
 16 39  1  0  0  0  0
 17 18  1  0  0  0  0
 17 40  1  0  0  0  0
 17 41  1  0  0  0  0
 18 19  1  0  0  0  0
 18 20  1  0  0  0  0
 18 42  1  0  0  0  0
 19 43  1  0  0  0  0
 19 44  1  0  0  0  0
 19 45  1  0  0  0  0
 20 21  1  0  0  0  0
 20 46  1  0  0  0  0
 20 47  1  0  0  0  0
 21 48  1  0  0  0  0
 21 49  1  0  0  0  0
M  CHG  1  15   1
M  END
> <s_m_source_file>
AV-unprocessed.smi

> <i_m_source_file_index>
1904

> <i_lp_mmshare_version>
43012

> <i_f3d_flags>
0

> <s_epik_input>
W0NIM11jMW5uKFtDSDNdKWMoW0NIM10pYzFbQ0gyXUMoPU8pW05IXVtDSDJdW0NIMl1OMltDSDJdW0NIMl1bQ0hdKFtDSDNdKVtDSDJdW0NIMl0y

> <s_epik_cmdline>
J2VwaWtfcHl0aG9uJywgJy1waCcsICc3LjAnLCAnLXRuJywgJzgnLCAnLW1hJywgJzIwMCcsICctbWV0YWxfYmluZGluZycsICctaW1hZScsICc8aW5maWxlLm1hZT4nLCAnLW9tYWUnLCAnPG91dGZpbGUubWFlPic=

> <r_lp_tautomer_probability>
1

> <r_epik_Ionization_Penalty>
0.00374255

> <r_epik_Ionization_Penalty_Charging>
0.00158211

> <r_epik_Ionization_Penalty_Neutral>
0.00216044

> <r_epik_State_Penalty>
-0

> <r_epik_Charging_Adjusted_Penalty>
0.00158211

> <i_epik_Tot_Q>
1

> <i_epik_Tot_abs_Q>
1

> <r_epik_Metal_State_Penalty>
-0

> <b_epik_Metal_Only>
0

> <s_lp_Force_Field>
OPLS_2005

> <r_lp_Energy>
12.0105

> <b_lp_Chiralities_Consistent>
1

> <s_lp_Variant>
AV-unprocessed.smi:1904-2

> <Gold.Version>
5.8.1

> <Gold.Id.Protein>
6NUR|6NUR_protein|mol2

> <Gold.PLP.Fitness>
47.7169

> <Gold.PLP.PLP>
-36.2515

> <Gold.PLP.part.hbond>
-3.0000

> <Gold.PLP.part.metal>
0.0000

> <Gold.PLP.part.buried>
-1.1702

> <Gold.PLP.part.nonpolar>
-31.7411

> <Gold.PLP.part.repulsive>
0.0161

> <Gold.PLP.ligand.clash>
0.0000

> <Gold.PLP.ligand.torsion>
0.1962

> <Gold.PLP.Chemscore.Hbond>
3.9440

> <Gold.PLP.Chemscore.CHOScore>
0.0000

> <Gold.PLP.Chemscore.Metal>
0.0000

> <Gold.Chemscore.Hbonds>
donor molecule, donor type, donor heavy atom, donor atom, acceptor molecule, acceptor atom, score
      L1  H    12    33       P1  7948  1.00
      L1  H    15    50       P1  7948  2.00
      P1  H  7997  8009       L1     3  0.16

> <Gold.PLP.Chemscore.Internal.Correction>
0.0257

> <Gold.Rescore>
     Score         DG    S(hbond)    S(metal)    S(lipo)     H(rot)  DE(clash)    DE(int)     intcor
     18.99     -21.69       2.95        0.00      89.79       1.61       0.22       2.48       ----

> <Gold.Chemscore.Fitness>
18.9908

> <Gold.Chemscore.DG>
-21.6939

> <Gold.Chemscore.ZeroCoef>
-5.4800

> <Gold.Chemscore.Hbond>
2.9463

> <Gold.Chemscore.Metal>
0.0000

> <Gold.Chemscore.Lipo>
89.7932

> <Gold.Chemscore.Internal_Hbond>
0.0000

> <Gold.Chemscore.DEClash>
0.2218

> <Gold.Chemscore.DEInternal>
2.4814

> <Gold.Chemscore.Rot>
1.6142

> <Gold.Chemscore.Internal.Correction>
   9.000000E+99

> <Gold.Chemscore.Hbonds>
donor molecule, donor type, donor heavy atom, donor atom, acceptor molecule, acceptor atom, score
      L1  H    12    33       P1  7948  0.99
      L1  H    15    50       P1  7948  0.99
      P1  H  7997  8009       L1     3  0.08

> <Gold.Chemscore.Hbond.Weighted>
-9.8406

> <Gold.Chemscore.Metal.Weighted>
-0.0000

> <Gold.Chemscore.Lipo.Weighted>
-10.5058

> <Gold.Chemscore.Internal_Hbond.Weighted>
0.0000

> <Gold.Chemscore.DEClash.Weighted>
0.2218

> <Gold.Chemscore.DEInternal.Weighted>
2.4814

> <Gold.Chemscore.Rot.Weighted>
4.1324

> <Gold.Chemscore.Internal.Correction.Weighted>
   9.000000E+99

> <Gold.Protein.RotatedTorsions>
[ 6907 6896 6895 6894 ] final  112.91 input  -60.11 | X-H torsion
[ 7974 7965 7964 7962 ] final   41.44 input  175.53 | X-H torsion
[ 8008 7997 7996 7995 ] final -155.14 input   59.86 | X-H torsion
[ 10167 10162 10161 10158 ] final   31.16 input  -65.29 | X-H torsion
[ 10718 10713 10712 10709 ] final  -17.38 input   66.30 | X-H torsion
[ 10763 10752 10751 10750 ] final -166.26 input  -60.55 | X-H torsion
[ 11005 11000 10999 10996 ] final  -34.07 input  -57.11 | X-H torsion

> <Gold.Protein.ActiveResidues>
 VAL166  LYS551  ARG553  GLY616  TRP617  ASP618  TYR619  PRO620  LYS621  CYS622 
 ASP623  PHE694  ASN695  SER759  ASP760  ASP761  ALA762  ILE779  LEU786  VAL792 
 PHE793  MET794  SER795  GLU796  ALA797  LYS798  CYS799  TRP800  GLU811  SER814 

> <Gold.Protein.RotatedAtoms>
  152.4890  133.8450  159.7171 H   0  0  0  0  0  0  0  0  0  0  0  0  # atno 6907 bound_to 6896
  150.9003  133.7118  159.2887 H   0  0  0  0  0  0  0  0  0  0  0  0  # atno 6908 bound_to 6896
  151.4562  135.1038  159.9764 H   0  0  0  0  0  0  0  0  0  0  0  0  # atno 6909 bound_to 6896
  146.0823  139.5416  142.9529 H   0  0  0  0  0  0  0  0  0  0  0  0  # atno 7974 bound_to 7965
  155.6972  140.0762  157.2425 H   0  0  0  0  0  0  0  0  0  0  0  0  # atno 8008 bound_to 7997
  154.4079  140.1654  156.2203 H   0  0  0  0  0  0  0  0  0  0  0  0  # atno 8009 bound_to 7997
  155.9400  140.3385  155.6322 H   0  0  0  0  0  0  0  0  0  0  0  0  # atno 8010 bound_to 7997
  140.4613  144.0902  150.6213 H   0  0  0  0  0  0  0  0  0  0  0  0  # atno 10167 bound_to 10162
  156.5744  130.4758  149.6348 H   0  0  0  0  0  0  0  0  0  0  0  0  # atno 10718 bound_to 10713
  154.6850  135.2961  154.9559 H   0  0  0  0  0  0  0  0  0  0  0  0  # atno 10763 bound_to 10752
  154.0541  135.6640  153.4808 H   0  0  0  0  0  0  0  0  0  0  0  0  # atno 10764 bound_to 10752
  153.0573  135.5137  154.7913 H   0  0  0  0  0  0  0  0  0  0  0  0  # atno 10765 bound_to 10752
  140.9686  133.7122  156.1486 H   0  0  0  0  0  0  0  0  0  0  0  0  # atno 11005 bound_to 11000
  145.6194  141.0325  143.1923 LP  0  0  0  0  0  0  0  0  0  0  0  0  # atno 17320 bound_to 7965
  144.7302  139.7750  143.7350 LP  0  0  0  0  0  0  0  0  0  0  0  0  # atno 17321 bound_to 7965
  140.4090  143.2666  151.9856 LP  0  0  0  0  0  0  0  0  0  0  0  0  # atno 17342 bound_to 10162
  139.4806  144.5932  151.7735 LP  0  0  0  0  0  0  0  0  0  0  0  0  # atno 17343 bound_to 10162
  156.2686  130.7004  151.1794 LP  0  0  0  0  0  0  0  0  0  0  0  0  # atno 17370 bound_to 10713
  157.7341  131.0585  150.5543 LP  0  0  0  0  0  0  0  0  0  0  0  0  # atno 17371 bound_to 10713
  140.7362  134.4200  157.5560 LP  0  0  0  0  0  0  0  0  0  0  0  0  # atno 17394 bound_to 11000
  139.8904  134.8807  156.2373 LP  0  0  0  0  0  0  0  0  0  0  0  0  # atno 17395 bound_to 11000

$$$$
