AV-unprocessed.smi:54|AV-procd|sdf|551|dock2
  -GOLD-   2262016453D 1   1.00000     0.00000
 Structure written by MMmdl.
 43 45  0  0  0  0  0  0  0  0  2 V2000
  145.3487  136.3214  162.3888 C   0  0  0  0  0  0  0  0  0  0  0  0
  146.3821  135.4780  161.6239 C   0  0  0  0  0  0  0  0  0  0  0  0
  146.7603  134.2115  162.4098 C   0  0  0  0  0  0  0  0  0  0  0  0
  147.6308  136.3108  161.2998 C   0  0  0  0  0  0  0  0  0  0  0  0
  148.3027  136.7681  162.2269 O   0  0  0  0  0  0  0  0  0  0  0  0
  147.8973  136.4630  159.9832 N   0  0  0  0  0  0  0  0  0  0  0  0
  148.9525  137.1455  159.3658 C   0  0  0  0  0  0  0  0  0  0  0  0
  148.5467  138.0847  158.5457 N   0  0  0  0  0  0  0  0  0  0  0  0
  149.5948  138.7609  157.9498 C   0  0  0  0  0  0  0  0  0  0  0  0
  150.9344  138.5530  158.1314 C   0  0  0  0  0  0  0  0  0  0  0  0
  151.6923  139.4134  157.3480 N   0  0  0  0  0  0  0  0  0  0  0  0
  150.7522  140.1150  156.7185 C   0  0  0  0  0  0  0  0  0  0  0  0
  149.4761  139.8009  157.0333 N   0  0  0  0  0  0  0  0  0  0  0  0
  148.1935  140.3702  156.4903 C   0  0  2  0  0  0  0  0  0  0  0  0
  147.5529  139.3736  155.7616 O   0  0  0  0  0  0  0  0  0  0  0  0
  148.0435  139.3805  154.4279 C   0  0  1  0  0  0  0  0  0  0  0  0
  147.0263  138.7056  153.4951 C   0  0  0  0  0  0  0  0  0  0  0  0
  147.5204  138.6802  152.1730 O   0  0  0  0  0  0  0  0  0  0  0  0
  148.2401  140.8785  154.1360 C   0  0  2  0  0  0  0  0  0  0  0  0
  149.3873  141.0630  153.3309 O   0  0  0  0  0  0  0  0  0  0  0  0
  148.4359  141.5289  155.5109 C   0  0  1  0  0  0  0  0  0  0  0  0
  147.4950  142.5634  155.7133 O   0  0  0  0  0  0  0  0  0  0  0  0
  151.3250  137.4865  159.0826 C   0  0  0  0  0  0  0  0  0  0  0  0
  152.5187  137.2690  159.2814 O   0  0  0  0  0  0  0  0  0  0  0  0
  150.2889  136.8204  159.6740 N   0  5  0  0  0  0  0  0  0  0  0  0
  147.6259  140.6541  157.3773 H   0  0  0  0  0  0  0  0  0  0  0  0
  149.0016  138.8578  154.3956 H   0  0  0  0  0  0  0  0  0  0  0  0
  147.3669  141.2924  153.6287 H   0  0  0  0  0  0  0  0  0  0  0  0
  149.4294  141.9557  155.6535 H   0  0  0  0  0  0  0  0  0  0  0  0
  145.0875  137.2248  161.8361 H   0  0  0  0  0  0  0  0  0  0  0  0
  145.7229  136.6258  163.3670 H   0  0  0  0  0  0  0  0  0  0  0  0
  144.4285  135.7587  162.5481 H   0  0  0  0  0  0  0  0  0  0  0  0
  145.9251  135.1625  160.6844 H   0  0  0  0  0  0  0  0  0  0  0  0
  147.5013  133.6184  161.8724 H   0  0  0  0  0  0  0  0  0  0  0  0
  145.8877  133.5776  162.5693 H   0  0  0  0  0  0  0  0  0  0  0  0
  147.1747  134.4548  163.3890 H   0  0  0  0  0  0  0  0  0  0  0  0
  147.2729  135.9649  159.3666 H   0  0  0  0  0  0  0  0  0  0  0  0
  151.0092  140.8802  156.0021 H   0  0  0  0  0  0  0  0  0  0  0  0
  146.7868  137.6968  153.8322 H   0  0  0  0  0  0  0  0  0  0  0  0
  146.0955  139.2733  153.4837 H   0  0  0  0  0  0  0  0  0  0  0  0
  148.0566  137.9094  152.0668 H   0  0  0  0  0  0  0  0  0  0  0  0
  149.3813  140.4124  152.6456 H   0  0  0  0  0  0  0  0  0  0  0  0
  147.9639  143.3771  155.8194 H   0  0  0  0  0  0  0  0  0  0  0  0
  1  2  1  0  0  0  0
  1 30  1  0  0  0  0
  1 31  1  0  0  0  0
  1 32  1  0  0  0  0
  2  3  1  0  0  0  0
  2  4  1  0  0  0  0
  2 33  1  0  0  0  0
  3 34  1  0  0  0  0
  3 35  1  0  0  0  0
  3 36  1  0  0  0  0
  4  5  2  0  0  0  0
  4  6  1  0  0  0  0
  6 37  1  0  0  0  0
  6  7  1  0  0  0  0
  7 25  1  0  0  0  0
  7  8  2  0  0  0  0
  8  9  1  0  0  0  0
  9 13  1  0  0  0  0
  9 10  2  0  0  0  0
 10 11  1  0  0  0  0
 10 23  1  0  0  0  0
 11 12  2  0  0  0  0
 12 13  1  0  0  0  0
 12 38  1  0  0  0  0
 13 14  1  0  0  0  0
 14 26  1  0  0  0  0
 14 21  1  0  0  0  0
 14 15  1  0  0  0  0
 15 16  1  0  0  0  0
 16 27  1  0  0  0  0
 16 17  1  0  0  0  0
 16 19  1  0  0  0  0
 17 18  1  0  0  0  0
 17 39  1  0  0  0  0
 17 40  1  0  0  0  0
 18 41  1  0  0  0  0
 19 28  1  0  0  0  0
 19 20  1  0  0  0  0
 19 21  1  0  0  0  0
 20 42  1  0  0  0  0
 21 29  1  0  0  0  0
 21 22  1  0  0  0  0
 22 43  1  0  0  0  0
 23 24  2  0  0  0  0
 23 25  1  0  0  0  0
M  CHG  1  25  -1
M  END
> <s_m_source_file>
AV-unprocessed.smi

> <i_m_source_file_index>
54

> <i_lp_mmshare_version>
43012

> <i_f3d_flags>
0

> <s_epik_input>
W0NIM11bQ0hdKFtDSDNdKUMoPU8pW05IXWMobjEpW25IXWMoPU8pYyhjMTIpbltjSF1uMltDQEBIXTNPW0NASF0oW0NIMl1bT0hdKVtDQEBIXShbT0hdKVtDQEhdM1tPSF0=

> <s_epik_cmdline>
J2VwaWtfcHl0aG9uJywgJy1waCcsICc3LjAnLCAnLXRuJywgJzgnLCAnLW1hJywgJzIwMCcsICctbWV0YWxfYmluZGluZycsICctaW1hZScsICc8aW5maWxlLm1hZT4nLCAnLW9tYWUnLCAnPG91dGZpbGUubWFlPic=

> <r_lp_tautomer_probability>
0.85571

> <r_epik_Ionization_Penalty>
1.75936

> <r_epik_Ionization_Penalty_Charging>
4.55893e-11

> <r_epik_Ionization_Penalty_Neutral>
1.75936

> <r_epik_State_Penalty>
1.72072

> <r_epik_Charging_Adjusted_Penalty>
1.72072

> <i_epik_Tot_Q>
-1

> <i_epik_Tot_abs_Q>
1

> <r_epik_Metal_State_Penalty>
0.400338

> <b_epik_Metal_Only>
1

> <s_epik_Chemistry_Notes>
This compound contains an acetal/aminal-like group ( X-CH(R)-Y where X, Y are N, S, or O) that may be acid/base labile, releasing an aldehyde.

> <s_lp_Force_Field>
OPLS_2005

> <r_lp_Energy>
55.0849

> <b_lp_Chiralities_Consistent>
1

> <s_lp_Variant>
AV-unprocessed.smi:54-23

> <Gold.Version>
5.8.1

> <Gold.Id.Protein>
6NUR|6NUR_protein|mol2

> <Gold.PLP.Fitness>
55.3048

> <Gold.PLP.PLP>
-35.7050

> <Gold.PLP.part.hbond>
-7.6370

> <Gold.PLP.part.metal>
0.0000

> <Gold.PLP.part.buried>
-6.9212

> <Gold.PLP.part.nonpolar>
-21.8343

> <Gold.PLP.part.repulsive>
0.1749

> <Gold.PLP.ligand.clash>
0.0000

> <Gold.PLP.ligand.torsion>
0.5908

> <Gold.PLP.Chemscore.Hbond>
6.8988

> <Gold.PLP.Chemscore.CHOScore>
0.0000

> <Gold.PLP.Chemscore.Metal>
0.0000

> <Gold.Chemscore.Hbonds>
donor molecule, donor type, donor heavy atom, donor atom, acceptor molecule, acceptor atom, score
      L1  H    18    41       P1  7948  1.00
      L1  H    20    42       P1  7957  0.98
      L1  H    22    43       P1  8028  1.00
      P1  H  6896  6907       L1    25  2.00
      P1  H  6931  6943       L1     5  1.00
      P1  H  7989  7998       L1    20  0.05
      P1  H  8011  8017       L1    20  0.85

> <Gold.PLP.Chemscore.Internal.Correction>
0.0850

> <Gold.Rescore>
     Score         DG    S(hbond)    S(metal)    S(lipo)     H(rot)  DE(clash)    DE(int)     intcor
     15.10     -15.66       4.50        0.00      46.52       4.02       0.00       0.56       ----

> <Gold.Chemscore.Fitness>
15.1031

> <Gold.Chemscore.DG>
-15.6627

> <Gold.Chemscore.ZeroCoef>
-5.4800

> <Gold.Chemscore.Hbond>
4.4997

> <Gold.Chemscore.Metal>
0.0000

> <Gold.Chemscore.Lipo>
46.5197

> <Gold.Chemscore.Internal_Hbond>
0.0000

> <Gold.Chemscore.DEClash>
0.0021

> <Gold.Chemscore.DEInternal>
0.5574

> <Gold.Chemscore.Rot>
4.0192

> <Gold.Chemscore.Internal.Correction>
   9.000000E+99

> <Gold.Chemscore.Hbonds>
donor molecule, donor type, donor heavy atom, donor atom, acceptor molecule, acceptor atom, score
      L1  H    18    41       P1  7948  1.00
      L1  H    20    42       P1  7957  0.88
      L1  H    22    43       P1  8028  0.34
      P1  H  6896  6907       L1    25  0.46
      P1  H  6931  6943       L1     5  0.92
      P1  H  8011  8017       L1    20  0.14

> <Gold.Chemscore.Hbond.Weighted>
-15.0291

> <Gold.Chemscore.Metal.Weighted>
-0.0000

> <Gold.Chemscore.Lipo.Weighted>
-5.4428

> <Gold.Chemscore.Internal_Hbond.Weighted>
0.0000

> <Gold.Chemscore.DEClash.Weighted>
0.0021

> <Gold.Chemscore.DEInternal.Weighted>
0.5574

> <Gold.Chemscore.Rot.Weighted>
10.2893

> <Gold.Chemscore.Internal.Correction.Weighted>
   9.000000E+99

> <Gold.Protein.RotatedTorsions>
[ 6907 6896 6895 6894 ] final  -47.21 input  -60.11 | X-H torsion
[ 7974 7965 7964 7962 ] final  -29.90 input  175.53 | X-H torsion
[ 8008 7997 7996 7995 ] final  -62.56 input   59.86 | X-H torsion
[ 10167 10162 10161 10158 ] final  -21.86 input  -65.29 | X-H torsion
[ 10718 10713 10712 10709 ] final  -80.68 input   66.30 | X-H torsion
[ 10763 10752 10751 10750 ] final  -16.00 input  -60.55 | X-H torsion
[ 11005 11000 10999 10996 ] final  -26.25 input  -57.11 | X-H torsion

> <Gold.Protein.ActiveResidues>
 VAL166  LYS551  ARG553  GLY616  TRP617  ASP618  TYR619  PRO620  LYS621  CYS622 
 ASP623  PHE694  ASN695  SER759  ASP760  ASP761  ALA762  ILE779  LEU786  VAL792 
 PHE793  MET794  SER795  GLU796  ALA797  LYS798  CYS799  TRP800  GLU811  SER814 

> <Gold.Protein.RotatedAtoms>
  150.9031  134.8444  159.7373 H   0  0  0  0  0  0  0  0  0  0  0  0  # atno 6907 bound_to 6896
  152.4903  134.4472  159.9572 H   0  0  0  0  0  0  0  0  0  0  0  0  # atno 6908 bound_to 6896
  151.4522  133.3575  159.2832 H   0  0  0  0  0  0  0  0  0  0  0  0  # atno 6909 bound_to 6896
  146.1183  140.5471  142.8747 H   0  0  0  0  0  0  0  0  0  0  0  0  # atno 7974 bound_to 7965
  154.4506  140.0993  156.6606 H   0  0  0  0  0  0  0  0  0  0  0  0  # atno 8008 bound_to 7997
  155.5297  140.3481  155.4405 H   0  0  0  0  0  0  0  0  0  0  0  0  # atno 8009 bound_to 7997
  156.0673  140.1341  156.9860 H   0  0  0  0  0  0  0  0  0  0  0  0  # atno 8010 bound_to 7997
  140.7284  143.4588  151.0409 H   0  0  0  0  0  0  0  0  0  0  0  0  # atno 10167 bound_to 10162
  156.0065  130.4581  150.3837 H   0  0  0  0  0  0  0  0  0  0  0  0  # atno 10718 bound_to 10713
  153.5519  135.7011  153.5587 H   0  0  0  0  0  0  0  0  0  0  0  0  # atno 10763 bound_to 10752
  153.3507  135.3996  155.1644 H   0  0  0  0  0  0  0  0  0  0  0  0  # atno 10764 bound_to 10752
  154.8660  135.3765  154.5031 H   0  0  0  0  0  0  0  0  0  0  0  0  # atno 10765 bound_to 10752
  140.9012  133.7523  156.0546 H   0  0  0  0  0  0  0  0  0  0  0  0  # atno 11005 bound_to 11000
  144.7573  140.5338  143.6760 LP  0  0  0  0  0  0  0  0  0  0  0  0  # atno 17320 bound_to 7965
  145.5521  139.1477  143.3388 LP  0  0  0  0  0  0  0  0  0  0  0  0  # atno 17321 bound_to 7965
  139.8271  143.7741  152.3179 LP  0  0  0  0  0  0  0  0  0  0  0  0  # atno 17342 bound_to 10162
  139.7844  144.7433  151.0043 LP  0  0  0  0  0  0  0  0  0  0  0  0  # atno 17343 bound_to 10162
  157.1916  131.0416  151.2697 LP  0  0  0  0  0  0  0  0  0  0  0  0  # atno 17370 bound_to 10713
  157.4056  130.7357  149.6800 LP  0  0  0  0  0  0  0  0  0  0  0  0  # atno 17371 bound_to 10713
  140.8228  134.3270  157.5376 LP  0  0  0  0  0  0  0  0  0  0  0  0  # atno 17394 bound_to 11000
  139.8742  134.9319  156.3539 LP  0  0  0  0  0  0  0  0  0  0  0  0  # atno 17395 bound_to 11000

$$$$
