AV-unprocessed.smi:752|AV-procd|sdf|3596|dock3
  -GOLD-   22720 0593D 1   1.00000     0.00000
 Structure written by MMmdl.
 41 42  0  0  0  0  0  0  0  0  1 V2000
  148.5409  126.2251  151.0568 C   0  0  0  0  0  0  0  0  0  0  0  0
  147.7324  127.3542  151.7042 C   0  0  0  0  0  0  0  0  0  0  0  0
  148.3740  127.8812  152.9438 C   0  0  0  0  0  0  0  0  0  0  0  0
  148.8825  129.1119  153.0428 N   0  0  0  0  0  0  0  0  0  0  0  0
  149.4527  129.3616  154.2954 C   0  0  0  0  0  0  0  0  0  0  0  0
  150.0625  130.7033  154.5859 C   0  0  0  0  0  0  0  0  0  0  0  0
  149.0545  131.8310  154.3414 C   0  0  0  0  0  0  0  0  0  0  0  0
  148.6270  132.5012  155.2821 O   0  0  0  0  0  0  0  0  0  0  0  0
  148.6720  132.0196  153.0684 N   0  0  0  0  0  0  0  0  0  0  0  0
  147.7256  133.0307  152.6051 C   0  0  0  0  0  0  0  0  0  0  0  0
  146.7122  132.4703  151.5840 C   0  0  1  0  0  0  0  0  0  0  0  0
  145.7338  131.4467  152.2043 C   0  0  0  0  0  0  0  0  0  0  0  0
  144.7155  130.9276  151.1760 C   0  0  0  0  0  0  0  0  0  0  0  0
  143.9456  132.0820  150.5186 C   0  0  0  0  0  0  0  0  0  0  0  0
  144.9148  133.0918  149.8833 C   0  0  1  0  0  0  0  0  0  0  0  0
  144.1834  134.1737  149.3464 O   0  0  0  0  0  0  0  0  0  0  0  0
  145.9241  133.6178  150.9188 C   0  0  0  0  0  0  0  0  0  0  0  0
  149.3893  128.2819  155.1419 C   0  0  0  0  0  0  0  0  0  0  0  0
  148.5986  126.9187  154.3994 S   0  0  0  0  0  0  0  0  0  0  0  0
  148.0452  125.8587  150.1578 H   0  0  0  0  0  0  0  0  0  0  0  0
  148.6573  125.3835  151.7404 H   0  0  0  0  0  0  0  0  0  0  0  0
  149.5364  126.5671  150.7723 H   0  0  0  0  0  0  0  0  0  0  0  0
  147.6059  128.1745  150.9966 H   0  0  0  0  0  0  0  0  0  0  0  0
  146.7319  126.9996  151.9529 H   0  0  0  0  0  0  0  0  0  0  0  0
  150.4186  130.7374  155.6165 H   0  0  0  0  0  0  0  0  0  0  0  0
  150.9339  130.8798  153.9541 H   0  0  0  0  0  0  0  0  0  0  0  0
  149.0719  131.4178  152.3629 H   0  0  0  0  0  0  0  0  0  0  0  0
  147.2040  133.4945  153.4441 H   0  0  0  0  0  0  0  0  0  0  0  0
  148.3094  133.8253  152.1396 H   0  0  0  0  0  0  0  0  0  0  0  0
  147.2769  131.9611  150.8012 H   0  0  0  0  0  0  0  0  0  0  0  0
  146.2794  130.5964  152.6126 H   0  0  0  0  0  0  0  0  0  0  0  0
  145.2055  131.9044  153.0419 H   0  0  0  0  0  0  0  0  0  0  0  0
  145.2336  130.3503  150.4092 H   0  0  0  0  0  0  0  0  0  0  0  0
  144.0172  130.2434  151.6588 H   0  0  0  0  0  0  0  0  0  0  0  0
  143.2627  131.6889  149.7645 H   0  0  0  0  0  0  0  0  0  0  0  0
  143.3285  132.5790  151.2688 H   0  0  0  0  0  0  0  0  0  0  0  0
  145.4530  132.6118  149.0649 H   0  0  0  0  0  0  0  0  0  0  0  0
  144.6791  134.5479  148.6340 H   0  0  0  0  0  0  0  0  0  0  0  0
  145.4003  134.1918  151.6849 H   0  0  0  0  0  0  0  0  0  0  0  0
  146.6157  134.3090  150.4350 H   0  0  0  0  0  0  0  0  0  0  0  0
  149.7569  128.2074  156.1545 H   0  0  0  0  0  0  0  0  0  0  0  0
  1  2  1  0  0  0  0
  1 20  1  0  0  0  0
  1 21  1  0  0  0  0
  1 22  1  0  0  0  0
  2  3  1  0  0  0  0
  2 23  1  0  0  0  0
  2 24  1  0  0  0  0
  3 19  1  0  0  0  0
  3  4  2  0  0  0  0
  4  5  1  0  0  0  0
  5  6  1  0  0  0  0
  5 18  2  0  0  0  0
  6  7  1  0  0  0  0
  6 25  1  0  0  0  0
  6 26  1  0  0  0  0
  7  8  2  0  0  0  0
  7  9  1  0  0  0  0
  9 10  1  0  0  0  0
  9 27  1  0  0  0  0
 10 11  1  0  0  0  0
 10 28  1  0  0  0  0
 10 29  1  0  0  0  0
 11 17  1  0  0  0  0
 11 12  1  0  0  0  0
 11 30  1  0  0  0  0
 12 13  1  0  0  0  0
 12 31  1  0  0  0  0
 12 32  1  0  0  0  0
 13 14  1  0  0  0  0
 13 33  1  0  0  0  0
 13 34  1  0  0  0  0
 14 15  1  0  0  0  0
 14 35  1  0  0  0  0
 14 36  1  0  0  0  0
 15 16  1  0  0  0  0
 15 17  1  0  0  0  0
 15 37  1  0  0  0  0
 16 38  1  0  0  0  0
 17 39  1  0  0  0  0
 17 40  1  0  0  0  0
 18 19  1  0  0  0  0
 18 41  1  0  0  0  0
M  END
> <s_m_source_file>
AV-unprocessed.smi

> <i_m_source_file_index>
752

> <i_lp_mmshare_version>
43012

> <i_f3d_flags>
0

> <s_epik_input>
W0NIM11bQ0gyXWMxbmMoW2NIXXMxKVtDSDJdQyg9TylbTkhdW0NIMl1bQ0BASF0yW0NIMl1bQ0gyXVtDSDJdW0NAQEhdKFtPSF0pW0NIMl0y

> <s_epik_cmdline>
J2VwaWtfcHl0aG9uJywgJy1waCcsICc3LjAnLCAnLXRuJywgJzgnLCAnLW1hJywgJzIwMCcsICctbWV0YWxfYmluZGluZycsICctaW1hZScsICc8aW5maWxlLm1hZT4nLCAnLW9tYWUnLCAnPG91dGZpbGUubWFlPic=

> <r_lp_tautomer_probability>
1

> <r_epik_Ionization_Penalty>
5.44903e-05

> <r_epik_Ionization_Penalty_Charging>
0

> <r_epik_Ionization_Penalty_Neutral>
5.44903e-05

> <r_epik_State_Penalty>
-0

> <r_epik_Charging_Adjusted_Penalty>
0

> <i_epik_Tot_Q>
0

> <i_epik_Tot_abs_Q>
0

> <r_epik_Metal_State_Penalty>
-0

> <b_epik_Metal_Only>
0

> <s_lp_Force_Field>
OPLS_2005

> <r_lp_Energy>
4.53549

> <b_lp_Chiralities_Consistent>
1

> <s_lp_Variant>
AV-unprocessed.smi:752-2

> <Gold.Version>
5.8.1

> <Gold.Id.Protein>
6NUR|6NUR_protein|mol2

> <Gold.PLP.Fitness>
43.9441

> <Gold.PLP.PLP>
-38.3946

> <Gold.PLP.part.hbond>
-2.8813

> <Gold.PLP.part.metal>
0.0000

> <Gold.PLP.part.buried>
-3.2853

> <Gold.PLP.part.nonpolar>
-32.3221

> <Gold.PLP.part.repulsive>
0.8336

> <Gold.PLP.ligand.clash>
0.0000

> <Gold.PLP.ligand.torsion>
0.2542

> <Gold.PLP.Chemscore.Hbond>
2.0000

> <Gold.PLP.Chemscore.CHOScore>
0.0000

> <Gold.PLP.Chemscore.Metal>
0.0000

> <Gold.Chemscore.Hbonds>
donor molecule, donor type, donor heavy atom, donor atom, acceptor molecule, acceptor atom, score
      L1  H     9    27       P1 10747  0.68
      L1  H    16    38       P1  7921  1.00

> <Gold.PLP.Chemscore.Internal.Correction>
0.0580

> <Gold.Rescore>
     Score         DG    S(hbond)    S(metal)    S(lipo)     H(rot)  DE(clash)    DE(int)     intcor
     16.93     -17.44       1.85        0.00      95.06       2.08       0.22       0.29       ----

> <Gold.Chemscore.Fitness>
16.9267

> <Gold.Chemscore.DG>
-17.4405

> <Gold.Chemscore.ZeroCoef>
-5.4800

> <Gold.Chemscore.Hbond>
1.8483

> <Gold.Chemscore.Metal>
0.0000

> <Gold.Chemscore.Lipo>
95.0598

> <Gold.Chemscore.Internal_Hbond>
0.0000

> <Gold.Chemscore.DEClash>
0.2239

> <Gold.Chemscore.DEInternal>
0.2898

> <Gold.Chemscore.Rot>
2.0840

> <Gold.Chemscore.Internal.Correction>
   9.000000E+99

> <Gold.Chemscore.Hbonds>
donor molecule, donor type, donor heavy atom, donor atom, acceptor molecule, acceptor atom, score
      L1  H     9    27       P1 10747  0.36
      L1  H    16    38       P1  7921  0.99

> <Gold.Chemscore.Hbond.Weighted>
-6.1734

> <Gold.Chemscore.Metal.Weighted>
-0.0000

> <Gold.Chemscore.Lipo.Weighted>
-11.1220

> <Gold.Chemscore.Internal_Hbond.Weighted>
0.0000

> <Gold.Chemscore.DEClash.Weighted>
0.2239

> <Gold.Chemscore.DEInternal.Weighted>
0.2898

> <Gold.Chemscore.Rot.Weighted>
5.3350

> <Gold.Chemscore.Internal.Correction.Weighted>
   9.000000E+99

> <Gold.Protein.RotatedTorsions>
[ 6907 6896 6895 6894 ] final   15.62 input  -60.11 | X-H torsion
[ 7974 7965 7964 7962 ] final -135.34 input  175.53 | X-H torsion
[ 8008 7997 7996 7995 ] final  125.10 input   59.86 | X-H torsion
[ 10167 10162 10161 10158 ] final   44.70 input  -65.29 | X-H torsion
[ 10718 10713 10712 10709 ] final  -72.04 input   66.30 | X-H torsion
[ 10763 10752 10751 10750 ] final -104.61 input  -60.55 | X-H torsion
[ 11005 11000 10999 10996 ] final -105.98 input  -57.11 | X-H torsion

> <Gold.Protein.ActiveResidues>
 VAL166  LYS551  ARG553  GLY616  TRP617  ASP618  TYR619  PRO620  LYS621  CYS622 
 ASP623  PHE694  ASN695  SER759  ASP760  ASP761  ALA762  ILE779  LEU786  VAL792 
 PHE793  MET794  SER795  GLU796  ALA797  LYS798  CYS799  TRP800  GLU811  SER814 

> <Gold.Protein.RotatedAtoms>
  151.8209  135.0652  160.0424 H   0  0  0  0  0  0  0  0  0  0  0  0  # atno 6907 bound_to 6896
  152.2951  133.5595  159.5591 H   0  0  0  0  0  0  0  0  0  0  0  0  # atno 6908 bound_to 6896
  150.7248  134.0288  159.3768 H   0  0  0  0  0  0  0  0  0  0  0  0  # atno 6909 bound_to 6896
  144.9023  140.6787  143.5077 H   0  0  0  0  0  0  0  0  0  0  0  0  # atno 7974 bound_to 7965
  156.2823  140.2724  156.1894 H   0  0  0  0  0  0  0  0  0  0  0  0  # atno 8008 bound_to 7997
  155.0474  140.0386  157.2549 H   0  0  0  0  0  0  0  0  0  0  0  0  # atno 8009 bound_to 7997
  154.7224  140.2690  155.6535 H   0  0  0  0  0  0  0  0  0  0  0  0  # atno 8010 bound_to 7997
  140.3316  144.2581  150.6167 H   0  0  0  0  0  0  0  0  0  0  0  0  # atno 10167 bound_to 10162
  156.0337  130.4364  150.2533 H   0  0  0  0  0  0  0  0  0  0  0  0  # atno 10718 bound_to 10713
  154.7890  135.4780  154.0010 H   0  0  0  0  0  0  0  0  0  0  0  0  # atno 10763 bound_to 10752
  153.1602  135.6807  153.8760 H   0  0  0  0  0  0  0  0  0  0  0  0  # atno 10764 bound_to 10752
  153.8376  135.3183  155.3401 H   0  0  0  0  0  0  0  0  0  0  0  0  # atno 10765 bound_to 10752
  141.1027  133.8854  157.1800 H   0  0  0  0  0  0  0  0  0  0  0  0  # atno 11005 bound_to 11000
  145.3596  139.1685  143.4391 LP  0  0  0  0  0  0  0  0  0  0  0  0  # atno 17320 bound_to 7965
  146.3115  140.3656  142.8669 LP  0  0  0  0  0  0  0  0  0  0  0  0  # atno 17321 bound_to 7965
  140.5392  143.2227  151.8113 LP  0  0  0  0  0  0  0  0  0  0  0  0  # atno 17342 bound_to 10162
  139.4855  144.4622  151.9527 LP  0  0  0  0  0  0  0  0  0  0  0  0  # atno 17343 bound_to 10162
  157.0633  131.0096  151.3215 LP  0  0  0  0  0  0  0  0  0  0  0  0  # atno 17370 bound_to 10713
  157.5054  130.7905  149.7648 LP  0  0  0  0  0  0  0  0  0  0  0  0  # atno 17371 bound_to 10713
  139.9885  135.0073  156.9919 LP  0  0  0  0  0  0  0  0  0  0  0  0  # atno 17394 bound_to 11000
  140.4981  134.1125  155.7245 LP  0  0  0  0  0  0  0  0  0  0  0  0  # atno 17395 bound_to 11000

$$$$
