AV-unprocessed.smi:1586|AV-procd|sdf|6384|dock3
  -GOLD-   22720 7 13D 1   1.00000     0.00000
 Structure written by MMmdl.
 46 47  0  0  0  0  0  0  0  0  3 V2000
  144.0550  132.1334  150.0629 C   0  0  0  0  0  0  0  0  0  0  0  0
  144.2996  133.2839  151.0498 C   0  0  0  0  0  0  0  0  0  0  0  0
  145.4816  134.0711  150.6912 N   0  0  0  0  0  0  0  0  0  0  0  0
  145.8039  135.1612  151.6199 C   0  0  0  0  0  0  0  0  0  0  0  0
  146.3262  134.6423  152.9769 C   0  0  0  0  0  0  0  0  0  0  0  0
  147.5162  133.7841  152.7677 N   0  3  0  0  0  0  0  0  0  0  0  0
  148.2260  133.4000  154.0228 C   0  0  1  0  0  0  0  0  0  0  0  0
  149.5749  132.6982  153.7733 C   0  0  0  0  0  0  0  0  0  0  0  0
  148.3712  134.6001  154.9850 C   0  0  0  0  0  0  0  0  0  0  0  0
  149.4463  135.5014  154.5737 N   0  0  0  0  0  0  0  0  0  0  0  0
  150.4320  135.9734  155.3510 C   0  0  0  0  0  0  0  0  0  0  0  0
  150.4545  135.6985  156.5524 O   0  0  0  0  0  0  0  0  0  0  0  0
  151.3444  136.7114  154.6812 N   0  5  0  0  0  0  0  0  0  0  0  0
  151.5288  138.0027  154.9965 C   0  0  0  0  0  0  0  0  0  0  0  0
  150.6231  138.8205  155.7263 C   0  0  0  0  0  0  0  0  0  0  0  0
  151.2688  140.0227  155.7873 C   0  0  0  0  0  0  0  0  0  0  0  0
  150.9099  141.3372  156.3912 C   0  0  0  0  0  0  0  0  0  0  0  0
  152.4704  139.9456  155.1548 O   0  0  0  0  0  0  0  0  0  0  0  0
  152.6321  138.6470  154.6570 N   0  0  0  0  0  0  0  0  0  0  0  0
  147.1963  132.6710  151.8390 C   0  0  0  0  0  0  0  0  0  0  0  0
  146.6727  133.2373  150.5028 C   0  0  0  0  0  0  0  0  0  0  0  0
  143.2565  131.4856  150.4251 H   0  0  0  0  0  0  0  0  0  0  0  0
  144.9475  131.5186  149.9416 H   0  0  0  0  0  0  0  0  0  0  0  0
  143.7543  132.4937  149.0794 H   0  0  0  0  0  0  0  0  0  0  0  0
  143.4093  133.9066  151.1303 H   0  0  0  0  0  0  0  0  0  0  0  0
  144.4626  132.8492  152.0368 H   0  0  0  0  0  0  0  0  0  0  0  0
  146.5690  135.7871  151.1578 H   0  0  0  0  0  0  0  0  0  0  0  0
  144.9403  135.8085  151.7675 H   0  0  0  0  0  0  0  0  0  0  0  0
  146.5991  135.4974  153.5962 H   0  0  0  0  0  0  0  0  0  0  0  0
  145.5528  134.0981  153.5191 H   0  0  0  0  0  0  0  0  0  0  0  0
  147.5869  132.6823  154.5399 H   0  0  0  0  0  0  0  0  0  0  0  0
  149.9926  132.3254  154.7088 H   0  0  0  0  0  0  0  0  0  0  0  0
  150.3123  133.3747  153.3405 H   0  0  0  0  0  0  0  0  0  0  0  0
  149.4656  131.8443  153.1046 H   0  0  0  0  0  0  0  0  0  0  0  0
  147.4453  135.1758  154.9927 H   0  0  0  0  0  0  0  0  0  0  0  0
  148.5197  134.2630  156.0119 H   0  0  0  0  0  0  0  0  0  0  0  0
  149.4644  135.7697  153.6002 H   0  0  0  0  0  0  0  0  0  0  0  0
  149.6564  138.5674  156.1349 H   0  0  0  0  0  0  0  0  0  0  0  0
  150.2049  141.2073  157.2125 H   0  0  0  0  0  0  0  0  0  0  0  0
  150.4491  141.9889  155.6490 H   0  0  0  0  0  0  0  0  0  0  0  0
  151.7940  141.8409  156.7826 H   0  0  0  0  0  0  0  0  0  0  0  0
  148.0906  132.0778  151.6500 H   0  0  0  0  0  0  0  0  0  0  0  0
  146.4632  131.9962  152.2813 H   0  0  0  0  0  0  0  0  0  0  0  0
  146.4506  132.4274  149.8072 H   0  0  0  0  0  0  0  0  0  0  0  0
  147.4510  133.8399  150.0321 H   0  0  0  0  0  0  0  0  0  0  0  0
  148.1750  134.3692  152.2721 H   0  0  0  0  0  0  0  0  0  0  0  0
  1  2  1  0  0  0  0
  1 22  1  0  0  0  0
  1 23  1  0  0  0  0
  1 24  1  0  0  0  0
  2  3  1  0  0  0  0
  2 25  1  0  0  0  0
  2 26  1  0  0  0  0
  3 21  1  0  0  0  0
  3  4  1  0  0  0  0
  4  5  1  0  0  0  0
  4 27  1  0  0  0  0
  4 28  1  0  0  0  0
  5  6  1  0  0  0  0
  5 29  1  0  0  0  0
  5 30  1  0  0  0  0
  6  7  1  0  0  0  0
  6 20  1  0  0  0  0
  6 46  1  0  0  0  0
  7  8  1  0  0  0  0
  7  9  1  0  0  0  0
  7 31  1  0  0  0  0
  8 32  1  0  0  0  0
  8 33  1  0  0  0  0
  8 34  1  0  0  0  0
  9 10  1  0  0  0  0
  9 35  1  0  0  0  0
  9 36  1  0  0  0  0
 10 11  1  0  0  0  0
 10 37  1  0  0  0  0
 11 12  2  0  0  0  0
 11 13  1  0  0  0  0
 13 14  1  0  0  0  0
 14 19  2  0  0  0  0
 14 15  1  0  0  0  0
 15 16  2  0  0  0  0
 15 38  1  0  0  0  0
 16 17  1  0  0  0  0
 16 18  1  0  0  0  0
 17 39  1  0  0  0  0
 17 40  1  0  0  0  0
 17 41  1  0  0  0  0
 18 19  1  0  0  0  0
 20 21  1  0  0  0  0
 20 42  1  0  0  0  0
 20 43  1  0  0  0  0
 21 44  1  0  0  0  0
 21 45  1  0  0  0  0
M  CHG  1   6   1
M  CHG  1  13  -1
M  END
> <s_m_source_file>
AV-unprocessed.smi

> <i_m_source_file_index>
1586

> <i_lp_mmshare_version>
43012

> <i_f3d_flags>
0

> <s_epik_input>
W0NIM11bQ0gyXU4xW0NIMl1bQ0gyXU4oW0NIMl1bQ0gyXTEpW0NASF0oW0NIM10pW0NIMl1bTkhdQyg9TylbTkhdYzJbY0hdYyhbQ0gzXSlvbjI=

> <s_epik_cmdline>
J2VwaWtfcHl0aG9uJywgJy1waCcsICc3LjAnLCAnLXRuJywgJzgnLCAnLW1hJywgJzIwMCcsICctbWV0YWxfYmluZGluZycsICctaW1hZScsICc8aW5maWxlLm1hZT4nLCAnLW9tYWUnLCAnPG91dGZpbGUubWFlPic=

> <r_epik_Ionization_Penalty>
6.35599

> <r_epik_Ionization_Penalty_Charging>
6.35441

> <r_epik_Ionization_Penalty_Neutral>
0.00158318

> <r_epik_State_Penalty>
7.1902

> <r_epik_Charging_Adjusted_Penalty>
13.5446

> <i_epik_Tot_Q>
0

> <i_epik_Tot_abs_Q>
2

> <r_epik_Metal_State_Penalty>
3.12491

> <b_epik_Metal_Only>
1

> <s_lp_Force_Field>
OPLS_2005

> <r_lp_Energy>
11.5798

> <b_lp_Chiralities_Consistent>
1

> <s_lp_Variant>
AV-unprocessed.smi:1586-12

> <Gold.Version>
5.8.1

> <Gold.Id.Protein>
6NUR|6NUR_protein|mol2

> <Gold.PLP.Fitness>
53.4115

> <Gold.PLP.PLP>
-36.6165

> <Gold.PLP.part.hbond>
-4.9990

> <Gold.PLP.part.metal>
0.0000

> <Gold.PLP.part.buried>
-5.8314

> <Gold.PLP.part.nonpolar>
-26.8887

> <Gold.PLP.part.repulsive>
0.4135

> <Gold.PLP.ligand.clash>
0.0000

> <Gold.PLP.ligand.torsion>
0.9304

> <Gold.PLP.Chemscore.Hbond>
6.1556

> <Gold.PLP.Chemscore.CHOScore>
0.0000

> <Gold.PLP.Chemscore.Metal>
0.0000

> <Gold.Chemscore.Hbonds>
donor molecule, donor type, donor heavy atom, donor atom, acceptor molecule, acceptor atom, score
      L1  H     6    46       P1  7948  1.60
      L1  H    10    37       P1  7948  1.00
      P1  H  7989  7998       L1    18  0.32
      P1  H  7997  8009       L1    18  0.70
      P1  H 10752 10765       L1    13  2.00

> <Gold.PLP.Chemscore.Internal.Correction>
0.1891

> <Gold.Rescore>
     Score         DG    S(hbond)    S(metal)    S(lipo)     H(rot)  DE(clash)    DE(int)     intcor
     17.43     -18.45       2.93        0.00      64.95       1.73       0.08       0.95       ----

> <Gold.Chemscore.Fitness>
17.4264

> <Gold.Chemscore.DG>
-18.4543

> <Gold.Chemscore.ZeroCoef>
-5.4800

> <Gold.Chemscore.Hbond>
2.9314

> <Gold.Chemscore.Metal>
0.0000

> <Gold.Chemscore.Lipo>
64.9543

> <Gold.Chemscore.Internal_Hbond>
0.0000

> <Gold.Chemscore.DEClash>
0.0811

> <Gold.Chemscore.DEInternal>
0.9469

> <Gold.Chemscore.Rot>
1.7250

> <Gold.Chemscore.Internal.Correction>
   9.000000E+99

> <Gold.Chemscore.Hbonds>
donor molecule, donor type, donor heavy atom, donor atom, acceptor molecule, acceptor atom, score
      L1  H     6    46       P1  7948  0.11
      L1  H    10    37       P1  7948  0.35
      P1  H  7997  8009       L1    18  0.14
      P1  H 10752 10765       L1    13  0.61

> <Gold.Chemscore.Hbond.Weighted>
-9.7908

> <Gold.Chemscore.Metal.Weighted>
-0.0000

> <Gold.Chemscore.Lipo.Weighted>
-7.5997

> <Gold.Chemscore.Internal_Hbond.Weighted>
0.0000

> <Gold.Chemscore.DEClash.Weighted>
0.0811

> <Gold.Chemscore.DEInternal.Weighted>
0.9469

> <Gold.Chemscore.Rot.Weighted>
4.4161

> <Gold.Chemscore.Internal.Correction.Weighted>
   9.000000E+99

> <Gold.Protein.RotatedTorsions>
[ 6907 6896 6895 6894 ] final   45.47 input  -60.11 | X-H torsion
[ 7974 7965 7964 7962 ] final -163.88 input  175.53 | X-H torsion
[ 8008 7997 7996 7995 ] final -139.66 input   59.86 | X-H torsion
[ 10167 10162 10161 10158 ] final   23.89 input  -65.29 | X-H torsion
[ 10718 10713 10712 10709 ] final  176.69 input   66.30 | X-H torsion
[ 10763 10752 10751 10750 ] final  170.58 input  -60.55 | X-H torsion
[ 11005 11000 10999 10996 ] final   60.22 input  -57.11 | X-H torsion

> <Gold.Protein.ActiveResidues>
 VAL166  LYS551  ARG553  GLY616  TRP617  ASP618  TYR619  PRO620  LYS621  CYS622 
 ASP623  PHE694  ASN695  SER759  ASP760  ASP761  ALA762  ILE779  LEU786  VAL792 
 PHE793  MET794  SER795  GLU796  ALA797  LYS798  CYS799  TRP800  GLU811  SER814 

> <Gold.Protein.RotatedAtoms>
  152.2449  134.8192  160.0454 H   0  0  0  0  0  0  0  0  0  0  0  0  # atno 6907 bound_to 6896
  151.8893  133.3507  159.3801 H   0  0  0  0  0  0  0  0  0  0  0  0  # atno 6908 bound_to 6896
  150.7065  134.4866  159.5540 H   0  0  0  0  0  0  0  0  0  0  0  0  # atno 6909 bound_to 6896
  144.7313  140.3042  143.6199 H   0  0  0  0  0  0  0  0  0  0  0  0  # atno 7974 bound_to 7965
  155.4485  140.0537  157.3003 H   0  0  0  0  0  0  0  0  0  0  0  0  # atno 8008 bound_to 7997
  154.4787  140.2072  155.9771 H   0  0  0  0  0  0  0  0  0  0  0  0  # atno 8009 bound_to 7997
  156.1172  140.3194  155.8161 H   0  0  0  0  0  0  0  0  0  0  0  0  # atno 8010 bound_to 7997
  140.5233  143.9966  150.6427 H   0  0  0  0  0  0  0  0  0  0  0  0  # atno 10167 bound_to 10162
  156.9164  130.9926  151.3012 H   0  0  0  0  0  0  0  0  0  0  0  0  # atno 10718 bound_to 10713
  154.3997  135.2755  155.2104 H   0  0  0  0  0  0  0  0  0  0  0  0  # atno 10763 bound_to 10752
  154.4135  135.6017  153.5970 H   0  0  0  0  0  0  0  0  0  0  0  0  # atno 10764 bound_to 10752
  152.9831  135.5955  154.4263 H   0  0  0  0  0  0  0  0  0  0  0  0  # atno 10765 bound_to 10752
  140.0247  134.6100  155.9590 H   0  0  0  0  0  0  0  0  0  0  0  0  # atno 11005 bound_to 11000
  145.7730  139.1864  143.2201 LP  0  0  0  0  0  0  0  0  0  0  0  0  # atno 17320 bound_to 7965
  146.0896  140.7671  142.9602 LP  0  0  0  0  0  0  0  0  0  0  0  0  # atno 17321 bound_to 7965
  140.3321  143.3071  152.0676 LP  0  0  0  0  0  0  0  0  0  0  0  0  # atno 17342 bound_to 10162
  139.4930  144.6502  151.6692 LP  0  0  0  0  0  0  0  0  0  0  0  0  # atno 17343 bound_to 10162
  157.5935  130.8461  149.8694 LP  0  0  0  0  0  0  0  0  0  0  0  0  # atno 17370 bound_to 10713
  156.0511  130.3717  150.1199 LP  0  0  0  0  0  0  0  0  0  0  0  0  # atno 17371 bound_to 10713
  141.1795  133.6544  156.4964 LP  0  0  0  0  0  0  0  0  0  0  0  0  # atno 17394 bound_to 11000
  140.4327  134.7087  157.4950 LP  0  0  0  0  0  0  0  0  0  0  0  0  # atno 17395 bound_to 11000

$$$$
