AV-unprocessed.smi:2063|AV-procd|sdf|8412|dock3
  -GOLD-   2272011103D 1   1.00000     0.00000
 Structure written by MMmdl.
 38 39  0  0  0  0  0  0  0  0  2 V2000
  150.4784  141.9327  156.5392 C   0  0  0  0  0  0  0  0  0  0  0  0
  149.7897  141.2068  155.3743 C   0  0  0  0  0  0  0  0  0  0  0  0
  148.2779  141.0347  155.5808 C   0  0  0  0  0  0  0  0  0  0  0  0
  150.4642  139.9135  155.0380 C   0  0  0  0  0  0  0  0  0  0  0  0
  151.7496  139.8310  154.6806 N   0  0  0  0  0  0  0  0  0  0  0  0
  152.1380  138.5259  154.4162 N   0  0  0  0  0  0  0  0  0  0  0  0
  151.1479  137.6384  154.5858 C   0  0  0  0  0  0  0  0  0  0  0  0
  151.3141  136.3222  154.3760 N   0  5  0  0  0  0  0  0  0  0  0  0
  150.5338  135.4295  155.0271 C   0  0  0  0  0  0  0  0  0  0  0  0
  150.7728  134.9123  156.1205 O   0  0  0  0  0  0  0  0  0  0  0  0
  149.4060  135.1233  154.3696 N   0  0  0  0  0  0  0  0  0  0  0  0
  148.3525  134.2167  154.8233 C   0  0  2  0  0  0  0  0  0  0  0  0
  147.8492  134.6605  156.2057 C   0  0  0  0  0  0  0  0  0  0  0  0
  148.8860  132.7718  154.8389 C   0  0  2  0  0  0  0  0  0  0  0  0
  149.2951  132.2285  153.4664 C   0  0  0  0  0  0  0  0  0  0  0  0
  149.0857  130.7261  153.5866 C   0  0  0  0  0  0  0  0  0  0  0  0
  148.3334  130.5567  154.9084 C   0  0  0  0  0  0  0  0  0  0  0  0
  147.8722  131.8597  155.2324 O   0  0  0  0  0  0  0  0  0  0  0  0
  149.6224  138.3726  155.0775 S   0  0  0  0  0  0  0  0  0  0  0  0
  151.5334  142.1060  156.3237 H   0  0  0  0  0  0  0  0  0  0  0  0
  150.4173  141.3517  157.4599 H   0  0  0  0  0  0  0  0  0  0  0  0
  150.0157  142.9019  156.7269 H   0  0  0  0  0  0  0  0  0  0  0  0
  149.9079  141.8498  154.5012 H   0  0  0  0  0  0  0  0  0  0  0  0
  147.8092  140.5976  154.6986 H   0  0  0  0  0  0  0  0  0  0  0  0
  147.7958  141.9941  155.7695 H   0  0  0  0  0  0  0  0  0  0  0  0
  148.0651  140.3831  156.4288 H   0  0  0  0  0  0  0  0  0  0  0  0
  149.2619  135.5716  153.4767 H   0  0  0  0  0  0  0  0  0  0  0  0
  147.5139  134.2528  154.1259 H   0  0  0  0  0  0  0  0  0  0  0  0
  147.0478  134.0115  156.5597 H   0  0  0  0  0  0  0  0  0  0  0  0
  147.4562  135.6771  156.1724 H   0  0  0  0  0  0  0  0  0  0  0  0
  148.6495  134.6363  156.9460 H   0  0  0  0  0  0  0  0  0  0  0  0
  149.7247  132.6840  155.5326 H   0  0  0  0  0  0  0  0  0  0  0  0
  148.6385  132.6256  152.6909 H   0  0  0  0  0  0  0  0  0  0  0  0
  150.3195  132.4937  153.2028 H   0  0  0  0  0  0  0  0  0  0  0  0
  148.4990  130.3550  152.7458 H   0  0  0  0  0  0  0  0  0  0  0  0
  150.0312  130.1828  153.6026 H   0  0  0  0  0  0  0  0  0  0  0  0
  147.5066  129.8500  154.8342 H   0  0  0  0  0  0  0  0  0  0  0  0
  149.0085  130.2108  155.6927 H   0  0  0  0  0  0  0  0  0  0  0  0
  1  2  1  0  0  0  0
  1 20  1  0  0  0  0
  1 21  1  0  0  0  0
  1 22  1  0  0  0  0
  2  3  1  0  0  0  0
  2  4  1  0  0  0  0
  2 23  1  0  0  0  0
  3 24  1  0  0  0  0
  3 25  1  0  0  0  0
  3 26  1  0  0  0  0
  4 19  1  0  0  0  0
  4  5  2  0  0  0  0
  5  6  1  0  0  0  0
  6  7  2  0  0  0  0
  7  8  1  0  0  0  0
  7 19  1  0  0  0  0
  8  9  1  0  0  0  0
  9 10  2  0  0  0  0
  9 11  1  0  0  0  0
 11 12  1  0  0  0  0
 11 27  1  0  0  0  0
 12 13  1  0  0  0  0
 12 14  1  0  0  0  0
 12 28  1  0  0  0  0
 13 29  1  0  0  0  0
 13 30  1  0  0  0  0
 13 31  1  0  0  0  0
 14 18  1  0  0  0  0
 14 15  1  0  0  0  0
 14 32  1  0  0  0  0
 15 16  1  0  0  0  0
 15 33  1  0  0  0  0
 15 34  1  0  0  0  0
 16 17  1  0  0  0  0
 16 35  1  0  0  0  0
 16 36  1  0  0  0  0
 17 18  1  0  0  0  0
 17 37  1  0  0  0  0
 17 38  1  0  0  0  0
M  CHG  1   8  -1
M  END
> <s_m_source_file>
AV-unprocessed.smi

> <i_m_source_file_index>
2063

> <i_lp_mmshare_version>
43012

> <i_f3d_flags>
0

> <s_epik_input>
W0NIM11bQ0hdKFtDSDNdKWMxbm5jKHMxKVtOSF1DKD1PKVtOSF1bQ0BIXShbQ0gzXSlbQ0BASF0yW0NIMl1bQ0gyXVtDSDJdTzI=

> <s_epik_cmdline>
J2VwaWtfcHl0aG9uJywgJy1waCcsICc3LjAnLCAnLXRuJywgJzgnLCAnLW1hJywgJzIwMCcsICctbWV0YWxfYmluZGluZycsICctaW1hZScsICc8aW5maWxlLm1hZT4nLCAnLW9tYWUnLCAnPG91dGZpbGUubWFlPic=

> <r_lp_tautomer_probability>
1

> <r_epik_Ionization_Penalty>
4.37022

> <r_epik_Ionization_Penalty_Charging>
4.21437

> <r_epik_Ionization_Penalty_Neutral>
0.15585

> <r_epik_State_Penalty>
4.21389

> <r_epik_Charging_Adjusted_Penalty>
8.42826

> <i_epik_Tot_Q>
-1

> <i_epik_Tot_abs_Q>
1

> <r_epik_Metal_State_Penalty>
0.693772

> <b_epik_Metal_Only>
1

> <s_lp_Force_Field>
OPLS_2005

> <r_lp_Energy>
9.58619

> <b_lp_Chiralities_Consistent>
1

> <s_lp_Variant>
AV-unprocessed.smi:2063-5

> <Gold.Version>
5.8.1

> <Gold.Id.Protein>
6NUR|6NUR_protein|mol2

> <Gold.PLP.Fitness>
35.9392

> <Gold.PLP.PLP>
-26.5737

> <Gold.PLP.part.hbond>
-3.0000

> <Gold.PLP.part.metal>
0.0000

> <Gold.PLP.part.buried>
-3.6659

> <Gold.PLP.part.nonpolar>
-20.8931

> <Gold.PLP.part.repulsive>
1.3991

> <Gold.PLP.ligand.clash>
0.0000

> <Gold.PLP.ligand.torsion>
1.0051

> <Gold.PLP.Chemscore.Hbond>
3.7500

> <Gold.PLP.Chemscore.CHOScore>
0.0000

> <Gold.PLP.Chemscore.Metal>
0.0000

> <Gold.Chemscore.Hbonds>
donor molecule, donor type, donor heavy atom, donor atom, acceptor molecule, acceptor atom, score
      L1  H    11    27       P1  7948  1.00
      P1  H  7989  7998       L1     5  0.80
      P1  H 10752 10763       L1     8  2.00

> <Gold.PLP.Chemscore.Internal.Correction>
0.1257

> <Gold.Rescore>
     Score         DG    S(hbond)    S(metal)    S(lipo)     H(rot)  DE(clash)    DE(int)     intcor
     13.45     -15.82       2.42        0.00      49.61       1.39       0.24       2.13       ----

> <Gold.Chemscore.Fitness>
13.4495

> <Gold.Chemscore.DG>
-15.8218

> <Gold.Chemscore.ZeroCoef>
-5.4800

> <Gold.Chemscore.Hbond>
2.4233

> <Gold.Chemscore.Metal>
0.0000

> <Gold.Chemscore.Lipo>
49.6137

> <Gold.Chemscore.Internal_Hbond>
0.0000

> <Gold.Chemscore.DEClash>
0.2423

> <Gold.Chemscore.DEInternal>
2.1300

> <Gold.Chemscore.Rot>
1.3893

> <Gold.Chemscore.Internal.Correction>
   9.000000E+99

> <Gold.Chemscore.Hbonds>
donor molecule, donor type, donor heavy atom, donor atom, acceptor molecule, acceptor atom, score
      L1  H    11    27       P1  7948  0.45
      P1  H  7989  7998       L1     5  0.11
      P1  H 10752 10763       L1     8  0.25

> <Gold.Chemscore.Hbond.Weighted>
-8.0937

> <Gold.Chemscore.Metal.Weighted>
-0.0000

> <Gold.Chemscore.Lipo.Weighted>
-5.8048

> <Gold.Chemscore.Internal_Hbond.Weighted>
0.0000

> <Gold.Chemscore.DEClash.Weighted>
0.2423

> <Gold.Chemscore.DEInternal.Weighted>
2.1300

> <Gold.Chemscore.Rot.Weighted>
3.5567

> <Gold.Chemscore.Internal.Correction.Weighted>
   9.000000E+99

> <Gold.Protein.RotatedTorsions>
[ 6907 6896 6895 6894 ] final  122.43 input  -60.11 | X-H torsion
[ 7974 7965 7964 7962 ] final -143.35 input  175.53 | X-H torsion
[ 8008 7997 7996 7995 ] final -151.44 input   59.86 | X-H torsion
[ 10167 10162 10161 10158 ] final   73.05 input  -65.29 | X-H torsion
[ 10718 10713 10712 10709 ] final -174.73 input   66.30 | X-H torsion
[ 10763 10752 10751 10750 ] final   63.18 input  -60.55 | X-H torsion
[ 11005 11000 10999 10996 ] final    5.13 input  -57.11 | X-H torsion

> <Gold.Protein.ActiveResidues>
 VAL166  LYS551  ARG553  GLY616  TRP617  ASP618  TYR619  PRO620  LYS621  CYS622 
 ASP623  PHE694  ASN695  SER759  ASP760  ASP761  ALA762  ILE779  LEU786  VAL792 
 PHE793  MET794  SER795  GLU796  ALA797  LYS798  CYS799  TRP800  GLU811  SER814 

> <Gold.Protein.RotatedAtoms>
  152.4243  133.7169  159.6510 H   0  0  0  0  0  0  0  0  0  0  0  0  # atno 6907 bound_to 6896
  150.8120  133.8395  159.3184 H   0  0  0  0  0  0  0  0  0  0  0  0  # atno 6908 bound_to 6896
  151.6102  135.1043  160.0131 H   0  0  0  0  0  0  0  0  0  0  0  0  # atno 6909 bound_to 6896
  144.8376  140.5845  143.5474 H   0  0  0  0  0  0  0  0  0  0  0  0  # atno 7974 bound_to 7965
  155.6395  140.0700  157.2623 H   0  0  0  0  0  0  0  0  0  0  0  0  # atno 8008 bound_to 7997
  154.4187  140.1753  156.1607 H   0  0  0  0  0  0  0  0  0  0  0  0  # atno 8009 bound_to 7997
  155.9867  140.3349  155.6717 H   0  0  0  0  0  0  0  0  0  0  0  0  # atno 8010 bound_to 7997
  140.0286  144.5483  150.7524 H   0  0  0  0  0  0  0  0  0  0  0  0  # atno 10167 bound_to 10162
  156.7894  130.9512  151.3120 H   0  0  0  0  0  0  0  0  0  0  0  0  # atno 10718 bound_to 10713
  153.0008  135.5438  154.6311 H   0  0  0  0  0  0  0  0  0  0  0  0  # atno 10763 bound_to 10752
  154.5588  135.2832  155.0941 H   0  0  0  0  0  0  0  0  0  0  0  0  # atno 10764 bound_to 10752
  154.2152  135.6460  153.5180 H   0  0  0  0  0  0  0  0  0  0  0  0  # atno 10765 bound_to 10752
  140.5742  134.0074  155.8021 H   0  0  0  0  0  0  0  0  0  0  0  0  # atno 11005 bound_to 11000
  145.4763  139.1499  143.3787 LP  0  0  0  0  0  0  0  0  0  0  0  0  # atno 17320 bound_to 7965
  146.2672  140.4897  142.8829 LP  0  0  0  0  0  0  0  0  0  0  0  0  # atno 17321 bound_to 7965
  140.7311  143.2691  151.3946 LP  0  0  0  0  0  0  0  0  0  0  0  0  # atno 17342 bound_to 10162
  139.6091  144.1136  152.2280 LP  0  0  0  0  0  0  0  0  0  0  0  0  # atno 17343 bound_to 10162
  157.6608  130.8964  149.9825 LP  0  0  0  0  0  0  0  0  0  0  0  0  # atno 17370 bound_to 10713
  156.1168  130.3647  149.9954 LP  0  0  0  0  0  0  0  0  0  0  0  0  # atno 17371 bound_to 10713
  141.1037  133.9727  157.3034 LP  0  0  0  0  0  0  0  0  0  0  0  0  # atno 17394 bound_to 11000
  139.9347  135.0197  156.8518 LP  0  0  0  0  0  0  0  0  0  0  0  0  # atno 17395 bound_to 11000

$$$$
