AV-unprocessed.smi:1405|AV-procd|sdf|5708|dock8
  -GOLD-   22720 5343D 1   1.00000     0.00000
 Structure written by MMmdl.
 48 51  0  0  0  0  0  0  0  0  2 V2000
  150.8199  135.5123  157.6606 O   0  0  0  0  0  0  0  0  0  0  0  0
  150.5497  136.6681  157.3357 C   0  0  0  0  0  0  0  0  0  0  0  0
  151.1302  137.2331  156.0270 C   0  0  0  0  0  0  0  0  0  0  0  0
  150.5944  138.5482  155.6291 N   0  0  0  0  0  0  0  0  0  0  0  0
  149.2903  138.5836  155.1046 C   0  0  0  0  0  0  0  0  0  0  0  0
  148.7181  139.7330  154.6986 C   0  0  0  0  0  0  0  0  0  0  0  0
  149.4876  140.9653  154.8142 C   0  0  0  0  0  0  0  0  0  0  0  0
  148.9815  142.0240  154.4477 O   0  0  0  0  0  0  0  0  0  0  0  0
  150.7492  140.8794  155.3288 N   0  5  0  0  0  0  0  0  0  0  0  0
  151.3192  139.7030  155.7357 C   0  0  0  0  0  0  0  0  0  0  0  0
  152.4635  139.6464  156.1861 O   0  0  0  0  0  0  0  0  0  0  0  0
  149.7763  137.4710  158.0839 N   0  0  0  0  0  0  0  0  0  0  0  0
  149.1655  137.1108  159.3549 C   0  0  0  0  0  0  0  0  0  0  0  0
  147.7867  136.4694  159.1113 C   0  0  0  0  0  0  0  0  0  0  0  0
  147.1200  135.7857  160.3322 C   0  0  0  0  0  0  0  0  0  0  0  0
  147.7701  134.4083  160.6355 C   0  0  0  0  0  0  0  0  0  0  0  0
  147.1301  133.7745  161.8896 C   0  0  2  0  0  0  0  0  0  0  0  0
  145.6184  133.5755  161.6518 C   0  0  0  0  0  0  0  0  0  0  0  0
  144.9604  134.9453  161.3799 C   0  0  1  0  0  0  0  0  0  0  0  0
  145.1714  135.8710  162.5954 C   0  0  0  0  0  0  0  0  0  0  0  0
  146.6838  136.0628  162.8280 C   0  0  1  0  0  0  0  0  0  0  0  0
  147.3453  134.6978  163.1061 C   0  0  0  0  0  0  0  0  0  0  0  0
  147.3204  136.6969  161.5736 C   0  0  0  0  0  0  0  0  0  0  0  0
  145.5946  135.5827  160.1240 C   0  0  0  0  0  0  0  0  0  0  0  0
  152.2137  137.2942  156.1371 H   0  0  0  0  0  0  0  0  0  0  0  0
  150.9708  136.5008  155.2338 H   0  0  0  0  0  0  0  0  0  0  0  0
  148.7925  137.6266  155.0470 H   0  0  0  0  0  0  0  0  0  0  0  0
  147.7163  139.7418  154.2948 H   0  0  0  0  0  0  0  0  0  0  0  0
  149.5992  138.4040  157.7394 H   0  0  0  0  0  0  0  0  0  0  0  0
  149.8160  136.4194  159.8918 H   0  0  0  0  0  0  0  0  0  0  0  0
  149.0803  138.0151  159.9564 H   0  0  0  0  0  0  0  0  0  0  0  0
  147.1095  137.2338  158.7266 H   0  0  0  0  0  0  0  0  0  0  0  0
  147.8900  135.7384  158.3078 H   0  0  0  0  0  0  0  0  0  0  0  0
  147.6471  133.7277  159.7931 H   0  0  0  0  0  0  0  0  0  0  0  0
  148.8450  134.5209  160.7833 H   0  0  0  0  0  0  0  0  0  0  0  0
  147.5964  132.8081  162.0833 H   0  0  0  0  0  0  0  0  0  0  0  0
  145.4540  132.9028  160.8089 H   0  0  0  0  0  0  0  0  0  0  0  0
  145.1591  133.1003  162.5195 H   0  0  0  0  0  0  0  0  0  0  0  0
  143.8918  134.8059  161.2141 H   0  0  0  0  0  0  0  0  0  0  0  0
  144.6893  136.8345  162.4255 H   0  0  0  0  0  0  0  0  0  0  0  0
  144.7031  135.4442  163.4832 H   0  0  0  0  0  0  0  0  0  0  0  0
  146.8376  136.7204  163.6841 H   0  0  0  0  0  0  0  0  0  0  0  0
  146.9200  134.2469  164.0035 H   0  0  0  0  0  0  0  0  0  0  0  0
  148.4110  134.8258  163.3003 H   0  0  0  0  0  0  0  0  0  0  0  0
  148.3832  136.8697  161.7485 H   0  0  0  0  0  0  0  0  0  0  0  0
  146.8794  137.6791  161.3967 H   0  0  0  0  0  0  0  0  0  0  0  0
  145.1112  136.5357  159.9043 H   0  0  0  0  0  0  0  0  0  0  0  0
  145.4037  134.9375  159.2663 H   0  0  0  0  0  0  0  0  0  0  0  0
  1  2  2  0  0  0  0
  2  3  1  0  0  0  0
  2 12  1  0  0  0  0
  3  4  1  0  0  0  0
  3 25  1  0  0  0  0
  3 26  1  0  0  0  0
  4 10  1  0  0  0  0
  4  5  1  0  0  0  0
  5  6  2  0  0  0  0
  5 27  1  0  0  0  0
  6  7  1  0  0  0  0
  6 28  1  0  0  0  0
  7  8  2  0  0  0  0
  7  9  1  0  0  0  0
  9 10  1  0  0  0  0
 10 11  2  0  0  0  0
 12 13  1  0  0  0  0
 12 29  1  0  0  0  0
 13 14  1  0  0  0  0
 13 30  1  0  0  0  0
 13 31  1  0  0  0  0
 14 15  1  0  0  0  0
 14 32  1  0  0  0  0
 14 33  1  0  0  0  0
 15 23  1  0  0  0  0
 15 24  1  0  0  0  0
 15 16  1  0  0  0  0
 16 17  1  0  0  0  0
 16 34  1  0  0  0  0
 16 35  1  0  0  0  0
 17 22  1  0  0  0  0
 17 18  1  0  0  0  0
 17 36  1  0  0  0  0
 18 19  1  0  0  0  0
 18 37  1  0  0  0  0
 18 38  1  0  0  0  0
 19 20  1  0  0  0  0
 19 24  1  0  0  0  0
 19 39  1  0  0  0  0
 20 21  1  0  0  0  0
 20 40  1  0  0  0  0
 20 41  1  0  0  0  0
 21 22  1  0  0  0  0
 21 23  1  0  0  0  0
 21 42  1  0  0  0  0
 22 43  1  0  0  0  0
 22 44  1  0  0  0  0
 23 45  1  0  0  0  0
 23 46  1  0  0  0  0
 24 47  1  0  0  0  0
 24 48  1  0  0  0  0
M  CHG  1   9  -1
M  END
> <s_m_source_file>
AV-unprocessed.smi

> <i_m_source_file_index>
1405

> <i_lp_mmshare_version>
43012

> <i_f3d_flags>
0

> <s_epik_input>
Tz1jMVtuSF1jKD1PKVtjSF1bY0hdbjFbQ0gyXUMoPU8pW05IXVtDSDJdW0NIMl1DMjNbQ0gyXVtDQEBIXTRbQ0gyXVtDQEhdKFtDSDJdMylbQ0gyXVtDQEBIXShbQ0gyXTQpW0NIMl0y

> <s_epik_cmdline>
J2VwaWtfcHl0aG9uJywgJy1waCcsICc3LjAnLCAnLXRuJywgJzgnLCAnLW1hJywgJzIwMCcsICctbWV0YWxfYmluZGluZycsICctaW1hZScsICc8aW5maWxlLm1hZT4nLCAnLW9tYWUnLCAnPG91dGZpbGUubWFlPic=

> <r_lp_tautomer_probability>
0.999537

> <r_epik_Ionization_Penalty>
3.12935

> <r_epik_Ionization_Penalty_Charging>
2.8866e-08

> <r_epik_Ionization_Penalty_Neutral>
3.12935

> <r_epik_State_Penalty>
3.12845

> <r_epik_Charging_Adjusted_Penalty>
3.12845

> <i_epik_Tot_Q>
-1

> <i_epik_Tot_abs_Q>
1

> <r_epik_Metal_State_Penalty>
0.464346

> <b_epik_Metal_Only>
1

> <s_lp_Force_Field>
OPLS_2005

> <r_lp_Energy>
42.9683

> <b_lp_Chiralities_Consistent>
1

> <s_lp_Variant>
AV-unprocessed.smi:1405-2

> <Gold.Version>
5.8.1

> <Gold.Id.Protein>
6NUR|6NUR_protein|mol2

> <Gold.PLP.Fitness>
45.6434

> <Gold.PLP.PLP>
-37.9042

> <Gold.PLP.part.hbond>
-4.4256

> <Gold.PLP.part.metal>
0.0000

> <Gold.PLP.part.buried>
-3.4601

> <Gold.PLP.part.nonpolar>
-31.1529

> <Gold.PLP.part.repulsive>
0.7160

> <Gold.PLP.ligand.clash>
0.0000

> <Gold.PLP.ligand.torsion>
0.6798

> <Gold.PLP.Chemscore.Hbond>
3.0234

> <Gold.PLP.Chemscore.CHOScore>
0.0000

> <Gold.PLP.Chemscore.Metal>
0.0000

> <Gold.Chemscore.Hbonds>
donor molecule, donor type, donor heavy atom, donor atom, acceptor molecule, acceptor atom, score
      P1  H  6896  6908       L1     1  0.30
      P1  H  7989  7998       L1     9  0.41
      P1  H  7997  8008       L1    11  1.00
      P1  H  8011  8017       L1     8  0.13

> <Gold.PLP.Chemscore.Internal.Correction>
0.0284

> <Gold.Rescore>
     Score         DG    S(hbond)    S(metal)    S(lipo)     H(rot)  DE(clash)    DE(int)     intcor
     15.02     -16.06       1.67        0.00      89.22       2.12       0.28       0.76       ----

> <Gold.Chemscore.Fitness>
15.0221

> <Gold.Chemscore.DG>
-16.0615

> <Gold.Chemscore.ZeroCoef>
-5.4800

> <Gold.Chemscore.Hbond>
1.6689

> <Gold.Chemscore.Metal>
0.0000

> <Gold.Chemscore.Lipo>
89.2213

> <Gold.Chemscore.Internal_Hbond>
0.0000

> <Gold.Chemscore.DEClash>
0.2791

> <Gold.Chemscore.DEInternal>
0.7604

> <Gold.Chemscore.Rot>
2.1216

> <Gold.Chemscore.Internal.Correction>
   9.000000E+99

> <Gold.Chemscore.Hbonds>
donor molecule, donor type, donor heavy atom, donor atom, acceptor molecule, acceptor atom, score
      P1  H  6896  6908       L1     1  0.31
      P1  H  7997  8008       L1    11  0.99
      P1  H  8011  8017       L1     8  0.08

> <Gold.Chemscore.Hbond.Weighted>
-5.5741

> <Gold.Chemscore.Metal.Weighted>
-0.0000

> <Gold.Chemscore.Lipo.Weighted>
-10.4389

> <Gold.Chemscore.Internal_Hbond.Weighted>
0.0000

> <Gold.Chemscore.DEClash.Weighted>
0.2791

> <Gold.Chemscore.DEInternal.Weighted>
0.7604

> <Gold.Chemscore.Rot.Weighted>
5.4314

> <Gold.Chemscore.Internal.Correction.Weighted>
   9.000000E+99

> <Gold.Protein.RotatedTorsions>
[ 6907 6896 6895 6894 ] final  156.41 input  -60.11 | X-H torsion
[ 7974 7965 7964 7962 ] final  178.11 input  175.53 | X-H torsion
[ 8008 7997 7996 7995 ] final  -38.81 input   59.86 | X-H torsion
[ 10167 10162 10161 10158 ] final  -48.22 input  -65.29 | X-H torsion
[ 10718 10713 10712 10709 ] final -103.61 input   66.30 | X-H torsion
[ 10763 10752 10751 10750 ] final -136.10 input  -60.55 | X-H torsion
[ 11005 11000 10999 10996 ] final  -27.99 input  -57.11 | X-H torsion

> <Gold.Protein.ActiveResidues>
 VAL166  LYS551  ARG553  GLY616  TRP617  ASP618  TYR619  PRO620  LYS621  CYS622 
 ASP623  PHE694  ASN695  SER759  ASP760  ASP761  ALA762  ILE779  LEU786  VAL792 
 PHE793  MET794  SER795  GLU796  ALA797  LYS798  CYS799  TRP800  GLU811  SER814 

> <Gold.Protein.RotatedAtoms>
  152.0301  133.3934  159.4293 H   0  0  0  0  0  0  0  0  0  0  0  0  # atno 6907 bound_to 6896
  150.6883  134.3530  159.4926 H   0  0  0  0  0  0  0  0  0  0  0  0  # atno 6908 bound_to 6896
  152.1315  134.9131  160.0609 H   0  0  0  0  0  0  0  0  0  0  0  0  # atno 6909 bound_to 6896
  144.7160  140.0349  143.6438 H   0  0  0  0  0  0  0  0  0  0  0  0  # atno 7974 bound_to 7965
  154.4031  140.1568  156.2761 H   0  0  0  0  0  0  0  0  0  0  0  0  # atno 8008 bound_to 7997
  155.8910  140.3438  155.5934 H   0  0  0  0  0  0  0  0  0  0  0  0  # atno 8009 bound_to 7997
  155.7558  140.0811  157.2170 H   0  0  0  0  0  0  0  0  0  0  0  0  # atno 8010 bound_to 7997
  140.6740  143.2749  151.4039 H   0  0  0  0  0  0  0  0  0  0  0  0  # atno 10167 bound_to 10162
  156.0272  130.5476  150.7278 H   0  0  0  0  0  0  0  0  0  0  0  0  # atno 10718 bound_to 10713
  154.8690  135.3683  154.5005 H   0  0  0  0  0  0  0  0  0  0  0  0  # atno 10763 bound_to 10752
  153.5646  135.7022  153.5536 H   0  0  0  0  0  0  0  0  0  0  0  0  # atno 10764 bound_to 10752
  153.3597  135.4050  155.1672 H   0  0  0  0  0  0  0  0  0  0  0  0  # atno 10765 bound_to 10752
  140.9169  133.7424  156.0747 H   0  0  0  0  0  0  0  0  0  0  0  0  # atno 11005 bound_to 11000
  146.0072  139.3139  143.0892 LP  0  0  0  0  0  0  0  0  0  0  0  0  # atno 17320 bound_to 7965
  145.8724  140.9412  143.0643 LP  0  0  0  0  0  0  0  0  0  0  0  0  # atno 17321 bound_to 7965
  139.6023  144.1269  152.2212 LP  0  0  0  0  0  0  0  0  0  0  0  0  # atno 17342 bound_to 10162
  140.0657  144.5820  150.7229 LP  0  0  0  0  0  0  0  0  0  0  0  0  # atno 17343 bound_to 10162
  157.4878  131.0908  151.0462 LP  0  0  0  0  0  0  0  0  0  0  0  0  # atno 17370 bound_to 10713
  157.0877  130.5929  149.5433 LP  0  0  0  0  0  0  0  0  0  0  0  0  # atno 17371 bound_to 10713
  140.8038  134.3478  157.5432 LP  0  0  0  0  0  0  0  0  0  0  0  0  # atno 17394 bound_to 11000
  139.8768  134.9214  156.3274 LP  0  0  0  0  0  0  0  0  0  0  0  0  # atno 17395 bound_to 11000

$$$$
