AV-unprocessed.smi:246|AV-procd|sdf|1886|dock3
  -GOLD-   2262020543D 1   1.00000     0.00000
 Structure written by MMmdl.
 57 60  0  0  0  0  0  0  0  0  1 V2000
  143.4517  132.6301  149.0021 C   0  0  0  0  0  0  0  0  0  0  0  0
  143.4097  132.2260  150.4819 C   0  0  0  0  0  0  0  0  0  0  0  0
  144.3596  132.9536  151.2471 O   0  0  0  0  0  0  0  0  0  0  0  0
  144.1305  134.3546  151.2807 C   0  0  0  0  0  0  0  0  0  0  0  0
  145.4828  135.0709  151.3201 C   0  0  0  0  0  0  0  0  0  0  0  0
  145.7028  135.5503  152.6376 O   0  0  0  0  0  0  0  0  0  0  0  0
  145.1327  136.8272  152.8900 C   0  0  1  0  0  0  0  0  0  0  0  0
  144.7529  136.9691  154.3682 C   0  0  0  0  0  0  0  0  0  0  0  0
  146.0602  137.4033  155.0241 C   0  0  0  0  0  0  0  0  0  0  0  0
  146.7202  138.2261  154.0209 N   0  0  0  0  0  0  0  0  0  0  0  0
  147.9952  138.6620  154.1973 C   0  0  0  0  0  0  0  0  0  0  0  0
  148.9978  138.0494  153.5126 N   0  0  0  0  0  0  0  0  0  0  0  0
  150.2635  138.4513  153.6555 C   0  0  0  0  0  0  0  0  0  0  0  0
  150.7461  139.4299  154.4222 N   0  0  0  0  0  0  0  0  0  0  0  0
  149.7504  140.0447  155.1220 C   0  0  0  0  0  0  0  0  0  0  0  0
  148.3628  139.7230  155.0777 C   0  0  0  0  0  0  0  0  0  0  0  0
  147.6651  140.5506  155.9515 N   0  0  0  0  0  0  0  0  0  0  0  0
  148.5817  141.3207  156.4692 C   0  0  0  0  0  0  0  0  0  0  0  0
  149.8609  141.0964  156.0151 N   0  0  0  0  0  0  0  0  0  0  0  0
  151.0644  141.8071  156.4175 C   0  0  0  0  0  0  0  0  0  0  0  0
  151.5219  141.5254  157.8677 C   0  0  1  0  0  0  0  0  0  0  0  0
  152.1975  140.2862  157.9615 O   0  0  0  0  0  0  0  0  0  0  0  0
  152.3578  142.6467  158.5271 C   0  0  1  0  0  0  0  0  0  0  0  0
  151.8130  144.0689  158.3638 C   0  0  0  0  0  0  0  0  0  0  0  0
  152.4533  144.7742  159.5384 C   0  0  0  0  0  0  0  0  0  0  0  0
  152.3903  143.6950  160.6149 C   0  0  0  0  0  0  0  0  0  0  0  0
  152.5429  142.4569  159.9282 O   0  0  0  0  0  0  0  0  0  0  0  0
  146.2371  137.8749  152.6912 C   0  0  0  0  0  0  0  0  0  0  0  0
  144.2918  137.0153  152.2199 H   0  0  0  0  0  0  0  0  0  0  0  0
  142.7796  132.0053  148.4137 H   0  0  0  0  0  0  0  0  0  0  0  0
  144.4564  132.5131  148.5952 H   0  0  0  0  0  0  0  0  0  0  0  0
  143.1486  133.6661  148.8540 H   0  0  0  0  0  0  0  0  0  0  0  0
  142.4051  132.3358  150.8932 H   0  0  0  0  0  0  0  0  0  0  0  0
  143.6637  131.1689  150.5640 H   0  0  0  0  0  0  0  0  0  0  0  0
  143.5505  134.6930  150.4218 H   0  0  0  0  0  0  0  0  0  0  0  0
  143.5615  134.6011  152.1782 H   0  0  0  0  0  0  0  0  0  0  0  0
  146.2778  134.3692  151.0638 H   0  0  0  0  0  0  0  0  0  0  0  0
  145.5071  135.8750  150.5838 H   0  0  0  0  0  0  0  0  0  0  0  0
  144.0118  137.7619  154.4778 H   0  0  0  0  0  0  0  0  0  0  0  0
  144.3389  136.0633  154.8105 H   0  0  0  0  0  0  0  0  0  0  0  0
  145.8840  137.9559  155.9476 H   0  0  0  0  0  0  0  0  0  0  0  0
  146.6774  136.5329  155.2522 H   0  0  0  0  0  0  0  0  0  0  0  0
  150.9936  137.9123  153.0701 H   0  0  0  0  0  0  0  0  0  0  0  0
  148.3463  142.0883  157.1919 H   0  0  0  0  0  0  0  0  0  0  0  0
  151.8638  141.5496  155.7217 H   0  0  0  0  0  0  0  0  0  0  0  0
  150.8842  142.8750  156.2875 H   0  0  0  0  0  0  0  0  0  0  0  0
  150.6165  141.4124  158.4650 H   0  0  0  0  0  0  0  0  0  0  0  0
  151.8018  139.6808  157.3531 H   0  0  0  0  0  0  0  0  0  0  0  0
  153.3578  142.6258  158.0909 H   0  0  0  0  0  0  0  0  0  0  0  0
  152.0720  144.5155  157.4034 H   0  0  0  0  0  0  0  0  0  0  0  0
  150.7280  144.0965  158.4701 H   0  0  0  0  0  0  0  0  0  0  0  0
  153.4912  145.0197  159.3096 H   0  0  0  0  0  0  0  0  0  0  0  0
  151.9375  145.6917  159.8231 H   0  0  0  0  0  0  0  0  0  0  0  0
  153.1531  143.8232  161.3831 H   0  0  0  0  0  0  0  0  0  0  0  0
  151.4143  143.7016  161.1018 H   0  0  0  0  0  0  0  0  0  0  0  0
  147.0325  137.4948  152.0487 H   0  0  0  0  0  0  0  0  0  0  0  0
  145.8266  138.7719  152.2269 H   0  0  0  0  0  0  0  0  0  0  0  0
  1  2  1  0  0  0  0
  1 30  1  0  0  0  0
  1 31  1  0  0  0  0
  1 32  1  0  0  0  0
  2  3  1  0  0  0  0
  2 33  1  0  0  0  0
  2 34  1  0  0  0  0
  3  4  1  0  0  0  0
  4  5  1  0  0  0  0
  4 35  1  0  0  0  0
  4 36  1  0  0  0  0
  5  6  1  0  0  0  0
  5 37  1  0  0  0  0
  5 38  1  0  0  0  0
  6  7  1  0  0  0  0
  7 29  1  0  0  0  0
  7 28  1  0  0  0  0
  7  8  1  0  0  0  0
  8  9  1  0  0  0  0
  8 39  1  0  0  0  0
  8 40  1  0  0  0  0
  9 10  1  0  0  0  0
  9 41  1  0  0  0  0
  9 42  1  0  0  0  0
 10 11  1  0  0  0  0
 10 28  1  0  0  0  0
 11 16  1  0  0  0  0
 11 12  2  0  0  0  0
 12 13  1  0  0  0  0
 13 14  2  0  0  0  0
 13 43  1  0  0  0  0
 14 15  1  0  0  0  0
 15 19  1  0  0  0  0
 15 16  2  0  0  0  0
 16 17  1  0  0  0  0
 17 18  2  0  0  0  0
 18 19  1  0  0  0  0
 18 44  1  0  0  0  0
 19 20  1  0  0  0  0
 20 21  1  0  0  0  0
 20 45  1  0  0  0  0
 20 46  1  0  0  0  0
 21 22  1  0  0  0  0
 21 23  1  0  0  0  0
 21 47  1  0  0  0  0
 22 48  1  0  0  0  0
 23 27  1  0  0  0  0
 23 24  1  0  0  0  0
 23 49  1  0  0  0  0
 24 25  1  0  0  0  0
 24 50  1  0  0  0  0
 24 51  1  0  0  0  0
 25 26  1  0  0  0  0
 25 52  1  0  0  0  0
 25 53  1  0  0  0  0
 26 27  1  0  0  0  0
 26 54  1  0  0  0  0
 26 55  1  0  0  0  0
 28 56  1  0  0  0  0
 28 57  1  0  0  0  0
M  END
> <s_m_source_file>
AV-unprocessed.smi

> <i_m_source_file_index>
246

> <i_lp_mmshare_version>
43012

> <i_f3d_flags>
0

> <s_epik_input>
W0NIM11bQ0gyXU9bQ0gyXVtDSDJdT1tDQEhdMVtDSDJdW0NIMl1OKFtDSDJdMSljKG5bY0hdbjIpYyhjMjMpbltjSF1uM1tDSDJdW0NASF0oW09IXSlbQ0BASF00W0NIMl1bQ0gyXVtDSDJdTzQ=

> <s_epik_cmdline>
J2VwaWtfcHl0aG9uJywgJy1waCcsICc3LjAnLCAnLXRuJywgJzgnLCAnLW1hJywgJzIwMCcsICctbWV0YWxfYmluZGluZycsICctaW1hZScsICc8aW5maWxlLm1hZT4nLCAnLW9tYWUnLCAnPG91dGZpbGUubWFlPic=

> <r_lp_tautomer_probability>
1

> <r_epik_Ionization_Penalty>
0.0024631

> <r_epik_Ionization_Penalty_Charging>
0

> <r_epik_Ionization_Penalty_Neutral>
0.0024631

> <r_epik_State_Penalty>
0.00162428

> <r_epik_Charging_Adjusted_Penalty>
0.00162428

> <i_epik_Tot_Q>
0

> <i_epik_Tot_abs_Q>
0

> <r_epik_Metal_State_Penalty>
-0

> <b_epik_Metal_Only>
0

> <s_lp_Force_Field>
OPLS_2005

> <r_lp_Energy>
53.5717

> <b_lp_Chiralities_Consistent>
1

> <s_lp_Variant>
AV-unprocessed.smi:246-7

> <Gold.Version>
5.8.1

> <Gold.Id.Protein>
6NUR|6NUR_protein|mol2

> <Gold.PLP.Fitness>
48.9305

> <Gold.PLP.PLP>
-46.5461

> <Gold.PLP.part.hbond>
-1.0000

> <Gold.PLP.part.metal>
0.0000

> <Gold.PLP.part.buried>
-6.4127

> <Gold.PLP.part.nonpolar>
-44.2731

> <Gold.PLP.part.repulsive>
5.0870

> <Gold.PLP.ligand.clash>
0.0000

> <Gold.PLP.ligand.torsion>
2.5690

> <Gold.PLP.Chemscore.Hbond>
0.9500

> <Gold.PLP.Chemscore.CHOScore>
1.2876

> <Gold.PLP.Chemscore.Metal>
0.0000

> <Gold.Chemscore.Hbonds>
donor molecule, donor type, donor heavy atom, donor atom, acceptor molecule, acceptor atom, score
      P1  H  7989  7998       L1    14  1.00
      L1  C    13    43       P1  7948  0.01
      L1  C    13    43       P1  7949  1.00

> <Gold.PLP.Chemscore.Internal.Correction>
0.8099

> <Gold.Rescore>
     Score         DG    S(hbond)    S(metal)    S(lipo)     H(rot)  DE(clash)    DE(int)     intcor
      7.27     -10.81       0.06        0.00     111.73       3.10       0.72       2.82       ----

> <Gold.Chemscore.Fitness>
7.2712

> <Gold.Chemscore.DG>
-10.8148

> <Gold.Chemscore.ZeroCoef>
-5.4800

> <Gold.Chemscore.Hbond>
0.0614

> <Gold.Chemscore.Metal>
0.0000

> <Gold.Chemscore.Lipo>
111.7283

> <Gold.Chemscore.Internal_Hbond>
0.0000

> <Gold.Chemscore.DEClash>
0.7189

> <Gold.Chemscore.DEInternal>
2.8247

> <Gold.Chemscore.Rot>
3.1026

> <Gold.Chemscore.Internal.Correction>
   9.000000E+99

> <Gold.Chemscore.Hbonds>
donor molecule, donor type, donor heavy atom, donor atom, acceptor molecule, acceptor atom, score
      P1  H  7989  7998       L1    14  0.45

> <Gold.Chemscore.Hbond.Weighted>
-0.2052

> <Gold.Chemscore.Metal.Weighted>
-0.0000

> <Gold.Chemscore.Lipo.Weighted>
-13.0722

> <Gold.Chemscore.Internal_Hbond.Weighted>
0.0000

> <Gold.Chemscore.DEClash.Weighted>
0.7189

> <Gold.Chemscore.DEInternal.Weighted>
2.8247

> <Gold.Chemscore.Rot.Weighted>
7.9426

> <Gold.Chemscore.Internal.Correction.Weighted>
   9.000000E+99

> <Gold.Protein.RotatedTorsions>
[ 6907 6896 6895 6894 ] final  -18.52 input  -60.11 | X-H torsion
[ 7974 7965 7964 7962 ] final -170.98 input  175.53 | X-H torsion
[ 8008 7997 7996 7995 ] final -173.24 input   59.86 | X-H torsion
[ 10167 10162 10161 10158 ] final -141.59 input  -65.29 | X-H torsion
[ 10718 10713 10712 10709 ] final  160.28 input   66.30 | X-H torsion
[ 10763 10752 10751 10750 ] final  108.68 input  -60.55 | X-H torsion
[ 11005 11000 10999 10996 ] final  -76.45 input  -57.11 | X-H torsion

> <Gold.Protein.ActiveResidues>
 VAL166  LYS551  ARG553  GLY616  TRP617  ASP618  TYR619  PRO620  LYS621  CYS622 
 ASP623  PHE694  ASN695  SER759  ASP760  ASP761  ALA762  ILE779  LEU786  VAL792 
 PHE793  MET794  SER795  GLU796  ALA797  LYS798  CYS799  TRP800  GLU811  SER814 

> <Gold.Protein.RotatedAtoms>
  151.2770  135.0702  159.9154 H   0  0  0  0  0  0  0  0  0  0  0  0  # atno 6907 bound_to 6896
  152.5341  134.0071  159.7931 H   0  0  0  0  0  0  0  0  0  0  0  0  # atno 6908 bound_to 6896
  151.0318  133.5733  159.2691 H   0  0  0  0  0  0  0  0  0  0  0  0  # atno 6909 bound_to 6896
  144.7163  140.1990  143.6340 H   0  0  0  0  0  0  0  0  0  0  0  0  # atno 7974 bound_to 7965
  155.9549  140.1133  157.0945 H   0  0  0  0  0  0  0  0  0  0  0  0  # atno 8008 bound_to 7997
  154.4118  140.1193  156.5168 H   0  0  0  0  0  0  0  0  0  0  0  0  # atno 8009 bound_to 7997
  155.6795  140.3473  155.4852 H   0  0  0  0  0  0  0  0  0  0  0  0  # atno 8010 bound_to 7997
  139.8170  143.7625  152.2665 H   0  0  0  0  0  0  0  0  0  0  0  0  # atno 10167 bound_to 10162
  157.1525  131.0567  151.2273 H   0  0  0  0  0  0  0  0  0  0  0  0  # atno 10718 bound_to 10713
  153.4241  135.3804  155.2130 H   0  0  0  0  0  0  0  0  0  0  0  0  # atno 10763 bound_to 10752
  154.8746  135.3824  154.4348 H   0  0  0  0  0  0  0  0  0  0  0  0  # atno 10764 bound_to 10752
  153.4872  135.7088  153.5967 H   0  0  0  0  0  0  0  0  0  0  0  0  # atno 10765 bound_to 10752
  141.1654  133.6984  156.7670 H   0  0  0  0  0  0  0  0  0  0  0  0  # atno 11005 bound_to 11000
  145.8697  139.2265  143.1668 LP  0  0  0  0  0  0  0  0  0  0  0  0  # atno 17320 bound_to 7965
  146.0096  140.8447  142.9977 LP  0  0  0  0  0  0  0  0  0  0  0  0  # atno 17321 bound_to 7965
  139.7792  144.7450  151.0113 LP  0  0  0  0  0  0  0  0  0  0  0  0  # atno 17342 bound_to 10162
  140.7815  143.4561  151.0344 LP  0  0  0  0  0  0  0  0  0  0  0  0  # atno 17343 bound_to 10162
  157.4207  130.7436  149.6911 LP  0  0  0  0  0  0  0  0  0  0  0  0  # atno 17370 bound_to 10713
  155.9768  130.4071  150.3755 LP  0  0  0  0  0  0  0  0  0  0  0  0  # atno 17371 bound_to 10713
  140.2492  134.8554  157.3650 LP  0  0  0  0  0  0  0  0  0  0  0  0  # atno 17394 bound_to 11000
  140.1720  134.4597  155.7826 LP  0  0  0  0  0  0  0  0  0  0  0  0  # atno 17395 bound_to 11000

$$$$
