AV-unprocessed.smi:981|AV-procd|sdf|4313|dock7
  -GOLD-   22720 2223D 1   1.00000     0.00000
 Structure written by MMmdl.
 36 37  0  0  0  0  0  0  0  0  1 V2000
  153.3743  142.6464  159.8377 C   0  0  0  0  0  0  0  0  0  0  0  0
  152.7057  141.2882  159.5810 C   0  0  0  0  0  0  0  0  0  0  0  0
  153.5959  140.0962  159.9616 C   0  0  0  0  0  0  0  0  0  0  0  0
  152.1792  141.1746  158.1847 C   0  0  0  0  0  0  0  0  0  0  0  0
  152.5165  140.1944  157.3408 N   0  0  0  0  0  0  0  0  0  0  0  0
  151.8899  140.3122  156.0965 C   0  0  0  0  0  0  0  0  0  0  0  0
  152.1585  139.2999  155.0248 C   0  0  0  0  0  0  0  0  0  0  0  0
  151.3443  138.0140  155.2232 C   0  0  0  0  0  0  0  0  0  0  0  0
  150.3082  137.9010  154.2064 N   0  0  0  0  0  0  0  0  0  0  0  0
  149.2243  138.6897  154.1338 C   0  0  0  0  0  0  0  0  0  0  0  0
  148.9910  139.5898  154.9387 O   0  0  0  0  0  0  0  0  0  0  0  0
  148.3871  138.4141  153.1175 N   0  0  0  0  0  0  0  0  0  0  0  0
  147.1597  139.0709  152.7786 C   0  0  0  0  0  0  0  0  0  0  0  0
  145.9220  138.2072  152.6645 C   0  0  0  0  0  0  0  0  0  0  0  0
  146.5524  138.7765  151.4239 C   0  0  0  0  0  0  0  0  0  0  0  0
  151.0654  141.4057  156.0075 C   0  0  0  0  0  0  0  0  0  0  0  0
  151.0464  142.3270  157.4858 S   0  0  0  0  0  0  0  0  0  0  0  0
  152.6854  143.4669  159.6347 H   0  0  0  0  0  0  0  0  0  0  0  0
  154.2513  142.7833  159.2042 H   0  0  0  0  0  0  0  0  0  0  0  0
  153.6968  142.7353  160.8753 H   0  0  0  0  0  0  0  0  0  0  0  0
  151.8378  141.2448  160.2400 H   0  0  0  0  0  0  0  0  0  0  0  0
  153.0604  139.1536  159.8441 H   0  0  0  0  0  0  0  0  0  0  0  0
  153.9208  140.1642  161.0001 H   0  0  0  0  0  0  0  0  0  0  0  0
  154.4886  140.0524  159.3367 H   0  0  0  0  0  0  0  0  0  0  0  0
  151.9317  139.7278  154.0472 H   0  0  0  0  0  0  0  0  0  0  0  0
  153.2216  139.0561  155.0044 H   0  0  0  0  0  0  0  0  0  0  0  0
  152.0012  137.1441  155.1716 H   0  0  0  0  0  0  0  0  0  0  0  0
  150.8797  138.0105  156.2105 H   0  0  0  0  0  0  0  0  0  0  0  0
  150.4227  137.1796  153.5093 H   0  0  0  0  0  0  0  0  0  0  0  0
  148.6322  137.6234  152.5392 H   0  0  0  0  0  0  0  0  0  0  0  0
  146.9877  140.0699  153.1759 H   0  0  0  0  0  0  0  0  0  0  0  0
  146.0278  137.1374  152.8351 H   0  0  0  0  0  0  0  0  0  0  0  0
  144.9780  138.6387  152.9908 H   0  0  0  0  0  0  0  0  0  0  0  0
  146.0297  139.5881  150.9218 H   0  0  0  0  0  0  0  0  0  0  0  0
  147.0820  138.0881  150.7678 H   0  0  0  0  0  0  0  0  0  0  0  0
  150.4715  141.7249  155.1640 H   0  0  0  0  0  0  0  0  0  0  0  0
  1  2  1  0  0  0  0
  1 18  1  0  0  0  0
  1 19  1  0  0  0  0
  1 20  1  0  0  0  0
  2  3  1  0  0  0  0
  2  4  1  0  0  0  0
  2 21  1  0  0  0  0
  3 22  1  0  0  0  0
  3 23  1  0  0  0  0
  3 24  1  0  0  0  0
  4 17  1  0  0  0  0
  4  5  2  0  0  0  0
  5  6  1  0  0  0  0
  6  7  1  0  0  0  0
  6 16  2  0  0  0  0
  7  8  1  0  0  0  0
  7 25  1  0  0  0  0
  7 26  1  0  0  0  0
  8  9  1  0  0  0  0
  8 27  1  0  0  0  0
  8 28  1  0  0  0  0
  9 10  1  0  0  0  0
  9 29  1  0  0  0  0
 10 11  2  0  0  0  0
 10 12  1  0  0  0  0
 12 13  1  0  0  0  0
 12 30  1  0  0  0  0
 13 15  1  0  0  0  0
 13 14  1  0  0  0  0
 13 31  1  0  0  0  0
 14 15  1  0  0  0  0
 14 32  1  0  0  0  0
 14 33  1  0  0  0  0
 15 34  1  0  0  0  0
 15 35  1  0  0  0  0
 16 17  1  0  0  0  0
 16 36  1  0  0  0  0
M  END
> <s_m_source_file>
AV-unprocessed.smi

> <i_m_source_file_index>
981

> <i_lp_mmshare_version>
43012

> <i_f3d_flags>
0

> <s_epik_input>
W0NIM11bQ0hdKFtDSDNdKWMxbmMoW2NIXXMxKVtDSDJdW0NIMl1bTkhdQyg9TylbTkhdW0NIXTJbQ0gyXVtDSDJdMg==

> <s_epik_cmdline>
J2VwaWtfcHl0aG9uJywgJy1waCcsICc3LjAnLCAnLXRuJywgJzgnLCAnLW1hJywgJzIwMCcsICctbWV0YWxfYmluZGluZycsICctaW1hZScsICc8aW5maWxlLm1hZT4nLCAnLW9tYWUnLCAnPG91dGZpbGUubWFlPic=

> <r_epik_Ionization_Penalty>
0.00156572

> <r_epik_Ionization_Penalty_Charging>
0

> <r_epik_Ionization_Penalty_Neutral>
0.00156572

> <r_epik_State_Penalty>
0.0010059

> <r_epik_Charging_Adjusted_Penalty>
0.0010059

> <i_epik_Tot_Q>
0

> <i_epik_Tot_abs_Q>
0

> <r_epik_Metal_State_Penalty>
-0

> <b_epik_Metal_Only>
0

> <s_lp_Force_Field>
OPLS_2005

> <r_lp_Energy>
12.4684

> <b_lp_Chiralities_Consistent>
1

> <s_lp_Variant>
AV-unprocessed.smi:981-1

> <Gold.Version>
5.8.1

> <Gold.Id.Protein>
6NUR|6NUR_protein|mol2

> <Gold.PLP.Fitness>
41.9648

> <Gold.PLP.PLP>
-37.1022

> <Gold.PLP.part.hbond>
-3.7512

> <Gold.PLP.part.metal>
0.0000

> <Gold.PLP.part.buried>
-0.2128

> <Gold.PLP.part.nonpolar>
-32.9383

> <Gold.PLP.part.repulsive>
0.2073

> <Gold.PLP.ligand.clash>
0.0000

> <Gold.PLP.ligand.torsion>
0.7960

> <Gold.PLP.Chemscore.Hbond>
2.1114

> <Gold.PLP.Chemscore.CHOScore>
0.0000

> <Gold.PLP.Chemscore.Metal>
0.0000

> <Gold.Chemscore.Hbonds>
donor molecule, donor type, donor heavy atom, donor atom, acceptor molecule, acceptor atom, score
      L1  H     9    29       P1  7948  0.09
      L1  H    12    30       P1  7948  1.00
      P1  H  7997  8008       L1     5  0.90

> <Gold.PLP.Chemscore.Internal.Correction>
0.1205

> <Gold.Rescore>
     Score         DG    S(hbond)    S(metal)    S(lipo)     H(rot)  DE(clash)    DE(int)     intcor
     15.75     -18.32       1.79        0.00      96.06       1.70       0.25       2.32       ----

> <Gold.Chemscore.Fitness>
15.7528

> <Gold.Chemscore.DG>
-18.3180

> <Gold.Chemscore.ZeroCoef>
-5.4800

> <Gold.Chemscore.Hbond>
1.7853

> <Gold.Chemscore.Metal>
0.0000

> <Gold.Chemscore.Lipo>
96.0561

> <Gold.Chemscore.Internal_Hbond>
0.0000

> <Gold.Chemscore.DEClash>
0.2479

> <Gold.Chemscore.DEInternal>
2.3172

> <Gold.Chemscore.Rot>
1.7045

> <Gold.Chemscore.Internal.Correction>
   9.000000E+99

> <Gold.Chemscore.Hbonds>
donor molecule, donor type, donor heavy atom, donor atom, acceptor molecule, acceptor atom, score
      L1  H     9    29       P1  7948  0.01
      L1  H    12    30       P1  7948  0.96
      P1  H  7997  8008       L1     5  0.16

> <Gold.Chemscore.Hbond.Weighted>
-5.9630

> <Gold.Chemscore.Metal.Weighted>
-0.0000

> <Gold.Chemscore.Lipo.Weighted>
-11.2386

> <Gold.Chemscore.Internal_Hbond.Weighted>
0.0000

> <Gold.Chemscore.DEClash.Weighted>
0.2479

> <Gold.Chemscore.DEInternal.Weighted>
2.3172

> <Gold.Chemscore.Rot.Weighted>
4.3636

> <Gold.Chemscore.Internal.Correction.Weighted>
   9.000000E+99

> <Gold.Protein.RotatedTorsions>
[ 6907 6896 6895 6894 ] final   52.22 input  -60.11 | X-H torsion
[ 7974 7965 7964 7962 ] final -152.50 input  175.53 | X-H torsion
[ 8008 7997 7996 7995 ] final  -64.37 input   59.86 | X-H torsion
[ 10167 10162 10161 10158 ] final  -33.37 input  -65.29 | X-H torsion
[ 10718 10713 10712 10709 ] final -167.63 input   66.30 | X-H torsion
[ 10763 10752 10751 10750 ] final  -15.42 input  -60.55 | X-H torsion
[ 11005 11000 10999 10996 ] final   52.08 input  -57.11 | X-H torsion

> <Gold.Protein.ActiveResidues>
 VAL166  LYS551  ARG553  GLY616  TRP617  ASP618  TYR619  PRO620  LYS621  CYS622 
 ASP623  PHE694  ASN695  SER759  ASP760  ASP761  ALA762  ILE779  LEU786  VAL792 
 PHE793  MET794  SER795  GLU796  ALA797  LYS798  CYS799  TRP800  GLU811  SER814 

> <Gold.Protein.RotatedAtoms>
  152.3210  134.7380  160.0313 H   0  0  0  0  0  0  0  0  0  0  0  0  # atno 6907 bound_to 6896
  151.7828  133.3346  159.3484 H   0  0  0  0  0  0  0  0  0  0  0  0  # atno 6908 bound_to 6896
  150.7370  134.5846  159.6000 H   0  0  0  0  0  0  0  0  0  0  0  0  # atno 6909 bound_to 6896
  144.7791  140.4654  143.5852 H   0  0  0  0  0  0  0  0  0  0  0  0  # atno 7974 bound_to 7965
  154.4608  140.0955  156.6887 H   0  0  0  0  0  0  0  0  0  0  0  0  # atno 8008 bound_to 7997
  155.5000  140.3473  155.4351 H   0  0  0  0  0  0  0  0  0  0  0  0  # atno 8009 bound_to 7997
  156.0866  140.1386  156.9634 H   0  0  0  0  0  0  0  0  0  0  0  0  # atno 8010 bound_to 7997
  140.7205  143.3625  151.1935 H   0  0  0  0  0  0  0  0  0  0  0  0  # atno 10167 bound_to 10162
  156.6851  130.9137  151.3062 H   0  0  0  0  0  0  0  0  0  0  0  0  # atno 10718 bound_to 10713
  153.5430  135.7013  153.5627 H   0  0  0  0  0  0  0  0  0  0  0  0  # atno 10763 bound_to 10752
  153.3585  135.3976  155.1700 H   0  0  0  0  0  0  0  0  0  0  0  0  # atno 10764 bound_to 10752
  154.8671  135.3783  154.4936 H   0  0  0  0  0  0  0  0  0  0  0  0  # atno 10765 bound_to 10752
  140.0879  134.5250  155.8881 H   0  0  0  0  0  0  0  0  0  0  0  0  # atno 11005 bound_to 11000
  145.6102  139.1512  143.3080 LP  0  0  0  0  0  0  0  0  0  0  0  0  # atno 17320 bound_to 7965
  146.1988  140.6218  142.9112 LP  0  0  0  0  0  0  0  0  0  0  0  0  # atno 17321 bound_to 7965
  139.7180  143.9269  152.2974 LP  0  0  0  0  0  0  0  0  0  0  0  0  # atno 17342 bound_to 10162
  139.9016  144.6908  150.8658 LP  0  0  0  0  0  0  0  0  0  0  0  0  # atno 17343 bound_to 10162
  157.7029  130.9353  150.0841 LP  0  0  0  0  0  0  0  0  0  0  0  0  # atno 17370 bound_to 10713
  156.1839  130.3651  149.8999 LP  0  0  0  0  0  0  0  0  0  0  0  0  # atno 17371 bound_to 10713
  141.2068  133.6659  156.6267 LP  0  0  0  0  0  0  0  0  0  0  0  0  # atno 17394 bound_to 11000
  140.3394  134.7861  157.4386 LP  0  0  0  0  0  0  0  0  0  0  0  0  # atno 17395 bound_to 11000

$$$$
