AV-unprocessed.smi:62|AV-procd|sdf|601|dock1
  -GOLD-   2262016493D 1   1.00000     0.00000
 Structure written by MMmdl.
 31 32  0  0  0  0  0  0  0  0  3 V2000
  152.2772  144.5411  158.7521 C   0  0  0  0  0  0  0  0  0  0  0  0
  152.2483  143.0973  158.6600 N   0  0  0  0  0  0  0  0  0  0  0  0
  151.2538  142.2853  158.1652 C   0  0  0  0  0  0  0  0  0  0  0  0
  151.6721  140.9881  158.2797 C   0  0  0  0  0  0  0  0  0  0  0  0
  150.8970  139.7625  157.8562 C   0  0  0  0  0  0  0  0  0  0  0  0
  150.9226  139.5881  156.3855 N   0  3  1  0  0  0  0  0  0  0  0  0
  152.1740  140.0085  155.7089 C   0  0  0  0  0  0  0  0  0  0  0  0
  152.5179  138.9110  154.6934 C   0  0  0  0  0  0  0  0  0  0  0  0
  151.2179  138.1260  154.5358 C   0  0  1  0  0  0  0  0  0  0  0  0
  151.4476  136.7891  154.1437 O   0  0  0  0  0  0  0  0  0  0  0  0
  150.5972  138.2234  155.9268 C   0  0  0  0  0  0  0  0  0  0  0  0
  152.9723  141.1178  158.8765 C   0  0  0  0  0  0  0  0  0  0  0  0
  153.8298  139.9259  159.2123 C   0  0  0  0  0  0  0  0  0  0  0  0
  154.1906  139.7277  160.3934 O   0  0  0  0  0  0  0  0  0  0  0  0
  154.1673  139.1664  158.2782 O   0  5  0  0  0  0  0  0  0  0  0  0
  153.3022  142.3833  159.0968 N   0  0  0  0  0  0  0  0  0  0  0  0
  151.3467  144.9596  158.3676 H   0  0  0  0  0  0  0  0  0  0  0  0
  153.1103  144.9313  158.1666 H   0  0  0  0  0  0  0  0  0  0  0  0
  152.3986  144.8424  159.7930 H   0  0  0  0  0  0  0  0  0  0  0  0
  150.3344  142.6934  157.7719 H   0  0  0  0  0  0  0  0  0  0  0  0
  151.2984  138.8626  158.3245 H   0  0  0  0  0  0  0  0  0  0  0  0
  149.8600  139.8288  158.1874 H   0  0  0  0  0  0  0  0  0  0  0  0
  151.9945  140.9623  155.2116 H   0  0  0  0  0  0  0  0  0  0  0  0
  152.9969  140.1504  156.4109 H   0  0  0  0  0  0  0  0  0  0  0  0
  152.8891  139.3092  153.7487 H   0  0  0  0  0  0  0  0  0  0  0  0
  153.2953  138.2690  155.1112 H   0  0  0  0  0  0  0  0  0  0  0  0
  150.5722  138.6174  153.8065 H   0  0  0  0  0  0  0  0  0  0  0  0
  151.0689  136.6556  153.2879 H   0  0  0  0  0  0  0  0  0  0  0  0
  151.0600  137.4955  156.5960 H   0  0  0  0  0  0  0  0  0  0  0  0
  149.5213  138.0453  155.9232 H   0  0  0  0  0  0  0  0  0  0  0  0
  150.1910  140.1807  156.0168 H   0  0  0  0  0  0  0  0  0  0  0  0
  1  2  1  0  0  0  0
  1 17  1  0  0  0  0
  1 18  1  0  0  0  0
  1 19  1  0  0  0  0
  2 16  1  0  0  0  0
  2  3  1  0  0  0  0
  3  4  2  0  0  0  0
  3 20  1  0  0  0  0
  4  5  1  0  0  0  0
  4 12  1  0  0  0  0
  5  6  1  0  0  0  0
  5 21  1  0  0  0  0
  5 22  1  0  0  0  0
  6 11  1  0  0  0  0
  6  7  1  0  0  0  0
  6 31  1  0  0  0  0
  7  8  1  0  0  0  0
  7 23  1  0  0  0  0
  7 24  1  0  0  0  0
  8  9  1  0  0  0  0
  8 25  1  0  0  0  0
  8 26  1  0  0  0  0
  9 10  1  0  0  0  0
  9 11  1  0  0  0  0
  9 27  1  0  0  0  0
 10 28  1  0  0  0  0
 11 29  1  0  0  0  0
 11 30  1  0  0  0  0
 12 13  1  0  0  0  0
 12 16  2  0  0  0  0
 13 14  2  0  0  0  0
 13 15  1  0  0  0  0
M  CHG  1   6   1
M  CHG  1  15  -1
M  END
> <s_m_source_file>
AV-unprocessed.smi

> <i_m_source_file_index>
62

> <i_lp_mmshare_version>
43012

> <i_f3d_flags>
0

> <s_epik_input>
W0NIM11uMVtjSF1jKGMobjEpQyg9TylbT0hdKVtDSDJdTjJbQ0gyXVtDSDJdW0NAQEhdKFtPSF0pW0NIMl0y

> <s_epik_cmdline>
J2VwaWtfcHl0aG9uJywgJy1waCcsICc3LjAnLCAnLXRuJywgJzgnLCAnLW1hJywgJzIwMCcsICctbWV0YWxfYmluZGluZycsICctaW1hZScsICc8aW5maWxlLm1hZT4nLCAnLW9tYWUnLCAnPG91dGZpbGUubWFlPic=

> <r_epik_Ionization_Penalty>
0.0522993

> <r_epik_Ionization_Penalty_Charging>
0.0522915

> <r_epik_Ionization_Penalty_Neutral>
7.84975e-06

> <r_epik_State_Penalty>
0.0448084

> <r_epik_Charging_Adjusted_Penalty>
0.0970998

> <i_epik_Tot_Q>
0

> <i_epik_Tot_abs_Q>
2

> <r_epik_Metal_State_Penalty>
0.0448097

> <b_epik_Metal_Only>
0

> <s_lp_Force_Field>
OPLS_2005

> <r_lp_Energy>
17.2463

> <b_lp_Chiralities_Consistent>
1

> <s_lp_Variant>
AV-unprocessed.smi:62-1

> <Gold.Version>
5.8.1

> <Gold.Id.Protein>
6NUR|6NUR_protein|mol2

> <Gold.PLP.Fitness>
40.2318

> <Gold.PLP.PLP>
-31.3337

> <Gold.PLP.part.hbond>
-3.2947

> <Gold.PLP.part.metal>
0.0000

> <Gold.PLP.part.buried>
-3.7525

> <Gold.PLP.part.nonpolar>
-23.9840

> <Gold.PLP.part.repulsive>
0.0669

> <Gold.PLP.ligand.clash>
0.0000

> <Gold.PLP.ligand.torsion>
1.5572

> <Gold.PLP.Chemscore.Hbond>
4.0000

> <Gold.PLP.Chemscore.CHOScore>
0.0000

> <Gold.PLP.Chemscore.Metal>
0.0000

> <Gold.Chemscore.Hbonds>
donor molecule, donor type, donor heavy atom, donor atom, acceptor molecule, acceptor atom, score
      L1  H    10    28       P1  7949  1.00
      P1  H  7997  8008       L1    15  2.00
      P1  H 10752 10765       L1    10  1.00

> <Gold.PLP.Chemscore.Internal.Correction>
0.0125

> <Gold.Rescore>
     Score         DG    S(hbond)    S(metal)    S(lipo)     H(rot)  DE(clash)    DE(int)     intcor
     15.87     -17.82       2.85        0.00      63.69       1.81       0.01       1.95       ----

> <Gold.Chemscore.Fitness>
15.8708

> <Gold.Chemscore.DG>
-17.8225

> <Gold.Chemscore.ZeroCoef>
-5.4800

> <Gold.Chemscore.Hbond>
2.8508

> <Gold.Chemscore.Metal>
0.0000

> <Gold.Chemscore.Lipo>
63.6929

> <Gold.Chemscore.Internal_Hbond>
0.0000

> <Gold.Chemscore.DEClash>
0.0057

> <Gold.Chemscore.DEInternal>
1.9459

> <Gold.Chemscore.Rot>
1.8091

> <Gold.Chemscore.Internal.Correction>
   9.000000E+99

> <Gold.Chemscore.Hbonds>
donor molecule, donor type, donor heavy atom, donor atom, acceptor molecule, acceptor atom, score
      L1  H    10    28       P1  7949  0.33
      P1  H  7997  8008       L1    15  0.57
      P1  H 10752 10765       L1    10  0.24

> <Gold.Chemscore.Hbond.Weighted>
-9.5218

> <Gold.Chemscore.Metal.Weighted>
-0.0000

> <Gold.Chemscore.Lipo.Weighted>
-7.4521

> <Gold.Chemscore.Internal_Hbond.Weighted>
0.0000

> <Gold.Chemscore.DEClash.Weighted>
0.0057

> <Gold.Chemscore.DEInternal.Weighted>
1.9459

> <Gold.Chemscore.Rot.Weighted>
4.6314

> <Gold.Chemscore.Internal.Correction.Weighted>
   9.000000E+99

> <Gold.Protein.RotatedTorsions>
[ 6907 6896 6895 6894 ] final  127.20 input  -60.11 | X-H torsion
[ 7974 7965 7964 7962 ] final  -61.67 input  175.53 | X-H torsion
[ 8008 7997 7996 7995 ] final -116.45 input   59.86 | X-H torsion
[ 10167 10162 10161 10158 ] final  100.62 input  -65.29 | X-H torsion
[ 10718 10713 10712 10709 ] final   27.79 input   66.30 | X-H torsion
[ 10763 10752 10751 10750 ] final  140.21 input  -60.55 | X-H torsion
[ 11005 11000 10999 10996 ] final  129.31 input  -57.11 | X-H torsion

> <Gold.Protein.ActiveResidues>
 VAL166  LYS551  ARG553  GLY616  TRP617  ASP618  TYR619  PRO620  LYS621  CYS622 
 ASP623  PHE694  ASN695  SER759  ASP760  ASP761  ALA762  ILE779  LEU786  VAL792 
 PHE793  MET794  SER795  GLU796  ALA797  LYS798  CYS799  TRP800  GLU811  SER814 

> <Gold.Protein.RotatedAtoms>
  152.3834  133.6577  159.6178 H   0  0  0  0  0  0  0  0  0  0  0  0  # atno 6907 bound_to 6896
  150.7759  133.9076  159.3368 H   0  0  0  0  0  0  0  0  0  0  0  0  # atno 6908 bound_to 6896
  151.6877  135.0953  160.0279 H   0  0  0  0  0  0  0  0  0  0  0  0  # atno 6909 bound_to 6896
  145.8006  140.8657  143.0233 H   0  0  0  0  0  0  0  0  0  0  0  0  # atno 7974 bound_to 7965
  155.0680  140.0393  157.2599 H   0  0  0  0  0  0  0  0  0  0  0  0  # atno 8008 bound_to 7997
  154.7005  140.2672  155.6699 H   0  0  0  0  0  0  0  0  0  0  0  0  # atno 8009 bound_to 7997
  156.2759  140.2741  156.1614 H   0  0  0  0  0  0  0  0  0  0  0  0  # atno 8010 bound_to 7997
  139.7511  144.6983  151.0430 H   0  0  0  0  0  0  0  0  0  0  0  0  # atno 10167 bound_to 10162
  157.2248  130.6996  149.6286 H   0  0  0  0  0  0  0  0  0  0  0  0  # atno 10718 bound_to 10713
  153.9190  135.3002  155.3448 H   0  0  0  0  0  0  0  0  0  0  0  0  # atno 10763 bound_to 10752
  154.7585  135.4946  153.9423 H   0  0  0  0  0  0  0  0  0  0  0  0  # atno 10764 bound_to 10752
  153.1152  135.6769  153.9533 H   0  0  0  0  0  0  0  0  0  0  0  0  # atno 10765 bound_to 10752
  139.9608  134.9602  156.9129 H   0  0  0  0  0  0  0  0  0  0  0  0  # atno 11005 bound_to 11000
  144.6769  140.0254  143.7483 LP  0  0  0  0  0  0  0  0  0  0  0  0  # atno 17320 bound_to 7965
  145.9881  139.2993  143.1001 LP  0  0  0  0  0  0  0  0  0  0  0  0  # atno 17321 bound_to 7965
  140.7798  143.4808  151.0021 LP  0  0  0  0  0  0  0  0  0  0  0  0  # atno 17342 bound_to 10162
  139.8495  143.7457  152.3178 LP  0  0  0  0  0  0  0  0  0  0  0  0  # atno 17343 bound_to 10162
  155.9679  130.4508  150.5710 LP  0  0  0  0  0  0  0  0  0  0  0  0  # atno 17370 bound_to 10713
  157.3538  131.0738  151.1691 LP  0  0  0  0  0  0  0  0  0  0  0  0  # atno 17371 bound_to 10713
  140.5504  134.0633  155.7367 LP  0  0  0  0  0  0  0  0  0  0  0  0  # atno 17394 bound_to 11000
  141.1285  133.9342  157.2585 LP  0  0  0  0  0  0  0  0  0  0  0  0  # atno 17395 bound_to 11000

$$$$
