AV-unprocessed.smi:2062|AV-procd|sdf|8403|dock6
  -GOLD-   2272011 93D 1   1.00000     0.00000
 Structure written by MMmdl.
 42 43  0  0  0  0  0  0  0  0  3 V2000
  146.6818  132.0945  152.6815 C   0  0  0  0  0  0  0  0  0  0  0  0
  147.9372  132.7479  153.2780 C   0  0  0  0  0  0  0  0  0  0  0  0
  148.7839  131.7008  154.0211 C   0  0  0  0  0  0  0  0  0  0  0  0
  147.5509  133.9324  154.1908 C   0  0  0  0  0  0  0  0  0  0  0  0
  148.6254  134.9559  154.3047 N   0  3  2  0  0  0  0  0  0  0  0  0
  149.8463  134.4602  154.9854 C   0  0  0  0  0  0  0  0  0  0  0  0
  149.6571  134.4304  156.5117 C   0  0  0  0  0  0  0  0  0  0  0  0
  149.3060  135.7316  156.9601 O   0  0  0  0  0  0  0  0  0  0  0  0
  148.0657  136.1820  156.4239 C   0  0  1  0  0  0  0  0  0  0  0  0
  147.7295  137.5556  157.0308 C   0  0  0  0  0  0  0  0  0  0  0  0
  147.4587  137.4573  158.4610 N   0  0  0  0  0  0  0  0  0  0  0  0
  148.3557  137.1697  159.4144 C   0  0  0  0  0  0  0  0  0  0  0  0
  149.5384  136.9905  159.1148 O   0  0  0  0  0  0  0  0  0  0  0  0
  147.8242  137.1030  160.6555 N   0  5  0  0  0  0  0  0  0  0  0  0
  147.2853  135.9532  161.0934 C   0  0  0  0  0  0  0  0  0  0  0  0
  146.9110  134.9636  160.2741 N   0  0  0  0  0  0  0  0  0  0  0  0
  146.3719  133.8633  160.9434 C   0  0  0  0  0  0  0  0  0  0  0  0
  146.3259  134.0230  162.3031 C   0  0  0  0  0  0  0  0  0  0  0  0
  146.9636  135.5688  162.7863 S   0  0  0  0  0  0  0  0  0  0  0  0
  148.1964  136.2548  154.8862 C   0  0  0  0  0  0  0  0  0  0  0  0
  146.0405  131.6808  153.4606 H   0  0  0  0  0  0  0  0  0  0  0  0
  146.9453  131.2824  152.0030 H   0  0  0  0  0  0  0  0  0  0  0  0
  146.0935  132.8162  152.1139 H   0  0  0  0  0  0  0  0  0  0  0  0
  148.5247  133.1183  152.4384 H   0  0  0  0  0  0  0  0  0  0  0  0
  148.2459  131.2881  154.8752 H   0  0  0  0  0  0  0  0  0  0  0  0
  149.7168  132.1277  154.3895 H   0  0  0  0  0  0  0  0  0  0  0  0
  149.0461  130.8714  153.3635 H   0  0  0  0  0  0  0  0  0  0  0  0
  146.6286  134.3967  153.8419 H   0  0  0  0  0  0  0  0  0  0  0  0
  147.3269  133.5338  155.1811 H   0  0  0  0  0  0  0  0  0  0  0  0
  150.1295  133.4769  154.6086 H   0  0  0  0  0  0  0  0  0  0  0  0
  150.6713  135.1302  154.7400 H   0  0  0  0  0  0  0  0  0  0  0  0
  148.8956  133.7069  156.8070 H   0  0  0  0  0  0  0  0  0  0  0  0
  150.5851  134.1305  156.9985 H   0  0  0  0  0  0  0  0  0  0  0  0
  147.2757  135.4817  156.6994 H   0  0  0  0  0  0  0  0  0  0  0  0
  148.5248  138.2758  156.8309 H   0  0  0  0  0  0  0  0  0  0  0  0
  146.8303  137.9538  156.5602 H   0  0  0  0  0  0  0  0  0  0  0  0
  146.5047  137.6040  158.7567 H   0  0  0  0  0  0  0  0  0  0  0  0
  146.0447  133.0083  160.3709 H   0  0  0  0  0  0  0  0  0  0  0  0
  145.9577  133.3315  163.0456 H   0  0  0  0  0  0  0  0  0  0  0  0
  148.9478  137.0014  154.6256 H   0  0  0  0  0  0  0  0  0  0  0  0
  147.2651  136.5975  154.4377 H   0  0  0  0  0  0  0  0  0  0  0  0
  148.9033  135.1459  153.3523 H   0  0  0  0  0  0  0  0  0  0  0  0
  1  2  1  0  0  0  0
  1 21  1  0  0  0  0
  1 22  1  0  0  0  0
  1 23  1  0  0  0  0
  2  3  1  0  0  0  0
  2  4  1  0  0  0  0
  2 24  1  0  0  0  0
  3 25  1  0  0  0  0
  3 26  1  0  0  0  0
  3 27  1  0  0  0  0
  4  5  1  0  0  0  0
  4 28  1  0  0  0  0
  4 29  1  0  0  0  0
  5 20  1  0  0  0  0
  5  6  1  0  0  0  0
  5 42  1  0  0  0  0
  6  7  1  0  0  0  0
  6 30  1  0  0  0  0
  6 31  1  0  0  0  0
  7  8  1  0  0  0  0
  7 32  1  0  0  0  0
  7 33  1  0  0  0  0
  8  9  1  0  0  0  0
  9 10  1  0  0  0  0
  9 20  1  0  0  0  0
  9 34  1  0  0  0  0
 10 11  1  0  0  0  0
 10 35  1  0  0  0  0
 10 36  1  0  0  0  0
 11 12  1  0  0  0  0
 11 37  1  0  0  0  0
 12 13  2  0  0  0  0
 12 14  1  0  0  0  0
 14 15  1  0  0  0  0
 15 19  1  0  0  0  0
 15 16  2  0  0  0  0
 16 17  1  0  0  0  0
 17 18  2  0  0  0  0
 17 38  1  0  0  0  0
 18 19  1  0  0  0  0
 18 39  1  0  0  0  0
 20 40  1  0  0  0  0
 20 41  1  0  0  0  0
M  CHG  1   5   1
M  CHG  1  14  -1
M  END
> <s_m_source_file>
AV-unprocessed.smi

> <i_m_source_file_index>
2062

> <i_lp_mmshare_version>
43012

> <i_f3d_flags>
0

> <s_epik_input>
W0NIM11bQ0hdKFtDSDNdKVtDSDJdTjFbQ0gyXVtDSDJdT1tDQEhdKFtDSDJdMSlbQ0gyXVtOSF1DKD1PKVtOSF1jMm5bY0hdW2NIXXMy

> <s_epik_cmdline>
J2VwaWtfcHl0aG9uJywgJy1waCcsICc3LjAnLCAnLXRuJywgJzgnLCAnLW1hJywgJzIwMCcsICctbWV0YWxfYmluZGluZycsICctaW1hZScsICc8aW5maWxlLm1hZT4nLCAnLW9tYWUnLCAnPG91dGZpbGUubWFlPic=

> <r_lp_tautomer_probability>
0.999

> <r_epik_Ionization_Penalty>
6.35835

> <r_epik_Ionization_Penalty_Charging>
5.49938

> <r_epik_Ionization_Penalty_Neutral>
0.858963

> <r_epik_State_Penalty>
5.49328

> <r_epik_Charging_Adjusted_Penalty>
10.9927

> <i_epik_Tot_Q>
0

> <i_epik_Tot_abs_Q>
2

> <r_epik_Metal_State_Penalty>
1.51523

> <b_epik_Metal_Only>
1

> <s_lp_Force_Field>
OPLS_2005

> <r_lp_Energy>
10.4353

> <b_lp_Chiralities_Consistent>
1

> <s_lp_Variant>
AV-unprocessed.smi:2062-8

> <Gold.Version>
5.8.1

> <Gold.Id.Protein>
6NUR|6NUR_protein|mol2

> <Gold.PLP.Fitness>
44.1699

> <Gold.PLP.PLP>
-30.7338

> <Gold.PLP.part.hbond>
-3.0000

> <Gold.PLP.part.metal>
0.0000

> <Gold.PLP.part.buried>
-2.4624

> <Gold.PLP.part.nonpolar>
-25.5112

> <Gold.PLP.part.repulsive>
0.1038

> <Gold.PLP.ligand.clash>
0.0000

> <Gold.PLP.ligand.torsion>
1.1990

> <Gold.PLP.Chemscore.Hbond>
5.2320

> <Gold.PLP.Chemscore.CHOScore>
0.0000

> <Gold.PLP.Chemscore.Metal>
0.0000

> <Gold.Chemscore.Hbonds>
donor molecule, donor type, donor heavy atom, donor atom, acceptor molecule, acceptor atom, score
      L1  H     5    42       P1  7948  2.00
      P1  H  6931  6943       L1    14  1.49
      P1  H  6934  6947       L1    14  1.68

> <Gold.PLP.Chemscore.Internal.Correction>
0.1380

> <Gold.Rescore>
     Score         DG    S(hbond)    S(metal)    S(lipo)     H(rot)  DE(clash)    DE(int)     intcor
      9.53     -13.52       1.73        0.00      56.82       1.72       0.04       3.94       ----

> <Gold.Chemscore.Fitness>
9.5313

> <Gold.Chemscore.DG>
-13.5165

> <Gold.Chemscore.ZeroCoef>
-5.4800

> <Gold.Chemscore.Hbond>
1.7337

> <Gold.Chemscore.Metal>
0.0000

> <Gold.Chemscore.Lipo>
56.8170

> <Gold.Chemscore.Internal_Hbond>
0.0000

> <Gold.Chemscore.DEClash>
0.0402

> <Gold.Chemscore.DEInternal>
3.9450

> <Gold.Chemscore.Rot>
1.7194

> <Gold.Chemscore.Internal.Correction>
   9.000000E+99

> <Gold.Chemscore.Hbonds>
donor molecule, donor type, donor heavy atom, donor atom, acceptor molecule, acceptor atom, score
      L1  H     5    42       P1  7948  0.48
      P1  H  6931  6943       L1    14  0.42
      P1  H  6934  6947       L1    14  0.24

> <Gold.Chemscore.Hbond.Weighted>
-5.7906

> <Gold.Chemscore.Metal.Weighted>
-0.0000

> <Gold.Chemscore.Lipo.Weighted>
-6.6476

> <Gold.Chemscore.Internal_Hbond.Weighted>
0.0000

> <Gold.Chemscore.DEClash.Weighted>
0.0402

> <Gold.Chemscore.DEInternal.Weighted>
3.9450

> <Gold.Chemscore.Rot.Weighted>
4.4017

> <Gold.Chemscore.Internal.Correction.Weighted>
   9.000000E+99

> <Gold.Protein.RotatedTorsions>
[ 6907 6896 6895 6894 ] final  169.50 input  -60.11 | X-H torsion
[ 7974 7965 7964 7962 ] final  108.78 input  175.53 | X-H torsion
[ 8008 7997 7996 7995 ] final  137.43 input   59.86 | X-H torsion
[ 10167 10162 10161 10158 ] final -115.71 input  -65.29 | X-H torsion
[ 10718 10713 10712 10709 ] final   95.08 input   66.30 | X-H torsion
[ 10763 10752 10751 10750 ] final -122.46 input  -60.55 | X-H torsion
[ 11005 11000 10999 10996 ] final  108.01 input  -57.11 | X-H torsion

> <Gold.Protein.ActiveResidues>
 VAL166  LYS551  ARG553  GLY616  TRP617  ASP618  TYR619  PRO620  LYS621  CYS622 
 ASP623  PHE694  ASN695  SER759  ASP760  ASP761  ALA762  ILE779  LEU786  VAL792 
 PHE793  MET794  SER795  GLU796  ALA797  LYS798  CYS799  TRP800  GLU811  SER814 

> <Gold.Protein.RotatedAtoms>
  151.8309  133.3408  159.3612 H   0  0  0  0  0  0  0  0  0  0  0  0  # atno 6907 bound_to 6896
  150.7264  134.5483  159.5791 H   0  0  0  0  0  0  0  0  0  0  0  0  # atno 6908 bound_to 6896
  152.2936  134.7693  160.0424 H   0  0  0  0  0  0  0  0  0  0  0  0  # atno 6909 bound_to 6896
  145.2763  139.2648  143.3940 H   0  0  0  0  0  0  0  0  0  0  0  0  # atno 7974 bound_to 7965
  156.3002  140.2419  156.3908 H   0  0  0  0  0  0  0  0  0  0  0  0  # atno 8008 bound_to 7997
  154.8616  140.0420  157.1688 H   0  0  0  0  0  0  0  0  0  0  0  0  # atno 8009 bound_to 7997
  154.8890  140.2960  155.5385 H   0  0  0  0  0  0  0  0  0  0  0  0  # atno 8010 bound_to 7997
  140.0871  143.4734  152.1892 H   0  0  0  0  0  0  0  0  0  0  0  0  # atno 10167 bound_to 10162
  157.6942  131.0534  150.4284 H   0  0  0  0  0  0  0  0  0  0  0  0  # atno 10718 bound_to 10713
  154.8690  135.4132  154.2786 H   0  0  0  0  0  0  0  0  0  0  0  0  # atno 10763 bound_to 10752
  153.3683  135.7006  153.6663 H   0  0  0  0  0  0  0  0  0  0  0  0  # atno 10764 bound_to 10752
  153.5536  135.3624  155.2742 H   0  0  0  0  0  0  0  0  0  0  0  0  # atno 10765 bound_to 10752
  139.8837  134.9418  156.5907 H   0  0  0  0  0  0  0  0  0  0  0  0  # atno 11005 bound_to 11000
  146.3231  140.3218  142.8634 LP  0  0  0  0  0  0  0  0  0  0  0  0  # atno 17320 bound_to 7965
  144.9292  140.7956  143.5700 LP  0  0  0  0  0  0  0  0  0  0  0  0  # atno 17321 bound_to 7965
  139.5746  144.7481  151.3799 LP  0  0  0  0  0  0  0  0  0  0  0  0  # atno 17342 bound_to 10162
  140.7048  143.7542  150.7463 LP  0  0  0  0  0  0  0  0  0  0  0  0  # atno 17343 bound_to 10162
  156.4653  130.4040  149.6551 LP  0  0  0  0  0  0  0  0  0  0  0  0  # atno 17370 bound_to 10713
  156.3652  130.7502  151.2479 LP  0  0  0  0  0  0  0  0  0  0  0  0  # atno 17371 bound_to 10713
  140.7957  133.8546  155.8684 LP  0  0  0  0  0  0  0  0  0  0  0  0  # atno 17394 bound_to 11000
  140.9637  134.1622  157.4633 LP  0  0  0  0  0  0  0  0  0  0  0  0  # atno 17395 bound_to 11000

$$$$
