AV-unprocessed.smi:2198|AV-procd|sdf|8921|dock9
  -GOLD-   2272012133D 1   1.00000     0.00000
 Structure written by MMmdl.
 42 43  0  0  0  0  0  0  0  0  2 V2000
  144.2185  143.0337  158.1679 C   0  0  0  0  0  0  0  0  0  0  0  0
  145.3602  142.4378  157.3719 C   0  0  0  0  0  0  0  0  0  0  0  0
  145.5171  142.7809  156.1504 N   0  0  0  0  0  0  0  0  0  0  0  0
  146.5793  142.2351  155.4099 C   0  0  0  0  0  0  0  0  0  0  0  0
  146.6908  142.7042  153.9696 C   0  0  0  0  0  0  0  0  0  0  0  0
  147.4456  141.3425  155.9700 C   0  0  0  0  0  0  0  0  0  0  0  0
  148.6205  140.7277  155.2104 C   0  0  0  0  0  0  0  0  0  0  0  0
  150.0079  141.1127  155.7264 C   0  0  0  0  0  0  0  0  0  0  0  0
  151.0158  140.7229  155.1373 O   0  0  0  0  0  0  0  0  0  0  0  0
  150.0453  141.8801  156.8268 N   0  0  0  0  0  0  0  0  0  0  0  0
  151.2570  142.3698  157.4756 C   0  0  2  0  0  0  0  0  0  0  0  0
  151.8658  141.2818  158.3829 C   0  0  0  0  0  0  0  0  0  0  0  0
  153.0995  141.8067  159.1322 C   0  0  0  0  0  0  0  0  0  0  0  0
  152.7662  143.0728  159.9368 C   0  0  0  0  0  0  0  0  0  0  0  0
  152.1653  144.1713  159.0388 C   0  0  2  0  0  0  0  0  0  0  0  0
  151.8301  145.4333  159.8464 C   0  0  0  0  0  0  0  0  0  0  0  0
  150.9301  143.6382  158.2865 C   0  0  0  0  0  0  0  0  0  0  0  0
  147.2252  140.9679  157.3786 C   0  0  0  0  0  0  0  0  0  0  0  0
  147.9684  140.1573  157.9302 O   0  0  0  0  0  0  0  0  0  0  0  0
  146.1771  141.5471  158.0309 N   0  5  0  0  0  0  0  0  0  0  0  0
  143.5290  143.5769  157.5201 H   0  0  0  0  0  0  0  0  0  0  0  0
  144.6038  143.7262  158.9167 H   0  0  0  0  0  0  0  0  0  0  0  0
  143.6586  142.2486  158.6771 H   0  0  0  0  0  0  0  0  0  0  0  0
  147.6581  143.1735  153.7900 H   0  0  0  0  0  0  0  0  0  0  0  0
  145.9173  143.4355  153.7319 H   0  0  0  0  0  0  0  0  0  0  0  0
  146.5771  141.8643  153.2845 H   0  0  0  0  0  0  0  0  0  0  0  0
  148.5163  139.6426  155.2342 H   0  0  0  0  0  0  0  0  0  0  0  0
  148.5709  140.9791  154.1507 H   0  0  0  0  0  0  0  0  0  0  0  0
  149.1655  142.1530  157.2401 H   0  0  0  0  0  0  0  0  0  0  0  0
  151.9856  142.6384  156.7080 H   0  0  0  0  0  0  0  0  0  0  0  0
  151.1213  140.9427  159.1047 H   0  0  0  0  0  0  0  0  0  0  0  0
  152.1433  140.4084  157.7917 H   0  0  0  0  0  0  0  0  0  0  0  0
  153.4861  141.0345  159.7979 H   0  0  0  0  0  0  0  0  0  0  0  0
  153.8947  142.0253  158.4183 H   0  0  0  0  0  0  0  0  0  0  0  0
  152.0646  142.8218  160.7335 H   0  0  0  0  0  0  0  0  0  0  0  0
  153.6685  143.4417  160.4256 H   0  0  0  0  0  0  0  0  0  0  0  0
  152.9164  144.4470  158.2970 H   0  0  0  0  0  0  0  0  0  0  0  0
  151.0821  145.2268  160.6126 H   0  0  0  0  0  0  0  0  0  0  0  0
  151.4381  146.2204  159.2017 H   0  0  0  0  0  0  0  0  0  0  0  0
  152.7166  145.8273  160.3442 H   0  0  0  0  0  0  0  0  0  0  0  0
  150.5439  144.4100  157.6191 H   0  0  0  0  0  0  0  0  0  0  0  0
  150.1335  143.4226  159.0006 H   0  0  0  0  0  0  0  0  0  0  0  0
  1  2  1  0  0  0  0
  1 21  1  0  0  0  0
  1 22  1  0  0  0  0
  1 23  1  0  0  0  0
  2 20  1  0  0  0  0
  2  3  2  0  0  0  0
  3  4  1  0  0  0  0
  4  5  1  0  0  0  0
  4  6  2  0  0  0  0
  5 24  1  0  0  0  0
  5 25  1  0  0  0  0
  5 26  1  0  0  0  0
  6  7  1  0  0  0  0
  6 18  1  0  0  0  0
  7  8  1  0  0  0  0
  7 27  1  0  0  0  0
  7 28  1  0  0  0  0
  8  9  2  0  0  0  0
  8 10  1  0  0  0  0
 10 11  1  0  0  0  0
 10 29  1  0  0  0  0
 11 17  1  0  0  0  0
 11 12  1  0  0  0  0
 11 30  1  0  0  0  0
 12 13  1  0  0  0  0
 12 31  1  0  0  0  0
 12 32  1  0  0  0  0
 13 14  1  0  0  0  0
 13 33  1  0  0  0  0
 13 34  1  0  0  0  0
 14 15  1  0  0  0  0
 14 35  1  0  0  0  0
 14 36  1  0  0  0  0
 15 16  1  0  0  0  0
 15 17  1  0  0  0  0
 15 37  1  0  0  0  0
 16 38  1  0  0  0  0
 16 39  1  0  0  0  0
 16 40  1  0  0  0  0
 17 41  1  0  0  0  0
 17 42  1  0  0  0  0
 18 19  2  0  0  0  0
 18 20  1  0  0  0  0
M  CHG  1  20  -1
M  END
> <s_m_source_file>
AV-unprocessed.smi

> <i_m_source_file_index>
2198

> <i_lp_mmshare_version>
43012

> <i_f3d_flags>
0

> <s_epik_input>
W0NIM11jMW5jKFtDSDNdKWMoYyg9TylbbkhdMSlbQ0gyXUMoPU8pW05IXVtDQEBIXTJbQ0gyXVtDSDJdW0NIMl1bQ0BASF0oW0NIM10pW0NIMl0y

> <s_epik_cmdline>
J2VwaWtfcHl0aG9uJywgJy1waCcsICc3LjAnLCAnLXRuJywgJzgnLCAnLW1hJywgJzIwMCcsICctbWV0YWxfYmluZGluZycsICctaW1hZScsICc8aW5maWxlLm1hZT4nLCAnLW9tYWUnLCAnPG91dGZpbGUubWFlPic=

> <r_lp_tautomer_probability>
0.839158

> <r_epik_Ionization_Penalty>
6.67193

> <r_epik_Ionization_Penalty_Charging>
7.66837e-08

> <r_epik_Ionization_Penalty_Neutral>
6.67193

> <r_epik_State_Penalty>
4.51643

> <r_epik_Charging_Adjusted_Penalty>
4.51643

> <i_epik_Tot_Q>
-1

> <i_epik_Tot_abs_Q>
1

> <r_epik_Metal_State_Penalty>
0.851582

> <b_epik_Metal_Only>
1

> <s_lp_Force_Field>
OPLS_2005

> <r_lp_Energy>
13.6631

> <b_lp_Chiralities_Consistent>
1

> <s_lp_Variant>
AV-unprocessed.smi:2198-11

> <Gold.Version>
5.8.1

> <Gold.Id.Protein>
6NUR|6NUR_protein|mol2

> <Gold.PLP.Fitness>
40.0215

> <Gold.PLP.PLP>
-37.9110

> <Gold.PLP.part.hbond>
-2.1354

> <Gold.PLP.part.metal>
0.0000

> <Gold.PLP.part.buried>
-5.8279

> <Gold.PLP.part.nonpolar>
-30.3269

> <Gold.PLP.part.repulsive>
0.2648

> <Gold.PLP.ligand.clash>
0.0000

> <Gold.PLP.ligand.torsion>
0.3625

> <Gold.PLP.Chemscore.Hbond>
0.9440

> <Gold.PLP.Chemscore.CHOScore>
0.0000

> <Gold.PLP.Chemscore.Metal>
0.0000

> <Gold.Chemscore.Hbonds>
donor molecule, donor type, donor heavy atom, donor atom, acceptor molecule, acceptor atom, score
      P1  H  7989  7998       L1     9  0.86

> <Gold.PLP.Chemscore.Internal.Correction>
0.0036

> <Gold.Rescore>
     Score         DG    S(hbond)    S(metal)    S(lipo)     H(rot)  DE(clash)    DE(int)     intcor
     15.53     -15.94       0.93        0.00      94.53       1.45       0.02       0.39       ----

> <Gold.Chemscore.Fitness>
15.5295

> <Gold.Chemscore.DG>
-15.9441

> <Gold.Chemscore.ZeroCoef>
-5.4800

> <Gold.Chemscore.Hbond>
0.9290

> <Gold.Chemscore.Metal>
0.0000

> <Gold.Chemscore.Lipo>
94.5326

> <Gold.Chemscore.Internal_Hbond>
0.0000

> <Gold.Chemscore.DEClash>
0.0212

> <Gold.Chemscore.DEInternal>
0.3933

> <Gold.Chemscore.Rot>
1.4450

> <Gold.Chemscore.Internal.Correction>
   9.000000E+99

> <Gold.Chemscore.Hbonds>
donor molecule, donor type, donor heavy atom, donor atom, acceptor molecule, acceptor atom, score
      P1  H  7989  7998       L1     9  0.85

> <Gold.Chemscore.Hbond.Weighted>
-3.1030

> <Gold.Chemscore.Metal.Weighted>
-0.0000

> <Gold.Chemscore.Lipo.Weighted>
-11.0603

> <Gold.Chemscore.Internal_Hbond.Weighted>
0.0000

> <Gold.Chemscore.DEClash.Weighted>
0.0212

> <Gold.Chemscore.DEInternal.Weighted>
0.3933

> <Gold.Chemscore.Rot.Weighted>
3.6992

> <Gold.Chemscore.Internal.Correction.Weighted>
   9.000000E+99

> <Gold.Protein.RotatedTorsions>
[ 6907 6896 6895 6894 ] final   91.84 input  -60.11 | X-H torsion
[ 7974 7965 7964 7962 ] final  -63.21 input  175.53 | X-H torsion
[ 8008 7997 7996 7995 ] final  -21.24 input   59.86 | X-H torsion
[ 10167 10162 10161 10158 ] final  -16.45 input  -65.29 | X-H torsion
[ 10718 10713 10712 10709 ] final    2.97 input   66.30 | X-H torsion
[ 10763 10752 10751 10750 ] final  148.60 input  -60.55 | X-H torsion
[ 11005 11000 10999 10996 ] final -155.37 input  -57.11 | X-H torsion

> <Gold.Protein.ActiveResidues>
 VAL166  LYS551  ARG553  GLY616  TRP617  ASP618  TYR619  PRO620  LYS621  CYS622 
 ASP623  PHE694  ASN695  SER759  ASP760  ASP761  ALA762  ILE779  LEU786  VAL792 
 PHE793  MET794  SER795  GLU796  ALA797  LYS798  CYS799  TRP800  GLU811  SER814 

> <Gold.Protein.RotatedAtoms>
  152.5451  134.1594  159.8551 H   0  0  0  0  0  0  0  0  0  0  0  0  # atno 6907 bound_to 6896
  151.1614  133.4836  159.2601 H   0  0  0  0  0  0  0  0  0  0  0  0  # atno 6908 bound_to 6896
  151.1369  135.0170  159.8663 H   0  0  0  0  0  0  0  0  0  0  0  0  # atno 6909 bound_to 6896
  145.7818  140.8758  143.0326 H   0  0  0  0  0  0  0  0  0  0  0  0  # atno 7974 bound_to 7965
  154.4718  140.2040  155.9976 H   0  0  0  0  0  0  0  0  0  0  0  0  # atno 8008 bound_to 7997
  156.1023  140.3242  155.7930 H   0  0  0  0  0  0  0  0  0  0  0  0  # atno 8009 bound_to 7997
  155.4776  140.0536  157.2962 H   0  0  0  0  0  0  0  0  0  0  0  0  # atno 8010 bound_to 7997
  140.7234  143.5115  150.9744 H   0  0  0  0  0  0  0  0  0  0  0  0  # atno 10167 bound_to 10162
  156.8709  130.5619  149.5657 H   0  0  0  0  0  0  0  0  0  0  0  0  # atno 10718 bound_to 10713
  154.0574  135.2877  155.3330 H   0  0  0  0  0  0  0  0  0  0  0  0  # atno 10763 bound_to 10752
  154.6830  135.5256  153.8292 H   0  0  0  0  0  0  0  0  0  0  0  0  # atno 10764 bound_to 10752
  153.0536  135.6586  154.0765 H   0  0  0  0  0  0  0  0  0  0  0  0  # atno 10765 bound_to 10752
  140.6872  134.4080  157.5222 H   0  0  0  0  0  0  0  0  0  0  0  0  # atno 11005 bound_to 11000
  144.6795  139.9999  143.7484 LP  0  0  0  0  0  0  0  0  0  0  0  0  # atno 17320 bound_to 7965
  146.0066  139.3135  143.0895 LP  0  0  0  0  0  0  0  0  0  0  0  0  # atno 17321 bound_to 7965
  139.8828  143.7050  152.3155 LP  0  0  0  0  0  0  0  0  0  0  0  0  # atno 17342 bound_to 10162
  139.7338  144.7576  151.0759 LP  0  0  0  0  0  0  0  0  0  0  0  0  # atno 17343 bound_to 10162
  156.0727  130.5756  150.9414 LP  0  0  0  0  0  0  0  0  0  0  0  0  # atno 17370 bound_to 10713
  157.6196  131.0930  150.8646 LP  0  0  0  0  0  0  0  0  0  0  0  0  # atno 17371 bound_to 10713
  139.8934  134.8732  156.2225 LP  0  0  0  0  0  0  0  0  0  0  0  0  # atno 17394 bound_to 11000
  141.0270  133.7009  156.1365 LP  0  0  0  0  0  0  0  0  0  0  0  0  # atno 17395 bound_to 11000

$$$$
