AV-unprocessed.smi:1472|AV-procd|sdf|5965|dock2
  -GOLD-   22720 6 53D 1   1.00000     0.00000
 Structure written by MMmdl.
 42 43  0  0  0  0  0  0  0  0  2 V2000
  151.0086  142.4053  156.9546 C   0  0  0  0  0  0  0  0  0  0  0  0
  149.7718  141.0540  156.7882 S   0  0  0  0  0  0  0  0  0  0  0  0
  150.3797  139.8109  157.2869 O   0  0  0  0  0  0  0  0  0  0  0  0
  148.5008  141.5241  157.3603 O   0  0  0  0  0  0  0  0  0  0  0  0
  149.5515  140.8887  155.0697 N   0  0  0  0  0  0  0  0  0  0  0  0
  149.8997  139.6193  154.4021 C   0  0  0  0  0  0  0  0  0  0  0  0
  148.6500  138.7711  154.1039 C   0  0  0  0  0  0  0  0  0  0  0  0
  147.6011  139.5670  153.3050 C   0  0  0  0  0  0  0  0  0  0  0  0
  146.3287  138.7466  153.0018 C   0  0  0  0  0  0  0  0  0  0  0  0
  146.6262  137.4279  152.4498 N   0  0  0  0  0  0  0  0  0  0  0  0
  145.7088  136.5071  152.1210 C   0  0  0  0  0  0  0  0  0  0  0  0
  144.4985  136.6730  152.2701 O   0  0  0  0  0  0  0  0  0  0  0  0
  146.2854  135.3950  151.6323 N   0  0  0  0  0  0  0  0  0  0  0  0
  145.6610  134.2210  151.1289 C   0  0  0  0  0  0  0  0  0  0  0  0
  146.4886  133.2456  150.5290 C   0  0  0  0  0  0  0  0  0  0  0  0
  145.9114  132.0740  149.9978 C   0  0  0  0  0  0  0  0  0  0  0  0
  144.5744  131.8961  150.0579 N   0  3  0  0  0  0  0  0  0  0  0  0
  143.7414  132.8050  150.6087 C   0  0  0  0  0  0  0  0  0  0  0  0
  144.2607  133.9962  151.1555 C   0  0  0  0  0  0  0  0  0  0  0  0
  147.2615  140.8502  154.0799 C   0  0  0  0  0  0  0  0  0  0  0  0
  148.5197  141.6847  154.3760 C   0  0  0  0  0  0  0  0  0  0  0  0
  151.2144  142.5704  158.0118 H   0  0  0  0  0  0  0  0  0  0  0  0
  150.6135  143.3244  156.5257 H   0  0  0  0  0  0  0  0  0  0  0  0
  151.9336  142.1268  156.4533 H   0  0  0  0  0  0  0  0  0  0  0  0
  150.4132  139.8520  153.4685 H   0  0  0  0  0  0  0  0  0  0  0  0
  150.6070  139.0538  155.0081 H   0  0  0  0  0  0  0  0  0  0  0  0
  148.9531  137.8824  153.5498 H   0  0  0  0  0  0  0  0  0  0  0  0
  148.2104  138.4123  155.0337 H   0  0  0  0  0  0  0  0  0  0  0  0
  148.0503  139.8630  152.3557 H   0  0  0  0  0  0  0  0  0  0  0  0
  145.7497  138.6067  153.9151 H   0  0  0  0  0  0  0  0  0  0  0  0
  145.6824  139.2917  152.3115 H   0  0  0  0  0  0  0  0  0  0  0  0
  147.6003  137.2072  152.3034 H   0  0  0  0  0  0  0  0  0  0  0  0
  147.2944  135.3717  151.6591 H   0  0  0  0  0  0  0  0  0  0  0  0
  147.5586  133.3878  150.4781 H   0  0  0  0  0  0  0  0  0  0  0  0
  146.4750  131.2811  149.5281 H   0  0  0  0  0  0  0  0  0  0  0  0
  142.6900  132.5577  150.5897 H   0  0  0  0  0  0  0  0  0  0  0  0
  143.5737  134.7176  151.5712 H   0  0  0  0  0  0  0  0  0  0  0  0
  146.5584  141.4541  153.5053 H   0  0  0  0  0  0  0  0  0  0  0  0
  146.7528  140.5984  155.0098 H   0  0  0  0  0  0  0  0  0  0  0  0
  148.2617  142.5666  154.9617 H   0  0  0  0  0  0  0  0  0  0  0  0
  148.9418  142.0517  153.4398 H   0  0  0  0  0  0  0  0  0  0  0  0
  144.1763  131.0420  149.6662 H   0  0  0  0  0  0  0  0  0  0  0  0
  1  2  1  0  0  0  0
  1 22  1  0  0  0  0
  1 23  1  0  0  0  0
  1 24  1  0  0  0  0
  2  3  2  0  0  0  0
  2  4  2  0  0  0  0
  2  5  1  0  0  0  0
  5 21  1  0  0  0  0
  5  6  1  0  0  0  0
  6  7  1  0  0  0  0
  6 25  1  0  0  0  0
  6 26  1  0  0  0  0
  7  8  1  0  0  0  0
  7 27  1  0  0  0  0
  7 28  1  0  0  0  0
  8  9  1  0  0  0  0
  8 20  1  0  0  0  0
  8 29  1  0  0  0  0
  9 10  1  0  0  0  0
  9 30  1  0  0  0  0
  9 31  1  0  0  0  0
 10 11  1  0  0  0  0
 10 32  1  0  0  0  0
 11 12  2  0  0  0  0
 11 13  1  0  0  0  0
 13 14  1  0  0  0  0
 13 33  1  0  0  0  0
 14 19  1  0  0  0  0
 14 15  2  0  0  0  0
 15 16  1  0  0  0  0
 15 34  1  0  0  0  0
 16 17  2  0  0  0  0
 16 35  1  0  0  0  0
 17 18  1  0  0  0  0
 17 42  1  0  0  0  0
 18 19  2  0  0  0  0
 18 36  1  0  0  0  0
 19 37  1  0  0  0  0
 20 21  1  0  0  0  0
 20 38  1  0  0  0  0
 20 39  1  0  0  0  0
 21 40  1  0  0  0  0
 21 41  1  0  0  0  0
M  CHG  1  17   1
M  END
> <s_m_source_file>
AV-unprocessed.smi

> <i_m_source_file_index>
1472

> <i_lp_mmshare_version>
43012

> <i_f3d_flags>
0

> <s_epik_input>
W0NIM11TKD1PKSg9TylOMVtDSDJdW0NIMl1bQ0hdKFtDSDJdW0NIMl0xKVtDSDJdW05IXUMoPU8pW05IXWMyW2NIXVtjSF1uW2NIXVtjSF0y

> <s_epik_cmdline>
J2VwaWtfcHl0aG9uJywgJy1waCcsICc3LjAnLCAnLXRuJywgJzgnLCAnLW1hJywgJzIwMCcsICctbWV0YWxfYmluZGluZycsICctaW1hZScsICc8aW5maWxlLm1hZT4nLCAnLW9tYWUnLCAnPG91dGZpbGUubWFlPic=

> <r_epik_Ionization_Penalty>
1.02593

> <r_epik_Ionization_Penalty_Charging>
1.02591

> <r_epik_Ionization_Penalty_Neutral>
2.05222e-05

> <r_epik_State_Penalty>
1.07662

> <r_epik_Charging_Adjusted_Penalty>
2.10252

> <i_epik_Tot_Q>
1

> <i_epik_Tot_abs_Q>
1

> <r_epik_Metal_State_Penalty>
1.17465

> <b_epik_Metal_Only>
0

> <s_lp_Force_Field>
OPLS_2005

> <r_lp_Energy>
12.5629

> <b_lp_Chiralities_Consistent>
1

> <s_lp_Variant>
AV-unprocessed.smi:1472-2

> <Gold.Version>
5.8.1

> <Gold.Id.Protein>
6NUR|6NUR_protein|mol2

> <Gold.PLP.Fitness>
43.2376

> <Gold.PLP.PLP>
-37.3618

> <Gold.PLP.part.hbond>
-2.0000

> <Gold.PLP.part.metal>
0.0000

> <Gold.PLP.part.buried>
-3.0202

> <Gold.PLP.part.nonpolar>
-32.7398

> <Gold.PLP.part.repulsive>
0.5149

> <Gold.PLP.ligand.clash>
0.0000

> <Gold.PLP.ligand.torsion>
1.0965

> <Gold.PLP.Chemscore.Hbond>
2.0000

> <Gold.PLP.Chemscore.CHOScore>
0.0000

> <Gold.PLP.Chemscore.Metal>
0.0000

> <Gold.Chemscore.Hbonds>
donor molecule, donor type, donor heavy atom, donor atom, acceptor molecule, acceptor atom, score
      L1  H    10    32       P1  7948  1.00
      L1  H    13    33       P1  7948  1.00

> <Gold.PLP.Chemscore.Internal.Correction>
2.0688

> <Gold.Rescore>
     Score         DG    S(hbond)    S(metal)    S(lipo)     H(rot)  DE(clash)    DE(int)     intcor
     16.45     -18.84       1.94        0.00      87.38       1.30       0.06       2.34       ----

> <Gold.Chemscore.Fitness>
16.4472

> <Gold.Chemscore.DG>
-18.8440

> <Gold.Chemscore.ZeroCoef>
-5.4800

> <Gold.Chemscore.Hbond>
1.9391

> <Gold.Chemscore.Metal>
0.0000

> <Gold.Chemscore.Lipo>
87.3796

> <Gold.Chemscore.Internal_Hbond>
0.0000

> <Gold.Chemscore.DEClash>
0.0617

> <Gold.Chemscore.DEInternal>
2.3351

> <Gold.Chemscore.Rot>
1.3031

> <Gold.Chemscore.Internal.Correction>
   9.000000E+99

> <Gold.Chemscore.Hbonds>
donor molecule, donor type, donor heavy atom, donor atom, acceptor molecule, acceptor atom, score
      L1  H    10    32       P1  7948  0.99
      L1  H    13    33       P1  7948  0.93

> <Gold.Chemscore.Hbond.Weighted>
-6.4765

> <Gold.Chemscore.Metal.Weighted>
-0.0000

> <Gold.Chemscore.Lipo.Weighted>
-10.2234

> <Gold.Chemscore.Internal_Hbond.Weighted>
0.0000

> <Gold.Chemscore.DEClash.Weighted>
0.0617

> <Gold.Chemscore.DEInternal.Weighted>
2.3351

> <Gold.Chemscore.Rot.Weighted>
3.3359

> <Gold.Chemscore.Internal.Correction.Weighted>
   9.000000E+99

> <Gold.Protein.RotatedTorsions>
[ 6907 6896 6895 6894 ] final  101.84 input  -60.11 | X-H torsion
[ 7974 7965 7964 7962 ] final -142.42 input  175.53 | X-H torsion
[ 8008 7997 7996 7995 ] final   44.38 input   59.86 | X-H torsion
[ 10167 10162 10161 10158 ] final   87.92 input  -65.29 | X-H torsion
[ 10718 10713 10712 10709 ] final -108.21 input   66.30 | X-H torsion
[ 10763 10752 10751 10750 ] final  -25.69 input  -60.55 | X-H torsion
[ 11005 11000 10999 10996 ] final  142.30 input  -57.11 | X-H torsion

> <Gold.Protein.ActiveResidues>
 VAL166  LYS551  ARG553  GLY616  TRP617  ASP618  TYR619  PRO620  LYS621  CYS622 
 ASP623  PHE694  ASN695  SER759  ASP760  ASP761  ALA762  ILE779  LEU786  VAL792 
 PHE793  MET794  SER795  GLU796  ALA797  LYS798  CYS799  TRP800  GLU811  SER814 

> <Gold.Protein.RotatedAtoms>
  152.5339  134.0065  159.7918 H   0  0  0  0  0  0  0  0  0  0  0  0  # atno 6907 bound_to 6896
  151.0275  133.5813  159.2671 H   0  0  0  0  0  0  0  0  0  0  0  0  # atno 6908 bound_to 6896
  151.2830  135.0726  159.9230 H   0  0  0  0  0  0  0  0  0  0  0  0  # atno 6909 bound_to 6896
  144.8444  140.5959  143.5431 H   0  0  0  0  0  0  0  0  0  0  0  0  # atno 7974 bound_to 7965
  155.3184  140.3395  155.4242 H   0  0  0  0  0  0  0  0  0  0  0  0  # atno 8008 bound_to 7997
  156.1921  140.1701  156.8109 H   0  0  0  0  0  0  0  0  0  0  0  0  # atno 8009 bound_to 7997
  154.5454  140.0716  156.8564 H   0  0  0  0  0  0  0  0  0  0  0  0  # atno 8010 bound_to 7997
  139.8725  144.6485  150.8934 H   0  0  0  0  0  0  0  0  0  0  0  0  # atno 10167 bound_to 10162
  156.0474  130.5701  150.7929 H   0  0  0  0  0  0  0  0  0  0  0  0  # atno 10718 bound_to 10713
  153.7039  135.6954  153.5055 H   0  0  0  0  0  0  0  0  0  0  0  0  # atno 10763 bound_to 10752
  153.2322  135.4334  155.0606 H   0  0  0  0  0  0  0  0  0  0  0  0  # atno 10764 bound_to 10752
  154.8336  135.3487  154.6578 H   0  0  0  0  0  0  0  0  0  0  0  0  # atno 10765 bound_to 10752
  140.0466  134.9277  157.0941 H   0  0  0  0  0  0  0  0  0  0  0  0  # atno 11005 bound_to 11000
  145.4627  139.1511  143.3858 LP  0  0  0  0  0  0  0  0  0  0  0  0  # atno 17320 bound_to 7965
  146.2731  140.4757  142.8806 LP  0  0  0  0  0  0  0  0  0  0  0  0  # atno 17321 bound_to 7965
  140.7758  143.3652  151.1752 LP  0  0  0  0  0  0  0  0  0  0  0  0  # atno 17342 bound_to 10162
  139.7271  143.9131  152.3006 LP  0  0  0  0  0  0  0  0  0  0  0  0  # atno 17343 bound_to 10162
  157.5364  131.0939  150.9886 LP  0  0  0  0  0  0  0  0  0  0  0  0  # atno 17370 bound_to 10713
  157.0180  130.5662  149.5328 LP  0  0  0  0  0  0  0  0  0  0  0  0  # atno 17371 bound_to 10713
  140.3984  134.2109  155.7164 LP  0  0  0  0  0  0  0  0  0  0  0  0  # atno 17394 bound_to 11000
  141.1910  133.8205  157.0897 LP  0  0  0  0  0  0  0  0  0  0  0  0  # atno 17395 bound_to 11000

$$$$
