AV-unprocessed.smi:2336|AV-procd|sdf|9328|dock9
  -GOLD-   2272012543D 1   1.00000     0.00000
 Structure written by MMmdl.
 50 51  0  0  0  0  0  0  0  0  2 V2000
  144.9197  134.0483  162.0177 C   0  0  0  0  0  0  0  0  0  0  0  0
  146.3572  134.2004  161.4910 C   0  0  0  0  0  0  0  0  0  0  0  0
  147.2527  134.8967  162.5303 C   0  0  0  0  0  0  0  0  0  0  0  0
  146.4953  134.8403  160.0769 C   0  0  1  0  0  0  0  0  0  0  0  0
  147.9525  135.1154  159.6227 C   0  0  0  0  0  0  0  0  0  0  0  0
  148.0357  136.2874  158.7613 N   0  0  0  0  0  0  0  0  0  0  0  0
  149.1464  136.6738  158.1206 C   0  0  0  0  0  0  0  0  0  0  0  0
  150.2107  136.0609  158.1942 O   0  0  0  0  0  0  0  0  0  0  0  0
  148.9279  137.7906  157.4047 N   0  0  0  0  0  0  0  0  0  0  0  0
  149.8201  138.5313  156.5791 C   0  0  0  0  0  0  0  0  0  0  0  0
  150.7879  137.9600  155.7161 C   0  0  0  0  0  0  0  0  0  0  0  0
  151.6103  138.8194  154.9601 C   0  0  0  0  0  0  0  0  0  0  0  0
  151.5301  140.1655  155.0141 N   0  0  0  0  0  0  0  0  0  0  0  0
  150.6116  140.7073  155.8410 C   0  0  0  0  0  0  0  0  0  0  0  0
  149.7404  139.9392  156.6392 C   0  0  0  0  0  0  0  0  0  0  0  0
  148.8418  140.5490  157.4495 F   0  0  0  0  0  0  0  0  0  0  0  0
  145.6830  134.1305  159.0708 N   0  0  0  0  0  0  0  0  0  0  0  0
  146.2176  132.8337  158.6333 C   0  0  0  0  0  0  0  0  0  0  0  0
  145.1847  132.1183  157.7410 C   0  0  0  0  0  0  0  0  0  0  0  0
  144.8471  132.9340  156.5499 N   0  3  0  0  0  0  0  0  0  0  0  0
  145.8896  132.9197  155.4977 C   0  0  0  0  0  0  0  0  0  0  0  0
  144.4255  134.2956  156.9571 C   0  0  0  0  0  0  0  0  0  0  0  0
  145.4668  134.9603  157.8814 C   0  0  0  0  0  0  0  0  0  0  0  0
  144.4859  135.0090  162.2923 H   0  0  0  0  0  0  0  0  0  0  0  0
  144.9058  133.4286  162.9146 H   0  0  0  0  0  0  0  0  0  0  0  0
  144.2667  133.5699  161.2886 H   0  0  0  0  0  0  0  0  0  0  0  0
  146.7492  133.1864  161.4098 H   0  0  0  0  0  0  0  0  0  0  0  0
  146.9198  135.9156  162.7294 H   0  0  0  0  0  0  0  0  0  0  0  0
  148.2877  134.9441  162.1910 H   0  0  0  0  0  0  0  0  0  0  0  0
  147.2439  134.3578  163.4782 H   0  0  0  0  0  0  0  0  0  0  0  0
  146.0390  135.8246  160.1941 H   0  0  0  0  0  0  0  0  0  0  0  0
  148.6116  135.2684  160.4780 H   0  0  0  0  0  0  0  0  0  0  0  0
  148.3433  134.2590  159.0711 H   0  0  0  0  0  0  0  0  0  0  0  0
  147.1975  136.8390  158.6504 H   0  0  0  0  0  0  0  0  0  0  0  0
  147.9855  138.1516  157.4351 H   0  0  0  0  0  0  0  0  0  0  0  0
  150.9264  136.8956  155.6165 H   0  0  0  0  0  0  0  0  0  0  0  0
  152.3565  138.4122  154.2941 H   0  0  0  0  0  0  0  0  0  0  0  0
  150.5696  141.7861  155.8684 H   0  0  0  0  0  0  0  0  0  0  0  0
  147.1526  132.9640  158.0881 H   0  0  0  0  0  0  0  0  0  0  0  0
  146.4457  132.2001  159.4869 H   0  0  0  0  0  0  0  0  0  0  0  0
  145.5581  131.1419  157.4306 H   0  0  0  0  0  0  0  0  0  0  0  0
  144.2726  131.9326  158.3102 H   0  0  0  0  0  0  0  0  0  0  0  0
  146.8175  133.3804  155.8356 H   0  0  0  0  0  0  0  0  0  0  0  0
  145.5467  133.4591  154.6144 H   0  0  0  0  0  0  0  0  0  0  0  0
  146.1107  131.8963  155.1929 H   0  0  0  0  0  0  0  0  0  0  0  0
  144.2474  134.9119  156.0752 H   0  0  0  0  0  0  0  0  0  0  0  0
  143.4699  134.2223  157.4784 H   0  0  0  0  0  0  0  0  0  0  0  0
  145.0880  135.9391  158.1783 H   0  0  0  0  0  0  0  0  0  0  0  0
  146.4060  135.1318  157.3544 H   0  0  0  0  0  0  0  0  0  0  0  0
  144.0381  132.5001  156.1284 H   0  0  0  0  0  0  0  0  0  0  0  0
  1  2  1  0  0  0  0
  1 24  1  0  0  0  0
  1 25  1  0  0  0  0
  1 26  1  0  0  0  0
  2  3  1  0  0  0  0
  2  4  1  0  0  0  0
  2 27  1  0  0  0  0
  3 28  1  0  0  0  0
  3 29  1  0  0  0  0
  3 30  1  0  0  0  0
  4  5  1  0  0  0  0
  4 17  1  0  0  0  0
  4 31  1  0  0  0  0
  5  6  1  0  0  0  0
  5 32  1  0  0  0  0
  5 33  1  0  0  0  0
  6  7  1  0  0  0  0
  6 34  1  0  0  0  0
  7  8  2  0  0  0  0
  7  9  1  0  0  0  0
  9 10  1  0  0  0  0
  9 35  1  0  0  0  0
 10 15  1  0  0  0  0
 10 11  2  0  0  0  0
 11 12  1  0  0  0  0
 11 36  1  0  0  0  0
 12 13  2  0  0  0  0
 12 37  1  0  0  0  0
 13 14  1  0  0  0  0
 14 15  2  0  0  0  0
 14 38  1  0  0  0  0
 15 16  1  0  0  0  0
 17 23  1  0  0  0  0
 17 18  1  0  0  0  0
 18 19  1  0  0  0  0
 18 39  1  0  0  0  0
 18 40  1  0  0  0  0
 19 20  1  0  0  0  0
 19 41  1  0  0  0  0
 19 42  1  0  0  0  0
 20 21  1  0  0  0  0
 20 22  1  0  0  0  0
 20 50  1  0  0  0  0
 21 43  1  0  0  0  0
 21 44  1  0  0  0  0
 21 45  1  0  0  0  0
 22 23  1  0  0  0  0
 22 46  1  0  0  0  0
 22 47  1  0  0  0  0
 23 48  1  0  0  0  0
 23 49  1  0  0  0  0
M  CHG  1  20   1
M  END
> <s_m_source_file>
AV-unprocessed.smi

> <i_m_source_file_index>
2336

> <i_lp_mmshare_version>
43012

> <i_f3d_flags>
0

> <s_epik_input>
W0NIMl0xW0NIMl1OKFtDSDNdKVtDSDJdW0NIMl1OMVtDQEhdKFtDSF0oW0NIM10pW0NIM10pW0NIMl1bTkhdQyg9TylbTkhdYzJbY0hdW2NIXW5bY0hdYzJG

> <s_epik_cmdline>
J2VwaWtfcHl0aG9uJywgJy1waCcsICc3LjAnLCAnLXRuJywgJzgnLCAnLW1hJywgJzIwMCcsICctbWV0YWxfYmluZGluZycsICctaW1hZScsICc8aW5maWxlLm1hZT4nLCAnLW9tYWUnLCAnPG91dGZpbGUubWFlPic=

> <r_epik_Ionization_Penalty>
0.0313013

> <r_epik_Ionization_Penalty_Charging>
0.0272987

> <r_epik_Ionization_Penalty_Neutral>
0.00400259

> <r_epik_State_Penalty>
0.0776825

> <r_epik_Charging_Adjusted_Penalty>
0.104981

> <i_epik_Tot_Q>
1

> <i_epik_Tot_abs_Q>
1

> <r_epik_Metal_State_Penalty>
0.0776139

> <b_epik_Metal_Only>
0

> <s_lp_Force_Field>
OPLS_2005

> <r_lp_Energy>
31.1795

> <b_lp_Chiralities_Consistent>
1

> <s_lp_Variant>
AV-unprocessed.smi:2336-2

> <Gold.Version>
5.8.1

> <Gold.Id.Protein>
6NUR|6NUR_protein|mol2

> <Gold.PLP.Fitness>
35.4822

> <Gold.PLP.PLP>
-25.0910

> <Gold.PLP.part.hbond>
-3.0000

> <Gold.PLP.part.metal>
0.0000

> <Gold.PLP.part.buried>
-4.7919

> <Gold.PLP.part.nonpolar>
-17.6114

> <Gold.PLP.part.repulsive>
0.1734

> <Gold.PLP.ligand.clash>
0.0000

> <Gold.PLP.ligand.torsion>
0.8530

> <Gold.PLP.Chemscore.Hbond>
3.9120

> <Gold.PLP.Chemscore.CHOScore>
0.0000

> <Gold.PLP.Chemscore.Metal>
0.0000

> <Gold.Chemscore.Hbonds>
donor molecule, donor type, donor heavy atom, donor atom, acceptor molecule, acceptor atom, score
      L1  H    20    50       P1 10957  2.00
      P1  H  6896  6908       L1     8  0.90
      P1  H  7989  7998       L1    13  1.00

> <Gold.PLP.Chemscore.Internal.Correction>
0.3611

> <Gold.Rescore>
     Score         DG    S(hbond)    S(metal)    S(lipo)     H(rot)  DE(clash)    DE(int)     intcor
     16.02     -17.07       2.73        0.00      57.91       1.67       0.00       1.05       ----

> <Gold.Chemscore.Fitness>
16.0210

> <Gold.Chemscore.DG>
-17.0736

> <Gold.Chemscore.ZeroCoef>
-5.4800

> <Gold.Chemscore.Hbond>
2.7255

> <Gold.Chemscore.Metal>
0.0000

> <Gold.Chemscore.Lipo>
57.9117

> <Gold.Chemscore.Internal_Hbond>
0.0000

> <Gold.Chemscore.DEClash>
0.0000

> <Gold.Chemscore.DEInternal>
1.0526

> <Gold.Chemscore.Rot>
1.6739

> <Gold.Chemscore.Internal.Correction>
   9.000000E+99

> <Gold.Chemscore.Hbonds>
donor molecule, donor type, donor heavy atom, donor atom, acceptor molecule, acceptor atom, score
      L1  H    20    50       P1 10957  0.94
      P1  H  6896  6908       L1     8  0.84
      P1  H  7989  7998       L1    13  0.76

> <Gold.Chemscore.Hbond.Weighted>
-9.1030

> <Gold.Chemscore.Metal.Weighted>
-0.0000

> <Gold.Chemscore.Lipo.Weighted>
-6.7757

> <Gold.Chemscore.Internal_Hbond.Weighted>
0.0000

> <Gold.Chemscore.DEClash.Weighted>
0.0000

> <Gold.Chemscore.DEInternal.Weighted>
1.0526

> <Gold.Chemscore.Rot.Weighted>
4.2851

> <Gold.Chemscore.Internal.Correction.Weighted>
   9.000000E+99

> <Gold.Protein.RotatedTorsions>
[ 6907 6896 6895 6894 ] final -174.17 input  -60.11 | X-H torsion
[ 7974 7965 7964 7962 ] final   67.28 input  175.53 | X-H torsion
[ 8008 7997 7996 7995 ] final -148.17 input   59.86 | X-H torsion
[ 10167 10162 10161 10158 ] final  -54.06 input  -65.29 | X-H torsion
[ 10718 10713 10712 10709 ] final   53.63 input   66.30 | X-H torsion
[ 10763 10752 10751 10750 ] final  -23.31 input  -60.55 | X-H torsion
[ 11005 11000 10999 10996 ] final   86.16 input  -57.11 | X-H torsion

> <Gold.Protein.ActiveResidues>
 VAL166  LYS551  ARG553  GLY616  TRP617  ASP618  TYR619  PRO620  LYS621  CYS622 
 ASP623  PHE694  ASN695  SER759  ASP760  ASP761  ALA762  ILE779  LEU786  VAL792 
 PHE793  MET794  SER795  GLU796  ALA797  LYS798  CYS799  TRP800  GLU811  SER814 

> <Gold.Protein.RotatedAtoms>
  151.5680  133.3394  159.2983 H   0  0  0  0  0  0  0  0  0  0  0  0  # atno 6907 bound_to 6896
  150.8384  134.7669  159.6923 H   0  0  0  0  0  0  0  0  0  0  0  0  # atno 6908 bound_to 6896
  152.4456  134.5508  159.9918 H   0  0  0  0  0  0  0  0  0  0  0  0  # atno 6909 bound_to 6896
  145.8166  139.3061  143.1068 H   0  0  0  0  0  0  0  0  0  0  0  0  # atno 7974 bound_to 7965
  155.5873  140.0649  157.2768 H   0  0  0  0  0  0  0  0  0  0  0  0  # atno 8008 bound_to 7997
  154.4315  140.1841  156.1085 H   0  0  0  0  0  0  0  0  0  0  0  0  # atno 8009 bound_to 7997
  156.0259  140.3311  155.7092 H   0  0  0  0  0  0  0  0  0  0  0  0  # atno 8010 bound_to 7997
  140.6451  143.2530  151.4881 H   0  0  0  0  0  0  0  0  0  0  0  0  # atno 10167 bound_to 10162
  157.5185  130.8548  149.8527 H   0  0  0  0  0  0  0  0  0  0  0  0  # atno 10718 bound_to 10713
  153.6657  135.6974  153.5163 H   0  0  0  0  0  0  0  0  0  0  0  0  # atno 10763 bound_to 10752
  153.2596  135.4249  155.0880 H   0  0  0  0  0  0  0  0  0  0  0  0  # atno 10764 bound_to 10752
  154.8440  135.3551  154.6202 H   0  0  0  0  0  0  0  0  0  0  0  0  # atno 10765 bound_to 10752
  139.8952  134.8336  156.2681 H   0  0  0  0  0  0  0  0  0  0  0  0  # atno 11005 bound_to 11000
  145.9720  140.8752  143.0157 LP  0  0  0  0  0  0  0  0  0  0  0  0  # atno 17320 bound_to 7965
  144.6752  140.1959  143.7392 LP  0  0  0  0  0  0  0  0  0  0  0  0  # atno 17321 bound_to 7965
  139.5661  144.2038  152.1767 LP  0  0  0  0  0  0  0  0  0  0  0  0  # atno 17342 bound_to 10162
  140.1320  144.5279  150.6796 LP  0  0  0  0  0  0  0  0  0  0  0  0  # atno 17343 bound_to 10162
  156.0337  130.3757  150.1619 LP  0  0  0  0  0  0  0  0  0  0  0  0  # atno 17370 bound_to 10713
  156.9807  130.9863  151.3438 LP  0  0  0  0  0  0  0  0  0  0  0  0  # atno 17371 bound_to 10713
  141.0118  133.7091  156.1124 LP  0  0  0  0  0  0  0  0  0  0  0  0  # atno 17394 bound_to 11000
  140.7356  134.4206  157.5561 LP  0  0  0  0  0  0  0  0  0  0  0  0  # atno 17395 bound_to 11000

$$$$
