AV-unprocessed.smi:130|AV-procd|sdf|1159|dock6
  -GOLD-   2262018293D 1   1.00000     0.00000
 Structure written by MMmdl.
 44 47  0  0  0  0  0  0  0  0  1 V2000
  152.9671  139.1163  157.6215 O   0  0  0  0  0  0  0  0  0  0  0  0
  152.2190  139.8847  157.0160 C   0  0  0  0  0  0  0  0  0  0  0  0
  151.6530  139.4485  155.6465 C   0  0  0  0  0  0  0  0  0  0  0  0
  150.6646  138.3501  155.7336 N   0  0  0  0  0  0  0  0  0  0  0  0
  149.2977  138.6447  155.5017 C   0  0  0  0  0  0  0  0  0  0  0  0
  148.9256  139.7909  155.2465 O   0  0  0  0  0  0  0  0  0  0  0  0
  148.3864  137.5082  155.5758 C   0  0  0  0  0  0  0  0  0  0  0  0
  147.0726  137.6933  155.3632 F   0  0  0  0  0  0  0  0  0  0  0  0
  148.8429  136.2689  155.8495 C   0  0  0  0  0  0  0  0  0  0  0  0
  150.1795  135.9965  156.0760 N   0  0  0  0  0  0  0  0  0  0  0  0
  150.6557  134.5891  156.3549 C   0  0  2  0  0  0  0  0  0  0  0  0
  150.3505  133.6806  155.1580 C   0  0  0  0  0  0  0  0  0  0  0  0
  149.0419  133.0432  155.5731 C   0  0  0  0  0  0  0  0  0  0  0  0
  149.2238  132.9254  157.0817 C   0  0  0  0  0  0  0  0  0  0  0  0
  149.9615  134.0843  157.4597 O   0  0  0  0  0  0  0  0  0  0  0  0
  151.1272  137.0405  156.0070 C   0  0  0  0  0  0  0  0  0  0  0  0
  152.3284  136.8131  156.1676 O   0  0  0  0  0  0  0  0  0  0  0  0
  151.8621  141.1043  157.4906 N   0  0  0  0  0  0  0  0  0  0  0  0
  150.9778  142.0322  156.7637 C   0  0  0  0  0  0  0  0  0  0  0  0
  150.8585  143.2968  157.6422 C   0  0  0  0  0  0  0  0  0  0  0  0
  151.6947  142.9575  158.8405 C   0  0  0  0  0  0  0  0  0  0  0  0
  151.9180  143.7687  159.9665 C   0  0  0  0  0  0  0  0  0  0  0  0
  152.7384  143.2671  160.9986 C   0  0  0  0  0  0  0  0  0  0  0  0
  153.3156  141.9810  160.8909 C   0  0  0  0  0  0  0  0  0  0  0  0
  153.0813  141.1795  159.7519 C   0  0  0  0  0  0  0  0  0  0  0  0
  152.2581  141.6903  158.7224 C   0  0  0  0  0  0  0  0  0  0  0  0
  151.2106  140.3157  155.1542 H   0  0  0  0  0  0  0  0  0  0  0  0
  152.4806  139.1636  154.9956 H   0  0  0  0  0  0  0  0  0  0  0  0
  148.1241  135.4639  155.8838 H   0  0  0  0  0  0  0  0  0  0  0  0
  151.7174  134.6638  156.5952 H   0  0  0  0  0  0  0  0  0  0  0  0
  150.2995  134.2319  154.2182 H   0  0  0  0  0  0  0  0  0  0  0  0
  151.1356  132.9272  155.0838 H   0  0  0  0  0  0  0  0  0  0  0  0
  148.2079  133.7068  155.3420 H   0  0  0  0  0  0  0  0  0  0  0  0
  148.8600  132.0834  155.0888 H   0  0  0  0  0  0  0  0  0  0  0  0
  148.2763  132.8617  157.6168 H   0  0  0  0  0  0  0  0  0  0  0  0
  149.8131  132.0403  157.3246 H   0  0  0  0  0  0  0  0  0  0  0  0
  151.3942  142.2867  155.7883 H   0  0  0  0  0  0  0  0  0  0  0  0
  149.9949  141.5845  156.6106 H   0  0  0  0  0  0  0  0  0  0  0  0
  151.2555  144.1794  157.1396 H   0  0  0  0  0  0  0  0  0  0  0  0
  149.8271  143.4922  157.9374 H   0  0  0  0  0  0  0  0  0  0  0  0
  151.4728  144.7499  160.0402 H   0  0  0  0  0  0  0  0  0  0  0  0
  152.9263  143.8682  161.8759 H   0  0  0  0  0  0  0  0  0  0  0  0
  153.9414  141.6070  161.6875 H   0  0  0  0  0  0  0  0  0  0  0  0
  153.5348  140.2025  159.6998 H   0  0  0  0  0  0  0  0  0  0  0  0
  1  2  2  0  0  0  0
  2  3  1  0  0  0  0
  2 18  1  0  0  0  0
  3  4  1  0  0  0  0
  3 27  1  0  0  0  0
  3 28  1  0  0  0  0
  4 16  1  0  0  0  0
  4  5  1  0  0  0  0
  5  6  2  0  0  0  0
  5  7  1  0  0  0  0
  7  8  1  0  0  0  0
  7  9  2  0  0  0  0
  9 10  1  0  0  0  0
  9 29  1  0  0  0  0
 10 11  1  0  0  0  0
 10 16  1  0  0  0  0
 11 15  1  0  0  0  0
 11 12  1  0  0  0  0
 11 30  1  0  0  0  0
 12 13  1  0  0  0  0
 12 31  1  0  0  0  0
 12 32  1  0  0  0  0
 13 14  1  0  0  0  0
 13 33  1  0  0  0  0
 13 34  1  0  0  0  0
 14 15  1  0  0  0  0
 14 35  1  0  0  0  0
 14 36  1  0  0  0  0
 16 17  2  0  0  0  0
 18 26  1  0  0  0  0
 18 19  1  0  0  0  0
 19 20  1  0  0  0  0
 19 37  1  0  0  0  0
 19 38  1  0  0  0  0
 20 21  1  0  0  0  0
 20 39  1  0  0  0  0
 20 40  1  0  0  0  0
 21 26  2  0  0  0  0
 21 22  1  0  0  0  0
 22 23  2  0  0  0  0
 22 41  1  0  0  0  0
 23 24  1  0  0  0  0
 23 42  1  0  0  0  0
 24 25  2  0  0  0  0
 24 43  1  0  0  0  0
 25 26  1  0  0  0  0
 25 44  1  0  0  0  0
M  END
> <s_m_source_file>
AV-unprocessed.smi

> <i_m_source_file_index>
130

> <i_lp_mmshare_version>
43012

> <i_f3d_flags>
0

> <s_epik_input>
W2NIXTFbY0hdW2NIXVtjSF1jKGMxMilOKFtDSDJdW0NIMl0yKUMoPU8pW0NIMl1uM2MoPU8pYyhGKVtjSF1uKGMzPU8pW0NAQEhdNFtDSDJdW0NIMl1bQ0gyXU80

> <s_epik_cmdline>
J2VwaWtfcHl0aG9uJywgJy1waCcsICc3LjAnLCAnLXRuJywgJzgnLCAnLW1hJywgJzIwMCcsICctbWV0YWxfYmluZGluZycsICctaW1hZScsICc8aW5maWxlLm1hZT4nLCAnLW9tYWUnLCAnPG91dGZpbGUubWFlPic=

> <r_lp_tautomer_probability>
1

> <r_epik_Ionization_Penalty>
1.67926e-06

> <r_epik_Ionization_Penalty_Charging>
3.62822e-09

> <r_epik_Ionization_Penalty_Neutral>
1.67563e-06

> <r_epik_State_Penalty>
-0

> <r_epik_Charging_Adjusted_Penalty>
3.62822e-09

> <i_epik_Tot_Q>
0

> <i_epik_Tot_abs_Q>
0

> <r_epik_Metal_State_Penalty>
-0

> <b_epik_Metal_Only>
0

> <s_epik_Chemistry_Notes>
This compound contains an acetal/aminal-like group ( X-CH(R)-Y where X, Y are N, S, or O) that may be acid/base labile, releasing an aldehyde.

> <s_lp_Force_Field>
OPLS_2005

> <r_lp_Energy>
53.4857

> <b_lp_Chiralities_Consistent>
1

> <s_lp_Variant>
AV-unprocessed.smi:130-1

> <Gold.Version>
5.8.1

> <Gold.Id.Protein>
6NUR|6NUR_protein|mol2

> <Gold.PLP.Fitness>
48.2507

> <Gold.PLP.PLP>
-40.3752

> <Gold.PLP.part.hbond>
-3.0000

> <Gold.PLP.part.metal>
0.0000

> <Gold.PLP.part.buried>
-4.6941

> <Gold.PLP.part.nonpolar>
-32.6074

> <Gold.PLP.part.repulsive>
0.0462

> <Gold.PLP.ligand.clash>
0.0000

> <Gold.PLP.ligand.torsion>
0.2650

> <Gold.PLP.Chemscore.Hbond>
2.7984

> <Gold.PLP.Chemscore.CHOScore>
0.0000

> <Gold.PLP.Chemscore.Metal>
0.0000

> <Gold.Chemscore.Hbonds>
donor molecule, donor type, donor heavy atom, donor atom, acceptor molecule, acceptor atom, score
      P1  H  6896  6907       L1    15  0.96
      P1  H  7997  8009       L1     1  0.83
      P1  H 10752 10764       L1    17  0.99

> <Gold.PLP.Chemscore.Internal.Correction>
0.0103

> <Gold.Rescore>
     Score         DG    S(hbond)    S(metal)    S(lipo)     H(rot)  DE(clash)    DE(int)     intcor
     18.10     -21.17       2.53        0.00      96.18       1.57       0.01       3.07       ----

> <Gold.Chemscore.Fitness>
18.0984

> <Gold.Chemscore.DG>
-21.1726

> <Gold.Chemscore.ZeroCoef>
-5.4800

> <Gold.Chemscore.Hbond>
2.5330

> <Gold.Chemscore.Metal>
0.0000

> <Gold.Chemscore.Lipo>
96.1766

> <Gold.Chemscore.Internal_Hbond>
0.0000

> <Gold.Chemscore.DEClash>
0.0060

> <Gold.Chemscore.DEInternal>
3.0682

> <Gold.Chemscore.Rot>
1.5704

> <Gold.Chemscore.Internal.Correction>
   9.000000E+99

> <Gold.Chemscore.Hbonds>
donor molecule, donor type, donor heavy atom, donor atom, acceptor molecule, acceptor atom, score
      P1  H  6896  6907       L1    15  0.69
      P1  H  7997  8009       L1     1  0.13
      P1  H 10752 10764       L1    17  0.84

> <Gold.Chemscore.Hbond.Weighted>
-8.4602

> <Gold.Chemscore.Metal.Weighted>
-0.0000

> <Gold.Chemscore.Lipo.Weighted>
-11.2527

> <Gold.Chemscore.Internal_Hbond.Weighted>
0.0000

> <Gold.Chemscore.DEClash.Weighted>
0.0060

> <Gold.Chemscore.DEInternal.Weighted>
3.0682

> <Gold.Chemscore.Rot.Weighted>
4.0203

> <Gold.Chemscore.Internal.Correction.Weighted>
   9.000000E+99

> <Gold.Protein.RotatedTorsions>
[ 6907 6896 6895 6894 ] final -117.95 input  -60.11 | X-H torsion
[ 7974 7965 7964 7962 ] final  -95.92 input  175.53 | X-H torsion
[ 8008 7997 7996 7995 ] final  143.85 input   59.86 | X-H torsion
[ 10167 10162 10161 10158 ] final -108.58 input  -65.29 | X-H torsion
[ 10718 10713 10712 10709 ] final  110.14 input   66.30 | X-H torsion
[ 10763 10752 10751 10750 ] final  -38.22 input  -60.55 | X-H torsion
[ 11005 11000 10999 10996 ] final -110.70 input  -57.11 | X-H torsion

> <Gold.Protein.ActiveResidues>
 VAL166  LYS551  ARG553  GLY616  TRP617  ASP618  TYR619  PRO620  LYS621  CYS622 
 ASP623  PHE694  ASN695  SER759  ASP760  ASP761  ALA762  ILE779  LEU786  VAL792 
 PHE793  MET794  SER795  GLU796  ALA797  LYS798  CYS799  TRP800  GLU811  SER814 

> <Gold.Protein.RotatedAtoms>
  150.8179  133.8305  159.3152 H   0  0  0  0  0  0  0  0  0  0  0  0  # atno 6907 bound_to 6896
  151.6072  135.1041  160.0082 H   0  0  0  0  0  0  0  0  0  0  0  0  # atno 6908 bound_to 6896
  152.4269  133.7170  159.6568 H   0  0  0  0  0  0  0  0  0  0  0  0  # atno 6909 bound_to 6896
  145.3537  140.9481  143.2540 H   0  0  0  0  0  0  0  0  0  0  0  0  # atno 7974 bound_to 7965
  156.2921  140.2251  156.4958 H   0  0  0  0  0  0  0  0  0  0  0  0  # atno 8008 bound_to 7997
  154.7732  140.0465  157.1089 H   0  0  0  0  0  0  0  0  0  0  0  0  # atno 8009 bound_to 7997
  154.9849  140.3083  155.4934 H   0  0  0  0  0  0  0  0  0  0  0  0  # atno 8010 bound_to 7997
  140.1646  143.4092  152.1400 H   0  0  0  0  0  0  0  0  0  0  0  0  # atno 10167 bound_to 10162
  157.6508  131.0927  150.6558 H   0  0  0  0  0  0  0  0  0  0  0  0  # atno 10718 bound_to 10713
  153.9092  135.6794  153.4752 H   0  0  0  0  0  0  0  0  0  0  0  0  # atno 10763 bound_to 10752
  153.1088  135.4793  154.8995 H   0  0  0  0  0  0  0  0  0  0  0  0  # atno 10764 bound_to 10752
  154.7536  135.3191  154.8467 H   0  0  0  0  0  0  0  0  0  0  0  0  # atno 10765 bound_to 10752
  141.0776  133.9274  157.2356 H   0  0  0  0  0  0  0  0  0  0  0  0  # atno 11005 bound_to 11000
  144.8698  139.5054  143.6773 LP  0  0  0  0  0  0  0  0  0  0  0  0  # atno 17320 bound_to 7965
  146.2957  139.7271  142.9128 LP  0  0  0  0  0  0  0  0  0  0  0  0  # atno 17321 bound_to 7965
  139.5365  144.7215  151.4875 LP  0  0  0  0  0  0  0  0  0  0  0  0  # atno 17342 bound_to 10162
  140.6621  143.8476  150.6900 LP  0  0  0  0  0  0  0  0  0  0  0  0  # atno 17343 bound_to 10162
  156.6869  130.4583  149.5611 LP  0  0  0  0  0  0  0  0  0  0  0  0  # atno 17370 bound_to 10713
  156.1889  130.6547  151.1038 LP  0  0  0  0  0  0  0  0  0  0  0  0  # atno 17371 bound_to 10713
  139.9589  135.0159  156.9206 LP  0  0  0  0  0  0  0  0  0  0  0  0  # atno 17394 bound_to 11000
  140.5538  134.0601  155.7377 LP  0  0  0  0  0  0  0  0  0  0  0  0  # atno 17395 bound_to 11000

$$$$
