AV-unprocessed.smi:1214|AV-procd|sdf|5093|dock3
  -GOLD-   22720 4143D 1   1.00000     0.00000
 Structure written by MMmdl.
 33 34  0  0  0  0  0  0  0  0  1 V2000
  145.2960  135.7050  150.8681 C   0  0  0  0  0  0  0  0  0  0  0  0
  145.1680  134.1927  150.7770 C   0  0  0  0  0  0  0  0  0  0  0  0
  144.1161  133.6362  150.0186 C   0  0  0  0  0  0  0  0  0  0  0  0
  143.9962  132.2388  149.9340 C   0  0  0  0  0  0  0  0  0  0  0  0
  144.9389  131.4522  150.6167 C   0  0  0  0  0  0  0  0  0  0  0  0
  145.9470  131.9764  151.3433 N   0  0  0  0  0  0  0  0  0  0  0  0
  146.0826  133.3247  151.4329 C   0  0  0  0  0  0  0  0  0  0  0  0
  147.1097  133.9618  152.1955 N   0  0  0  0  0  0  0  0  0  0  0  0
  147.5844  133.7222  153.4366 C   0  0  0  0  0  0  0  0  0  0  0  0
  147.1141  132.8247  154.1337 O   0  0  0  0  0  0  0  0  0  0  0  0
  148.5749  134.5247  153.8589 N   0  0  0  0  0  0  0  0  0  0  0  0
  149.2250  134.4529  155.1621 C   0  0  1  0  0  0  0  0  0  0  0  0
  150.3353  133.3837  155.1954 C   0  0  0  0  0  0  0  0  0  0  0  0
  151.2133  133.6233  156.4302 C   0  0  0  0  0  0  0  0  0  0  0  0
  151.1639  135.4276  156.7507 S   0  0  0  0  0  0  0  0  0  0  0  0
  150.6397  135.6556  158.1057 O   0  0  0  0  0  0  0  0  0  0  0  0
  152.4268  136.0426  156.3145 O   0  0  0  0  0  0  0  0  0  0  0  0
  149.8580  135.8033  155.5227 C   0  0  0  0  0  0  0  0  0  0  0  0
  144.5134  136.2054  150.2971 H   0  0  0  0  0  0  0  0  0  0  0  0
  146.2587  136.0307  150.4734 H   0  0  0  0  0  0  0  0  0  0  0  0
  145.2164  136.0339  151.9046 H   0  0  0  0  0  0  0  0  0  0  0  0
  143.4068  134.2704  149.5068 H   0  0  0  0  0  0  0  0  0  0  0  0
  143.2018  131.7824  149.3620 H   0  0  0  0  0  0  0  0  0  0  0  0
  144.8831  130.3742  150.5805 H   0  0  0  0  0  0  0  0  0  0  0  0
  147.5397  134.7491  151.7325 H   0  0  0  0  0  0  0  0  0  0  0  0
  148.9054  135.2350  153.2207 H   0  0  0  0  0  0  0  0  0  0  0  0
  148.4877  134.2118  155.9301 H   0  0  0  0  0  0  0  0  0  0  0  0
  149.9276  132.3724  155.1865 H   0  0  0  0  0  0  0  0  0  0  0  0
  150.9550  133.4841  154.3030 H   0  0  0  0  0  0  0  0  0  0  0  0
  150.7995  133.1166  157.3021 H   0  0  0  0  0  0  0  0  0  0  0  0
  152.2424  133.2925  156.2904 H   0  0  0  0  0  0  0  0  0  0  0  0
  150.3391  136.2594  154.6567 H   0  0  0  0  0  0  0  0  0  0  0  0
  149.1430  136.5132  155.9386 H   0  0  0  0  0  0  0  0  0  0  0  0
  1  2  1  0  0  0  0
  1 19  1  0  0  0  0
  1 20  1  0  0  0  0
  1 21  1  0  0  0  0
  2  7  1  0  0  0  0
  2  3  2  0  0  0  0
  3  4  1  0  0  0  0
  3 22  1  0  0  0  0
  4  5  2  0  0  0  0
  4 23  1  0  0  0  0
  5  6  1  0  0  0  0
  5 24  1  0  0  0  0
  6  7  2  0  0  0  0
  7  8  1  0  0  0  0
  8  9  1  0  0  0  0
  8 25  1  0  0  0  0
  9 10  2  0  0  0  0
  9 11  1  0  0  0  0
 11 12  1  0  0  0  0
 11 26  1  0  0  0  0
 12 18  1  0  0  0  0
 12 13  1  0  0  0  0
 12 27  1  0  0  0  0
 13 14  1  0  0  0  0
 13 28  1  0  0  0  0
 13 29  1  0  0  0  0
 14 15  1  0  0  0  0
 14 30  1  0  0  0  0
 14 31  1  0  0  0  0
 15 16  2  0  0  0  0
 15 17  2  0  0  0  0
 15 18  1  0  0  0  0
 18 32  1  0  0  0  0
 18 33  1  0  0  0  0
M  END
> <s_m_source_file>
AV-unprocessed.smi

> <i_m_source_file_index>
1214

> <i_lp_mmshare_version>
43012

> <i_f3d_flags>
0

> <s_epik_input>
W0NIM11jMVtjSF1bY0hdW2NIXW5jMVtOSF1DKD1PKVtOSF1bQ0BASF0oW0NIMl0yKVtDSDJdW0NIMl1TMig9Tyk9Tw==

> <s_epik_cmdline>
J2VwaWtfcHl0aG9uJywgJy1waCcsICc3LjAnLCAnLXRuJywgJzgnLCAnLW1hJywgJzIwMCcsICctbWV0YWxfYmluZGluZycsICctaW1hZScsICc8aW5maWxlLm1hZT4nLCAnLW9tYWUnLCAnPG91dGZpbGUubWFlPic=

> <r_lp_tautomer_probability>
1

> <r_epik_Ionization_Penalty>
4.18367e-05

> <r_epik_Ionization_Penalty_Charging>
0

> <r_epik_Ionization_Penalty_Neutral>
4.18367e-05

> <r_epik_State_Penalty>
-0

> <r_epik_Charging_Adjusted_Penalty>
0

> <i_epik_Tot_Q>
0

> <i_epik_Tot_abs_Q>
0

> <r_epik_Metal_State_Penalty>
-0

> <b_epik_Metal_Only>
0

> <s_lp_Force_Field>
OPLS_2005

> <r_lp_Energy>
8.88594

> <b_lp_Chiralities_Consistent>
1

> <s_lp_Variant>
AV-unprocessed.smi:1214-2

> <Gold.Version>
5.8.1

> <Gold.Id.Protein>
6NUR|6NUR_protein|mol2

> <Gold.PLP.Fitness>
39.4883

> <Gold.PLP.PLP>
-30.0935

> <Gold.PLP.part.hbond>
-4.0000

> <Gold.PLP.part.metal>
0.0000

> <Gold.PLP.part.buried>
-4.3524

> <Gold.PLP.part.nonpolar>
-23.0576

> <Gold.PLP.part.repulsive>
0.1917

> <Gold.PLP.ligand.clash>
0.0000

> <Gold.PLP.ligand.torsion>
0.7031

> <Gold.PLP.Chemscore.Hbond>
3.6000

> <Gold.PLP.Chemscore.CHOScore>
0.0000

> <Gold.PLP.Chemscore.Metal>
0.0000

> <Gold.Chemscore.Hbonds>
donor molecule, donor type, donor heavy atom, donor atom, acceptor molecule, acceptor atom, score
      L1  H     8    25       P1  7948  0.93
      L1  H    11    26       P1  7948  1.00
      P1  H  6896  6907       L1    16  0.59
      P1  H 10752 10764       L1    17  1.00

> <Gold.PLP.Chemscore.Internal.Correction>
0.0010

> <Gold.Rescore>
     Score         DG    S(hbond)    S(metal)    S(lipo)     H(rot)  DE(clash)    DE(int)     intcor
     20.54     -21.29       3.41        0.00      59.63       1.00       0.07       0.69       ----

> <Gold.Chemscore.Fitness>
20.5421

> <Gold.Chemscore.DG>
-21.2939

> <Gold.Chemscore.ZeroCoef>
-5.4800

> <Gold.Chemscore.Hbond>
3.4123

> <Gold.Chemscore.Metal>
0.0000

> <Gold.Chemscore.Lipo>
59.6299

> <Gold.Chemscore.Internal_Hbond>
0.0000

> <Gold.Chemscore.DEClash>
0.0650

> <Gold.Chemscore.DEInternal>
0.6868

> <Gold.Chemscore.Rot>
1.0000

> <Gold.Chemscore.Internal.Correction>
   9.000000E+99

> <Gold.Chemscore.Hbonds>
donor molecule, donor type, donor heavy atom, donor atom, acceptor molecule, acceptor atom, score
      L1  H     8    25       P1  7948  0.48
      L1  H    11    26       P1  7948  0.50
      P1  H  6896  6907       L1    16  0.58
      P1  H 10752 10764       L1    17  0.96

> <Gold.Chemscore.Hbond.Weighted>
-11.3972

> <Gold.Chemscore.Metal.Weighted>
-0.0000

> <Gold.Chemscore.Lipo.Weighted>
-6.9767

> <Gold.Chemscore.Internal_Hbond.Weighted>
0.0000

> <Gold.Chemscore.DEClash.Weighted>
0.0650

> <Gold.Chemscore.DEInternal.Weighted>
0.6868

> <Gold.Chemscore.Rot.Weighted>
2.5600

> <Gold.Chemscore.Internal.Correction.Weighted>
   9.000000E+99

> <Gold.Protein.RotatedTorsions>
[ 6907 6896 6895 6894 ] final  -63.24 input  -60.11 | X-H torsion
[ 7974 7965 7964 7962 ] final   86.09 input  175.53 | X-H torsion
[ 8008 7997 7996 7995 ] final  174.85 input   59.86 | X-H torsion
[ 10167 10162 10161 10158 ] final  -96.32 input  -65.29 | X-H torsion
[ 10718 10713 10712 10709 ] final -117.74 input   66.30 | X-H torsion
[ 10763 10752 10751 10750 ] final   -6.26 input  -60.55 | X-H torsion
[ 11005 11000 10999 10996 ] final   58.43 input  -57.11 | X-H torsion

> <Gold.Protein.ActiveResidues>
 VAL166  LYS551  ARG553  GLY616  TRP617  ASP618  TYR619  PRO620  LYS621  CYS622 
 ASP623  PHE694  ASN695  SER759  ASP760  ASP761  ALA762  ILE779  LEU786  VAL792 
 PHE793  MET794  SER795  GLU796  ALA797  LYS798  CYS799  TRP800  GLU811  SER814 

> <Gold.Protein.RotatedAtoms>
  150.7662  134.6462  159.6263 H   0  0  0  0  0  0  0  0  0  0  0  0  # atno 6907 bound_to 6896
  152.3695  134.6752  160.0190 H   0  0  0  0  0  0  0  0  0  0  0  0  # atno 6908 bound_to 6896
  151.7117  133.3276  159.3328 H   0  0  0  0  0  0  0  0  0  0  0  0  # atno 6909 bound_to 6896
  145.5769  139.2320  143.2374 H   0  0  0  0  0  0  0  0  0  0  0  0  # atno 7974 bound_to 7965
  156.0932  140.1424  156.9565 H   0  0  0  0  0  0  0  0  0  0  0  0  # atno 8008 bound_to 7997
  154.4655  140.0928  156.7054 H   0  0  0  0  0  0  0  0  0  0  0  0  # atno 8009 bound_to 7997
  155.4885  140.3447  155.4353 H   0  0  0  0  0  0  0  0  0  0  0  0  # atno 8010 bound_to 7997
  140.2951  143.3197  152.0306 H   0  0  0  0  0  0  0  0  0  0  0  0  # atno 10167 bound_to 10162
  156.1056  130.6207  150.9203 H   0  0  0  0  0  0  0  0  0  0  0  0  # atno 10718 bound_to 10713
  153.4099  135.7007  153.6366 H   0  0  0  0  0  0  0  0  0  0  0  0  # atno 10763 bound_to 10752
  153.4865  135.3682  155.2470 H   0  0  0  0  0  0  0  0  0  0  0  0  # atno 10764 bound_to 10752
  154.8716  135.4078  154.3449 H   0  0  0  0  0  0  0  0  0  0  0  0  # atno 10765 bound_to 10752
  140.0378  134.5918  155.9421 H   0  0  0  0  0  0  0  0  0  0  0  0  # atno 11005 bound_to 11000
  146.1744  140.6596  142.9218 LP  0  0  0  0  0  0  0  0  0  0  0  0  # atno 17320 bound_to 7965
  144.7412  140.4946  143.6868 LP  0  0  0  0  0  0  0  0  0  0  0  0  # atno 17321 bound_to 7965
  139.4928  144.6497  151.6702 LP  0  0  0  0  0  0  0  0  0  0  0  0  # atno 17342 bound_to 10162
  140.5699  144.0126  150.6211 LP  0  0  0  0  0  0  0  0  0  0  0  0  # atno 17343 bound_to 10162
  157.6232  131.0928  150.8583 LP  0  0  0  0  0  0  0  0  0  0  0  0  # atno 17370 bound_to 10713
  156.8703  130.5144  149.5297 LP  0  0  0  0  0  0  0  0  0  0  0  0  # atno 17371 bound_to 10713
  141.1867  133.6558  156.5249 LP  0  0  0  0  0  0  0  0  0  0  0  0  # atno 17394 bound_to 11000
  140.4119  134.7265  157.4840 LP  0  0  0  0  0  0  0  0  0  0  0  0  # atno 17395 bound_to 11000

$$$$
