AV-unprocessed.smi:297|AV-procd|sdf|2259|dock6
  -GOLD-   2262022143D 1   1.00000     0.00000
 Structure written by MMmdl.
 29 30  0  0  0  0  0  0  0  0  1 V2000
  153.2823  136.5347  160.0196 N   0  0  0  0  0  0  0  0  0  0  0  0
  153.3904  137.6671  160.2330 C   0  0  0  0  0  0  0  0  0  0  0  0
  153.5265  139.0906  160.5007 C   0  0  0  0  0  0  0  0  0  0  0  0
  152.7699  139.9217  159.7499 N   0  0  0  0  0  0  0  0  0  0  0  0
  152.8551  141.2564  159.9614 C   0  0  0  0  0  0  0  0  0  0  0  0
  152.0607  142.1069  159.1799 N   0  0  0  0  0  0  0  0  0  0  0  0
  152.6787  143.3989  158.9126 C   0  0  0  0  0  0  0  0  0  0  0  0
  151.6909  144.3047  158.1602 C   0  0  0  0  0  0  0  0  0  0  0  0
  151.2650  143.6547  156.9665 O   0  0  0  0  0  0  0  0  0  0  0  0
  150.5904  142.4213  157.2248 C   0  0  1  0  0  0  0  0  0  0  0  0
  150.1031  141.8287  155.8941 C   0  0  0  0  0  0  0  0  0  0  0  0
  149.1984  142.5289  155.2038 N   0  0  0  0  0  0  0  0  0  0  0  0
  150.5216  140.7430  155.4960 O   0  0  0  0  0  0  0  0  0  0  0  0
  151.5514  141.4687  157.9718 C   0  0  0  0  0  0  0  0  0  0  0  0
  153.7050  141.8164  160.9360 C   0  0  0  0  0  0  0  0  0  0  0  0
  154.4952  140.9531  161.7172 C   0  0  0  0  0  0  0  0  0  0  0  0
  154.4102  139.5638  161.5021 C   0  0  0  0  0  0  0  0  0  0  0  0
  155.3786  138.4965  162.4608 Cl  0  0  0  0  0  0  0  0  0  0  0  0
  152.9768  143.8672  159.8514 H   0  0  0  0  0  0  0  0  0  0  0  0
  153.5825  143.2624  158.3168 H   0  0  0  0  0  0  0  0  0  0  0  0
  150.8289  144.5458  158.7842 H   0  0  0  0  0  0  0  0  0  0  0  0
  152.1702  145.2481  157.8994 H   0  0  0  0  0  0  0  0  0  0  0  0
  149.7104  142.6170  157.8399 H   0  0  0  0  0  0  0  0  0  0  0  0
  148.8495  142.1696  154.3269 H   0  0  0  0  0  0  0  0  0  0  0  0
  148.8637  143.4106  155.5641 H   0  0  0  0  0  0  0  0  0  0  0  0
  152.3848  141.1926  157.3235 H   0  0  0  0  0  0  0  0  0  0  0  0
  151.0351  140.5468  158.2440 H   0  0  0  0  0  0  0  0  0  0  0  0
  153.7518  142.8855  161.0839 H   0  0  0  0  0  0  0  0  0  0  0  0
  155.1570  141.3526  162.4716 H   0  0  0  0  0  0  0  0  0  0  0  0
  1  2  3  0  0  0  0
  2  3  1  0  0  0  0
  3 17  1  0  0  0  0
  3  4  2  0  0  0  0
  4  5  1  0  0  0  0
  5  6  1  0  0  0  0
  5 15  2  0  0  0  0
  6 14  1  0  0  0  0
  6  7  1  0  0  0  0
  7  8  1  0  0  0  0
  7 19  1  0  0  0  0
  7 20  1  0  0  0  0
  8  9  1  0  0  0  0
  8 21  1  0  0  0  0
  8 22  1  0  0  0  0
  9 10  1  0  0  0  0
 10 11  1  0  0  0  0
 10 14  1  0  0  0  0
 10 23  1  0  0  0  0
 11 12  1  0  0  0  0
 11 13  2  0  0  0  0
 12 24  1  0  0  0  0
 12 25  1  0  0  0  0
 14 26  1  0  0  0  0
 14 27  1  0  0  0  0
 15 16  1  0  0  0  0
 15 28  1  0  0  0  0
 16 17  2  0  0  0  0
 16 29  1  0  0  0  0
 17 18  1  0  0  0  0
M  END
> <s_m_source_file>
AV-unprocessed.smi

> <i_m_source_file_index>
297

> <i_lp_mmshare_version>
43012

> <i_f3d_flags>
0

> <s_epik_input>
TiNDYzFuYyhbY0hdW2NIXWMxQ2wpTjJbQ0gyXVtDSDJdT1tDQEhdKFtDSDJdMilDKD1PKVtOSDJd

> <s_epik_cmdline>
J2VwaWtfcHl0aG9uJywgJy1waCcsICc3LjAnLCAnLXRuJywgJzgnLCAnLW1hJywgJzIwMCcsICctbWV0YWxfYmluZGluZycsICctaW1hZScsICc8aW5maWxlLm1hZT4nLCAnLW9tYWUnLCAnPG91dGZpbGUubWFlPic=

> <r_lp_tautomer_probability>
1

> <r_epik_Ionization_Penalty>
8.82403e-08

> <r_epik_Ionization_Penalty_Charging>
0

> <r_epik_Ionization_Penalty_Neutral>
8.82403e-08

> <r_epik_State_Penalty>
-0

> <r_epik_Charging_Adjusted_Penalty>
0

> <i_epik_Tot_Q>
0

> <i_epik_Tot_abs_Q>
0

> <r_epik_Metal_State_Penalty>
-0

> <b_epik_Metal_Only>
0

> <s_lp_Force_Field>
OPLS_2005

> <r_lp_Energy>
18.8034

> <b_lp_Chiralities_Consistent>
1

> <s_lp_Variant>
AV-unprocessed.smi:297-1

> <Gold.Version>
5.8.1

> <Gold.Id.Protein>
6NUR|6NUR_protein|mol2

> <Gold.PLP.Fitness>
41.9090

> <Gold.PLP.PLP>
-34.2370

> <Gold.PLP.part.hbond>
-3.0000

> <Gold.PLP.part.metal>
0.0000

> <Gold.PLP.part.buried>
-3.4175

> <Gold.PLP.part.nonpolar>
-28.1510

> <Gold.PLP.part.repulsive>
0.8629

> <Gold.PLP.ligand.clash>
0.0000

> <Gold.PLP.ligand.torsion>
0.6317

> <Gold.PLP.Chemscore.Hbond>
2.9440

> <Gold.PLP.Chemscore.CHOScore>
0.0000

> <Gold.PLP.Chemscore.Metal>
0.0000

> <Gold.Chemscore.Hbonds>
donor molecule, donor type, donor heavy atom, donor atom, acceptor molecule, acceptor atom, score
      L1  H    12    25       P1  8028  0.44
      P1  H  6896  6908       L1     1  1.00
      P1  H  7989  7998       L1    13  0.32

> <Gold.PLP.Chemscore.Internal.Correction>
0.1034

> <Gold.Rescore>
     Score         DG    S(hbond)    S(metal)    S(lipo)     H(rot)  DE(clash)    DE(int)     intcor
     18.67     -19.43       2.69        0.00      75.42       1.50       0.05       0.72       ----

> <Gold.Chemscore.Fitness>
18.6677

> <Gold.Chemscore.DG>
-19.4333

> <Gold.Chemscore.ZeroCoef>
-5.4800

> <Gold.Chemscore.Hbond>
2.6858

> <Gold.Chemscore.Metal>
0.0000

> <Gold.Chemscore.Lipo>
75.4223

> <Gold.Chemscore.Internal_Hbond>
0.0000

> <Gold.Chemscore.DEClash>
0.0458

> <Gold.Chemscore.DEInternal>
0.7197

> <Gold.Chemscore.Rot>
1.5006

> <Gold.Chemscore.Internal.Correction>
   9.000000E+99

> <Gold.Chemscore.Hbonds>
donor molecule, donor type, donor heavy atom, donor atom, acceptor molecule, acceptor atom, score
      L1  H    12    25       P1  8028  0.42
      P1  H  6896  6908       L1     1  0.99
      P1  H  7989  7998       L1    13  0.27

> <Gold.Chemscore.Hbond.Weighted>
-8.9705

> <Gold.Chemscore.Metal.Weighted>
-0.0000

> <Gold.Chemscore.Lipo.Weighted>
-8.8244

> <Gold.Chemscore.Internal_Hbond.Weighted>
0.0000

> <Gold.Chemscore.DEClash.Weighted>
0.0458

> <Gold.Chemscore.DEInternal.Weighted>
0.7197

> <Gold.Chemscore.Rot.Weighted>
3.8416

> <Gold.Chemscore.Internal.Correction.Weighted>
   9.000000E+99

> <Gold.Protein.RotatedTorsions>
[ 6907 6896 6895 6894 ] final  -72.61 input  -60.11 | X-H torsion
[ 7974 7965 7964 7962 ] final -122.87 input  175.53 | X-H torsion
[ 8008 7997 7996 7995 ] final  -52.41 input   59.86 | X-H torsion
[ 10167 10162 10161 10158 ] final   88.86 input  -65.29 | X-H torsion
[ 10718 10713 10712 10709 ] final   12.70 input   66.30 | X-H torsion
[ 10763 10752 10751 10750 ] final -127.86 input  -60.55 | X-H torsion
[ 11005 11000 10999 10996 ] final   -2.23 input  -57.11 | X-H torsion

> <Gold.Protein.ActiveResidues>
 VAL166  LYS551  ARG553  GLY616  TRP617  ASP618  TYR619  PRO620  LYS621  CYS622 
 ASP623  PHE694  ASN695  SER759  ASP760  ASP761  ALA762  ILE779  LEU786  VAL792 
 PHE793  MET794  SER795  GLU796  ALA797  LYS798  CYS799  TRP800  GLU811  SER814 

> <Gold.Protein.RotatedAtoms>
  150.7163  134.5137  159.5619 H   0  0  0  0  0  0  0  0  0  0  0  0  # atno 6907 bound_to 6896
  152.2708  134.7932  160.0423 H   0  0  0  0  0  0  0  0  0  0  0  0  # atno 6908 bound_to 6896
  151.8612  133.3422  159.3741 H   0  0  0  0  0  0  0  0  0  0  0  0  # atno 6909 bound_to 6896
  145.0248  140.8018  143.4359 H   0  0  0  0  0  0  0  0  0  0  0  0  # atno 7974 bound_to 7965
  154.4106  140.1224  156.4986 H   0  0  0  0  0  0  0  0  0  0  0  0  # atno 8008 bound_to 7997
  155.6917  140.3495  155.4877 H   0  0  0  0  0  0  0  0  0  0  0  0  # atno 8009 bound_to 7997
  155.9463  140.1096  157.1004 H   0  0  0  0  0  0  0  0  0  0  0  0  # atno 8010 bound_to 7997
  139.8630  144.6533  150.9036 H   0  0  0  0  0  0  0  0  0  0  0  0  # atno 10167 bound_to 10162
  157.0140  130.6128  149.5712 H   0  0  0  0  0  0  0  0  0  0  0  0  # atno 10718 bound_to 10713
  154.8754  135.3947  154.3663 H   0  0  0  0  0  0  0  0  0  0  0  0  # atno 10763 bound_to 10752
  153.4429  135.7027  153.6163 H   0  0  0  0  0  0  0  0  0  0  0  0  # atno 10764 bound_to 10752
  153.4736  135.3785  155.2373 H   0  0  0  0  0  0  0  0  0  0  0  0  # atno 10765 bound_to 10752
  140.6560  133.9362  155.8408 H   0  0  0  0  0  0  0  0  0  0  0  0  # atno 11005 bound_to 11000
  145.1848  139.2332  143.5273 LP  0  0  0  0  0  0  0  0  0  0  0  0  # atno 17320 bound_to 7965
  146.3490  140.1630  142.8590 LP  0  0  0  0  0  0  0  0  0  0  0  0  # atno 17321 bound_to 7965
  140.7772  143.3728  151.1619 LP  0  0  0  0  0  0  0  0  0  0  0  0  # atno 17342 bound_to 10162
  139.7355  143.9005  152.3033 LP  0  0  0  0  0  0  0  0  0  0  0  0  # atno 17343 bound_to 10162
  156.0126  130.5218  150.8035 LP  0  0  0  0  0  0  0  0  0  0  0  0  # atno 17370 bound_to 10713
  157.5299  131.0936  150.9968 LP  0  0  0  0  0  0  0  0  0  0  0  0  # atno 17371 bound_to 10713
  141.0501  134.0497  157.3795 LP  0  0  0  0  0  0  0  0  0  0  0  0  # atno 17394 bound_to 11000
  139.9029  135.0170  156.7353 LP  0  0  0  0  0  0  0  0  0  0  0  0  # atno 17395 bound_to 11000

$$$$
