AV-unprocessed.smi:1095|AV-procd|sdf|4748|dock4
  -GOLD-   22720 3283D 1   1.00000     0.00000
 Structure written by MMmdl.
 50 51  0  0  0  0  0  0  0  0  1 V2000
  153.2588  142.4968  162.4991 C   0  0  0  0  0  0  0  0  0  0  0  0
  153.3626  142.1088  161.0177 C   0  0  0  0  0  0  0  0  0  0  0  0
  152.7069  143.1191  160.0543 C   0  0  2  0  0  0  0  0  0  0  0  0
  151.5514  143.9017  160.7145 C   0  0  0  0  0  0  0  0  0  0  0  0
  150.8853  144.8802  159.7308 C   0  0  0  0  0  0  0  0  0  0  0  0
  150.3869  144.1858  158.4479 C   0  0  2  0  0  0  0  0  0  0  0  0
  149.1186  143.3371  158.7003 C   0  0  0  0  0  0  0  0  0  0  0  0
  147.9600  144.1623  159.0252 N   0  0  0  0  0  0  0  0  0  0  0  0
  146.9325  143.7793  159.7986 C   0  0  0  0  0  0  0  0  0  0  0  0
  146.8404  142.6568  160.2961 O   0  0  0  0  0  0  0  0  0  0  0  0
  145.8477  144.8258  160.0597 C   0  0  0  0  0  0  0  0  0  0  0  0
  145.1573  145.1850  158.7672 C   0  0  0  0  0  0  0  0  0  0  0  0
  144.6882  144.2976  157.7530 C   0  0  0  0  0  0  0  0  0  0  0  0
  144.7695  142.7988  157.7066 C   0  0  0  0  0  0  0  0  0  0  0  0
  144.1255  144.9383  156.7424 N   0  0  0  0  0  0  0  0  0  0  0  0
  144.2145  146.2430  157.0685 N   0  0  0  0  0  0  0  0  0  0  0  0
  143.6824  147.2395  156.1593 C   0  0  0  0  0  0  0  0  0  0  0  0
  144.8401  146.4276  158.2864 C   0  0  0  0  0  0  0  0  0  0  0  0
  145.0713  147.7857  158.8675 C   0  0  0  0  0  0  0  0  0  0  0  0
  151.5445  143.3955  157.7992 C   0  0  0  0  0  0  0  0  0  0  0  0
  152.2061  142.4116  158.7791 C   0  0  0  0  0  0  0  0  0  0  0  0
  153.8034  141.7864  163.1213 H   0  0  0  0  0  0  0  0  0  0  0  0
  152.2250  142.5040  162.8437 H   0  0  0  0  0  0  0  0  0  0  0  0
  153.6819  143.4855  162.6786 H   0  0  0  0  0  0  0  0  0  0  0  0
  154.4204  142.0153  160.7686 H   0  0  0  0  0  0  0  0  0  0  0  0
  152.9306  141.1186  160.8683 H   0  0  0  0  0  0  0  0  0  0  0  0
  153.4714  143.8364  159.7516 H   0  0  0  0  0  0  0  0  0  0  0  0
  150.8079  143.2069  161.1061 H   0  0  0  0  0  0  0  0  0  0  0  0
  151.9187  144.4668  161.5709 H   0  0  0  0  0  0  0  0  0  0  0  0
  150.0624  145.4004  160.2220 H   0  0  0  0  0  0  0  0  0  0  0  0
  151.6075  145.6514  159.4593 H   0  0  0  0  0  0  0  0  0  0  0  0
  150.1025  144.9755  157.7507 H   0  0  0  0  0  0  0  0  0  0  0  0
  148.8685  142.7430  157.8221 H   0  0  0  0  0  0  0  0  0  0  0  0
  149.2983  142.6210  159.5040 H   0  0  0  0  0  0  0  0  0  0  0  0
  147.9517  145.1020  158.6562 H   0  0  0  0  0  0  0  0  0  0  0  0
  145.1338  144.4488  160.7933 H   0  0  0  0  0  0  0  0  0  0  0  0
  146.3149  145.6957  160.5213 H   0  0  0  0  0  0  0  0  0  0  0  0
  145.5462  142.4740  157.0141 H   0  0  0  0  0  0  0  0  0  0  0  0
  143.8265  142.3609  157.3789 H   0  0  0  0  0  0  0  0  0  0  0  0
  145.0034  142.3807  158.6853 H   0  0  0  0  0  0  0  0  0  0  0  0
  143.0598  147.9453  156.7095 H   0  0  0  0  0  0  0  0  0  0  0  0
  143.0764  146.7687  155.3841 H   0  0  0  0  0  0  0  0  0  0  0  0
  144.5036  147.7795  155.6879 H   0  0  0  0  0  0  0  0  0  0  0  0
  145.8376  147.7583  159.6421 H   0  0  0  0  0  0  0  0  0  0  0  0
  144.1556  148.1754  159.3122 H   0  0  0  0  0  0  0  0  0  0  0  0
  145.4033  148.4888  158.1034 H   0  0  0  0  0  0  0  0  0  0  0  0
  151.2021  142.8617  156.9134 H   0  0  0  0  0  0  0  0  0  0  0  0
  152.2990  144.0995  157.4460 H   0  0  0  0  0  0  0  0  0  0  0  0
  153.0393  141.9163  158.2794 H   0  0  0  0  0  0  0  0  0  0  0  0
  151.5010  141.6229  159.0438 H   0  0  0  0  0  0  0  0  0  0  0  0
  1  2  1  0  0  0  0
  1 22  1  0  0  0  0
  1 23  1  0  0  0  0
  1 24  1  0  0  0  0
  2  3  1  0  0  0  0
  2 25  1  0  0  0  0
  2 26  1  0  0  0  0
  3 21  1  0  0  0  0
  3  4  1  0  0  0  0
  3 27  1  0  0  0  0
  4  5  1  0  0  0  0
  4 28  1  0  0  0  0
  4 29  1  0  0  0  0
  5  6  1  0  0  0  0
  5 30  1  0  0  0  0
  5 31  1  0  0  0  0
  6  7  1  0  0  0  0
  6 20  1  0  0  0  0
  6 32  1  0  0  0  0
  7  8  1  0  0  0  0
  7 33  1  0  0  0  0
  7 34  1  0  0  0  0
  8  9  1  0  0  0  0
  8 35  1  0  0  0  0
  9 10  2  0  0  0  0
  9 11  1  0  0  0  0
 11 12  1  0  0  0  0
 11 36  1  0  0  0  0
 11 37  1  0  0  0  0
 12 18  2  0  0  0  0
 12 13  1  0  0  0  0
 13 14  1  0  0  0  0
 13 15  2  0  0  0  0
 14 38  1  0  0  0  0
 14 39  1  0  0  0  0
 14 40  1  0  0  0  0
 15 16  1  0  0  0  0
 16 17  1  0  0  0  0
 16 18  1  0  0  0  0
 17 41  1  0  0  0  0
 17 42  1  0  0  0  0
 17 43  1  0  0  0  0
 18 19  1  0  0  0  0
 19 44  1  0  0  0  0
 19 45  1  0  0  0  0
 19 46  1  0  0  0  0
 20 21  1  0  0  0  0
 20 47  1  0  0  0  0
 20 48  1  0  0  0  0
 21 49  1  0  0  0  0
 21 50  1  0  0  0  0
M  END
> <s_m_source_file>
AV-unprocessed.smi

> <i_m_source_file_index>
1095

> <i_lp_mmshare_version>
43012

> <i_f3d_flags>
0

> <s_epik_input>
W0NIM11bQ0gyXVtDQEBIXTFbQ0gyXVtDSDJdW0NASF0oW0NIMl1bQ0gyXTEpW0NIMl1bTkhdQyg9TylbQ0gyXWMyYyhbQ0gzXSlubihbQ0gzXSljMltDSDNd

> <s_epik_cmdline>
J2VwaWtfcHl0aG9uJywgJy1waCcsICc3LjAnLCAnLXRuJywgJzgnLCAnLW1hJywgJzIwMCcsICctbWV0YWxfYmluZGluZycsICctaW1hZScsICc8aW5maWxlLm1hZT4nLCAnLW9tYWUnLCAnPG91dGZpbGUubWFlPic=

> <r_lp_tautomer_probability>
1

> <r_epik_Ionization_Penalty>
0.00317479

> <r_epik_Ionization_Penalty_Charging>
0

> <r_epik_Ionization_Penalty_Neutral>
0.00317479

> <r_epik_State_Penalty>
0.00223767

> <r_epik_Charging_Adjusted_Penalty>
0.00223767

> <i_epik_Tot_Q>
0

> <i_epik_Tot_abs_Q>
0

> <r_epik_Metal_State_Penalty>
-0

> <b_epik_Metal_Only>
0

> <s_lp_Force_Field>
OPLS_2005

> <r_lp_Energy>
8.21356

> <b_lp_Chiralities_Consistent>
1

> <s_lp_Variant>
AV-unprocessed.smi:1095-2

> <Gold.Version>
5.8.1

> <Gold.Id.Protein>
6NUR|6NUR_protein|mol2

> <Gold.PLP.Fitness>
49.4411

> <Gold.PLP.PLP>
-42.8368

> <Gold.PLP.part.hbond>
-3.0000

> <Gold.PLP.part.metal>
0.0000

> <Gold.PLP.part.buried>
-4.7982

> <Gold.PLP.part.nonpolar>
-36.5482

> <Gold.PLP.part.repulsive>
0.1965

> <Gold.PLP.ligand.clash>
0.0000

> <Gold.PLP.ligand.torsion>
0.8252

> <Gold.PLP.Chemscore.Hbond>
2.7360

> <Gold.PLP.Chemscore.CHOScore>
0.0000

> <Gold.PLP.Chemscore.Metal>
0.0000

> <Gold.Chemscore.Hbonds>
donor molecule, donor type, donor heavy atom, donor atom, acceptor molecule, acceptor atom, score
      L1  H     8    35       P1  8029  0.86
      P1  H  6933  6944       L1    10  0.78
      P1  H  6934  6946       L1    10  0.94

> <Gold.PLP.Chemscore.Internal.Correction>
0.0469

> <Gold.Rescore>
     Score         DG    S(hbond)    S(metal)    S(lipo)     H(rot)  DE(clash)    DE(int)     intcor
     23.09     -23.82       2.54        0.00     115.57       1.43       0.02       0.71       ----

> <Gold.Chemscore.Fitness>
23.0948

> <Gold.Chemscore.DG>
-23.8199

> <Gold.Chemscore.ZeroCoef>
-5.4800

> <Gold.Chemscore.Hbond>
2.5415

> <Gold.Chemscore.Metal>
0.0000

> <Gold.Chemscore.Lipo>
115.5679

> <Gold.Chemscore.Internal_Hbond>
0.0000

> <Gold.Chemscore.DEClash>
0.0196

> <Gold.Chemscore.DEInternal>
0.7056

> <Gold.Chemscore.Rot>
1.4336

> <Gold.Chemscore.Internal.Correction>
   9.000000E+99

> <Gold.Chemscore.Hbonds>
donor molecule, donor type, donor heavy atom, donor atom, acceptor molecule, acceptor atom, score
      L1  H     8    35       P1  8029  0.84
      P1  H  6933  6944       L1    10  0.47
      P1  H  6934  6946       L1    10  0.91

> <Gold.Chemscore.Hbond.Weighted>
-8.4885

> <Gold.Chemscore.Metal.Weighted>
-0.0000

> <Gold.Chemscore.Lipo.Weighted>
-13.5214

> <Gold.Chemscore.Internal_Hbond.Weighted>
0.0000

> <Gold.Chemscore.DEClash.Weighted>
0.0196

> <Gold.Chemscore.DEInternal.Weighted>
0.7056

> <Gold.Chemscore.Rot.Weighted>
3.6700

> <Gold.Chemscore.Internal.Correction.Weighted>
   9.000000E+99

> <Gold.Protein.RotatedTorsions>
[ 6907 6896 6895 6894 ] final -118.04 input  -60.11 | X-H torsion
[ 7974 7965 7964 7962 ] final   47.85 input  175.53 | X-H torsion
[ 8008 7997 7996 7995 ] final  -29.60 input   59.86 | X-H torsion
[ 10167 10162 10161 10158 ] final -108.27 input  -65.29 | X-H torsion
[ 10718 10713 10712 10709 ] final  143.69 input   66.30 | X-H torsion
[ 10763 10752 10751 10750 ] final  -38.56 input  -60.55 | X-H torsion
[ 11005 11000 10999 10996 ] final  129.27 input  -57.11 | X-H torsion

> <Gold.Protein.ActiveResidues>
 VAL166  LYS551  ARG553  GLY616  TRP617  ASP618  TYR619  PRO620  LYS621  CYS622 
 ASP623  PHE694  ASN695  SER759  ASP760  ASP761  ALA762  ILE779  LEU786  VAL792 
 PHE793  MET794  SER795  GLU796  ALA797  LYS798  CYS799  TRP800  GLU811  SER814 

> <Gold.Protein.RotatedAtoms>
  150.8186  133.8292  159.3148 H   0  0  0  0  0  0  0  0  0  0  0  0  # atno 6907 bound_to 6896
  151.6057  135.1042  160.0079 H   0  0  0  0  0  0  0  0  0  0  0  0  # atno 6908 bound_to 6896
  152.4276  133.7182  159.6574 H   0  0  0  0  0  0  0  0  0  0  0  0  # atno 6909 bound_to 6896
  146.0259  139.4705  142.9868 H   0  0  0  0  0  0  0  0  0  0  0  0  # atno 7974 bound_to 7965
  154.4283  140.1814  156.1274 H   0  0  0  0  0  0  0  0  0  0  0  0  # atno 8008 bound_to 7997
  156.0095  140.3352  155.6901 H   0  0  0  0  0  0  0  0  0  0  0  0  # atno 8009 bound_to 7997
  155.6131  140.0652  157.2691 H   0  0  0  0  0  0  0  0  0  0  0  0  # atno 8010 bound_to 7997
  140.1680  143.4066  152.1376 H   0  0  0  0  0  0  0  0  0  0  0  0  # atno 10167 bound_to 10162
  157.3660  131.0972  151.0872 H   0  0  0  0  0  0  0  0  0  0  0  0  # atno 10718 bound_to 10713
  153.9148  135.6788  153.4749 H   0  0  0  0  0  0  0  0  0  0  0  0  # atno 10763 bound_to 10752
  153.1059  135.4806  154.8948 H   0  0  0  0  0  0  0  0  0  0  0  0  # atno 10764 bound_to 10752
  154.7508  135.3184  154.8516 H   0  0  0  0  0  0  0  0  0  0  0  0  # atno 10765 bound_to 10752
  139.9606  134.9603  156.9124 H   0  0  0  0  0  0  0  0  0  0  0  0  # atno 11005 bound_to 11000
  145.7119  141.0103  143.1449 LP  0  0  0  0  0  0  0  0  0  0  0  0  # atno 17320 bound_to 7965
  144.7009  139.8767  143.7444 LP  0  0  0  0  0  0  0  0  0  0  0  0  # atno 17321 bound_to 7965
  139.5351  144.7201  151.4922 LP  0  0  0  0  0  0  0  0  0  0  0  0  # atno 17342 bound_to 10162
  140.6601  143.8517  150.6878 LP  0  0  0  0  0  0  0  0  0  0  0  0  # atno 17343 bound_to 10162
  157.1994  130.6387  149.5733 LP  0  0  0  0  0  0  0  0  0  0  0  0  # atno 17370 bound_to 10713
  155.9746  130.4696  150.6400 LP  0  0  0  0  0  0  0  0  0  0  0  0  # atno 17371 bound_to 10713
  140.5509  134.0628  155.7369 LP  0  0  0  0  0  0  0  0  0  0  0  0  # atno 17394 bound_to 11000
  141.1283  133.9346  157.2590 LP  0  0  0  0  0  0  0  0  0  0  0  0  # atno 17395 bound_to 11000

$$$$
