AV-unprocessed.smi:1562|AV-procd|sdf|6287|dock7
  -GOLD-   22720 6483D 1   1.00000     0.00000
 Structure written by MMmdl.
 40 41  0  0  0  0  0  0  0  0  1 V2000
  144.3559  138.4724  154.0699 N   0  0  0  0  0  0  0  0  0  0  0  0
  145.5459  138.6031  154.6617 C   0  0  0  0  0  0  0  0  0  0  0  0
  145.9480  137.8010  155.5026 O   0  0  0  0  0  0  0  0  0  0  0  0
  146.4049  139.8060  154.2488 C   0  0  0  0  0  0  0  0  0  0  0  0
  147.7203  139.3466  153.5750 C   0  0  0  0  0  0  0  0  0  0  0  0
  148.6441  140.5439  153.2867 C   0  0  0  0  0  0  0  0  0  0  0  0
  148.9047  141.2537  154.5506 N   0  0  0  0  0  0  0  0  0  0  0  0
  150.0514  141.2076  155.2754 C   0  0  0  0  0  0  0  0  0  0  0  0
  150.9200  140.3495  155.1109 O   0  0  0  0  0  0  0  0  0  0  0  0
  150.1595  142.1564  156.2196 N   0  0  0  0  0  0  0  0  0  0  0  0
  151.2908  142.2958  157.1263 C   0  0  0  0  0  0  0  0  0  0  0  0
  150.8658  143.0026  158.4211 C   0  0  0  0  0  0  0  0  0  0  0  0
  151.7913  142.6819  159.5802 C   0  0  0  0  0  0  0  0  0  0  0  0
  152.8874  141.8093  159.4086 C   0  0  0  0  0  0  0  0  0  0  0  0
  153.7095  141.5382  160.5198 C   0  0  0  0  0  0  0  0  0  0  0  0
  153.4054  142.1461  161.7533 C   0  0  0  0  0  0  0  0  0  0  0  0
  152.2879  143.0020  161.8208 C   0  0  0  0  0  0  0  0  0  0  0  0
  151.4939  143.2692  160.7614 N   0  0  0  0  0  0  0  0  0  0  0  0
  147.6736  141.8497  155.0843 C   0  0  0  0  0  0  0  0  0  0  0  0
  146.6971  140.7206  155.4618 C   0  0  0  0  0  0  0  0  0  0  0  0
  143.7583  137.6963  154.3150 H   0  0  0  0  0  0  0  0  0  0  0  0
  144.0560  139.1490  153.3831 H   0  0  0  0  0  0  0  0  0  0  0  0
  145.8472  140.3943  153.5177 H   0  0  0  0  0  0  0  0  0  0  0  0
  148.2477  138.6356  154.2133 H   0  0  0  0  0  0  0  0  0  0  0  0
  147.5001  138.8217  152.6446 H   0  0  0  0  0  0  0  0  0  0  0  0
  149.5446  140.2011  152.7771 H   0  0  0  0  0  0  0  0  0  0  0  0
  148.1602  141.2259  152.5862 H   0  0  0  0  0  0  0  0  0  0  0  0
  149.4087  142.8252  156.3118 H   0  0  0  0  0  0  0  0  0  0  0  0
  151.6975  141.3094  157.3562 H   0  0  0  0  0  0  0  0  0  0  0  0
  152.0792  142.8632  156.6296 H   0  0  0  0  0  0  0  0  0  0  0  0
  150.8437  144.0822  158.2670 H   0  0  0  0  0  0  0  0  0  0  0  0
  149.8493  142.7106  158.6899 H   0  0  0  0  0  0  0  0  0  0  0  0
  153.0935  141.3557  158.4503 H   0  0  0  0  0  0  0  0  0  0  0  0
  154.5573  140.8752  160.4278 H   0  0  0  0  0  0  0  0  0  0  0  0
  154.0128  141.9608  162.6270 H   0  0  0  0  0  0  0  0  0  0  0  0
  152.0245  143.4842  162.7505 H   0  0  0  0  0  0  0  0  0  0  0  0
  147.8566  142.4900  155.9485 H   0  0  0  0  0  0  0  0  0  0  0  0
  147.2263  142.4972  154.3288 H   0  0  0  0  0  0  0  0  0  0  0  0
  145.7682  141.1506  155.8384 H   0  0  0  0  0  0  0  0  0  0  0  0
  147.1229  140.1404  156.2825 H   0  0  0  0  0  0  0  0  0  0  0  0
  1  2  1  0  0  0  0
  1 21  1  0  0  0  0
  1 22  1  0  0  0  0
  2  3  2  0  0  0  0
  2  4  1  0  0  0  0
  4 20  1  0  0  0  0
  4  5  1  0  0  0  0
  4 23  1  0  0  0  0
  5  6  1  0  0  0  0
  5 24  1  0  0  0  0
  5 25  1  0  0  0  0
  6  7  1  0  0  0  0
  6 26  1  0  0  0  0
  6 27  1  0  0  0  0
  7  8  1  0  0  0  0
  7 19  1  0  0  0  0
  8  9  2  0  0  0  0
  8 10  1  0  0  0  0
 10 11  1  0  0  0  0
 10 28  1  0  0  0  0
 11 12  1  0  0  0  0
 11 29  1  0  0  0  0
 11 30  1  0  0  0  0
 12 13  1  0  0  0  0
 12 31  1  0  0  0  0
 12 32  1  0  0  0  0
 13 18  1  0  0  0  0
 13 14  2  0  0  0  0
 14 15  1  0  0  0  0
 14 33  1  0  0  0  0
 15 16  2  0  0  0  0
 15 34  1  0  0  0  0
 16 17  1  0  0  0  0
 16 35  1  0  0  0  0
 17 18  2  0  0  0  0
 17 36  1  0  0  0  0
 19 20  1  0  0  0  0
 19 37  1  0  0  0  0
 19 38  1  0  0  0  0
 20 39  1  0  0  0  0
 20 40  1  0  0  0  0
M  END
> <s_m_source_file>
AV-unprocessed.smi

> <i_m_source_file_index>
1562

> <i_lp_mmshare_version>
43012

> <i_f3d_flags>
0

> <s_epik_input>
W05IMl1DKD1PKVtDSF0xW0NIMl1bQ0gyXU4oW0NIMl1bQ0gyXTEpQyg9TylbTkhdW0NIMl1bQ0gyXWMyW2NIXVtjSF1bY0hdW2NIXW4y

> <s_epik_cmdline>
J2VwaWtfcHl0aG9uJywgJy1waCcsICc3LjAnLCAnLXRuJywgJzgnLCAnLW1hJywgJzIwMCcsICctbWV0YWxfYmluZGluZycsICctaW1hZScsICc8aW5maWxlLm1hZT4nLCAnLW9tYWUnLCAnPG91dGZpbGUubWFlPic=

> <r_epik_Ionization_Penalty>
0.0445602

> <r_epik_Ionization_Penalty_Charging>
0

> <r_epik_Ionization_Penalty_Neutral>
0.0445602

> <r_epik_State_Penalty>
0.0377204

> <r_epik_Charging_Adjusted_Penalty>
0.0377204

> <i_epik_Tot_Q>
0

> <i_epik_Tot_abs_Q>
0

> <r_epik_Metal_State_Penalty>
0.0350723

> <b_epik_Metal_Only>
0

> <s_lp_Force_Field>
OPLS_2005

> <r_lp_Energy>
26.805

> <b_lp_Chiralities_Consistent>
1

> <s_lp_Variant>
AV-unprocessed.smi:1562-1

> <Gold.Version>
5.8.1

> <Gold.Id.Protein>
6NUR|6NUR_protein|mol2

> <Gold.PLP.Fitness>
44.7515

> <Gold.PLP.PLP>
-37.2568

> <Gold.PLP.part.hbond>
-3.4393

> <Gold.PLP.part.metal>
0.0000

> <Gold.PLP.part.buried>
0.8706

> <Gold.PLP.part.nonpolar>
-34.2893

> <Gold.PLP.part.repulsive>
0.2619

> <Gold.PLP.ligand.clash>
0.0002

> <Gold.PLP.ligand.torsion>
0.5075

> <Gold.PLP.Chemscore.Hbond>
2.8160

> <Gold.PLP.Chemscore.CHOScore>
0.0000

> <Gold.PLP.Chemscore.Metal>
0.0000

> <Gold.Chemscore.Hbonds>
donor molecule, donor type, donor heavy atom, donor atom, acceptor molecule, acceptor atom, score
      L1  H     1    22       P1 10175  1.00
      L1  H    10    28       P1  8028  0.72
      P1  H  7989  7998       L1     9  1.00

> <Gold.PLP.Chemscore.Internal.Correction>
0.0619

> <Gold.Rescore>
     Score         DG    S(hbond)    S(metal)    S(lipo)     H(rot)  DE(clash)    DE(int)     intcor
     18.29     -20.77       2.52        0.00     101.28       1.95       1.93       0.55       ----

> <Gold.Chemscore.Fitness>
18.2939

> <Gold.Chemscore.DG>
-20.7724

> <Gold.Chemscore.ZeroCoef>
-5.4800

> <Gold.Chemscore.Hbond>
2.5246

> <Gold.Chemscore.Metal>
0.0000

> <Gold.Chemscore.Lipo>
101.2847

> <Gold.Chemscore.Internal_Hbond>
0.0000

> <Gold.Chemscore.DEClash>
1.9308

> <Gold.Chemscore.DEInternal>
0.5477

> <Gold.Chemscore.Rot>
1.9492

> <Gold.Chemscore.Internal.Correction>
   9.000000E+99

> <Gold.Chemscore.Hbonds>
donor molecule, donor type, donor heavy atom, donor atom, acceptor molecule, acceptor atom, score
      L1  H     1    22       P1 10175  1.00
      L1  H    10    28       P1  8028  0.69
      P1  H  7989  7998       L1     9  0.29

> <Gold.Chemscore.Hbond.Weighted>
-8.4320

> <Gold.Chemscore.Metal.Weighted>
-0.0000

> <Gold.Chemscore.Lipo.Weighted>
-11.8503

> <Gold.Chemscore.Internal_Hbond.Weighted>
0.0000

> <Gold.Chemscore.DEClash.Weighted>
1.9308

> <Gold.Chemscore.DEInternal.Weighted>
0.5477

> <Gold.Chemscore.Rot.Weighted>
4.9900

> <Gold.Chemscore.Internal.Correction.Weighted>
   9.000000E+99

> <Gold.Protein.RotatedTorsions>
[ 6907 6896 6895 6894 ] final  154.18 input  -60.11 | X-H torsion
[ 7974 7965 7964 7962 ] final   52.61 input  175.53 | X-H torsion
[ 8008 7997 7996 7995 ] final   13.86 input   59.86 | X-H torsion
[ 10167 10162 10161 10158 ] final    5.87 input  -65.29 | X-H torsion
[ 10718 10713 10712 10709 ] final  143.78 input   66.30 | X-H torsion
[ 10763 10752 10751 10750 ] final  -77.23 input  -60.55 | X-H torsion
[ 11005 11000 10999 10996 ] final  -73.71 input  -57.11 | X-H torsion

> <Gold.Protein.ActiveResidues>
 VAL166  LYS551  ARG553  GLY616  TRP617  ASP618  TYR619  PRO620  LYS621  CYS622 
 ASP623  PHE694  ASN695  SER759  ASP760  ASP761  ALA762  ILE779  LEU786  VAL792 
 PHE793  MET794  SER795  GLU796  ALA797  LYS798  CYS799  TRP800  GLU811  SER814 

> <Gold.Protein.RotatedAtoms>
  152.0622  133.4067  159.4422 H   0  0  0  0  0  0  0  0  0  0  0  0  # atno 6907 bound_to 6896
  150.6866  134.3187  159.4786 H   0  0  0  0  0  0  0  0  0  0  0  0  # atno 6908 bound_to 6896
  152.1010  134.9341  160.0620 H   0  0  0  0  0  0  0  0  0  0  0  0  # atno 6909 bound_to 6896
  145.9796  139.4229  143.0140 H   0  0  0  0  0  0  0  0  0  0  0  0  # atno 7974 bound_to 7965
  154.8403  140.2913  155.5664 H   0  0  0  0  0  0  0  0  0  0  0  0  # atno 8008 bound_to 7997
  156.3011  140.2515  156.3276 H   0  0  0  0  0  0  0  0  0  0  0  0  # atno 8009 bound_to 7997
  154.9133  140.0388  157.1947 H   0  0  0  0  0  0  0  0  0  0  0  0  # atno 8010 bound_to 7997
  140.6459  143.7664  150.7498 H   0  0  0  0  0  0  0  0  0  0  0  0  # atno 10167 bound_to 10162
  157.3649  131.0970  151.0881 H   0  0  0  0  0  0  0  0  0  0  0  0  # atno 10718 bound_to 10713
  154.5102  135.5771  153.6599 H   0  0  0  0  0  0  0  0  0  0  0  0  # atno 10763 bound_to 10752
  152.9895  135.6157  154.2888 H   0  0  0  0  0  0  0  0  0  0  0  0  # atno 10764 bound_to 10752
  154.2802  135.2851  155.2680 H   0  0  0  0  0  0  0  0  0  0  0  0  # atno 10765 bound_to 10752
  141.1626  133.6887  156.7253 H   0  0  0  0  0  0  0  0  0  0  0  0  # atno 11005 bound_to 11000
  145.7788  140.9865  143.1110 LP  0  0  0  0  0  0  0  0  0  0  0  0  # atno 17320 bound_to 7965
  144.6858  139.9539  143.7478 LP  0  0  0  0  0  0  0  0  0  0  0  0  # atno 17321 bound_to 7965
  140.1305  143.4530  152.2257 LP  0  0  0  0  0  0  0  0  0  0  0  0  # atno 17342 bound_to 10162
  139.5669  144.7440  151.3997 LP  0  0  0  0  0  0  0  0  0  0  0  0  # atno 17343 bound_to 10162
  157.2007  130.6393  149.5737 LP  0  0  0  0  0  0  0  0  0  0  0  0  # atno 17370 bound_to 10713
  155.9744  130.4692  150.6386 LP  0  0  0  0  0  0  0  0  0  0  0  0  # atno 17371 bound_to 10713
  140.2785  134.8335  157.3912 LP  0  0  0  0  0  0  0  0  0  0  0  0  # atno 17394 bound_to 11000
  140.1455  134.4917  155.8000 LP  0  0  0  0  0  0  0  0  0  0  0  0  # atno 17395 bound_to 11000

$$$$
