AV-unprocessed.smi:1875|AV-procd|sdf|7616|dock5
  -GOLD-   22720 9343D 1   1.00000     0.00000
 Structure written by MMmdl.
 49 51  0  0  0  0  0  0  0  0  3 V2000
  145.4766  134.2027  153.6185 C   0  0  0  0  0  0  0  0  0  0  0  0
  146.9276  133.7759  153.6946 C   0  0  0  0  0  0  0  0  0  0  0  0
  147.2598  132.6422  153.0699 N   0  0  0  0  0  0  0  0  0  0  0  0
  148.5539  132.2610  153.1391 C   0  0  0  0  0  0  0  0  0  0  0  0
  149.5158  133.0269  153.8287 C   0  0  0  0  0  0  0  0  0  0  0  0
  149.0479  134.2050  154.4474 C   0  0  0  0  0  0  0  0  0  0  0  0
  149.9887  135.1253  155.2031 C   0  0  0  0  0  0  0  0  0  0  0  0
  149.9397  136.5082  154.6833 N   0  3  0  0  0  0  0  0  0  0  0  0
  151.0872  137.3578  155.0692 C   0  0  0  0  0  0  0  0  0  0  0  0
  150.6932  138.8448  155.1337 C   0  0  2  0  0  0  0  0  0  0  0  0
  150.3751  139.2944  153.8329 O   0  0  0  0  0  0  0  0  0  0  0  0
  151.8094  139.7554  155.6869 C   0  0  0  0  0  0  0  0  0  0  0  0
  151.3013  140.9929  156.2942 N   0  0  0  0  0  0  0  0  0  0  0  0
  150.3780  141.8823  155.8347 C   0  0  0  0  0  0  0  0  0  0  0  0
  150.2570  142.8668  156.7678 N   0  3  0  0  0  0  0  0  0  0  0  0
  151.1059  142.5966  157.8434 C   0  0  0  0  0  0  0  0  0  0  0  0
  151.3319  143.2950  159.0234 C   0  0  0  0  0  0  0  0  0  0  0  0
  152.2664  142.7447  159.9297 C   0  0  0  0  0  0  0  0  0  0  0  0
  152.5345  143.4824  161.2304 C   0  0  0  0  0  0  0  0  0  0  0  0
  152.9403  141.5305  159.6370 C   0  0  0  0  0  0  0  0  0  0  0  0
  153.9398  140.9463  160.6210 C   0  0  0  0  0  0  0  0  0  0  0  0
  152.6991  140.8370  158.4291 C   0  0  0  0  0  0  0  0  0  0  0  0
  151.7753  141.3933  157.5479 C   0  0  0  0  0  0  0  0  0  0  0  0
  147.7500  134.5775  154.3782 N   0  0  0  0  0  0  0  0  0  0  0  0
  144.9092  133.5710  152.9335 H   0  0  0  0  0  0  0  0  0  0  0  0
  145.4008  135.2330  153.2700 H   0  0  0  0  0  0  0  0  0  0  0  0
  145.0134  134.1376  154.6035 H   0  0  0  0  0  0  0  0  0  0  0  0
  148.8244  131.3436  152.6378 H   0  0  0  0  0  0  0  0  0  0  0  0
  150.5510  132.7222  153.8782 H   0  0  0  0  0  0  0  0  0  0  0  0
  149.7604  135.1175  156.2701 H   0  0  0  0  0  0  0  0  0  0  0  0
  151.0072  134.7509  155.0976 H   0  0  0  0  0  0  0  0  0  0  0  0
  149.9141  136.4649  153.6746 H   0  0  0  0  0  0  0  0  0  0  0  0
  151.4364  137.0342  156.0487 H   0  0  0  0  0  0  0  0  0  0  0  0
  151.9117  137.2086  154.3707 H   0  0  0  0  0  0  0  0  0  0  0  0
  149.8024  138.9530  155.7535 H   0  0  0  0  0  0  0  0  0  0  0  0
  150.6756  138.6535  153.2062 H   0  0  0  0  0  0  0  0  0  0  0  0
  152.3797  139.2300  156.4545 H   0  0  0  0  0  0  0  0  0  0  0  0
  152.5198  140.0251  154.9039 H   0  0  0  0  0  0  0  0  0  0  0  0
  149.8419  141.8222  154.8982 H   0  0  0  0  0  0  0  0  0  0  0  0
  150.8142  144.2180  159.2412 H   0  0  0  0  0  0  0  0  0  0  0  0
  152.2757  142.8574  162.0854 H   0  0  0  0  0  0  0  0  0  0  0  0
  151.9469  144.3985  161.2971 H   0  0  0  0  0  0  0  0  0  0  0  0
  153.5873  143.7562  161.3060 H   0  0  0  0  0  0  0  0  0  0  0  0
  154.3536  140.0047  160.2590 H   0  0  0  0  0  0  0  0  0  0  0  0
  153.4630  140.7512  161.5819 H   0  0  0  0  0  0  0  0  0  0  0  0
  154.7689  141.6364  160.7792 H   0  0  0  0  0  0  0  0  0  0  0  0
  153.2112  139.9122  158.2066 H   0  0  0  0  0  0  0  0  0  0  0  0
  149.0875  136.9426  155.0073 H   0  0  0  0  0  0  0  0  0  0  0  0
  149.6340  143.6597  156.6791 H   0  0  0  0  0  0  0  0  0  0  0  0
  1  2  1  0  0  0  0
  1 25  1  0  0  0  0
  1 26  1  0  0  0  0
  1 27  1  0  0  0  0
  2 24  1  0  0  0  0
  2  3  2  0  0  0  0
  3  4  1  0  0  0  0
  4  5  2  0  0  0  0
  4 28  1  0  0  0  0
  5  6  1  0  0  0  0
  5 29  1  0  0  0  0
  6  7  1  0  0  0  0
  6 24  2  0  0  0  0
  7  8  1  0  0  0  0
  7 30  1  0  0  0  0
  7 31  1  0  0  0  0
  8  9  1  0  0  0  0
  8 32  1  0  0  0  0
  8 48  1  0  0  0  0
  9 10  1  0  0  0  0
  9 33  1  0  0  0  0
  9 34  1  0  0  0  0
 10 11  1  0  0  0  0
 10 12  1  0  0  0  0
 10 35  1  0  0  0  0
 11 36  1  0  0  0  0
 12 13  1  0  0  0  0
 12 37  1  0  0  0  0
 12 38  1  0  0  0  0
 13 23  1  0  0  0  0
 13 14  1  0  0  0  0
 14 15  2  0  0  0  0
 14 39  1  0  0  0  0
 15 16  1  0  0  0  0
 15 49  1  0  0  0  0
 16 23  2  0  0  0  0
 16 17  1  0  0  0  0
 17 18  2  0  0  0  0
 17 40  1  0  0  0  0
 18 19  1  0  0  0  0
 18 20  1  0  0  0  0
 19 41  1  0  0  0  0
 19 42  1  0  0  0  0
 19 43  1  0  0  0  0
 20 21  1  0  0  0  0
 20 22  2  0  0  0  0
 21 44  1  0  0  0  0
 21 45  1  0  0  0  0
 21 46  1  0  0  0  0
 22 23  1  0  0  0  0
 22 47  1  0  0  0  0
M  CHG  1   8   1
M  CHG  1  15   1
M  END
> <s_m_source_file>
AV-unprocessed.smi

> <i_m_source_file_index>
1875

> <i_lp_mmshare_version>
43012

> <i_f3d_flags>
0

> <s_epik_input>
W0NIM11jMW5bY0hdW2NIXWMobjEpW0NIMl1bTkhdW0NIMl1bQ0BIXShbT0hdKVtDSDJdbihbY0hdbjIpYyhjMjMpW2NIXWMoW0NIM10pYyhbY0hdMylbQ0gzXQ==

> <s_epik_cmdline>
J2VwaWtfcHl0aG9uJywgJy1waCcsICc3LjAnLCAnLXRuJywgJzgnLCAnLW1hJywgJzIwMCcsICctbWV0YWxfYmluZGluZycsICctaW1hZScsICc8aW5maWxlLm1hZT4nLCAnLW9tYWUnLCAnPG91dGZpbGUubWFlPic=

> <r_lp_tautomer_probability>
1

> <r_epik_Ionization_Penalty>
1.27527

> <r_epik_Ionization_Penalty_Charging>
1.27526

> <r_epik_Ionization_Penalty_Neutral>
8.72389e-06

> <r_epik_State_Penalty>
1.28654

> <r_epik_Charging_Adjusted_Penalty>
2.5618

> <i_epik_Tot_Q>
2

> <i_epik_Tot_abs_Q>
2

> <r_epik_Metal_State_Penalty>
1.36882

> <b_epik_Metal_Only>
0

> <s_epik_Chemistry_Notes>
This compound contains an electron-poor aromatic ring that is susceptible to covalent hydrolysis at low pH, typically resulting in measured values for nitrogen ring protonation that are around two units higher than predicted values.

> <s_lp_Force_Field>
OPLS_2005

> <r_lp_Energy>
13.455

> <b_lp_Chiralities_Consistent>
1

> <s_lp_Variant>
AV-unprocessed.smi:1875-5

> <Gold.Version>
5.8.1

> <Gold.Id.Protein>
6NUR|6NUR_protein|mol2

> <Gold.PLP.Fitness>
65.4922

> <Gold.PLP.PLP>
-48.7757

> <Gold.PLP.part.hbond>
-3.9866

> <Gold.PLP.part.metal>
0.0000

> <Gold.PLP.part.buried>
-4.5381

> <Gold.PLP.part.nonpolar>
-39.3907

> <Gold.PLP.part.repulsive>
0.3087

> <Gold.PLP.ligand.clash>
0.0000

> <Gold.PLP.ligand.torsion>
0.7098

> <Gold.PLP.Chemscore.Hbond>
5.0000

> <Gold.PLP.Chemscore.CHOScore>
1.0000

> <Gold.PLP.Chemscore.Metal>
0.0000

> <Gold.Chemscore.Hbonds>
donor molecule, donor type, donor heavy atom, donor atom, acceptor molecule, acceptor atom, score
      L1  H     8    32       P1  7948  2.00
      L1  H    15    49       P1  8028  1.92
      P1  H  7989  7998       L1    11  1.00
      L1  C     4    28       P1 10747  1.00

> <Gold.PLP.Chemscore.Internal.Correction>
0.1361

> <Gold.Rescore>
     Score         DG    S(hbond)    S(metal)    S(lipo)     H(rot)  DE(clash)    DE(int)     intcor
     18.33     -19.08       2.11        0.00     119.22       2.88       0.09       0.65       ----

> <Gold.Chemscore.Fitness>
18.3323

> <Gold.Chemscore.DG>
-19.0782

> <Gold.Chemscore.ZeroCoef>
-5.4800

> <Gold.Chemscore.Hbond>
2.1053

> <Gold.Chemscore.Metal>
0.0000

> <Gold.Chemscore.Lipo>
119.2219

> <Gold.Chemscore.Internal_Hbond>
0.0000

> <Gold.Chemscore.DEClash>
0.0939

> <Gold.Chemscore.DEInternal>
0.6521

> <Gold.Chemscore.Rot>
2.8838

> <Gold.Chemscore.Internal.Correction>
   9.000000E+99

> <Gold.Chemscore.Hbonds>
donor molecule, donor type, donor heavy atom, donor atom, acceptor molecule, acceptor atom, score
      L1  H     8    32       P1  7948  0.23
      L1  H    15    49       P1  8028  0.91
      P1  H  7989  7998       L1    11  0.17

> <Gold.Chemscore.Hbond.Weighted>
-7.0317

> <Gold.Chemscore.Metal.Weighted>
-0.0000

> <Gold.Chemscore.Lipo.Weighted>
-13.9490

> <Gold.Chemscore.Internal_Hbond.Weighted>
0.0000

> <Gold.Chemscore.DEClash.Weighted>
0.0939

> <Gold.Chemscore.DEInternal.Weighted>
0.6521

> <Gold.Chemscore.Rot.Weighted>
7.3824

> <Gold.Chemscore.Internal.Correction.Weighted>
   9.000000E+99

> <Gold.Protein.RotatedTorsions>
[ 6907 6896 6895 6894 ] final  177.82 input  -60.11 | X-H torsion
[ 7974 7965 7964 7962 ] final -112.38 input  175.53 | X-H torsion
[ 8008 7997 7996 7995 ] final  141.48 input   59.86 | X-H torsion
[ 10167 10162 10161 10158 ] final  -45.07 input  -65.29 | X-H torsion
[ 10718 10713 10712 10709 ] final  -15.07 input   66.30 | X-H torsion
[ 10763 10752 10751 10750 ] final -147.68 input  -60.55 | X-H torsion
[ 11005 11000 10999 10996 ] final   33.78 input  -57.11 | X-H torsion

> <Gold.Protein.ActiveResidues>
 VAL166  LYS551  ARG553  GLY616  TRP617  ASP618  TYR619  PRO620  LYS621  CYS622 
 ASP623  PHE694  ASN695  SER759  ASP760  ASP761  ALA762  ILE779  LEU786  VAL792 
 PHE793  MET794  SER795  GLU796  ALA797  LYS798  CYS799  TRP800  GLU811  SER814 

> <Gold.Protein.RotatedAtoms>
  151.6979  133.3311  159.3258 H   0  0  0  0  0  0  0  0  0  0  0  0  # atno 6907 bound_to 6896
  150.7749  134.6641  159.6365 H   0  0  0  0  0  0  0  0  0  0  0  0  # atno 6908 bound_to 6896
  152.3788  134.6626  160.0202 H   0  0  0  0  0  0  0  0  0  0  0  0  # atno 6909 bound_to 6896
  145.1447  140.8797  143.3681 H   0  0  0  0  0  0  0  0  0  0  0  0  # atno 7974 bound_to 7965
  156.2965  140.2314  156.4572 H   0  0  0  0  0  0  0  0  0  0  0  0  # atno 8008 bound_to 7997
  154.8050  140.0446  157.1322 H   0  0  0  0  0  0  0  0  0  0  0  0  # atno 8009 bound_to 7997
  154.9489  140.3039  155.5088 H   0  0  0  0  0  0  0  0  0  0  0  0  # atno 8010 bound_to 7997
  140.6872  143.2898  151.3587 H   0  0  0  0  0  0  0  0  0  0  0  0  # atno 10167 bound_to 10162
  156.6069  130.4839  149.6217 H   0  0  0  0  0  0  0  0  0  0  0  0  # atno 10718 bound_to 10713
  154.8273  135.3354  154.6855 H   0  0  0  0  0  0  0  0  0  0  0  0  # atno 10763 bound_to 10752
  153.7480  135.6941  153.4956 H   0  0  0  0  0  0  0  0  0  0  0  0  # atno 10764 bound_to 10752
  153.2197  135.4453  155.0425 H   0  0  0  0  0  0  0  0  0  0  0  0  # atno 10765 bound_to 10752
  140.2596  134.3208  155.7862 H   0  0  0  0  0  0  0  0  0  0  0  0  # atno 11005 bound_to 11000
  145.0495  139.3193  143.5936 LP  0  0  0  0  0  0  0  0  0  0  0  0  # atno 17320 bound_to 7965
  146.3501  139.9898  142.8687 LP  0  0  0  0  0  0  0  0  0  0  0  0  # atno 17321 bound_to 7965
  139.6241  144.0848  152.2418 LP  0  0  0  0  0  0  0  0  0  0  0  0  # atno 17342 bound_to 10162
  140.0302  144.6086  150.7494 LP  0  0  0  0  0  0  0  0  0  0  0  0  # atno 17343 bound_to 10162
  156.2422  130.6858  151.1566 LP  0  0  0  0  0  0  0  0  0  0  0  0  # atno 17370 bound_to 10713
  157.7264  131.0646  150.5909 LP  0  0  0  0  0  0  0  0  0  0  0  0  # atno 17371 bound_to 10713
  141.2192  133.7401  156.9166 LP  0  0  0  0  0  0  0  0  0  0  0  0  # atno 17394 bound_to 11000
  140.1478  134.9251  157.2552 LP  0  0  0  0  0  0  0  0  0  0  0  0  # atno 17395 bound_to 11000

$$$$
