AV-unprocessed.smi:99|AV-procd|sdf|880|dock2
  -GOLD-   2262017353D 1   1.00000     0.00000
 Structure written by MMmdl.
 53 56  0  0  0  0  0  0  0  0  1 V2000
  149.5341  132.7451  158.2596 O   0  0  0  0  0  0  0  0  0  0  0  0
  148.3683  133.1405  158.2039 C   0  0  0  0  0  0  0  0  0  0  0  0
  147.6845  133.2916  157.0535 O   0  0  0  0  0  0  0  0  0  0  0  0
  148.2308  132.8411  155.8245 C   0  0  0  0  0  0  0  0  0  0  0  0
  147.4570  133.4904  154.6703 C   0  0  1  0  0  0  0  0  0  0  0  0
  146.1823  132.8698  154.5308 O   0  0  0  0  0  0  0  0  0  0  0  0
  145.2724  133.7621  153.9487 C   0  0  2  0  0  0  0  0  0  0  0  0
  144.8600  133.2434  152.5851 N   0  0  0  0  0  0  0  0  0  0  0  0
  145.4609  132.1352  152.0002 C   0  0  0  0  0  0  0  0  0  0  0  0
  145.1064  131.6613  150.7823 C   0  0  0  0  0  0  0  0  0  0  0  0
  144.0528  132.3130  150.0108 C   0  0  0  0  0  0  0  0  0  0  0  0
  143.6610  131.9547  148.9025 O   0  0  0  0  0  0  0  0  0  0  0  0
  143.4843  133.4286  150.6322 N   0  0  0  0  0  0  0  0  0  0  0  0
  143.8439  133.9286  151.8846 C   0  0  0  0  0  0  0  0  0  0  0  0
  143.2886  134.9309  152.3328 O   0  0  0  0  0  0  0  0  0  0  0  0
  145.9550  135.1489  153.8881 C   0  0  2  0  0  0  0  0  0  0  0  0
  146.4581  135.4568  152.5960 O   0  0  0  0  0  0  0  0  0  0  0  0
  147.0784  134.9539  154.8941 C   0  0  2  0  0  0  0  0  0  0  0  0
  148.1398  135.8853  154.7003 O   0  0  0  0  0  0  0  0  0  0  0  0
  147.9988  137.1891  155.0256 C   0  0  0  0  0  0  0  0  0  0  0  0
  146.9296  137.7013  155.3625 O   0  0  0  0  0  0  0  0  0  0  0  0
  149.2863  137.9385  154.9761 C   0  0  0  0  0  0  0  0  0  0  0  0
  149.2962  139.3192  155.2829 C   0  0  0  0  0  0  0  0  0  0  0  0
  150.5015  140.0474  155.2714 C   0  0  0  0  0  0  0  0  0  0  0  0
  151.7106  139.4046  154.9484 C   0  0  0  0  0  0  0  0  0  0  0  0
  151.7134  138.0326  154.6368 C   0  0  0  0  0  0  0  0  0  0  0  0
  150.5093  137.3019  154.6508 C   0  0  0  0  0  0  0  0  0  0  0  0
  147.5516  133.4754  159.4062 C   0  0  0  0  0  0  0  0  0  0  0  0
  148.1094  133.3019  160.6943 C   0  0  0  0  0  0  0  0  0  0  0  0
  147.3518  133.5840  161.8477 C   0  0  0  0  0  0  0  0  0  0  0  0
  146.0277  134.0447  161.7272 C   0  0  0  0  0  0  0  0  0  0  0  0
  145.4632  134.2274  160.4514 C   0  0  0  0  0  0  0  0  0  0  0  0
  146.2199  133.9475  159.2972 C   0  0  0  0  0  0  0  0  0  0  0  0
  142.7549  133.9149  150.1309 H   0  0  0  0  0  0  0  0  0  0  0  0
  149.2828  133.1249  155.7821 H   0  0  0  0  0  0  0  0  0  0  0  0
  148.1787  131.7545  155.7418 H   0  0  0  0  0  0  0  0  0  0  0  0
  148.0041  133.3760  153.7329 H   0  0  0  0  0  0  0  0  0  0  0  0
  144.3726  133.7499  154.5669 H   0  0  0  0  0  0  0  0  0  0  0  0
  146.2519  131.6152  152.5190 H   0  0  0  0  0  0  0  0  0  0  0  0
  145.6067  130.7946  150.3748 H   0  0  0  0  0  0  0  0  0  0  0  0
  145.2549  135.9266  154.1948 H   0  0  0  0  0  0  0  0  0  0  0  0
  147.3741  135.6751  152.6778 H   0  0  0  0  0  0  0  0  0  0  0  0
  146.6442  135.0519  155.8903 H   0  0  0  0  0  0  0  0  0  0  0  0
  148.3812  139.8324  155.5414 H   0  0  0  0  0  0  0  0  0  0  0  0
  150.4980  141.0997  155.5143 H   0  0  0  0  0  0  0  0  0  0  0  0
  152.6352  139.9630  154.9407 H   0  0  0  0  0  0  0  0  0  0  0  0
  152.6409  137.5381  154.3884 H   0  0  0  0  0  0  0  0  0  0  0  0
  150.5466  136.2494  154.4105 H   0  0  0  0  0  0  0  0  0  0  0  0
  149.1217  132.9422  160.8118 H   0  0  0  0  0  0  0  0  0  0  0  0
  147.7872  133.4434  162.8262 H   0  0  0  0  0  0  0  0  0  0  0  0
  145.4455  134.2567  162.6118 H   0  0  0  0  0  0  0  0  0  0  0  0
  144.4457  134.5770  160.3564 H   0  0  0  0  0  0  0  0  0  0  0  0
  145.7524  134.0918  158.3339 H   0  0  0  0  0  0  0  0  0  0  0  0
  1  2  2  0  0  0  0
  2  3  1  0  0  0  0
  2 28  1  0  0  0  0
  3  4  1  0  0  0  0
  4  5  1  0  0  0  0
  4 35  1  0  0  0  0
  4 36  1  0  0  0  0
  5 18  1  0  0  0  0
  5  6  1  0  0  0  0
  5 37  1  0  0  0  0
  6  7  1  0  0  0  0
  7  8  1  0  0  0  0
  7 16  1  0  0  0  0
  7 38  1  0  0  0  0
  8 14  1  0  0  0  0
  8  9  1  0  0  0  0
  9 10  2  0  0  0  0
  9 39  1  0  0  0  0
 10 11  1  0  0  0  0
 10 40  1  0  0  0  0
 11 12  2  0  0  0  0
 11 13  1  0  0  0  0
 13 34  1  0  0  0  0
 13 14  1  0  0  0  0
 14 15  2  0  0  0  0
 16 17  1  0  0  0  0
 16 18  1  0  0  0  0
 16 41  1  0  0  0  0
 17 42  1  0  0  0  0
 18 19  1  0  0  0  0
 18 43  1  0  0  0  0
 19 20  1  0  0  0  0
 20 21  2  0  0  0  0
 20 22  1  0  0  0  0
 22 27  1  0  0  0  0
 22 23  2  0  0  0  0
 23 24  1  0  0  0  0
 23 44  1  0  0  0  0
 24 25  2  0  0  0  0
 24 45  1  0  0  0  0
 25 26  1  0  0  0  0
 25 46  1  0  0  0  0
 26 27  2  0  0  0  0
 26 47  1  0  0  0  0
 27 48  1  0  0  0  0
 28 33  1  0  0  0  0
 28 29  2  0  0  0  0
 29 30  1  0  0  0  0
 29 49  1  0  0  0  0
 30 31  2  0  0  0  0
 30 50  1  0  0  0  0
 31 32  1  0  0  0  0
 31 51  1  0  0  0  0
 32 33  2  0  0  0  0
 32 52  1  0  0  0  0
 33 53  1  0  0  0  0
M  END
> <s_m_source_file>
AV-unprocessed.smi

> <i_m_source_file_index>
99

> <i_lp_mmshare_version>
43012

> <i_f3d_flags>
0

> <s_epik_input>
W2NIXTFbY0hdW2NIXVtjSF1bY0hdYzFDKD1PKU9bQ0gyXVtDQEBIXTJPW0NAQEhdKG4zW2NIXVtjSF1jKD1PKVtuSF1jMz1PKVtDQEBIXShbT0hdKVtDQEhdMk9DKD1PKWM0W2NIXVtjSF1bY0hdW2NIXVtjSF00

> <s_epik_cmdline>
J2VwaWtfcHl0aG9uJywgJy1waCcsICc3LjAnLCAnLXRuJywgJzgnLCAnLW1hJywgJzIwMCcsICctbWV0YWxfYmluZGluZycsICctaW1hZScsICc8aW5maWxlLm1hZT4nLCAnLW9tYWUnLCAnPG91dGZpbGUubWFlPic=

> <r_lp_tautomer_probability>
1

> <r_epik_Ionization_Penalty>
0.00454555

> <r_epik_Ionization_Penalty_Charging>
0.0045191

> <r_epik_Ionization_Penalty_Neutral>
2.64449e-05

> <r_epik_State_Penalty>
-0

> <r_epik_Charging_Adjusted_Penalty>
0.0045191

> <i_epik_Tot_Q>
0

> <i_epik_Tot_abs_Q>
0

> <r_epik_Metal_State_Penalty>
1.27877

> <b_epik_Metal_Only>
0

> <s_epik_Chemistry_Notes>
This compound has an ester and may undergo hydrolysis at high or low pH. This compound contains an acetal/aminal-like group ( X-CH(R)-Y where X, Y are N, S, or O) that may be acid/base labile, releasing an aldehyde.

> <s_lp_Force_Field>
OPLS_2005

> <r_lp_Energy>
44.2289

> <b_lp_Chiralities_Consistent>
1

> <s_lp_Variant>
AV-unprocessed.smi:99-16

> <Gold.Version>
5.8.1

> <Gold.Id.Protein>
6NUR|6NUR_protein|mol2

> <Gold.PLP.Fitness>
50.2297

> <Gold.PLP.PLP>
-39.8269

> <Gold.PLP.part.hbond>
-4.0000

> <Gold.PLP.part.metal>
0.0000

> <Gold.PLP.part.buried>
-6.6108

> <Gold.PLP.part.nonpolar>
-30.6035

> <Gold.PLP.part.repulsive>
1.9626

> <Gold.PLP.ligand.clash>
0.0000

> <Gold.PLP.ligand.torsion>
0.5216

> <Gold.PLP.Chemscore.Hbond>
3.6160

> <Gold.PLP.Chemscore.CHOScore>
0.0000

> <Gold.PLP.Chemscore.Metal>
0.0000

> <Gold.Chemscore.Hbonds>
donor molecule, donor type, donor heavy atom, donor atom, acceptor molecule, acceptor atom, score
      L1  H    13    34       P1 10186  1.00
      L1  H    17    42       P1  7948  0.96
      P1  H  6896  6907       L1     1  1.00
      P1  H 10785 10796       L1    12  0.78

> <Gold.PLP.Chemscore.Internal.Correction>
0.5980

> <Gold.Rescore>
     Score         DG    S(hbond)    S(metal)    S(lipo)     H(rot)  DE(clash)    DE(int)     intcor
     19.32     -20.39       3.73        0.00      90.89       3.19       0.43       0.64       ----

> <Gold.Chemscore.Fitness>
19.3215

> <Gold.Chemscore.DG>
-20.3929

> <Gold.Chemscore.ZeroCoef>
-5.4800

> <Gold.Chemscore.Hbond>
3.7262

> <Gold.Chemscore.Metal>
0.0000

> <Gold.Chemscore.Lipo>
90.8947

> <Gold.Chemscore.Internal_Hbond>
0.0000

> <Gold.Chemscore.DEClash>
0.4283

> <Gold.Chemscore.DEInternal>
0.6432

> <Gold.Chemscore.Rot>
3.1903

> <Gold.Chemscore.Internal.Correction>
   9.000000E+99

> <Gold.Chemscore.Hbonds>
donor molecule, donor type, donor heavy atom, donor atom, acceptor molecule, acceptor atom, score
      L1  H    13    34       P1 10186  0.99
      L1  H    17    42       P1  7948  0.92
      P1  H  6896  6907       L1     1  0.97
      P1  H 10785 10796       L1    12  0.72

> <Gold.Chemscore.Hbond.Weighted>
-12.4453

> <Gold.Chemscore.Metal.Weighted>
-0.0000

> <Gold.Chemscore.Lipo.Weighted>
-10.6347

> <Gold.Chemscore.Internal_Hbond.Weighted>
0.0000

> <Gold.Chemscore.DEClash.Weighted>
0.4283

> <Gold.Chemscore.DEInternal.Weighted>
0.6432

> <Gold.Chemscore.Rot.Weighted>
8.1671

> <Gold.Chemscore.Internal.Correction.Weighted>
   9.000000E+99

> <Gold.Protein.RotatedTorsions>
[ 6907 6896 6895 6894 ] final -143.09 input  -60.11 | X-H torsion
[ 7974 7965 7964 7962 ] final   21.46 input  175.53 | X-H torsion
[ 8008 7997 7996 7995 ] final  -88.30 input   59.86 | X-H torsion
[ 10167 10162 10161 10158 ] final   34.28 input  -65.29 | X-H torsion
[ 10718 10713 10712 10709 ] final    0.95 input   66.30 | X-H torsion
[ 10763 10752 10751 10750 ] final -176.16 input  -60.55 | X-H torsion
[ 11005 11000 10999 10996 ] final   22.13 input  -57.11 | X-H torsion

> <Gold.Protein.ActiveResidues>
 VAL166  LYS551  ARG553  GLY616  TRP617  ASP618  TYR619  PRO620  LYS621  CYS622 
 ASP623  PHE694  ASN695  SER759  ASP760  ASP761  ALA762  ILE779  LEU786  VAL792 
 PHE793  MET794  SER795  GLU796  ALA797  LYS798  CYS799  TRP800  GLU811  SER814 

> <Gold.Protein.RotatedAtoms>
  151.0958  133.5281  159.2612 H   0  0  0  0  0  0  0  0  0  0  0  0  # atno 6907 bound_to 6896
  151.2131  135.0488  159.8929 H   0  0  0  0  0  0  0  0  0  0  0  0  # atno 6908 bound_to 6896
  152.5438  134.0770  159.8272 H   0  0  0  0  0  0  0  0  0  0  0  0  # atno 6909 bound_to 6896
  146.2070  139.8023  142.8718 H   0  0  0  0  0  0  0  0  0  0  0  0  # atno 7974 bound_to 7965
  154.6732  140.0555  157.0188 H   0  0  0  0  0  0  0  0  0  0  0  0  # atno 8008 bound_to 7997
  155.1058  140.3233  155.4516 H   0  0  0  0  0  0  0  0  0  0  0  0  # atno 8009 bound_to 7997
  156.2666  140.2023  156.6183 H   0  0  0  0  0  0  0  0  0  0  0  0  # atno 8010 bound_to 7997
  140.4330  144.1298  150.6162 H   0  0  0  0  0  0  0  0  0  0  0  0  # atno 10167 bound_to 10162
  156.8410  130.5521  149.5677 H   0  0  0  0  0  0  0  0  0  0  0  0  # atno 10718 bound_to 10713
  154.5757  135.2832  155.0783 H   0  0  0  0  0  0  0  0  0  0  0  0  # atno 10763 bound_to 10752
  154.2139  135.6403  153.5127 H   0  0  0  0  0  0  0  0  0  0  0  0  # atno 10764 bound_to 10752
  153.0071  135.5498  154.6394 H   0  0  0  0  0  0  0  0  0  0  0  0  # atno 10765 bound_to 10752
  140.3839  134.1891  155.7663 H   0  0  0  0  0  0  0  0  0  0  0  0  # atno 11005 bound_to 11000
  145.3283  141.0260  143.3461 LP  0  0  0  0  0  0  0  0  0  0  0  0  # atno 17320 bound_to 7965
  144.8817  139.4895  143.6720 LP  0  0  0  0  0  0  0  0  0  0  0  0  # atno 17321 bound_to 7965
  140.4406  143.2528  151.9478 LP  0  0  0  0  0  0  0  0  0  0  0  0  # atno 17342 bound_to 10162
  139.4785  144.5658  151.8167 LP  0  0  0  0  0  0  0  0  0  0  0  0  # atno 17343 bound_to 10162
  156.0880  130.5874  150.9683 LP  0  0  0  0  0  0  0  0  0  0  0  0  # atno 17370 bound_to 10713
  157.6355  131.0916  150.8356 LP  0  0  0  0  0  0  0  0  0  0  0  0  # atno 17371 bound_to 10713
  141.1914  133.8196  157.0881 LP  0  0  0  0  0  0  0  0  0  0  0  0  # atno 17394 bound_to 11000
  140.0457  134.9831  157.1045 LP  0  0  0  0  0  0  0  0  0  0  0  0  # atno 17395 bound_to 11000

$$$$
