AV-unprocessed.smi:3109|AV-procd|sdf|11827|dock1
  -GOLD-   2272017203D 1   1.00000     0.00000
 Structure written by MMmdl.
 37 38  0  0  0  0  0  0  0  0  2 V2000
  151.0521  137.5229  154.8120 C   0  0  0  0  0  0  0  0  0  0  0  0
  150.4835  138.4674  153.9128 C   0  0  0  0  0  0  0  0  0  0  0  0
  150.6510  139.7170  154.3145 N   0  0  0  0  0  0  0  0  0  0  0  0
  151.3202  139.6130  155.4837 N   0  0  0  0  0  0  0  0  0  0  0  0
  151.7045  140.8107  156.2127 C   0  0  0  0  0  0  0  0  0  0  0  0
  150.5208  141.7533  156.4931 C   0  0  0  0  0  0  0  0  0  0  0  0
  150.9863  143.1057  156.8706 N   0  3  0  0  0  0  0  0  0  0  0  0
  151.2674  143.3045  158.3107 C   0  0  0  0  0  0  0  0  0  0  0  0
  151.7196  144.7608  158.5486 C   0  0  0  0  0  0  0  0  0  0  0  0
  151.3467  145.2919  159.9451 C   0  0  0  0  0  0  0  0  0  0  0  0
  152.1943  144.7419  161.1009 C   0  0  0  0  0  0  0  0  0  0  0  0
  152.2004  143.2094  161.2212 C   0  0  0  0  0  0  0  0  0  0  0  0
  153.0282  142.5359  160.1164 C   0  0  0  0  0  0  0  0  0  0  0  0
  152.2734  142.2382  158.8084 C   0  0  0  0  0  0  0  0  0  0  0  0
  151.5879  138.2975  155.8006 C   0  0  0  0  0  0  0  0  0  0  0  0
  151.0702  136.4455  154.7384 H   0  0  0  0  0  0  0  0  0  0  0  0
  149.9606  138.2836  152.9857 H   0  0  0  0  0  0  0  0  0  0  0  0
  152.1776  140.5129  157.1495 H   0  0  0  0  0  0  0  0  0  0  0  0
  152.4648  141.3317  155.6296 H   0  0  0  0  0  0  0  0  0  0  0  0
  149.8990  141.8285  155.6005 H   0  0  0  0  0  0  0  0  0  0  0  0
  149.8912  141.3367  157.2792 H   0  0  0  0  0  0  0  0  0  0  0  0
  151.8220  143.3222  156.3459 H   0  0  0  0  0  0  0  0  0  0  0  0
  150.3216  143.1650  158.8367 H   0  0  0  0  0  0  0  0  0  0  0  0
  152.7866  144.8784  158.3540 H   0  0  0  0  0  0  0  0  0  0  0  0
  151.2170  145.4063  157.8266 H   0  0  0  0  0  0  0  0  0  0  0  0
  151.4506  146.3775  159.9406 H   0  0  0  0  0  0  0  0  0  0  0  0
  150.2910  145.1019  160.1419 H   0  0  0  0  0  0  0  0  0  0  0  0
  153.2178  145.1081  161.0112 H   0  0  0  0  0  0  0  0  0  0  0  0
  151.8135  145.1630  162.0322 H   0  0  0  0  0  0  0  0  0  0  0  0
  152.6521  142.9563  162.1811 H   0  0  0  0  0  0  0  0  0  0  0  0
  151.1863  142.8094  161.2542 H   0  0  0  0  0  0  0  0  0  0  0  0
  153.9089  143.1425  159.9014 H   0  0  0  0  0  0  0  0  0  0  0  0
  153.4205  141.5919  160.4965 H   0  0  0  0  0  0  0  0  0  0  0  0
  151.7401  141.2953  158.9332 H   0  0  0  0  0  0  0  0  0  0  0  0
  153.0199  142.0498  158.0350 H   0  0  0  0  0  0  0  0  0  0  0  0
  152.1304  138.0230  156.6937 H   0  0  0  0  0  0  0  0  0  0  0  0
  150.2636  143.7591  156.6042 H   0  0  0  0  0  0  0  0  0  0  0  0
  1 15  2  0  0  0  0
  1  2  1  0  0  0  0
  1 16  1  0  0  0  0
  2  3  2  0  0  0  0
  2 17  1  0  0  0  0
  3  4  1  0  0  0  0
  4  5  1  0  0  0  0
  4 15  1  0  0  0  0
  5  6  1  0  0  0  0
  5 18  1  0  0  0  0
  5 19  1  0  0  0  0
  6  7  1  0  0  0  0
  6 20  1  0  0  0  0
  6 21  1  0  0  0  0
  7  8  1  0  0  0  0
  7 22  1  0  0  0  0
  7 37  1  0  0  0  0
  8 14  1  0  0  0  0
  8  9  1  0  0  0  0
  8 23  1  0  0  0  0
  9 10  1  0  0  0  0
  9 24  1  0  0  0  0
  9 25  1  0  0  0  0
 10 11  1  0  0  0  0
 10 26  1  0  0  0  0
 10 27  1  0  0  0  0
 11 12  1  0  0  0  0
 11 28  1  0  0  0  0
 11 29  1  0  0  0  0
 12 13  1  0  0  0  0
 12 30  1  0  0  0  0
 12 31  1  0  0  0  0
 13 14  1  0  0  0  0
 13 32  1  0  0  0  0
 13 33  1  0  0  0  0
 14 34  1  0  0  0  0
 14 35  1  0  0  0  0
 15 36  1  0  0  0  0
M  CHG  1   7   1
M  END
> <s_m_source_file>
AV-unprocessed.smi

> <i_m_source_file_index>
3109

> <i_lp_mmshare_version>
43012

> <i_f3d_flags>
0

> <s_epik_input>
W2NIXTFbY0hdW2NIXW5uMVtDSDJdW0NIMl1bTkhdW0NIXTJbQ0gyXVtDSDJdW0NIMl1bQ0gyXVtDSDJdW0NIMl0y

> <s_epik_cmdline>
J2VwaWtfcHl0aG9uJywgJy1waCcsICc3LjAnLCAnLXRuJywgJzgnLCAnLW1hJywgJzIwMCcsICctbWV0YWxfYmluZGluZycsICctaW1hZScsICc8aW5maWxlLm1hZT4nLCAnLW9tYWUnLCAnPG91dGZpbGUubWFlPic=

> <r_lp_tautomer_probability>
1

> <r_epik_Ionization_Penalty>
0.00143219

> <r_epik_Ionization_Penalty_Charging>
0.00142912

> <r_epik_Ionization_Penalty_Neutral>
3.07097e-06

> <r_epik_State_Penalty>
-0

> <r_epik_Charging_Adjusted_Penalty>
0.00142912

> <i_epik_Tot_Q>
1

> <i_epik_Tot_abs_Q>
1

> <r_epik_Metal_State_Penalty>
-0

> <b_epik_Metal_Only>
0

> <s_lp_Force_Field>
OPLS_2005

> <r_lp_Energy>
18.9936

> <b_lp_Chiralities_Consistent>
1

> <s_lp_Variant>
AV-unprocessed.smi:3109-1

> <Gold.Version>
5.8.1

> <Gold.Id.Protein>
6NUR|6NUR_protein|mol2

> <Gold.PLP.Fitness>
54.4027

> <Gold.PLP.PLP>
-40.2421

> <Gold.PLP.part.hbond>
-2.0000

> <Gold.PLP.part.metal>
0.0000

> <Gold.PLP.part.buried>
-5.5980

> <Gold.PLP.part.nonpolar>
-33.1686

> <Gold.PLP.part.repulsive>
0.1716

> <Gold.PLP.ligand.clash>
0.0000

> <Gold.PLP.ligand.torsion>
0.2825

> <Gold.PLP.Chemscore.Hbond>
3.0000

> <Gold.PLP.Chemscore.CHOScore>
1.9008

> <Gold.PLP.Chemscore.Metal>
0.0000

> <Gold.Chemscore.Hbonds>
donor molecule, donor type, donor heavy atom, donor atom, acceptor molecule, acceptor atom, score
      L1  H     7    37       P1  8028  2.00
      P1  H  7989  7998       L1     3  1.00
      L1  C     2    17       P1  7948  1.00
      L1  C     2    17       P1  7957  0.89

> <Gold.PLP.Chemscore.Internal.Correction>
0.0234

> <Gold.Rescore>
     Score         DG    S(hbond)    S(metal)    S(lipo)     H(rot)  DE(clash)    DE(int)     intcor
     20.66     -21.23       1.87        0.00     113.12       1.46       0.28       0.29       ----

> <Gold.Chemscore.Fitness>
20.6623

> <Gold.Chemscore.DG>
-21.2316

> <Gold.Chemscore.ZeroCoef>
-5.4800

> <Gold.Chemscore.Hbond>
1.8702

> <Gold.Chemscore.Metal>
0.0000

> <Gold.Chemscore.Lipo>
113.1159

> <Gold.Chemscore.Internal_Hbond>
0.0000

> <Gold.Chemscore.DEClash>
0.2764

> <Gold.Chemscore.DEInternal>
0.2929

> <Gold.Chemscore.Rot>
1.4568

> <Gold.Chemscore.Internal.Correction>
   9.000000E+99

> <Gold.Chemscore.Hbonds>
donor molecule, donor type, donor heavy atom, donor atom, acceptor molecule, acceptor atom, score
      L1  H     7    37       P1  8028  1.00
      P1  H  7989  7998       L1     3  0.30

> <Gold.Chemscore.Hbond.Weighted>
-6.2464

> <Gold.Chemscore.Metal.Weighted>
-0.0000

> <Gold.Chemscore.Lipo.Weighted>
-13.2346

> <Gold.Chemscore.Internal_Hbond.Weighted>
0.0000

> <Gold.Chemscore.DEClash.Weighted>
0.2764

> <Gold.Chemscore.DEInternal.Weighted>
0.2929

> <Gold.Chemscore.Rot.Weighted>
3.7293

> <Gold.Chemscore.Internal.Correction.Weighted>
   9.000000E+99

> <Gold.Protein.RotatedTorsions>
[ 6907 6896 6895 6894 ] final -120.97 input  -60.11 | X-H torsion
[ 7974 7965 7964 7962 ] final  -98.60 input  175.53 | X-H torsion
[ 8008 7997 7996 7995 ] final  -67.63 input   59.86 | X-H torsion
[ 10167 10162 10161 10158 ] final -116.90 input  -65.29 | X-H torsion
[ 10718 10713 10712 10709 ] final  162.04 input   66.30 | X-H torsion
[ 10763 10752 10751 10750 ] final -141.07 input  -60.55 | X-H torsion
[ 11005 11000 10999 10996 ] final   30.72 input  -57.11 | X-H torsion

> <Gold.Protein.ActiveResidues>
 VAL166  LYS551  ARG553  GLY616  TRP617  ASP618  TYR619  PRO620  LYS621  CYS622 
 ASP623  PHE694  ASN695  SER759  ASP760  ASP761  ALA762  ILE779  LEU786  VAL792 
 PHE793  MET794  SER795  GLU796  ALA797  LYS798  CYS799  TRP800  GLU811  SER814 

> <Gold.Protein.RotatedAtoms>
  150.8441  133.7889  159.3049 H   0  0  0  0  0  0  0  0  0  0  0  0  # atno 6907 bound_to 6896
  151.5582  135.1064  159.9975 H   0  0  0  0  0  0  0  0  0  0  0  0  # atno 6908 bound_to 6896
  152.4499  133.7565  159.6779 H   0  0  0  0  0  0  0  0  0  0  0  0  # atno 6909 bound_to 6896
  145.3185  140.9416  143.2729 H   0  0  0  0  0  0  0  0  0  0  0  0  # atno 7974 bound_to 7965
  154.4812  140.0889  156.7382 H   0  0  0  0  0  0  0  0  0  0  0  0  # atno 8008 bound_to 7997
  155.4465  140.3456  155.4277 H   0  0  0  0  0  0  0  0  0  0  0  0  # atno 8009 bound_to 7997
  156.1195  140.1470  156.9214 H   0  0  0  0  0  0  0  0  0  0  0  0  # atno 8010 bound_to 7997
  140.0742  143.4848  152.1962 H   0  0  0  0  0  0  0  0  0  0  0  0  # atno 10167 bound_to 10162
  157.1281  131.0509  151.2384 H   0  0  0  0  0  0  0  0  0  0  0  0  # atno 10718 bound_to 10713
  154.8557  135.3535  154.5809 H   0  0  0  0  0  0  0  0  0  0  0  0  # atno 10763 bound_to 10752
  153.6420  135.6998  153.5243 H   0  0  0  0  0  0  0  0  0  0  0  0  # atno 10764 bound_to 10752
  153.2963  135.4219  155.1171 H   0  0  0  0  0  0  0  0  0  0  0  0  # atno 10765 bound_to 10752
  140.2914  134.2860  155.7775 H   0  0  0  0  0  0  0  0  0  0  0  0  # atno 11005 bound_to 11000
  144.8958  139.4714  143.6656 LP  0  0  0  0  0  0  0  0  0  0  0  0  # atno 17320 bound_to 7965
  146.3091  139.7683  142.9033 LP  0  0  0  0  0  0  0  0  0  0  0  0  # atno 17321 bound_to 7965
  139.5818  144.7513  151.3621 LP  0  0  0  0  0  0  0  0  0  0  0  0  # atno 17342 bound_to 10162
  140.7110  143.7390  150.7567 LP  0  0  0  0  0  0  0  0  0  0  0  0  # atno 17343 bound_to 10162
  157.4416  130.7547  149.7074 LP  0  0  0  0  0  0  0  0  0  0  0  0  # atno 17370 bound_to 10713
  155.9814  130.4020  150.3476 LP  0  0  0  0  0  0  0  0  0  0  0  0  # atno 17371 bound_to 10713
  141.2145  133.7587  156.9630 LP  0  0  0  0  0  0  0  0  0  0  0  0  # atno 17394 bound_to 11000
  140.1192  134.9428  157.2179 LP  0  0  0  0  0  0  0  0  0  0  0  0  # atno 17395 bound_to 11000

$$$$
