AV-unprocessed.smi:2006|AV-procd|sdf|8131|dock4
  -GOLD-   2272010363D 1   1.00000     0.00000
 Structure written by MMmdl.
 32 33  0  0  0  0  0  0  0  0  1 V2000
  153.5591  142.1839  160.8451 C   0  0  0  0  0  0  0  0  0  0  0  0
  152.4468  142.8151  160.0011 C   0  0  2  0  0  0  0  0  0  0  0  0
  151.9479  141.8642  158.8957 C   0  0  0  0  0  0  0  0  0  0  0  0
  150.9629  142.5390  158.0597 N   0  0  0  0  0  0  0  0  0  0  0  0
  150.3770  141.6940  157.1066 C   0  0  0  0  0  0  0  0  0  0  0  0
  151.2018  141.0697  156.1471 C   0  0  0  0  0  0  0  0  0  0  0  0
  150.6065  140.2307  155.1855 C   0  0  0  0  0  0  0  0  0  0  0  0
  149.2097  140.0448  155.2164 C   0  0  0  0  0  0  0  0  0  0  0  0
  148.5202  139.1610  154.1980 C   0  0  0  0  0  0  0  0  0  0  0  0
  149.4511  138.5864  153.2478 N   0  0  0  0  0  0  0  0  0  0  0  0
  148.4705  140.7127  156.2144 C   0  0  0  0  0  0  0  0  0  0  0  0
  149.0340  141.5177  157.1405 N   0  0  0  0  0  0  0  0  0  0  0  0
  151.4668  143.7895  157.5062 C   0  0  0  0  0  0  0  0  0  0  0  0
  151.9747  144.6961  158.6396 C   0  0  0  0  0  0  0  0  0  0  0  0
  152.9602  144.0021  159.3996 O   0  0  0  0  0  0  0  0  0  0  0  0
  153.2116  141.2747  161.3365 H   0  0  0  0  0  0  0  0  0  0  0  0
  153.8979  142.8722  161.6198 H   0  0  0  0  0  0  0  0  0  0  0  0
  154.4214  141.9236  160.2304 H   0  0  0  0  0  0  0  0  0  0  0  0
  151.6176  143.0793  160.6599 H   0  0  0  0  0  0  0  0  0  0  0  0
  152.7866  141.5347  158.2805 H   0  0  0  0  0  0  0  0  0  0  0  0
  151.5038  140.9724  159.3400 H   0  0  0  0  0  0  0  0  0  0  0  0
  152.2700  141.2310  156.1451 H   0  0  0  0  0  0  0  0  0  0  0  0
  151.2124  139.7414  154.4371 H   0  0  0  0  0  0  0  0  0  0  0  0
  147.9919  138.3565  154.7103 H   0  0  0  0  0  0  0  0  0  0  0  0
  147.7707  139.7399  153.6572 H   0  0  0  0  0  0  0  0  0  0  0  0
  148.9960  137.8392  152.7430 H   0  0  0  0  0  0  0  0  0  0  0  0
  149.6953  139.2805  152.5558 H   0  0  0  0  0  0  0  0  0  0  0  0
  147.3977  140.6013  156.2713 H   0  0  0  0  0  0  0  0  0  0  0  0
  152.2779  143.5857  156.8056 H   0  0  0  0  0  0  0  0  0  0  0  0
  150.6755  144.2927  156.9491 H   0  0  0  0  0  0  0  0  0  0  0  0
  152.4173  145.6026  158.2271 H   0  0  0  0  0  0  0  0  0  0  0  0
  151.1532  145.0077  159.2868 H   0  0  0  0  0  0  0  0  0  0  0  0
  1  2  1  0  0  0  0
  1 16  1  0  0  0  0
  1 17  1  0  0  0  0
  1 18  1  0  0  0  0
  2 15  1  0  0  0  0
  2  3  1  0  0  0  0
  2 19  1  0  0  0  0
  3  4  1  0  0  0  0
  3 20  1  0  0  0  0
  3 21  1  0  0  0  0
  4  5  1  0  0  0  0
  4 13  1  0  0  0  0
  5 12  1  0  0  0  0
  5  6  2  0  0  0  0
  6  7  1  0  0  0  0
  6 22  1  0  0  0  0
  7  8  2  0  0  0  0
  7 23  1  0  0  0  0
  8  9  1  0  0  0  0
  8 11  1  0  0  0  0
  9 10  1  0  0  0  0
  9 24  1  0  0  0  0
  9 25  1  0  0  0  0
 10 26  1  0  0  0  0
 10 27  1  0  0  0  0
 11 12  2  0  0  0  0
 11 28  1  0  0  0  0
 13 14  1  0  0  0  0
 13 29  1  0  0  0  0
 13 30  1  0  0  0  0
 14 15  1  0  0  0  0
 14 31  1  0  0  0  0
 14 32  1  0  0  0  0
M  END
> <s_m_source_file>
AV-unprocessed.smi

> <i_m_source_file_index>
2006

> <i_lp_mmshare_version>
43012

> <i_f3d_flags>
0

> <s_epik_input>
W0NIM11bQ0BASF0xW0NIMl1OKFtDSDJdW0NIMl1PMSljMltjSF1bY0hdYyhbY0hdbjIpW0NIMl1bTkgyXQ==

> <s_epik_cmdline>
J2VwaWtfcHl0aG9uJywgJy1waCcsICc3LjAnLCAnLXRuJywgJzgnLCAnLW1hJywgJzIwMCcsICctbWV0YWxfYmluZGluZycsICctaW1hZScsICc8aW5maWxlLm1hZT4nLCAnLW9tYWUnLCAnPG91dGZpbGUubWFlPic=

> <r_lp_tautomer_probability>
1

> <r_epik_Ionization_Penalty>
1.39389

> <r_epik_Ionization_Penalty_Charging>
0

> <r_epik_Ionization_Penalty_Neutral>
1.39389

> <r_epik_State_Penalty>
1.46818

> <r_epik_Charging_Adjusted_Penalty>
1.46818

> <i_epik_Tot_Q>
0

> <i_epik_Tot_abs_Q>
0

> <r_epik_Metal_State_Penalty>
1.46201

> <b_epik_Metal_Only>
0

> <s_lp_Force_Field>
OPLS_2005

> <r_lp_Energy>
16.9161

> <b_lp_Chiralities_Consistent>
1

> <s_lp_Variant>
AV-unprocessed.smi:2006-3

> <Gold.Version>
5.8.1

> <Gold.Id.Protein>
6NUR|6NUR_protein|mol2

> <Gold.PLP.Fitness>
38.4789

> <Gold.PLP.PLP>
-32.5907

> <Gold.PLP.part.hbond>
-2.0000

> <Gold.PLP.part.metal>
0.0000

> <Gold.PLP.part.buried>
-2.7343

> <Gold.PLP.part.nonpolar>
-27.8224

> <Gold.PLP.part.repulsive>
0.1909

> <Gold.PLP.ligand.clash>
0.0000

> <Gold.PLP.ligand.torsion>
0.0937

> <Gold.PLP.Chemscore.Hbond>
1.9920

> <Gold.PLP.Chemscore.CHOScore>
0.0000

> <Gold.PLP.Chemscore.Metal>
0.0000

> <Gold.Chemscore.Hbonds>
donor molecule, donor type, donor heavy atom, donor atom, acceptor molecule, acceptor atom, score
      L1  H    10    26       P1  7948  1.00
      L1  H    10    27       P1  7957  1.00

> <Gold.PLP.Chemscore.Internal.Correction>
0.0997

> <Gold.Rescore>
     Score         DG    S(hbond)    S(metal)    S(lipo)     H(rot)  DE(clash)    DE(int)     intcor
     18.40     -18.49       1.98        0.00      82.69       1.28       0.02       0.07       ----

> <Gold.Chemscore.Fitness>
18.3961

> <Gold.Chemscore.DG>
-18.4858

> <Gold.Chemscore.ZeroCoef>
-5.4800

> <Gold.Chemscore.Hbond>
1.9754

> <Gold.Chemscore.Metal>
0.0000

> <Gold.Chemscore.Lipo>
82.6931

> <Gold.Chemscore.Internal_Hbond>
0.0000

> <Gold.Chemscore.DEClash>
0.0237

> <Gold.Chemscore.DEInternal>
0.0660

> <Gold.Chemscore.Rot>
1.2762

> <Gold.Chemscore.Internal.Correction>
   9.000000E+99

> <Gold.Chemscore.Hbonds>
donor molecule, donor type, donor heavy atom, donor atom, acceptor molecule, acceptor atom, score
      L1  H    10    26       P1  7948  0.97
      L1  H    10    27       P1  7957  0.93

> <Gold.Chemscore.Hbond.Weighted>
-6.5978

> <Gold.Chemscore.Metal.Weighted>
-0.0000

> <Gold.Chemscore.Lipo.Weighted>
-9.6751

> <Gold.Chemscore.Internal_Hbond.Weighted>
0.0000

> <Gold.Chemscore.DEClash.Weighted>
0.0237

> <Gold.Chemscore.DEInternal.Weighted>
0.0660

> <Gold.Chemscore.Rot.Weighted>
3.2671

> <Gold.Chemscore.Internal.Correction.Weighted>
   9.000000E+99

> <Gold.Protein.RotatedTorsions>
[ 6907 6896 6895 6894 ] final  135.23 input  -60.11 | X-H torsion
[ 7974 7965 7964 7962 ] final   50.87 input  175.53 | X-H torsion
[ 8008 7997 7996 7995 ] final -175.00 input   59.86 | X-H torsion
[ 10167 10162 10161 10158 ] final   50.92 input  -65.29 | X-H torsion
[ 10718 10713 10712 10709 ] final  106.25 input   66.30 | X-H torsion
[ 10763 10752 10751 10750 ] final  -66.00 input  -60.55 | X-H torsion
[ 11005 11000 10999 10996 ] final -110.86 input  -57.11 | X-H torsion

> <Gold.Protein.ActiveResidues>
 VAL166  LYS551  ARG553  GLY616  TRP617  ASP618  TYR619  PRO620  LYS621  CYS622 
 ASP623  PHE694  ASN695  SER759  ASP760  ASP761  ALA762  ILE779  LEU786  VAL792 
 PHE793  MET794  SER795  GLU796  ALA797  LYS798  CYS799  TRP800  GLU811  SER814 

> <Gold.Protein.RotatedAtoms>
  152.3027  133.5672  159.5628 H   0  0  0  0  0  0  0  0  0  0  0  0  # atno 6907 bound_to 6896
  150.7285  134.0268  159.3729 H   0  0  0  0  0  0  0  0  0  0  0  0  # atno 6908 bound_to 6896
  151.8166  135.0665  160.0470 H   0  0  0  0  0  0  0  0  0  0  0  0  # atno 6909 bound_to 6896
  145.9969  139.4398  143.0039 H   0  0  0  0  0  0  0  0  0  0  0  0  # atno 7974 bound_to 7965
  155.9772  140.1174  157.0760 H   0  0  0  0  0  0  0  0  0  0  0  0  # atno 8008 bound_to 7997
  154.4172  140.1151  156.5453 H   0  0  0  0  0  0  0  0  0  0  0  0  # atno 8009 bound_to 7997
  155.6519  140.3473  155.4753 H   0  0  0  0  0  0  0  0  0  0  0  0  # atno 8010 bound_to 7997
  140.2673  144.3305  150.6300 H   0  0  0  0  0  0  0  0  0  0  0  0  # atno 10167 bound_to 10162
  157.6675  131.0846  150.5979 H   0  0  0  0  0  0  0  0  0  0  0  0  # atno 10718 bound_to 10713
  154.3534  135.6131  153.5654 H   0  0  0  0  0  0  0  0  0  0  0  0  # atno 10763 bound_to 10752
  152.9797  135.5798  154.4717 H   0  0  0  0  0  0  0  0  0  0  0  0  # atno 10764 bound_to 10752
  154.4442  135.2851  155.1803 H   0  0  0  0  0  0  0  0  0  0  0  0  # atno 10765 bound_to 10752
  141.0768  133.9288  157.2374 H   0  0  0  0  0  0  0  0  0  0  0  0  # atno 11005 bound_to 11000
  145.7546  140.9959  143.1232 LP  0  0  0  0  0  0  0  0  0  0  0  0  # atno 17320 bound_to 7965
  144.6906  139.9256  143.7469 LP  0  0  0  0  0  0  0  0  0  0  0  0  # atno 17321 bound_to 7965
  140.5918  143.2168  151.7239 LP  0  0  0  0  0  0  0  0  0  0  0  0  # atno 17342 bound_to 10162
  139.4999  144.3928  152.0262 LP  0  0  0  0  0  0  0  0  0  0  0  0  # atno 17343 bound_to 10162
  156.6279  130.4424  149.5797 LP  0  0  0  0  0  0  0  0  0  0  0  0  # atno 17370 bound_to 10713
  156.2304  130.6791  151.1458 LP  0  0  0  0  0  0  0  0  0  0  0  0  # atno 17371 bound_to 10713
  139.9580  135.0161  156.9182 LP  0  0  0  0  0  0  0  0  0  0  0  0  # atno 17394 bound_to 11000
  140.5557  134.0584  155.7383 LP  0  0  0  0  0  0  0  0  0  0  0  0  # atno 17395 bound_to 11000

$$$$
