AV-unprocessed.smi:1251|AV-procd|sdf|5260|dock10
  -GOLD-   22720 4373D 1   1.00000     0.00000
 Structure written by MMmdl.
 38 39  0  0  0  0  0  0  0  0  2 V2000
  149.9128  141.1120  157.6832 C   0  0  0  0  0  0  0  0  0  0  0  0
  150.2413  141.6969  156.3053 C   0  0  0  0  0  0  0  0  0  0  0  0
  149.3872  141.0843  155.1864 C   0  0  0  0  0  0  0  0  0  0  0  0
  149.5169  139.5994  155.1133 C   0  0  0  0  0  0  0  0  0  0  0  0
  148.4647  138.7781  155.1536 N   0  0  0  0  0  0  0  0  0  0  0  0
  148.8405  137.4440  155.0964 N   0  0  0  0  0  0  0  0  0  0  0  0
  150.1688  137.2737  155.0380 C   0  0  0  0  0  0  0  0  0  0  0  0
  150.7344  136.0569  154.9734 N   0  5  0  0  0  0  0  0  0  0  0  0
  150.0026  134.9542  155.2525 C   0  0  0  0  0  0  0  0  0  0  0  0
  150.1527  134.2033  156.2189 O   0  0  0  0  0  0  0  0  0  0  0  0
  149.0392  134.7077  154.3531 N   0  0  0  0  0  0  0  0  0  0  0  0
  148.0859  133.5998  154.3839 C   0  0  2  0  0  0  0  0  0  0  0  0
  148.8377  132.2658  154.2473 C   0  0  0  0  0  0  0  0  0  0  0  0
  147.0362  133.7862  153.2713 C   0  0  2  0  0  0  0  0  0  0  0  0
  145.7566  132.9683  153.4593 C   0  0  0  0  0  0  0  0  0  0  0  0
  145.2407  132.8780  152.0418 C   0  0  0  0  0  0  0  0  0  0  0  0
  146.5339  132.7136  151.2492 C   0  0  0  0  0  0  0  0  0  0  0  0
  147.5520  133.3561  152.0129 O   0  0  0  0  0  0  0  0  0  0  0  0
  151.0721  138.7885  155.0306 S   0  0  0  0  0  0  0  0  0  0  0  0
  150.5331  141.5666  158.4558 H   0  0  0  0  0  0  0  0  0  0  0  0
  150.0880  140.0361  157.7055 H   0  0  0  0  0  0  0  0  0  0  0  0
  148.8696  141.2883  157.9471 H   0  0  0  0  0  0  0  0  0  0  0  0
  150.0935  142.7772  156.3284 H   0  0  0  0  0  0  0  0  0  0  0  0
  151.2979  141.5345  156.0890 H   0  0  0  0  0  0  0  0  0  0  0  0
  148.3365  141.3371  155.3350 H   0  0  0  0  0  0  0  0  0  0  0  0
  149.6752  141.5047  154.2223 H   0  0  0  0  0  0  0  0  0  0  0  0
  148.9580  135.3521  153.5806 H   0  0  0  0  0  0  0  0  0  0  0  0
  147.5604  133.6038  155.3405 H   0  0  0  0  0  0  0  0  0  0  0  0
  148.1516  131.4200  154.2963 H   0  0  0  0  0  0  0  0  0  0  0  0
  149.5675  132.1412  155.0477 H   0  0  0  0  0  0  0  0  0  0  0  0
  149.3714  132.2074  153.2980 H   0  0  0  0  0  0  0  0  0  0  0  0
  146.7707  134.8407  153.1772 H   0  0  0  0  0  0  0  0  0  0  0  0
  145.9891  131.9709  153.8360 H   0  0  0  0  0  0  0  0  0  0  0  0
  145.0472  133.4356  154.1430 H   0  0  0  0  0  0  0  0  0  0  0  0
  144.5396  132.0570  151.8903 H   0  0  0  0  0  0  0  0  0  0  0  0
  144.7442  133.8090  151.7651 H   0  0  0  0  0  0  0  0  0  0  0  0
  146.7902  131.6579  151.1524 H   0  0  0  0  0  0  0  0  0  0  0  0
  146.4615  133.1375  150.2474 H   0  0  0  0  0  0  0  0  0  0  0  0
  1  2  1  0  0  0  0
  1 20  1  0  0  0  0
  1 21  1  0  0  0  0
  1 22  1  0  0  0  0
  2  3  1  0  0  0  0
  2 23  1  0  0  0  0
  2 24  1  0  0  0  0
  3  4  1  0  0  0  0
  3 25  1  0  0  0  0
  3 26  1  0  0  0  0
  4 19  1  0  0  0  0
  4  5  2  0  0  0  0
  5  6  1  0  0  0  0
  6  7  2  0  0  0  0
  7  8  1  0  0  0  0
  7 19  1  0  0  0  0
  8  9  1  0  0  0  0
  9 10  2  0  0  0  0
  9 11  1  0  0  0  0
 11 12  1  0  0  0  0
 11 27  1  0  0  0  0
 12 13  1  0  0  0  0
 12 14  1  0  0  0  0
 12 28  1  0  0  0  0
 13 29  1  0  0  0  0
 13 30  1  0  0  0  0
 13 31  1  0  0  0  0
 14 18  1  0  0  0  0
 14 15  1  0  0  0  0
 14 32  1  0  0  0  0
 15 16  1  0  0  0  0
 15 33  1  0  0  0  0
 15 34  1  0  0  0  0
 16 17  1  0  0  0  0
 16 35  1  0  0  0  0
 16 36  1  0  0  0  0
 17 18  1  0  0  0  0
 17 37  1  0  0  0  0
 17 38  1  0  0  0  0
M  CHG  1   8  -1
M  END
> <s_m_source_file>
AV-unprocessed.smi

> <i_m_source_file_index>
1251

> <i_lp_mmshare_version>
43012

> <i_f3d_flags>
0

> <s_epik_input>
W0NIM11bQ0gyXVtDSDJdYzFubmMoczEpW05IXUMoPU8pW05IXVtDQEhdKFtDSDNdKVtDQEBIXTJbQ0gyXVtDSDJdW0NIMl1PMg==

> <s_epik_cmdline>
J2VwaWtfcHl0aG9uJywgJy1waCcsICc3LjAnLCAnLXRuJywgJzgnLCAnLW1hJywgJzIwMCcsICctbWV0YWxfYmluZGluZycsICctaW1hZScsICc8aW5maWxlLm1hZT4nLCAnLW9tYWUnLCAnPG91dGZpbGUubWFlPic=

> <r_lp_tautomer_probability>
1

> <r_epik_Ionization_Penalty>
4.22551

> <r_epik_Ionization_Penalty_Charging>
4.21437

> <r_epik_Ionization_Penalty_Neutral>
0.0111434

> <r_epik_State_Penalty>
4.21389

> <r_epik_Charging_Adjusted_Penalty>
8.42826

> <i_epik_Tot_Q>
-1

> <i_epik_Tot_abs_Q>
1

> <r_epik_Metal_State_Penalty>
0.69377

> <b_epik_Metal_Only>
1

> <s_lp_Force_Field>
OPLS_2005

> <r_lp_Energy>
11.2841

> <b_lp_Chiralities_Consistent>
1

> <s_lp_Variant>
AV-unprocessed.smi:1251-5

> <Gold.Version>
5.8.1

> <Gold.Id.Protein>
6NUR|6NUR_protein|mol2

> <Gold.PLP.Fitness>
36.9352

> <Gold.PLP.PLP>
-30.0543

> <Gold.PLP.part.hbond>
-2.0000

> <Gold.PLP.part.metal>
0.0000

> <Gold.PLP.part.buried>
-4.1979

> <Gold.PLP.part.nonpolar>
-24.7105

> <Gold.PLP.part.repulsive>
0.6747

> <Gold.PLP.ligand.clash>
0.0000

> <Gold.PLP.ligand.torsion>
1.0916

> <Gold.PLP.Chemscore.Hbond>
3.0000

> <Gold.PLP.Chemscore.CHOScore>
0.0000

> <Gold.PLP.Chemscore.Metal>
0.0000

> <Gold.Chemscore.Hbonds>
donor molecule, donor type, donor heavy atom, donor atom, acceptor molecule, acceptor atom, score
      L1  H    11    27       P1  7948  1.00
      P1  H 10752 10765       L1     8  0.62

> <Gold.PLP.Chemscore.Internal.Correction>
0.0640

> <Gold.Rescore>
     Score         DG    S(hbond)    S(metal)    S(lipo)     H(rot)  DE(clash)    DE(int)     intcor
     12.05     -13.27       1.48        0.00      58.21       1.55       0.05       1.17       ----

> <Gold.Chemscore.Fitness>
12.0523

> <Gold.Chemscore.DG>
-13.2687

> <Gold.Chemscore.ZeroCoef>
-5.4800

> <Gold.Chemscore.Hbond>
1.4784

> <Gold.Chemscore.Metal>
0.0000

> <Gold.Chemscore.Lipo>
58.2122

> <Gold.Chemscore.Internal_Hbond>
0.0000

> <Gold.Chemscore.DEClash>
0.0456

> <Gold.Chemscore.DEInternal>
1.1708

> <Gold.Chemscore.Rot>
1.5469

> <Gold.Chemscore.Internal.Correction>
   9.000000E+99

> <Gold.Chemscore.Hbonds>
donor molecule, donor type, donor heavy atom, donor atom, acceptor molecule, acceptor atom, score
      L1  H    11    27       P1  7948  0.70
      P1  H 10752 10765       L1     8  0.27

> <Gold.Chemscore.Hbond.Weighted>
-4.9379

> <Gold.Chemscore.Metal.Weighted>
-0.0000

> <Gold.Chemscore.Lipo.Weighted>
-6.8108

> <Gold.Chemscore.Internal_Hbond.Weighted>
0.0000

> <Gold.Chemscore.DEClash.Weighted>
0.0456

> <Gold.Chemscore.DEInternal.Weighted>
1.1708

> <Gold.Chemscore.Rot.Weighted>
3.9600

> <Gold.Chemscore.Internal.Correction.Weighted>
   9.000000E+99

> <Gold.Protein.RotatedTorsions>
[ 6907 6896 6895 6894 ] final   -3.12 input  -60.11 | X-H torsion
[ 7974 7965 7964 7962 ] final -126.46 input  175.53 | X-H torsion
[ 8008 7997 7996 7995 ] final   44.49 input   59.86 | X-H torsion
[ 10167 10162 10161 10158 ] final   -8.29 input  -65.29 | X-H torsion
[ 10718 10713 10712 10709 ] final   12.87 input   66.30 | X-H torsion
[ 10763 10752 10751 10750 ] final  166.81 input  -60.55 | X-H torsion
[ 11005 11000 10999 10996 ] final   -8.90 input  -57.11 | X-H torsion

> <Gold.Protein.ActiveResidues>
 VAL166  LYS551  ARG553  GLY616  TRP617  ASP618  TYR619  PRO620  LYS621  CYS622 
 ASP623  PHE694  ASN695  SER759  ASP760  ASP761  ALA762  ILE779  LEU786  VAL792 
 PHE793  MET794  SER795  GLU796  ALA797  LYS798  CYS799  TRP800  GLU811  SER814 

> <Gold.Protein.RotatedAtoms>
  151.5189  135.1067  159.9873 H   0  0  0  0  0  0  0  0  0  0  0  0  # atno 6907 bound_to 6896
  152.4629  133.7856  159.6885 H   0  0  0  0  0  0  0  0  0  0  0  0  # atno 6908 bound_to 6896
  150.8599  133.7595  159.3021 H   0  0  0  0  0  0  0  0  0  0  0  0  # atno 6909 bound_to 6896
  144.9871  140.7696  143.4577 H   0  0  0  0  0  0  0  0  0  0  0  0  # atno 7974 bound_to 7965
  155.3202  140.3396  155.4241 H   0  0  0  0  0  0  0  0  0  0  0  0  # atno 8008 bound_to 7997
  156.1913  140.1698  156.8124 H   0  0  0  0  0  0  0  0  0  0  0  0  # atno 8009 bound_to 7997
  154.5445  140.0718  156.8549 H   0  0  0  0  0  0  0  0  0  0  0  0  # atno 8010 bound_to 7997
  140.7055  143.5985  150.8822 H   0  0  0  0  0  0  0  0  0  0  0  0  # atno 10167 bound_to 10162
  157.0164  130.6137  149.5715 H   0  0  0  0  0  0  0  0  0  0  0  0  # atno 10718 bound_to 10713
  154.3445  135.2753  155.2405 H   0  0  0  0  0  0  0  0  0  0  0  0  # atno 10763 bound_to 10752
  154.4661  135.5895  153.6293 H   0  0  0  0  0  0  0  0  0  0  0  0  # atno 10764 bound_to 10752
  152.9855  135.6077  154.3649 H   0  0  0  0  0  0  0  0  0  0  0  0  # atno 10765 bound_to 10752
  140.7284  133.8770  155.8874 H   0  0  0  0  0  0  0  0  0  0  0  0  # atno 11005 bound_to 11000
  145.2338  139.2103  143.5028 LP  0  0  0  0  0  0  0  0  0  0  0  0  # atno 17320 bound_to 7965
  146.3422  140.2221  142.8591 LP  0  0  0  0  0  0  0  0  0  0  0  0  # atno 17321 bound_to 7965
  139.9710  143.6057  152.2973 LP  0  0  0  0  0  0  0  0  0  0  0  0  # atno 17342 bound_to 10162
  139.6644  144.7662  151.1901 LP  0  0  0  0  0  0  0  0  0  0  0  0  # atno 17343 bound_to 10162
  156.0118  130.5210  150.8011 LP  0  0  0  0  0  0  0  0  0  0  0  0  # atno 17370 bound_to 10713
  157.5283  131.0935  150.9989 LP  0  0  0  0  0  0  0  0  0  0  0  0  # atno 17371 bound_to 10713
  140.9942  134.1237  157.4379 LP  0  0  0  0  0  0  0  0  0  0  0  0  # atno 17394 bound_to 11000
  139.8832  135.0049  156.6282 LP  0  0  0  0  0  0  0  0  0  0  0  0  # atno 17395 bound_to 11000

$$$$
