AV-unprocessed.smi:1871|AV-procd|sdf|7601|dock2
  -GOLD-   22720 9313D 1   1.00000     0.00000
 Structure written by MMmdl.
 41 43  0  0  0  0  0  0  0  0  2 V2000
  149.6281  141.1389  153.4373 O   0  0  0  0  0  0  0  0  0  0  0  0
  149.3315  140.5474  154.6823 C   0  0  0  0  0  0  0  0  0  0  0  0
  150.1234  141.1457  155.7993 C   0  0  0  0  0  0  0  0  0  0  0  0
  150.0753  142.4518  156.1870 N   0  3  0  0  0  0  0  0  0  0  0  0
  150.9505  142.6629  157.2528 C   0  0  0  0  0  0  0  0  0  0  0  0
  151.2453  143.8144  157.9764 C   0  0  0  0  0  0  0  0  0  0  0  0
  152.1953  143.6858  159.0109 C   0  0  0  0  0  0  0  0  0  0  0  0
  152.8119  142.4490  159.2919 C   0  0  0  0  0  0  0  0  0  0  0  0
  152.5051  141.2887  158.5508 C   0  0  0  0  0  0  0  0  0  0  0  0
  151.5645  141.4249  157.5300 C   0  0  0  0  0  0  0  0  0  0  0  0
  151.0276  140.5185  156.6088 N   0  0  0  0  0  0  0  0  0  0  0  0
  151.4878  139.1207  156.6389 C   0  0  0  0  0  0  0  0  0  0  0  0
  150.7489  138.2665  157.6888 C   0  0  2  0  0  0  0  0  0  0  0  0
  151.5603  138.1091  158.8363 O   0  0  0  0  0  0  0  0  0  0  0  0
  150.3111  136.9335  157.1035 C   0  0  0  0  0  0  0  0  0  0  0  0
  149.4361  136.0858  157.8160 C   0  0  0  0  0  0  0  0  0  0  0  0
  149.0445  134.8488  157.2690 C   0  0  0  0  0  0  0  0  0  0  0  0
  149.5150  134.4419  156.0045 C   0  0  0  0  0  0  0  0  0  0  0  0
  149.1082  133.2154  155.5301 O   0  0  0  0  0  0  0  0  0  0  0  0
  149.6138  132.7558  154.3548 C   0  0  0  0  0  0  0  0  0  0  0  0
  149.3873  131.4251  154.2294 F   0  0  0  0  0  0  0  0  0  0  0  0
  148.9984  133.3743  153.3183 F   0  0  0  0  0  0  0  0  0  0  0  0
  150.4046  135.2865  155.2984 C   0  0  0  0  0  0  0  0  0  0  0  0
  150.7966  136.5241  155.8444 C   0  0  0  0  0  0  0  0  0  0  0  0
  149.5783  140.4737  152.7677 H   0  0  0  0  0  0  0  0  0  0  0  0
  148.2686  140.6761  154.8878 H   0  0  0  0  0  0  0  0  0  0  0  0
  149.5132  139.4750  154.6239 H   0  0  0  0  0  0  0  0  0  0  0  0
  150.7751  144.7630  157.7621 H   0  0  0  0  0  0  0  0  0  0  0  0
  152.4565  144.5527  159.6004 H   0  0  0  0  0  0  0  0  0  0  0  0
  153.5352  142.3888  160.0924 H   0  0  0  0  0  0  0  0  0  0  0  0
  152.9841  140.3467  158.7728 H   0  0  0  0  0  0  0  0  0  0  0  0
  151.3645  138.6991  155.6405 H   0  0  0  0  0  0  0  0  0  0  0  0
  152.5598  139.1196  156.8351 H   0  0  0  0  0  0  0  0  0  0  0  0
  149.8562  138.8003  158.0163 H   0  0  0  0  0  0  0  0  0  0  0  0
  152.4082  138.4864  158.6580 H   0  0  0  0  0  0  0  0  0  0  0  0
  149.0647  136.3792  158.7870 H   0  0  0  0  0  0  0  0  0  0  0  0
  148.3758  134.2076  157.8245 H   0  0  0  0  0  0  0  0  0  0  0  0
  150.6832  132.9517  154.2718 H   0  0  0  0  0  0  0  0  0  0  0  0
  150.8010  134.9935  154.3378 H   0  0  0  0  0  0  0  0  0  0  0  0
  151.4771  137.1558  155.2924 H   0  0  0  0  0  0  0  0  0  0  0  0
  149.4878  143.1475  155.7461 H   0  0  0  0  0  0  0  0  0  0  0  0
  1  2  1  0  0  0  0
  1 25  1  0  0  0  0
  2  3  1  0  0  0  0
  2 26  1  0  0  0  0
  2 27  1  0  0  0  0
  3 11  1  0  0  0  0
  3  4  2  0  0  0  0
  4  5  1  0  0  0  0
  4 41  1  0  0  0  0
  5 10  2  0  0  0  0
  5  6  1  0  0  0  0
  6  7  2  0  0  0  0
  6 28  1  0  0  0  0
  7  8  1  0  0  0  0
  7 29  1  0  0  0  0
  8  9  2  0  0  0  0
  8 30  1  0  0  0  0
  9 10  1  0  0  0  0
  9 31  1  0  0  0  0
 10 11  1  0  0  0  0
 11 12  1  0  0  0  0
 12 13  1  0  0  0  0
 12 32  1  0  0  0  0
 12 33  1  0  0  0  0
 13 14  1  0  0  0  0
 13 15  1  0  0  0  0
 13 34  1  0  0  0  0
 14 35  1  0  0  0  0
 15 24  1  0  0  0  0
 15 16  2  0  0  0  0
 16 17  1  0  0  0  0
 16 36  1  0  0  0  0
 17 18  2  0  0  0  0
 17 37  1  0  0  0  0
 18 19  1  0  0  0  0
 18 23  1  0  0  0  0
 19 20  1  0  0  0  0
 20 21  1  0  0  0  0
 20 22  1  0  0  0  0
 20 38  1  0  0  0  0
 23 24  2  0  0  0  0
 23 39  1  0  0  0  0
 24 40  1  0  0  0  0
M  CHG  1   4   1
M  END
> <s_m_source_file>
AV-unprocessed.smi

> <i_m_source_file_index>
1871

> <i_lp_mmshare_version>
43012

> <i_f3d_flags>
0

> <s_epik_input>
W2NIXTFbY0hdW2NIXVtjSF1jKGMxMiluKGMobjIpW0NIMl1bT0hdKVtDSDJdW0NASF0oW09IXSljM1tjSF1bY0hdYyhPW0NIXShGKUYpW2NIXVtjSF0z

> <s_epik_cmdline>
J2VwaWtfcHl0aG9uJywgJy1waCcsICc3LjAnLCAnLXRuJywgJzgnLCAnLW1hJywgJzIwMCcsICctbWV0YWxfYmluZGluZycsICctaW1hZScsICc8aW5maWxlLm1hZT4nLCAnLW9tYWUnLCAnPG91dGZpbGUubWFlPic=

> <r_lp_tautomer_probability>
1

> <r_epik_Ionization_Penalty>
1.35642

> <r_epik_Ionization_Penalty_Charging>
1.35557

> <r_epik_Ionization_Penalty_Neutral>
0.000856035

> <r_epik_State_Penalty>
1.43401

> <r_epik_Charging_Adjusted_Penalty>
2.78958

> <i_epik_Tot_Q>
1

> <i_epik_Tot_abs_Q>
1

> <r_epik_Metal_State_Penalty>
5.47166

> <b_epik_Metal_Only>
0

> <s_lp_Force_Field>
OPLS_2005

> <r_lp_Energy>
13.1026

> <b_lp_Chiralities_Consistent>
1

> <s_lp_Variant>
AV-unprocessed.smi:1871-3

> <Gold.Version>
5.8.1

> <Gold.Id.Protein>
6NUR|6NUR_protein|mol2

> <Gold.PLP.Fitness>
53.3609

> <Gold.PLP.PLP>
-44.2591

> <Gold.PLP.part.hbond>
-3.9681

> <Gold.PLP.part.metal>
0.0000

> <Gold.PLP.part.buried>
-5.5399

> <Gold.PLP.part.nonpolar>
-35.3354

> <Gold.PLP.part.repulsive>
0.1098

> <Gold.PLP.ligand.clash>
0.0000

> <Gold.PLP.ligand.torsion>
1.2595

> <Gold.PLP.Chemscore.Hbond>
3.8184

> <Gold.PLP.Chemscore.CHOScore>
0.0000

> <Gold.PLP.Chemscore.Metal>
0.0000

> <Gold.Chemscore.Hbonds>
donor molecule, donor type, donor heavy atom, donor atom, acceptor molecule, acceptor atom, score
      L1  H     1    25       P1  7957  0.99
      L1  H     4    41       P1  8028  2.00
      P1  H  7989  7998       L1     1  0.08
      P1  H  8011  8017       L1     1  0.70

> <Gold.PLP.Chemscore.Internal.Correction>
0.1655

> <Gold.Rescore>
     Score         DG    S(hbond)    S(metal)    S(lipo)     H(rot)  DE(clash)    DE(int)     intcor
     14.53     -15.79       1.97        0.00     105.55       3.37       0.03       1.23       ----

> <Gold.Chemscore.Fitness>
14.5256

> <Gold.Chemscore.DG>
-15.7884

> <Gold.Chemscore.ZeroCoef>
-5.4800

> <Gold.Chemscore.Hbond>
1.9688

> <Gold.Chemscore.Metal>
0.0000

> <Gold.Chemscore.Lipo>
105.5491

> <Gold.Chemscore.Internal_Hbond>
0.0000

> <Gold.Chemscore.DEClash>
0.0324

> <Gold.Chemscore.DEInternal>
1.2304

> <Gold.Chemscore.Rot>
3.3659

> <Gold.Chemscore.Internal.Correction>
   9.000000E+99

> <Gold.Chemscore.Hbonds>
donor molecule, donor type, donor heavy atom, donor atom, acceptor molecule, acceptor atom, score
      L1  H     1    25       P1  7957  0.93
      L1  H     4    41       P1  8028  0.95
      P1  H  8011  8017       L1     1  0.07

> <Gold.Chemscore.Hbond.Weighted>
-6.5758

> <Gold.Chemscore.Metal.Weighted>
-0.0000

> <Gold.Chemscore.Lipo.Weighted>
-12.3492

> <Gold.Chemscore.Internal_Hbond.Weighted>
0.0000

> <Gold.Chemscore.DEClash.Weighted>
0.0324

> <Gold.Chemscore.DEInternal.Weighted>
1.2304

> <Gold.Chemscore.Rot.Weighted>
8.6167

> <Gold.Chemscore.Internal.Correction.Weighted>
   9.000000E+99

> <Gold.Protein.RotatedTorsions>
[ 6907 6896 6895 6894 ] final  154.50 input  -60.11 | X-H torsion
[ 7974 7965 7964 7962 ] final   73.80 input  175.53 | X-H torsion
[ 8008 7997 7996 7995 ] final  111.44 input   59.86 | X-H torsion
[ 10167 10162 10161 10158 ] final -106.51 input  -65.29 | X-H torsion
[ 10718 10713 10712 10709 ] final   86.39 input   66.30 | X-H torsion
[ 10763 10752 10751 10750 ] final  -34.05 input  -60.55 | X-H torsion
[ 11005 11000 10999 10996 ] final  161.79 input  -57.11 | X-H torsion

> <Gold.Protein.ActiveResidues>
 VAL166  LYS551  ARG553  GLY616  TRP617  ASP618  TYR619  PRO620  LYS621  CYS622 
 ASP623  PHE694  ASN695  SER759  ASP760  ASP761  ALA762  ILE779  LEU786  VAL792 
 PHE793  MET794  SER795  GLU796  ALA797  LYS798  CYS799  TRP800  GLU811  SER814 

> <Gold.Protein.RotatedAtoms>
  152.0575  133.4047  159.4403 H   0  0  0  0  0  0  0  0  0  0  0  0  # atno 6907 bound_to 6896
  150.6867  134.3238  159.4807 H   0  0  0  0  0  0  0  0  0  0  0  0  # atno 6908 bound_to 6896
  152.1055  134.9311  160.0619 H   0  0  0  0  0  0  0  0  0  0  0  0  # atno 6909 bound_to 6896
  145.7363  139.2703  143.1512 H   0  0  0  0  0  0  0  0  0  0  0  0  # atno 7974 bound_to 7965
  156.2124  140.3019  155.9763 H   0  0  0  0  0  0  0  0  0  0  0  0  # atno 8008 bound_to 7997
  155.2690  140.0433  157.3022 H   0  0  0  0  0  0  0  0  0  0  0  0  # atno 8009 bound_to 7997
  154.5719  140.2350  155.8188 H   0  0  0  0  0  0  0  0  0  0  0  0  # atno 8010 bound_to 7997
  140.1870  143.3922  152.1237 H   0  0  0  0  0  0  0  0  0  0  0  0  # atno 10167 bound_to 10162
  157.6928  131.0213  150.2965 H   0  0  0  0  0  0  0  0  0  0  0  0  # atno 10718 bound_to 10713
  153.8404  135.6858  153.4803 H   0  0  0  0  0  0  0  0  0  0  0  0  # atno 10763 bound_to 10752
  153.1457  135.4639  154.9561 H   0  0  0  0  0  0  0  0  0  0  0  0  # atno 10764 bound_to 10752
  154.7847  135.3281  154.7858 H   0  0  0  0  0  0  0  0  0  0  0  0  # atno 10765 bound_to 10752
  140.2193  134.8208  157.3204 H   0  0  0  0  0  0  0  0  0  0  0  0  # atno 11005 bound_to 11000
  146.0490  140.8088  142.9791 LP  0  0  0  0  0  0  0  0  0  0  0  0  # atno 17320 bound_to 7965
  144.6881  140.3024  143.7261 LP  0  0  0  0  0  0  0  0  0  0  0  0  # atno 17321 bound_to 7965
  139.5272  144.7116  151.5186 LP  0  0  0  0  0  0  0  0  0  0  0  0  # atno 17342 bound_to 10162
  140.6482  143.8752  150.6758 LP  0  0  0  0  0  0  0  0  0  0  0  0  # atno 17343 bound_to 10162
  156.3487  130.3827  149.7347 LP  0  0  0  0  0  0  0  0  0  0  0  0  # atno 17370 bound_to 10713
  156.4832  130.8050  151.3064 LP  0  0  0  0  0  0  0  0  0  0  0  0  # atno 17371 bound_to 10713
  140.1866  134.4423  155.7740 LP  0  0  0  0  0  0  0  0  0  0  0  0  # atno 17394 bound_to 11000
  141.2223  133.7008  156.7958 LP  0  0  0  0  0  0  0  0  0  0  0  0  # atno 17395 bound_to 11000

$$$$
