AV-unprocessed.smi:3148|AV-procd|sdf|11991|dock3
  -GOLD-   2272017393D 1   1.00000     0.00000
 Structure written by MMmdl.
 34 36  0  0  0  0  0  0  0  0  1 V2000
  152.8784  138.2521  155.0557 C   0  0  0  0  0  0  0  0  0  0  0  0
  152.7888  139.3684  155.9343 O   0  0  0  0  0  0  0  0  0  0  0  0
  151.6513  140.1467  155.8803 C   0  0  0  0  0  0  0  0  0  0  0  0
  150.6266  139.8163  154.9703 C   0  0  0  0  0  0  0  0  0  0  0  0
  149.4931  140.6559  154.9694 C   0  0  0  0  0  0  0  0  0  0  0  0
  148.3222  140.4044  154.0432 C   0  0  0  0  0  0  0  0  0  0  0  0
  149.3939  141.7203  155.7962 N   0  0  0  0  0  0  0  0  0  0  0  0
  150.4192  141.9441  156.6213 C   0  0  0  0  0  0  0  0  0  0  0  0
  150.2818  143.0345  157.4605 N   0  0  0  0  0  0  0  0  0  0  0  0
  150.7126  143.0604  158.8530 C   0  0  2  0  0  0  0  0  0  0  0  0
  150.3413  144.3645  159.5698 C   0  0  0  0  0  0  0  0  0  0  0  0
  151.7064  144.8471  160.0758 C   0  0  1  0  0  0  0  0  0  0  0  0
  152.2627  143.9525  161.1919 C   0  0  0  0  0  0  0  0  0  0  0  0
  152.6738  142.7024  160.4140 C   0  0  0  0  0  0  0  0  0  0  0  0
  152.2447  143.0631  158.9851 C   0  0  2  0  0  0  0  0  0  0  0  0
  152.5266  144.4534  158.9901 O   0  0  0  0  0  0  0  0  0  0  0  0
  151.5389  141.2167  156.7059 N   0  0  0  0  0  0  0  0  0  0  0  0
  153.8248  137.7376  155.2208 H   0  0  0  0  0  0  0  0  0  0  0  0
  152.8492  138.5645  154.0108 H   0  0  0  0  0  0  0  0  0  0  0  0
  152.0759  137.5356  155.2371 H   0  0  0  0  0  0  0  0  0  0  0  0
  150.7089  138.9642  154.3120 H   0  0  0  0  0  0  0  0  0  0  0  0
  148.5407  139.5985  153.3421 H   0  0  0  0  0  0  0  0  0  0  0  0
  148.0905  141.3017  153.4687 H   0  0  0  0  0  0  0  0  0  0  0  0
  147.4388  140.1264  154.6186 H   0  0  0  0  0  0  0  0  0  0  0  0
  149.7144  143.8004  157.1278 H   0  0  0  0  0  0  0  0  0  0  0  0
  150.2972  142.1918  159.3658 H   0  0  0  0  0  0  0  0  0  0  0  0
  149.9165  145.0962  158.8808 H   0  0  0  0  0  0  0  0  0  0  0  0
  149.6263  144.2101  160.3784 H   0  0  0  0  0  0  0  0  0  0  0  0
  151.7419  145.9129  160.3018 H   0  0  0  0  0  0  0  0  0  0  0  0
  153.1319  144.4123  161.6634 H   0  0  0  0  0  0  0  0  0  0  0  0
  151.5213  143.7469  161.9647 H   0  0  0  0  0  0  0  0  0  0  0  0
  153.7535  142.5576  160.4675 H   0  0  0  0  0  0  0  0  0  0  0  0
  152.1895  141.7967  160.7801 H   0  0  0  0  0  0  0  0  0  0  0  0
  152.7683  142.4940  158.2160 H   0  0  0  0  0  0  0  0  0  0  0  0
  1  2  1  0  0  0  0
  1 18  1  0  0  0  0
  1 19  1  0  0  0  0
  1 20  1  0  0  0  0
  2  3  1  0  0  0  0
  3 17  1  0  0  0  0
  3  4  2  0  0  0  0
  4  5  1  0  0  0  0
  4 21  1  0  0  0  0
  5  6  1  0  0  0  0
  5  7  2  0  0  0  0
  6 22  1  0  0  0  0
  6 23  1  0  0  0  0
  6 24  1  0  0  0  0
  7  8  1  0  0  0  0
  8  9  1  0  0  0  0
  8 17  2  0  0  0  0
  9 10  1  0  0  0  0
  9 25  1  0  0  0  0
 10 15  1  0  0  0  0
 10 11  1  0  0  0  0
 10 26  1  0  0  0  0
 11 12  1  0  0  0  0
 11 27  1  0  0  0  0
 11 28  1  0  0  0  0
 12 16  1  0  0  0  0
 12 13  1  0  0  0  0
 12 29  1  0  0  0  0
 13 14  1  0  0  0  0
 13 30  1  0  0  0  0
 13 31  1  0  0  0  0
 14 15  1  0  0  0  0
 14 32  1  0  0  0  0
 14 33  1  0  0  0  0
 15 16  1  0  0  0  0
 15 34  1  0  0  0  0
M  END
> <s_m_source_file>
AV-unprocessed.smi

> <i_m_source_file_index>
3148

> <i_lp_mmshare_version>
43012

> <i_f3d_flags>
0

> <s_epik_input>
W0NIM11PYzFbY0hdYyhbQ0gzXSluYyhuMSlbTkhdW0NASF0oW0NIMl1bQ0BASF0yMylbQ0BASF0oTzMpW0NIMl1bQ0gyXTI=

> <s_epik_cmdline>
J2VwaWtfcHl0aG9uJywgJy1waCcsICc3LjAnLCAnLXRuJywgJzgnLCAnLW1hJywgJzIwMCcsICctbWV0YWxfYmluZGluZycsICctaW1hZScsICc8aW5maWxlLm1hZT4nLCAnLW9tYWUnLCAnPG91dGZpbGUubWFlPic=

> <r_lp_tautomer_probability>
1

> <r_epik_Ionization_Penalty>
0.101645

> <r_epik_Ionization_Penalty_Charging>
0

> <r_epik_Ionization_Penalty_Neutral>
0.101645

> <r_epik_State_Penalty>
0.0916212

> <r_epik_Charging_Adjusted_Penalty>
0.0916212

> <i_epik_Tot_Q>
0

> <i_epik_Tot_abs_Q>
0

> <r_epik_Metal_State_Penalty>
0.0781

> <b_epik_Metal_Only>
0

> <s_lp_Force_Field>
OPLS_2005

> <r_lp_Energy>
31.271

> <b_lp_Chiralities_Consistent>
1

> <s_lp_Variant>
AV-unprocessed.smi:3148-1

> <Gold.Version>
5.8.1

> <Gold.Id.Protein>
6NUR|6NUR_protein|mol2

> <Gold.PLP.Fitness>
43.5150

> <Gold.PLP.PLP>
-38.4755

> <Gold.PLP.part.hbond>
-2.0000

> <Gold.PLP.part.metal>
0.0000

> <Gold.PLP.part.buried>
-3.8512

> <Gold.PLP.part.nonpolar>
-32.9707

> <Gold.PLP.part.repulsive>
0.6711

> <Gold.PLP.ligand.clash>
0.2496

> <Gold.PLP.ligand.torsion>
0.3557

> <Gold.PLP.Chemscore.Hbond>
1.9920

> <Gold.PLP.Chemscore.CHOScore>
0.0000

> <Gold.PLP.Chemscore.Metal>
0.0000

> <Gold.Chemscore.Hbonds>
donor molecule, donor type, donor heavy atom, donor atom, acceptor molecule, acceptor atom, score
      L1  H     9    25       P1  8028  1.00
      P1  H  7997  8009       L1     2  1.00

> <Gold.PLP.Chemscore.Internal.Correction>
0.0245

> <Gold.Rescore>
     Score         DG    S(hbond)    S(metal)    S(lipo)     H(rot)  DE(clash)    DE(int)     intcor
     17.80     -19.65       1.87        0.00      94.45       1.22       0.27       1.58       ----

> <Gold.Chemscore.Fitness>
17.7979

> <Gold.Chemscore.DG>
-19.6478

> <Gold.Chemscore.ZeroCoef>
-5.4800

> <Gold.Chemscore.Hbond>
1.8708

> <Gold.Chemscore.Metal>
0.0000

> <Gold.Chemscore.Lipo>
94.4500

> <Gold.Chemscore.Internal_Hbond>
0.0000

> <Gold.Chemscore.DEClash>
0.2730

> <Gold.Chemscore.DEInternal>
1.5769

> <Gold.Chemscore.Rot>
1.2232

> <Gold.Chemscore.Internal.Correction>
   9.000000E+99

> <Gold.Chemscore.Hbonds>
donor molecule, donor type, donor heavy atom, donor atom, acceptor molecule, acceptor atom, score
      L1  H     9    25       P1  8028  0.80
      P1  H  7997  8009       L1     2  0.67

> <Gold.Chemscore.Hbond.Weighted>
-6.2485

> <Gold.Chemscore.Metal.Weighted>
-0.0000

> <Gold.Chemscore.Lipo.Weighted>
-11.0507

> <Gold.Chemscore.Internal_Hbond.Weighted>
0.0000

> <Gold.Chemscore.DEClash.Weighted>
0.2730

> <Gold.Chemscore.DEInternal.Weighted>
1.5769

> <Gold.Chemscore.Rot.Weighted>
3.1314

> <Gold.Chemscore.Internal.Correction.Weighted>
   9.000000E+99

> <Gold.Protein.RotatedTorsions>
[ 6907 6896 6895 6894 ] final  127.94 input  -60.11 | X-H torsion
[ 7974 7965 7964 7962 ] final  144.41 input  175.53 | X-H torsion
[ 8008 7997 7996 7995 ] final -141.96 input   59.86 | X-H torsion
[ 10167 10162 10161 10158 ] final  124.95 input  -65.29 | X-H torsion
[ 10718 10713 10712 10709 ] final -117.83 input   66.30 | X-H torsion
[ 10763 10752 10751 10750 ] final  109.31 input  -60.55 | X-H torsion
[ 11005 11000 10999 10996 ] final  116.26 input  -57.11 | X-H torsion

> <Gold.Protein.ActiveResidues>
 VAL166  LYS551  ARG553  GLY616  TRP617  ASP618  TYR619  PRO620  LYS621  CYS622 
 ASP623  PHE694  ASN695  SER759  ASP760  ASP761  ALA762  ILE779  LEU786  VAL792 
 PHE793  MET794  SER795  GLU796  ALA797  LYS798  CYS799  TRP800  GLU811  SER814 

> <Gold.Protein.RotatedAtoms>
  152.3766  133.6489  159.6128 H   0  0  0  0  0  0  0  0  0  0  0  0  # atno 6907 bound_to 6896
  150.7709  133.9183  159.3399 H   0  0  0  0  0  0  0  0  0  0  0  0  # atno 6908 bound_to 6896
  151.6996  135.0933  160.0300 H   0  0  0  0  0  0  0  0  0  0  0  0  # atno 6909 bound_to 6896
  144.8838  139.5660  143.5830 H   0  0  0  0  0  0  0  0  0  0  0  0  # atno 7974 bound_to 7965
  155.4864  140.0564  157.2960 H   0  0  0  0  0  0  0  0  0  0  0  0  # atno 8008 bound_to 7997
  154.4640  140.2010  156.0119 H   0  0  0  0  0  0  0  0  0  0  0  0  # atno 8009 bound_to 7997
  156.0941  140.3229  155.7859 H   0  0  0  0  0  0  0  0  0  0  0  0  # atno 8010 bound_to 7997
  139.5713  144.6940  151.3772 H   0  0  0  0  0  0  0  0  0  0  0  0  # atno 10167 bound_to 10162
  156.1062  130.6212  150.9214 H   0  0  0  0  0  0  0  0  0  0  0  0  # atno 10718 bound_to 10713
  153.4329  135.3784  155.2182 H   0  0  0  0  0  0  0  0  0  0  0  0  # atno 10763 bound_to 10752
  154.8751  135.3844  154.4245 H   0  0  0  0  0  0  0  0  0  0  0  0  # atno 10764 bound_to 10752
  153.4780  135.7088  153.6017 H   0  0  0  0  0  0  0  0  0  0  0  0  # atno 10765 bound_to 10752
  139.9036  134.9595  156.7171 H   0  0  0  0  0  0  0  0  0  0  0  0  # atno 11005 bound_to 11000
  146.3011  139.7430  142.9090 LP  0  0  0  0  0  0  0  0  0  0  0  0  # atno 17320 bound_to 7965
  145.3906  141.0372  143.3126 LP  0  0  0  0  0  0  0  0  0  0  0  0  # atno 17321 bound_to 7965
  140.6997  143.7662  150.7383 LP  0  0  0  0  0  0  0  0  0  0  0  0  # atno 17342 bound_to 10162
  140.1169  143.4647  152.2336 LP  0  0  0  0  0  0  0  0  0  0  0  0  # atno 17343 bound_to 10162
  157.6239  131.0927  150.8571 LP  0  0  0  0  0  0  0  0  0  0  0  0  # atno 17370 bound_to 10713
  156.8689  130.5139  149.5298 LP  0  0  0  0  0  0  0  0  0  0  0  0  # atno 17371 bound_to 10713
  140.7030  133.9290  155.8036 LP  0  0  0  0  0  0  0  0  0  0  0  0  # atno 17394 bound_to 11000
  141.0358  134.0692  157.3961 LP  0  0  0  0  0  0  0  0  0  0  0  0  # atno 17395 bound_to 11000

$$$$
