AV-unprocessed.smi:2344|AV-procd|sdf|9357|dock4
  -GOLD-   2272012583D 1   1.00000     0.00000
 Structure written by MMmdl.
 35 36  0  0  0  0  0  0  0  0  1 V2000
  153.1356  143.1040  162.4386 C   0  0  0  0  0  0  0  0  0  0  0  0
  152.3964  143.0545  161.1180 C   0  0  0  0  0  0  0  0  0  0  0  0
  152.6223  142.0085  160.2040 C   0  0  0  0  0  0  0  0  0  0  0  0
  151.9097  142.0022  158.9896 C   0  0  0  0  0  0  0  0  0  0  0  0
  150.9892  143.0394  158.7177 C   0  0  0  0  0  0  0  0  0  0  0  0
  150.3245  142.9405  157.4665 N   0  0  0  0  0  0  0  0  0  0  0  0
  150.1456  141.8472  156.7045 C   0  0  0  0  0  0  0  0  0  0  0  0
  150.5534  140.7164  156.9715 O   0  0  0  0  0  0  0  0  0  0  0  0
  149.4516  142.1375  155.5946 N   0  0  0  0  0  0  0  0  0  0  0  0
  149.0800  141.1702  154.5683 C   0  0  2  0  0  0  0  0  0  0  0  0
  147.9736  141.7152  153.7076 C   0  0  0  0  0  0  0  0  0  0  0  0
  146.9077  140.9189  153.6751 C   0  0  0  0  0  0  0  0  0  0  0  0
  147.0774  139.6786  154.5151 C   0  0  2  0  0  0  0  0  0  0  0  0
  145.9540  139.4995  155.5507 C   0  0  0  0  0  0  0  0  0  0  0  0
  144.7131  139.2957  154.9081 O   0  0  0  0  0  0  0  0  0  0  0  0
  148.4741  139.8695  155.1593 C   0  0  0  0  0  0  0  0  0  0  0  0
  150.7776  144.0428  159.6055 N   0  0  0  0  0  0  0  0  0  0  0  0
  151.4605  144.0479  160.7694 C   0  0  0  0  0  0  0  0  0  0  0  0
  149.9362  140.9475  153.9293 H   0  0  0  0  0  0  0  0  0  0  0  0
  147.1006  138.8186  153.8442 H   0  0  0  0  0  0  0  0  0  0  0  0
  154.1897  142.8640  162.2963 H   0  0  0  0  0  0  0  0  0  0  0  0
  152.7090  142.3826  163.1357 H   0  0  0  0  0  0  0  0  0  0  0  0
  153.0713  144.0954  162.8881 H   0  0  0  0  0  0  0  0  0  0  0  0
  153.3293  141.2230  160.4271 H   0  0  0  0  0  0  0  0  0  0  0  0
  152.0716  141.2067  158.2767 H   0  0  0  0  0  0  0  0  0  0  0  0
  149.9327  143.8014  157.1147 H   0  0  0  0  0  0  0  0  0  0  0  0
  149.1537  143.0913  155.4512 H   0  0  0  0  0  0  0  0  0  0  0  0
  148.0675  142.6483  153.1716 H   0  0  0  0  0  0  0  0  0  0  0  0
  146.0080  141.1108  153.1092 H   0  0  0  0  0  0  0  0  0  0  0  0
  146.1592  138.6370  156.1855 H   0  0  0  0  0  0  0  0  0  0  0  0
  145.8821  140.3711  156.2023 H   0  0  0  0  0  0  0  0  0  0  0  0
  144.7053  139.7920  154.1037 H   0  0  0  0  0  0  0  0  0  0  0  0
  149.1181  139.0146  154.9493 H   0  0  0  0  0  0  0  0  0  0  0  0
  148.3901  139.9339  156.2455 H   0  0  0  0  0  0  0  0  0  0  0  0
  151.2515  144.8692  161.4391 H   0  0  0  0  0  0  0  0  0  0  0  0
  1  2  1  0  0  0  0
  1 21  1  0  0  0  0
  1 22  1  0  0  0  0
  1 23  1  0  0  0  0
  2 18  1  0  0  0  0
  2  3  2  0  0  0  0
  3  4  1  0  0  0  0
  3 24  1  0  0  0  0
  4  5  2  0  0  0  0
  4 25  1  0  0  0  0
  5  6  1  0  0  0  0
  5 17  1  0  0  0  0
  6  7  1  0  0  0  0
  6 26  1  0  0  0  0
  7  8  2  0  0  0  0
  7  9  1  0  0  0  0
  9 10  1  0  0  0  0
  9 27  1  0  0  0  0
 10 19  1  0  0  0  0
 10 16  1  0  0  0  0
 10 11  1  0  0  0  0
 11 12  2  0  0  0  0
 11 28  1  0  0  0  0
 12 13  1  0  0  0  0
 12 29  1  0  0  0  0
 13 20  1  0  0  0  0
 13 14  1  0  0  0  0
 13 16  1  0  0  0  0
 14 15  1  0  0  0  0
 14 30  1  0  0  0  0
 14 31  1  0  0  0  0
 15 32  1  0  0  0  0
 16 33  1  0  0  0  0
 16 34  1  0  0  0  0
 17 18  2  0  0  0  0
 18 35  1  0  0  0  0
M  END
> <s_m_source_file>
AV-unprocessed.smi

> <i_m_source_file_index>
2344

> <i_lp_mmshare_version>
43012

> <i_f3d_flags>
0

> <s_epik_input>
W0NIM11jMVtjSF1bY0hdYyhuW2NIXTEpW05IXUMoPU8pW05IXVtDQEBIXTJbQ0hdPVtDSF1bQ0BASF0oW0NIMl0yKVtDSDJdW09IXQ==

> <s_epik_cmdline>
J2VwaWtfcHl0aG9uJywgJy1waCcsICc3LjAnLCAnLXRuJywgJzgnLCAnLW1hJywgJzIwMCcsICctbWV0YWxfYmluZGluZycsICctaW1hZScsICc8aW5maWxlLm1hZT4nLCAnLW9tYWUnLCAnPG91dGZpbGUubWFlPic=

> <r_lp_tautomer_probability>
1

> <r_epik_Ionization_Penalty>
5.7643e-05

> <r_epik_Ionization_Penalty_Charging>
0

> <r_epik_Ionization_Penalty_Neutral>
5.7643e-05

> <r_epik_State_Penalty>
-0

> <r_epik_Charging_Adjusted_Penalty>
0

> <i_epik_Tot_Q>
0

> <i_epik_Tot_abs_Q>
0

> <r_epik_Metal_State_Penalty>
-0

> <b_epik_Metal_Only>
0

> <s_lp_Force_Field>
OPLS_2005

> <r_lp_Energy>
16.9507

> <b_lp_Chiralities_Consistent>
1

> <s_lp_Variant>
AV-unprocessed.smi:2344-1

> <Gold.Version>
5.8.1

> <Gold.Id.Protein>
6NUR|6NUR_protein|mol2

> <Gold.PLP.Fitness>
41.7721

> <Gold.PLP.PLP>
-33.5003

> <Gold.PLP.part.hbond>
-3.0000

> <Gold.PLP.part.metal>
0.0000

> <Gold.PLP.part.buried>
-5.3510

> <Gold.PLP.part.nonpolar>
-25.6834

> <Gold.PLP.part.repulsive>
0.3010

> <Gold.PLP.ligand.clash>
0.0000

> <Gold.PLP.ligand.torsion>
0.3004

> <Gold.PLP.Chemscore.Hbond>
2.9520

> <Gold.PLP.Chemscore.CHOScore>
0.0000

> <Gold.PLP.Chemscore.Metal>
0.0000

> <Gold.Chemscore.Hbonds>
donor molecule, donor type, donor heavy atom, donor atom, acceptor molecule, acceptor atom, score
      L1  H     6    26       P1  8028  0.98
      L1  H     9    27       P1  8028  1.00
      L1  H    15    32       P1 10175  0.97

> <Gold.PLP.Chemscore.Internal.Correction>
0.0166

> <Gold.Rescore>
     Score         DG    S(hbond)    S(metal)    S(lipo)     H(rot)  DE(clash)    DE(int)     intcor
     16.90     -19.88       2.81        0.00      82.75       1.82       0.01       2.98       ----

> <Gold.Chemscore.Fitness>
16.8983

> <Gold.Chemscore.DG>
-19.8802

> <Gold.Chemscore.ZeroCoef>
-5.4800

> <Gold.Chemscore.Hbond>
2.8064

> <Gold.Chemscore.Metal>
0.0000

> <Gold.Chemscore.Lipo>
82.7516

> <Gold.Chemscore.Internal_Hbond>
0.0000

> <Gold.Chemscore.DEClash>
0.0050

> <Gold.Chemscore.DEInternal>
2.9769

> <Gold.Chemscore.Rot>
1.8184

> <Gold.Chemscore.Internal.Correction>
   9.000000E+99

> <Gold.Chemscore.Hbonds>
donor molecule, donor type, donor heavy atom, donor atom, acceptor molecule, acceptor atom, score
      L1  H     6    26       P1  8028  0.83
      L1  H     9    27       P1  8028  1.00
      L1  H    15    32       P1 10175  0.86

> <Gold.Chemscore.Hbond.Weighted>
-9.3734

> <Gold.Chemscore.Metal.Weighted>
-0.0000

> <Gold.Chemscore.Lipo.Weighted>
-9.6819

> <Gold.Chemscore.Internal_Hbond.Weighted>
0.0000

> <Gold.Chemscore.DEClash.Weighted>
0.0050

> <Gold.Chemscore.DEInternal.Weighted>
2.9769

> <Gold.Chemscore.Rot.Weighted>
4.6551

> <Gold.Chemscore.Internal.Correction.Weighted>
   9.000000E+99

> <Gold.Protein.RotatedTorsions>
[ 6907 6896 6895 6894 ] final   17.90 input  -60.11 | X-H torsion
[ 7974 7965 7964 7962 ] final   33.87 input  175.53 | X-H torsion
[ 8008 7997 7996 7995 ] final  -80.58 input   59.86 | X-H torsion
[ 10167 10162 10161 10158 ] final   83.75 input  -65.29 | X-H torsion
[ 10718 10713 10712 10709 ] final  168.09 input   66.30 | X-H torsion
[ 10763 10752 10751 10750 ] final   17.80 input  -60.55 | X-H torsion
[ 11005 11000 10999 10996 ] final   88.13 input  -57.11 | X-H torsion

> <Gold.Protein.ActiveResidues>
 VAL166  LYS551  ARG553  GLY616  TRP617  ASP618  TYR619  PRO620  LYS621  CYS622 
 ASP623  PHE694  ASN695  SER759  ASP760  ASP761  ALA762  ILE779  LEU786  VAL792 
 PHE793  MET794  SER795  GLU796  ALA797  LYS798  CYS799  TRP800  GLU811  SER814 

> <Gold.Protein.RotatedAtoms>
  151.8569  135.0538  160.0464 H   0  0  0  0  0  0  0  0  0  0  0  0  # atno 6907 bound_to 6896
  152.2693  133.5363  159.5438 H   0  0  0  0  0  0  0  0  0  0  0  0  # atno 6908 bound_to 6896
  150.7145  134.0636  159.3882 H   0  0  0  0  0  0  0  0  0  0  0  0  # atno 6909 bound_to 6896
  146.1391  139.6341  142.9175 H   0  0  0  0  0  0  0  0  0  0  0  0  # atno 7974 bound_to 7965
  154.5897  140.0661  156.9221 H   0  0  0  0  0  0  0  0  0  0  0  0  # atno 8008 bound_to 7997
  155.2317  140.3338  155.4284 H   0  0  0  0  0  0  0  0  0  0  0  0  # atno 8009 bound_to 7997
  156.2247  140.1814  156.7376 H   0  0  0  0  0  0  0  0  0  0  0  0  # atno 8010 bound_to 7997
  139.9152  144.6247  150.8497 H   0  0  0  0  0  0  0  0  0  0  0  0  # atno 10167 bound_to 10162
  157.0421  131.0289  151.2709 H   0  0  0  0  0  0  0  0  0  0  0  0  # atno 10718 bound_to 10713
  153.1306  135.6739  153.9184 H   0  0  0  0  0  0  0  0  0  0  0  0  # atno 10763 bound_to 10752
  153.8672  135.3074  155.3442 H   0  0  0  0  0  0  0  0  0  0  0  0  # atno 10764 bound_to 10752
  154.7704  135.4942  153.9719 H   0  0  0  0  0  0  0  0  0  0  0  0  # atno 10765 bound_to 10752
  139.8903  134.8468  156.2957 H   0  0  0  0  0  0  0  0  0  0  0  0  # atno 11005 bound_to 11000
  145.5088  141.0436  143.2499 LP  0  0  0  0  0  0  0  0  0  0  0  0  # atno 17320 bound_to 7965
  144.7772  139.6603  143.7169 LP  0  0  0  0  0  0  0  0  0  0  0  0  # atno 17321 bound_to 7965
  140.7676  143.3337  151.2355 LP  0  0  0  0  0  0  0  0  0  0  0  0  # atno 17342 bound_to 10162
  139.6909  143.9694  152.2858 LP  0  0  0  0  0  0  0  0  0  0  0  0  # atno 17343 bound_to 10162
  157.5096  130.7930  149.7691 LP  0  0  0  0  0  0  0  0  0  0  0  0  # atno 17370 bound_to 10713
  156.0034  130.3868  150.2519 LP  0  0  0  0  0  0  0  0  0  0  0  0  # atno 17371 bound_to 10713
  140.9946  133.7188  156.0866 LP  0  0  0  0  0  0  0  0  0  0  0  0  # atno 17394 bound_to 11000
  140.7579  134.3972  157.5530 LP  0  0  0  0  0  0  0  0  0  0  0  0  # atno 17395 bound_to 11000

$$$$
