AV-unprocessed.smi:3220|AV-procd|sdf|12299|dock8
  -GOLD-   2272018143D 1   1.00000     0.00000
 Structure written by MMmdl.
 33 34  0  0  0  0  0  0  0  0  1 V2000
  150.4533  141.5418  158.2496 C   0  0  0  0  0  0  0  0  0  0  0  0
  151.0249  142.1970  156.9851 C   0  0  2  0  0  0  0  0  0  0  0  0
  151.5616  143.6142  157.2804 C   0  0  0  0  0  0  0  0  0  0  0  0
  152.0270  143.7662  158.6476 N   0  0  0  0  0  0  0  0  0  0  0  0
  151.7653  144.7898  159.5341 C   0  0  0  0  0  0  0  0  0  0  0  0
  152.4322  144.5053  160.6911 C   0  0  0  0  0  0  0  0  0  0  0  0
  153.0780  143.2682  160.4130 C   0  0  0  0  0  0  0  0  0  0  0  0
  152.8300  142.8262  159.1908 N   0  0  0  0  0  0  0  0  0  0  0  0
  149.9817  142.2396  155.9608 N   0  0  0  0  0  0  0  0  0  0  0  0
  149.8345  141.3657  154.9524 C   0  0  0  0  0  0  0  0  0  0  0  0
  150.5672  140.3901  154.7862 O   0  0  0  0  0  0  0  0  0  0  0  0
  148.6837  141.6398  153.9791 C   0  0  1  0  0  0  0  0  0  0  0  0
  147.5830  140.5629  154.0055 C   0  0  0  0  0  0  0  0  0  0  0  0
  146.3934  141.2770  154.6174 C   0  0  0  0  0  0  0  0  0  0  0  0
  146.6465  142.7192  154.2033 C   0  0  0  0  0  0  0  0  0  0  0  0
  148.0484  142.8554  154.3699 O   0  0  0  0  0  0  0  0  0  0  0  0
  151.2097  141.4740  159.0320 H   0  0  0  0  0  0  0  0  0  0  0  0
  150.1038  140.5296  158.0432 H   0  0  0  0  0  0  0  0  0  0  0  0
  149.6127  142.1110  158.6482 H   0  0  0  0  0  0  0  0  0  0  0  0
  151.8529  141.5712  156.6468 H   0  0  0  0  0  0  0  0  0  0  0  0
  152.3792  143.8638  156.6025 H   0  0  0  0  0  0  0  0  0  0  0  0
  150.7792  144.3548  157.1079 H   0  0  0  0  0  0  0  0  0  0  0  0
  151.1403  145.6294  159.2678 H   0  0  0  0  0  0  0  0  0  0  0  0
  152.4570  145.0919  161.5974 H   0  0  0  0  0  0  0  0  0  0  0  0
  153.7146  142.6816  161.0587 H   0  0  0  0  0  0  0  0  0  0  0  0
  149.3244  143.0040  156.0166 H   0  0  0  0  0  0  0  0  0  0  0  0
  149.0648  141.7500  152.9623 H   0  0  0  0  0  0  0  0  0  0  0  0
  147.3488  140.2536  152.9863 H   0  0  0  0  0  0  0  0  0  0  0  0
  147.8507  139.6647  154.5643 H   0  0  0  0  0  0  0  0  0  0  0  0
  145.4353  140.8925  154.2669 H   0  0  0  0  0  0  0  0  0  0  0  0
  146.4222  141.1903  155.7045 H   0  0  0  0  0  0  0  0  0  0  0  0
  146.3846  142.8769  153.1560 H   0  0  0  0  0  0  0  0  0  0  0  0
  146.0969  143.4378  154.8116 H   0  0  0  0  0  0  0  0  0  0  0  0
  1  2  1  0  0  0  0
  1 17  1  0  0  0  0
  1 18  1  0  0  0  0
  1 19  1  0  0  0  0
  2  3  1  0  0  0  0
  2  9  1  0  0  0  0
  2 20  1  0  0  0  0
  3  4  1  0  0  0  0
  3 21  1  0  0  0  0
  3 22  1  0  0  0  0
  4  8  1  0  0  0  0
  4  5  1  0  0  0  0
  5  6  2  0  0  0  0
  5 23  1  0  0  0  0
  6  7  1  0  0  0  0
  6 24  1  0  0  0  0
  7  8  2  0  0  0  0
  7 25  1  0  0  0  0
  9 10  1  0  0  0  0
  9 26  1  0  0  0  0
 10 11  2  0  0  0  0
 10 12  1  0  0  0  0
 12 16  1  0  0  0  0
 12 13  1  0  0  0  0
 12 27  1  0  0  0  0
 13 14  1  0  0  0  0
 13 28  1  0  0  0  0
 13 29  1  0  0  0  0
 14 15  1  0  0  0  0
 14 30  1  0  0  0  0
 14 31  1  0  0  0  0
 15 16  1  0  0  0  0
 15 32  1  0  0  0  0
 15 33  1  0  0  0  0
M  END
> <s_m_source_file>
AV-unprocessed.smi

> <i_m_source_file_index>
3220

> <i_lp_mmshare_version>
43012

> <i_f3d_flags>
0

> <s_epik_input>
bjFbY0hdW2NIXVtjSF1uMVtDSDJdW0NAQEhdKFtDSDNdKVtOSF1DKD1PKVtDQEBIXTJbQ0gyXVtDSDJdW0NIMl1PMg==

> <s_epik_cmdline>
J2VwaWtfcHl0aG9uJywgJy1waCcsICc3LjAnLCAnLXRuJywgJzgnLCAnLW1hJywgJzIwMCcsICctbWV0YWxfYmluZGluZycsICctaW1hZScsICc8aW5maWxlLm1hZT4nLCAnLW9tYWUnLCAnPG91dGZpbGUubWFlPic=

> <r_lp_tautomer_probability>
1

> <r_epik_Ionization_Penalty>
0.00033363

> <r_epik_Ionization_Penalty_Charging>
0

> <r_epik_Ionization_Penalty_Neutral>
0.00033363

> <r_epik_State_Penalty>
-0

> <r_epik_Charging_Adjusted_Penalty>
0

> <i_epik_Tot_Q>
0

> <i_epik_Tot_abs_Q>
0

> <r_epik_Metal_State_Penalty>
-0

> <b_epik_Metal_Only>
0

> <s_lp_Force_Field>
OPLS_2005

> <r_lp_Energy>
17.4241

> <b_lp_Chiralities_Consistent>
1

> <s_lp_Variant>
AV-unprocessed.smi:3220-3

> <Gold.Version>
5.8.1

> <Gold.Id.Protein>
6NUR|6NUR_protein|mol2

> <Gold.PLP.Fitness>
41.7806

> <Gold.PLP.PLP>
-34.5106

> <Gold.PLP.part.hbond>
-4.0000

> <Gold.PLP.part.metal>
0.0000

> <Gold.PLP.part.buried>
-2.1983

> <Gold.PLP.part.nonpolar>
-31.5222

> <Gold.PLP.part.repulsive>
4.8267

> <Gold.PLP.ligand.clash>
0.0000

> <Gold.PLP.ligand.torsion>
0.8642

> <Gold.PLP.Chemscore.Hbond>
2.9920

> <Gold.PLP.Chemscore.CHOScore>
0.0000

> <Gold.PLP.Chemscore.Metal>
0.0000

> <Gold.Chemscore.Hbonds>
donor molecule, donor type, donor heavy atom, donor atom, acceptor molecule, acceptor atom, score
      L1  H     9    26       P1  8028  1.00
      P1  H  7989  7998       L1    11  1.00
      P1  H  8022  8030       L1    16  0.78

> <Gold.PLP.Chemscore.Internal.Correction>
0.0223

> <Gold.Rescore>
     Score         DG    S(hbond)    S(metal)    S(lipo)     H(rot)  DE(clash)    DE(int)     intcor
     14.69     -19.02       2.24        0.00      87.22       1.62       3.79       0.54       ----

> <Gold.Chemscore.Fitness>
14.6912

> <Gold.Chemscore.DG>
-19.0218

> <Gold.Chemscore.ZeroCoef>
-5.4800

> <Gold.Chemscore.Hbond>
2.2422

> <Gold.Chemscore.Metal>
0.0000

> <Gold.Chemscore.Lipo>
87.2214

> <Gold.Chemscore.Internal_Hbond>
0.0000

> <Gold.Chemscore.DEClash>
3.7897

> <Gold.Chemscore.DEInternal>
0.5409

> <Gold.Chemscore.Rot>
1.6219

> <Gold.Chemscore.Internal.Correction>
   9.000000E+99

> <Gold.Chemscore.Hbonds>
donor molecule, donor type, donor heavy atom, donor atom, acceptor molecule, acceptor atom, score
      L1  H     9    26       P1  8028  0.94
      P1  H  7989  7998       L1    11  0.44
      P1  H  8022  8030       L1    16  0.45

> <Gold.Chemscore.Hbond.Weighted>
-7.4888

> <Gold.Chemscore.Metal.Weighted>
-0.0000

> <Gold.Chemscore.Lipo.Weighted>
-10.2049

> <Gold.Chemscore.Internal_Hbond.Weighted>
0.0000

> <Gold.Chemscore.DEClash.Weighted>
3.7897

> <Gold.Chemscore.DEInternal.Weighted>
0.5409

> <Gold.Chemscore.Rot.Weighted>
4.1520

> <Gold.Chemscore.Internal.Correction.Weighted>
   9.000000E+99

> <Gold.Protein.RotatedTorsions>
[ 6907 6896 6895 6894 ] final  -74.55 input  -60.11 | X-H torsion
[ 7974 7965 7964 7962 ] final  -82.29 input  175.53 | X-H torsion
[ 8008 7997 7996 7995 ] final  138.95 input   59.86 | X-H torsion
[ 10167 10162 10161 10158 ] final  -97.08 input  -65.29 | X-H torsion
[ 10718 10713 10712 10709 ] final -100.26 input   66.30 | X-H torsion
[ 10763 10752 10751 10750 ] final  -65.85 input  -60.55 | X-H torsion
[ 11005 11000 10999 10996 ] final   41.85 input  -57.11 | X-H torsion

> <Gold.Protein.ActiveResidues>
 VAL166  LYS551  ARG553  GLY616  TRP617  ASP618  TYR619  PRO620  LYS621  CYS622 
 ASP623  PHE694  ASN695  SER759  ASP760  ASP761  ALA762  ILE779  LEU786  VAL792 
 PHE793  MET794  SER795  GLU796  ALA797  LYS798  CYS799  TRP800  GLU811  SER814 

> <Gold.Protein.RotatedAtoms>
  150.7089  134.4852  159.5489 H   0  0  0  0  0  0  0  0  0  0  0  0  # atno 6907 bound_to 6896
  152.2481  134.8157  160.0459 H   0  0  0  0  0  0  0  0  0  0  0  0  # atno 6908 bound_to 6896
  151.8915  133.3482  159.3836 H   0  0  0  0  0  0  0  0  0  0  0  0  # atno 6909 bound_to 6896
  145.5353  140.9516  143.1581 H   0  0  0  0  0  0  0  0  0  0  0  0  # atno 7974 bound_to 7965
  156.2993  140.2380  156.4158 H   0  0  0  0  0  0  0  0  0  0  0  0  # atno 8008 bound_to 7997
  154.8400  140.0429  157.1555 H   0  0  0  0  0  0  0  0  0  0  0  0  # atno 8009 bound_to 7997
  154.9113  140.2991  155.5268 H   0  0  0  0  0  0  0  0  0  0  0  0  # atno 8010 bound_to 7997
  140.2872  143.3244  152.0383 H   0  0  0  0  0  0  0  0  0  0  0  0  # atno 10167 bound_to 10162
  156.0158  130.5320  150.6791 H   0  0  0  0  0  0  0  0  0  0  0  0  # atno 10718 bound_to 10713
  154.3511  135.6136  153.5643 H   0  0  0  0  0  0  0  0  0  0  0  0  # atno 10763 bound_to 10752
  152.9798  135.5792  154.4742 H   0  0  0  0  0  0  0  0  0  0  0  0  # atno 10764 bound_to 10752
  154.4464  135.2851  155.1789 H   0  0  0  0  0  0  0  0  0  0  0  0  # atno 10765 bound_to 10752
  140.1795  134.4122  155.8209 H   0  0  0  0  0  0  0  0  0  0  0  0  # atno 11005 bound_to 11000
  144.7605  139.6969  143.7236 LP  0  0  0  0  0  0  0  0  0  0  0  0  # atno 17320 bound_to 7965
  146.2017  139.5316  142.9739 LP  0  0  0  0  0  0  0  0  0  0  0  0  # atno 17321 bound_to 7965
  139.4947  144.6551  151.6591 LP  0  0  0  0  0  0  0  0  0  0  0  0  # atno 17342 bound_to 10162
  140.5763  144.0023  150.6243 LP  0  0  0  0  0  0  0  0  0  0  0  0  # atno 17343 bound_to 10162
  157.4498  131.0871  151.0858 LP  0  0  0  0  0  0  0  0  0  0  0  0  # atno 17370 bound_to 10713
  157.1377  130.6129  149.5546 LP  0  0  0  0  0  0  0  0  0  0  0  0  # atno 17371 bound_to 10713
  141.2222  133.6993  156.7905 LP  0  0  0  0  0  0  0  0  0  0  0  0  # atno 17394 bound_to 11000
  140.2284  134.8704  157.3451 LP  0  0  0  0  0  0  0  0  0  0  0  0  # atno 17395 bound_to 11000

$$$$
