AV-unprocessed.smi:1265|AV-procd|sdf|5317|dock9
  -GOLD-   22720 4443D 1   1.00000     0.00000
 Structure written by MMmdl.
 45 47  0  0  0  0  0  0  0  0  2 V2000
  145.7956  137.7821  154.8516 O   0  0  0  0  0  0  0  0  0  0  0  0
  146.7193  137.4164  154.1260 C   0  0  0  0  0  0  0  0  0  0  0  0
  146.7613  136.2171  153.5288 N   0  0  0  0  0  0  0  0  0  0  0  0
  145.7539  135.1635  153.6474 C   0  0  0  0  0  0  0  0  0  0  0  0
  144.3683  135.5891  153.0583 C   0  0  1  0  0  0  0  0  0  0  0  0
  143.6675  136.5200  153.9966 N   0  0  0  0  0  0  0  0  0  0  0  0
  142.3992  137.0885  153.5163 C   0  0  0  0  0  0  0  0  0  0  0  0
  141.7905  138.0918  154.5113 C   0  0  0  0  0  0  0  0  0  0  0  0
  141.6087  137.4683  155.7752 O   0  0  0  0  0  0  0  0  0  0  0  0
  142.8300  136.9774  156.3100 C   0  0  0  0  0  0  0  0  0  0  0  0
  143.4480  135.9593  155.3372 C   0  0  0  0  0  0  0  0  0  0  0  0
  144.6166  136.2032  151.6497 C   0  0  0  0  0  0  0  0  0  0  0  0
  145.0313  135.0915  150.6796 C   0  0  0  0  0  0  0  0  0  0  0  0
  144.1787  133.5822  151.1941 S   0  0  0  0  0  0  0  0  0  0  0  0
  143.5626  134.3030  152.7412 C   0  0  0  0  0  0  0  0  0  0  0  0
  147.8070  138.1445  153.8184 N   0  0  0  0  0  0  0  0  0  0  0  0
  148.1502  139.4678  154.2130 C   0  0  0  0  0  0  0  0  0  0  0  0
  147.1078  140.4214  154.2420 C   0  0  0  0  0  0  0  0  0  0  0  0
  147.3875  141.7510  154.6179 C   0  0  0  0  0  0  0  0  0  0  0  0
  148.6486  142.1062  154.9423 N   0  3  0  0  0  0  0  0  0  0  0  0
  149.6798  141.2351  154.9211 C   0  0  0  0  0  0  0  0  0  0  0  0
  149.4615  139.8920  154.5521 C   0  0  0  0  0  0  0  0  0  0  0  0
  147.5645  136.0003  152.9569 H   0  0  0  0  0  0  0  0  0  0  0  0
  146.1170  134.2399  153.1975 H   0  0  0  0  0  0  0  0  0  0  0  0
  145.6685  134.9083  154.7027 H   0  0  0  0  0  0  0  0  0  0  0  0
  142.5396  137.6281  152.5828 H   0  0  0  0  0  0  0  0  0  0  0  0
  141.6710  136.3006  153.3273 H   0  0  0  0  0  0  0  0  0  0  0  0
  142.4321  138.9680  154.6178 H   0  0  0  0  0  0  0  0  0  0  0  0
  140.8252  138.4451  154.1482 H   0  0  0  0  0  0  0  0  0  0  0  0
  143.5173  137.8053  156.4918 H   0  0  0  0  0  0  0  0  0  0  0  0
  142.6328  136.5080  157.2738 H   0  0  0  0  0  0  0  0  0  0  0  0
  142.7954  135.0877  155.2746 H   0  0  0  0  0  0  0  0  0  0  0  0
  144.3822  135.6209  155.7793 H   0  0  0  0  0  0  0  0  0  0  0  0
  143.7008  136.6151  151.2320 H   0  0  0  0  0  0  0  0  0  0  0  0
  145.3398  137.0183  151.6622 H   0  0  0  0  0  0  0  0  0  0  0  0
  144.7831  135.3413  149.6478 H   0  0  0  0  0  0  0  0  0  0  0  0
  146.1071  134.9212  150.7211 H   0  0  0  0  0  0  0  0  0  0  0  0
  143.6116  133.5681  153.5452 H   0  0  0  0  0  0  0  0  0  0  0  0
  142.5089  134.5213  152.5766 H   0  0  0  0  0  0  0  0  0  0  0  0
  148.4544  137.7081  153.1785 H   0  0  0  0  0  0  0  0  0  0  0  0
  146.0976  140.1393  153.9819 H   0  0  0  0  0  0  0  0  0  0  0  0
  146.6459  142.5349  154.6667 H   0  0  0  0  0  0  0  0  0  0  0  0
  150.6449  141.6368  155.1936 H   0  0  0  0  0  0  0  0  0  0  0  0
  150.3083  139.2246  154.5310 H   0  0  0  0  0  0  0  0  0  0  0  0
  148.8309  143.0737  155.2112 H   0  0  0  0  0  0  0  0  0  0  0  0
  1  2  2  0  0  0  0
  2  3  1  0  0  0  0
  2 16  1  0  0  0  0
  3  4  1  0  0  0  0
  3 23  1  0  0  0  0
  4  5  1  0  0  0  0
  4 24  1  0  0  0  0
  4 25  1  0  0  0  0
  5 15  1  0  0  0  0
  5  6  1  0  0  0  0
  5 12  1  0  0  0  0
  6 11  1  0  0  0  0
  6  7  1  0  0  0  0
  7  8  1  0  0  0  0
  7 26  1  0  0  0  0
  7 27  1  0  0  0  0
  8  9  1  0  0  0  0
  8 28  1  0  0  0  0
  8 29  1  0  0  0  0
  9 10  1  0  0  0  0
 10 11  1  0  0  0  0
 10 30  1  0  0  0  0
 10 31  1  0  0  0  0
 11 32  1  0  0  0  0
 11 33  1  0  0  0  0
 12 13  1  0  0  0  0
 12 34  1  0  0  0  0
 12 35  1  0  0  0  0
 13 14  1  0  0  0  0
 13 36  1  0  0  0  0
 13 37  1  0  0  0  0
 14 15  1  0  0  0  0
 15 38  1  0  0  0  0
 15 39  1  0  0  0  0
 16 17  1  0  0  0  0
 16 40  1  0  0  0  0
 17 22  1  0  0  0  0
 17 18  2  0  0  0  0
 18 19  1  0  0  0  0
 18 41  1  0  0  0  0
 19 20  2  0  0  0  0
 19 42  1  0  0  0  0
 20 21  1  0  0  0  0
 20 45  1  0  0  0  0
 21 22  2  0  0  0  0
 21 43  1  0  0  0  0
 22 44  1  0  0  0  0
M  CHG  1  20   1
M  END
> <s_m_source_file>
AV-unprocessed.smi

> <i_m_source_file_index>
1265

> <i_lp_mmshare_version>
43012

> <i_f3d_flags>
0

> <s_epik_input>
W2NIXTFbY0hdbltjSF1bY0hdYzFbTkhdQyg9TylbTkhdW0NIMl1bQ0BdMihbQ0gyXVtDSDJdU1tDSDJdMilOM1tDSDJdW0NIMl1PW0NIMl1bQ0gyXTM=

> <s_epik_cmdline>
J2VwaWtfcHl0aG9uJywgJy1waCcsICc3LjAnLCAnLXRuJywgJzgnLCAnLW1hJywgJzIwMCcsICctbWV0YWxfYmluZGluZycsICctaW1hZScsICc8aW5maWxlLm1hZT4nLCAnLW9tYWUnLCAnPG91dGZpbGUubWFlPic=

> <r_epik_Ionization_Penalty>
1.06168

> <r_epik_Ionization_Penalty_Charging>
1.04215

> <r_epik_Ionization_Penalty_Neutral>
0.019527

> <r_epik_State_Penalty>
1.12733

> <r_epik_Charging_Adjusted_Penalty>
2.16948

> <i_epik_Tot_Q>
1

> <i_epik_Tot_abs_Q>
1

> <r_epik_Metal_State_Penalty>
1.22116

> <b_epik_Metal_Only>
0

> <s_lp_Force_Field>
OPLS_2005

> <r_lp_Energy>
64.97

> <b_lp_Chiralities_Consistent>
1

> <s_lp_Variant>
AV-unprocessed.smi:1265-3

> <Gold.Version>
5.8.1

> <Gold.Id.Protein>
6NUR|6NUR_protein|mol2

> <Gold.PLP.Fitness>
41.6487

> <Gold.PLP.PLP>
-30.6623

> <Gold.PLP.part.hbond>
-3.0000

> <Gold.PLP.part.metal>
0.0000

> <Gold.PLP.part.buried>
-3.1033

> <Gold.PLP.part.nonpolar>
-24.3999

> <Gold.PLP.part.repulsive>
0.7229

> <Gold.PLP.ligand.clash>
0.0000

> <Gold.PLP.ligand.torsion>
0.5341

> <Gold.PLP.Chemscore.Hbond>
3.9920

> <Gold.PLP.Chemscore.CHOScore>
0.0000

> <Gold.PLP.Chemscore.Metal>
0.0000

> <Gold.Chemscore.Hbonds>
donor molecule, donor type, donor heavy atom, donor atom, acceptor molecule, acceptor atom, score
      L1  H     3    23       P1  7948  1.00
      L1  H    16    40       P1  7948  1.00
      L1  H    20    45       P1  8028  2.00

> <Gold.PLP.Chemscore.Internal.Correction>
0.0785

> <Gold.Rescore>
     Score         DG    S(hbond)    S(metal)    S(lipo)     H(rot)  DE(clash)    DE(int)     intcor
     16.84     -20.29       2.98        0.00      73.80       1.47       0.39       3.06       ----

> <Gold.Chemscore.Fitness>
16.8416

> <Gold.Chemscore.DG>
-20.2853

> <Gold.Chemscore.ZeroCoef>
-5.4800

> <Gold.Chemscore.Hbond>
2.9776

> <Gold.Chemscore.Metal>
0.0000

> <Gold.Chemscore.Lipo>
73.7972

> <Gold.Chemscore.Internal_Hbond>
0.0000

> <Gold.Chemscore.DEClash>
0.3852

> <Gold.Chemscore.DEInternal>
3.0585

> <Gold.Chemscore.Rot>
1.4743

> <Gold.Chemscore.Internal.Correction>
   9.000000E+99

> <Gold.Chemscore.Hbonds>
donor molecule, donor type, donor heavy atom, donor atom, acceptor molecule, acceptor atom, score
      L1  H     3    23       P1  7948  1.00
      L1  H    16    40       P1  7948  0.91
      L1  H    20    45       P1  8028  1.00

> <Gold.Chemscore.Hbond.Weighted>
-9.9453

> <Gold.Chemscore.Metal.Weighted>
-0.0000

> <Gold.Chemscore.Lipo.Weighted>
-8.6343

> <Gold.Chemscore.Internal_Hbond.Weighted>
0.0000

> <Gold.Chemscore.DEClash.Weighted>
0.3852

> <Gold.Chemscore.DEInternal.Weighted>
3.0585

> <Gold.Chemscore.Rot.Weighted>
3.7742

> <Gold.Chemscore.Internal.Correction.Weighted>
   9.000000E+99

> <Gold.Protein.RotatedTorsions>
[ 6907 6896 6895 6894 ] final   85.62 input  -60.11 | X-H torsion
[ 7974 7965 7964 7962 ] final   58.76 input  175.53 | X-H torsion
[ 8008 7997 7996 7995 ] final   34.81 input   59.86 | X-H torsion
[ 10167 10162 10161 10158 ] final  173.34 input  -65.29 | X-H torsion
[ 10718 10713 10712 10709 ] final  148.11 input   66.30 | X-H torsion
[ 10763 10752 10751 10750 ] final   33.53 input  -60.55 | X-H torsion
[ 11005 11000 10999 10996 ] final    6.93 input  -57.11 | X-H torsion

> <Gold.Protein.ActiveResidues>
 VAL166  LYS551  ARG553  GLY616  TRP617  ASP618  TYR619  PRO620  LYS621  CYS622 
 ASP623  PHE694  ASN695  SER759  ASP760  ASP761  ALA762  ILE779  LEU786  VAL792 
 PHE793  MET794  SER795  GLU796  ALA797  LYS798  CYS799  TRP800  GLU811  SER814 

> <Gold.Protein.RotatedAtoms>
  152.5378  134.2558  159.8916 H   0  0  0  0  0  0  0  0  0  0  0  0  # atno 6907 bound_to 6896
  151.2520  133.4338  159.2619 H   0  0  0  0  0  0  0  0  0  0  0  0  # atno 6908 bound_to 6896
  151.0530  134.9700  159.8278 H   0  0  0  0  0  0  0  0  0  0  0  0  # atno 6909 bound_to 6896
  145.9147  139.3681  143.0514 H   0  0  0  0  0  0  0  0  0  0  0  0  # atno 7974 bound_to 7965
  155.1608  140.3283  155.4412 H   0  0  0  0  0  0  0  0  0  0  0  0  # atno 8008 bound_to 7997
  156.2543  140.1960  156.6666 H   0  0  0  0  0  0  0  0  0  0  0  0  # atno 8009 bound_to 7997
  154.6406  140.0571  156.9827 H   0  0  0  0  0  0  0  0  0  0  0  0  # atno 8010 bound_to 7997
  139.5105  144.3272  152.0146 H   0  0  0  0  0  0  0  0  0  0  0  0  # atno 10167 bound_to 10162
  157.3127  131.0890  151.1304 H   0  0  0  0  0  0  0  0  0  0  0  0  # atno 10718 bound_to 10713
  153.0207  135.6384  154.1526 H   0  0  0  0  0  0  0  0  0  0  0  0  # atno 10763 bound_to 10752
  154.1261  135.2843  155.3198 H   0  0  0  0  0  0  0  0  0  0  0  0  # atno 10764 bound_to 10752
  154.6228  135.5519  153.7656 H   0  0  0  0  0  0  0  0  0  0  0  0  # atno 10765 bound_to 10752
  140.5539  134.0257  155.7947 H   0  0  0  0  0  0  0  0  0  0  0  0  # atno 11005 bound_to 11000
  145.8627  140.9466  143.0692 LP  0  0  0  0  0  0  0  0  0  0  0  0  # atno 17320 bound_to 7965
  144.6746  140.0551  143.7477 LP  0  0  0  0  0  0  0  0  0  0  0  0  # atno 17321 bound_to 7965
  140.2713  144.3961  150.6150 LP  0  0  0  0  0  0  0  0  0  0  0  0  # atno 17342 bound_to 10162
  140.6086  143.2168  151.6930 LP  0  0  0  0  0  0  0  0  0  0  0  0  # atno 17343 bound_to 10162
  157.2619  130.6663  149.5979 LP  0  0  0  0  0  0  0  0  0  0  0  0  # atno 17370 bound_to 10713
  155.9679  130.4506  150.5702 LP  0  0  0  0  0  0  0  0  0  0  0  0  # atno 17371 bound_to 10713
  141.1155  133.9547  157.2830 LP  0  0  0  0  0  0  0  0  0  0  0  0  # atno 17394 bound_to 11000
  139.9441  135.0187  156.8799 LP  0  0  0  0  0  0  0  0  0  0  0  0  # atno 17395 bound_to 11000

$$$$
