AV-unprocessed.smi:1535|AV-procd|sdf|6175|dock2
  -GOLD-   22720 6323D 1   1.00000     0.00000
 Structure written by MMmdl.
 47 48  0  0  0  0  0  0  0  0  2 V2000
  151.7621  144.9552  160.5963 C   0  0  0  0  0  0  0  0  0  0  0  0
  151.7353  143.8053  159.6037 C   0  0  0  0  0  0  0  0  0  0  0  0
  150.9362  143.9333  158.4451 C   0  0  0  0  0  0  0  0  0  0  0  0
  150.9301  142.8640  157.5573 C   0  0  0  0  0  0  0  0  0  0  0  0
  150.2564  142.6827  156.3475 N   0  3  0  0  0  0  0  0  0  0  0  0
  150.5645  141.4592  155.8348 C   0  0  0  0  0  0  0  0  0  0  0  0
  151.4249  140.8568  156.7002 N   0  0  0  0  0  0  0  0  0  0  0  0
  152.0601  139.5334  156.6341 C   0  0  0  0  0  0  0  0  0  0  0  0
  152.2239  139.0159  155.1910 C   0  0  1  0  0  0  0  0  0  0  0  0
  153.5664  138.6164  154.9923 O   0  0  0  0  0  0  0  0  0  0  0  0
  151.3074  137.8059  154.9157 C   0  0  0  0  0  0  0  0  0  0  0  0
  150.8494  137.0772  156.1041 N   0  0  0  0  0  0  0  0  0  0  0  0
  151.9745  136.5388  156.8637 C   0  0  0  0  0  0  0  0  0  0  0  0
  149.9254  135.9936  155.7603 C   0  0  0  0  0  0  0  0  0  0  0  0
  150.5809  134.6544  155.3663 C   0  0  2  0  0  0  0  0  0  0  0  0
  149.7721  133.9035  154.2986 C   0  0  0  0  0  0  0  0  0  0  0  0
  150.7681  133.8075  156.5551 C   0  0  0  0  0  0  0  0  0  0  0  0
  150.9154  133.1417  157.4897 N   0  0  0  0  0  0  0  0  0  0  0  0
  151.6840  141.6971  157.7882 C   0  0  0  0  0  0  0  0  0  0  0  0
  152.4795  141.5555  158.9225 C   0  0  0  0  0  0  0  0  0  0  0  0
  152.4978  142.6316  159.8387 C   0  0  0  0  0  0  0  0  0  0  0  0
  153.3539  142.5054  161.0875 C   0  0  0  0  0  0  0  0  0  0  0  0
  151.0987  145.7639  160.2884 H   0  0  0  0  0  0  0  0  0  0  0  0
  152.7692  145.3639  160.6805 H   0  0  0  0  0  0  0  0  0  0  0  0
  151.4401  144.6198  161.5821 H   0  0  0  0  0  0  0  0  0  0  0  0
  150.3542  144.8240  158.2586 H   0  0  0  0  0  0  0  0  0  0  0  0
  150.1900  141.0409  154.9118 H   0  0  0  0  0  0  0  0  0  0  0  0
  153.0327  139.6129  157.1220 H   0  0  0  0  0  0  0  0  0  0  0  0
  151.4683  138.8396  157.2326 H   0  0  0  0  0  0  0  0  0  0  0  0
  152.0093  139.8342  154.5063 H   0  0  0  0  0  0  0  0  0  0  0  0
  153.6554  138.2912  154.1097 H   0  0  0  0  0  0  0  0  0  0  0  0
  150.4564  138.1701  154.3430 H   0  0  0  0  0  0  0  0  0  0  0  0
  151.8231  137.1084  154.2538 H   0  0  0  0  0  0  0  0  0  0  0  0
  151.6228  135.9869  157.7360 H   0  0  0  0  0  0  0  0  0  0  0  0
  152.6255  137.3282  157.2354 H   0  0  0  0  0  0  0  0  0  0  0  0
  152.5732  135.8595  156.2554 H   0  0  0  0  0  0  0  0  0  0  0  0
  149.2382  135.8276  156.5917 H   0  0  0  0  0  0  0  0  0  0  0  0
  149.3021  136.3070  154.9213 H   0  0  0  0  0  0  0  0  0  0  0  0
  151.5866  134.8235  154.9857 H   0  0  0  0  0  0  0  0  0  0  0  0
  150.2471  132.9553  154.0454 H   0  0  0  0  0  0  0  0  0  0  0  0
  149.6910  134.4849  153.3799 H   0  0  0  0  0  0  0  0  0  0  0  0
  148.7622  133.6870  154.6481 H   0  0  0  0  0  0  0  0  0  0  0  0
  153.0580  140.6613  159.1011 H   0  0  0  0  0  0  0  0  0  0  0  0
  153.8779  141.5496  161.1176 H   0  0  0  0  0  0  0  0  0  0  0  0
  152.7368  142.5746  161.9834 H   0  0  0  0  0  0  0  0  0  0  0  0
  154.1030  143.2969  161.1198 H   0  0  0  0  0  0  0  0  0  0  0  0
  149.6299  143.3418  155.9037 H   0  0  0  0  0  0  0  0  0  0  0  0
  1  2  1  0  0  0  0
  1 23  1  0  0  0  0
  1 24  1  0  0  0  0
  1 25  1  0  0  0  0
  2 21  1  0  0  0  0
  2  3  2  0  0  0  0
  3  4  1  0  0  0  0
  3 26  1  0  0  0  0
  4 19  2  0  0  0  0
  4  5  1  0  0  0  0
  5  6  2  0  0  0  0
  5 47  1  0  0  0  0
  6  7  1  0  0  0  0
  6 27  1  0  0  0  0
  7  8  1  0  0  0  0
  7 19  1  0  0  0  0
  8  9  1  0  0  0  0
  8 28  1  0  0  0  0
  8 29  1  0  0  0  0
  9 10  1  0  0  0  0
  9 11  1  0  0  0  0
  9 30  1  0  0  0  0
 10 31  1  0  0  0  0
 11 12  1  0  0  0  0
 11 32  1  0  0  0  0
 11 33  1  0  0  0  0
 12 13  1  0  0  0  0
 12 14  1  0  0  0  0
 13 34  1  0  0  0  0
 13 35  1  0  0  0  0
 13 36  1  0  0  0  0
 14 15  1  0  0  0  0
 14 37  1  0  0  0  0
 14 38  1  0  0  0  0
 15 16  1  0  0  0  0
 15 17  1  0  0  0  0
 15 39  1  0  0  0  0
 16 40  1  0  0  0  0
 16 41  1  0  0  0  0
 16 42  1  0  0  0  0
 17 18  3  0  0  0  0
 19 20  1  0  0  0  0
 20 21  2  0  0  0  0
 20 43  1  0  0  0  0
 21 22  1  0  0  0  0
 22 44  1  0  0  0  0
 22 45  1  0  0  0  0
 22 46  1  0  0  0  0
M  CHG  1   5   1
M  END
> <s_m_source_file>
AV-unprocessed.smi

> <i_m_source_file_index>
1535

> <i_lp_mmshare_version>
43012

> <i_f3d_flags>
0

> <s_epik_input>
W0NIM11jKFtjSF0xKWMoW0NIM10pW2NIXWMoYzEyKW4oW2NIXW4yKVtDSDJdW0NASF0oW09IXSlbQ0gyXU4oW0NIM10pW0NIMl1bQ0BIXShbQ0gzXSlDI04=

> <s_epik_cmdline>
J2VwaWtfcHl0aG9uJywgJy1waCcsICc3LjAnLCAnLXRuJywgJzgnLCAnLW1hJywgJzIwMCcsICctbWV0YWxfYmluZGluZycsICctaW1hZScsICc8aW5maWxlLm1hZT4nLCAnLW9tYWUnLCAnPG91dGZpbGUubWFlPic=

> <r_epik_Ionization_Penalty>
1.22846

> <r_epik_Ionization_Penalty_Charging>
1.21333

> <r_epik_Ionization_Penalty_Neutral>
0.0151341

> <r_epik_State_Penalty>
1.27012

> <r_epik_Charging_Adjusted_Penalty>
2.48344

> <i_epik_Tot_Q>
1

> <i_epik_Tot_abs_Q>
1

> <r_epik_Metal_State_Penalty>
5.28751

> <b_epik_Metal_Only>
0

> <s_lp_Force_Field>
OPLS_2005

> <r_lp_Energy>
30.2724

> <b_lp_Chiralities_Consistent>
1

> <s_lp_Variant>
AV-unprocessed.smi:1535-6

> <Gold.Version>
5.8.1

> <Gold.Id.Protein>
6NUR|6NUR_protein|mol2

> <Gold.PLP.Fitness>
56.7213

> <Gold.PLP.PLP>
-49.0791

> <Gold.PLP.part.hbond>
-3.0000

> <Gold.PLP.part.metal>
0.0000

> <Gold.PLP.part.buried>
-6.9606

> <Gold.PLP.part.nonpolar>
-39.3712

> <Gold.PLP.part.repulsive>
0.1235

> <Gold.PLP.ligand.clash>
0.0000

> <Gold.PLP.ligand.torsion>
2.2763

> <Gold.PLP.Chemscore.Hbond>
3.8437

> <Gold.PLP.Chemscore.CHOScore>
0.0000

> <Gold.PLP.Chemscore.Metal>
0.0000

> <Gold.Chemscore.Hbonds>
donor molecule, donor type, donor heavy atom, donor atom, acceptor molecule, acceptor atom, score
      L1  H     5    47       P1  8028  2.00
      P1  H  6896  6908       L1    18  0.93
      P1  H  7997  8010       L1    10  0.90

> <Gold.PLP.Chemscore.Internal.Correction>
0.6636

> <Gold.Rescore>
     Score         DG    S(hbond)    S(metal)    S(lipo)     H(rot)  DE(clash)    DE(int)     intcor
     18.29     -20.77       2.21        0.00     124.29       2.59       0.07       2.41       ----

> <Gold.Chemscore.Fitness>
18.2894

> <Gold.Chemscore.DG>
-20.7716

> <Gold.Chemscore.ZeroCoef>
-5.4800

> <Gold.Chemscore.Hbond>
2.2109

> <Gold.Chemscore.Metal>
0.0000

> <Gold.Chemscore.Lipo>
124.2921

> <Gold.Chemscore.Internal_Hbond>
0.0000

> <Gold.Chemscore.DEClash>
0.0732

> <Gold.Chemscore.DEInternal>
2.4090

> <Gold.Chemscore.Rot>
2.5918

> <Gold.Chemscore.Internal.Correction>
   9.000000E+99

> <Gold.Chemscore.Hbonds>
donor molecule, donor type, donor heavy atom, donor atom, acceptor molecule, acceptor atom, score
      L1  H     5    47       P1  8028  0.97
      P1  H  6896  6908       L1    18  0.90
      P1  H  7997  8010       L1    10  0.29

> <Gold.Chemscore.Hbond.Weighted>
-7.3845

> <Gold.Chemscore.Metal.Weighted>
-0.0000

> <Gold.Chemscore.Lipo.Weighted>
-14.5422

> <Gold.Chemscore.Internal_Hbond.Weighted>
0.0000

> <Gold.Chemscore.DEClash.Weighted>
0.0732

> <Gold.Chemscore.DEInternal.Weighted>
2.4090

> <Gold.Chemscore.Rot.Weighted>
6.6351

> <Gold.Chemscore.Internal.Correction.Weighted>
   9.000000E+99

> <Gold.Protein.RotatedTorsions>
[ 6907 6896 6895 6894 ] final  100.42 input  -60.11 | X-H torsion
[ 7974 7965 7964 7962 ] final -121.72 input  175.53 | X-H torsion
[ 8008 7997 7996 7995 ] final  114.79 input   59.86 | X-H torsion
[ 10167 10162 10161 10158 ] final  139.45 input  -65.29 | X-H torsion
[ 10718 10713 10712 10709 ] final  170.99 input   66.30 | X-H torsion
[ 10763 10752 10751 10750 ] final   54.32 input  -60.55 | X-H torsion
[ 11005 11000 10999 10996 ] final  107.55 input  -57.11 | X-H torsion

> <Gold.Protein.ActiveResidues>
 VAL166  LYS551  ARG553  GLY616  TRP617  ASP618  TYR619  PRO620  LYS621  CYS622 
 ASP623  PHE694  ASN695  SER759  ASP760  ASP761  ALA762  ILE779  LEU786  VAL792 
 PHE793  MET794  SER795  GLU796  ALA797  LYS798  CYS799  TRP800  GLU811  SER814 

> <Gold.Protein.RotatedAtoms>
  152.5372  134.0280  159.8011 H   0  0  0  0  0  0  0  0  0  0  0  0  # atno 6907 bound_to 6896
  151.0455  133.5661  159.2654 H   0  0  0  0  0  0  0  0  0  0  0  0  # atno 6908 bound_to 6896
  151.2614  135.0663  159.9153 H   0  0  0  0  0  0  0  0  0  0  0  0  # atno 6909 bound_to 6896
  145.0373  140.8116  143.4287 H   0  0  0  0  0  0  0  0  0  0  0  0  # atno 7974 bound_to 7965
  156.2342  140.2952  156.0269 H   0  0  0  0  0  0  0  0  0  0  0  0  # atno 8008 bound_to 7997
  155.2139  140.0413  157.2955 H   0  0  0  0  0  0  0  0  0  0  0  0  # atno 8009 bound_to 7997
  154.6049  140.2436  155.7751 H   0  0  0  0  0  0  0  0  0  0  0  0  # atno 8010 bound_to 7997
  139.5078  144.6294  151.5857 H   0  0  0  0  0  0  0  0  0  0  0  0  # atno 10167 bound_to 10162
  157.0001  131.0173  151.2833 H   0  0  0  0  0  0  0  0  0  0  0  0  # atno 10718 bound_to 10713
  152.9803  135.5749  154.4885 H   0  0  0  0  0  0  0  0  0  0  0  0  # atno 10763 bound_to 10752
  154.4423  135.2776  155.1841 H   0  0  0  0  0  0  0  0  0  0  0  0  # atno 10764 bound_to 10752
  154.3504  135.6210  153.5693 H   0  0  0  0  0  0  0  0  0  0  0  0  # atno 10765 bound_to 10752
  139.8830  134.9404  156.5837 H   0  0  0  0  0  0  0  0  0  0  0  0  # atno 11005 bound_to 11000
  145.1693  139.2413  143.5350 LP  0  0  0  0  0  0  0  0  0  0  0  0  # atno 17320 bound_to 7965
  146.3505  140.1440  142.8594 LP  0  0  0  0  0  0  0  0  0  0  0  0  # atno 17321 bound_to 7965
  140.6021  143.9591  150.6393 LP  0  0  0  0  0  0  0  0  0  0  0  0  # atno 17342 bound_to 10162
  140.2806  143.3392  152.1155 LP  0  0  0  0  0  0  0  0  0  0  0  0  # atno 17343 bound_to 10162
  157.5396  130.8111  149.8013 LP  0  0  0  0  0  0  0  0  0  0  0  0  # atno 17370 bound_to 10713
  156.0174  130.3808  150.2067 LP  0  0  0  0  0  0  0  0  0  0  0  0  # atno 17371 bound_to 10713
  140.8008  133.8507  155.8725 LP  0  0  0  0  0  0  0  0  0  0  0  0  # atno 17394 bound_to 11000
  140.9594  134.1675  157.4666 LP  0  0  0  0  0  0  0  0  0  0  0  0  # atno 17395 bound_to 11000

$$$$
