AV-unprocessed.smi:826|AV-procd|sdf|3854|dock2
  -GOLD-   22720 1303D 1   1.00000     0.00000
 Structure written by MMmdl.
 38 39  0  0  0  0  0  0  0  0  2 V2000
  147.2775  135.4681  162.2605 C   0  0  0  0  0  0  0  0  0  0  0  0
  147.6070  136.2072  161.0092 C   0  0  0  0  0  0  0  0  0  0  0  0
  148.7115  136.9452  160.8733 N   0  0  0  0  0  0  0  0  0  0  0  0
  148.7938  137.5370  159.6211 N   0  0  0  0  0  0  0  0  0  0  0  0
  147.7475  137.2496  158.8338 C   0  0  0  0  0  0  0  0  0  0  0  0
  147.6357  137.7240  157.5820 N   0  5  0  0  0  0  0  0  0  0  0  0
  148.3985  138.7677  157.1848 C   0  0  0  0  0  0  0  0  0  0  0  0
  149.5609  138.7089  156.7760 O   0  0  0  0  0  0  0  0  0  0  0  0
  147.7781  139.9546  157.2683 N   0  0  0  0  0  0  0  0  0  0  0  0
  148.3513  141.2509  156.9073 C   0  0  2  0  0  0  0  0  0  0  0  0
  148.5663  141.2700  155.3845 C   0  0  0  0  0  0  0  0  0  0  0  0
  149.7138  141.4433  157.5915 C   0  0  0  0  0  0  0  0  0  0  0  0
  150.1747  140.5715  158.3305 O   0  0  0  0  0  0  0  0  0  0  0  0
  150.3519  142.5927  157.3250 N   0  0  0  0  0  0  0  0  0  0  0  0
  151.6432  142.9826  157.8830 C   0  0  0  0  0  0  0  0  0  0  0  0
  151.6687  142.8364  159.4191 C   0  0  0  0  0  0  0  0  0  0  0  0
  152.2308  144.1522  159.9597 C   0  0  0  0  0  0  0  0  0  0  0  0
  151.8020  145.1924  158.9302 C   0  0  0  0  0  0  0  0  0  0  0  0
  151.9344  144.4662  157.5910 C   0  0  0  0  0  0  0  0  0  0  0  0
  146.5677  136.1826  159.5948 S   0  0  0  0  0  0  0  0  0  0  0  0
  146.6893  136.1034  162.9225 H   0  0  0  0  0  0  0  0  0  0  0  0
  148.1895  135.1692  162.7784 H   0  0  0  0  0  0  0  0  0  0  0  0
  146.7003  134.5731  162.0278 H   0  0  0  0  0  0  0  0  0  0  0  0
  146.8250  139.9555  157.5999 H   0  0  0  0  0  0  0  0  0  0  0  0
  147.6654  142.0532  157.1870 H   0  0  0  0  0  0  0  0  0  0  0  0
  148.9989  142.2165  155.0576 H   0  0  0  0  0  0  0  0  0  0  0  0
  147.6195  141.1470  154.8576 H   0  0  0  0  0  0  0  0  0  0  0  0
  149.2304  140.4686  155.0565 H   0  0  0  0  0  0  0  0  0  0  0  0
  149.8992  143.2539  156.7108 H   0  0  0  0  0  0  0  0  0  0  0  0
  152.4295  142.3743  157.4325 H   0  0  0  0  0  0  0  0  0  0  0  0
  150.6587  142.6974  159.8089 H   0  0  0  0  0  0  0  0  0  0  0  0
  152.2571  141.9765  159.7409 H   0  0  0  0  0  0  0  0  0  0  0  0
  151.8726  144.3801  160.9640 H   0  0  0  0  0  0  0  0  0  0  0  0
  153.3197  144.1002  159.9969 H   0  0  0  0  0  0  0  0  0  0  0  0
  150.7598  145.4674  159.0986 H   0  0  0  0  0  0  0  0  0  0  0  0
  152.4002  146.1029  158.9760 H   0  0  0  0  0  0  0  0  0  0  0  0
  152.9593  144.5658  157.2309 H   0  0  0  0  0  0  0  0  0  0  0  0
  151.2851  144.8948  156.8264 H   0  0  0  0  0  0  0  0  0  0  0  0
  1  2  1  0  0  0  0
  1 21  1  0  0  0  0
  1 22  1  0  0  0  0
  1 23  1  0  0  0  0
  2 20  1  0  0  0  0
  2  3  2  0  0  0  0
  3  4  1  0  0  0  0
  4  5  2  0  0  0  0
  5  6  1  0  0  0  0
  5 20  1  0  0  0  0
  6  7  1  0  0  0  0
  7  8  2  0  0  0  0
  7  9  1  0  0  0  0
  9 10  1  0  0  0  0
  9 24  1  0  0  0  0
 10 11  1  0  0  0  0
 10 12  1  0  0  0  0
 10 25  1  0  0  0  0
 11 26  1  0  0  0  0
 11 27  1  0  0  0  0
 11 28  1  0  0  0  0
 12 13  2  0  0  0  0
 12 14  1  0  0  0  0
 14 15  1  0  0  0  0
 14 29  1  0  0  0  0
 15 19  1  0  0  0  0
 15 16  1  0  0  0  0
 15 30  1  0  0  0  0
 16 17  1  0  0  0  0
 16 31  1  0  0  0  0
 16 32  1  0  0  0  0
 17 18  1  0  0  0  0
 17 33  1  0  0  0  0
 17 34  1  0  0  0  0
 18 19  1  0  0  0  0
 18 35  1  0  0  0  0
 18 36  1  0  0  0  0
 19 37  1  0  0  0  0
 19 38  1  0  0  0  0
M  CHG  1   6  -1
M  END
> <s_m_source_file>
AV-unprocessed.smi

> <i_m_source_file_index>
826

> <i_lp_mmshare_version>
43012

> <i_f3d_flags>
0

> <s_epik_input>
W0NIM11jMW5uYyhzMSlbTkhdQyg9TylbTkhdW0NASF0oW0NIM10pQyg9TylbTkhdW0NIXTJbQ0gyXVtDSDJdW0NIMl1bQ0gyXTI=

> <s_epik_cmdline>
J2VwaWtfcHl0aG9uJywgJy1waCcsICc3LjAnLCAnLXRuJywgJzgnLCAnLW1hJywgJzIwMCcsICctbWV0YWxfYmluZGluZycsICctaW1hZScsICc8aW5maWxlLm1hZT4nLCAnLW9tYWUnLCAnPG91dGZpbGUubWFlPic=

> <r_lp_tautomer_probability>
1

> <r_epik_Ionization_Penalty>
3.15008

> <r_epik_Ionization_Penalty_Charging>
3.01509

> <r_epik_Ionization_Penalty_Neutral>
0.134987

> <r_epik_State_Penalty>
3.01143

> <r_epik_Charging_Adjusted_Penalty>
6.02652

> <i_epik_Tot_Q>
-1

> <i_epik_Tot_abs_Q>
1

> <r_epik_Metal_State_Penalty>
0.454645

> <b_epik_Metal_Only>
1

> <s_lp_Force_Field>
OPLS_2005

> <r_lp_Energy>
15.3268

> <b_lp_Chiralities_Consistent>
1

> <s_lp_Variant>
AV-unprocessed.smi:826-3

> <Gold.Version>
5.8.1

> <Gold.Id.Protein>
6NUR|6NUR_protein|mol2

> <Gold.PLP.Fitness>
38.3018

> <Gold.PLP.PLP>
-34.3695

> <Gold.PLP.part.hbond>
-3.8346

> <Gold.PLP.part.metal>
0.0000

> <Gold.PLP.part.buried>
-6.3302

> <Gold.PLP.part.nonpolar>
-25.4680

> <Gold.PLP.part.repulsive>
0.0829

> <Gold.PLP.ligand.clash>
0.0000

> <Gold.PLP.ligand.torsion>
0.9633

> <Gold.PLP.Chemscore.Hbond>
1.9280

> <Gold.PLP.Chemscore.CHOScore>
0.0000

> <Gold.PLP.Chemscore.Metal>
0.0000

> <Gold.Chemscore.Hbonds>
donor molecule, donor type, donor heavy atom, donor atom, acceptor molecule, acceptor atom, score
      L1  H    14    29       P1  8028  0.91
      P1  H  6931  6943       L1     3  0.96

> <Gold.PLP.Chemscore.Internal.Correction>
0.0748

> <Gold.Rescore>
     Score         DG    S(hbond)    S(metal)    S(lipo)     H(rot)  DE(clash)    DE(int)     intcor
      9.45     -16.44       1.46        0.00      87.37       1.62       0.08       6.91       ----

> <Gold.Chemscore.Fitness>
9.4482

> <Gold.Chemscore.DG>
-16.4363

> <Gold.Chemscore.ZeroCoef>
-5.4800

> <Gold.Chemscore.Hbond>
1.4615

> <Gold.Chemscore.Metal>
0.0000

> <Gold.Chemscore.Lipo>
87.3714

> <Gold.Chemscore.Internal_Hbond>
0.0000

> <Gold.Chemscore.DEClash>
0.0799

> <Gold.Chemscore.DEInternal>
6.9082

> <Gold.Chemscore.Rot>
1.6201

> <Gold.Chemscore.Internal.Correction>
   9.000000E+99

> <Gold.Chemscore.Hbonds>
donor molecule, donor type, donor heavy atom, donor atom, acceptor molecule, acceptor atom, score
      L1  H    14    29       P1  8028  0.89
      P1  H  6931  6943       L1     3  0.32

> <Gold.Chemscore.Hbond.Weighted>
-4.8813

> <Gold.Chemscore.Metal.Weighted>
-0.0000

> <Gold.Chemscore.Lipo.Weighted>
-10.2225

> <Gold.Chemscore.Internal_Hbond.Weighted>
0.0000

> <Gold.Chemscore.DEClash.Weighted>
0.0799

> <Gold.Chemscore.DEInternal.Weighted>
6.9082

> <Gold.Chemscore.Rot.Weighted>
4.1475

> <Gold.Chemscore.Internal.Correction.Weighted>
   9.000000E+99

> <Gold.Protein.RotatedTorsions>
[ 6907 6896 6895 6894 ] final -110.50 input  -60.11 | X-H torsion
[ 7974 7965 7964 7962 ] final   10.63 input  175.53 | X-H torsion
[ 8008 7997 7996 7995 ] final  108.26 input   59.86 | X-H torsion
[ 10167 10162 10161 10158 ] final   28.62 input  -65.29 | X-H torsion
[ 10718 10713 10712 10709 ] final  168.08 input   66.30 | X-H torsion
[ 10763 10752 10751 10750 ] final   51.03 input  -60.55 | X-H torsion
[ 11005 11000 10999 10996 ] final  -45.74 input  -57.11 | X-H torsion

> <Gold.Protein.ActiveResidues>
 VAL166  LYS551  ARG553  GLY616  TRP617  ASP618  TYR619  PRO620  LYS621  CYS622 
 ASP623  PHE694  ASN695  SER759  ASP760  ASP761  ALA762  ILE779  LEU786  VAL792 
 PHE793  MET794  SER795  GLU796  ALA797  LYS798  CYS799  TRP800  GLU811  SER814 

> <Gold.Protein.RotatedAtoms>
  150.7629  133.9373  159.3445 H   0  0  0  0  0  0  0  0  0  0  0  0  # atno 6907 bound_to 6896
  151.7278  135.0879  160.0304 H   0  0  0  0  0  0  0  0  0  0  0  0  # atno 6908 bound_to 6896
  152.3609  133.6258  159.6050 H   0  0  0  0  0  0  0  0  0  0  0  0  # atno 6909 bound_to 6896
  146.2385  139.9605  142.8459 H   0  0  0  0  0  0  0  0  0  0  0  0  # atno 7974 bound_to 7965
  156.1889  140.3079  155.9293 H   0  0  0  0  0  0  0  0  0  0  0  0  # atno 8008 bound_to 7997
  155.3218  140.0456  157.3056 H   0  0  0  0  0  0  0  0  0  0  0  0  # atno 8009 bound_to 7997
  154.5429  140.2267  155.8621 H   0  0  0  0  0  0  0  0  0  0  0  0  # atno 8010 bound_to 7997
  140.4837  144.0576  150.6273 H   0  0  0  0  0  0  0  0  0  0  0  0  # atno 10167 bound_to 10162
  157.0423  131.0290  151.2709 H   0  0  0  0  0  0  0  0  0  0  0  0  # atno 10718 bound_to 10713
  152.9785  135.5859  154.4348 H   0  0  0  0  0  0  0  0  0  0  0  0  # atno 10763 bound_to 10752
  154.3957  135.2768  155.2129 H   0  0  0  0  0  0  0  0  0  0  0  0  # atno 10764 bound_to 10752
  154.3982  135.6109  153.5936 H   0  0  0  0  0  0  0  0  0  0  0  0  # atno 10765 bound_to 10752
  141.0535  133.6734  156.3056 H   0  0  0  0  0  0  0  0  0  0  0  0  # atno 11005 bound_to 11000
  145.1775  140.9751  143.4285 LP  0  0  0  0  0  0  0  0  0  0  0  0  # atno 17320 bound_to 7965
  144.9972  139.3633  143.6185 LP  0  0  0  0  0  0  0  0  0  0  0  0  # atno 17321 bound_to 7965
  140.3825  143.2795  152.0154 LP  0  0  0  0  0  0  0  0  0  0  0  0  # atno 17342 bound_to 10162
  139.4838  144.6143  151.7375 LP  0  0  0  0  0  0  0  0  0  0  0  0  # atno 17343 bound_to 10162
  157.5094  130.7929  149.7689 LP  0  0  0  0  0  0  0  0  0  0  0  0  # atno 17370 bound_to 10713
  156.0034  130.3868  150.2521 LP  0  0  0  0  0  0  0  0  0  0  0  0  # atno 17371 bound_to 10713
  140.6010  134.5555  157.5517 LP  0  0  0  0  0  0  0  0  0  0  0  0  # atno 17394 bound_to 11000
  139.9370  134.7857  156.0777 LP  0  0  0  0  0  0  0  0  0  0  0  0  # atno 17395 bound_to 11000

$$$$
