AV-unprocessed.smi:213|AV-procd|sdf|1642|dock8
  -GOLD-   2262020 13D 1   1.00000     0.00000
 Structure written by MMmdl.
 58 61  0  0  0  0  0  0  0  0  1 V2000
  151.6176  140.3687  155.6742 C   0  0  0  0  0  0  0  0  0  0  0  0
  150.2797  140.8352  156.2769 C   0  0  1  0  0  0  0  0  0  0  0  0
  150.1729  142.3566  156.5442 C   0  0  0  0  0  0  0  0  0  0  0  0
  150.7638  142.8419  157.7947 N   0  0  0  0  0  0  0  0  0  0  0  0
  150.9982  144.2823  157.7325 C   0  0  0  0  0  0  0  0  0  0  0  0
  151.6146  144.8261  159.0330 C   0  0  0  0  0  0  0  0  0  0  0  0
  152.8316  144.1407  159.3057 O   0  0  0  0  0  0  0  0  0  0  0  0
  152.6519  142.7331  159.4143 C   0  0  0  0  0  0  0  0  0  0  0  0
  152.0331  142.1889  158.1145 C   0  0  0  0  0  0  0  0  0  0  0  0
  149.1774  140.4027  155.4139 N   0  0  0  0  0  0  0  0  0  0  0  0
  148.4017  141.3632  154.6337 C   0  0  0  0  0  0  0  0  0  0  0  0
  148.9205  139.0799  155.2490 C   0  0  0  0  0  0  0  0  0  0  0  0
  149.9470  138.2005  155.3926 N   0  0  0  0  0  0  0  0  0  0  0  0
  149.7395  136.8884  155.2505 C   0  0  0  0  0  0  0  0  0  0  0  0
  148.6049  136.2500  154.9595 N   0  0  0  0  0  0  0  0  0  0  0  0
  147.5741  137.1268  154.7947 C   0  0  0  0  0  0  0  0  0  0  0  0
  147.6405  138.5440  154.9200 C   0  0  0  0  0  0  0  0  0  0  0  0
  146.3892  139.0949  154.6616 N   0  0  0  0  0  0  0  0  0  0  0  0
  145.6289  138.0652  154.4085 C   0  0  0  0  0  0  0  0  0  0  0  0
  146.2607  136.8444  154.4657 N   0  0  0  0  0  0  0  0  0  0  0  0
  145.6665  135.5417  154.2246 C   0  0  0  0  0  0  0  0  0  0  0  0
  146.1407  134.9180  152.8975 C   0  0  2  0  0  0  0  0  0  0  0  0
  145.7807  135.7401  151.8034 O   0  0  0  0  0  0  0  0  0  0  0  0
  145.6168  133.4830  152.6899 C   0  0  2  0  0  0  0  0  0  0  0  0
  146.1281  132.7453  151.4491 C   0  0  0  0  0  0  0  0  0  0  0  0
  145.0258  131.7335  151.2303 C   0  0  0  0  0  0  0  0  0  0  0  0
  143.7846  132.5447  151.5931 C   0  0  0  0  0  0  0  0  0  0  0  0
  144.1929  133.4412  152.6230 O   0  0  0  0  0  0  0  0  0  0  0  0
  152.4178  140.3734  156.4109 H   0  0  0  0  0  0  0  0  0  0  0  0
  151.9206  140.9887  154.8303 H   0  0  0  0  0  0  0  0  0  0  0  0
  151.5434  139.3399  155.3199 H   0  0  0  0  0  0  0  0  0  0  0  0
  150.1875  140.3196  157.2322 H   0  0  0  0  0  0  0  0  0  0  0  0
  150.5561  142.9271  155.6974 H   0  0  0  0  0  0  0  0  0  0  0  0
  149.1052  142.5799  156.5727 H   0  0  0  0  0  0  0  0  0  0  0  0
  151.6573  144.5150  156.8945 H   0  0  0  0  0  0  0  0  0  0  0  0
  150.0585  144.8025  157.5431 H   0  0  0  0  0  0  0  0  0  0  0  0
  151.8195  145.8926  158.9397 H   0  0  0  0  0  0  0  0  0  0  0  0
  150.9240  144.7030  159.8687 H   0  0  0  0  0  0  0  0  0  0  0  0
  153.6184  142.2640  159.5994 H   0  0  0  0  0  0  0  0  0  0  0  0
  152.0149  142.5050  160.2704 H   0  0  0  0  0  0  0  0  0  0  0  0
  151.9043  141.1172  158.2238 H   0  0  0  0  0  0  0  0  0  0  0  0
  152.7396  142.3325  157.2955 H   0  0  0  0  0  0  0  0  0  0  0  0
  147.3522  141.0700  154.5896 H   0  0  0  0  0  0  0  0  0  0  0  0
  148.7859  141.4260  153.6152 H   0  0  0  0  0  0  0  0  0  0  0  0
  148.4500  142.3584  155.0752 H   0  0  0  0  0  0  0  0  0  0  0  0
  150.6071  136.2605  155.3907 H   0  0  0  0  0  0  0  0  0  0  0  0
  144.5816  138.1693  154.1651 H   0  0  0  0  0  0  0  0  0  0  0  0
  145.9244  134.8907  155.0609 H   0  0  0  0  0  0  0  0  0  0  0  0
  144.5809  135.6473  154.2342 H   0  0  0  0  0  0  0  0  0  0  0  0
  147.2304  134.8749  152.9061 H   0  0  0  0  0  0  0  0  0  0  0  0
  146.5559  136.1885  151.5016 H   0  0  0  0  0  0  0  0  0  0  0  0
  145.8904  132.8892  153.5637 H   0  0  0  0  0  0  0  0  0  0  0  0
  146.1921  133.4061  150.5842 H   0  0  0  0  0  0  0  0  0  0  0  0
  147.1061  132.2877  151.6003 H   0  0  0  0  0  0  0  0  0  0  0  0
  144.9977  131.3416  150.2133 H   0  0  0  0  0  0  0  0  0  0  0  0
  145.1431  130.8952  151.9184 H   0  0  0  0  0  0  0  0  0  0  0  0
  143.4528  133.1323  150.7361 H   0  0  0  0  0  0  0  0  0  0  0  0
  142.9535  131.9173  151.9153 H   0  0  0  0  0  0  0  0  0  0  0  0
  1  2  1  0  0  0  0
  1 29  1  0  0  0  0
  1 30  1  0  0  0  0
  1 31  1  0  0  0  0
  2  3  1  0  0  0  0
  2 10  1  0  0  0  0
  2 32  1  0  0  0  0
  3  4  1  0  0  0  0
  3 33  1  0  0  0  0
  3 34  1  0  0  0  0
  4  9  1  0  0  0  0
  4  5  1  0  0  0  0
  5  6  1  0  0  0  0
  5 35  1  0  0  0  0
  5 36  1  0  0  0  0
  6  7  1  0  0  0  0
  6 37  1  0  0  0  0
  6 38  1  0  0  0  0
  7  8  1  0  0  0  0
  8  9  1  0  0  0  0
  8 39  1  0  0  0  0
  8 40  1  0  0  0  0
  9 41  1  0  0  0  0
  9 42  1  0  0  0  0
 10 11  1  0  0  0  0
 10 12  1  0  0  0  0
 11 43  1  0  0  0  0
 11 44  1  0  0  0  0
 11 45  1  0  0  0  0
 12 17  1  0  0  0  0
 12 13  2  0  0  0  0
 13 14  1  0  0  0  0
 14 15  2  0  0  0  0
 14 46  1  0  0  0  0
 15 16  1  0  0  0  0
 16 20  1  0  0  0  0
 16 17  2  0  0  0  0
 17 18  1  0  0  0  0
 18 19  2  0  0  0  0
 19 20  1  0  0  0  0
 19 47  1  0  0  0  0
 20 21  1  0  0  0  0
 21 22  1  0  0  0  0
 21 48  1  0  0  0  0
 21 49  1  0  0  0  0
 22 23  1  0  0  0  0
 22 24  1  0  0  0  0
 22 50  1  0  0  0  0
 23 51  1  0  0  0  0
 24 28  1  0  0  0  0
 24 25  1  0  0  0  0
 24 52  1  0  0  0  0
 25 26  1  0  0  0  0
 25 53  1  0  0  0  0
 25 54  1  0  0  0  0
 26 27  1  0  0  0  0
 26 55  1  0  0  0  0
 26 56  1  0  0  0  0
 27 28  1  0  0  0  0
 27 57  1  0  0  0  0
 27 58  1  0  0  0  0
M  END
> <s_m_source_file>
AV-unprocessed.smi

> <i_m_source_file_index>
213

> <i_lp_mmshare_version>
43012

> <i_f3d_flags>
0

> <s_epik_input>
W0NIMl0xW0NIMl1PW0NIMl1bQ0gyXU4xW0NIMl1bQ0BASF0oW0NIM10pTihbQ0gzXSljKG5bY0hdbjIpYyhjMjMpbltjSF1uM1tDSDJdW0NASF0oW09IXSlbQ0BASF00W0NIMl1bQ0gyXVtDSDJdTzQ=

> <s_epik_cmdline>
J2VwaWtfcHl0aG9uJywgJy1waCcsICc3LjAnLCAnLXRuJywgJzgnLCAnLW1hJywgJzIwMCcsICctbWV0YWxfYmluZGluZycsICctaW1hZScsICc8aW5maWxlLm1hZT4nLCAnLW9tYWUnLCAnPG91dGZpbGUubWFlPic=

> <r_lp_tautomer_probability>
1

> <r_epik_Ionization_Penalty>
0.423322

> <r_epik_Ionization_Penalty_Charging>
0

> <r_epik_Ionization_Penalty_Neutral>
0.423322

> <r_epik_State_Penalty>
0.569486

> <r_epik_Charging_Adjusted_Penalty>
0.569486

> <i_epik_Tot_Q>
0

> <i_epik_Tot_abs_Q>
0

> <r_epik_Metal_State_Penalty>
0.568671

> <b_epik_Metal_Only>
0

> <s_lp_Force_Field>
OPLS_2005

> <r_lp_Energy>
55.7593

> <b_lp_Chiralities_Consistent>
1

> <s_lp_Variant>
AV-unprocessed.smi:213-10

> <Gold.Version>
5.8.1

> <Gold.Id.Protein>
6NUR|6NUR_protein|mol2

> <Gold.PLP.Fitness>
46.6849

> <Gold.PLP.PLP>
-42.7249

> <Gold.PLP.part.hbond>
-1.0000

> <Gold.PLP.part.metal>
0.0000

> <Gold.PLP.part.buried>
-5.0576

> <Gold.PLP.part.nonpolar>
-37.1830

> <Gold.PLP.part.repulsive>
0.5371

> <Gold.PLP.ligand.clash>
0.0000

> <Gold.PLP.ligand.torsion>
1.1805

> <Gold.PLP.Chemscore.Hbond>
1.0000

> <Gold.PLP.Chemscore.CHOScore>
1.0000

> <Gold.PLP.Chemscore.Metal>
0.0000

> <Gold.Chemscore.Hbonds>
donor molecule, donor type, donor heavy atom, donor atom, acceptor molecule, acceptor atom, score
      L1  H    23    51       P1  7948  0.08

> <Gold.PLP.Chemscore.Internal.Correction>
0.3209

> <Gold.Rescore>
     Score         DG    S(hbond)    S(metal)    S(lipo)     H(rot)  DE(clash)    DE(int)     intcor
     11.37     -13.98       0.99        0.00     104.23       2.74       0.08       2.52       ----

> <Gold.Chemscore.Fitness>
11.3682

> <Gold.Chemscore.DG>
-13.9763

> <Gold.Chemscore.ZeroCoef>
-5.4800

> <Gold.Chemscore.Hbond>
0.9910

> <Gold.Chemscore.Metal>
0.0000

> <Gold.Chemscore.Lipo>
104.2320

> <Gold.Chemscore.Internal_Hbond>
0.0000

> <Gold.Chemscore.DEClash>
0.0845

> <Gold.Chemscore.DEInternal>
2.5235

> <Gold.Chemscore.Rot>
2.7378

> <Gold.Chemscore.Internal.Correction>
   9.000000E+99

> <Gold.Chemscore.Hbonds>
donor molecule, donor type, donor heavy atom, donor atom, acceptor molecule, acceptor atom, score
      L1  H    23    51       P1  7948  0.10

> <Gold.Chemscore.Hbond.Weighted>
-3.3098

> <Gold.Chemscore.Metal.Weighted>
-0.0000

> <Gold.Chemscore.Lipo.Weighted>
-12.1951

> <Gold.Chemscore.Internal_Hbond.Weighted>
0.0000

> <Gold.Chemscore.DEClash.Weighted>
0.0845

> <Gold.Chemscore.DEInternal.Weighted>
2.5235

> <Gold.Chemscore.Rot.Weighted>
7.0087

> <Gold.Chemscore.Internal.Correction.Weighted>
   9.000000E+99

> <Gold.Protein.RotatedTorsions>
[ 6907 6896 6895 6894 ] final  109.25 input  -60.11 | X-H torsion
[ 7974 7965 7964 7962 ] final  -81.15 input  175.53 | X-H torsion
[ 8008 7997 7996 7995 ] final   44.03 input   59.86 | X-H torsion
[ 10167 10162 10161 10158 ] final -150.68 input  -65.29 | X-H torsion
[ 10718 10713 10712 10709 ] final   72.15 input   66.30 | X-H torsion
[ 10763 10752 10751 10750 ] final  110.80 input  -60.55 | X-H torsion
[ 11005 11000 10999 10996 ] final  159.16 input  -57.11 | X-H torsion

> <Gold.Protein.ActiveResidues>
 VAL166  LYS551  ARG553  GLY616  TRP617  ASP618  TYR619  PRO620  LYS621  CYS622 
 ASP623  PHE694  ASN695  SER759  ASP760  ASP761  ALA762  ILE779  LEU786  VAL792 
 PHE793  MET794  SER795  GLU796  ALA797  LYS798  CYS799  TRP800  GLU811  SER814 

> <Gold.Protein.RotatedAtoms>
  152.5076  133.8971  159.7422 H   0  0  0  0  0  0  0  0  0  0  0  0  # atno 6907 bound_to 6896
  150.9396  133.6663  159.2800 H   0  0  0  0  0  0  0  0  0  0  0  0  # atno 6908 bound_to 6896
  151.3979  135.0971  159.9599 H   0  0  0  0  0  0  0  0  0  0  0  0  # atno 6909 bound_to 6896
  145.5504  140.9497  143.1502 H   0  0  0  0  0  0  0  0  0  0  0  0  # atno 7974 bound_to 7965
  155.3125  140.3392  155.4243 H   0  0  0  0  0  0  0  0  0  0  0  0  # atno 8008 bound_to 7997
  156.1948  140.1711  156.8057 H   0  0  0  0  0  0  0  0  0  0  0  0  # atno 8009 bound_to 7997
  154.5486  140.0710  156.8614 H   0  0  0  0  0  0  0  0  0  0  0  0  # atno 8010 bound_to 7997
  139.7333  143.8774  152.2541 H   0  0  0  0  0  0  0  0  0  0  0  0  # atno 10167 bound_to 10162
  157.6487  130.9564  150.0889 H   0  0  0  0  0  0  0  0  0  0  0  0  # atno 10718 bound_to 10713
  153.4542  135.3737  155.2301 H   0  0  0  0  0  0  0  0  0  0  0  0  # atno 10763 bound_to 10752
  154.8757  135.3893  154.4002 H   0  0  0  0  0  0  0  0  0  0  0  0  # atno 10764 bound_to 10752
  153.4566  135.7086  153.6140 H   0  0  0  0  0  0  0  0  0  0  0  0  # atno 10765 bound_to 10752
  140.1935  134.8390  157.2938 H   0  0  0  0  0  0  0  0  0  0  0  0  # atno 11005 bound_to 11000
  144.7532  139.7141  143.7264 LP  0  0  0  0  0  0  0  0  0  0  0  0  # atno 17320 bound_to 7965
  146.1920  139.5166  142.9799 LP  0  0  0  0  0  0  0  0  0  0  0  0  # atno 17321 bound_to 7965
  139.8703  144.7071  150.8995 LP  0  0  0  0  0  0  0  0  0  0  0  0  # atno 17342 bound_to 10162
  140.7775  143.3743  151.1591 LP  0  0  0  0  0  0  0  0  0  0  0  0  # atno 17343 bound_to 10162
  156.1844  130.3651  149.8993 LP  0  0  0  0  0  0  0  0  0  0  0  0  # atno 17370 bound_to 10713
  156.6937  130.8906  151.3591 LP  0  0  0  0  0  0  0  0  0  0  0  0  # atno 17371 bound_to 10713
  140.2133  134.4112  155.7601 LP  0  0  0  0  0  0  0  0  0  0  0  0  # atno 17394 bound_to 11000
  141.2226  133.7129  156.8373 LP  0  0  0  0  0  0  0  0  0  0  0  0  # atno 17395 bound_to 11000

$$$$
