AV-unprocessed.smi:388|AV-procd|sdf|2475|dock10
  -GOLD-   2262022413D 1   1.00000     0.00000
 Structure written by MMmdl.
 34 35  0  0  0  0  0  0  0  0  1 V2000
  148.2243  132.9605  154.4282 C   0  0  0  0  0  0  0  0  0  0  0  0
  148.8185  134.2589  154.1505 N   0  0  0  0  0  0  0  0  0  0  0  0
  149.6289  134.9128  154.9939 C   0  0  0  0  0  0  0  0  0  0  0  0
  149.9500  134.4730  156.1000 O   0  0  0  0  0  0  0  0  0  0  0  0
  150.0246  136.0877  154.4693 N   0  0  0  0  0  0  0  0  0  0  0  0
  150.7572  137.0511  155.0645 C   0  0  0  0  0  0  0  0  0  0  0  0
  151.2073  136.9966  156.2104 O   0  0  0  0  0  0  0  0  0  0  0  0
  151.0255  138.2980  154.2133 C   0  0  0  0  0  0  0  0  0  0  0  0
  150.4241  139.5038  154.7660 N   0  0  0  0  0  0  0  0  0  0  0  0
  149.1090  139.8424  154.3538 C   0  0  0  0  0  0  0  0  0  0  0  0
  148.4735  139.1439  153.5614 O   0  0  0  0  0  0  0  0  0  0  0  0
  148.5846  141.0694  154.9496 C   0  0  0  0  0  0  0  0  0  0  0  0
  147.2862  141.4882  154.5367 C   0  0  0  0  0  0  0  0  0  0  0  0
  146.2383  141.8499  154.2042 N   0  0  0  0  0  0  0  0  0  0  0  0
  149.3058  141.7721  155.8495 C   0  0  0  0  0  0  0  0  0  0  0  0
  150.5584  141.3795  156.2741 N   0  0  0  0  0  0  0  0  0  0  0  0
  151.3547  142.2151  157.1282 C   0  0  0  0  0  0  0  0  0  0  0  0
  151.9506  141.6579  158.4068 C   0  0  0  0  0  0  0  0  0  0  0  0
  150.7987  142.6304  158.4729 C   0  0  0  0  0  0  0  0  0  0  0  0
  151.1813  140.2475  155.7045 C   0  0  0  0  0  0  0  0  0  0  0  0
  152.3319  139.9268  156.0136 O   0  0  0  0  0  0  0  0  0  0  0  0
  147.6220  132.6380  153.5788 H   0  0  0  0  0  0  0  0  0  0  0  0
  147.5780  133.0099  155.3055 H   0  0  0  0  0  0  0  0  0  0  0  0
  148.9950  132.2090  154.6046 H   0  0  0  0  0  0  0  0  0  0  0  0
  148.5966  134.6869  153.2632 H   0  0  0  0  0  0  0  0  0  0  0  0
  149.7311  136.2762  153.5218 H   0  0  0  0  0  0  0  0  0  0  0  0
  152.0968  138.4759  154.1042 H   0  0  0  0  0  0  0  0  0  0  0  0
  150.6610  138.1671  153.1933 H   0  0  0  0  0  0  0  0  0  0  0  0
  148.8826  142.6761  156.2635 H   0  0  0  0  0  0  0  0  0  0  0  0
  151.9552  142.9635  156.6141 H   0  0  0  0  0  0  0  0  0  0  0  0
  151.7403  140.6220  158.6663 H   0  0  0  0  0  0  0  0  0  0  0  0
  152.9335  142.0204  158.7002 H   0  0  0  0  0  0  0  0  0  0  0  0
  151.0135  143.6410  158.8140 H   0  0  0  0  0  0  0  0  0  0  0  0
  149.8304  142.2340  158.7730 H   0  0  0  0  0  0  0  0  0  0  0  0
  1  2  1  0  0  0  0
  1 22  1  0  0  0  0
  1 23  1  0  0  0  0
  1 24  1  0  0  0  0
  2  3  1  0  0  0  0
  2 25  1  0  0  0  0
  3  4  2  0  0  0  0
  3  5  1  0  0  0  0
  5  6  1  0  0  0  0
  5 26  1  0  0  0  0
  6  7  2  0  0  0  0
  6  8  1  0  0  0  0
  8  9  1  0  0  0  0
  8 27  1  0  0  0  0
  8 28  1  0  0  0  0
  9 20  1  0  0  0  0
  9 10  1  0  0  0  0
 10 11  2  0  0  0  0
 10 12  1  0  0  0  0
 12 13  1  0  0  0  0
 12 15  2  0  0  0  0
 13 14  3  0  0  0  0
 15 16  1  0  0  0  0
 15 29  1  0  0  0  0
 16 17  1  0  0  0  0
 16 20  1  0  0  0  0
 17 19  1  0  0  0  0
 17 18  1  0  0  0  0
 17 30  1  0  0  0  0
 18 19  1  0  0  0  0
 18 31  1  0  0  0  0
 18 32  1  0  0  0  0
 19 33  1  0  0  0  0
 19 34  1  0  0  0  0
 20 21  2  0  0  0  0
M  END
> <s_m_source_file>
AV-unprocessed.smi

> <i_m_source_file_index>
388

> <i_lp_mmshare_version>
43012

> <i_f3d_flags>
0

> <s_epik_input>
W0NIM11bTkhdQyg9TylbTkhdQyg9TylbQ0gyXW4xYyg9TyljKEMjTilbY0hdbihjMT1PKVtDSF0yW0NIMl1bQ0gyXTI=

> <s_epik_cmdline>
J2VwaWtfcHl0aG9uJywgJy1waCcsICc3LjAnLCAnLXRuJywgJzgnLCAnLW1hJywgJzIwMCcsICctbWV0YWxfYmluZGluZycsICctaW1hZScsICc8aW5maWxlLm1hZT4nLCAnLW9tYWUnLCAnPG91dGZpbGUubWFlPic=

> <r_lp_tautomer_probability>
1

> <r_epik_Ionization_Penalty>
2.95777e-05

> <r_epik_Ionization_Penalty_Charging>
6.31124e-11

> <r_epik_Ionization_Penalty_Neutral>
2.95776e-05

> <r_epik_State_Penalty>
-0

> <r_epik_Charging_Adjusted_Penalty>
6.31124e-11

> <i_epik_Tot_Q>
0

> <i_epik_Tot_abs_Q>
0

> <r_epik_Metal_State_Penalty>
-0

> <b_epik_Metal_Only>
0

> <s_lp_Force_Field>
OPLS_2005

> <r_lp_Energy>
33.5858

> <b_lp_Chiralities_Consistent>
1

> <s_lp_Variant>
AV-unprocessed.smi:388-1

> <Gold.Version>
5.8.1

> <Gold.Id.Protein>
6NUR|6NUR_protein|mol2

> <Gold.PLP.Fitness>
43.9912

> <Gold.PLP.PLP>
-33.2296

> <Gold.PLP.part.hbond>
-3.8337

> <Gold.PLP.part.metal>
0.0000

> <Gold.PLP.part.buried>
-2.3472

> <Gold.PLP.part.nonpolar>
-29.1180

> <Gold.PLP.part.repulsive>
3.1903

> <Gold.PLP.ligand.clash>
0.0000

> <Gold.PLP.ligand.torsion>
0.4928

> <Gold.PLP.Chemscore.Hbond>
2.8500

> <Gold.PLP.Chemscore.CHOScore>
1.0000

> <Gold.PLP.Chemscore.Metal>
0.0000

> <Gold.Chemscore.Hbonds>
donor molecule, donor type, donor heavy atom, donor atom, acceptor molecule, acceptor atom, score
      L1  H     2    25       P1  7948  0.86
      L1  H     5    26       P1  7948  1.00
      P1  H  7997  8010       L1    21  0.99
      L1  C    15    29       P1  8028  1.00

> <Gold.PLP.Chemscore.Internal.Correction>
0.1971

> <Gold.Rescore>
     Score         DG    S(hbond)    S(metal)    S(lipo)     H(rot)  DE(clash)    DE(int)     intcor
     11.90     -15.06       2.65        0.00      46.97       1.87       0.08       3.08       ----

> <Gold.Chemscore.Fitness>
11.8996

> <Gold.Chemscore.DG>
-15.0561

> <Gold.Chemscore.ZeroCoef>
-5.4800

> <Gold.Chemscore.Hbond>
2.6525

> <Gold.Chemscore.Metal>
0.0000

> <Gold.Chemscore.Lipo>
46.9693

> <Gold.Chemscore.Internal_Hbond>
0.0000

> <Gold.Chemscore.DEClash>
0.0805

> <Gold.Chemscore.DEInternal>
3.0760

> <Gold.Chemscore.Rot>
1.8667

> <Gold.Chemscore.Internal.Correction>
   9.000000E+99

> <Gold.Chemscore.Hbonds>
donor molecule, donor type, donor heavy atom, donor atom, acceptor molecule, acceptor atom, score
      L1  H     2    25       P1  7948  0.36
      L1  H     5    26       P1  7948  0.30
      P1  H  7997  8010       L1    21  0.92

> <Gold.Chemscore.Hbond.Weighted>
-8.8594

> <Gold.Chemscore.Metal.Weighted>
-0.0000

> <Gold.Chemscore.Lipo.Weighted>
-5.4954

> <Gold.Chemscore.Internal_Hbond.Weighted>
0.0000

> <Gold.Chemscore.DEClash.Weighted>
0.0805

> <Gold.Chemscore.DEInternal.Weighted>
3.0760

> <Gold.Chemscore.Rot.Weighted>
4.7787

> <Gold.Chemscore.Internal.Correction.Weighted>
   9.000000E+99

> <Gold.Protein.RotatedTorsions>
[ 6907 6896 6895 6894 ] final  178.95 input  -60.11 | X-H torsion
[ 7974 7965 7964 7962 ] final   88.73 input  175.53 | X-H torsion
[ 8008 7997 7996 7995 ] final   79.88 input   59.86 | X-H torsion
[ 10167 10162 10161 10158 ] final  125.85 input  -65.29 | X-H torsion
[ 10718 10713 10712 10709 ] final -135.50 input   66.30 | X-H torsion
[ 10763 10752 10751 10750 ] final  137.24 input  -60.55 | X-H torsion
[ 11005 11000 10999 10996 ] final  -70.55 input  -57.11 | X-H torsion

> <Gold.Protein.ActiveResidues>
 VAL166  LYS551  ARG553  GLY616  TRP617  ASP618  TYR619  PRO620  LYS621  CYS622 
 ASP623  PHE694  ASN695  SER759  ASP760  ASP761  ALA762  ILE779  LEU786  VAL792 
 PHE793  MET794  SER795  GLU796  ALA797  LYS798  CYS799  TRP800  GLU811  SER814 

> <Gold.Protein.RotatedAtoms>
  151.6795  133.3312  159.3215 H   0  0  0  0  0  0  0  0  0  0  0  0  # atno 6907 bound_to 6896
  150.7829  134.6793  159.6444 H   0  0  0  0  0  0  0  0  0  0  0  0  # atno 6908 bound_to 6896
  152.3892  134.6472  160.0166 H   0  0  0  0  0  0  0  0  0  0  0  0  # atno 6909 bound_to 6896
  145.5417  139.2289  143.2562 H   0  0  0  0  0  0  0  0  0  0  0  0  # atno 7974 bound_to 7965
  155.8758  140.3446  155.5853 H   0  0  0  0  0  0  0  0  0  0  0  0  # atno 8008 bound_to 7997
  155.7776  140.0854  157.2095 H   0  0  0  0  0  0  0  0  0  0  0  0  # atno 8009 bound_to 7997
  154.4020  140.1506  156.3002 H   0  0  0  0  0  0  0  0  0  0  0  0  # atno 8010 bound_to 7997
  139.5663  144.6913  151.3902 H   0  0  0  0  0  0  0  0  0  0  0  0  # atno 10167 bound_to 10162
  156.2668  130.7242  151.1195 H   0  0  0  0  0  0  0  0  0  0  0  0  # atno 10718 bound_to 10713
  153.8698  135.3057  155.3441 H   0  0  0  0  0  0  0  0  0  0  0  0  # atno 10763 bound_to 10752
  154.7811  135.4835  153.9849 H   0  0  0  0  0  0  0  0  0  0  0  0  # atno 10764 bound_to 10752
  153.1413  135.6824  153.9119 H   0  0  0  0  0  0  0  0  0  0  0  0  # atno 10765 bound_to 10752
  141.1576  133.6793  156.6770 H   0  0  0  0  0  0  0  0  0  0  0  0  # atno 11005 bound_to 11000
  146.1976  140.6238  142.9117 LP  0  0  0  0  0  0  0  0  0  0  0  0  # atno 17320 bound_to 7965
  144.7573  140.5339  143.6760 LP  0  0  0  0  0  0  0  0  0  0  0  0  # atno 17321 bound_to 7965
  140.6946  143.7779  150.7307 LP  0  0  0  0  0  0  0  0  0  0  0  0  # atno 17342 bound_to 10162
  140.1272  143.4559  152.2277 LP  0  0  0  0  0  0  0  0  0  0  0  0  # atno 17343 bound_to 10162
  157.7270  131.0642  150.5884 LP  0  0  0  0  0  0  0  0  0  0  0  0  # atno 17370 bound_to 10713
  156.5977  130.4346  149.5910 LP  0  0  0  0  0  0  0  0  0  0  0  0  # atno 17371 bound_to 10713
  140.3132  134.8069  157.4193 LP  0  0  0  0  0  0  0  0  0  0  0  0  # atno 17394 bound_to 11000
  140.1161  134.5281  155.8224 LP  0  0  0  0  0  0  0  0  0  0  0  0  # atno 17395 bound_to 11000

$$$$
