AV-unprocessed.smi:1631|AV-procd|sdf|6526|dock7
  -GOLD-   22720 7203D 1   1.00000     0.00000
 Structure written by MMmdl.
 38 39  0  0  0  0  0  0  0  0  1 V2000
  147.0727  136.9763  162.8576 C   0  0  0  0  0  0  0  0  0  0  0  0
  147.4895  136.2606  161.5988 C   0  0  0  0  0  0  0  0  0  0  0  0
  147.7875  137.0269  160.6017 N   0  0  0  0  0  0  0  0  0  0  0  0
  148.1920  136.5103  159.3875 N   0  0  0  0  0  0  0  0  0  0  0  0
  148.4990  137.5335  158.3790 C   0  0  0  0  0  0  0  0  0  0  0  0
  149.9230  137.3779  157.7970 C   0  0  2  0  0  0  0  0  0  0  0  0
  150.7930  136.9885  158.8425 O   0  0  0  0  0  0  0  0  0  0  0  0
  150.3997  138.6778  157.1486 C   0  0  0  0  0  0  0  0  0  0  0  0
  150.5425  139.8172  157.9747 C   0  0  0  0  0  0  0  0  0  0  0  0
  150.9689  141.0475  157.4455 C   0  0  0  0  0  0  0  0  0  0  0  0
  151.2598  141.1535  156.0760 C   0  0  0  0  0  0  0  0  0  0  0  0
  151.1246  140.0294  155.2418 C   0  0  0  0  0  0  0  0  0  0  0  0
  150.6969  138.7831  155.7591 C   0  0  0  0  0  0  0  0  0  0  0  0
  150.5738  137.5910  154.8093 C   0  0  0  0  0  0  0  0  0  0  0  0
  150.9424  137.9052  153.5667 F   0  0  0  0  0  0  0  0  0  0  0  0
  151.3567  136.5934  155.2210 F   0  0  0  0  0  0  0  0  0  0  0  0
  149.3103  137.1712  154.7583 F   0  0  0  0  0  0  0  0  0  0  0  0
  148.3118  135.1808  159.1122 C   0  0  0  0  0  0  0  0  0  0  0  0
  148.6732  134.7611  158.0124 O   0  0  0  0  0  0  0  0  0  0  0  0
  147.9735  134.3145  160.2434 C   0  0  0  0  0  0  0  0  0  0  0  0
  148.0916  132.9136  159.9956 C   0  0  0  0  0  0  0  0  0  0  0  0
  148.2062  131.7779  159.8024 N   0  0  0  0  0  0  0  0  0  0  0  0
  147.5763  134.8090  161.4432 C   0  0  0  0  0  0  0  0  0  0  0  0
  147.2168  133.9396  162.6404 C   0  0  0  0  0  0  0  0  0  0  0  0
  146.8118  136.2977  163.6674 H   0  0  0  0  0  0  0  0  0  0  0  0
  146.2031  137.6075  162.6711 H   0  0  0  0  0  0  0  0  0  0  0  0
  147.8775  137.6177  163.2184 H   0  0  0  0  0  0  0  0  0  0  0  0
  147.7675  137.4606  157.5717 H   0  0  0  0  0  0  0  0  0  0  0  0
  148.3597  138.5345  158.7923 H   0  0  0  0  0  0  0  0  0  0  0  0
  149.9270  136.5641  157.0773 H   0  0  0  0  0  0  0  0  0  0  0  0
  151.6621  137.2985  158.6384 H   0  0  0  0  0  0  0  0  0  0  0  0
  150.3222  139.7506  159.0301 H   0  0  0  0  0  0  0  0  0  0  0  0
  151.0724  141.9084  158.0896 H   0  0  0  0  0  0  0  0  0  0  0  0
  151.5876  142.0966  155.6644 H   0  0  0  0  0  0  0  0  0  0  0  0
  151.3569  140.1411  154.1934 H   0  0  0  0  0  0  0  0  0  0  0  0
  147.3068  132.8759  162.4225 H   0  0  0  0  0  0  0  0  0  0  0  0
  146.1870  134.1211  162.9500 H   0  0  0  0  0  0  0  0  0  0  0  0
  147.8761  134.1568  163.4816 H   0  0  0  0  0  0  0  0  0  0  0  0
  1  2  1  0  0  0  0
  1 25  1  0  0  0  0
  1 26  1  0  0  0  0
  1 27  1  0  0  0  0
  2 23  1  0  0  0  0
  2  3  2  0  0  0  0
  3  4  1  0  0  0  0
  4  5  1  0  0  0  0
  4 18  1  0  0  0  0
  5  6  1  0  0  0  0
  5 28  1  0  0  0  0
  5 29  1  0  0  0  0
  6  7  1  0  0  0  0
  6  8  1  0  0  0  0
  6 30  1  0  0  0  0
  7 31  1  0  0  0  0
  8 13  1  0  0  0  0
  8  9  2  0  0  0  0
  9 10  1  0  0  0  0
  9 32  1  0  0  0  0
 10 11  2  0  0  0  0
 10 33  1  0  0  0  0
 11 12  1  0  0  0  0
 11 34  1  0  0  0  0
 12 13  2  0  0  0  0
 12 35  1  0  0  0  0
 13 14  1  0  0  0  0
 14 15  1  0  0  0  0
 14 16  1  0  0  0  0
 14 17  1  0  0  0  0
 18 19  2  0  0  0  0
 18 20  1  0  0  0  0
 20 21  1  0  0  0  0
 20 23  2  0  0  0  0
 21 22  3  0  0  0  0
 23 24  1  0  0  0  0
 24 36  1  0  0  0  0
 24 37  1  0  0  0  0
 24 38  1  0  0  0  0
M  END
> <s_m_source_file>
AV-unprocessed.smi

> <i_m_source_file_index>
1631

> <i_lp_mmshare_version>
43012

> <i_f3d_flags>
0

> <s_epik_input>
TiNDYyhjMVtDSDNdKWMoPU8pbihuYzFbQ0gzXSlbQ0gyXVtDQEhdKFtPSF0pYzJbY0hdW2NIXVtjSF1bY0hdYzJDKEYpKEYpRg==

> <s_epik_cmdline>
J2VwaWtfcHl0aG9uJywgJy1waCcsICc3LjAnLCAnLXRuJywgJzgnLCAnLW1hJywgJzIwMCcsICctbWV0YWxfYmluZGluZycsICctaW1hZScsICc8aW5maWxlLm1hZT4nLCAnLW9tYWUnLCAnPG91dGZpbGUubWFlPic=

> <r_lp_tautomer_probability>
1

> <r_epik_Ionization_Penalty>
7.1854e-08

> <r_epik_Ionization_Penalty_Charging>
1.40848e-10

> <r_epik_Ionization_Penalty_Neutral>
7.17131e-08

> <r_epik_State_Penalty>
-0

> <r_epik_Charging_Adjusted_Penalty>
1.40848e-10

> <i_epik_Tot_Q>
0

> <i_epik_Tot_abs_Q>
0

> <r_epik_Metal_State_Penalty>
-0

> <b_epik_Metal_Only>
0

> <s_lp_Force_Field>
OPLS_2005

> <r_lp_Energy>
30.0509

> <b_lp_Chiralities_Consistent>
1

> <s_lp_Variant>
AV-unprocessed.smi:1631-1

> <Gold.Version>
5.8.1

> <Gold.Id.Protein>
6NUR|6NUR_protein|mol2

> <Gold.PLP.Fitness>
45.4343

> <Gold.PLP.PLP>
-38.1055

> <Gold.PLP.part.hbond>
-3.0000

> <Gold.PLP.part.metal>
0.0000

> <Gold.PLP.part.buried>
-5.1667

> <Gold.PLP.part.nonpolar>
-30.7994

> <Gold.PLP.part.repulsive>
0.0000

> <Gold.PLP.ligand.clash>
1.3964

> <Gold.PLP.ligand.torsion>
0.2517

> <Gold.PLP.Chemscore.Hbond>
2.6007

> <Gold.PLP.Chemscore.CHOScore>
0.0000

> <Gold.PLP.Chemscore.Metal>
0.0000

> <Gold.Chemscore.Hbonds>
donor molecule, donor type, donor heavy atom, donor atom, acceptor molecule, acceptor atom, score
      P1  H  6896  6909       L1     7  0.63
      P1  H  6931  6943       L1     3  0.30
      P1  H  6934  6947       L1     3  0.73

> <Gold.PLP.Chemscore.Internal.Correction>
1.4263

> <Gold.Rescore>
     Score         DG    S(hbond)    S(metal)    S(lipo)     H(rot)  DE(clash)    DE(int)     intcor
     13.37     -15.62       1.70        0.00      84.28       2.11       0.31       1.95       ----

> <Gold.Chemscore.Fitness>
13.3683

> <Gold.Chemscore.DG>
-15.6245

> <Gold.Chemscore.ZeroCoef>
-5.4800

> <Gold.Chemscore.Hbond>
1.7041

> <Gold.Chemscore.Metal>
0.0000

> <Gold.Chemscore.Lipo>
84.2791

> <Gold.Chemscore.Internal_Hbond>
0.0000

> <Gold.Chemscore.DEClash>
0.3094

> <Gold.Chemscore.DEInternal>
1.9469

> <Gold.Chemscore.Rot>
2.1124

> <Gold.Chemscore.Internal.Correction>
   9.000000E+99

> <Gold.Chemscore.Hbonds>
donor molecule, donor type, donor heavy atom, donor atom, acceptor molecule, acceptor atom, score
      P1  H  6896  6909       L1     7  0.27
      P1  H  6931  6943       L1     3  0.02
      P1  H  6934  6947       L1     3  0.58

> <Gold.Chemscore.Hbond.Weighted>
-5.6916

> <Gold.Chemscore.Metal.Weighted>
-0.0000

> <Gold.Chemscore.Lipo.Weighted>
-9.8607

> <Gold.Chemscore.Internal_Hbond.Weighted>
0.0000

> <Gold.Chemscore.DEClash.Weighted>
0.3094

> <Gold.Chemscore.DEInternal.Weighted>
1.9469

> <Gold.Chemscore.Rot.Weighted>
5.4078

> <Gold.Chemscore.Internal.Correction.Weighted>
   9.000000E+99

> <Gold.Protein.RotatedTorsions>
[ 6907 6896 6895 6894 ] final   92.31 input  -60.11 | X-H torsion
[ 7974 7965 7964 7962 ] final -107.13 input  175.53 | X-H torsion
[ 8008 7997 7996 7995 ] final   16.60 input   59.86 | X-H torsion
[ 10167 10162 10161 10158 ] final -166.81 input  -65.29 | X-H torsion
[ 10718 10713 10712 10709 ] final -117.23 input   66.30 | X-H torsion
[ 10763 10752 10751 10750 ] final   55.06 input  -60.55 | X-H torsion
[ 11005 11000 10999 10996 ] final  161.39 input  -57.11 | X-H torsion

> <Gold.Protein.ActiveResidues>
 VAL166  LYS551  ARG553  GLY616  TRP617  ASP618  TYR619  PRO620  LYS621  CYS622 
 ASP623  PHE694  ASN695  SER759  ASP760  ASP761  ALA762  ILE779  LEU786  VAL792 
 PHE793  MET794  SER795  GLU796  ALA797  LYS798  CYS799  TRP800  GLU811  SER814 

> <Gold.Protein.RotatedAtoms>
  152.5452  134.1522  159.8522 H   0  0  0  0  0  0  0  0  0  0  0  0  # atno 6907 bound_to 6896
  151.1548  133.4877  159.2602 H   0  0  0  0  0  0  0  0  0  0  0  0  # atno 6908 bound_to 6896
  151.1435  135.0202  159.8691 H   0  0  0  0  0  0  0  0  0  0  0  0  # atno 6909 bound_to 6896
  145.2091  140.9089  143.3325 H   0  0  0  0  0  0  0  0  0  0  0  0  # atno 7974 bound_to 7965
  154.8793  140.2970  155.5434 H   0  0  0  0  0  0  0  0  0  0  0  0  # atno 8008 bound_to 7997
  156.3022  140.2445  156.3727 H   0  0  0  0  0  0  0  0  0  0  0  0  # atno 8009 bound_to 7997
  154.8733  140.0400  157.1727 H   0  0  0  0  0  0  0  0  0  0  0  0  # atno 8010 bound_to 7997
  139.6090  144.0853  152.1823 H   0  0  0  0  0  0  0  0  0  0  0  0  # atno 10167 bound_to 10162
  156.1019  130.6179  150.9138 H   0  0  0  0  0  0  0  0  0  0  0  0  # atno 10718 bound_to 10713
  152.9812  135.5723  154.5006 H   0  0  0  0  0  0  0  0  0  0  0  0  # atno 10763 bound_to 10752
  154.4526  135.2779  155.1772 H   0  0  0  0  0  0  0  0  0  0  0  0  # atno 10764 bound_to 10752
  154.3394  135.6232  153.5642 H   0  0  0  0  0  0  0  0  0  0  0  0  # atno 10765 bound_to 10752
  140.2153  134.8237  157.3164 H   0  0  0  0  0  0  0  0  0  0  0  0  # atno 11005 bound_to 11000
  144.9873  139.3724  143.6232 LP  0  0  0  0  0  0  0  0  0  0  0  0  # atno 17320 bound_to 7965
  146.3401  139.9040  142.8790 LP  0  0  0  0  0  0  0  0  0  0  0  0  # atno 17321 bound_to 7965
  140.0467  144.5965  150.7368 LP  0  0  0  0  0  0  0  0  0  0  0  0  # atno 17342 bound_to 10162
  140.7306  143.2685  151.3966 LP  0  0  0  0  0  0  0  0  0  0  0  0  # atno 17343 bound_to 10162
  157.6190  131.0931  150.8656 LP  0  0  0  0  0  0  0  0  0  0  0  0  # atno 17370 bound_to 10713
  156.8783  130.5170  149.5292 LP  0  0  0  0  0  0  0  0  0  0  0  0  # atno 17371 bound_to 10713
  140.1907  134.4375  155.7717 LP  0  0  0  0  0  0  0  0  0  0  0  0  # atno 17394 bound_to 11000
  141.2225  133.7026  156.8022 LP  0  0  0  0  0  0  0  0  0  0  0  0  # atno 17395 bound_to 11000

$$$$
