AV-unprocessed.smi:686|AV-procd|sdf|3352|dock7
  -GOLD-   22720 0323D 1   1.00000     0.00000
 Structure written by MMmdl.
 40 41  0  0  0  0  0  0  0  0  3 V2000
  147.3893  131.9379  155.9609 C   0  0  0  0  0  0  0  0  0  0  0  0
  146.6414  133.2045  155.5004 C   0  0  1  0  0  0  0  0  0  0  0  0
  145.9386  133.0371  154.1418 C   0  0  0  0  0  0  0  0  0  0  0  0
  144.6465  133.7660  154.2197 N   0  3  2  0  0  0  0  0  0  0  0  0
  144.2815  134.5534  153.0079 C   0  0  0  0  0  0  0  0  0  0  0  0
  142.9082  135.2345  153.1641 C   0  0  0  0  0  0  0  0  0  0  0  0
  144.2742  133.6649  151.7497 C   0  0  0  0  0  0  0  0  0  0  0  0
  144.6547  134.5191  155.4920 C   0  0  0  0  0  0  0  0  0  0  0  0
  145.5261  133.6914  156.4373 C   0  0  2  0  0  0  0  0  0  0  0  0
  146.0622  134.4895  157.5296 N   0  5  0  0  0  0  0  0  0  0  0  0
  145.5215  134.2611  159.0428 S   0  0  0  0  0  0  0  0  0  0  0  0
  144.8496  135.4525  159.5879 O   0  0  0  0  0  0  0  0  0  0  0  0
  144.8272  132.9722  159.1919 O   0  0  0  0  0  0  0  0  0  0  0  0
  147.1148  134.0875  159.9599 C   0  0  0  0  0  0  0  0  0  0  0  0
  147.2675  135.1942  160.9680 C   0  0  0  0  0  0  0  0  0  0  0  0
  147.3489  135.0937  162.3850 C   0  0  0  0  0  0  0  0  0  0  0  0
  147.4771  136.3903  162.7910 C   0  0  0  0  0  0  0  0  0  0  0  0
  147.4685  137.2256  161.7220 O   0  0  0  0  0  0  0  0  0  0  0  0
  147.3301  136.4534  160.5629 N   0  0  0  0  0  0  0  0  0  0  0  0
  146.7230  131.0795  156.0655 H   0  0  0  0  0  0  0  0  0  0  0  0
  147.8927  132.0886  156.9176 H   0  0  0  0  0  0  0  0  0  0  0  0
  148.1567  131.6646  155.2364 H   0  0  0  0  0  0  0  0  0  0  0  0
  147.3725  134.0079  155.3868 H   0  0  0  0  0  0  0  0  0  0  0  0
  146.5800  133.4253  153.3489 H   0  0  0  0  0  0  0  0  0  0  0  0
  145.7338  131.9901  153.9114 H   0  0  0  0  0  0  0  0  0  0  0  0
  145.0318  135.3342  152.8733 H   0  0  0  0  0  0  0  0  0  0  0  0
  142.6295  135.7651  152.2532 H   0  0  0  0  0  0  0  0  0  0  0  0
  142.9048  135.9699  153.9688 H   0  0  0  0  0  0  0  0  0  0  0  0
  142.1249  134.5048  153.3735 H   0  0  0  0  0  0  0  0  0  0  0  0
  143.9820  134.2380  150.8692 H   0  0  0  0  0  0  0  0  0  0  0  0
  143.5702  132.8384  151.8536 H   0  0  0  0  0  0  0  0  0  0  0  0
  145.2557  133.2409  151.5387 H   0  0  0  0  0  0  0  0  0  0  0  0
  145.0949  135.5053  155.3293 H   0  0  0  0  0  0  0  0  0  0  0  0
  143.6445  134.6546  155.8795 H   0  0  0  0  0  0  0  0  0  0  0  0
  144.9531  132.8315  156.7875 H   0  0  0  0  0  0  0  0  0  0  0  0
  147.1066  133.1151  160.4526 H   0  0  0  0  0  0  0  0  0  0  0  0
  147.9342  134.0812  159.2416 H   0  0  0  0  0  0  0  0  0  0  0  0
  147.3237  134.2080  163.0026 H   0  0  0  0  0  0  0  0  0  0  0  0
  147.5783  136.8586  163.7590 H   0  0  0  0  0  0  0  0  0  0  0  0
  143.9382  133.0554  154.3354 H   0  0  0  0  0  0  0  0  0  0  0  0
  1  2  1  0  0  0  0
  1 20  1  0  0  0  0
  1 21  1  0  0  0  0
  1 22  1  0  0  0  0
  2  9  1  0  0  0  0
  2  3  1  0  0  0  0
  2 23  1  0  0  0  0
  3  4  1  0  0  0  0
  3 24  1  0  0  0  0
  3 25  1  0  0  0  0
  4  5  1  0  0  0  0
  4  8  1  0  0  0  0
  4 40  1  0  0  0  0
  5  6  1  0  0  0  0
  5  7  1  0  0  0  0
  5 26  1  0  0  0  0
  6 27  1  0  0  0  0
  6 28  1  0  0  0  0
  6 29  1  0  0  0  0
  7 30  1  0  0  0  0
  7 31  1  0  0  0  0
  7 32  1  0  0  0  0
  8  9  1  0  0  0  0
  8 33  1  0  0  0  0
  8 34  1  0  0  0  0
  9 10  1  0  0  0  0
  9 35  1  0  0  0  0
 10 11  1  0  0  0  0
 11 12  2  0  0  0  0
 11 13  2  0  0  0  0
 11 14  1  0  0  0  0
 14 15  1  0  0  0  0
 14 36  1  0  0  0  0
 14 37  1  0  0  0  0
 15 19  2  0  0  0  0
 15 16  1  0  0  0  0
 16 17  2  0  0  0  0
 16 38  1  0  0  0  0
 17 18  1  0  0  0  0
 17 39  1  0  0  0  0
 18 19  1  0  0  0  0
M  CHG  1   4   1
M  CHG  1  10  -1
M  END
> <s_m_source_file>
AV-unprocessed.smi

> <i_m_source_file_index>
686

> <i_lp_mmshare_version>
43012

> <i_f3d_flags>
0

> <s_epik_input>
W0NIM11bQ0BASF0xW0NIMl1OKFtDSF0oW0NIM10pW0NIM10pW0NIMl1bQ0BIXTFbTkhdUyg9TykoPU8pW0NIMl1jMltjSF1bY0hdb24y

> <s_epik_cmdline>
J2VwaWtfcHl0aG9uJywgJy1waCcsICc3LjAnLCAnLXRuJywgJzgnLCAnLW1hJywgJzIwMCcsICctbWV0YWxfYmluZGluZycsICctaW1hZScsICc8aW5maWxlLm1hZT4nLCAnLW9tYWUnLCAnPG91dGZpbGUubWFlPic=

> <r_epik_Ionization_Penalty>
3.62478

> <r_epik_Ionization_Penalty_Charging>
3.62478

> <r_epik_Ionization_Penalty_Neutral>
2.03645e-10

> <r_epik_State_Penalty>
3.6247

> <r_epik_Charging_Adjusted_Penalty>
7.24949

> <i_epik_Tot_Q>
0

> <i_epik_Tot_abs_Q>
2

> <r_epik_Metal_State_Penalty>
0.530836

> <b_epik_Metal_Only>
1

> <s_lp_Force_Field>
OPLS_2005

> <r_lp_Energy>
17.1192

> <b_lp_Chiralities_Consistent>
1

> <s_lp_Variant>
AV-unprocessed.smi:686-16

> <Gold.Version>
5.8.1

> <Gold.Id.Protein>
6NUR|6NUR_protein|mol2

> <Gold.PLP.Fitness>
34.1664

> <Gold.PLP.PLP>
-23.3900

> <Gold.PLP.part.hbond>
-3.0000

> <Gold.PLP.part.metal>
0.0000

> <Gold.PLP.part.buried>
-3.8252

> <Gold.PLP.part.nonpolar>
-15.7367

> <Gold.PLP.part.repulsive>
0.0000

> <Gold.PLP.ligand.clash>
0.0000

> <Gold.PLP.ligand.torsion>
0.7479

> <Gold.PLP.Chemscore.Hbond>
3.7440

> <Gold.PLP.Chemscore.CHOScore>
0.0000

> <Gold.PLP.Chemscore.Metal>
0.0000

> <Gold.Chemscore.Hbonds>
donor molecule, donor type, donor heavy atom, donor atom, acceptor molecule, acceptor atom, score
      L1  H     4    40       P1 10957  2.00
      P1  H  6931  6943       L1    18  0.93
      P1  H  6934  6947       L1    18  0.78

> <Gold.PLP.Chemscore.Internal.Correction>
1.0402

> <Gold.Rescore>
     Score         DG    S(hbond)    S(metal)    S(lipo)     H(rot)  DE(clash)    DE(int)     intcor
     11.76     -13.88       1.97        0.00      50.86       1.61       0.01       2.11       ----

> <Gold.Chemscore.Fitness>
11.7554

> <Gold.Chemscore.DG>
-13.8806

> <Gold.Chemscore.ZeroCoef>
-5.4800

> <Gold.Chemscore.Hbond>
1.9713

> <Gold.Chemscore.Metal>
0.0000

> <Gold.Chemscore.Lipo>
50.8579

> <Gold.Chemscore.Internal_Hbond>
0.0000

> <Gold.Chemscore.DEClash>
0.0103

> <Gold.Chemscore.DEInternal>
2.1148

> <Gold.Chemscore.Rot>
1.6149

> <Gold.Chemscore.Internal.Correction>
   9.000000E+99

> <Gold.Chemscore.Hbonds>
donor molecule, donor type, donor heavy atom, donor atom, acceptor molecule, acceptor atom, score
      L1  H     4    40       P1 10957  1.00
      P1  H  6931  6943       L1    18  0.43
      P1  H  6934  6947       L1    18  0.19

> <Gold.Chemscore.Hbond.Weighted>
-6.5843

> <Gold.Chemscore.Metal.Weighted>
-0.0000

> <Gold.Chemscore.Lipo.Weighted>
-5.9504

> <Gold.Chemscore.Internal_Hbond.Weighted>
0.0000

> <Gold.Chemscore.DEClash.Weighted>
0.0103

> <Gold.Chemscore.DEInternal.Weighted>
2.1148

> <Gold.Chemscore.Rot.Weighted>
4.1341

> <Gold.Chemscore.Internal.Correction.Weighted>
   9.000000E+99

> <Gold.Protein.RotatedTorsions>
[ 6907 6896 6895 6894 ] final  159.80 input  -60.11 | X-H torsion
[ 7974 7965 7964 7962 ] final  163.98 input  175.53 | X-H torsion
[ 8008 7997 7996 7995 ] final  -62.33 input   59.86 | X-H torsion
[ 10167 10162 10161 10158 ] final  142.86 input  -65.29 | X-H torsion
[ 10718 10713 10712 10709 ] final  135.73 input   66.30 | X-H torsion
[ 10763 10752 10751 10750 ] final   20.94 input  -60.55 | X-H torsion
[ 11005 11000 10999 10996 ] final  166.14 input  -57.11 | X-H torsion

> <Gold.Protein.ActiveResidues>
 VAL166  LYS551  ARG553  GLY616  TRP617  ASP618  TYR619  PRO620  LYS621  CYS622 
 ASP623  PHE694  ASN695  SER759  ASP760  ASP761  ALA762  ILE779  LEU786  VAL792 
 PHE793  MET794  SER795  GLU796  ALA797  LYS798  CYS799  TRP800  GLU811  SER814 

> <Gold.Protein.RotatedAtoms>
  151.9801  133.3755  159.4104 H   0  0  0  0  0  0  0  0  0  0  0  0  # atno 6907 bound_to 6896
  150.6936  134.4047  159.5144 H   0  0  0  0  0  0  0  0  0  0  0  0  # atno 6908 bound_to 6896
  152.1765  134.8790  160.0581 H   0  0  0  0  0  0  0  0  0  0  0  0  # atno 6909 bound_to 6896
  144.7565  139.8260  143.6348 H   0  0  0  0  0  0  0  0  0  0  0  0  # atno 7974 bound_to 7965
  154.4494  140.0998  156.6570 H   0  0  0  0  0  0  0  0  0  0  0  0  # atno 8008 bound_to 7997
  155.5335  140.3482  155.4413 H   0  0  0  0  0  0  0  0  0  0  0  0  # atno 8009 bound_to 7997
  156.0647  140.1335  156.9889 H   0  0  0  0  0  0  0  0  0  0  0  0  # atno 8010 bound_to 7997
  139.4983  144.6079  151.6338 H   0  0  0  0  0  0  0  0  0  0  0  0  # atno 10167 bound_to 10162
  157.4540  131.1068  150.9999 H   0  0  0  0  0  0  0  0  0  0  0  0  # atno 10718 bound_to 10713
  153.1036  135.6679  153.9627 H   0  0  0  0  0  0  0  0  0  0  0  0  # atno 10763 bound_to 10752
  153.9191  135.3016  155.3449 H   0  0  0  0  0  0  0  0  0  0  0  0  # atno 10764 bound_to 10752
  154.7457  135.5058  153.9276 H   0  0  0  0  0  0  0  0  0  0  0  0  # atno 10765 bound_to 10752
  140.2634  134.7884  157.3610 H   0  0  0  0  0  0  0  0  0  0  0  0  # atno 11005 bound_to 11000
  146.1581  139.4686  143.0005 LP  0  0  0  0  0  0  0  0  0  0  0  0  # atno 17320 bound_to 7965
  145.6761  141.0203  143.1631 LP  0  0  0  0  0  0  0  0  0  0  0  0  # atno 17321 bound_to 7965
  140.5745  144.0052  150.6234 LP  0  0  0  0  0  0  0  0  0  0  0  0  # atno 17342 bound_to 10162
  140.3180  143.3155  152.0812 LP  0  0  0  0  0  0  0  0  0  0  0  0  # atno 17343 bound_to 10162
  157.0819  130.5906  149.5422 LP  0  0  0  0  0  0  0  0  0  0  0  0  # atno 17370 bound_to 10713
  155.9999  130.5076  150.7625 LP  0  0  0  0  0  0  0  0  0  0  0  0  # atno 17371 bound_to 10713
  140.1443  134.4932  155.8008 LP  0  0  0  0  0  0  0  0  0  0  0  0  # atno 17394 bound_to 11000
  141.2187  133.6837  156.7265 LP  0  0  0  0  0  0  0  0  0  0  0  0  # atno 17395 bound_to 11000

$$$$
