AV-unprocessed.smi:40|AV-procd|sdf|375|dock6
  -GOLD-   2262016223D 1   1.00000     0.00000
 Structure written by MMmdl.
 47 48  0  0  0  0  0  0  0  0  1 V2000
  149.9192  129.3783  154.1263 C   0  0  0  0  0  0  0  0  0  0  0  0
  149.6831  130.7935  154.6653 C   0  0  0  0  0  0  0  0  0  0  0  0
  149.0806  131.7333  153.6114 C   0  0  0  0  0  0  0  0  0  0  0  0
  148.6518  133.0853  154.2022 C   0  0  0  0  0  0  0  0  0  0  0  0
  149.8410  134.0186  154.4841 C   0  0  0  0  0  0  0  0  0  0  0  0
  149.4465  135.1260  155.2833 O   0  0  0  0  0  0  0  0  0  0  0  0
  150.2653  136.1877  155.4534 C   0  0  0  0  0  0  0  0  0  0  0  0
  151.3411  136.3359  154.8745 O   0  0  0  0  0  0  0  0  0  0  0  0
  149.7278  137.1010  156.4412 N   0  0  0  0  0  0  0  0  0  0  0  0
  150.2880  138.2590  156.8522 C   0  0  0  0  0  0  0  0  0  0  0  0
  150.3726  139.2408  155.9733 N   0  0  0  0  0  0  0  0  0  0  0  0
  150.9228  140.4642  156.2507 C   0  0  0  0  0  0  0  0  0  0  0  0
  150.9683  141.3415  155.3898 O   0  0  0  0  0  0  0  0  0  0  0  0
  151.4195  140.6708  157.5594 N   0  0  0  0  0  0  0  0  0  0  0  0
  152.0603  141.9923  157.9216 C   0  0  2  0  0  0  0  0  0  0  0  0
  152.6836  141.8370  159.1588 O   0  0  0  0  0  0  0  0  0  0  0  0
  152.5152  143.0257  159.9139 C   0  0  2  0  0  0  0  0  0  0  0  0
  152.6691  142.7251  161.4089 C   0  0  0  0  0  0  0  0  0  0  0  0
  151.1234  143.5192  159.5129 C   0  0  1  0  0  0  0  0  0  0  0  0
  151.0265  144.9172  159.6992 O   0  0  0  0  0  0  0  0  0  0  0  0
  151.0475  143.1570  158.0335 C   0  0  2  0  0  0  0  0  0  0  0  0
  149.7218  142.8249  157.6603 O   0  0  0  0  0  0  0  0  0  0  0  0
  151.3207  139.6586  158.5018 C   0  0  0  0  0  0  0  0  0  0  0  0
  150.7755  138.4599  158.2052 C   0  0  0  0  0  0  0  0  0  0  0  0
  150.6791  137.5047  159.1462 F   0  0  0  0  0  0  0  0  0  0  0  0
  152.8367  142.1904  157.1819 H   0  0  0  0  0  0  0  0  0  0  0  0
  153.2782  143.7365  159.5903 H   0  0  0  0  0  0  0  0  0  0  0  0
  150.3548  142.9963  160.0848 H   0  0  0  0  0  0  0  0  0  0  0  0
  151.4114  143.9732  157.4074 H   0  0  0  0  0  0  0  0  0  0  0  0
  150.3505  128.7369  154.8952 H   0  0  0  0  0  0  0  0  0  0  0  0
  150.6049  129.3889  153.2788 H   0  0  0  0  0  0  0  0  0  0  0  0
  148.9855  128.9212  153.7972 H   0  0  0  0  0  0  0  0  0  0  0  0
  149.0215  130.7417  155.5307 H   0  0  0  0  0  0  0  0  0  0  0  0
  150.6285  131.2030  155.0231 H   0  0  0  0  0  0  0  0  0  0  0  0
  149.8075  131.9001  152.8155 H   0  0  0  0  0  0  0  0  0  0  0  0
  148.2210  131.2484  153.1469 H   0  0  0  0  0  0  0  0  0  0  0  0
  147.9445  133.5761  153.5327 H   0  0  0  0  0  0  0  0  0  0  0  0
  148.1156  132.9126  155.1358 H   0  0  0  0  0  0  0  0  0  0  0  0
  150.6535  133.4694  154.9623 H   0  0  0  0  0  0  0  0  0  0  0  0
  150.2398  134.3995  153.5437 H   0  0  0  0  0  0  0  0  0  0  0  0
  148.8094  136.8635  156.7861 H   0  0  0  0  0  0  0  0  0  0  0  0
  152.5272  143.6268  162.0053 H   0  0  0  0  0  0  0  0  0  0  0  0
  153.6631  142.3339  161.6268 H   0  0  0  0  0  0  0  0  0  0  0  0
  151.9402  141.9854  161.7409 H   0  0  0  0  0  0  0  0  0  0  0  0
  150.9232  145.0917  160.6222 H   0  0  0  0  0  0  0  0  0  0  0  0
  149.4970  143.3178  156.8863 H   0  0  0  0  0  0  0  0  0  0  0  0
  151.6799  139.8273  159.5071 H   0  0  0  0  0  0  0  0  0  0  0  0
  1  2  1  0  0  0  0
  1 30  1  0  0  0  0
  1 31  1  0  0  0  0
  1 32  1  0  0  0  0
  2  3  1  0  0  0  0
  2 33  1  0  0  0  0
  2 34  1  0  0  0  0
  3  4  1  0  0  0  0
  3 35  1  0  0  0  0
  3 36  1  0  0  0  0
  4  5  1  0  0  0  0
  4 37  1  0  0  0  0
  4 38  1  0  0  0  0
  5  6  1  0  0  0  0
  5 39  1  0  0  0  0
  5 40  1  0  0  0  0
  6  7  1  0  0  0  0
  7  8  2  0  0  0  0
  7  9  1  0  0  0  0
  9 10  1  0  0  0  0
  9 41  1  0  0  0  0
 10 24  1  0  0  0  0
 10 11  2  0  0  0  0
 11 12  1  0  0  0  0
 12 13  2  0  0  0  0
 12 14  1  0  0  0  0
 14 15  1  0  0  0  0
 14 23  1  0  0  0  0
 15 26  1  0  0  0  0
 15 21  1  0  0  0  0
 15 16  1  0  0  0  0
 16 17  1  0  0  0  0
 17 27  1  0  0  0  0
 17 18  1  0  0  0  0
 17 19  1  0  0  0  0
 18 42  1  0  0  0  0
 18 43  1  0  0  0  0
 18 44  1  0  0  0  0
 19 28  1  0  0  0  0
 19 20  1  0  0  0  0
 19 21  1  0  0  0  0
 20 45  1  0  0  0  0
 21 29  1  0  0  0  0
 21 22  1  0  0  0  0
 22 46  1  0  0  0  0
 23 24  2  0  0  0  0
 23 47  1  0  0  0  0
 24 25  1  0  0  0  0
M  END
> <s_m_source_file>
AV-unprocessed.smi

> <i_m_source_file_index>
40

> <i_lp_mmshare_version>
43012

> <i_f3d_flags>
0

> <s_epik_input>
W0NIM11bQ0gyXVtDSDJdW0NIMl1bQ0gyXU9DKD1PKVtOSF1jMW5jKD1PKW4oW2NIXWMxRilbQ0BASF0yT1tDQEhdKFtDSDNdKVtDQEBIXShbT0hdKVtDQEhdMltPSF0=

> <s_epik_cmdline>
J2VwaWtfcHl0aG9uJywgJy1waCcsICc3LjAnLCAnLXRuJywgJzgnLCAnLW1hJywgJzIwMCcsICctbWV0YWxfYmluZGluZycsICctaW1hZScsICc8aW5maWxlLm1hZT4nLCAnLW9tYWUnLCAnPG91dGZpbGUubWFlPic=

> <r_lp_tautomer_probability>
1

> <r_epik_Ionization_Penalty>
2.29506e-06

> <r_epik_Ionization_Penalty_Charging>
8.26867e-09

> <r_epik_Ionization_Penalty_Neutral>
2.2868e-06

> <r_epik_State_Penalty>
-0

> <r_epik_Charging_Adjusted_Penalty>
8.26867e-09

> <i_epik_Tot_Q>
0

> <i_epik_Tot_abs_Q>
0

> <r_epik_Metal_State_Penalty>
-0

> <b_epik_Metal_Only>
0

> <s_epik_Chemistry_Notes>
This compound has an ester and may undergo hydrolysis at high or low pH. This compound contains an acetal/aminal-like group ( X-CH(R)-Y where X, Y are N, S, or O) that may be acid/base labile, releasing an aldehyde.

> <s_lp_Force_Field>
OPLS_2005

> <r_lp_Energy>
38.1616

> <b_lp_Chiralities_Consistent>
1

> <s_lp_Variant>
AV-unprocessed.smi:40-9

> <Gold.Version>
5.8.1

> <Gold.Id.Protein>
6NUR|6NUR_protein|mol2

> <Gold.PLP.Fitness>
44.3600

> <Gold.PLP.PLP>
-38.7183

> <Gold.PLP.part.hbond>
-3.0000

> <Gold.PLP.part.metal>
0.0000

> <Gold.PLP.part.buried>
-5.6335

> <Gold.PLP.part.nonpolar>
-30.2079

> <Gold.PLP.part.repulsive>
0.3455

> <Gold.PLP.ligand.clash>
0.0000

> <Gold.PLP.ligand.torsion>
1.0626

> <Gold.PLP.Chemscore.Hbond>
2.5075

> <Gold.PLP.Chemscore.CHOScore>
0.0000

> <Gold.PLP.Chemscore.Metal>
0.0000

> <Gold.Chemscore.Hbonds>
donor molecule, donor type, donor heavy atom, donor atom, acceptor molecule, acceptor atom, score
      L1  H    22    46       P1  8028  1.00
      P1  H  7989  7998       L1    13  0.50
      P1  H 10752 10763       L1     8  1.00

> <Gold.PLP.Chemscore.Internal.Correction>
0.2445

> <Gold.Rescore>
     Score         DG    S(hbond)    S(metal)    S(lipo)     H(rot)  DE(clash)    DE(int)     intcor
     10.63     -13.12       2.47        0.00      75.70       3.70       1.16       1.33       ----

> <Gold.Chemscore.Fitness>
10.6322

> <Gold.Chemscore.DG>
-13.1152

> <Gold.Chemscore.ZeroCoef>
-5.4800

> <Gold.Chemscore.Hbond>
2.4669

> <Gold.Chemscore.Metal>
0.0000

> <Gold.Chemscore.Lipo>
75.6978

> <Gold.Chemscore.Internal_Hbond>
0.0000

> <Gold.Chemscore.DEClash>
1.1565

> <Gold.Chemscore.DEInternal>
1.3265

> <Gold.Chemscore.Rot>
3.6957

> <Gold.Chemscore.Internal.Correction>
   9.000000E+99

> <Gold.Chemscore.Hbonds>
donor molecule, donor type, donor heavy atom, donor atom, acceptor molecule, acceptor atom, score
      L1  H    22    46       P1  8028  0.97
      P1  H  7989  7998       L1    13  0.45
      P1  H 10752 10763       L1     8  1.00

> <Gold.Chemscore.Hbond.Weighted>
-8.2395

> <Gold.Chemscore.Metal.Weighted>
-0.0000

> <Gold.Chemscore.Lipo.Weighted>
-8.8566

> <Gold.Chemscore.Internal_Hbond.Weighted>
0.0000

> <Gold.Chemscore.DEClash.Weighted>
1.1565

> <Gold.Chemscore.DEInternal.Weighted>
1.3265

> <Gold.Chemscore.Rot.Weighted>
9.4610

> <Gold.Chemscore.Internal.Correction.Weighted>
   9.000000E+99

> <Gold.Protein.RotatedTorsions>
[ 6907 6896 6895 6894 ] final   75.21 input  -60.11 | X-H torsion
[ 7974 7965 7964 7962 ] final   93.71 input  175.53 | X-H torsion
[ 8008 7997 7996 7995 ] final -120.81 input   59.86 | X-H torsion
[ 10167 10162 10161 10158 ] final  -56.51 input  -65.29 | X-H torsion
[ 10718 10713 10712 10709 ] final -126.31 input   66.30 | X-H torsion
[ 10763 10752 10751 10750 ] final   53.60 input  -60.55 | X-H torsion
[ 11005 11000 10999 10996 ] final  135.40 input  -57.11 | X-H torsion

> <Gold.Protein.ActiveResidues>
 VAL166  LYS551  ARG553  GLY616  TRP617  ASP618  TYR619  PRO620  LYS621  CYS622 
 ASP623  PHE694  ASN695  SER759  ASP760  ASP761  ALA762  ILE779  LEU786  VAL792 
 PHE793  MET794  SER795  GLU796  ALA797  LYS798  CYS799  TRP800  GLU811  SER814 

> <Gold.Protein.RotatedAtoms>
  152.5015  134.4154  159.9462 H   0  0  0  0  0  0  0  0  0  0  0  0  # atno 6907 bound_to 6896
  151.4125  133.3717  159.2753 H   0  0  0  0  0  0  0  0  0  0  0  0  # atno 6908 bound_to 6896
  150.9281  134.8719  159.7593 H   0  0  0  0  0  0  0  0  0  0  0  0  # atno 6909 bound_to 6896
  145.4752  139.2280  143.2913 H   0  0  0  0  0  0  0  0  0  0  0  0  # atno 7974 bound_to 7965
  155.1378  140.0401  157.2791 H   0  0  0  0  0  0  0  0  0  0  0  0  # atno 8008 bound_to 7997
  154.6495  140.2566  155.7203 H   0  0  0  0  0  0  0  0  0  0  0  0  # atno 8009 bound_to 7997
  156.2570  140.2839  156.0923 H   0  0  0  0  0  0  0  0  0  0  0  0  # atno 8010 bound_to 7997
  140.6313  143.2460  151.5234 H   0  0  0  0  0  0  0  0  0  0  0  0  # atno 10167 bound_to 10162
  156.1753  130.6695  151.0234 H   0  0  0  0  0  0  0  0  0  0  0  0  # atno 10718 bound_to 10713
  152.9797  135.5773  154.4768 H   0  0  0  0  0  0  0  0  0  0  0  0  # atno 10763 bound_to 10752
  154.4323  135.2774  155.1906 H   0  0  0  0  0  0  0  0  0  0  0  0  # atno 10764 bound_to 10752
  154.3609  135.6189  153.5744 H   0  0  0  0  0  0  0  0  0  0  0  0  # atno 10765 bound_to 10752
  139.9977  134.9490  157.0002 H   0  0  0  0  0  0  0  0  0  0  0  0  # atno 11005 bound_to 11000
  146.2373  140.5534  142.8949 LP  0  0  0  0  0  0  0  0  0  0  0  0  # atno 17320 bound_to 7965
  144.7921  140.6052  143.6534 LP  0  0  0  0  0  0  0  0  0  0  0  0  # atno 17321 bound_to 7965
  139.5527  144.2355  152.1558 LP  0  0  0  0  0  0  0  0  0  0  0  0  # atno 17342 bound_to 10162
  140.1599  144.5035  150.6638 LP  0  0  0  0  0  0  0  0  0  0  0  0  # atno 17343 bound_to 10162
  157.6831  131.0832  150.7315 LP  0  0  0  0  0  0  0  0  0  0  0  0  # atno 17370 bound_to 10713
  156.7373  130.4728  149.5485 LP  0  0  0  0  0  0  0  0  0  0  0  0  # atno 17371 bound_to 10713
  140.4786  134.1313  155.7213 LP  0  0  0  0  0  0  0  0  0  0  0  0  # atno 17394 bound_to 11000
  141.1618  133.8779  157.1827 LP  0  0  0  0  0  0  0  0  0  0  0  0  # atno 17395 bound_to 11000

$$$$
