AV-unprocessed.smi:104|AV-procd|sdf|1000|dock2
  -GOLD-   2262017583D 1   1.00000     0.00000
 Structure written by MMmdl.
 47 49  0  0  0  0  0  0  0  0  1 V2000
  148.9814  132.6250  155.5613 C   0  0  0  0  0  0  0  0  0  0  0  0
  149.1777  133.1968  156.9595 C   0  0  0  0  0  0  0  0  0  0  0  0
  149.9395  132.6667  157.7680 O   0  0  0  0  0  0  0  0  0  0  0  0
  148.4467  134.3013  157.1710 O   0  0  0  0  0  0  0  0  0  0  0  0
  148.6606  135.0763  158.3399 C   0  0  0  0  0  0  0  0  0  0  0  0
  147.7794  136.3399  158.3015 C   0  0  1  0  0  0  0  0  0  0  0  0
  147.3694  136.5476  156.9577 O   0  0  0  0  0  0  0  0  0  0  0  0
  146.1952  135.8361  156.7110 C   0  0  2  0  0  0  0  0  0  0  0  0
  145.3245  136.6824  155.8328 N   0  0  0  0  0  0  0  0  0  0  0  0
  145.5756  137.9271  155.3025 C   0  0  0  0  0  0  0  0  0  0  0  0
  147.2078  138.8575  155.6143 Br  0  0  0  0  0  0  0  0  0  0  0  0
  144.6498  138.4517  154.5492 N   0  0  0  0  0  0  0  0  0  0  0  0
  143.6641  137.4724  154.5502 C   0  0  0  0  0  0  0  0  0  0  0  0
  142.3902  137.3570  153.9393 C   0  0  0  0  0  0  0  0  0  0  0  0
  141.8639  138.3117  153.1602 N   0  0  0  0  0  0  0  0  0  0  0  0
  141.6719  136.2290  154.1482 N   0  0  0  0  0  0  0  0  0  0  0  0
  142.1760  135.2594  154.9183 C   0  0  0  0  0  0  0  0  0  0  0  0
  143.3490  135.2234  155.5561 N   0  0  0  0  0  0  0  0  0  0  0  0
  144.0719  136.3631  155.3470 C   0  0  0  0  0  0  0  0  0  0  0  0
  145.5381  135.5150  158.0719 C   0  0  2  0  0  0  0  0  0  0  0  0
  144.2005  135.9985  158.1566 O   0  0  0  0  0  0  0  0  0  0  0  0
  143.4891  135.8413  159.2831 C   0  0  0  0  0  0  0  0  0  0  0  0
  142.1047  136.4670  159.1821 C   0  0  0  0  0  0  0  0  0  0  0  0
  143.8655  135.2700  160.3062 O   0  0  0  0  0  0  0  0  0  0  0  0
  146.4469  136.2368  159.0567 C   0  0  1  0  0  0  0  0  0  0  0  0
  146.5387  135.5071  160.2742 O   0  0  0  0  0  0  0  0  0  0  0  0
  147.2236  136.0116  161.3142 C   0  0  0  0  0  0  0  0  0  0  0  0
  147.2460  135.0652  162.5066 C   0  0  0  0  0  0  0  0  0  0  0  0
  147.7943  137.1016  161.3469 O   0  0  0  0  0  0  0  0  0  0  0  0
  148.4534  133.3330  154.9216 H   0  0  0  0  0  0  0  0  0  0  0  0
  148.4024  131.7029  155.6092 H   0  0  0  0  0  0  0  0  0  0  0  0
  149.9468  132.4046  155.1057 H   0  0  0  0  0  0  0  0  0  0  0  0
  148.3939  134.4662  159.2037 H   0  0  0  0  0  0  0  0  0  0  0  0
  149.7121  135.3472  158.4477 H   0  0  0  0  0  0  0  0  0  0  0  0
  148.3577  137.2019  158.6358 H   0  0  0  0  0  0  0  0  0  0  0  0
  146.4151  134.9423  156.1280 H   0  0  0  0  0  0  0  0  0  0  0  0
  142.3815  139.1613  152.9866 H   0  0  0  0  0  0  0  0  0  0  0  0
  140.9511  138.1807  152.7489 H   0  0  0  0  0  0  0  0  0  0  0  0
  141.5505  134.3875  155.0407 H   0  0  0  0  0  0  0  0  0  0  0  0
  145.5912  134.4335  158.2095 H   0  0  0  0  0  0  0  0  0  0  0  0
  141.5886  136.1047  158.2929 H   0  0  0  0  0  0  0  0  0  0  0  0
  142.1847  137.5523  159.1182 H   0  0  0  0  0  0  0  0  0  0  0  0
  141.5047  136.2149  160.0567 H   0  0  0  0  0  0  0  0  0  0  0  0
  146.0518  137.2405  159.2237 H   0  0  0  0  0  0  0  0  0  0  0  0
  146.2396  134.9361  162.9052 H   0  0  0  0  0  0  0  0  0  0  0  0
  147.8837  135.4606  163.2975 H   0  0  0  0  0  0  0  0  0  0  0  0
  147.6304  134.0894  162.2094 H   0  0  0  0  0  0  0  0  0  0  0  0
  1  2  1  0  0  0  0
  1 30  1  0  0  0  0
  1 31  1  0  0  0  0
  1 32  1  0  0  0  0
  2  3  2  0  0  0  0
  2  4  1  0  0  0  0
  4  5  1  0  0  0  0
  5  6  1  0  0  0  0
  5 33  1  0  0  0  0
  5 34  1  0  0  0  0
  6 25  1  0  0  0  0
  6  7  1  0  0  0  0
  6 35  1  0  0  0  0
  7  8  1  0  0  0  0
  8  9  1  0  0  0  0
  8 20  1  0  0  0  0
  8 36  1  0  0  0  0
  9 19  1  0  0  0  0
  9 10  1  0  0  0  0
 10 11  1  0  0  0  0
 10 12  2  0  0  0  0
 12 13  1  0  0  0  0
 13 19  2  0  0  0  0
 13 14  1  0  0  0  0
 14 15  1  0  0  0  0
 14 16  2  0  0  0  0
 15 37  1  0  0  0  0
 15 38  1  0  0  0  0
 16 17  1  0  0  0  0
 17 18  2  0  0  0  0
 17 39  1  0  0  0  0
 18 19  1  0  0  0  0
 20 21  1  0  0  0  0
 20 25  1  0  0  0  0
 20 40  1  0  0  0  0
 21 22  1  0  0  0  0
 22 23  1  0  0  0  0
 22 24  2  0  0  0  0
 23 41  1  0  0  0  0
 23 42  1  0  0  0  0
 23 43  1  0  0  0  0
 25 26  1  0  0  0  0
 25 44  1  0  0  0  0
 26 27  1  0  0  0  0
 27 28  1  0  0  0  0
 27 29  2  0  0  0  0
 28 45  1  0  0  0  0
 28 46  1  0  0  0  0
 28 47  1  0  0  0  0
M  END
> <s_m_source_file>
AV-unprocessed.smi

> <i_m_source_file_index>
104

> <i_lp_mmshare_version>
43012

> <i_f3d_flags>
0

> <s_epik_input>
W0NIM11DKD1PKU9bQ0gyXVtDQEBIXTFPW0NASF0oW0NAQEhdKE9DKD1PKVtDSDNdKVtDQEhdMU9DKD1PKVtDSDNdKW4oYyhCciluMiljKGMyMyluW2NIXW5jM1tOSDJd

> <s_epik_cmdline>
J2VwaWtfcHl0aG9uJywgJy1waCcsICc3LjAnLCAnLXRuJywgJzgnLCAnLW1hJywgJzIwMCcsICctbWV0YWxfYmluZGluZycsICctaW1hZScsICc8aW5maWxlLm1hZT4nLCAnLW9tYWUnLCAnPG91dGZpbGUubWFlPic=

> <r_lp_tautomer_probability>
1

> <r_epik_Ionization_Penalty>
7.36622e-05

> <r_epik_Ionization_Penalty_Charging>
0

> <r_epik_Ionization_Penalty_Neutral>
7.36622e-05

> <r_epik_State_Penalty>
-0

> <r_epik_Charging_Adjusted_Penalty>
0

> <i_epik_Tot_Q>
0

> <i_epik_Tot_abs_Q>
0

> <r_epik_Metal_State_Penalty>
-0

> <b_epik_Metal_Only>
0

> <s_epik_Chemistry_Notes>
This compound has an ester and may undergo hydrolysis at high or low pH. This compound contains an acetal/aminal-like group ( X-CH(R)-Y where X, Y are N, S, or O) that may be acid/base labile, releasing an aldehyde.

> <s_lp_Force_Field>
OPLS_2005

> <r_lp_Energy>
18.9649

> <b_lp_Chiralities_Consistent>
1

> <s_lp_Variant>
AV-unprocessed.smi:104-8

> <Gold.Version>
5.8.1

> <Gold.Id.Protein>
6NUR|6NUR_protein|mol2

> <Gold.PLP.Fitness>
32.7795

> <Gold.PLP.PLP>
-17.4818

> <Gold.PLP.part.hbond>
-4.0000

> <Gold.PLP.part.metal>
0.0000

> <Gold.PLP.part.buried>
-2.8609

> <Gold.PLP.part.nonpolar>
-13.1221

> <Gold.PLP.part.repulsive>
1.2083

> <Gold.PLP.ligand.clash>
0.0000

> <Gold.PLP.ligand.torsion>
0.6688

> <Gold.PLP.Chemscore.Hbond>
3.8160

> <Gold.PLP.Chemscore.CHOScore>
1.6799

> <Gold.PLP.Chemscore.Metal>
0.0000

> <Gold.Chemscore.Hbonds>
donor molecule, donor type, donor heavy atom, donor atom, acceptor molecule, acceptor atom, score
      L1  H    15    37       P1 10175  1.00
      P1  H  6896  6909       L1     3  1.00
      P1  H  6931  6943       L1    29  1.00
      P1  H  6934  6947       L1    29  0.74
      L1  C    17    39       P1 10957  0.20
      L1  C    17    39       P1 11000  0.85

> <Gold.PLP.Chemscore.Internal.Correction>
0.1475

> <Gold.Rescore>
     Score         DG    S(hbond)    S(metal)    S(lipo)     H(rot)  DE(clash)    DE(int)     intcor
      1.13      -9.66       3.74        0.00      23.21       4.31       0.12       8.42       ----

> <Gold.Chemscore.Fitness>
1.1263

> <Gold.Chemscore.DG>
-9.6575

> <Gold.Chemscore.ZeroCoef>
-5.4800

> <Gold.Chemscore.Hbond>
3.7388

> <Gold.Chemscore.Metal>
0.0000

> <Gold.Chemscore.Lipo>
23.2116

> <Gold.Chemscore.Internal_Hbond>
0.0000

> <Gold.Chemscore.DEClash>
0.1151

> <Gold.Chemscore.DEInternal>
8.4161

> <Gold.Chemscore.Rot>
4.3070

> <Gold.Chemscore.Internal.Correction>
   9.000000E+99

> <Gold.Chemscore.Hbonds>
donor molecule, donor type, donor heavy atom, donor atom, acceptor molecule, acceptor atom, score
      L1  H    15    37       P1 10175  1.00
      P1  H  6896  6909       L1     3  0.95
      P1  H  6931  6943       L1    29  0.97
      P1  H  6934  6947       L1    29  0.70

> <Gold.Chemscore.Hbond.Weighted>
-12.4876

> <Gold.Chemscore.Metal.Weighted>
-0.0000

> <Gold.Chemscore.Lipo.Weighted>
-2.7158

> <Gold.Chemscore.Internal_Hbond.Weighted>
0.0000

> <Gold.Chemscore.DEClash.Weighted>
0.1151

> <Gold.Chemscore.DEInternal.Weighted>
8.4161

> <Gold.Chemscore.Rot.Weighted>
11.0259

> <Gold.Chemscore.Internal.Correction.Weighted>
   9.000000E+99

> <Gold.Protein.RotatedTorsions>
[ 6907 6896 6895 6894 ] final   -6.80 input  -60.11 | X-H torsion
[ 7974 7965 7964 7962 ] final -122.05 input  175.53 | X-H torsion
[ 8008 7997 7996 7995 ] final    2.42 input   59.86 | X-H torsion
[ 10167 10162 10161 10158 ] final    9.18 input  -65.29 | X-H torsion
[ 10718 10713 10712 10709 ] final  -25.95 input   66.30 | X-H torsion
[ 10763 10752 10751 10750 ] final  118.15 input  -60.55 | X-H torsion
[ 11005 11000 10999 10996 ] final  137.02 input  -57.11 | X-H torsion

> <Gold.Protein.ActiveResidues>
 VAL166  LYS551  ARG553  GLY616  TRP617  ASP618  TYR619  PRO620  LYS621  CYS622 
 ASP623  PHE694  ASN695  SER759  ASP760  ASP761  ALA762  ILE779  LEU786  VAL792 
 PHE793  MET794  SER795  GLU796  ALA797  LYS798  CYS799  TRP800  GLU811  SER814 

> <Gold.Protein.RotatedAtoms>
  151.4598  135.1037  159.9721 H   0  0  0  0  0  0  0  0  0  0  0  0  # atno 6907 bound_to 6896
  152.4857  133.8363  159.7140 H   0  0  0  0  0  0  0  0  0  0  0  0  # atno 6908 bound_to 6896
  150.8965  133.7114  159.2917 H   0  0  0  0  0  0  0  0  0  0  0  0  # atno 6909 bound_to 6896
  145.0337  140.8088  143.4308 H   0  0  0  0  0  0  0  0  0  0  0  0  # atno 7974 bound_to 7965
  154.6914  140.2654  155.6809 H   0  0  0  0  0  0  0  0  0  0  0  0  # atno 8008 bound_to 7997
  156.2733  140.2790  156.1417 H   0  0  0  0  0  0  0  0  0  0  0  0  # atno 8009 bound_to 7997
  155.0891  140.0373  157.2653 H   0  0  0  0  0  0  0  0  0  0  0  0  # atno 8010 bound_to 7997
  140.6270  143.8078  150.7246 H   0  0  0  0  0  0  0  0  0  0  0  0  # atno 10167 bound_to 10162
  156.4577  130.4497  149.6949 H   0  0  0  0  0  0  0  0  0  0  0  0  # atno 10718 bound_to 10713
  153.5632  135.3516  155.2808 H   0  0  0  0  0  0  0  0  0  0  0  0  # atno 10763 bound_to 10752
  154.8692  135.4141  154.2807 H   0  0  0  0  0  0  0  0  0  0  0  0  # atno 10764 bound_to 10752
  153.3557  135.7057  153.6822 H   0  0  0  0  0  0  0  0  0  0  0  0  # atno 10765 bound_to 10752
  140.0085  134.9449  157.0228 H   0  0  0  0  0  0  0  0  0  0  0  0  # atno 11005 bound_to 11000
  145.1737  139.2390  143.5328 LP  0  0  0  0  0  0  0  0  0  0  0  0  # atno 17320 bound_to 7965
  146.3501  140.1495  142.8592 LP  0  0  0  0  0  0  0  0  0  0  0  0  # atno 17321 bound_to 7965
  140.1681  143.4218  152.2020 LP  0  0  0  0  0  0  0  0  0  0  0  0  # atno 17342 bound_to 10162
  139.5489  144.7322  151.4496 LP  0  0  0  0  0  0  0  0  0  0  0  0  # atno 17343 bound_to 10162
  156.3750  130.7550  151.2537 LP  0  0  0  0  0  0  0  0  0  0  0  0  # atno 17370 bound_to 10713
  157.7499  131.0312  150.4172 LP  0  0  0  0  0  0  0  0  0  0  0  0  # atno 17371 bound_to 10713
  140.4597  134.1497  155.7190 LP  0  0  0  0  0  0  0  0  0  0  0  0  # atno 17394 bound_to 11000
  141.1694  133.8638  157.1616 LP  0  0  0  0  0  0  0  0  0  0  0  0  # atno 17395 bound_to 11000

$$$$
