AV-unprocessed.smi:249|AV-procd|sdf|1909|dock10
  -GOLD-   2262020593D 1   1.00000     0.00000
 Structure written by MMmdl.
 64 67  0  0  0  0  0  0  0  0  2 V2000
  144.3012  132.4491  150.2413 C   0  0  0  0  0  0  0  0  0  0  0  0
  143.9498  133.1369  151.5689 C   0  0  0  0  0  0  0  0  0  0  0  0
  144.6078  134.4603  151.7389 N   0  3  1  0  0  0  0  0  0  0  0  0
  144.0370  135.2273  152.8788 C   0  0  0  0  0  0  0  0  0  0  0  0
  144.5460  136.6769  152.8911 C   0  0  0  0  0  0  0  0  0  0  0  0
  146.0866  136.7185  152.9083 C   0  0  2  0  0  0  0  0  0  0  0  0
  146.6423  138.0764  153.0036 N   0  0  0  0  0  0  0  0  0  0  0  0
  146.4964  138.9534  151.8463 C   0  0  0  0  0  0  0  0  0  0  0  0
  147.7075  138.3798  153.7931 C   0  0  0  0  0  0  0  0  0  0  0  0
  148.4628  137.3904  154.3379 N   0  0  0  0  0  0  0  0  0  0  0  0
  149.5196  137.6841  155.1007 C   0  0  0  0  0  0  0  0  0  0  0  0
  149.9975  138.8828  155.4365 N   0  0  0  0  0  0  0  0  0  0  0  0
  149.2514  139.8827  154.8873 C   0  0  0  0  0  0  0  0  0  0  0  0
  148.1009  139.7215  154.0639 C   0  0  0  0  0  0  0  0  0  0  0  0
  147.5981  140.9676  153.7086 N   0  0  0  0  0  0  0  0  0  0  0  0
  148.4077  141.8155  154.2817 C   0  0  0  0  0  0  0  0  0  0  0  0
  149.4425  141.2495  154.9917 N   0  0  0  0  0  0  0  0  0  0  0  0
  150.4775  141.9542  155.7276 C   0  0  0  0  0  0  0  0  0  0  0  0
  150.7948  141.3711  157.1336 C   0  0  2  0  0  0  0  0  0  0  0  0
  149.4848  141.2896  157.9546 C   0  0  0  0  0  0  0  0  0  0  0  0
  148.7724  142.5089  157.9104 O   0  0  0  0  0  0  0  0  0  0  0  0
  151.8956  142.1695  157.8950 C   0  0  1  0  0  0  0  0  0  0  0  0
  151.5827  143.6415  158.1229 C   0  0  0  0  0  0  0  0  0  0  0  0
  152.5452  144.0108  159.2414 C   0  0  0  0  0  0  0  0  0  0  0  0
  152.5536  142.8719  160.0862 O   0  0  0  0  0  0  0  0  0  0  0  0
  152.1706  141.7196  159.3412 C   0  0  0  0  0  0  0  0  0  0  0  0
  146.6572  135.8826  151.7412 C   0  0  0  0  0  0  0  0  0  0  0  0
  146.1046  134.4422  151.7374 C   0  0  1  0  0  0  0  0  0  0  0  0
  146.7175  133.5746  152.8580 C   0  0  0  0  0  0  0  0  0  0  0  0
  143.6888  131.5584  150.1000 H   0  0  0  0  0  0  0  0  0  0  0  0
  145.3422  132.1286  150.2101 H   0  0  0  0  0  0  0  0  0  0  0  0
  144.1218  133.1101  149.3930 H   0  0  0  0  0  0  0  0  0  0  0  0
  142.8696  133.2871  151.5843 H   0  0  0  0  0  0  0  0  0  0  0  0
  144.1724  132.4827  152.4120 H   0  0  0  0  0  0  0  0  0  0  0  0
  142.9491  135.2417  152.8021 H   0  0  0  0  0  0  0  0  0  0  0  0
  144.2721  134.7320  153.8212 H   0  0  0  0  0  0  0  0  0  0  0  0
  144.1507  137.1940  152.0176 H   0  0  0  0  0  0  0  0  0  0  0  0
  144.1428  137.1946  153.7620 H   0  0  0  0  0  0  0  0  0  0  0  0
  146.4053  136.2244  153.8266 H   0  0  0  0  0  0  0  0  0  0  0  0
  145.9401  139.8508  152.1172 H   0  0  0  0  0  0  0  0  0  0  0  0
  145.9517  138.4600  151.0408 H   0  0  0  0  0  0  0  0  0  0  0  0
  147.4682  139.2557  151.4530 H   0  0  0  0  0  0  0  0  0  0  0  0
  150.0615  136.8379  155.4965 H   0  0  0  0  0  0  0  0  0  0  0  0
  148.2779  142.8841  154.1906 H   0  0  0  0  0  0  0  0  0  0  0  0
  151.3839  141.9705  155.1211 H   0  0  0  0  0  0  0  0  0  0  0  0
  150.1499  142.9909  155.8083 H   0  0  0  0  0  0  0  0  0  0  0  0
  151.1558  140.3488  157.0133 H   0  0  0  0  0  0  0  0  0  0  0  0
  148.8121  140.5282  157.5622 H   0  0  0  0  0  0  0  0  0  0  0  0
  149.6930  141.0297  158.9931 H   0  0  0  0  0  0  0  0  0  0  0  0
  149.0486  142.9919  157.1464 H   0  0  0  0  0  0  0  0  0  0  0  0
  152.8290  142.1135  157.3320 H   0  0  0  0  0  0  0  0  0  0  0  0
  151.7334  144.2581  157.2364 H   0  0  0  0  0  0  0  0  0  0  0  0
  150.5528  143.7671  158.4604 H   0  0  0  0  0  0  0  0  0  0  0  0
  153.5495  144.1676  158.8460 H   0  0  0  0  0  0  0  0  0  0  0  0
  152.2435  144.9093  159.7801 H   0  0  0  0  0  0  0  0  0  0  0  0
  151.2757  141.3046  159.8060 H   0  0  0  0  0  0  0  0  0  0  0  0
  152.9584  140.9693  159.3932 H   0  0  0  0  0  0  0  0  0  0  0  0
  146.4097  136.3358  150.7823 H   0  0  0  0  0  0  0  0  0  0  0  0
  147.7467  135.8652  151.7920 H   0  0  0  0  0  0  0  0  0  0  0  0
  146.4290  134.0075  150.7926 H   0  0  0  0  0  0  0  0  0  0  0  0
  147.8064  133.6127  152.8191 H   0  0  0  0  0  0  0  0  0  0  0  0
  146.4385  132.5261  152.7567 H   0  0  0  0  0  0  0  0  0  0  0  0
  146.4190  133.9039  153.8525 H   0  0  0  0  0  0  0  0  0  0  0  0
  144.3497  134.9878  150.9171 H   0  0  0  0  0  0  0  0  0  0  0  0
  1  2  1  0  0  0  0
  1 30  1  0  0  0  0
  1 31  1  0  0  0  0
  1 32  1  0  0  0  0
  2  3  1  0  0  0  0
  2 33  1  0  0  0  0
  2 34  1  0  0  0  0
  3 28  1  0  0  0  0
  3  4  1  0  0  0  0
  3 64  1  0  0  0  0
  4  5  1  0  0  0  0
  4 35  1  0  0  0  0
  4 36  1  0  0  0  0
  5  6  1  0  0  0  0
  5 37  1  0  0  0  0
  5 38  1  0  0  0  0
  6  7  1  0  0  0  0
  6 27  1  0  0  0  0
  6 39  1  0  0  0  0
  7  8  1  0  0  0  0
  7  9  1  0  0  0  0
  8 40  1  0  0  0  0
  8 41  1  0  0  0  0
  8 42  1  0  0  0  0
  9 14  1  0  0  0  0
  9 10  2  0  0  0  0
 10 11  1  0  0  0  0
 11 12  2  0  0  0  0
 11 43  1  0  0  0  0
 12 13  1  0  0  0  0
 13 17  1  0  0  0  0
 13 14  2  0  0  0  0
 14 15  1  0  0  0  0
 15 16  2  0  0  0  0
 16 17  1  0  0  0  0
 16 44  1  0  0  0  0
 17 18  1  0  0  0  0
 18 19  1  0  0  0  0
 18 45  1  0  0  0  0
 18 46  1  0  0  0  0
 19 20  1  0  0  0  0
 19 22  1  0  0  0  0
 19 47  1  0  0  0  0
 20 21  1  0  0  0  0
 20 48  1  0  0  0  0
 20 49  1  0  0  0  0
 21 50  1  0  0  0  0
 22 26  1  0  0  0  0
 22 23  1  0  0  0  0
 22 51  1  0  0  0  0
 23 24  1  0  0  0  0
 23 52  1  0  0  0  0
 23 53  1  0  0  0  0
 24 25  1  0  0  0  0
 24 54  1  0  0  0  0
 24 55  1  0  0  0  0
 25 26  1  0  0  0  0
 26 56  1  0  0  0  0
 26 57  1  0  0  0  0
 27 28  1  0  0  0  0
 27 58  1  0  0  0  0
 27 59  1  0  0  0  0
 28 29  1  0  0  0  0
 28 60  1  0  0  0  0
 29 61  1  0  0  0  0
 29 62  1  0  0  0  0
 29 63  1  0  0  0  0
M  CHG  1   3   1
M  END
> <s_m_source_file>
AV-unprocessed.smi

> <i_m_source_file_index>
249

> <i_lp_mmshare_version>
43012

> <i_f3d_flags>
0

> <s_epik_input>
W0NIM11bQ0gyXU4xW0NIMl1bQ0gyXVtDQEhdKFtDSDJdW0NASF0xW0NIM10pTihbQ0gzXSljKG5bY0hdbjIpYyhjMjMpbltjSF1uM1tDSDJdW0NASF0oW0NIMl1bT0hdKVtDQEBIXTRbQ0gyXVtDSDJdT1tDSDJdNA==

> <s_epik_cmdline>
J2VwaWtfcHl0aG9uJywgJy1waCcsICc3LjAnLCAnLXRuJywgJzgnLCAnLW1hJywgJzIwMCcsICctbWV0YWxfYmluZGluZycsICctaW1hZScsICc8aW5maWxlLm1hZT4nLCAnLW9tYWUnLCAnPG91dGZpbGUubWFlPic=

> <r_lp_tautomer_probability>
1

> <r_epik_Ionization_Penalty>
0.00294688

> <r_epik_Ionization_Penalty_Charging>
0.00169971

> <r_epik_Ionization_Penalty_Neutral>
0.00124717

> <r_epik_State_Penalty>
-0

> <r_epik_Charging_Adjusted_Penalty>
0.00169971

> <i_epik_Tot_Q>
1

> <i_epik_Tot_abs_Q>
1

> <r_epik_Metal_State_Penalty>
-0

> <b_epik_Metal_Only>
0

> <s_lp_Force_Field>
OPLS_2005

> <r_lp_Energy>
54.5732

> <b_lp_Chiralities_Consistent>
1

> <s_lp_Variant>
AV-unprocessed.smi:249-12

> <Gold.Version>
5.8.1

> <Gold.Id.Protein>
6NUR|6NUR_protein|mol2

> <Gold.PLP.Fitness>
48.0106

> <Gold.PLP.PLP>
-43.5736

> <Gold.PLP.part.hbond>
-1.3048

> <Gold.PLP.part.metal>
0.0000

> <Gold.PLP.part.buried>
0.9268

> <Gold.PLP.part.nonpolar>
-44.7621

> <Gold.PLP.part.repulsive>
1.3380

> <Gold.PLP.ligand.clash>
0.0000

> <Gold.PLP.ligand.torsion>
1.0806

> <Gold.PLP.Chemscore.Hbond>
0.8960

> <Gold.PLP.Chemscore.CHOScore>
0.9412

> <Gold.PLP.Chemscore.Metal>
0.0000

> <Gold.Chemscore.Hbonds>
donor molecule, donor type, donor heavy atom, donor atom, acceptor molecule, acceptor atom, score
      L1  H    21    50       P1  8028  0.39
      L1  C    16    44       P1  8028  1.00

> <Gold.PLP.Chemscore.Internal.Correction>
1.0865

> <Gold.Rescore>
     Score         DG    S(hbond)    S(metal)    S(lipo)     H(rot)  DE(clash)    DE(int)     intcor
      9.44     -14.89       0.73        0.00     117.52       2.65       3.09       2.36       ----

> <Gold.Chemscore.Fitness>
9.4397

> <Gold.Chemscore.DG>
-14.8894

> <Gold.Chemscore.ZeroCoef>
-5.4800

> <Gold.Chemscore.Hbond>
0.7330

> <Gold.Chemscore.Metal>
0.0000

> <Gold.Chemscore.Lipo>
117.5150

> <Gold.Chemscore.Internal_Hbond>
0.0000

> <Gold.Chemscore.DEClash>
3.0867

> <Gold.Chemscore.DEInternal>
2.3630

> <Gold.Chemscore.Rot>
2.6515

> <Gold.Chemscore.Internal.Correction>
   9.000000E+99

> <Gold.Chemscore.Hbonds>
donor molecule, donor type, donor heavy atom, donor atom, acceptor molecule, acceptor atom, score
      L1  H    21    50       P1  8028  0.32

> <Gold.Chemscore.Hbond.Weighted>
-2.4481

> <Gold.Chemscore.Metal.Weighted>
-0.0000

> <Gold.Chemscore.Lipo.Weighted>
-13.7493

> <Gold.Chemscore.Internal_Hbond.Weighted>
0.0000

> <Gold.Chemscore.DEClash.Weighted>
3.0867

> <Gold.Chemscore.DEInternal.Weighted>
2.3630

> <Gold.Chemscore.Rot.Weighted>
6.7880

> <Gold.Chemscore.Internal.Correction.Weighted>
   9.000000E+99

> <Gold.Protein.RotatedTorsions>
[ 6907 6896 6895 6894 ] final -147.77 input  -60.11 | X-H torsion
[ 7974 7965 7964 7962 ] final -130.09 input  175.53 | X-H torsion
[ 8008 7997 7996 7995 ] final  -95.90 input   59.86 | X-H torsion
[ 10167 10162 10161 10158 ] final -155.93 input  -65.29 | X-H torsion
[ 10718 10713 10712 10709 ] final   96.59 input   66.30 | X-H torsion
[ 10763 10752 10751 10750 ] final -169.77 input  -60.55 | X-H torsion
[ 11005 11000 10999 10996 ] final    3.84 input  -57.11 | X-H torsion

> <Gold.Protein.ActiveResidues>
 VAL166  LYS551  ARG553  GLY616  TRP617  ASP618  TYR619  PRO620  LYS621  CYS622 
 ASP623  PHE694  ASN695  SER759  ASP760  ASP761  ALA762  ILE779  LEU786  VAL792 
 PHE793  MET794  SER795  GLU796  ALA797  LYS798  CYS799  TRP800  GLU811  SER814 

> <Gold.Protein.RotatedAtoms>
  151.1604  133.4849  159.2594 H   0  0  0  0  0  0  0  0  0  0  0  0  # atno 6907 bound_to 6896
  151.1460  135.0203  159.8657 H   0  0  0  0  0  0  0  0  0  0  0  0  # atno 6908 bound_to 6896
  152.5463  134.1493  159.8565 H   0  0  0  0  0  0  0  0  0  0  0  0  # atno 6909 bound_to 6896
  144.9509  140.7343  143.4788 H   0  0  0  0  0  0  0  0  0  0  0  0  # atno 7974 bound_to 7965
  154.7674  140.0476  157.1023 H   0  0  0  0  0  0  0  0  0  0  0  0  # atno 8008 bound_to 7997
  154.9863  140.3107  155.4905 H   0  0  0  0  0  0  0  0  0  0  0  0  # atno 8009 bound_to 7997
  156.2915  140.2227  156.4965 H   0  0  0  0  0  0  0  0  0  0  0  0  # atno 8010 bound_to 7997
  139.6891  143.9451  152.2376 H   0  0  0  0  0  0  0  0  0  0  0  0  # atno 10167 bound_to 10162
  157.6925  131.0583  150.4514 H   0  0  0  0  0  0  0  0  0  0  0  0  # atno 10718 bound_to 10713
  154.6487  135.2908  155.0014 H   0  0  0  0  0  0  0  0  0  0  0  0  # atno 10763 bound_to 10752
  154.1115  135.6562  153.4890 H   0  0  0  0  0  0  0  0  0  0  0  0  # atno 10764 bound_to 10752
  153.0364  135.5266  154.7385 H   0  0  0  0  0  0  0  0  0  0  0  0  # atno 10765 bound_to 10752
  140.5886  133.9945  155.8079 H   0  0  0  0  0  0  0  0  0  0  0  0  # atno 11005 bound_to 11000
  145.2846  139.1906  143.4773 LP  0  0  0  0  0  0  0  0  0  0  0  0  # atno 17320 bound_to 7965
  146.3320  140.2813  142.8610 LP  0  0  0  0  0  0  0  0  0  0  0  0  # atno 17321 bound_to 7965
  139.9262  144.6769  150.8410 LP  0  0  0  0  0  0  0  0  0  0  0  0  # atno 17342 bound_to 10162
  140.7677  143.3340  151.2348 LP  0  0  0  0  0  0  0  0  0  0  0  0  # atno 17343 bound_to 10162
  156.4865  130.4085  149.6431 LP  0  0  0  0  0  0  0  0  0  0  0  0  # atno 17370 bound_to 10713
  156.3457  130.7405  151.2357 LP  0  0  0  0  0  0  0  0  0  0  0  0  # atno 17371 bound_to 10713
  141.0950  133.9858  157.3175 LP  0  0  0  0  0  0  0  0  0  0  0  0  # atno 17394 bound_to 11000
  139.9284  135.0201  156.8316 LP  0  0  0  0  0  0  0  0  0  0  0  0  # atno 17395 bound_to 11000

$$$$
