AV-unprocessed.smi:517|AV-procd|sdf|2789|dock3
  -GOLD-   2262023263D 1   1.00000     0.00000
 Structure written by MMmdl.
 35 36  0  0  0  0  0  0  0  0  1 V2000
  148.1751  140.8739  154.2337 C   0  0  0  0  0  0  0  0  0  0  0  0
  148.8842  140.9015  155.5894 C   0  0  0  0  0  0  0  0  0  0  0  0
  150.2580  140.6065  155.4018 O   0  0  0  0  0  0  0  0  0  0  0  0
  151.0840  141.2018  156.3890 C   0  0  0  0  0  0  0  0  0  0  0  0
  151.0302  140.3895  157.6905 C   0  0  0  0  0  0  0  0  0  0  0  0
  151.7333  141.0444  158.7865 N   0  0  0  0  0  0  0  0  0  0  0  0
  152.6293  140.5260  159.6701 C   0  0  0  0  0  0  0  0  0  0  0  0
  153.0812  139.0897  159.6466 C   0  0  1  0  0  0  0  0  0  0  0  0
  151.9037  138.1119  159.7680 C   0  0  0  0  0  0  0  0  0  0  0  0
  153.7989  138.7821  158.4696 O   0  0  0  0  0  0  0  0  0  0  0  0
  153.0755  141.3757  160.5986 N   0  0  0  0  0  0  0  0  0  0  0  0
  152.4420  142.5561  160.2692 C   0  0  0  0  0  0  0  0  0  0  0  0
  152.5126  143.8343  160.8682 C   0  0  0  0  0  0  0  0  0  0  0  0
  151.7640  144.9093  160.3461 C   0  0  0  0  0  0  0  0  0  0  0  0
  150.9347  144.7211  159.2216 C   0  0  0  0  0  0  0  0  0  0  0  0
  150.8480  143.4545  158.6122 C   0  0  0  0  0  0  0  0  0  0  0  0
  151.5982  142.3846  159.1369 C   0  0  0  0  0  0  0  0  0  0  0  0
  147.1082  141.0656  154.3485 H   0  0  0  0  0  0  0  0  0  0  0  0
  148.2911  139.9038  153.7502 H   0  0  0  0  0  0  0  0  0  0  0  0
  148.5791  141.6340  153.5648 H   0  0  0  0  0  0  0  0  0  0  0  0
  148.7672  141.8840  156.0488 H   0  0  0  0  0  0  0  0  0  0  0  0
  148.4333  140.1677  156.2589 H   0  0  0  0  0  0  0  0  0  0  0  0
  152.1119  141.2557  156.0270 H   0  0  0  0  0  0  0  0  0  0  0  0
  150.7548  142.2233  156.5850 H   0  0  0  0  0  0  0  0  0  0  0  0
  149.9898  140.2513  157.9865 H   0  0  0  0  0  0  0  0  0  0  0  0
  151.4223  139.3844  157.5429 H   0  0  0  0  0  0  0  0  0  0  0  0
  153.7516  138.8912  160.4791 H   0  0  0  0  0  0  0  0  0  0  0  0
  151.3353  138.2965  160.6786 H   0  0  0  0  0  0  0  0  0  0  0  0
  152.2510  137.0788  159.7994 H   0  0  0  0  0  0  0  0  0  0  0  0
  151.2166  138.2056  158.9261 H   0  0  0  0  0  0  0  0  0  0  0  0
  154.4276  138.1065  158.6716 H   0  0  0  0  0  0  0  0  0  0  0  0
  153.1454  143.9880  161.7299 H   0  0  0  0  0  0  0  0  0  0  0  0
  151.8268  145.8825  160.8104 H   0  0  0  0  0  0  0  0  0  0  0  0
  150.3648  145.5497  158.8274 H   0  0  0  0  0  0  0  0  0  0  0  0
  150.2139  143.3087  157.7507 H   0  0  0  0  0  0  0  0  0  0  0  0
  1  2  1  0  0  0  0
  1 18  1  0  0  0  0
  1 19  1  0  0  0  0
  1 20  1  0  0  0  0
  2  3  1  0  0  0  0
  2 21  1  0  0  0  0
  2 22  1  0  0  0  0
  3  4  1  0  0  0  0
  4  5  1  0  0  0  0
  4 23  1  0  0  0  0
  4 24  1  0  0  0  0
  5  6  1  0  0  0  0
  5 25  1  0  0  0  0
  5 26  1  0  0  0  0
  6 17  1  0  0  0  0
  6  7  1  0  0  0  0
  7  8  1  0  0  0  0
  7 11  2  0  0  0  0
  8  9  1  0  0  0  0
  8 10  1  0  0  0  0
  8 27  1  0  0  0  0
  9 28  1  0  0  0  0
  9 29  1  0  0  0  0
  9 30  1  0  0  0  0
 10 31  1  0  0  0  0
 11 12  1  0  0  0  0
 12 17  2  0  0  0  0
 12 13  1  0  0  0  0
 13 14  2  0  0  0  0
 13 32  1  0  0  0  0
 14 15  1  0  0  0  0
 14 33  1  0  0  0  0
 15 16  2  0  0  0  0
 15 34  1  0  0  0  0
 16 17  1  0  0  0  0
 16 35  1  0  0  0  0
M  END
> <s_m_source_file>
AV-unprocessed.smi

> <i_m_source_file_index>
517

> <i_lp_mmshare_version>
43012

> <i_f3d_flags>
0

> <s_epik_input>
W0NIM11bQ0gyXU9bQ0gyXVtDSDJdbihjKG4xKVtDQEhdKFtDSDNdKVtPSF0pYyhjMTIpW2NIXVtjSF1bY0hdW2NIXTI=

> <s_epik_cmdline>
J2VwaWtfcHl0aG9uJywgJy1waCcsICc3LjAnLCAnLXRuJywgJzgnLCAnLW1hJywgJzIwMCcsICctbWV0YWxfYmluZGluZycsICctaW1hZScsICc8aW5maWxlLm1hZT4nLCAnLW9tYWUnLCAnPG91dGZpbGUubWFlPic=

> <r_epik_Ionization_Penalty>
0.0517997

> <r_epik_Ionization_Penalty_Charging>
0

> <r_epik_Ionization_Penalty_Neutral>
0.0517997

> <r_epik_State_Penalty>
0.0443961

> <r_epik_Charging_Adjusted_Penalty>
0.0443961

> <i_epik_Tot_Q>
0

> <i_epik_Tot_abs_Q>
0

> <r_epik_Metal_State_Penalty>
4.60999e-05

> <b_epik_Metal_Only>
0

> <s_lp_Force_Field>
OPLS_2005

> <r_lp_Energy>
6.29619

> <b_lp_Chiralities_Consistent>
1

> <s_lp_Variant>
AV-unprocessed.smi:517-2

> <Gold.Version>
5.8.1

> <Gold.Id.Protein>
6NUR|6NUR_protein|mol2

> <Gold.PLP.Fitness>
42.8912

> <Gold.PLP.PLP>
-38.2197

> <Gold.PLP.part.hbond>
-2.0000

> <Gold.PLP.part.metal>
0.0000

> <Gold.PLP.part.buried>
-5.9338

> <Gold.PLP.part.nonpolar>
-30.1561

> <Gold.PLP.part.repulsive>
0.0792

> <Gold.PLP.ligand.clash>
0.0000

> <Gold.PLP.ligand.torsion>
0.4311

> <Gold.PLP.Chemscore.Hbond>
1.8320

> <Gold.PLP.Chemscore.CHOScore>
0.0000

> <Gold.PLP.Chemscore.Metal>
0.0000

> <Gold.Chemscore.Hbonds>
donor molecule, donor type, donor heavy atom, donor atom, acceptor molecule, acceptor atom, score
      P1  H  7989  7998       L1     3  0.16
      P1  H  7997  8010       L1    10  0.88

> <Gold.PLP.Chemscore.Internal.Correction>
0.0377

> <Gold.Rescore>
     Score         DG    S(hbond)    S(metal)    S(lipo)     H(rot)  DE(clash)    DE(int)     intcor
     16.92     -17.45       1.70        0.00      99.95       2.11       0.19       0.34       ----

> <Gold.Chemscore.Fitness>
16.9175

> <Gold.Chemscore.DG>
-17.4477

> <Gold.Chemscore.ZeroCoef>
-5.4800

> <Gold.Chemscore.Hbond>
1.6957

> <Gold.Chemscore.Metal>
0.0000

> <Gold.Chemscore.Lipo>
99.9454

> <Gold.Chemscore.Internal_Hbond>
0.0000

> <Gold.Chemscore.DEClash>
0.1914

> <Gold.Chemscore.DEInternal>
0.3389

> <Gold.Chemscore.Rot>
2.1052

> <Gold.Chemscore.Internal.Correction>
   9.000000E+99

> <Gold.Chemscore.Hbonds>
donor molecule, donor type, donor heavy atom, donor atom, acceptor molecule, acceptor atom, score
      P1  H  7989  7998       L1     3  0.04
      P1  H  7997  8010       L1    10  0.59

> <Gold.Chemscore.Hbond.Weighted>
-5.6635

> <Gold.Chemscore.Metal.Weighted>
-0.0000

> <Gold.Chemscore.Lipo.Weighted>
-11.6936

> <Gold.Chemscore.Internal_Hbond.Weighted>
0.0000

> <Gold.Chemscore.DEClash.Weighted>
0.1914

> <Gold.Chemscore.DEInternal.Weighted>
0.3389

> <Gold.Chemscore.Rot.Weighted>
5.3894

> <Gold.Chemscore.Internal.Correction.Weighted>
   9.000000E+99

> <Gold.Protein.RotatedTorsions>
[ 6907 6896 6895 6894 ] final  -20.74 input  -60.11 | X-H torsion
[ 7974 7965 7964 7962 ] final -120.95 input  175.53 | X-H torsion
[ 8008 7997 7996 7995 ] final   38.16 input   59.86 | X-H torsion
[ 10167 10162 10161 10158 ] final  173.59 input  -65.29 | X-H torsion
[ 10718 10713 10712 10709 ] final -148.01 input   66.30 | X-H torsion
[ 10763 10752 10751 10750 ] final  124.47 input  -60.55 | X-H torsion
[ 11005 11000 10999 10996 ] final   34.85 input  -57.11 | X-H torsion

> <Gold.Protein.ActiveResidues>
 VAL166  LYS551  ARG553  GLY616  TRP617  ASP618  TYR619  PRO620  LYS621  CYS622 
 ASP623  PHE694  ASN695  SER759  ASP760  ASP761  ALA762  ILE779  LEU786  VAL792 
 PHE793  MET794  SER795  GLU796  ALA797  LYS798  CYS799  TRP800  GLU811  SER814 

> <Gold.Protein.RotatedAtoms>
  151.2436  135.0597  159.9034 H   0  0  0  0  0  0  0  0  0  0  0  0  # atno 6907 bound_to 6896
  152.5390  134.0407  159.8076 H   0  0  0  0  0  0  0  0  0  0  0  0  # atno 6908 bound_to 6896
  151.0605  133.5499  159.2666 H   0  0  0  0  0  0  0  0  0  0  0  0  # atno 6909 bound_to 6896
  145.0457  140.8179  143.4240 H   0  0  0  0  0  0  0  0  0  0  0  0  # atno 7974 bound_to 7965
  155.2156  140.3327  155.4322 H   0  0  0  0  0  0  0  0  0  0  0  0  # atno 8008 bound_to 7997
  156.2353  140.1869  156.7182 H   0  0  0  0  0  0  0  0  0  0  0  0  # atno 8009 bound_to 7997
  154.6049  140.0617  156.9403 H   0  0  0  0  0  0  0  0  0  0  0  0  # atno 8010 bound_to 7997
  139.5113  144.3244  152.0172 H   0  0  0  0  0  0  0  0  0  0  0  0  # atno 10167 bound_to 10162
  156.4148  130.7999  151.2219 H   0  0  0  0  0  0  0  0  0  0  0  0  # atno 10718 bound_to 10713
  153.6620  135.3345  155.3130 H   0  0  0  0  0  0  0  0  0  0  0  0  # atno 10763 bound_to 10752
  154.8512  135.4366  154.1795 H   0  0  0  0  0  0  0  0  0  0  0  0  # atno 10764 bound_to 10752
  153.2764  135.7005  153.7505 H   0  0  0  0  0  0  0  0  0  0  0  0  # atno 10765 bound_to 10752
  140.2487  134.3329  155.7898 H   0  0  0  0  0  0  0  0  0  0  0  0  # atno 11005 bound_to 11000
  145.1591  139.2469  143.5401 LP  0  0  0  0  0  0  0  0  0  0  0  0  # atno 17320 bound_to 7965
  146.3513  140.1314  142.8597 LP  0  0  0  0  0  0  0  0  0  0  0  0  # atno 17321 bound_to 7965
  140.2685  144.3990  150.6160 LP  0  0  0  0  0  0  0  0  0  0  0  0  # atno 17342 bound_to 10162
  140.6106  143.2169  151.6894 LP  0  0  0  0  0  0  0  0  0  0  0  0  # atno 17343 bound_to 10162
  157.7507  131.0246  150.3885 LP  0  0  0  0  0  0  0  0  0  0  0  0  # atno 17370 bound_to 10713
  156.4190  130.3949  149.6838 LP  0  0  0  0  0  0  0  0  0  0  0  0  # atno 17371 bound_to 10713
  141.2203  133.7341  156.9002 LP  0  0  0  0  0  0  0  0  0  0  0  0  # atno 17394 bound_to 11000
  140.1580  134.9185  157.2678 LP  0  0  0  0  0  0  0  0  0  0  0  0  # atno 17395 bound_to 11000

$$$$
