AV-unprocessed.smi:69|AV-procd|sdf|648|dock5
  -GOLD-   2262016543D 1   1.00000     0.00000
 Structure written by MMmdl.
 32 34  0  0  0  0  0  0  0  0  1 V2000
  148.0214  140.5428  152.9509 N   0  0  0  0  0  0  0  0  0  0  0  0
  148.0203  141.0118  154.2064 C   0  0  0  0  0  0  0  0  0  0  0  0
  146.8645  141.5089  154.7070 N   0  0  0  0  0  0  0  0  0  0  0  0
  146.8383  141.9860  155.9562 C   0  0  0  0  0  0  0  0  0  0  0  0
  147.8331  142.0567  156.8456 N   0  0  0  0  0  0  0  0  0  0  0  0
  148.9951  141.5523  156.3365 C   0  0  0  0  0  0  0  0  0  0  0  0
  149.1722  141.0141  155.0331 C   0  0  0  0  0  0  0  0  0  0  0  0
  150.4876  140.6008  154.8686 N   0  0  0  0  0  0  0  0  0  0  0  0
  151.0522  140.8840  156.0127 C   0  0  0  0  0  0  0  0  0  0  0  0
  150.2252  141.4677  156.9508 N   0  0  0  0  0  0  0  0  0  0  0  0
  150.5339  141.9202  158.3476 C   0  0  1  0  0  0  0  0  0  0  0  0
  151.5770  141.1373  158.8459 O   0  0  0  0  0  0  0  0  0  0  0  0
  152.7972  141.8667  158.7849 C   0  0  2  0  0  0  0  0  0  0  0  0
  153.8550  141.2661  159.7262 C   0  0  0  0  0  0  0  0  0  0  0  0
  154.3122  140.0327  159.2138 O   0  0  0  0  0  0  0  0  0  0  0  0
  152.3438  143.2934  159.1191 C   0  0  2  0  0  0  0  0  0  0  0  0
  152.1788  143.4638  160.5156 O   0  0  0  0  0  0  0  0  0  0  0  0
  151.0010  143.3966  158.4054 C   0  0  1  0  0  0  0  0  0  0  0  0
  151.1831  143.9974  157.1339 O   0  0  0  0  0  0  0  0  0  0  0  0
  149.6197  141.7251  158.9097 H   0  0  0  0  0  0  0  0  0  0  0  0
  153.1665  141.8614  157.7575 H   0  0  0  0  0  0  0  0  0  0  0  0
  153.0619  144.0385  158.7731 H   0  0  0  0  0  0  0  0  0  0  0  0
  150.2775  143.9898  158.9667 H   0  0  0  0  0  0  0  0  0  0  0  0
  148.8724  140.1690  152.5559 H   0  0  0  0  0  0  0  0  0  0  0  0
  147.1739  140.5663  152.4027 H   0  0  0  0  0  0  0  0  0  0  0  0
  145.8843  142.3657  156.2911 H   0  0  0  0  0  0  0  0  0  0  0  0
  152.0951  140.6715  156.1977 H   0  0  0  0  0  0  0  0  0  0  0  0
  154.7169  141.9303  159.7944 H   0  0  0  0  0  0  0  0  0  0  0  0
  153.4632  141.1337  160.7352 H   0  0  0  0  0  0  0  0  0  0  0  0
  153.6799  139.3644  159.4296 H   0  0  0  0  0  0  0  0  0  0  0  0
  152.9858  143.2246  160.9452 H   0  0  0  0  0  0  0  0  0  0  0  0
  150.3899  144.4594  156.9076 H   0  0  0  0  0  0  0  0  0  0  0  0
  1  2  1  0  0  0  0
  1 24  1  0  0  0  0
  1 25  1  0  0  0  0
  2  7  1  0  0  0  0
  2  3  2  0  0  0  0
  3  4  1  0  0  0  0
  4  5  2  0  0  0  0
  4 26  1  0  0  0  0
  5  6  1  0  0  0  0
  6 10  1  0  0  0  0
  6  7  2  0  0  0  0
  7  8  1  0  0  0  0
  8  9  2  0  0  0  0
  9 10  1  0  0  0  0
  9 27  1  0  0  0  0
 10 11  1  0  0  0  0
 11 20  1  0  0  0  0
 11 18  1  0  0  0  0
 11 12  1  0  0  0  0
 12 13  1  0  0  0  0
 13 21  1  0  0  0  0
 13 14  1  0  0  0  0
 13 16  1  0  0  0  0
 14 15  1  0  0  0  0
 14 28  1  0  0  0  0
 14 29  1  0  0  0  0
 15 30  1  0  0  0  0
 16 22  1  0  0  0  0
 16 17  1  0  0  0  0
 16 18  1  0  0  0  0
 17 31  1  0  0  0  0
 18 23  1  0  0  0  0
 18 19  1  0  0  0  0
 19 32  1  0  0  0  0
M  END
> <s_m_source_file>
AV-unprocessed.smi

> <i_m_source_file_index>
69

> <i_lp_mmshare_version>
43012

> <i_f3d_flags>
0

> <s_epik_input>
bjFbY0hdbmMoW05IMl0pYyhjMTIpbltjSF1uMltDQEBIXTNPW0NASF0oW0NIMl1bT0hdKVtDQEBIXShbT0hdKVtDQEhdM1tPSF0=

> <s_epik_cmdline>
J2VwaWtfcHl0aG9uJywgJy1waCcsICc3LjAnLCAnLXRuJywgJzgnLCAnLW1hJywgJzIwMCcsICctbWV0YWxfYmluZGluZycsICctaW1hZScsICc8aW5maWxlLm1hZT4nLCAnLW9tYWUnLCAnPG91dGZpbGUubWFlPic=

> <r_lp_tautomer_probability>
1

> <r_epik_Ionization_Penalty>
0.000428445

> <r_epik_Ionization_Penalty_Charging>
0

> <r_epik_Ionization_Penalty_Neutral>
0.000428445

> <r_epik_State_Penalty>
-0

> <r_epik_Charging_Adjusted_Penalty>
0

> <i_epik_Tot_Q>
0

> <i_epik_Tot_abs_Q>
0

> <r_epik_Metal_State_Penalty>
-0

> <b_epik_Metal_Only>
0

> <s_epik_Chemistry_Notes>
This compound contains an acetal/aminal-like group ( X-CH(R)-Y where X, Y are N, S, or O) that may be acid/base labile, releasing an aldehyde.

> <s_lp_Force_Field>
OPLS_2005

> <r_lp_Energy>
38.9041

> <b_lp_Chiralities_Consistent>
1

> <s_lp_Variant>
AV-unprocessed.smi:69-6

> <Gold.Version>
5.8.1

> <Gold.Id.Protein>
6NUR|6NUR_protein|mol2

> <Gold.PLP.Fitness>
41.2628

> <Gold.PLP.PLP>
-31.4773

> <Gold.PLP.part.hbond>
-3.6584

> <Gold.PLP.part.metal>
0.0000

> <Gold.PLP.part.buried>
-7.1617

> <Gold.PLP.part.nonpolar>
-21.2716

> <Gold.PLP.part.repulsive>
0.5518

> <Gold.PLP.ligand.clash>
0.0000

> <Gold.PLP.ligand.torsion>
0.7944

> <Gold.PLP.Chemscore.Hbond>
3.7600

> <Gold.PLP.Chemscore.CHOScore>
0.0000

> <Gold.PLP.Chemscore.Metal>
0.0000

> <Gold.Chemscore.Hbonds>
donor molecule, donor type, donor heavy atom, donor atom, acceptor molecule, acceptor atom, score
      L1  H     1    24       P1  7957  0.78
      L1  H    19    32       P1  8028  1.00
      P1  H  7989  7998       L1     8  0.94
      P1  H  7997  8009       L1    15  1.00

> <Gold.PLP.Chemscore.Internal.Correction>
0.0944

> <Gold.Rescore>
     Score         DG    S(hbond)    S(metal)    S(lipo)     H(rot)  DE(clash)    DE(int)     intcor
      9.93     -10.74       3.02        0.00      46.81       4.03       0.02       0.80       ----

> <Gold.Chemscore.Fitness>
9.9261

> <Gold.Chemscore.DG>
-10.7421

> <Gold.Chemscore.ZeroCoef>
-5.4800

> <Gold.Chemscore.Hbond>
3.0228

> <Gold.Chemscore.Metal>
0.0000

> <Gold.Chemscore.Lipo>
46.8128

> <Gold.Chemscore.Internal_Hbond>
0.0000

> <Gold.Chemscore.DEClash>
0.0186

> <Gold.Chemscore.DEInternal>
0.7975

> <Gold.Chemscore.Rot>
4.0277

> <Gold.Chemscore.Internal.Correction>
   9.000000E+99

> <Gold.Chemscore.Hbonds>
donor molecule, donor type, donor heavy atom, donor atom, acceptor molecule, acceptor atom, score
      L1  H     1    24       P1  7957  0.76
      L1  H    19    32       P1  8028  0.83
      P1  H  7989  7998       L1     8  0.72
      P1  H  7997  8009       L1    15  0.80

> <Gold.Chemscore.Hbond.Weighted>
-10.0960

> <Gold.Chemscore.Metal.Weighted>
-0.0000

> <Gold.Chemscore.Lipo.Weighted>
-5.4771

> <Gold.Chemscore.Internal_Hbond.Weighted>
0.0000

> <Gold.Chemscore.DEClash.Weighted>
0.0186

> <Gold.Chemscore.DEInternal.Weighted>
0.7975

> <Gold.Chemscore.Rot.Weighted>
10.3110

> <Gold.Chemscore.Internal.Correction.Weighted>
   9.000000E+99

> <Gold.Protein.RotatedTorsions>
[ 6907 6896 6895 6894 ] final -146.59 input  -60.11 | X-H torsion
[ 7974 7965 7964 7962 ] final   92.34 input  175.53 | X-H torsion
[ 8008 7997 7996 7995 ] final  125.59 input   59.86 | X-H torsion
[ 10167 10162 10161 10158 ] final   14.86 input  -65.29 | X-H torsion
[ 10718 10713 10712 10709 ] final  134.43 input   66.30 | X-H torsion
[ 10763 10752 10751 10750 ] final   -4.08 input  -60.55 | X-H torsion
[ 11005 11000 10999 10996 ] final  148.87 input  -57.11 | X-H torsion

> <Gold.Protein.ActiveResidues>
 VAL166  LYS551  ARG553  GLY616  TRP617  ASP618  TYR619  PRO620  LYS621  CYS622 
 ASP623  PHE694  ASN695  SER759  ASP760  ASP761  ALA762  ILE779  LEU786  VAL792 
 PHE793  MET794  SER795  GLU796  ALA797  LYS798  CYS799  TRP800  GLU811  SER814 

> <Gold.Protein.RotatedAtoms>
  151.1437  133.4954  159.2596 H   0  0  0  0  0  0  0  0  0  0  0  0  # atno 6907 bound_to 6896
  151.1627  135.0281  159.8727 H   0  0  0  0  0  0  0  0  0  0  0  0  # atno 6908 bound_to 6896
  152.5463  134.1309  159.8492 H   0  0  0  0  0  0  0  0  0  0  0  0  # atno 6909 bound_to 6896
  145.4936  139.2276  143.2816 H   0  0  0  0  0  0  0  0  0  0  0  0  # atno 7974 bound_to 7965
  156.2839  140.2712  156.1974 H   0  0  0  0  0  0  0  0  0  0  0  0  # atno 8008 bound_to 7997
  155.0396  140.0386  157.2522 H   0  0  0  0  0  0  0  0  0  0  0  0  # atno 8009 bound_to 7997
  154.7286  140.2702  155.6482 H   0  0  0  0  0  0  0  0  0  0  0  0  # atno 8010 bound_to 7997
  140.5907  143.8802  150.6871 H   0  0  0  0  0  0  0  0  0  0  0  0  # atno 10167 bound_to 10162
  157.4673  131.1078  150.9846 H   0  0  0  0  0  0  0  0  0  0  0  0  # atno 10718 bound_to 10713
  153.3800  135.6998  153.6573 H   0  0  0  0  0  0  0  0  0  0  0  0  # atno 10763 bound_to 10752
  153.5188  135.3616  155.2622 H   0  0  0  0  0  0  0  0  0  0  0  0  # atno 10764 bound_to 10752
  154.8691  135.4153  154.3095 H   0  0  0  0  0  0  0  0  0  0  0  0  # atno 10765 bound_to 10752
  140.0996  134.8991  157.1776 H   0  0  0  0  0  0  0  0  0  0  0  0  # atno 11005 bound_to 11000
  146.2269  140.5731  142.8992 LP  0  0  0  0  0  0  0  0  0  0  0  0  # atno 17320 bound_to 7965
  144.7820  140.5859  143.6599 LP  0  0  0  0  0  0  0  0  0  0  0  0  # atno 17321 bound_to 7965
  140.2324  143.3726  152.1555 LP  0  0  0  0  0  0  0  0  0  0  0  0  # atno 17342 bound_to 10162
  139.5225  144.7060  151.5352 LP  0  0  0  0  0  0  0  0  0  0  0  0  # atno 17343 bound_to 10162
  157.0623  130.5830  149.5388 LP  0  0  0  0  0  0  0  0  0  0  0  0  # atno 17370 bound_to 10713
  156.0056  130.5142  150.7819 LP  0  0  0  0  0  0  0  0  0  0  0  0  # atno 17371 bound_to 10713
  140.3238  134.2886  155.7241 LP  0  0  0  0  0  0  0  0  0  0  0  0  # atno 17394 bound_to 11000
  141.2102  133.7727  156.9948 LP  0  0  0  0  0  0  0  0  0  0  0  0  # atno 17395 bound_to 11000

$$$$
