AV-unprocessed.smi:179|AV-procd|sdf|1450|dock1
  -GOLD-   2262019243D 1   1.00000     0.00000
 Structure written by MMmdl.
 45 48  0  0  0  0  0  0  0  0  2 V2000
  151.7524  136.8601  154.1316 O   0  0  0  0  0  0  0  0  0  0  0  0
  151.7627  138.0615  154.8773 C   0  0  0  0  0  0  0  0  0  0  0  0
  150.3568  138.6760  155.0252 C   0  0  0  0  0  0  0  0  0  0  0  0
  150.4683  139.8324  156.0366 C   0  0  0  0  0  0  0  0  0  0  0  0
  151.2995  140.8686  155.5545 O   0  0  0  0  0  0  0  0  0  0  0  0
  149.5898  139.0057  153.7223 C   0  0  0  0  0  0  0  0  0  0  0  0
  148.3048  138.4649  154.3533 C   0  0  0  0  0  0  0  0  0  0  0  0
  147.3091  137.7998  153.5586 N   0  0  0  0  0  0  0  0  0  0  0  0
  146.9317  138.1149  152.3023 C   0  0  0  0  0  0  0  0  0  0  0  0
  145.9883  137.3633  151.7386 N   0  0  0  0  0  0  0  0  0  0  0  0
  145.7220  136.4508  152.7453 C   0  0  0  0  0  0  0  0  0  0  0  0
  144.8194  135.3631  152.8175 C   0  0  0  0  0  0  0  0  0  0  0  0
  143.9605  135.0250  151.7348 N   0  0  0  0  0  0  0  0  0  0  0  0
  144.6222  134.7302  150.4674 C   0  0  0  0  0  0  0  0  0  0  0  0
  144.0310  133.3178  150.5242 C   0  0  0  0  0  0  0  0  0  0  0  0
  143.1538  133.0155  149.4577 O   0  0  0  0  0  0  0  0  0  0  0  0
  145.0027  132.1309  150.5288 C   0  0  0  0  0  0  0  0  0  0  0  0
  145.7243  132.0843  149.4103 F   0  0  0  0  0  0  0  0  0  0  0  0
  145.8368  132.2154  151.5659 F   0  0  0  0  0  0  0  0  0  0  0  0
  143.3512  133.7041  151.8412 C   0  0  0  0  0  0  0  0  0  0  0  0
  144.8106  134.6584  153.9867 N   0  3  0  0  0  0  0  0  0  0  0  0
  145.6139  134.9651  155.0208 C   0  0  0  0  0  0  0  0  0  0  0  0
  146.4981  135.9707  155.0384 N   0  0  0  0  0  0  0  0  0  0  0  0
  146.5270  136.6957  153.8878 C   0  0  0  0  0  0  0  0  0  0  0  0
  149.2023  137.6908  155.3237 C   0  0  0  0  0  0  0  0  0  0  0  0
  151.3697  137.0353  153.2853 H   0  0  0  0  0  0  0  0  0  0  0  0
  152.1967  137.8453  155.8541 H   0  0  0  0  0  0  0  0  0  0  0  0
  152.4420  138.7516  154.3762 H   0  0  0  0  0  0  0  0  0  0  0  0
  149.4906  140.2638  156.2520 H   0  0  0  0  0  0  0  0  0  0  0  0
  150.8635  139.4819  156.9907 H   0  0  0  0  0  0  0  0  0  0  0  0
  150.8686  141.6960  155.7074 H   0  0  0  0  0  0  0  0  0  0  0  0
  149.5490  140.0651  153.4676 H   0  0  0  0  0  0  0  0  0  0  0  0
  149.9177  138.4187  152.8637 H   0  0  0  0  0  0  0  0  0  0  0  0
  147.7923  139.2672  154.8876 H   0  0  0  0  0  0  0  0  0  0  0  0
  147.3720  138.9433  151.7659 H   0  0  0  0  0  0  0  0  0  0  0  0
  144.2276  135.3366  149.6514 H   0  0  0  0  0  0  0  0  0  0  0  0
  145.7120  134.7622  150.4977 H   0  0  0  0  0  0  0  0  0  0  0  0
  142.3913  133.5648  149.5575 H   0  0  0  0  0  0  0  0  0  0  0  0
  144.4845  131.1737  150.6040 H   0  0  0  0  0  0  0  0  0  0  0  0
  143.6845  133.1186  152.6993 H   0  0  0  0  0  0  0  0  0  0  0  0
  142.2634  133.7470  151.7786 H   0  0  0  0  0  0  0  0  0  0  0  0
  145.5190  134.3375  155.8948 H   0  0  0  0  0  0  0  0  0  0  0  0
  149.3996  136.6696  154.9972 H   0  0  0  0  0  0  0  0  0  0  0  0
  148.8532  137.6991  156.3567 H   0  0  0  0  0  0  0  0  0  0  0  0
  144.1672  133.8709  154.0738 H   0  0  0  0  0  0  0  0  0  0  0  0
  1  2  1  0  0  0  0
  1 26  1  0  0  0  0
  2  3  1  0  0  0  0
  2 27  1  0  0  0  0
  2 28  1  0  0  0  0
  3 25  1  0  0  0  0
  3  4  1  0  0  0  0
  3  6  1  0  0  0  0
  4  5  1  0  0  0  0
  4 29  1  0  0  0  0
  4 30  1  0  0  0  0
  5 31  1  0  0  0  0
  6  7  1  0  0  0  0
  6 32  1  0  0  0  0
  6 33  1  0  0  0  0
  7  8  1  0  0  0  0
  7 25  1  0  0  0  0
  7 34  1  0  0  0  0
  8 24  1  0  0  0  0
  8  9  1  0  0  0  0
  9 10  2  0  0  0  0
  9 35  1  0  0  0  0
 10 11  1  0  0  0  0
 11 24  2  0  0  0  0
 11 12  1  0  0  0  0
 12 13  1  0  0  0  0
 12 21  2  0  0  0  0
 13 20  1  0  0  0  0
 13 14  1  0  0  0  0
 14 15  1  0  0  0  0
 14 36  1  0  0  0  0
 14 37  1  0  0  0  0
 15 16  1  0  0  0  0
 15 17  1  0  0  0  0
 15 20  1  0  0  0  0
 16 38  1  0  0  0  0
 17 18  1  0  0  0  0
 17 19  1  0  0  0  0
 17 39  1  0  0  0  0
 20 40  1  0  0  0  0
 20 41  1  0  0  0  0
 21 22  1  0  0  0  0
 21 45  1  0  0  0  0
 22 23  2  0  0  0  0
 22 42  1  0  0  0  0
 23 24  1  0  0  0  0
 25 43  1  0  0  0  0
 25 44  1  0  0  0  0
M  CHG  1  21   1
M  END
> <s_m_source_file>
AV-unprocessed.smi

> <i_m_source_file_index>
179

> <i_lp_mmshare_version>
43012

> <i_f3d_flags>
0

> <s_epik_input>
W09IXVtDSDJdQzEoW0NIMl1bT0hdKVtDSDJdW0NIXShbQ0gyXTEpbihbY0hdbjIpYyhjMjMpbltjSF1uYzNOKFtDSDJdNClbQ0gyXUM0KFtPSF0pW0NIXShGKUY=

> <s_epik_cmdline>
J2VwaWtfcHl0aG9uJywgJy1waCcsICc3LjAnLCAnLXRuJywgJzgnLCAnLW1hJywgJzIwMCcsICctbWV0YWxfYmluZGluZycsICctaW1hZScsICc8aW5maWxlLm1hZT4nLCAnLW9tYWUnLCAnPG91dGZpbGUubWFlPic=

> <r_lp_tautomer_probability>
0.978912

> <r_epik_Ionization_Penalty>
2.53898

> <r_epik_Ionization_Penalty_Charging>
2.53898

> <r_epik_Ionization_Penalty_Neutral>
7.40332e-06

> <r_epik_State_Penalty>
2.7067

> <r_epik_Charging_Adjusted_Penalty>
5.24568

> <i_epik_Tot_Q>
1

> <i_epik_Tot_abs_Q>
1

> <r_epik_Metal_State_Penalty>
2.71482

> <b_epik_Metal_Only>
0

> <s_lp_Force_Field>
OPLS_2005

> <r_lp_Energy>
57.9721

> <b_lp_Chiralities_Consistent>
1

> <s_lp_Variant>
AV-unprocessed.smi:179-2

> <Gold.Version>
5.8.1

> <Gold.Id.Protein>
6NUR|6NUR_protein|mol2

> <Gold.PLP.Fitness>
42.8590

> <Gold.PLP.PLP>
-31.4344

> <Gold.PLP.part.hbond>
-4.0000

> <Gold.PLP.part.metal>
0.0000

> <Gold.PLP.part.buried>
2.5124

> <Gold.PLP.part.nonpolar>
-30.7725

> <Gold.PLP.part.repulsive>
0.7192

> <Gold.PLP.ligand.clash>
0.0000

> <Gold.PLP.ligand.torsion>
1.1360

> <Gold.PLP.Chemscore.Hbond>
3.3081

> <Gold.PLP.Chemscore.CHOScore>
0.9835

> <Gold.PLP.Chemscore.Metal>
0.0000

> <Gold.Chemscore.Hbonds>
donor molecule, donor type, donor heavy atom, donor atom, acceptor molecule, acceptor atom, score
      L1  H     1    26       P1  7949  0.62
      L1  H    16    38       P1 10186  1.00
      P1  H  7989  7998       L1     5  0.63
      P1  H 10752 10765       L1     1  1.00
      L1  C     9    35       P1  7957  1.00

> <Gold.PLP.Chemscore.Internal.Correction>
0.8218

> <Gold.Rescore>
     Score         DG    S(hbond)    S(metal)    S(lipo)     H(rot)  DE(clash)    DE(int)     intcor
      7.29     -11.83       2.84        0.00      66.45       4.27       3.45       1.09       ----

> <Gold.Chemscore.Fitness>
7.2940

> <Gold.Chemscore.DG>
-11.8257

> <Gold.Chemscore.ZeroCoef>
-5.4800

> <Gold.Chemscore.Hbond>
2.8427

> <Gold.Chemscore.Metal>
0.0000

> <Gold.Chemscore.Lipo>
66.4457

> <Gold.Chemscore.Internal_Hbond>
0.0000

> <Gold.Chemscore.DEClash>
3.4467

> <Gold.Chemscore.DEInternal>
1.0850

> <Gold.Chemscore.Rot>
4.2669

> <Gold.Chemscore.Internal.Correction>
   9.000000E+99

> <Gold.Chemscore.Hbonds>
donor molecule, donor type, donor heavy atom, donor atom, acceptor molecule, acceptor atom, score
      L1  H     1    26       P1  7949  0.47
      L1  H    16    38       P1 10186  0.99
      P1  H  7989  7998       L1     5  0.23
      P1  H 10752 10765       L1     1  0.96

> <Gold.Chemscore.Hbond.Weighted>
-9.4947

> <Gold.Chemscore.Metal.Weighted>
-0.0000

> <Gold.Chemscore.Lipo.Weighted>
-7.7742

> <Gold.Chemscore.Internal_Hbond.Weighted>
0.0000

> <Gold.Chemscore.DEClash.Weighted>
3.4467

> <Gold.Chemscore.DEInternal.Weighted>
1.0850

> <Gold.Chemscore.Rot.Weighted>
10.9232

> <Gold.Chemscore.Internal.Correction.Weighted>
   9.000000E+99

> <Gold.Protein.RotatedTorsions>
[ 6907 6896 6895 6894 ] final -171.12 input  -60.11 | X-H torsion
[ 7974 7965 7964 7962 ] final  140.76 input  175.53 | X-H torsion
[ 8008 7997 7996 7995 ] final -170.68 input   59.86 | X-H torsion
[ 10167 10162 10161 10158 ] final   34.34 input  -65.29 | X-H torsion
[ 10718 10713 10712 10709 ] final  -90.85 input   66.30 | X-H torsion
[ 10763 10752 10751 10750 ] final  169.87 input  -60.55 | X-H torsion
[ 11005 11000 10999 10996 ] final   32.82 input  -57.11 | X-H torsion

> <Gold.Protein.ActiveResidues>
 VAL166  LYS551  ARG553  GLY616  TRP617  ASP618  TYR619  PRO620  LYS621  CYS622 
 ASP623  PHE694  ASN695  SER759  ASP760  ASP761  ALA762  ILE779  LEU786  VAL792 
 PHE793  MET794  SER795  GLU796  ALA797  LYS798  CYS799  TRP800  GLU811  SER814 

> <Gold.Protein.RotatedAtoms>
  151.5186  133.3471  159.2897 H   0  0  0  0  0  0  0  0  0  0  0  0  # atno 6907 bound_to 6896
  150.8666  134.8033  159.7134 H   0  0  0  0  0  0  0  0  0  0  0  0  # atno 6908 bound_to 6896
  152.4669  134.5064  159.9792 H   0  0  0  0  0  0  0  0  0  0  0  0  # atno 6909 bound_to 6896
  144.9157  139.5233  143.5687 H   0  0  0  0  0  0  0  0  0  0  0  0  # atno 7974 bound_to 7965
  155.9216  140.1075  157.1202 H   0  0  0  0  0  0  0  0  0  0  0  0  # atno 8008 bound_to 7997
  154.4055  140.1255  156.4752 H   0  0  0  0  0  0  0  0  0  0  0  0  # atno 8009 bound_to 7997
  155.7189  140.3470  155.5009 H   0  0  0  0  0  0  0  0  0  0  0  0  # atno 8010 bound_to 7997
  140.4324  144.1305  150.6161 H   0  0  0  0  0  0  0  0  0  0  0  0  # atno 10167 bound_to 10162
  155.9990  130.4925  150.5386 H   0  0  0  0  0  0  0  0  0  0  0  0  # atno 10718 bound_to 10713
  154.3894  135.2754  155.2164 H   0  0  0  0  0  0  0  0  0  0  0  0  # atno 10763 bound_to 10752
  154.4237  135.5994  153.6029 H   0  0  0  0  0  0  0  0  0  0  0  0  # atno 10764 bound_to 10752
  152.9832  135.5978  154.4146 H   0  0  0  0  0  0  0  0  0  0  0  0  # atno 10765 bound_to 10752
  140.2695  134.3099  155.7832 H   0  0  0  0  0  0  0  0  0  0  0  0  # atno 11005 bound_to 11000
  146.3181  139.7998  142.8968 LP  0  0  0  0  0  0  0  0  0  0  0  0  # atno 17320 bound_to 7965
  145.3379  141.0281  143.3409 LP  0  0  0  0  0  0  0  0  0  0  0  0  # atno 17321 bound_to 7965
  140.4412  143.2526  151.9471 LP  0  0  0  0  0  0  0  0  0  0  0  0  # atno 17342 bound_to 10162
  139.4785  144.5653  151.8175 LP  0  0  0  0  0  0  0  0  0  0  0  0  # atno 17343 bound_to 10162
  157.3325  131.0702  151.1850 LP  0  0  0  0  0  0  0  0  0  0  0  0  # atno 17370 bound_to 10713
  157.2726  130.6711  149.6026 LP  0  0  0  0  0  0  0  0  0  0  0  0  # atno 17371 bound_to 10713
  141.2179  133.7458  156.9312 LP  0  0  0  0  0  0  0  0  0  0  0  0  # atno 17394 bound_to 11000
  140.1387  134.9308  157.2437 LP  0  0  0  0  0  0  0  0  0  0  0  0  # atno 17395 bound_to 11000

$$$$
