AV-unprocessed.smi:93|AV-procd|sdf|850|dock4
  -GOLD-   2262017293D 1   1.00000     0.00000
 Structure written by MMmdl.
 50 52  0  0  0  0  0  0  0  0  1 V2000
  144.7156  135.9965  151.9173 C   0  0  0  0  0  0  0  0  0  0  0  0
  145.3897  134.9601  152.6918 N   0  0  0  0  0  0  0  0  0  0  0  0
  145.0024  133.5549  152.5131 C   0  0  0  0  0  0  0  0  0  0  0  0
  145.4367  132.9130  151.1601 C   0  0  0  0  0  0  0  0  0  0  0  0
  146.8168  133.4461  150.7098 C   0  0  0  0  0  0  0  0  0  0  0  0
  145.5157  131.3754  151.3594 C   0  0  0  0  0  0  0  0  0  0  0  0
  146.6793  130.9745  152.0567 O   0  0  0  0  0  0  0  0  0  0  0  0
  144.3784  133.2227  150.0678 C   0  0  0  0  0  0  0  0  0  0  0  0
  143.1154  132.6528  150.3507 O   0  0  0  0  0  0  0  0  0  0  0  0
  146.3454  135.3191  153.5929 C   0  0  0  0  0  0  0  0  0  0  0  0
  146.9890  134.3422  154.2853 N   0  0  0  0  0  0  0  0  0  0  0  0
  147.9415  134.6460  155.1703 C   0  0  0  0  0  0  0  0  0  0  0  0
  148.4087  135.8468  155.5118 N   0  0  0  0  0  0  0  0  0  0  0  0
  147.7775  136.8367  154.8192 C   0  0  0  0  0  0  0  0  0  0  0  0
  146.7391  136.6661  153.8576 C   0  0  0  0  0  0  0  0  0  0  0  0
  146.3523  137.9101  153.3696 N   0  0  0  0  0  0  0  0  0  0  0  0
  147.1105  138.7600  154.0044 C   0  0  0  0  0  0  0  0  0  0  0  0
  148.0087  138.2004  154.8832 N   0  0  0  0  0  0  0  0  0  0  0  0
  148.9826  138.9062  155.7026 C   0  0  0  0  0  0  0  0  0  0  0  0
  150.2776  139.2787  154.9411 C   0  0  2  0  0  0  0  0  0  0  0  0
  149.9382  140.0421  153.7965 O   0  0  0  0  0  0  0  0  0  0  0  0
  151.0706  138.0606  154.4858 C   0  0  0  0  0  0  0  0  0  0  0  0
  152.4982  138.5883  154.4436 C   0  0  0  0  0  0  0  0  0  0  0  0
  152.5653  139.4170  155.5917 O   0  0  0  0  0  0  0  0  0  0  0  0
  151.3122  140.0727  155.7658 C   0  0  0  0  0  0  0  0  0  0  0  0
  144.4806  136.8573  152.5442 H   0  0  0  0  0  0  0  0  0  0  0  0
  143.7781  135.6286  151.4996 H   0  0  0  0  0  0  0  0  0  0  0  0
  145.3407  136.3302  151.0895 H   0  0  0  0  0  0  0  0  0  0  0  0
  145.3642  132.9567  153.3494 H   0  0  0  0  0  0  0  0  0  0  0  0
  143.9161  133.4988  152.5911 H   0  0  0  0  0  0  0  0  0  0  0  0
  147.1862  132.9105  149.8351 H   0  0  0  0  0  0  0  0  0  0  0  0
  147.5656  133.3373  151.4948 H   0  0  0  0  0  0  0  0  0  0  0  0
  146.7732  134.5017  150.4426 H   0  0  0  0  0  0  0  0  0  0  0  0
  144.6459  131.0176  151.9116 H   0  0  0  0  0  0  0  0  0  0  0  0
  145.5124  130.8556  150.4010 H   0  0  0  0  0  0  0  0  0  0  0  0
  147.3728  130.8383  151.4295 H   0  0  0  0  0  0  0  0  0  0  0  0
  144.2519  134.2996  149.9509 H   0  0  0  0  0  0  0  0  0  0  0  0
  144.6951  132.8331  149.1006 H   0  0  0  0  0  0  0  0  0  0  0  0
  142.4662  133.3392  150.3347 H   0  0  0  0  0  0  0  0  0  0  0  0
  148.3973  133.8059  155.6730 H   0  0  0  0  0  0  0  0  0  0  0  0
  147.0395  139.8253  153.8393 H   0  0  0  0  0  0  0  0  0  0  0  0
  148.5055  139.8059  156.0937 H   0  0  0  0  0  0  0  0  0  0  0  0
  149.2192  138.2859  156.5681 H   0  0  0  0  0  0  0  0  0  0  0  0
  149.8690  139.4589  153.0562 H   0  0  0  0  0  0  0  0  0  0  0  0
  151.0075  137.2669  155.2316 H   0  0  0  0  0  0  0  0  0  0  0  0
  150.7357  137.6485  153.5329 H   0  0  0  0  0  0  0  0  0  0  0  0
  153.2447  137.7944  154.4763 H   0  0  0  0  0  0  0  0  0  0  0  0
  152.6692  139.1878  153.5481 H   0  0  0  0  0  0  0  0  0  0  0  0
  151.3821  141.1153  155.4514 H   0  0  0  0  0  0  0  0  0  0  0  0
  151.0822  140.0678  156.8306 H   0  0  0  0  0  0  0  0  0  0  0  0
  1  2  1  0  0  0  0
  1 26  1  0  0  0  0
  1 27  1  0  0  0  0
  1 28  1  0  0  0  0
  2  3  1  0  0  0  0
  2 10  1  0  0  0  0
  3  4  1  0  0  0  0
  3 29  1  0  0  0  0
  3 30  1  0  0  0  0
  4  5  1  0  0  0  0
  4  6  1  0  0  0  0
  4  8  1  0  0  0  0
  5 31  1  0  0  0  0
  5 32  1  0  0  0  0
  5 33  1  0  0  0  0
  6  7  1  0  0  0  0
  6 34  1  0  0  0  0
  6 35  1  0  0  0  0
  7 36  1  0  0  0  0
  8  9  1  0  0  0  0
  8 37  1  0  0  0  0
  8 38  1  0  0  0  0
  9 39  1  0  0  0  0
 10 15  1  0  0  0  0
 10 11  2  0  0  0  0
 11 12  1  0  0  0  0
 12 13  2  0  0  0  0
 12 40  1  0  0  0  0
 13 14  1  0  0  0  0
 14 18  1  0  0  0  0
 14 15  2  0  0  0  0
 15 16  1  0  0  0  0
 16 17  2  0  0  0  0
 17 18  1  0  0  0  0
 17 41  1  0  0  0  0
 18 19  1  0  0  0  0
 19 20  1  0  0  0  0
 19 42  1  0  0  0  0
 19 43  1  0  0  0  0
 20 25  1  0  0  0  0
 20 21  1  0  0  0  0
 20 22  1  0  0  0  0
 21 44  1  0  0  0  0
 22 23  1  0  0  0  0
 22 45  1  0  0  0  0
 22 46  1  0  0  0  0
 23 24  1  0  0  0  0
 23 47  1  0  0  0  0
 23 48  1  0  0  0  0
 24 25  1  0  0  0  0
 25 49  1  0  0  0  0
 25 50  1  0  0  0  0
M  END
> <s_m_source_file>
AV-unprocessed.smi

> <i_m_source_file_index>
93

> <i_lp_mmshare_version>
43012

> <i_f3d_flags>
0

> <s_epik_input>
W09IXVtDSDJdQyhbQ0gzXSkoW0NIMl1bT0hdKVtDSDJdTihbQ0gzXSljKG5bY0hdbjEpYyhjMTIpbltjSF1uMltDSDJdW0NAQF0zKFtPSF0pW0NIMl1bQ0gyXU9bQ0gyXTM=

> <s_epik_cmdline>
J2VwaWtfcHl0aG9uJywgJy1waCcsICc3LjAnLCAnLXRuJywgJzgnLCAnLW1hJywgJzIwMCcsICctbWV0YWxfYmluZGluZycsICctaW1hZScsICc8aW5maWxlLm1hZT4nLCAnLW9tYWUnLCAnPG91dGZpbGUubWFlPic=

> <r_lp_tautomer_probability>
1

> <r_epik_Ionization_Penalty>
0.00325397

> <r_epik_Ionization_Penalty_Charging>
0

> <r_epik_Ionization_Penalty_Neutral>
0.00325397

> <r_epik_State_Penalty>
0.00225047

> <r_epik_Charging_Adjusted_Penalty>
0.00225047

> <i_epik_Tot_Q>
0

> <i_epik_Tot_abs_Q>
0

> <r_epik_Metal_State_Penalty>
-0

> <b_epik_Metal_Only>
0

> <s_lp_Force_Field>
OPLS_2005

> <r_lp_Energy>
41.2901

> <b_lp_Chiralities_Consistent>
1

> <s_lp_Variant>
AV-unprocessed.smi:93-2

> <Gold.Version>
5.8.1

> <Gold.Id.Protein>
6NUR|6NUR_protein|mol2

> <Gold.PLP.Fitness>
45.7855

> <Gold.PLP.PLP>
-34.5794

> <Gold.PLP.part.hbond>
-5.0561

> <Gold.PLP.part.metal>
0.0000

> <Gold.PLP.part.buried>
-6.4855

> <Gold.PLP.part.nonpolar>
-22.7777

> <Gold.PLP.part.repulsive>
0.3422

> <Gold.PLP.ligand.clash>
0.0000

> <Gold.PLP.ligand.torsion>
1.0336

> <Gold.PLP.Chemscore.Hbond>
4.3033

> <Gold.PLP.Chemscore.CHOScore>
0.0000

> <Gold.PLP.Chemscore.Metal>
0.0000

> <Gold.Chemscore.Hbonds>
donor molecule, donor type, donor heavy atom, donor atom, acceptor molecule, acceptor atom, score
      L1  H     7    36       P1 10747  1.00
      L1  H     9    39       P1 10186  1.00
      L1  H    21    44       P1  7957  0.51
      P1  H  7989  7998       L1    21  0.78
      P1  H  7997  8008       L1    24  1.00

> <Gold.PLP.Chemscore.Internal.Correction>
0.3636

> <Gold.Rescore>
     Score         DG    S(hbond)    S(metal)    S(lipo)     H(rot)  DE(clash)    DE(int)     intcor
     11.37     -13.99       3.44        0.00      75.12       4.60       0.38       2.23       ----

> <Gold.Chemscore.Fitness>
11.3713

> <Gold.Chemscore.DG>
-13.9874

> <Gold.Chemscore.ZeroCoef>
-5.4800

> <Gold.Chemscore.Hbond>
3.4422

> <Gold.Chemscore.Metal>
0.0000

> <Gold.Chemscore.Lipo>
75.1205

> <Gold.Chemscore.Internal_Hbond>
0.0000

> <Gold.Chemscore.DEClash>
0.3812

> <Gold.Chemscore.DEInternal>
2.2349

> <Gold.Chemscore.Rot>
4.6010

> <Gold.Chemscore.Internal.Correction>
   9.000000E+99

> <Gold.Chemscore.Hbonds>
donor molecule, donor type, donor heavy atom, donor atom, acceptor molecule, acceptor atom, score
      L1  H     7    36       P1 10747  0.98
      L1  H     9    39       P1 10186  0.96
      L1  H    21    44       P1  7957  0.48
      P1  H  7989  7998       L1    21  0.06
      P1  H  7997  8008       L1    24  0.91

> <Gold.Chemscore.Hbond.Weighted>
-11.4970

> <Gold.Chemscore.Metal.Weighted>
-0.0000

> <Gold.Chemscore.Lipo.Weighted>
-8.7891

> <Gold.Chemscore.Internal_Hbond.Weighted>
0.0000

> <Gold.Chemscore.DEClash.Weighted>
0.3812

> <Gold.Chemscore.DEInternal.Weighted>
2.2349

> <Gold.Chemscore.Rot.Weighted>
11.7787

> <Gold.Chemscore.Internal.Correction.Weighted>
   9.000000E+99

> <Gold.Protein.RotatedTorsions>
[ 6907 6896 6895 6894 ] final  -97.24 input  -60.11 | X-H torsion
[ 7974 7965 7964 7962 ] final -173.68 input  175.53 | X-H torsion
[ 8008 7997 7996 7995 ] final  -33.33 input   59.86 | X-H torsion
[ 10167 10162 10161 10158 ] final  -36.34 input  -65.29 | X-H torsion
[ 10718 10713 10712 10709 ] final -160.18 input   66.30 | X-H torsion
[ 10763 10752 10751 10750 ] final  -49.40 input  -60.55 | X-H torsion
[ 11005 11000 10999 10996 ] final  -17.99 input  -57.11 | X-H torsion

> <Gold.Protein.ActiveResidues>
 VAL166  LYS551  ARG553  GLY616  TRP617  ASP618  TYR619  PRO620  LYS621  CYS622 
 ASP623  PHE694  ASN695  SER759  ASP760  ASP761  ALA762  ILE779  LEU786  VAL792 
 PHE793  MET794  SER795  GLU796  ALA797  LYS798  CYS799  TRP800  GLU811  SER814 

> <Gold.Protein.RotatedAtoms>
  150.7011  134.1378  159.4093 H   0  0  0  0  0  0  0  0  0  0  0  0  # atno 6907 bound_to 6896
  151.9363  135.0231  160.0542 H   0  0  0  0  0  0  0  0  0  0  0  0  # atno 6908 bound_to 6896
  152.2132  133.4892  159.5158 H   0  0  0  0  0  0  0  0  0  0  0  0  # atno 6909 bound_to 6896
  144.7136  140.1585  143.6378 H   0  0  0  0  0  0  0  0  0  0  0  0  # atno 7974 bound_to 7965
  154.4152  140.1713  156.1870 H   0  0  0  0  0  0  0  0  0  0  0  0  # atno 8008 bound_to 7997
  155.9634  140.3391  155.6487 H   0  0  0  0  0  0  0  0  0  0  0  0  # atno 8009 bound_to 7997
  155.6718  140.0712  157.2508 H   0  0  0  0  0  0  0  0  0  0  0  0  # atno 8010 bound_to 7997
  140.7145  143.3415  151.2347 H   0  0  0  0  0  0  0  0  0  0  0  0  # atno 10167 bound_to 10162
  156.5786  130.8719  151.2858 H   0  0  0  0  0  0  0  0  0  0  0  0  # atno 10718 bound_to 10713
  154.0935  135.6574  153.4856 H   0  0  0  0  0  0  0  0  0  0  0  0  # atno 10763 bound_to 10752
  153.0313  135.5208  154.7357 H   0  0  0  0  0  0  0  0  0  0  0  0  # atno 10764 bound_to 10752
  154.6488  135.2998  154.9982 H   0  0  0  0  0  0  0  0  0  0  0  0  # atno 10765 bound_to 10752
  140.8224  133.8058  155.9673 H   0  0  0  0  0  0  0  0  0  0  0  0  # atno 11005 bound_to 11000
  145.9052  139.2454  143.1470 LP  0  0  0  0  0  0  0  0  0  0  0  0  # atno 17320 bound_to 7965
  145.9771  140.8713  143.0133 LP  0  0  0  0  0  0  0  0  0  0  0  0  # atno 17321 bound_to 7965
  139.6924  143.9670  152.2866 LP  0  0  0  0  0  0  0  0  0  0  0  0  # atno 17342 bound_to 10162
  139.9336  144.6726  150.8338 LP  0  0  0  0  0  0  0  0  0  0  0  0  # atno 17343 bound_to 10162
  157.7332  130.9726  150.1965 LP  0  0  0  0  0  0  0  0  0  0  0  0  # atno 17370 bound_to 10713
  156.2652  130.3715  149.8089 LP  0  0  0  0  0  0  0  0  0  0  0  0  # atno 17371 bound_to 10713
  140.9085  134.2290  157.5000 LP  0  0  0  0  0  0  0  0  0  0  0  0  # atno 17394 bound_to 11000
  139.8708  134.9739  156.4827 LP  0  0  0  0  0  0  0  0  0  0  0  0  # atno 17395 bound_to 11000

$$$$
