AV-unprocessed.smi:927|AV-procd|sdf|4187|dock8
  -GOLD-   22720 2 93D 1   1.00000     0.00000
 Structure written by MMmdl.
 21 21  0  0  0  0  0  0  0  0  2 V2000
  147.9842  138.8536  152.7111 N   0  3  0  0  0  0  0  0  0  0  0  0
  148.2631  139.0094  154.1497 C   0  0  0  0  0  0  0  0  0  0  0  0
  149.0716  140.2864  154.4409 C   0  0  2  0  0  0  0  0  0  0  0  0
  149.3024  140.9665  153.2223 O   0  0  0  0  0  0  0  0  0  0  0  0
  150.3721  139.9626  155.1593 C   0  0  0  0  0  0  0  0  0  0  0  0
  150.7179  140.6340  156.3509 C   0  0  0  0  0  0  0  0  0  0  0  0
  151.9304  140.2984  156.9865 C   0  0  0  0  0  0  0  0  0  0  0  0
  152.7807  139.3625  156.5139 N   0  0  0  0  0  0  0  0  0  0  0  0
  152.4448  138.7212  155.3744 C   0  0  0  0  0  0  0  0  0  0  0  0
  151.2570  138.9810  154.6620 C   0  0  0  0  0  0  0  0  0  0  0  0
  148.1014  137.8861  152.4461 H   0  0  0  0  0  0  0  0  0  0  0  0
  148.6276  139.4280  152.1850 H   0  0  0  0  0  0  0  0  0  0  0  0
  147.3083  139.0435  154.6757 H   0  0  0  0  0  0  0  0  0  0  0  0
  148.7926  138.1253  154.5075 H   0  0  0  0  0  0  0  0  0  0  0  0
  148.4825  140.9495  155.0764 H   0  0  0  0  0  0  0  0  0  0  0  0
  149.1511  140.3639  152.5094 H   0  0  0  0  0  0  0  0  0  0  0  0
  150.0728  141.3905  156.7734 H   0  0  0  0  0  0  0  0  0  0  0  0
  152.2238  140.7945  157.8997 H   0  0  0  0  0  0  0  0  0  0  0  0
  153.1427  137.9770  155.0199 H   0  0  0  0  0  0  0  0  0  0  0  0
  151.0348  138.4362  153.7561 H   0  0  0  0  0  0  0  0  0  0  0  0
  147.0372  139.1456  152.5161 H   0  0  0  0  0  0  0  0  0  0  0  0
  1  2  1  0  0  0  0
  1 11  1  0  0  0  0
  1 12  1  0  0  0  0
  1 21  1  0  0  0  0
  2  3  1  0  0  0  0
  2 13  1  0  0  0  0
  2 14  1  0  0  0  0
  3  4  1  0  0  0  0
  3  5  1  0  0  0  0
  3 15  1  0  0  0  0
  4 16  1  0  0  0  0
  5 10  1  0  0  0  0
  5  6  2  0  0  0  0
  6  7  1  0  0  0  0
  6 17  1  0  0  0  0
  7  8  2  0  0  0  0
  7 18  1  0  0  0  0
  8  9  1  0  0  0  0
  9 10  2  0  0  0  0
  9 19  1  0  0  0  0
 10 20  1  0  0  0  0
M  CHG  1   1   1
M  END
> <s_m_source_file>
AV-unprocessed.smi

> <i_m_source_file_index>
927

> <i_lp_mmshare_version>
43012

> <i_f3d_flags>
0

> <s_epik_input>
W05IMl1bQ0gyXVtDQEhdKFtPSF0pYzFbY0hdW2NIXW5bY0hdW2NIXTE=

> <s_epik_cmdline>
J2VwaWtfcHl0aG9uJywgJy1waCcsICc3LjAnLCAnLXRuJywgJzgnLCAnLW1hJywgJzIwMCcsICctbWV0YWxfYmluZGluZycsICctaW1hZScsICc8aW5maWxlLm1hZT4nLCAnLW9tYWUnLCAnPG91dGZpbGUubWFlPic=

> <r_epik_Ionization_Penalty>
0.0159363

> <r_epik_Ionization_Penalty_Charging>
0.0140431

> <r_epik_Ionization_Penalty_Neutral>
0.00189321

> <r_epik_State_Penalty>
0.0109628

> <r_epik_Charging_Adjusted_Penalty>
0.0250059

> <i_epik_Tot_Q>
1

> <i_epik_Tot_abs_Q>
1

> <r_epik_Metal_State_Penalty>
0.0113463

> <b_epik_Metal_Only>
0

> <s_lp_Force_Field>
OPLS_2005

> <r_lp_Energy>
4.52457

> <b_lp_Chiralities_Consistent>
1

> <s_lp_Variant>
AV-unprocessed.smi:927-1

> <Gold.Version>
5.8.1

> <Gold.Id.Protein>
6NUR|6NUR_protein|mol2

> <Gold.PLP.Fitness>
38.9186

> <Gold.PLP.PLP>
-23.5618

> <Gold.PLP.part.hbond>
-5.2063

> <Gold.PLP.part.metal>
0.0000

> <Gold.PLP.part.buried>
-3.1370

> <Gold.PLP.part.nonpolar>
-15.8971

> <Gold.PLP.part.repulsive>
0.0674

> <Gold.PLP.ligand.clash>
0.0000

> <Gold.PLP.ligand.torsion>
0.9230

> <Gold.PLP.Chemscore.Hbond>
5.7321

> <Gold.PLP.Chemscore.CHOScore>
0.0000

> <Gold.PLP.Chemscore.Metal>
0.0000

> <Gold.Chemscore.Hbonds>
donor molecule, donor type, donor heavy atom, donor atom, acceptor molecule, acceptor atom, score
      L1  H     1    11       P1  7948  2.00
      L1  H     1    12       P1  7957  1.00
      L1  H     4    16       P1  7957  0.69
      P1  H  7989  7998       L1     4  0.04
      P1  H  7997  8009       L1     8  1.00
      P1  H  8011  8017       L1     4  1.00

> <Gold.PLP.Chemscore.Internal.Correction>
0.0066

> <Gold.Rescore>
     Score         DG    S(hbond)    S(metal)    S(lipo)     H(rot)  DE(clash)    DE(int)     intcor
     18.84     -19.74       4.07        0.00      47.34       1.90       0.04       0.86       ----

> <Gold.Chemscore.Fitness>
18.8380

> <Gold.Chemscore.DG>
-19.7448

> <Gold.Chemscore.ZeroCoef>
-5.4800

> <Gold.Chemscore.Hbond>
4.0674

> <Gold.Chemscore.Metal>
0.0000

> <Gold.Chemscore.Lipo>
47.3404

> <Gold.Chemscore.Internal_Hbond>
0.0000

> <Gold.Chemscore.DEClash>
0.0426

> <Gold.Chemscore.DEInternal>
0.8641

> <Gold.Chemscore.Rot>
1.8981

> <Gold.Chemscore.Internal.Correction>
   9.000000E+99

> <Gold.Chemscore.Hbonds>
donor molecule, donor type, donor heavy atom, donor atom, acceptor molecule, acceptor atom, score
      L1  H     1    11       P1  7948  0.99
      L1  H     1    12       P1  7957  0.93
      L1  H     4    16       P1  7957  0.67
      P1  H  7997  8009       L1     8  0.51
      P1  H  8011  8017       L1     4  0.26

> <Gold.Chemscore.Hbond.Weighted>
-13.5851

> <Gold.Chemscore.Metal.Weighted>
-0.0000

> <Gold.Chemscore.Lipo.Weighted>
-5.5388

> <Gold.Chemscore.Internal_Hbond.Weighted>
0.0000

> <Gold.Chemscore.DEClash.Weighted>
0.0426

> <Gold.Chemscore.DEInternal.Weighted>
0.8641

> <Gold.Chemscore.Rot.Weighted>
4.8592

> <Gold.Chemscore.Internal.Correction.Weighted>
   9.000000E+99

> <Gold.Protein.RotatedTorsions>
[ 6907 6896 6895 6894 ] final   18.79 input  -60.11 | X-H torsion
[ 7974 7965 7964 7962 ] final  112.56 input  175.53 | X-H torsion
[ 8008 7997 7996 7995 ] final -174.19 input   59.86 | X-H torsion
[ 10167 10162 10161 10158 ] final  -49.27 input  -65.29 | X-H torsion
[ 10718 10713 10712 10709 ] final  152.13 input   66.30 | X-H torsion
[ 10763 10752 10751 10750 ] final  104.27 input  -60.55 | X-H torsion
[ 11005 11000 10999 10996 ] final  -12.55 input  -57.11 | X-H torsion

> <Gold.Protein.ActiveResidues>
 VAL166  LYS551  ARG553  GLY616  TRP617  ASP618  TYR619  PRO620  LYS621  CYS622 
 ASP623  PHE694  ASN695  SER759  ASP760  ASP761  ALA762  ILE779  LEU786  VAL792 
 PHE793  MET794  SER795  GLU796  ALA797  LYS798  CYS799  TRP800  GLU811  SER814 

> <Gold.Protein.RotatedAtoms>
  151.8708  135.0490  160.0478 H   0  0  0  0  0  0  0  0  0  0  0  0  # atno 6907 bound_to 6896
  152.2589  133.5276  159.5378 H   0  0  0  0  0  0  0  0  0  0  0  0  # atno 6908 bound_to 6896
  150.7109  134.0773  159.3928 H   0  0  0  0  0  0  0  0  0  0  0  0  # atno 6909 bound_to 6896
  145.2280  139.2832  143.4183 H   0  0  0  0  0  0  0  0  0  0  0  0  # atno 7974 bound_to 7965
  155.9669  140.1155  157.0846 H   0  0  0  0  0  0  0  0  0  0  0  0  # atno 8008 bound_to 7997
  154.4146  140.1171  156.5322 H   0  0  0  0  0  0  0  0  0  0  0  0  # atno 8009 bound_to 7997
  155.6647  140.3473  155.4798 H   0  0  0  0  0  0  0  0  0  0  0  0  # atno 8010 bound_to 7997
  140.6693  143.2705  151.4191 H   0  0  0  0  0  0  0  0  0  0  0  0  # atno 10167 bound_to 10162
  157.2618  131.0799  151.1660 H   0  0  0  0  0  0  0  0  0  0  0  0  # atno 10718 bound_to 10713
  153.3637  135.3949  155.1737 H   0  0  0  0  0  0  0  0  0  0  0  0  # atno 10763 bound_to 10752
  154.8683  135.3686  154.5066 H   0  0  0  0  0  0  0  0  0  0  0  0  # atno 10764 bound_to 10752
  153.5528  135.7082  153.5644 H   0  0  0  0  0  0  0  0  0  0  0  0  # atno 10765 bound_to 10752
  140.7669  133.8469  155.9173 H   0  0  0  0  0  0  0  0  0  0  0  0  # atno 11005 bound_to 11000
  146.3360  140.2606  142.8602 LP  0  0  0  0  0  0  0  0  0  0  0  0  # atno 17320 bound_to 7965
  144.9703  140.8362  143.5459 LP  0  0  0  0  0  0  0  0  0  0  0  0  # atno 17321 bound_to 7965
  139.5954  144.1409  152.2137 LP  0  0  0  0  0  0  0  0  0  0  0  0  # atno 17342 bound_to 10162
  140.0776  144.5727  150.7145 LP  0  0  0  0  0  0  0  0  0  0  0  0  # atno 17343 bound_to 10162
  157.3167  130.6917  149.6246 LP  0  0  0  0  0  0  0  0  0  0  0  0  # atno 17370 bound_to 10713
  155.9664  130.4347  150.5062 LP  0  0  0  0  0  0  0  0  0  0  0  0  # atno 17371 bound_to 10713
  140.9610  134.1655  157.4654 LP  0  0  0  0  0  0  0  0  0  0  0  0  # atno 17394 bound_to 11000
  139.8762  134.9945  156.5695 LP  0  0  0  0  0  0  0  0  0  0  0  0  # atno 17395 bound_to 11000

$$$$
