AV-unprocessed.smi:1570|AV-procd|sdf|6320|dock6
  -GOLD-   22720 6523D 1   1.00000     0.00000
 Structure written by MMmdl.
 52 54  0  0  0  0  0  0  0  0  2 V2000
  152.1176  145.7659  159.4143 C   0  0  0  0  0  0  0  0  0  0  0  0
  151.5792  144.6384  160.3047 C   0  0  0  0  0  0  0  0  0  0  0  0
  152.0341  143.3325  159.8347 N   0  0  0  0  0  0  0  0  0  0  0  0
  151.7193  142.7469  158.6555 C   0  0  0  0  0  0  0  0  0  0  0  0
  151.0043  143.2277  157.7766 O   0  0  0  0  0  0  0  0  0  0  0  0
  152.2949  141.5213  158.6266 N   0  0  0  0  0  0  0  0  0  0  0  0
  152.1794  140.5256  157.5617 C   0  0  0  0  0  0  0  0  0  0  0  0
  150.7114  140.2670  157.1655 C   0  0  2  0  0  0  0  0  0  0  0  0
  150.1991  139.2732  158.0298 O   0  0  0  0  0  0  0  0  0  0  0  0
  150.5492  139.7838  155.7078 C   0  0  0  0  0  0  0  0  0  0  0  0
  149.2377  140.1599  155.1240 N   0  3  1  0  0  0  0  0  0  0  0  0
  149.2321  141.5051  154.4975 C   0  0  0  0  0  0  0  0  0  0  0  0
  147.8316  141.8605  153.9614 C   0  0  2  0  0  0  0  0  0  0  0  0
  146.8200  142.2050  155.0689 C   0  0  0  0  0  0  0  0  0  0  0  0
  147.3579  140.8282  153.0962 O   0  0  0  0  0  0  0  0  0  0  0  0
  147.3237  139.5276  153.6783 C   0  0  1  0  0  0  0  0  0  0  0  0
  146.8002  138.5501  152.6203 C   0  0  0  0  0  0  0  0  0  0  0  0
  148.7322  139.1481  154.1683 C   0  0  0  0  0  0  0  0  0  0  0  0
  152.9862  141.3124  159.8284 C   0  0  0  0  0  0  0  0  0  0  0  0
  153.7258  140.2092  160.2888 C   0  0  0  0  0  0  0  0  0  0  0  0
  154.2994  140.3081  161.5780 C   0  0  0  0  0  0  0  0  0  0  0  0
  154.1263  141.4778  162.3628 C   0  0  0  0  0  0  0  0  0  0  0  0
  153.3768  142.5740  161.8747 C   0  0  0  0  0  0  0  0  0  0  0  0
  152.8202  142.4502  160.5897 C   0  0  0  0  0  0  0  0  0  0  0  0
  151.7750  146.7379  159.7695 H   0  0  0  0  0  0  0  0  0  0  0  0
  151.7795  145.6506  158.3840 H   0  0  0  0  0  0  0  0  0  0  0  0
  153.2081  145.7793  159.4107 H   0  0  0  0  0  0  0  0  0  0  0  0
  151.9021  144.7943  161.3354 H   0  0  0  0  0  0  0  0  0  0  0  0
  150.4895  144.6635  160.3230 H   0  0  0  0  0  0  0  0  0  0  0  0
  152.7599  140.8329  156.6900 H   0  0  0  0  0  0  0  0  0  0  0  0
  152.6395  139.6013  157.9138 H   0  0  0  0  0  0  0  0  0  0  0  0
  150.1384  141.1777  157.3363 H   0  0  0  0  0  0  0  0  0  0  0  0
  149.7431  139.6974  158.7413 H   0  0  0  0  0  0  0  0  0  0  0  0
  151.3370  140.1844  155.0697 H   0  0  0  0  0  0  0  0  0  0  0  0
  150.6669  138.6990  155.6885 H   0  0  0  0  0  0  0  0  0  0  0  0
  149.5572  142.2673  155.2049 H   0  0  0  0  0  0  0  0  0  0  0  0
  149.9495  141.5175  153.6753 H   0  0  0  0  0  0  0  0  0  0  0  0
  147.9318  142.7511  153.3401 H   0  0  0  0  0  0  0  0  0  0  0  0
  147.1461  143.0810  155.6300 H   0  0  0  0  0  0  0  0  0  0  0  0
  146.6945  141.3926  155.7843 H   0  0  0  0  0  0  0  0  0  0  0  0
  145.8418  142.4321  154.6447 H   0  0  0  0  0  0  0  0  0  0  0  0
  146.6289  139.5180  154.5183 H   0  0  0  0  0  0  0  0  0  0  0  0
  146.7459  137.5352  153.0158 H   0  0  0  0  0  0  0  0  0  0  0  0
  147.4471  138.5331  151.7425 H   0  0  0  0  0  0  0  0  0  0  0  0
  145.7996  138.8314  152.2909 H   0  0  0  0  0  0  0  0  0  0  0  0
  149.4211  139.0665  153.3257 H   0  0  0  0  0  0  0  0  0  0  0  0
  148.6979  138.1705  154.6506 H   0  0  0  0  0  0  0  0  0  0  0  0
  153.8519  139.3208  159.6879 H   0  0  0  0  0  0  0  0  0  0  0  0
  154.8753  139.4828  161.9702 H   0  0  0  0  0  0  0  0  0  0  0  0
  154.5716  141.5315  163.3455 H   0  0  0  0  0  0  0  0  0  0  0  0
  153.2392  143.4650  162.4691 H   0  0  0  0  0  0  0  0  0  0  0  0
  148.5802  140.1808  155.8907 H   0  0  0  0  0  0  0  0  0  0  0  0
  1  2  1  0  0  0  0
  1 25  1  0  0  0  0
  1 26  1  0  0  0  0
  1 27  1  0  0  0  0
  2  3  1  0  0  0  0
  2 28  1  0  0  0  0
  2 29  1  0  0  0  0
  3 24  1  0  0  0  0
  3  4  1  0  0  0  0
  4  5  2  0  0  0  0
  4  6  1  0  0  0  0
  6  7  1  0  0  0  0
  6 19  1  0  0  0  0
  7  8  1  0  0  0  0
  7 30  1  0  0  0  0
  7 31  1  0  0  0  0
  8  9  1  0  0  0  0
  8 10  1  0  0  0  0
  8 32  1  0  0  0  0
  9 33  1  0  0  0  0
 10 11  1  0  0  0  0
 10 34  1  0  0  0  0
 10 35  1  0  0  0  0
 11 18  1  0  0  0  0
 11 12  1  0  0  0  0
 11 52  1  0  0  0  0
 12 13  1  0  0  0  0
 12 36  1  0  0  0  0
 12 37  1  0  0  0  0
 13 14  1  0  0  0  0
 13 15  1  0  0  0  0
 13 38  1  0  0  0  0
 14 39  1  0  0  0  0
 14 40  1  0  0  0  0
 14 41  1  0  0  0  0
 15 16  1  0  0  0  0
 16 17  1  0  0  0  0
 16 18  1  0  0  0  0
 16 42  1  0  0  0  0
 17 43  1  0  0  0  0
 17 44  1  0  0  0  0
 17 45  1  0  0  0  0
 18 46  1  0  0  0  0
 18 47  1  0  0  0  0
 19 24  2  0  0  0  0
 19 20  1  0  0  0  0
 20 21  2  0  0  0  0
 20 48  1  0  0  0  0
 21 22  1  0  0  0  0
 21 49  1  0  0  0  0
 22 23  2  0  0  0  0
 22 50  1  0  0  0  0
 23 24  1  0  0  0  0
 23 51  1  0  0  0  0
M  CHG  1  11   1
M  END
> <s_m_source_file>
AV-unprocessed.smi

> <i_m_source_file_index>
1570

> <i_lp_mmshare_version>
43012

> <i_f3d_flags>
0

> <s_epik_input>
W2NIXTFbY0hdW2NIXVtjSF1jKGMxMiluKFtDSDJdW0NIM10pYyg9TyluMltDSDJdW0NASF0oW09IXSlbQ0gyXU4zW0NIMl1bQ0BASF0oW0NIM10pT1tDQEBIXShbQ0gzXSlbQ0gyXTM=

> <s_epik_cmdline>
J2VwaWtfcHl0aG9uJywgJy1waCcsICc3LjAnLCAnLXRuJywgJzgnLCAnLW1hJywgJzIwMCcsICctbWV0YWxfYmluZGluZycsICctaW1hZScsICc8aW5maWxlLm1hZT4nLCAnLW9tYWUnLCAnPG91dGZpbGUubWFlPic=

> <r_epik_Ionization_Penalty>
0.706332

> <r_epik_Ionization_Penalty_Charging>
0.706318

> <r_epik_Ionization_Penalty_Neutral>
1.42224e-05

> <r_epik_State_Penalty>
0.729493

> <r_epik_Charging_Adjusted_Penalty>
1.43581

> <i_epik_Tot_Q>
1

> <i_epik_Tot_abs_Q>
1

> <r_epik_Metal_State_Penalty>
0.729493

> <b_epik_Metal_Only>
0

> <s_lp_Force_Field>
OPLS_2005

> <r_lp_Energy>
53.5828

> <b_lp_Chiralities_Consistent>
1

> <s_lp_Variant>
AV-unprocessed.smi:1570-9

> <Gold.Version>
5.8.1

> <Gold.Id.Protein>
6NUR|6NUR_protein|mol2

> <Gold.PLP.Fitness>
51.0010

> <Gold.PLP.PLP>
-53.1278

> <Gold.PLP.part.hbond>
0.0000

> <Gold.PLP.part.metal>
0.0000

> <Gold.PLP.part.buried>
-3.4252

> <Gold.PLP.part.nonpolar>
-49.2167

> <Gold.PLP.part.repulsive>
0.3955

> <Gold.PLP.ligand.clash>
0.0000

> <Gold.PLP.ligand.torsion>
1.1016

> <Gold.PLP.Chemscore.Hbond>
0.0000

> <Gold.PLP.Chemscore.CHOScore>
0.0000

> <Gold.PLP.Chemscore.Metal>
0.0000

> <Gold.PLP.Chemscore.Internal.Correction>
0.0764

> <Gold.Rescore>
     Score         DG    S(hbond)    S(metal)    S(lipo)     H(rot)  DE(clash)    DE(int)     intcor
     14.93     -16.23       0.00        0.00     138.50       2.13       0.23       1.07       ----

> <Gold.Chemscore.Fitness>
14.9279

> <Gold.Chemscore.DG>
-16.2315

> <Gold.Chemscore.ZeroCoef>
-5.4800

> <Gold.Chemscore.Hbond>
0.0000

> <Gold.Chemscore.Metal>
0.0000

> <Gold.Chemscore.Lipo>
138.5046

> <Gold.Chemscore.Internal_Hbond>
0.0000

> <Gold.Chemscore.DEClash>
0.2304

> <Gold.Chemscore.DEInternal>
1.0732

> <Gold.Chemscore.Rot>
2.1303

> <Gold.Chemscore.Internal.Correction>
   9.000000E+99

> <Gold.Chemscore.Hbond.Weighted>
-0.0000

> <Gold.Chemscore.Metal.Weighted>
-0.0000

> <Gold.Chemscore.Lipo.Weighted>
-16.2050

> <Gold.Chemscore.Internal_Hbond.Weighted>
0.0000

> <Gold.Chemscore.DEClash.Weighted>
0.2304

> <Gold.Chemscore.DEInternal.Weighted>
1.0732

> <Gold.Chemscore.Rot.Weighted>
5.4535

> <Gold.Chemscore.Internal.Correction.Weighted>
   9.000000E+99

> <Gold.Protein.RotatedTorsions>
[ 6907 6896 6895 6894 ] final  -17.22 input  -60.11 | X-H torsion
[ 7974 7965 7964 7962 ] final   74.79 input  175.53 | X-H torsion
[ 8008 7997 7996 7995 ] final   23.23 input   59.86 | X-H torsion
[ 10167 10162 10161 10158 ] final -125.05 input  -65.29 | X-H torsion
[ 10718 10713 10712 10709 ] final  -28.16 input   66.30 | X-H torsion
[ 10763 10752 10751 10750 ] final  -55.13 input  -60.55 | X-H torsion
[ 11005 11000 10999 10996 ] final  150.13 input  -57.11 | X-H torsion

> <Gold.Protein.ActiveResidues>
 VAL166  LYS551  ARG553  GLY616  TRP617  ASP618  TYR619  PRO620  LYS621  CYS622 
 ASP623  PHE694  ASN695  SER759  ASP760  ASP761  ALA762  ILE779  LEU786  VAL792 
 PHE793  MET794  SER795  GLU796  ALA797  LYS798  CYS799  TRP800  GLU811  SER814 

> <Gold.Protein.RotatedAtoms>
  151.2966  135.0757  159.9223 H   0  0  0  0  0  0  0  0  0  0  0  0  # atno 6907 bound_to 6896
  152.5306  133.9876  159.7846 H   0  0  0  0  0  0  0  0  0  0  0  0  # atno 6908 bound_to 6896
  151.0156  133.5873  159.2708 H   0  0  0  0  0  0  0  0  0  0  0  0  # atno 6909 bound_to 6896
  145.7239  139.2658  143.1580 H   0  0  0  0  0  0  0  0  0  0  0  0  # atno 7974 bound_to 7965
  154.9778  140.3098  155.4959 H   0  0  0  0  0  0  0  0  0  0  0  0  # atno 8008 bound_to 7997
  156.2957  140.2272  156.4814 H   0  0  0  0  0  0  0  0  0  0  0  0  # atno 8009 bound_to 7997
  154.7817  140.0445  157.1121 H   0  0  0  0  0  0  0  0  0  0  0  0  # atno 8010 bound_to 7997
  139.9863  143.5688  152.2359 H   0  0  0  0  0  0  0  0  0  0  0  0  # atno 10167 bound_to 10162
  156.4288  130.4441  149.7132 H   0  0  0  0  0  0  0  0  0  0  0  0  # atno 10718 bound_to 10713
  154.1859  135.6435  153.5047 H   0  0  0  0  0  0  0  0  0  0  0  0  # atno 10763 bound_to 10752
  153.0047  135.5417  154.6465 H   0  0  0  0  0  0  0  0  0  0  0  0  # atno 10764 bound_to 10752
  154.5842  135.2928  155.0675 H   0  0  0  0  0  0  0  0  0  0  0  0  # atno 10765 bound_to 10752
  140.1105  134.8927  157.1929 H   0  0  0  0  0  0  0  0  0  0  0  0  # atno 11005 bound_to 11000
  146.0601  140.7980  142.9739 LP  0  0  0  0  0  0  0  0  0  0  0  0  # atno 17320 bound_to 7965
  144.6910  140.3183  143.7236 LP  0  0  0  0  0  0  0  0  0  0  0  0  # atno 17321 bound_to 7965
  139.6373  144.7651  151.2412 LP  0  0  0  0  0  0  0  0  0  0  0  0  # atno 17342 bound_to 10162
  140.7471  143.6377  150.8364 LP  0  0  0  0  0  0  0  0  0  0  0  0  # atno 17343 bound_to 10162
  156.4043  130.7690  151.2700 LP  0  0  0  0  0  0  0  0  0  0  0  0  # atno 17370 bound_to 10713
  157.7508  131.0230  150.3817 LP  0  0  0  0  0  0  0  0  0  0  0  0  # atno 17371 bound_to 10713
  140.3098  134.3037  155.7269 LP  0  0  0  0  0  0  0  0  0  0  0  0  # atno 17394 bound_to 11000
  141.2129  133.7643  156.9760 LP  0  0  0  0  0  0  0  0  0  0  0  0  # atno 17395 bound_to 11000

$$$$
