AV-unprocessed.smi:445|AV-procd|sdf|2590|dock8
  -GOLD-   2262022583D 1   1.00000     0.00000
 Structure written by MMmdl.
 44 45  0  0  0  0  0  0  0  0  3 V2000
  152.1730  143.4539  158.1493 C   0  0  0  0  0  0  0  0  0  0  0  0
  152.9163  143.1044  159.4499 C   0  0  1  0  0  0  0  0  0  0  0  0
  152.0747  143.4547  160.6953 C   0  0  0  0  0  0  0  0  0  0  0  0
  152.8355  143.1546  161.9968 C   0  0  0  0  0  0  0  0  0  0  0  0
  153.3054  141.6935  162.0463 C   0  0  0  0  0  0  0  0  0  0  0  0
  154.1510  141.3420  160.8106 C   0  0  0  0  0  0  0  0  0  0  0  0
  153.4005  141.6331  159.4917 C   0  0  1  0  0  0  0  0  0  0  0  0
  152.2838  140.7057  159.3040 N   0  0  0  0  0  0  0  0  0  0  0  0
  152.3754  139.3679  159.2657 C   0  0  0  0  0  0  0  0  0  0  0  0
  153.4426  138.7619  159.3701 O   0  0  0  0  0  0  0  0  0  0  0  0
  151.0528  138.6122  159.0745 C   0  0  0  0  0  0  0  0  0  0  0  0
  150.8694  138.1066  157.7018 N   0  0  0  0  0  0  0  0  0  0  0  0
  150.7176  136.7147  157.5733 C   0  0  0  0  0  0  0  0  0  0  0  0
  150.5520  136.1176  156.3805 C   0  0  0  0  0  0  0  0  0  0  0  0
  150.4063  134.6815  156.2753 N   0  3  0  0  0  0  0  0  0  0  0  0
  150.4460  134.0083  157.3001 O   0  0  0  0  0  0  0  0  0  0  0  0
  150.2479  134.1784  155.1669 O   0  5  0  0  0  0  0  0  0  0  0  0
  150.5295  136.9574  155.2011 C   0  0  0  0  0  0  0  0  0  0  0  0
  150.6815  138.3029  155.2995 C   0  0  0  0  0  0  0  0  0  0  0  0
  150.6661  139.1980  154.1204 C   0  0  0  0  0  0  0  0  0  0  0  0
  150.2654  138.6095  152.9863 N   0  0  0  0  0  0  0  0  0  0  0  0
  150.9774  140.3884  154.0913 O   0  0  0  0  0  0  0  0  0  0  0  0
  150.8727  138.9536  156.6249 C   0  0  0  0  0  0  0  0  0  0  0  0
  151.0299  140.1650  156.7980 O   0  0  0  0  0  0  0  0  0  0  0  0
  151.2349  142.9059  158.0582 H   0  0  0  0  0  0  0  0  0  0  0  0
  152.7822  143.2210  157.2756 H   0  0  0  0  0  0  0  0  0  0  0  0
  151.9361  144.5173  158.1104 H   0  0  0  0  0  0  0  0  0  0  0  0
  153.8072  143.7339  159.4779 H   0  0  0  0  0  0  0  0  0  0  0  0
  151.7993  144.5096  160.6731 H   0  0  0  0  0  0  0  0  0  0  0  0
  151.1389  142.8945  160.6831 H   0  0  0  0  0  0  0  0  0  0  0  0
  153.6982  143.8172  162.0755 H   0  0  0  0  0  0  0  0  0  0  0  0
  152.2010  143.3702  162.8570 H   0  0  0  0  0  0  0  0  0  0  0  0
  153.8851  141.5207  162.9533 H   0  0  0  0  0  0  0  0  0  0  0  0
  152.4409  141.0309  162.1035 H   0  0  0  0  0  0  0  0  0  0  0  0
  155.0719  141.9263  160.8329 H   0  0  0  0  0  0  0  0  0  0  0  0
  154.4610  140.2976  160.8569 H   0  0  0  0  0  0  0  0  0  0  0  0
  154.0970  141.4875  158.6639 H   0  0  0  0  0  0  0  0  0  0  0  0
  151.3676  141.1184  159.2051 H   0  0  0  0  0  0  0  0  0  0  0  0
  151.0135  137.7803  159.7800 H   0  0  0  0  0  0  0  0  0  0  0  0
  150.2324  139.2669  159.3723 H   0  0  0  0  0  0  0  0  0  0  0  0
  150.7559  136.1734  158.5080 H   0  0  0  0  0  0  0  0  0  0  0  0
  150.3879  136.4799  154.2433 H   0  0  0  0  0  0  0  0  0  0  0  0
  150.2199  139.1395  152.1285 H   0  0  0  0  0  0  0  0  0  0  0  0
  150.0073  137.6332  152.9947 H   0  0  0  0  0  0  0  0  0  0  0  0
  1  2  1  0  0  0  0
  1 25  1  0  0  0  0
  1 26  1  0  0  0  0
  1 27  1  0  0  0  0
  2  7  1  0  0  0  0
  2  3  1  0  0  0  0
  2 28  1  0  0  0  0
  3  4  1  0  0  0  0
  3 29  1  0  0  0  0
  3 30  1  0  0  0  0
  4  5  1  0  0  0  0
  4 31  1  0  0  0  0
  4 32  1  0  0  0  0
  5  6  1  0  0  0  0
  5 33  1  0  0  0  0
  5 34  1  0  0  0  0
  6  7  1  0  0  0  0
  6 35  1  0  0  0  0
  6 36  1  0  0  0  0
  7  8  1  0  0  0  0
  7 37  1  0  0  0  0
  8  9  1  0  0  0  0
  8 38  1  0  0  0  0
  9 10  2  0  0  0  0
  9 11  1  0  0  0  0
 11 12  1  0  0  0  0
 11 39  1  0  0  0  0
 11 40  1  0  0  0  0
 12 23  1  0  0  0  0
 12 13  1  0  0  0  0
 13 14  2  0  0  0  0
 13 41  1  0  0  0  0
 14 15  1  0  0  0  0
 14 18  1  0  0  0  0
 15 16  2  0  0  0  0
 15 17  1  0  0  0  0
 18 19  2  0  0  0  0
 18 42  1  0  0  0  0
 19 20  1  0  0  0  0
 19 23  1  0  0  0  0
 20 21  1  0  0  0  0
 20 22  2  0  0  0  0
 21 43  1  0  0  0  0
 21 44  1  0  0  0  0
 23 24  2  0  0  0  0
M  CHG  1  15   1
M  CHG  1  17  -1
M  END
> <s_m_source_file>
AV-unprocessed.smi

> <i_m_source_file_index>
445

> <i_lp_mmshare_version>
43012

> <i_f3d_flags>
0

> <s_epik_input>
W0NIM11bQ0BASF0xW0NIMl1bQ0gyXVtDSDJdW0NIMl1bQ0BIXTFbTkhdQyg9TylbQ0gyXW4yW2NIXWMoW04rXSg9TylbTy1dKVtjSF1jKGMyPU8pQyg9TylbTkgyXQ==

> <s_epik_cmdline>
J2VwaWtfcHl0aG9uJywgJy1waCcsICc3LjAnLCAnLXRuJywgJzgnLCAnLW1hJywgJzIwMCcsICctbWV0YWxfYmluZGluZycsICctaW1hZScsICc8aW5maWxlLm1hZT4nLCAnLW9tYWUnLCAnPG91dGZpbGUubWFlPic=

> <r_lp_tautomer_probability>
1

> <r_epik_Ionization_Penalty>
2.81321e-06

> <r_epik_Ionization_Penalty_Charging>
2.43777e-12

> <r_epik_Ionization_Penalty_Neutral>
2.81321e-06

> <r_epik_State_Penalty>
-0

> <r_epik_Charging_Adjusted_Penalty>
2.43777e-12

> <i_epik_Tot_Q>
0

> <i_epik_Tot_abs_Q>
2

> <r_epik_Metal_State_Penalty>
-0

> <b_epik_Metal_Only>
0

> <s_lp_Force_Field>
OPLS_2005

> <r_lp_Energy>
28.4442

> <b_lp_Chiralities_Consistent>
1

> <s_lp_Variant>
AV-unprocessed.smi:445-2

> <Gold.Version>
5.8.1

> <Gold.Id.Protein>
6NUR|6NUR_protein|mol2

> <Gold.PLP.Fitness>
51.6832

> <Gold.PLP.PLP>
-42.2546

> <Gold.PLP.part.hbond>
-3.8920

> <Gold.PLP.part.metal>
0.0000

> <Gold.PLP.part.buried>
-6.4302

> <Gold.PLP.part.nonpolar>
-31.9206

> <Gold.PLP.part.repulsive>
0.4522

> <Gold.PLP.ligand.clash>
0.0000

> <Gold.PLP.ligand.torsion>
0.2805

> <Gold.PLP.Chemscore.Hbond>
3.3210

> <Gold.PLP.Chemscore.CHOScore>
0.0000

> <Gold.PLP.Chemscore.Metal>
0.0000

> <Gold.Chemscore.Hbonds>
donor molecule, donor type, donor heavy atom, donor atom, acceptor molecule, acceptor atom, score
      L1  H    21    43       P1  7957  0.60
      L1  H    21    44       P1  7948  0.79
      P1  H  6896  6907       L1    16  0.62

> <Gold.PLP.Chemscore.Internal.Correction>
0.0268

> <Gold.Rescore>
     Score         DG    S(hbond)    S(metal)    S(lipo)     H(rot)  DE(clash)    DE(int)     intcor
     19.18     -23.22       3.22        0.00      97.08       1.71       0.04       4.00       ----

> <Gold.Chemscore.Fitness>
19.1800

> <Gold.Chemscore.DG>
-23.2191

> <Gold.Chemscore.ZeroCoef>
-5.4800

> <Gold.Chemscore.Hbond>
3.2229

> <Gold.Chemscore.Metal>
0.0000

> <Gold.Chemscore.Lipo>
97.0776

> <Gold.Chemscore.Internal_Hbond>
0.0000

> <Gold.Chemscore.DEClash>
0.0363

> <Gold.Chemscore.DEInternal>
4.0029

> <Gold.Chemscore.Rot>
1.7123

> <Gold.Chemscore.Internal.Correction>
   9.000000E+99

> <Gold.Chemscore.Hbonds>
donor molecule, donor type, donor heavy atom, donor atom, acceptor molecule, acceptor atom, score
      L1  H    21    43       P1  7957  0.09
      L1  H    21    44       P1  7948  0.19
      P1  H  6896  6907       L1    16  0.59

> <Gold.Chemscore.Hbond.Weighted>
-10.7645

> <Gold.Chemscore.Metal.Weighted>
-0.0000

> <Gold.Chemscore.Lipo.Weighted>
-11.3581

> <Gold.Chemscore.Internal_Hbond.Weighted>
0.0000

> <Gold.Chemscore.DEClash.Weighted>
0.0363

> <Gold.Chemscore.DEInternal.Weighted>
4.0029

> <Gold.Chemscore.Rot.Weighted>
4.3835

> <Gold.Chemscore.Internal.Correction.Weighted>
   9.000000E+99

> <Gold.Protein.RotatedTorsions>
[ 6907 6896 6895 6894 ] final -140.60 input  -60.11 | X-H torsion
[ 7974 7965 7964 7962 ] final   87.34 input  175.53 | X-H torsion
[ 8008 7997 7996 7995 ] final   83.85 input   59.86 | X-H torsion
[ 10167 10162 10161 10158 ] final   81.89 input  -65.29 | X-H torsion
[ 10718 10713 10712 10709 ] final  -26.59 input   66.30 | X-H torsion
[ 10763 10752 10751 10750 ] final  -69.08 input  -60.55 | X-H torsion
[ 11005 11000 10999 10996 ] final  -73.24 input  -57.11 | X-H torsion

> <Gold.Protein.ActiveResidues>
 VAL166  LYS551  ARG553  GLY616  TRP617  ASP618  TYR619  PRO620  LYS621  CYS622 
 ASP623  PHE694  ASN695  SER759  ASP760  ASP761  ALA762  ILE779  LEU786  VAL792 
 PHE793  MET794  SER795  GLU796  ALA797  LYS798  CYS799  TRP800  GLU811  SER814 

> <Gold.Protein.RotatedAtoms>
  151.0628  133.5530  159.2632 H   0  0  0  0  0  0  0  0  0  0  0  0  # atno 6907 bound_to 6896
  151.2499  135.0618  159.9068 H   0  0  0  0  0  0  0  0  0  0  0  0  # atno 6908 bound_to 6896
  152.5400  134.0390  159.8112 H   0  0  0  0  0  0  0  0  0  0  0  0  # atno 6909 bound_to 6896
  145.5602  139.2303  143.2463 H   0  0  0  0  0  0  0  0  0  0  0  0  # atno 7974 bound_to 7965
  155.9294  140.3416  155.6237 H   0  0  0  0  0  0  0  0  0  0  0  0  # atno 8008 bound_to 7997
  155.7176  140.0779  157.2363 H   0  0  0  0  0  0  0  0  0  0  0  0  # atno 8009 bound_to 7997
  154.4082  140.1611  156.2353 H   0  0  0  0  0  0  0  0  0  0  0  0  # atno 8010 bound_to 7997
  139.9345  144.6130  150.8312 H   0  0  0  0  0  0  0  0  0  0  0  0  # atno 10167 bound_to 10162
  156.4493  130.4480  149.7000 H   0  0  0  0  0  0  0  0  0  0  0  0  # atno 10718 bound_to 10713
  154.3983  135.6037  153.5882 H   0  0  0  0  0  0  0  0  0  0  0  0  # atno 10763 bound_to 10752
  152.9788  135.5900  154.4214 H   0  0  0  0  0  0  0  0  0  0  0  0  # atno 10764 bound_to 10752
  154.4009  135.2843  155.2075 H   0  0  0  0  0  0  0  0  0  0  0  0  # atno 10765 bound_to 10752
  141.1620  133.6872  156.7182 H   0  0  0  0  0  0  0  0  0  0  0  0  # atno 11005 bound_to 11000
  146.1856  140.6427  142.9169 LP  0  0  0  0  0  0  0  0  0  0  0  0  # atno 17320 bound_to 7965
  144.7486  140.5133  143.6818 LP  0  0  0  0  0  0  0  0  0  0  0  0  # atno 17321 bound_to 7965
  140.7628  143.3207  151.2628 LP  0  0  0  0  0  0  0  0  0  0  0  0  # atno 17342 bound_to 10162
  139.6755  143.9946  152.2778 LP  0  0  0  0  0  0  0  0  0  0  0  0  # atno 17343 bound_to 10162
  156.3833  130.7590  151.2585 LP  0  0  0  0  0  0  0  0  0  0  0  0  # atno 17370 bound_to 10713
  157.7503  131.0289  150.4069 LP  0  0  0  0  0  0  0  0  0  0  0  0  # atno 17371 bound_to 10713
  140.2836  134.8297  157.3955 LP  0  0  0  0  0  0  0  0  0  0  0  0  # atno 17394 bound_to 11000
  140.1410  134.4971  155.8031 LP  0  0  0  0  0  0  0  0  0  0  0  0  # atno 17395 bound_to 11000

$$$$
