AV-unprocessed.smi:212|AV-procd|sdf|1620|dock8
  -GOLD-   2262019553D 1   1.00000     0.00000
 Structure written by MMmdl.
 65 68  0  0  0  0  0  0  0  0  2 V2000
  145.5131  141.7365  155.5805 C   0  0  0  0  0  0  0  0  0  0  0  0
  147.0428  141.9036  155.4989 C   0  0  1  0  0  0  0  0  0  0  0  0
  147.6925  142.0696  156.8880 C   0  0  0  0  0  0  0  0  0  0  0  0
  149.1568  142.2938  156.7658 N   0  3  1  0  0  0  0  0  0  0  0  0
  149.8187  142.5758  158.0676 C   0  0  0  0  0  0  0  0  0  0  0  0
  151.3127  142.9461  157.9117 C   0  0  0  0  0  0  0  0  0  0  0  0
  151.7746  143.7939  159.1086 C   0  0  0  0  0  0  0  0  0  0  0  0
  152.2105  141.7038  157.7615 C   0  0  0  0  0  0  0  0  0  0  0  0
  151.4747  143.7534  156.7622 O   0  0  0  0  0  0  0  0  0  0  0  0
  149.8283  141.2190  155.9913 C   0  0  0  0  0  0  0  0  0  0  0  0
  149.1609  141.0110  154.6162 C   0  0  0  0  0  0  0  0  0  0  0  0
  147.7130  140.8537  154.7245 N   0  0  0  0  0  0  0  0  0  0  0  0
  147.2886  139.5778  154.8842 C   0  0  0  0  0  0  0  0  0  0  0  0
  147.4653  138.9391  156.0696 N   0  0  0  0  0  0  0  0  0  0  0  0
  147.0361  137.6825  156.2203 C   0  0  0  0  0  0  0  0  0  0  0  0
  146.4159  136.9015  155.3335 N   0  0  0  0  0  0  0  0  0  0  0  0
  146.2319  137.5431  154.1443 C   0  0  0  0  0  0  0  0  0  0  0  0
  146.6418  138.8704  153.8376 C   0  0  0  0  0  0  0  0  0  0  0  0
  146.3014  139.1866  152.5300 N   0  0  0  0  0  0  0  0  0  0  0  0
  145.7220  138.1047  152.0863 C   0  0  0  0  0  0  0  0  0  0  0  0
  145.6194  137.0728  152.9945 N   0  0  0  0  0  0  0  0  0  0  0  0
  145.0146  135.7673  152.7625 C   0  0  0  0  0  0  0  0  0  0  0  0
  145.6061  134.9956  151.5526 C   0  0  2  0  0  0  0  0  0  0  0  0
  145.3518  135.7687  150.2362 C   0  0  0  0  0  0  0  0  0  0  0  0
  143.9731  135.9238  149.9719 O   0  0  0  0  0  0  0  0  0  0  0  0
  145.0990  133.5277  151.4964 C   0  0  2  0  0  0  0  0  0  0  0  0
  145.6229  132.6397  152.6141 C   0  0  0  0  0  0  0  0  0  0  0  0
  145.3419  131.2381  152.0820 C   0  0  0  0  0  0  0  0  0  0  0  0
  145.4069  131.3421  150.6640 O   0  0  0  0  0  0  0  0  0  0  0  0
  145.5559  132.7063  150.2870 C   0  0  0  0  0  0  0  0  0  0  0  0
  145.0547  142.6009  156.0612 H   0  0  0  0  0  0  0  0  0  0  0  0
  145.2290  140.8555  156.1570 H   0  0  0  0  0  0  0  0  0  0  0  0
  145.0734  141.6444  154.5868 H   0  0  0  0  0  0  0  0  0  0  0  0
  147.2203  142.8286  154.9483 H   0  0  0  0  0  0  0  0  0  0  0  0
  147.2353  142.9142  157.4034 H   0  0  0  0  0  0  0  0  0  0  0  0
  147.5068  141.1906  157.5066 H   0  0  0  0  0  0  0  0  0  0  0  0
  149.2809  143.3616  158.6011 H   0  0  0  0  0  0  0  0  0  0  0  0
  149.7525  141.6961  158.7103 H   0  0  0  0  0  0  0  0  0  0  0  0
  151.6887  143.2373  160.0423 H   0  0  0  0  0  0  0  0  0  0  0  0
  151.1763  144.7002  159.2111 H   0  0  0  0  0  0  0  0  0  0  0  0
  152.8167  144.0988  159.0045 H   0  0  0  0  0  0  0  0  0  0  0  0
  152.1112  141.0412  158.6222 H   0  0  0  0  0  0  0  0  0  0  0  0
  153.2623  141.9814  157.6815 H   0  0  0  0  0  0  0  0  0  0  0  0
  151.9600  141.1267  156.8709 H   0  0  0  0  0  0  0  0  0  0  0  0
  150.6221  144.0468  156.4773 H   0  0  0  0  0  0  0  0  0  0  0  0
  150.8781  141.4758  155.8446 H   0  0  0  0  0  0  0  0  0  0  0  0
  149.8111  140.2947  156.5694 H   0  0  0  0  0  0  0  0  0  0  0  0
  149.3576  141.8744  153.9796 H   0  0  0  0  0  0  0  0  0  0  0  0
  149.6001  140.1501  154.1094 H   0  0  0  0  0  0  0  0  0  0  0  0
  147.2129  137.2394  157.1892 H   0  0  0  0  0  0  0  0  0  0  0  0
  145.3445  138.0329  151.0768 H   0  0  0  0  0  0  0  0  0  0  0  0
  145.1446  135.1756  153.6696 H   0  0  0  0  0  0  0  0  0  0  0  0
  143.9380  135.8968  152.6524 H   0  0  0  0  0  0  0  0  0  0  0  0
  146.6859  134.9689  151.7091 H   0  0  0  0  0  0  0  0  0  0  0  0
  145.8328  136.7473  150.2551 H   0  0  0  0  0  0  0  0  0  0  0  0
  145.7697  135.2226  149.3902 H   0  0  0  0  0  0  0  0  0  0  0  0
  143.8084  136.8277  149.7505 H   0  0  0  0  0  0  0  0  0  0  0  0
  144.0084  133.5145  151.5149 H   0  0  0  0  0  0  0  0  0  0  0  0
  146.6980  132.7800  152.7363 H   0  0  0  0  0  0  0  0  0  0  0  0
  145.1519  132.8170  153.5796 H   0  0  0  0  0  0  0  0  0  0  0  0
  146.0507  130.5015  152.4608 H   0  0  0  0  0  0  0  0  0  0  0  0
  144.3375  130.9180  152.3609 H   0  0  0  0  0  0  0  0  0  0  0  0
  144.9805  132.9258  149.3874 H   0  0  0  0  0  0  0  0  0  0  0  0
  146.6098  132.8875  150.0711 H   0  0  0  0  0  0  0  0  0  0  0  0
  149.2657  143.1337  156.2158 H   0  0  0  0  0  0  0  0  0  0  0  0
  1  2  1  0  0  0  0
  1 31  1  0  0  0  0
  1 32  1  0  0  0  0
  1 33  1  0  0  0  0
  2 12  1  0  0  0  0
  2  3  1  0  0  0  0
  2 34  1  0  0  0  0
  3  4  1  0  0  0  0
  3 35  1  0  0  0  0
  3 36  1  0  0  0  0
  4  5  1  0  0  0  0
  4 10  1  0  0  0  0
  4 65  1  0  0  0  0
  5  6  1  0  0  0  0
  5 37  1  0  0  0  0
  5 38  1  0  0  0  0
  6  7  1  0  0  0  0
  6  8  1  0  0  0  0
  6  9  1  0  0  0  0
  7 39  1  0  0  0  0
  7 40  1  0  0  0  0
  7 41  1  0  0  0  0
  8 42  1  0  0  0  0
  8 43  1  0  0  0  0
  8 44  1  0  0  0  0
  9 45  1  0  0  0  0
 10 11  1  0  0  0  0
 10 46  1  0  0  0  0
 10 47  1  0  0  0  0
 11 12  1  0  0  0  0
 11 48  1  0  0  0  0
 11 49  1  0  0  0  0
 12 13  1  0  0  0  0
 13 18  1  0  0  0  0
 13 14  2  0  0  0  0
 14 15  1  0  0  0  0
 15 16  2  0  0  0  0
 15 50  1  0  0  0  0
 16 17  1  0  0  0  0
 17 21  1  0  0  0  0
 17 18  2  0  0  0  0
 18 19  1  0  0  0  0
 19 20  2  0  0  0  0
 20 21  1  0  0  0  0
 20 51  1  0  0  0  0
 21 22  1  0  0  0  0
 22 23  1  0  0  0  0
 22 52  1  0  0  0  0
 22 53  1  0  0  0  0
 23 24  1  0  0  0  0
 23 26  1  0  0  0  0
 23 54  1  0  0  0  0
 24 25  1  0  0  0  0
 24 55  1  0  0  0  0
 24 56  1  0  0  0  0
 25 57  1  0  0  0  0
 26 30  1  0  0  0  0
 26 27  1  0  0  0  0
 26 58  1  0  0  0  0
 27 28  1  0  0  0  0
 27 59  1  0  0  0  0
 27 60  1  0  0  0  0
 28 29  1  0  0  0  0
 28 61  1  0  0  0  0
 28 62  1  0  0  0  0
 29 30  1  0  0  0  0
 30 63  1  0  0  0  0
 30 64  1  0  0  0  0
M  CHG  1   4   1
M  END
> <s_m_source_file>
AV-unprocessed.smi

> <i_m_source_file_index>
212

> <i_lp_mmshare_version>
43012

> <i_f3d_flags>
0

> <s_epik_input>
W0NIM11bQ0BASF0xW0NIMl1OKFtDSDJdQyhbQ0gzXSkoW0NIM10pW09IXSlbQ0gyXVtDSDJdTjFjKG5bY0hdbjIpYyhjMjMpbltjSF1uM1tDSDJdW0NASF0oW0NIMl1bT0hdKVtDQEBIXTRbQ0gyXVtDSDJdT1tDSDJdNA==

> <s_epik_cmdline>
J2VwaWtfcHl0aG9uJywgJy1waCcsICc3LjAnLCAnLXRuJywgJzgnLCAnLW1hJywgJzIwMCcsICctbWV0YWxfYmluZGluZycsICctaW1hZScsICc8aW5maWxlLm1hZT4nLCAnLW9tYWUnLCAnPG91dGZpbGUubWFlPic=

> <r_lp_tautomer_probability>
1

> <r_epik_Ionization_Penalty>
0.00182193

> <r_epik_Ionization_Penalty_Charging>
0.00173996

> <r_epik_Ionization_Penalty_Neutral>
8.19718e-05

> <r_epik_State_Penalty>
-0

> <r_epik_Charging_Adjusted_Penalty>
0.00173996

> <i_epik_Tot_Q>
1

> <i_epik_Tot_abs_Q>
1

> <r_epik_Metal_State_Penalty>
-0

> <b_epik_Metal_Only>
0

> <s_lp_Force_Field>
OPLS_2005

> <r_lp_Energy>
59.7923

> <b_lp_Chiralities_Consistent>
1

> <s_lp_Variant>
AV-unprocessed.smi:212-4

> <Gold.Version>
5.8.1

> <Gold.Id.Protein>
6NUR|6NUR_protein|mol2

> <Gold.PLP.Fitness>
50.4935

> <Gold.PLP.PLP>
-35.7954

> <Gold.PLP.part.hbond>
-4.0000

> <Gold.PLP.part.metal>
0.0000

> <Gold.PLP.part.buried>
-4.4353

> <Gold.PLP.part.nonpolar>
-28.9105

> <Gold.PLP.part.repulsive>
0.5529

> <Gold.PLP.ligand.clash>
0.0000

> <Gold.PLP.ligand.torsion>
0.6987

> <Gold.PLP.Chemscore.Hbond>
4.0000

> <Gold.PLP.Chemscore.CHOScore>
1.0000

> <Gold.PLP.Chemscore.Metal>
0.0000

> <Gold.Chemscore.Hbonds>
donor molecule, donor type, donor heavy atom, donor atom, acceptor molecule, acceptor atom, score
      L1  H     4    65       P1  8028  2.00
      L1  H     9    45       P1  8028  1.00
      L1  H    25    57       P1 10171  1.00
      L1  C    20    51       P1 10171  0.96

> <Gold.PLP.Chemscore.Internal.Correction>
1.0955

> <Gold.Rescore>
     Score         DG    S(hbond)    S(metal)    S(lipo)     H(rot)  DE(clash)    DE(int)     intcor
     13.60     -16.99       2.94        0.00      94.90       3.68       0.47       2.92       ----

> <Gold.Chemscore.Fitness>
13.6035

> <Gold.Chemscore.DG>
-16.9896

> <Gold.Chemscore.ZeroCoef>
-5.4800

> <Gold.Chemscore.Hbond>
2.9432

> <Gold.Chemscore.Metal>
0.0000

> <Gold.Chemscore.Lipo>
94.8996

> <Gold.Chemscore.Internal_Hbond>
0.0000

> <Gold.Chemscore.DEClash>
0.4702

> <Gold.Chemscore.DEInternal>
2.9159

> <Gold.Chemscore.Rot>
3.6812

> <Gold.Chemscore.Internal.Correction>
   9.000000E+99

> <Gold.Chemscore.Hbonds>
donor molecule, donor type, donor heavy atom, donor atom, acceptor molecule, acceptor atom, score
      L1  H     4    65       P1  8028  0.99
      L1  H     9    45       P1  8028  0.95
      L1  H    25    57       P1 10171  0.98

> <Gold.Chemscore.Hbond.Weighted>
-9.8303

> <Gold.Chemscore.Metal.Weighted>
-0.0000

> <Gold.Chemscore.Lipo.Weighted>
-11.1033

> <Gold.Chemscore.Internal_Hbond.Weighted>
0.0000

> <Gold.Chemscore.DEClash.Weighted>
0.4702

> <Gold.Chemscore.DEInternal.Weighted>
2.9159

> <Gold.Chemscore.Rot.Weighted>
9.4239

> <Gold.Chemscore.Internal.Correction.Weighted>
   9.000000E+99

> <Gold.Protein.RotatedTorsions>
[ 6907 6896 6895 6894 ] final -109.47 input  -60.11 | X-H torsion
[ 7974 7965 7964 7962 ] final -118.45 input  175.53 | X-H torsion
[ 8008 7997 7996 7995 ] final  151.87 input   59.86 | X-H torsion
[ 10167 10162 10161 10158 ] final  -72.87 input  -65.29 | X-H torsion
[ 10718 10713 10712 10709 ] final  -88.31 input   66.30 | X-H torsion
[ 10763 10752 10751 10750 ] final -171.41 input  -60.55 | X-H torsion
[ 11005 11000 10999 10996 ] final  124.44 input  -57.11 | X-H torsion

> <Gold.Protein.ActiveResidues>
 VAL166  LYS551  ARG553  GLY616  TRP617  ASP618  TYR619  PRO620  LYS621  CYS622 
 ASP623  PHE694  ASN695  SER759  ASP760  ASP761  ALA762  ILE779  LEU786  VAL792 
 PHE793  MET794  SER795  GLU796  ALA797  LYS798  CYS799  TRP800  GLU811  SER814 

> <Gold.Protein.RotatedAtoms>
  150.7564  133.9524  159.3489 H   0  0  0  0  0  0  0  0  0  0  0  0  # atno 6907 bound_to 6896
  151.7443  135.0845  160.0330 H   0  0  0  0  0  0  0  0  0  0  0  0  # atno 6908 bound_to 6896
  152.3508  133.6140  159.5979 H   0  0  0  0  0  0  0  0  0  0  0  0  # atno 6909 bound_to 6896
  145.0737  140.8377  143.4080 H   0  0  0  0  0  0  0  0  0  0  0  0  # atno 7974 bound_to 7965
  156.2654  140.2036  156.6244 H   0  0  0  0  0  0  0  0  0  0  0  0  # atno 8008 bound_to 7997
  154.6732  140.0548  157.0211 H   0  0  0  0  0  0  0  0  0  0  0  0  # atno 8009 bound_to 7997
  155.1107  140.3215  155.4525 H   0  0  0  0  0  0  0  0  0  0  0  0  # atno 8010 bound_to 7997
  140.5157  143.2338  151.7517 H   0  0  0  0  0  0  0  0  0  0  0  0  # atno 10167 bound_to 10162
  155.9984  130.4831  150.4999 H   0  0  0  0  0  0  0  0  0  0  0  0  # atno 10718 bound_to 10713
  154.6308  135.2886  155.0219 H   0  0  0  0  0  0  0  0  0  0  0  0  # atno 10763 bound_to 10752
  154.1380  135.6523  153.4940 H   0  0  0  0  0  0  0  0  0  0  0  0  # atno 10764 bound_to 10752
  153.0279  135.5326  154.7134 H   0  0  0  0  0  0  0  0  0  0  0  0  # atno 10765 bound_to 10752
  139.9359  134.9639  156.8410 H   0  0  0  0  0  0  0  0  0  0  0  0  # atno 11005 bound_to 11000
  145.1261  139.2662  143.5563 LP  0  0  0  0  0  0  0  0  0  0  0  0  # atno 17320 bound_to 7965
  146.3529  140.0899  142.8613 LP  0  0  0  0  0  0  0  0  0  0  0  0  # atno 17321 bound_to 7965
  139.4908  144.4327  151.9854 LP  0  0  0  0  0  0  0  0  0  0  0  0  # atno 17342 bound_to 10162
  140.3421  144.3190  150.5965 LP  0  0  0  0  0  0  0  0  0  0  0  0  # atno 17343 bound_to 10162
  157.2985  131.0640  151.2085 LP  0  0  0  0  0  0  0  0  0  0  0  0  # atno 17370 bound_to 10713
  157.3073  130.6872  149.6196 LP  0  0  0  0  0  0  0  0  0  0  0  0  # atno 17371 bound_to 10713
  140.6078  134.0111  155.7564 LP  0  0  0  0  0  0  0  0  0  0  0  0  # atno 17394 bound_to 11000
  141.0972  133.9825  157.3140 LP  0  0  0  0  0  0  0  0  0  0  0  0  # atno 17395 bound_to 11000

$$$$
