AV-unprocessed.smi:1794|AV-procd|sdf|7233|dock10
  -GOLD-   22720 8473D 1   1.00000     0.00000
 Structure written by MMmdl.
 55 57  0  0  0  0  0  0  0  0  2 V2000
  146.9317  131.3454  155.1816 C   0  0  0  0  0  0  0  0  0  0  0  0
  147.1882  132.7443  154.5658 C   0  0  0  0  0  0  0  0  0  0  0  0
  146.6563  133.7697  155.5983 C   0  0  0  0  0  0  0  0  0  0  0  0
  148.7140  132.9712  154.3405 C   0  0  0  0  0  0  0  0  0  0  0  0
  149.0542  134.3621  154.0413 N   0  0  0  0  0  0  0  0  0  0  0  0
  149.8038  135.1661  154.8091 C   0  0  0  0  0  0  0  0  0  0  0  0
  150.3201  134.8005  155.8639 O   0  0  0  0  0  0  0  0  0  0  0  0
  149.8907  136.3946  154.2705 N   0  0  0  0  0  0  0  0  0  0  0  0
  150.5225  137.5790  154.7569 C   0  0  0  0  0  0  0  0  0  0  0  0
  151.6988  137.5646  155.5497 C   0  0  0  0  0  0  0  0  0  0  0  0
  152.2281  138.7769  156.0247 C   0  0  0  0  0  0  0  0  0  0  0  0
  151.5621  139.9687  155.6975 C   0  0  0  0  0  0  0  0  0  0  0  0
  150.4469  140.0030  154.9428 N   0  0  0  0  0  0  0  0  0  0  0  0
  149.9319  138.8434  154.4659 C   0  0  0  0  0  0  0  0  0  0  0  0
  148.7741  138.9426  153.6610 N   0  0  0  0  0  0  0  0  0  0  0  0
  147.5459  138.2523  154.0432 C   0  0  0  0  0  0  0  0  0  0  0  0
  146.4420  138.9291  153.2355 C   0  0  0  0  0  0  0  0  0  0  0  0
  146.9124  140.3794  153.1955 C   0  0  0  0  0  0  0  0  0  0  0  0
  148.4387  140.2618  153.1327 C   0  0  0  0  0  0  0  0  0  0  0  0
  146.4169  132.8716  153.2766 N   0  3  0  0  0  0  0  0  0  0  0  0
  146.3582  134.2383  152.6846 C   0  0  0  0  0  0  0  0  0  0  0  0
  145.3907  134.2683  151.4895 C   0  0  0  0  0  0  0  0  0  0  0  0
  145.8007  133.3180  150.5169 O   0  0  0  0  0  0  0  0  0  0  0  0
  145.7792  131.9955  151.0346 C   0  0  0  0  0  0  0  0  0  0  0  0
  146.7601  131.8842  152.2138 C   0  0  0  0  0  0  0  0  0  0  0  0
  147.2862  131.2839  156.2109 H   0  0  0  0  0  0  0  0  0  0  0  0
  147.4452  130.5529  154.6377 H   0  0  0  0  0  0  0  0  0  0  0  0
  145.8675  131.1070  155.1993 H   0  0  0  0  0  0  0  0  0  0  0  0
  147.0500  133.5778  156.5971 H   0  0  0  0  0  0  0  0  0  0  0  0
  145.5688  133.7322  155.6722 H   0  0  0  0  0  0  0  0  0  0  0  0
  146.9425  134.7924  155.3538 H   0  0  0  0  0  0  0  0  0  0  0  0
  149.2931  132.6284  155.1985 H   0  0  0  0  0  0  0  0  0  0  0  0
  149.0646  132.3834  153.4930 H   0  0  0  0  0  0  0  0  0  0  0  0
  148.6730  134.7468  153.1892 H   0  0  0  0  0  0  0  0  0  0  0  0
  149.4100  136.5142  153.3909 H   0  0  0  0  0  0  0  0  0  0  0  0
  152.2124  136.6569  155.8182 H   0  0  0  0  0  0  0  0  0  0  0  0
  153.1208  138.7905  156.6324 H   0  0  0  0  0  0  0  0  0  0  0  0
  151.9343  140.9195  156.0493 H   0  0  0  0  0  0  0  0  0  0  0  0
  147.6089  137.1854  153.8277 H   0  0  0  0  0  0  0  0  0  0  0  0
  147.3397  138.3753  155.1070 H   0  0  0  0  0  0  0  0  0  0  0  0
  146.4111  138.5185  152.2254 H   0  0  0  0  0  0  0  0  0  0  0  0
  145.4545  138.8112  153.6825 H   0  0  0  0  0  0  0  0  0  0  0  0
  146.4954  140.9410  152.3593 H   0  0  0  0  0  0  0  0  0  0  0  0
  146.6213  140.8832  154.1180 H   0  0  0  0  0  0  0  0  0  0  0  0
  148.9234  141.0654  153.6890 H   0  0  0  0  0  0  0  0  0  0  0  0
  148.7730  140.3192  152.0966 H   0  0  0  0  0  0  0  0  0  0  0  0
  146.0133  134.9747  153.4075 H   0  0  0  0  0  0  0  0  0  0  0  0
  147.3487  134.5502  152.3533 H   0  0  0  0  0  0  0  0  0  0  0  0
  144.3680  134.0629  151.8106 H   0  0  0  0  0  0  0  0  0  0  0  0
  145.3876  135.2588  151.0341 H   0  0  0  0  0  0  0  0  0  0  0  0
  144.7671  131.7264  151.3417 H   0  0  0  0  0  0  0  0  0  0  0  0
  146.0652  131.3030  150.2427 H   0  0  0  0  0  0  0  0  0  0  0  0
  147.7748  132.0527  151.8529 H   0  0  0  0  0  0  0  0  0  0  0  0
  146.7162  130.8622  152.5847 H   0  0  0  0  0  0  0  0  0  0  0  0
  145.4636  132.6575  153.5329 H   0  0  0  0  0  0  0  0  0  0  0  0
  1  2  1  0  0  0  0
  1 26  1  0  0  0  0
  1 27  1  0  0  0  0
  1 28  1  0  0  0  0
  2  3  1  0  0  0  0
  2  4  1  0  0  0  0
  2 20  1  0  0  0  0
  3 29  1  0  0  0  0
  3 30  1  0  0  0  0
  3 31  1  0  0  0  0
  4  5  1  0  0  0  0
  4 32  1  0  0  0  0
  4 33  1  0  0  0  0
  5  6  1  0  0  0  0
  5 34  1  0  0  0  0
  6  7  2  0  0  0  0
  6  8  1  0  0  0  0
  8  9  1  0  0  0  0
  8 35  1  0  0  0  0
  9 14  1  0  0  0  0
  9 10  2  0  0  0  0
 10 11  1  0  0  0  0
 10 36  1  0  0  0  0
 11 12  2  0  0  0  0
 11 37  1  0  0  0  0
 12 13  1  0  0  0  0
 12 38  1  0  0  0  0
 13 14  2  0  0  0  0
 14 15  1  0  0  0  0
 15 19  1  0  0  0  0
 15 16  1  0  0  0  0
 16 17  1  0  0  0  0
 16 39  1  0  0  0  0
 16 40  1  0  0  0  0
 17 18  1  0  0  0  0
 17 41  1  0  0  0  0
 17 42  1  0  0  0  0
 18 19  1  0  0  0  0
 18 43  1  0  0  0  0
 18 44  1  0  0  0  0
 19 45  1  0  0  0  0
 19 46  1  0  0  0  0
 20 25  1  0  0  0  0
 20 21  1  0  0  0  0
 20 55  1  0  0  0  0
 21 22  1  0  0  0  0
 21 47  1  0  0  0  0
 21 48  1  0  0  0  0
 22 23  1  0  0  0  0
 22 49  1  0  0  0  0
 22 50  1  0  0  0  0
 23 24  1  0  0  0  0
 24 25  1  0  0  0  0
 24 51  1  0  0  0  0
 24 52  1  0  0  0  0
 25 53  1  0  0  0  0
 25 54  1  0  0  0  0
M  CHG  1  20   1
M  END
> <s_m_source_file>
AV-unprocessed.smi

> <i_m_source_file_index>
1794

> <i_lp_mmshare_version>
43012

> <i_f3d_flags>
0

> <s_epik_input>
W0NIMl0xW0NIMl1PW0NIMl1bQ0gyXU4xQyhbQ0gzXSkoW0NIM10pW0NIMl1bTkhdQyg9TylbTkhdYzJbY0hdW2NIXVtjSF1uYzJOM1tDSDJdW0NIMl1bQ0gyXVtDSDJdMw==

> <s_epik_cmdline>
J2VwaWtfcHl0aG9uJywgJy1waCcsICc3LjAnLCAnLXRuJywgJzgnLCAnLW1hJywgJzIwMCcsICctbWV0YWxfYmluZGluZycsICctaW1hZScsICc8aW5maWxlLm1hZT4nLCAnLW9tYWUnLCAnPG91dGZpbGUubWFlPic=

> <r_lp_tautomer_probability>
1

> <r_epik_Ionization_Penalty>
0.687101

> <r_epik_Ionization_Penalty_Charging>
0.602531

> <r_epik_Ionization_Penalty_Neutral>
0.0845706

> <r_epik_State_Penalty>
0.681137

> <r_epik_Charging_Adjusted_Penalty>
1.28367

> <i_epik_Tot_Q>
1

> <i_epik_Tot_abs_Q>
1

> <r_epik_Metal_State_Penalty>
0.680055

> <b_epik_Metal_Only>
0

> <s_lp_Force_Field>
OPLS_2005

> <r_lp_Energy>
53.5269

> <b_lp_Chiralities_Consistent>
1

> <s_lp_Variant>
AV-unprocessed.smi:1794-2

> <Gold.Version>
5.8.1

> <Gold.Id.Protein>
6NUR|6NUR_protein|mol2

> <Gold.PLP.Fitness>
39.1049

> <Gold.PLP.PLP>
-30.8603

> <Gold.PLP.part.hbond>
-3.7247

> <Gold.PLP.part.metal>
0.0000

> <Gold.PLP.part.buried>
1.2618

> <Gold.PLP.part.nonpolar>
-30.3258

> <Gold.PLP.part.repulsive>
1.9059

> <Gold.PLP.ligand.clash>
0.0000

> <Gold.PLP.ligand.torsion>
0.5825

> <Gold.PLP.Chemscore.Hbond>
3.0000

> <Gold.PLP.Chemscore.CHOScore>
0.0000

> <Gold.PLP.Chemscore.Metal>
0.0000

> <Gold.Chemscore.Hbonds>
donor molecule, donor type, donor heavy atom, donor atom, acceptor molecule, acceptor atom, score
      L1  H     5    34       P1  7948  0.83
      L1  H     8    35       P1  7948  1.00
      P1  H  7989  7998       L1    13  0.28

> <Gold.PLP.Chemscore.Internal.Correction>
0.4097

> <Gold.Rescore>
     Score         DG    S(hbond)    S(metal)    S(lipo)     H(rot)  DE(clash)    DE(int)     intcor
     13.16     -15.19       1.42        0.00      77.56       1.60       0.19       1.84       ----

> <Gold.Chemscore.Fitness>
13.1587

> <Gold.Chemscore.DG>
-15.1904

> <Gold.Chemscore.ZeroCoef>
-5.4800

> <Gold.Chemscore.Hbond>
1.4200

> <Gold.Chemscore.Metal>
0.0000

> <Gold.Chemscore.Lipo>
77.5637

> <Gold.Chemscore.Internal_Hbond>
0.0000

> <Gold.Chemscore.DEClash>
0.1927

> <Gold.Chemscore.DEInternal>
1.8390

> <Gold.Chemscore.Rot>
1.6044

> <Gold.Chemscore.Internal.Correction>
   9.000000E+99

> <Gold.Chemscore.Hbonds>
donor molecule, donor type, donor heavy atom, donor atom, acceptor molecule, acceptor atom, score
      L1  H     5    34       P1  7948  0.28
      L1  H     8    35       P1  7948  0.76

> <Gold.Chemscore.Hbond.Weighted>
-4.7427

> <Gold.Chemscore.Metal.Weighted>
-0.0000

> <Gold.Chemscore.Lipo.Weighted>
-9.0749

> <Gold.Chemscore.Internal_Hbond.Weighted>
0.0000

> <Gold.Chemscore.DEClash.Weighted>
0.1927

> <Gold.Chemscore.DEInternal.Weighted>
1.8390

> <Gold.Chemscore.Rot.Weighted>
4.1072

> <Gold.Chemscore.Internal.Correction.Weighted>
   9.000000E+99

> <Gold.Protein.RotatedTorsions>
[ 6907 6896 6895 6894 ] final   95.24 input  -60.11 | X-H torsion
[ 7974 7965 7964 7962 ] final  107.38 input  175.53 | X-H torsion
[ 8008 7997 7996 7995 ] final  112.22 input   59.86 | X-H torsion
[ 10167 10162 10161 10158 ] final   55.80 input  -65.29 | X-H torsion
[ 10718 10713 10712 10709 ] final -103.56 input   66.30 | X-H torsion
[ 10763 10752 10751 10750 ] final  123.13 input  -60.55 | X-H torsion
[ 11005 11000 10999 10996 ] final  -83.07 input  -57.11 | X-H torsion

> <Gold.Protein.ActiveResidues>
 VAL166  LYS551  ARG553  GLY616  TRP617  ASP618  TYR619  PRO620  LYS621  CYS622 
 ASP623  PHE694  ASN695  SER759  ASP760  ASP761  ALA762  ILE779  LEU786  VAL792 
 PHE793  MET794  SER795  GLU796  ALA797  LYS798  CYS799  TRP800  GLU811  SER814 

> <Gold.Protein.RotatedAtoms>
  152.5445  134.1070  159.8341 H   0  0  0  0  0  0  0  0  0  0  0  0  # atno 6907 bound_to 6896
  151.1141  133.5144  159.2612 H   0  0  0  0  0  0  0  0  0  0  0  0  # atno 6908 bound_to 6896
  151.1852  135.0388  159.8863 H   0  0  0  0  0  0  0  0  0  0  0  0  # atno 6909 bound_to 6896
  145.2944  139.2589  143.3847 H   0  0  0  0  0  0  0  0  0  0  0  0  # atno 7974 bound_to 7965
  156.2177  140.3004  155.9878 H   0  0  0  0  0  0  0  0  0  0  0  0  # atno 8008 bound_to 7997
  155.2562  140.0428  157.3009 H   0  0  0  0  0  0  0  0  0  0  0  0  # atno 8009 bound_to 7997
  154.5793  140.2370  155.8085 H   0  0  0  0  0  0  0  0  0  0  0  0  # atno 8010 bound_to 7997
  140.2156  144.3843  150.6471 H   0  0  0  0  0  0  0  0  0  0  0  0  # atno 10167 bound_to 10162
  156.0270  130.5473  150.7270 H   0  0  0  0  0  0  0  0  0  0  0  0  # atno 10718 bound_to 10713
  153.6407  135.3380  155.3070 H   0  0  0  0  0  0  0  0  0  0  0  0  # atno 10763 bound_to 10752
  154.8560  135.4317  154.2008 H   0  0  0  0  0  0  0  0  0  0  0  0  # atno 10764 bound_to 10752
  153.2926  135.7018  153.7352 H   0  0  0  0  0  0  0  0  0  0  0  0  # atno 10765 bound_to 10752
  141.1660  133.7276  156.8665 H   0  0  0  0  0  0  0  0  0  0  0  0  # atno 11005 bound_to 11000
  146.3174  140.3443  142.8650 LP  0  0  0  0  0  0  0  0  0  0  0  0  # atno 17320 bound_to 7965
  144.9145  140.7797  143.5786 LP  0  0  0  0  0  0  0  0  0  0  0  0  # atno 17321 bound_to 7965
  140.6292  143.2185  151.6531 LP  0  0  0  0  0  0  0  0  0  0  0  0  # atno 17342 bound_to 10162
  139.5163  144.3350  152.0792 LP  0  0  0  0  0  0  0  0  0  0  0  0  # atno 17343 bound_to 10162
  157.4872  131.0907  151.0468 LP  0  0  0  0  0  0  0  0  0  0  0  0  # atno 17370 bound_to 10713
  157.0885  130.5932  149.5435 LP  0  0  0  0  0  0  0  0  0  0  0  0  # atno 17371 bound_to 10713
  140.1811  134.9032  157.2950 LP  0  0  0  0  0  0  0  0  0  0  0  0  # atno 17394 bound_to 11000
  140.2394  134.3814  155.7487 LP  0  0  0  0  0  0  0  0  0  0  0  0  # atno 17395 bound_to 11000

$$$$
