AV-unprocessed.smi:1712|AV-procd|sdf|6901|dock6
  -GOLD-   22720 8103D 1   1.00000     0.00000
 Structure written by MMmdl.
 37 38  0  0  0  0  0  0  0  0  1 V2000
  148.2070  141.5366  154.2505 C   0  0  0  0  0  0  0  0  0  0  0  0
  148.7269  140.1099  153.9627 C   0  0  2  0  0  0  0  0  0  0  0  0
  147.7044  139.0918  154.5317 C   0  0  0  0  0  0  0  0  0  0  0  0
  147.4091  138.0164  153.5867 N   0  0  0  0  0  0  0  0  0  0  0  0
  146.1891  137.5415  153.2992 C   0  0  0  0  0  0  0  0  0  0  0  0
  145.1505  137.9787  153.7954 O   0  0  0  0  0  0  0  0  0  0  0  0
  146.2559  136.5326  152.4154 N   0  0  0  0  0  0  0  0  0  0  0  0
  145.1761  135.7957  151.8667 C   0  0  0  0  0  0  0  0  0  0  0  0
  144.0993  135.2558  152.6210 C   0  0  0  0  0  0  0  0  0  0  0  0
  143.2396  134.6116  151.8446 N   0  0  0  0  0  0  0  0  0  0  0  0
  143.7581  134.7346  150.6017 N   0  0  0  0  0  0  0  0  0  0  0  0
  144.9362  135.4478  150.5669 C   0  0  0  0  0  0  0  0  0  0  0  0
  150.1171  139.8865  154.4171 N   0  0  0  0  0  0  0  0  0  0  0  0
  150.3314  140.3053  155.8056 C   0  0  0  0  0  0  0  0  0  0  0  0
  151.7738  140.0592  156.2805 C   0  0  0  0  0  0  0  0  0  0  0  0
  152.1001  138.6842  156.1271 O   0  0  0  0  0  0  0  0  0  0  0  0
  151.9701  138.2486  154.7802 C   0  0  0  0  0  0  0  0  0  0  0  0
  150.5292  138.4850  154.2955 C   0  0  0  0  0  0  0  0  0  0  0  0
  143.3020  134.3302  149.7961 H   0  0  0  0  0  0  0  0  0  0  0  0
  147.1466  141.6259  154.0131 H   0  0  0  0  0  0  0  0  0  0  0  0
  148.7166  142.2878  153.6480 H   0  0  0  0  0  0  0  0  0  0  0  0
  148.3327  141.8053  155.2999 H   0  0  0  0  0  0  0  0  0  0  0  0
  148.7056  139.9888  152.8786 H   0  0  0  0  0  0  0  0  0  0  0  0
  148.0693  138.6890  155.4780 H   0  0  0  0  0  0  0  0  0  0  0  0
  146.7680  139.5830  154.7936 H   0  0  0  0  0  0  0  0  0  0  0  0
  148.2027  137.5863  153.1346 H   0  0  0  0  0  0  0  0  0  0  0  0
  147.1766  136.2619  152.1022 H   0  0  0  0  0  0  0  0  0  0  0  0
  143.9171  135.3086  153.6844 H   0  0  0  0  0  0  0  0  0  0  0  0
  145.4744  135.6317  149.6491 H   0  0  0  0  0  0  0  0  0  0  0  0
  150.1270  141.3684  155.9216 H   0  0  0  0  0  0  0  0  0  0  0  0
  149.6390  139.7767  156.4625 H   0  0  0  0  0  0  0  0  0  0  0  0
  152.4766  140.6735  155.7152 H   0  0  0  0  0  0  0  0  0  0  0  0
  151.8798  140.3349  157.3298 H   0  0  0  0  0  0  0  0  0  0  0  0
  152.6828  138.7802  154.1474 H   0  0  0  0  0  0  0  0  0  0  0  0
  152.2195  137.1889  154.7232 H   0  0  0  0  0  0  0  0  0  0  0  0
  149.8478  137.8489  154.8627 H   0  0  0  0  0  0  0  0  0  0  0  0
  150.4757  138.1588  153.2580 H   0  0  0  0  0  0  0  0  0  0  0  0
  1  2  1  0  0  0  0
  1 20  1  0  0  0  0
  1 21  1  0  0  0  0
  1 22  1  0  0  0  0
  2  3  1  0  0  0  0
  2 13  1  0  0  0  0
  2 23  1  0  0  0  0
  3  4  1  0  0  0  0
  3 24  1  0  0  0  0
  3 25  1  0  0  0  0
  4  5  1  0  0  0  0
  4 26  1  0  0  0  0
  5  6  2  0  0  0  0
  5  7  1  0  0  0  0
  7  8  1  0  0  0  0
  7 27  1  0  0  0  0
  8 12  2  0  0  0  0
  8  9  1  0  0  0  0
  9 10  2  0  0  0  0
  9 28  1  0  0  0  0
 10 11  1  0  0  0  0
 11 19  1  0  0  0  0
 11 12  1  0  0  0  0
 12 29  1  0  0  0  0
 13 18  1  0  0  0  0
 13 14  1  0  0  0  0
 14 15  1  0  0  0  0
 14 30  1  0  0  0  0
 14 31  1  0  0  0  0
 15 16  1  0  0  0  0
 15 32  1  0  0  0  0
 15 33  1  0  0  0  0
 16 17  1  0  0  0  0
 17 18  1  0  0  0  0
 17 34  1  0  0  0  0
 17 35  1  0  0  0  0
 18 36  1  0  0  0  0
 18 37  1  0  0  0  0
M  END
> <s_m_source_file>
AV-unprocessed.smi

> <i_m_source_file_index>
1712

> <i_lp_mmshare_version>
43012

> <i_f3d_flags>
0

> <s_epik_input>
W0NIMl0xW0NIMl1PW0NIMl1bQ0gyXU4xW0NASF0oW0NIM10pW0NIMl1bTkhdQyg9TylbTkhdYzJbY0hdbltuSF1bY0hdMg==

> <s_epik_cmdline>
J2VwaWtfcHl0aG9uJywgJy1waCcsICc3LjAnLCAnLXRuJywgJzgnLCAnLW1hJywgJzIwMCcsICctbWV0YWxfYmluZGluZycsICctaW1hZScsICc8aW5maWxlLm1hZT4nLCAnLW9tYWUnLCAnPG91dGZpbGUubWFlPic=

> <r_lp_tautomer_probability>
0.5

> <r_epik_Ionization_Penalty>
0.242772

> <r_epik_Ionization_Penalty_Charging>
0

> <r_epik_Ionization_Penalty_Neutral>
0.242772

> <r_epik_State_Penalty>
0.233765

> <r_epik_Charging_Adjusted_Penalty>
0.233765

> <i_epik_Tot_Q>
0

> <i_epik_Tot_abs_Q>
0

> <r_epik_Metal_State_Penalty>
0.233764

> <b_epik_Metal_Only>
0

> <s_lp_Force_Field>
OPLS_2005

> <r_lp_Energy>
36.7302

> <b_lp_Chiralities_Consistent>
1

> <s_lp_Variant>
AV-unprocessed.smi:1712-1

> <Gold.Version>
5.8.1

> <Gold.Id.Protein>
6NUR|6NUR_protein|mol2

> <Gold.PLP.Fitness>
39.1179

> <Gold.PLP.PLP>
-28.9868

> <Gold.PLP.part.hbond>
-4.0000

> <Gold.PLP.part.metal>
0.0000

> <Gold.PLP.part.buried>
-4.9594

> <Gold.PLP.part.nonpolar>
-22.3337

> <Gold.PLP.part.repulsive>
0.5286

> <Gold.PLP.ligand.clash>
0.0000

> <Gold.PLP.ligand.torsion>
1.2185

> <Gold.PLP.Chemscore.Hbond>
3.1771

> <Gold.PLP.Chemscore.CHOScore>
1.0000

> <Gold.PLP.Chemscore.Metal>
0.0000

> <Gold.Chemscore.Hbonds>
donor molecule, donor type, donor heavy atom, donor atom, acceptor molecule, acceptor atom, score
      L1  H     4    26       P1  7948  1.00
      L1  H     7    27       P1  7948  1.00
      L1  H    11    19       P1 10186  0.13
      P1  H  7989  7998       L1    13  1.00
      L1  C    12    29       P1  7921  1.00

> <Gold.PLP.Chemscore.Internal.Correction>
0.0370

> <Gold.Rescore>
     Score         DG    S(hbond)    S(metal)    S(lipo)     H(rot)  DE(clash)    DE(int)     intcor
     15.24     -17.10       2.51        0.00      63.29       1.63       0.67       1.20       ----

> <Gold.Chemscore.Fitness>
15.2392

> <Gold.Chemscore.DG>
-17.1017

> <Gold.Chemscore.ZeroCoef>
-5.4800

> <Gold.Chemscore.Hbond>
2.5129

> <Gold.Chemscore.Metal>
0.0000

> <Gold.Chemscore.Lipo>
63.2850

> <Gold.Chemscore.Internal_Hbond>
0.0000

> <Gold.Chemscore.DEClash>
0.6665

> <Gold.Chemscore.DEInternal>
1.1960

> <Gold.Chemscore.Rot>
1.6311

> <Gold.Chemscore.Internal.Correction>
   9.000000E+99

> <Gold.Chemscore.Hbonds>
donor molecule, donor type, donor heavy atom, donor atom, acceptor molecule, acceptor atom, score
      L1  H     4    26       P1  7948  0.92
      L1  H     7    27       P1  7948  1.00
      L1  H    11    19       P1 10186  0.13
      P1  H  7989  7998       L1    13  0.11

> <Gold.Chemscore.Hbond.Weighted>
-8.3931

> <Gold.Chemscore.Metal.Weighted>
-0.0000

> <Gold.Chemscore.Lipo.Weighted>
-7.4043

> <Gold.Chemscore.Internal_Hbond.Weighted>
0.0000

> <Gold.Chemscore.DEClash.Weighted>
0.6665

> <Gold.Chemscore.DEInternal.Weighted>
1.1960

> <Gold.Chemscore.Rot.Weighted>
4.1757

> <Gold.Chemscore.Internal.Correction.Weighted>
   9.000000E+99

> <Gold.Protein.RotatedTorsions>
[ 6907 6896 6895 6894 ] final   33.86 input  -60.11 | X-H torsion
[ 7974 7965 7964 7962 ] final  -33.97 input  175.53 | X-H torsion
[ 8008 7997 7996 7995 ] final  -73.59 input   59.86 | X-H torsion
[ 10167 10162 10161 10158 ] final -171.48 input  -65.29 | X-H torsion
[ 10718 10713 10712 10709 ] final -123.24 input   66.30 | X-H torsion
[ 10763 10752 10751 10750 ] final -104.77 input  -60.55 | X-H torsion
[ 11005 11000 10999 10996 ] final  -89.96 input  -57.11 | X-H torsion

> <Gold.Protein.ActiveResidues>
 VAL166  LYS551  ARG553  GLY616  TRP617  ASP618  TYR619  PRO620  LYS621  CYS622 
 ASP623  PHE694  ASN695  SER759  ASP760  ASP761  ALA762  ILE779  LEU786  VAL792 
 PHE793  MET794  SER795  GLU796  ALA797  LYS798  CYS799  TRP800  GLU811  SER814 

> <Gold.Protein.RotatedAtoms>
  152.0944  134.9385  160.0570 H   0  0  0  0  0  0  0  0  0  0  0  0  # atno 6907 bound_to 6896
  152.0624  133.4063  159.4431 H   0  0  0  0  0  0  0  0  0  0  0  0  # atno 6908 bound_to 6896
  150.6837  134.3106  159.4788 H   0  0  0  0  0  0  0  0  0  0  0  0  # atno 6909 bound_to 6896
  146.0867  140.5982  142.8883 H   0  0  0  0  0  0  0  0  0  0  0  0  # atno 7974 bound_to 7965
  154.5260  140.0776  156.8258 H   0  0  0  0  0  0  0  0  0  0  0  0  # atno 8008 bound_to 7997
  155.3476  140.3411  155.4221 H   0  0  0  0  0  0  0  0  0  0  0  0  # atno 8009 bound_to 7997
  156.1731  140.1626  156.8398 H   0  0  0  0  0  0  0  0  0  0  0  0  # atno 8010 bound_to 7997
  139.5800  144.1446  152.1502 H   0  0  0  0  0  0  0  0  0  0  0  0  # atno 10167 bound_to 10162
  156.1485  130.6518  150.9879 H   0  0  0  0  0  0  0  0  0  0  0  0  # atno 10718 bound_to 10713
  154.7901  135.4774  154.0033 H   0  0  0  0  0  0  0  0  0  0  0  0  # atno 10763 bound_to 10752
  153.1618  135.6810  153.8739 H   0  0  0  0  0  0  0  0  0  0  0  0  # atno 10764 bound_to 10752
  153.8350  135.3186  155.3400 H   0  0  0  0  0  0  0  0  0  0  0  0  # atno 10765 bound_to 10752
  141.1575  133.7662  156.9669 H   0  0  0  0  0  0  0  0  0  0  0  0  # atno 11005 bound_to 11000
  144.7331  140.4729  143.6923 LP  0  0  0  0  0  0  0  0  0  0  0  0  # atno 17320 bound_to 7965
  145.6116  139.1514  143.3072 LP  0  0  0  0  0  0  0  0  0  0  0  0  # atno 17321 bound_to 7965
  140.0997  144.5550  150.6997 LP  0  0  0  0  0  0  0  0  0  0  0  0  # atno 17342 bound_to 10162
  140.7079  143.2482  151.4671 LP  0  0  0  0  0  0  0  0  0  0  0  0  # atno 17343 bound_to 10162
  157.6637  131.0876  150.7778 LP  0  0  0  0  0  0  0  0  0  0  0  0  # atno 17370 bound_to 10713
  156.7848  130.4871  149.5395 LP  0  0  0  0  0  0  0  0  0  0  0  0  # atno 17371 bound_to 10713
  140.1155  134.9450  157.2128 LP  0  0  0  0  0  0  0  0  0  0  0  0  # atno 17394 bound_to 11000
  140.3138  134.2993  155.7261 LP  0  0  0  0  0  0  0  0  0  0  0  0  # atno 17395 bound_to 11000

$$$$
