AV-unprocessed.smi:992|AV-procd|sdf|4334|dock1
  -GOLD-   22720 2233D 1   1.00000     0.00000
 Structure written by MMmdl.
 33 34  0  0  0  0  0  0  0  0  2 V2000
  148.0596  141.0182  154.8534 C   0  0  0  0  0  0  0  0  0  0  0  0
  149.5176  141.4219  154.5710 C   0  0  1  0  0  0  0  0  0  0  0  0
  150.1050  142.3896  155.6181 C   0  0  0  0  0  0  0  0  0  0  0  0
  150.4103  141.6869  156.8575 N   0  0  0  0  0  0  0  0  0  0  0  0
  150.8462  142.5408  157.8791 C   0  0  0  0  0  0  0  0  0  0  0  0
  151.9185  142.2331  158.7494 C   0  0  0  0  0  0  0  0  0  0  0  0
  152.2832  143.1573  159.7505 C   0  0  0  0  0  0  0  0  0  0  0  0
  151.5715  144.3702  159.8632 C   0  0  0  0  0  0  0  0  0  0  0  0
  151.9086  145.3005  160.8444 N   0  0  0  0  0  0  0  0  0  0  0  0
  150.5129  144.6277  158.9683 C   0  0  0  0  0  0  0  0  0  0  0  0
  150.1950  143.7165  158.0229 N   0  3  0  0  0  0  0  0  0  0  0  0
  151.2859  140.5431  156.6458 C   0  0  0  0  0  0  0  0  0  0  0  0
  150.6525  139.5780  155.6281 C   0  0  2  0  0  0  0  0  0  0  0  0
  151.5840  138.4092  155.2906 C   0  0  0  0  0  0  0  0  0  0  0  0
  150.3716  140.2845  154.4195 O   0  0  0  0  0  0  0  0  0  0  0  0
  147.4077  141.8920  154.8413 H   0  0  0  0  0  0  0  0  0  0  0  0
  147.9414  140.5404  155.8255 H   0  0  0  0  0  0  0  0  0  0  0  0
  147.6951  140.3261  154.0940 H   0  0  0  0  0  0  0  0  0  0  0  0
  149.5204  141.9344  153.6085 H   0  0  0  0  0  0  0  0  0  0  0  0
  151.0201  142.8351  155.2254 H   0  0  0  0  0  0  0  0  0  0  0  0
  149.4100  143.2081  155.8108 H   0  0  0  0  0  0  0  0  0  0  0  0
  152.4584  141.3023  158.6551 H   0  0  0  0  0  0  0  0  0  0  0  0
  153.0995  142.9343  160.4220 H   0  0  0  0  0  0  0  0  0  0  0  0
  152.6637  145.1332  161.4947 H   0  0  0  0  0  0  0  0  0  0  0  0
  151.4399  146.1928  160.9118 H   0  0  0  0  0  0  0  0  0  0  0  0
  149.9132  145.5266  158.9775 H   0  0  0  0  0  0  0  0  0  0  0  0
  152.2560  140.8835  156.2816 H   0  0  0  0  0  0  0  0  0  0  0  0
  151.4579  140.0302  157.5932 H   0  0  0  0  0  0  0  0  0  0  0  0
  149.7295  139.1668  156.0375 H   0  0  0  0  0  0  0  0  0  0  0  0
  151.8256  137.8299  156.1822 H   0  0  0  0  0  0  0  0  0  0  0  0
  152.5198  138.7618  154.8562 H   0  0  0  0  0  0  0  0  0  0  0  0
  151.1173  137.7342  154.5725 H   0  0  0  0  0  0  0  0  0  0  0  0
  149.4242  143.9257  157.3879 H   0  0  0  0  0  0  0  0  0  0  0  0
  1  2  1  0  0  0  0
  1 16  1  0  0  0  0
  1 17  1  0  0  0  0
  1 18  1  0  0  0  0
  2 15  1  0  0  0  0
  2  3  1  0  0  0  0
  2 19  1  0  0  0  0
  3  4  1  0  0  0  0
  3 20  1  0  0  0  0
  3 21  1  0  0  0  0
  4  5  1  0  0  0  0
  4 12  1  0  0  0  0
  5 11  1  0  0  0  0
  5  6  2  0  0  0  0
  6  7  1  0  0  0  0
  6 22  1  0  0  0  0
  7  8  2  0  0  0  0
  7 23  1  0  0  0  0
  8  9  1  0  0  0  0
  8 10  1  0  0  0  0
  9 24  1  0  0  0  0
  9 25  1  0  0  0  0
 10 11  2  0  0  0  0
 10 26  1  0  0  0  0
 11 33  1  0  0  0  0
 12 13  1  0  0  0  0
 12 27  1  0  0  0  0
 12 28  1  0  0  0  0
 13 14  1  0  0  0  0
 13 15  1  0  0  0  0
 13 29  1  0  0  0  0
 14 30  1  0  0  0  0
 14 31  1  0  0  0  0
 14 32  1  0  0  0  0
M  CHG  1  11   1
M  END
> <s_m_source_file>
AV-unprocessed.smi

> <i_m_source_file_index>
992

> <i_lp_mmshare_version>
43012

> <i_f3d_flags>
0

> <s_epik_input>
W0NIM11bQ0BASF0xW0NIMl1OKFtDSDJdW0NASF0oTzEpW0NIM10pYzJbY0hdW2NIXWMoW05IMl0pW2NIXW4y

> <s_epik_cmdline>
J2VwaWtfcHl0aG9uJywgJy1waCcsICc3LjAnLCAnLXRuJywgJzgnLCAnLW1hJywgJzIwMCcsICctbWV0YWxfYmluZGluZycsICctaW1hZScsICc8aW5maWxlLm1hZT4nLCAnLW9tYWUnLCAnPG91dGZpbGUubWFlPic=

> <r_lp_tautomer_probability>
0.999846

> <r_epik_Ionization_Penalty>
2.28753

> <r_epik_Ionization_Penalty_Charging>
2.28753

> <r_epik_Ionization_Penalty_Neutral>
1.09395e-07

> <r_epik_State_Penalty>
2.43729

> <r_epik_Charging_Adjusted_Penalty>
4.72482

> <i_epik_Tot_Q>
1

> <i_epik_Tot_abs_Q>
1

> <r_epik_Metal_State_Penalty>
6.52028

> <b_epik_Metal_Only>
0

> <s_lp_Force_Field>
OPLS_2005

> <r_lp_Energy>
28.0905

> <b_lp_Chiralities_Consistent>
1

> <s_lp_Variant>
AV-unprocessed.smi:992-6

> <Gold.Version>
5.8.1

> <Gold.Id.Protein>
6NUR|6NUR_protein|mol2

> <Gold.PLP.Fitness>
35.5449

> <Gold.PLP.PLP>
-27.5982

> <Gold.PLP.part.hbond>
-3.1874

> <Gold.PLP.part.metal>
0.0000

> <Gold.PLP.part.buried>
0.2890

> <Gold.PLP.part.nonpolar>
-24.5971

> <Gold.PLP.part.repulsive>
0.3233

> <Gold.PLP.ligand.clash>
0.0711

> <Gold.PLP.ligand.torsion>
0.3205

> <Gold.PLP.Chemscore.Hbond>
2.8560

> <Gold.PLP.Chemscore.CHOScore>
0.0000

> <Gold.PLP.Chemscore.Metal>
0.0000

> <Gold.Chemscore.Hbonds>
donor molecule, donor type, donor heavy atom, donor atom, acceptor molecule, acceptor atom, score
      L1  H    11    33       P1  8028  1.86
      P1  H  7989  7998       L1    15  1.00

> <Gold.PLP.Chemscore.Internal.Correction>
0.0908

> <Gold.Rescore>
     Score         DG    S(hbond)    S(metal)    S(lipo)     H(rot)  DE(clash)    DE(int)     intcor
     14.44     -14.84       0.88        0.00      76.74       1.00       0.15       0.24       ----

> <Gold.Chemscore.Fitness>
14.4444

> <Gold.Chemscore.DG>
-14.8419

> <Gold.Chemscore.ZeroCoef>
-5.4800

> <Gold.Chemscore.Hbond>
0.8812

> <Gold.Chemscore.Metal>
0.0000

> <Gold.Chemscore.Lipo>
76.7416

> <Gold.Chemscore.Internal_Hbond>
0.0000

> <Gold.Chemscore.DEClash>
0.1529

> <Gold.Chemscore.DEInternal>
0.2445

> <Gold.Chemscore.Rot>
1.0000

> <Gold.Chemscore.Internal.Correction>
   9.000000E+99

> <Gold.Chemscore.Hbonds>
donor molecule, donor type, donor heavy atom, donor atom, acceptor molecule, acceptor atom, score
      L1  H    11    33       P1  8028  0.31
      P1  H  7989  7998       L1    15  0.38

> <Gold.Chemscore.Hbond.Weighted>
-2.9431

> <Gold.Chemscore.Metal.Weighted>
-0.0000

> <Gold.Chemscore.Lipo.Weighted>
-8.9788

> <Gold.Chemscore.Internal_Hbond.Weighted>
0.0000

> <Gold.Chemscore.DEClash.Weighted>
0.1529

> <Gold.Chemscore.DEInternal.Weighted>
0.2445

> <Gold.Chemscore.Rot.Weighted>
2.5600

> <Gold.Chemscore.Internal.Correction.Weighted>
   9.000000E+99

> <Gold.Protein.RotatedTorsions>
[ 6907 6896 6895 6894 ] final  -53.23 input  -60.11 | X-H torsion
[ 7974 7965 7964 7962 ] final  -91.63 input  175.53 | X-H torsion
[ 8008 7997 7996 7995 ] final   37.35 input   59.86 | X-H torsion
[ 10167 10162 10161 10158 ] final   82.02 input  -65.29 | X-H torsion
[ 10718 10713 10712 10709 ] final  145.13 input   66.30 | X-H torsion
[ 10763 10752 10751 10750 ] final  -54.60 input  -60.55 | X-H torsion
[ 11005 11000 10999 10996 ] final -165.75 input  -57.11 | X-H torsion

> <Gold.Protein.ActiveResidues>
 VAL166  LYS551  ARG553  GLY616  TRP617  ASP618  TYR619  PRO620  LYS621  CYS622 
 ASP623  PHE694  ASN695  SER759  ASP760  ASP761  ALA762  ILE779  LEU786  VAL792 
 PHE793  MET794  SER795  GLU796  ALA797  LYS798  CYS799  TRP800  GLU811  SER814 

> <Gold.Protein.RotatedAtoms>
  150.8446  134.7750  159.6959 H   0  0  0  0  0  0  0  0  0  0  0  0  # atno 6907 bound_to 6896
  152.4525  134.5359  159.9834 H   0  0  0  0  0  0  0  0  0  0  0  0  # atno 6908 bound_to 6896
  151.5492  133.3382  159.2985 H   0  0  0  0  0  0  0  0  0  0  0  0  # atno 6909 bound_to 6896
  145.4106  140.9544  143.2236 H   0  0  0  0  0  0  0  0  0  0  0  0  # atno 7974 bound_to 7965
  155.2023  140.3317  155.4341 H   0  0  0  0  0  0  0  0  0  0  0  0  # atno 8008 bound_to 7997
  156.2402  140.1891  156.7059 H   0  0  0  0  0  0  0  0  0  0  0  0  # atno 8009 bound_to 7997
  154.6133  140.0606  156.9507 H   0  0  0  0  0  0  0  0  0  0  0  0  # atno 8010 bound_to 7997
  139.9332  144.6138  150.8324 H   0  0  0  0  0  0  0  0  0  0  0  0  # atno 10167 bound_to 10162
  157.3489  131.0947  151.1017 H   0  0  0  0  0  0  0  0  0  0  0  0  # atno 10718 bound_to 10713
  154.1774  135.6449  153.5025 H   0  0  0  0  0  0  0  0  0  0  0  0  # atno 10763 bound_to 10752
  153.0068  135.5398  154.6550 H   0  0  0  0  0  0  0  0  0  0  0  0  # atno 10764 bound_to 10752
  154.5905  135.2933  155.0613 H   0  0  0  0  0  0  0  0  0  0  0  0  # atno 10765 bound_to 10752
  140.5722  134.5226  157.5164 H   0  0  0  0  0  0  0  0  0  0  0  0  # atno 11005 bound_to 11000
  144.8311  139.5626  143.6943 LP  0  0  0  0  0  0  0  0  0  0  0  0  # atno 17320 bound_to 7965
  146.2707  139.6627  142.9298 LP  0  0  0  0  0  0  0  0  0  0  0  0  # atno 17321 bound_to 7965
  140.7632  143.3216  151.2609 LP  0  0  0  0  0  0  0  0  0  0  0  0  # atno 17342 bound_to 10162
  139.6765  143.9928  152.2784 LP  0  0  0  0  0  0  0  0  0  0  0  0  # atno 17343 bound_to 10162
  157.2201  130.6477  149.5808 LP  0  0  0  0  0  0  0  0  0  0  0  0  # atno 17370 bound_to 10713
  155.9718  130.4632  150.6173 LP  0  0  0  0  0  0  0  0  0  0  0  0  # atno 17371 bound_to 10713
  139.9356  134.7881  156.0812 LP  0  0  0  0  0  0  0  0  0  0  0  0  # atno 17394 bound_to 11000
  141.1049  133.6664  156.2840 LP  0  0  0  0  0  0  0  0  0  0  0  0  # atno 17395 bound_to 11000

$$$$
