AV-unprocessed.smi:523|AV-procd|sdf|2803|dock8
  -GOLD-   2262023283D 1   1.00000     0.00000
 Structure written by MMmdl.
 41 43  0  0  0  0  0  0  0  0  1 V2000
  147.0795  142.9427  157.9027 C   0  0  0  0  0  0  0  0  0  0  0  0
  148.0435  142.5712  158.8711 O   0  0  0  0  0  0  0  0  0  0  0  0
  149.1967  141.9807  158.2936 C   0  0  0  0  0  0  0  0  0  0  0  0
  150.4418  142.7975  158.6655 C   0  0  0  0  0  0  0  0  0  0  0  0
  151.6165  141.9454  158.8427 N   0  0  0  0  0  0  0  0  0  0  0  0
  152.1568  141.0550  157.9658 C   0  0  0  0  0  0  0  0  0  0  0  0
  151.6397  140.8639  156.6842 N   0  0  0  0  0  0  0  0  0  0  0  0
  150.9508  141.8530  155.8601 C   0  0  0  0  0  0  0  0  0  0  0  0
  149.6625  141.2622  155.2597 C   0  0  0  0  0  0  0  0  0  0  0  0
  149.9951  140.1267  154.4689 O   0  0  0  0  0  0  0  0  0  0  0  0
  150.6641  139.1272  155.2302 C   0  0  0  0  0  0  0  0  0  0  0  0
  151.9501  139.7174  155.8374 C   0  0  0  0  0  0  0  0  0  0  0  0
  153.1816  140.3485  158.4502 N   0  0  0  0  0  0  0  0  0  0  0  0
  153.3277  140.8466  159.7352 C   0  0  0  0  0  0  0  0  0  0  0  0
  152.3955  141.7992  159.9936 C   0  0  0  0  0  0  0  0  0  0  0  0
  152.2933  142.4623  161.3023 C   0  0  0  0  0  0  0  0  0  0  0  0
  151.4514  143.3164  161.5701 O   0  0  0  0  0  0  0  0  0  0  0  0
  153.2202  142.0309  162.1916 N   0  0  0  0  0  0  0  0  0  0  0  0
  154.1855  141.0829  161.9934 C   0  0  0  0  0  0  0  0  0  0  0  0
  154.9575  140.7907  162.9065 O   0  0  0  0  0  0  0  0  0  0  0  0
  154.2486  140.4865  160.7602 N   0  0  0  0  0  0  0  0  0  0  0  0
  155.2583  139.4601  160.4946 C   0  0  0  0  0  0  0  0  0  0  0  0
  153.1919  142.4546  163.1077 H   0  0  0  0  0  0  0  0  0  0  0  0
  146.2179  143.3904  158.3978 H   0  0  0  0  0  0  0  0  0  0  0  0
  146.7316  142.0754  157.3402 H   0  0  0  0  0  0  0  0  0  0  0  0
  147.4850  143.6751  157.2037 H   0  0  0  0  0  0  0  0  0  0  0  0
  149.3067  140.9555  158.6505 H   0  0  0  0  0  0  0  0  0  0  0  0
  149.0927  141.9382  157.2087 H   0  0  0  0  0  0  0  0  0  0  0  0
  150.6328  143.5469  157.9032 H   0  0  0  0  0  0  0  0  0  0  0  0
  150.2617  143.3688  159.5734 H   0  0  0  0  0  0  0  0  0  0  0  0
  150.7374  142.7531  156.4349 H   0  0  0  0  0  0  0  0  0  0  0  0
  151.6188  142.1685  155.0575 H   0  0  0  0  0  0  0  0  0  0  0  0
  148.9549  140.9825  156.0414 H   0  0  0  0  0  0  0  0  0  0  0  0
  149.1674  141.9997  154.6281 H   0  0  0  0  0  0  0  0  0  0  0  0
  150.0040  138.7468  156.0114 H   0  0  0  0  0  0  0  0  0  0  0  0
  150.9056  138.2875  154.5786 H   0  0  0  0  0  0  0  0  0  0  0  0
  152.6403  140.0216  155.0494 H   0  0  0  0  0  0  0  0  0  0  0  0
  152.4607  138.9545  156.4260 H   0  0  0  0  0  0  0  0  0  0  0  0
  156.2578  139.8292  160.7295 H   0  0  0  0  0  0  0  0  0  0  0  0
  155.2698  139.1433  159.4521 H   0  0  0  0  0  0  0  0  0  0  0  0
  155.0692  138.5766  161.1059 H   0  0  0  0  0  0  0  0  0  0  0  0
  1  2  1  0  0  0  0
  1 24  1  0  0  0  0
  1 25  1  0  0  0  0
  1 26  1  0  0  0  0
  2  3  1  0  0  0  0
  3  4  1  0  0  0  0
  3 27  1  0  0  0  0
  3 28  1  0  0  0  0
  4  5  1  0  0  0  0
  4 29  1  0  0  0  0
  4 30  1  0  0  0  0
  5 15  1  0  0  0  0
  5  6  1  0  0  0  0
  6  7  1  0  0  0  0
  6 13  2  0  0  0  0
  7 12  1  0  0  0  0
  7  8  1  0  0  0  0
  8  9  1  0  0  0  0
  8 31  1  0  0  0  0
  8 32  1  0  0  0  0
  9 10  1  0  0  0  0
  9 33  1  0  0  0  0
  9 34  1  0  0  0  0
 10 11  1  0  0  0  0
 11 12  1  0  0  0  0
 11 35  1  0  0  0  0
 11 36  1  0  0  0  0
 12 37  1  0  0  0  0
 12 38  1  0  0  0  0
 13 14  1  0  0  0  0
 14 21  1  0  0  0  0
 14 15  2  0  0  0  0
 15 16  1  0  0  0  0
 16 17  2  0  0  0  0
 16 18  1  0  0  0  0
 18 23  1  0  0  0  0
 18 19  1  0  0  0  0
 19 20  2  0  0  0  0
 19 21  1  0  0  0  0
 21 22  1  0  0  0  0
 22 39  1  0  0  0  0
 22 40  1  0  0  0  0
 22 41  1  0  0  0  0
M  END
> <s_m_source_file>
AV-unprocessed.smi

> <i_m_source_file_index>
523

> <i_lp_mmshare_version>
43012

> <i_f3d_flags>
0

> <s_epik_input>
W0NIM11uMWMoPU8pW25IXWMoPU8pYyhjMTIpbihbQ0gyXVtDSDJdT1tDSDNdKWMobjIpTjNbQ0gyXVtDSDJdT1tDSDJdW0NIMl0z

> <s_epik_cmdline>
J2VwaWtfcHl0aG9uJywgJy1waCcsICc3LjAnLCAnLXRuJywgJzgnLCAnLW1hJywgJzIwMCcsICctbWV0YWxfYmluZGluZycsICctaW1hZScsICc8aW5maWxlLm1hZT4nLCAnLW9tYWUnLCAnPG91dGZpbGUubWFlPic=

> <r_lp_tautomer_probability>
1

> <r_epik_Ionization_Penalty>
0.000208431

> <r_epik_Ionization_Penalty_Charging>
0.000208146

> <r_epik_Ionization_Penalty_Neutral>
2.85359e-07

> <r_epik_State_Penalty>
-0

> <r_epik_Charging_Adjusted_Penalty>
0.000208146

> <i_epik_Tot_Q>
0

> <i_epik_Tot_abs_Q>
0

> <r_epik_Metal_State_Penalty>
0.136977

> <b_epik_Metal_Only>
0

> <s_lp_Force_Field>
OPLS_2005

> <r_lp_Energy>
38.6509

> <b_lp_Chiralities_Consistent>
1

> <s_lp_Variant>
AV-unprocessed.smi:523-1

> <Gold.Version>
5.8.1

> <Gold.Id.Protein>
6NUR|6NUR_protein|mol2

> <Gold.PLP.Fitness>
43.2610

> <Gold.PLP.PLP>
-38.9228

> <Gold.PLP.part.hbond>
-5.0655

> <Gold.PLP.part.metal>
0.0000

> <Gold.PLP.part.buried>
-3.9263

> <Gold.PLP.part.nonpolar>
-28.3926

> <Gold.PLP.part.repulsive>
0.4388

> <Gold.PLP.ligand.clash>
0.0000

> <Gold.PLP.ligand.torsion>
0.8318

> <Gold.PLP.Chemscore.Hbond>
1.8471

> <Gold.PLP.Chemscore.CHOScore>
0.0000

> <Gold.PLP.Chemscore.Metal>
0.0000

> <Gold.Chemscore.Hbonds>
donor molecule, donor type, donor heavy atom, donor atom, acceptor molecule, acceptor atom, score
      P1  H  6933  6945       L1    17  0.16
      P1  H  7989  7998       L1    10  0.85
      P1  H  7997  8010       L1    13  0.55

> <Gold.PLP.Chemscore.Internal.Correction>
0.4605

> <Gold.Rescore>
     Score         DG    S(hbond)    S(metal)    S(lipo)     H(rot)  DE(clash)    DE(int)     intcor
      9.24     -11.25       1.14        0.00      50.34       1.53       0.35       1.66       ----

> <Gold.Chemscore.Fitness>
9.2400

> <Gold.Chemscore.DG>
-11.2529

> <Gold.Chemscore.ZeroCoef>
-5.4800

> <Gold.Chemscore.Hbond>
1.1414

> <Gold.Chemscore.Metal>
0.0000

> <Gold.Chemscore.Lipo>
50.3395

> <Gold.Chemscore.Internal_Hbond>
0.0000

> <Gold.Chemscore.DEClash>
0.3501

> <Gold.Chemscore.DEInternal>
1.6627

> <Gold.Chemscore.Rot>
1.5348

> <Gold.Chemscore.Internal.Correction>
   9.000000E+99

> <Gold.Chemscore.Hbonds>
donor molecule, donor type, donor heavy atom, donor atom, acceptor molecule, acceptor atom, score
      P1  H  6933  6945       L1    17  0.01
      P1  H  7989  7998       L1    10  0.03
      P1  H  7997  8010       L1    13  0.52

> <Gold.Chemscore.Hbond.Weighted>
-3.8121

> <Gold.Chemscore.Metal.Weighted>
-0.0000

> <Gold.Chemscore.Lipo.Weighted>
-5.8897

> <Gold.Chemscore.Internal_Hbond.Weighted>
0.0000

> <Gold.Chemscore.DEClash.Weighted>
0.3501

> <Gold.Chemscore.DEInternal.Weighted>
1.6627

> <Gold.Chemscore.Rot.Weighted>
3.9290

> <Gold.Chemscore.Internal.Correction.Weighted>
   9.000000E+99

> <Gold.Protein.RotatedTorsions>
[ 6907 6896 6895 6894 ] final -145.82 input  -60.11 | X-H torsion
[ 7974 7965 7964 7962 ] final  -59.50 input  175.53 | X-H torsion
[ 8008 7997 7996 7995 ] final   11.87 input   59.86 | X-H torsion
[ 10167 10162 10161 10158 ] final  159.32 input  -65.29 | X-H torsion
[ 10718 10713 10712 10709 ] final  -61.27 input   66.30 | X-H torsion
[ 10763 10752 10751 10750 ] final  159.40 input  -60.55 | X-H torsion
[ 11005 11000 10999 10996 ] final  -36.79 input  -57.11 | X-H torsion

> <Gold.Protein.ActiveResidues>
 VAL166  LYS551  ARG553  GLY616  TRP617  ASP618  TYR619  PRO620  LYS621  CYS622 
 ASP623  PHE694  ASN695  SER759  ASP760  ASP761  ALA762  ILE779  LEU786  VAL792 
 PHE793  MET794  SER795  GLU796  ALA797  LYS798  CYS799  TRP800  GLU811  SER814 

> <Gold.Protein.RotatedAtoms>
  151.1331  133.5023  159.2598 H   0  0  0  0  0  0  0  0  0  0  0  0  # atno 6907 bound_to 6896
  151.1736  135.0329  159.8772 H   0  0  0  0  0  0  0  0  0  0  0  0  # atno 6908 bound_to 6896
  152.5460  134.1191  159.8444 H   0  0  0  0  0  0  0  0  0  0  0  0  # atno 6909 bound_to 6896
  145.8267  140.8506  143.0104 H   0  0  0  0  0  0  0  0  0  0  0  0  # atno 7974 bound_to 7965
  154.8129  140.2871  155.5841 H   0  0  0  0  0  0  0  0  0  0  0  0  # atno 8008 bound_to 7997
  156.2990  140.2565  156.2950 H   0  0  0  0  0  0  0  0  0  0  0  0  # atno 8009 bound_to 7997
  154.9427  140.0381  157.2094 H   0  0  0  0  0  0  0  0  0  0  0  0  # atno 8010 bound_to 7997
  139.4832  144.4741  151.8535 H   0  0  0  0  0  0  0  0  0  0  0  0  # atno 10167 bound_to 10162
  156.0933  130.4197  150.0971 H   0  0  0  0  0  0  0  0  0  0  0  0  # atno 10718 bound_to 10713
  154.2312  135.2778  155.2889 H   0  0  0  0  0  0  0  0  0  0  0  0  # atno 10763 bound_to 10752
  154.5622  135.5643  153.7021 H   0  0  0  0  0  0  0  0  0  0  0  0  # atno 10764 bound_to 10752
  153.0020  135.6300  154.2454 H   0  0  0  0  0  0  0  0  0  0  0  0  # atno 10765 bound_to 10752
  140.9902  133.7009  156.1837 H   0  0  0  0  0  0  0  0  0  0  0  0  # atno 11005 bound_to 11000
  144.6743  140.0613  143.7476 LP  0  0  0  0  0  0  0  0  0  0  0  0  # atno 17320 bound_to 7965
  145.9615  139.2804  143.1152 LP  0  0  0  0  0  0  0  0  0  0  0  0  # atno 17321 bound_to 7965
  140.4212  144.2241  150.5887 LP  0  0  0  0  0  0  0  0  0  0  0  0  # atno 17342 bound_to 10162
  140.4872  143.2359  151.8871 LP  0  0  0  0  0  0  0  0  0  0  0  0  # atno 17343 bound_to 10162
  156.8976  130.9609  151.3580 LP  0  0  0  0  0  0  0  0  0  0  0  0  # atno 17370 bound_to 10713
  157.6088  130.8567  149.8918 LP  0  0  0  0  0  0  0  0  0  0  0  0  # atno 17371 bound_to 10713
  140.7051  134.4522  157.5584 LP  0  0  0  0  0  0  0  0  0  0  0  0  # atno 17394 bound_to 11000
  139.8989  134.8603  156.1983 LP  0  0  0  0  0  0  0  0  0  0  0  0  # atno 17395 bound_to 11000

$$$$
