AV-unprocessed.smi:2376|AV-procd|sdf|9444|dock2
  -GOLD-   2272013 73D 1   1.00000     0.00000
 Structure written by MMmdl.
 28 29  0  0  0  0  0  0  0  0  1 V2000
  147.7741  138.7590  152.6777 N   0  0  0  0  0  0  0  0  0  0  0  0
  148.2985  139.6425  153.5381 C   0  0  0  0  0  0  0  0  0  0  0  0
  147.6943  140.8471  153.6721 N   0  0  0  0  0  0  0  0  0  0  0  0
  148.1998  141.7486  154.5212 C   0  0  0  0  0  0  0  0  0  0  0  0
  149.2737  141.6452  155.3099 N   0  0  0  0  0  0  0  0  0  0  0  0
  149.8759  140.4283  155.1713 C   0  0  0  0  0  0  0  0  0  0  0  0
  149.4562  139.3756  154.3117 C   0  0  0  0  0  0  0  0  0  0  0  0
  150.3111  138.2877  154.4317 N   0  0  0  0  0  0  0  0  0  0  0  0
  151.1907  138.6759  155.3154 C   0  0  0  0  0  0  0  0  0  0  0  0
  151.0046  139.9479  155.8109 N   0  0  0  0  0  0  0  0  0  0  0  0
  151.8293  140.6308  156.7896 C   0  0  0  0  0  0  0  0  0  0  0  0
  150.9739  141.3011  157.8712 C   0  0  0  0  0  0  0  0  0  0  0  0
  150.8061  142.6702  157.5450 O   0  0  0  0  0  0  0  0  0  0  0  0
  150.5867  143.4813  158.6886 C   0  0  0  0  0  0  0  0  0  0  0  0
  151.9287  144.0033  159.2157 C   0  0  0  0  0  0  0  0  0  0  0  0
  152.5921  144.5914  158.2211 F   0  0  0  0  0  0  0  0  0  0  0  0
  151.7281  144.8973  160.1836 F   0  0  0  0  0  0  0  0  0  0  0  0
  152.6642  142.9948  159.6829 F   0  0  0  0  0  0  0  0  0  0  0  0
  148.2080  137.8547  152.5594 H   0  0  0  0  0  0  0  0  0  0  0  0
  146.9494  138.9998  152.1477 H   0  0  0  0  0  0  0  0  0  0  0  0
  147.6678  142.6869  154.5771 H   0  0  0  0  0  0  0  0  0  0  0  0
  152.0068  138.0415  155.6298 H   0  0  0  0  0  0  0  0  0  0  0  0
  152.5130  139.9082  157.2371 H   0  0  0  0  0  0  0  0  0  0  0  0
  152.4440  141.3722  156.2772 H   0  0  0  0  0  0  0  0  0  0  0  0
  150.0008  140.8115  157.9360 H   0  0  0  0  0  0  0  0  0  0  0  0
  151.4574  141.2053  158.8448 H   0  0  0  0  0  0  0  0  0  0  0  0
  149.9385  144.3208  158.4323 H   0  0  0  0  0  0  0  0  0  0  0  0
  150.0820  142.9032  159.4644 H   0  0  0  0  0  0  0  0  0  0  0  0
  1  2  1  0  0  0  0
  1 19  1  0  0  0  0
  1 20  1  0  0  0  0
  2  7  1  0  0  0  0
  2  3  2  0  0  0  0
  3  4  1  0  0  0  0
  4  5  2  0  0  0  0
  4 21  1  0  0  0  0
  5  6  1  0  0  0  0
  6 10  1  0  0  0  0
  6  7  2  0  0  0  0
  7  8  1  0  0  0  0
  8  9  2  0  0  0  0
  9 10  1  0  0  0  0
  9 22  1  0  0  0  0
 10 11  1  0  0  0  0
 11 12  1  0  0  0  0
 11 23  1  0  0  0  0
 11 24  1  0  0  0  0
 12 13  1  0  0  0  0
 12 25  1  0  0  0  0
 12 26  1  0  0  0  0
 13 14  1  0  0  0  0
 14 15  1  0  0  0  0
 14 27  1  0  0  0  0
 14 28  1  0  0  0  0
 15 16  1  0  0  0  0
 15 17  1  0  0  0  0
 15 18  1  0  0  0  0
M  END
> <s_m_source_file>
AV-unprocessed.smi

> <i_m_source_file_index>
2376

> <i_lp_mmshare_version>
43012

> <i_f3d_flags>
0

> <s_epik_input>
bjFbY0hdbmMoW05IMl0pYyhjMTIpbltjSF1uMltDSDJdW0NIMl1PW0NIMl1DKEYpKEYpRg==

> <s_epik_cmdline>
J2VwaWtfcHl0aG9uJywgJy1waCcsICc3LjAnLCAnLXRuJywgJzgnLCAnLW1hJywgJzIwMCcsICctbWV0YWxfYmluZGluZycsICctaW1hZScsICc8aW5maWxlLm1hZT4nLCAnLW9tYWUnLCAnPG91dGZpbGUubWFlPic=

> <r_lp_tautomer_probability>
1

> <r_epik_Ionization_Penalty>
0.000856314

> <r_epik_Ionization_Penalty_Charging>
0

> <r_epik_Ionization_Penalty_Neutral>
0.000856314

> <r_epik_State_Penalty>
-0

> <r_epik_Charging_Adjusted_Penalty>
0

> <i_epik_Tot_Q>
0

> <i_epik_Tot_abs_Q>
0

> <r_epik_Metal_State_Penalty>
-0

> <b_epik_Metal_Only>
0

> <s_lp_Force_Field>
OPLS_2005

> <r_lp_Energy>
6.06006

> <b_lp_Chiralities_Consistent>
1

> <s_lp_Variant>
AV-unprocessed.smi:2376-1

> <Gold.Version>
5.8.1

> <Gold.Id.Protein>
6NUR|6NUR_protein|mol2

> <Gold.PLP.Fitness>
43.6343

> <Gold.PLP.PLP>
-39.9471

> <Gold.PLP.part.hbond>
-2.0000

> <Gold.PLP.part.metal>
0.0000

> <Gold.PLP.part.buried>
-2.9439

> <Gold.PLP.part.nonpolar>
-35.6496

> <Gold.PLP.part.repulsive>
1.0208

> <Gold.PLP.ligand.clash>
0.0000

> <Gold.PLP.ligand.torsion>
0.8088

> <Gold.PLP.Chemscore.Hbond>
1.0000

> <Gold.PLP.Chemscore.CHOScore>
0.7622

> <Gold.PLP.Chemscore.Metal>
0.0000

> <Gold.Chemscore.Hbonds>
donor molecule, donor type, donor heavy atom, donor atom, acceptor molecule, acceptor atom, score
      L1  H     1    19       P1  7948  1.00
      L1  C     4    21       P1  8028  0.71

> <Gold.PLP.Chemscore.Internal.Correction>
0.0180

> <Gold.Rescore>
     Score         DG    S(hbond)    S(metal)    S(lipo)     H(rot)  DE(clash)    DE(int)     intcor
      5.22      -6.12       0.94        0.00      38.08       2.72       0.05       0.85       ----

> <Gold.Chemscore.Fitness>
5.2231

> <Gold.Chemscore.DG>
-6.1230

> <Gold.Chemscore.ZeroCoef>
-5.4800

> <Gold.Chemscore.Hbond>
0.9436

> <Gold.Chemscore.Metal>
0.0000

> <Gold.Chemscore.Lipo>
38.0833

> <Gold.Chemscore.Internal_Hbond>
0.0000

> <Gold.Chemscore.DEClash>
0.0491

> <Gold.Chemscore.DEInternal>
0.8507

> <Gold.Chemscore.Rot>
2.7204

> <Gold.Chemscore.Internal.Correction>
   9.000000E+99

> <Gold.Chemscore.Hbonds>
donor molecule, donor type, donor heavy atom, donor atom, acceptor molecule, acceptor atom, score
      L1  H     1    19       P1  7948  1.00

> <Gold.Chemscore.Hbond.Weighted>
-3.1516

> <Gold.Chemscore.Metal.Weighted>
-0.0000

> <Gold.Chemscore.Lipo.Weighted>
-4.4557

> <Gold.Chemscore.Internal_Hbond.Weighted>
0.0000

> <Gold.Chemscore.DEClash.Weighted>
0.0491

> <Gold.Chemscore.DEInternal.Weighted>
0.8507

> <Gold.Chemscore.Rot.Weighted>
6.9644

> <Gold.Chemscore.Internal.Correction.Weighted>
   9.000000E+99

> <Gold.Protein.RotatedTorsions>
[ 6907 6896 6895 6894 ] final  -33.33 input  -60.11 | X-H torsion
[ 7974 7965 7964 7962 ] final -150.92 input  175.53 | X-H torsion
[ 8008 7997 7996 7995 ] final   20.48 input   59.86 | X-H torsion
[ 10167 10162 10161 10158 ] final  -30.39 input  -65.29 | X-H torsion
[ 10718 10713 10712 10709 ] final  100.37 input   66.30 | X-H torsion
[ 10763 10752 10751 10750 ] final   30.45 input  -60.55 | X-H torsion
[ 11005 11000 10999 10996 ] final  -48.10 input  -57.11 | X-H torsion

> <Gold.Protein.ActiveResidues>
 VAL166  LYS551  ARG553  GLY616  TRP617  ASP618  TYR619  PRO620  LYS621  CYS622 
 ASP623  PHE694  ASN695  SER759  ASP760  ASP761  ALA762  ILE779  LEU786  VAL792 
 PHE793  MET794  SER795  GLU796  ALA797  LYS798  CYS799  TRP800  GLU811  SER814 

> <Gold.Protein.RotatedAtoms>
  151.0670  134.9773  159.8288 H   0  0  0  0  0  0  0  0  0  0  0  0  # atno 6907 bound_to 6896
  152.5403  134.2347  159.8848 H   0  0  0  0  0  0  0  0  0  0  0  0  # atno 6908 bound_to 6896
  151.2369  133.4377  159.2639 H   0  0  0  0  0  0  0  0  0  0  0  0  # atno 6909 bound_to 6896
  144.7880  140.4867  143.5793 H   0  0  0  0  0  0  0  0  0  0  0  0  # atno 7974 bound_to 7965
  154.9362  140.3047  155.5143 H   0  0  0  0  0  0  0  0  0  0  0  0  # atno 8008 bound_to 7997
  156.2999  140.2344  156.4364 H   0  0  0  0  0  0  0  0  0  0  0  0  # atno 8009 bound_to 7997
  154.8189  140.0424  157.1385 H   0  0  0  0  0  0  0  0  0  0  0  0  # atno 8010 bound_to 7997
  140.7250  143.3853  151.1527 H   0  0  0  0  0  0  0  0  0  0  0  0  # atno 10167 bound_to 10162
  157.6855  131.0696  150.5090 H   0  0  0  0  0  0  0  0  0  0  0  0  # atno 10718 bound_to 10713
  153.0371  135.6464  154.1047 H   0  0  0  0  0  0  0  0  0  0  0  0  # atno 10763 bound_to 10752
  154.0760  135.2877  155.3301 H   0  0  0  0  0  0  0  0  0  0  0  0  # atno 10764 bound_to 10752
  154.6562  135.5408  153.8026 H   0  0  0  0  0  0  0  0  0  0  0  0  # atno 10765 bound_to 10752
  141.0681  133.6687  156.3393 H   0  0  0  0  0  0  0  0  0  0  0  0  # atno 11005 bound_to 11000
  145.5871  139.1493  143.3203 LP  0  0  0  0  0  0  0  0  0  0  0  0  # atno 17320 bound_to 7965
  146.2120  140.5998  142.9055 LP  0  0  0  0  0  0  0  0  0  0  0  0  # atno 17321 bound_to 7965
  139.7449  143.8868  152.3060 LP  0  0  0  0  0  0  0  0  0  0  0  0  # atno 17342 bound_to 10162
  139.8701  144.7072  150.8997 LP  0  0  0  0  0  0  0  0  0  0  0  0  # atno 17343 bound_to 10162
  156.5408  130.4207  149.6155 LP  0  0  0  0  0  0  0  0  0  0  0  0  # atno 17370 bound_to 10713
  156.2987  130.7164  151.2031 LP  0  0  0  0  0  0  0  0  0  0  0  0  # atno 17371 bound_to 10713
  140.5731  134.5820  157.5462 LP  0  0  0  0  0  0  0  0  0  0  0  0  # atno 17394 bound_to 11000
  139.9496  134.7641  156.0480 LP  0  0  0  0  0  0  0  0  0  0  0  0  # atno 17395 bound_to 11000

$$$$
