AV-unprocessed.smi:415|AV-procd|sdf|2519|dock4
  -GOLD-   2262022473D 1   1.00000     0.00000
 Structure written by MMmdl.
 53 54  0  0  0  0  0  0  0  0  1 V2000
  150.2702  131.6175  157.1536 C   0  0  0  0  0  0  0  0  0  0  0  0
  149.9064  132.9230  157.5668 O   0  0  0  0  0  0  0  0  0  0  0  0
  150.2568  133.9124  156.6142 C   0  0  0  0  0  0  0  0  0  0  0  0
  149.8359  135.2875  157.1529 C   0  0  0  0  0  0  0  0  0  0  0  0
  150.5982  136.3738  156.5688 N   0  0  0  0  0  0  0  0  0  0  0  0
  150.5373  136.7068  155.2186 C   0  0  0  0  0  0  0  0  0  0  0  0
  149.7013  135.9963  154.3760 N   0  0  0  0  0  0  0  0  0  0  0  0
  151.2686  137.7233  154.7101 C   0  0  0  0  0  0  0  0  0  0  0  0
  152.1528  138.5259  155.5430 C   0  0  0  0  0  0  0  0  0  0  0  0
  152.8464  139.4391  155.0942 O   0  0  0  0  0  0  0  0  0  0  0  0
  152.1752  138.1910  156.9167 N   0  0  0  0  0  0  0  0  0  0  0  0
  153.0647  138.9632  157.8131 C   0  0  0  0  0  0  0  0  0  0  0  0
  152.3139  139.9753  158.6923 C   0  0  0  0  0  0  0  0  0  0  0  0
  151.1070  140.1724  158.5444 O   0  0  0  0  0  0  0  0  0  0  0  0
  153.0579  140.6232  159.6015 N   0  0  0  0  0  0  0  0  0  0  0  0
  152.5654  141.6337  160.5352 C   0  0  1  0  0  0  0  0  0  0  0  0
  153.5295  141.7524  161.7314 C   0  0  0  0  0  0  0  0  0  0  0  0
  153.0279  142.7856  162.7512 C   0  0  0  0  0  0  0  0  0  0  0  0
  152.7746  144.1514  162.0940 C   0  0  0  0  0  0  0  0  0  0  0  0
  151.8136  144.0300  160.8938 C   0  0  1  0  0  0  0  0  0  0  0  0
  151.4701  145.4041  160.2949 C   0  0  0  0  0  0  0  0  0  0  0  0
  152.3316  143.0071  159.8472 C   0  0  1  0  0  0  0  0  0  0  0  0
  153.5611  143.5054  159.0520 C   0  0  0  0  0  0  0  0  0  0  0  0
  151.4073  137.1321  157.4536 C   0  0  0  0  0  0  0  0  0  0  0  0
  151.4506  136.8809  158.6612 O   0  0  0  0  0  0  0  0  0  0  0  0
  149.9808  130.8975  157.9190 H   0  0  0  0  0  0  0  0  0  0  0  0
  151.3478  131.5355  157.0060 H   0  0  0  0  0  0  0  0  0  0  0  0
  149.7675  131.3425  156.2255 H   0  0  0  0  0  0  0  0  0  0  0  0
  151.3334  133.8924  156.4377 H   0  0  0  0  0  0  0  0  0  0  0  0
  149.7619  133.7078  155.6635 H   0  0  0  0  0  0  0  0  0  0  0  0
  148.7748  135.4868  156.9939 H   0  0  0  0  0  0  0  0  0  0  0  0
  149.9737  135.3478  158.2321 H   0  0  0  0  0  0  0  0  0  0  0  0
  149.1273  135.2358  154.7108 H   0  0  0  0  0  0  0  0  0  0  0  0
  149.6069  136.2304  153.3981 H   0  0  0  0  0  0  0  0  0  0  0  0
  151.2023  137.9549  153.6567 H   0  0  0  0  0  0  0  0  0  0  0  0
  153.6373  138.2924  158.4559 H   0  0  0  0  0  0  0  0  0  0  0  0
  153.8287  139.5027  157.2517 H   0  0  0  0  0  0  0  0  0  0  0  0
  154.0417  140.4023  159.6509 H   0  0  0  0  0  0  0  0  0  0  0  0
  151.6090  141.2850  160.9308 H   0  0  0  0  0  0  0  0  0  0  0  0
  153.6350  140.7836  162.2212 H   0  0  0  0  0  0  0  0  0  0  0  0
  154.5267  142.0304  161.3882 H   0  0  0  0  0  0  0  0  0  0  0  0
  152.1048  142.4258  163.2073 H   0  0  0  0  0  0  0  0  0  0  0  0
  153.7505  142.8905  163.5608 H   0  0  0  0  0  0  0  0  0  0  0  0
  152.3583  144.8347  162.8351 H   0  0  0  0  0  0  0  0  0  0  0  0
  153.7219  144.5888  161.7768 H   0  0  0  0  0  0  0  0  0  0  0  0
  150.8749  143.6305  161.2813 H   0  0  0  0  0  0  0  0  0  0  0  0
  152.3604  145.9366  159.9603 H   0  0  0  0  0  0  0  0  0  0  0  0
  150.9751  146.0357  161.0329 H   0  0  0  0  0  0  0  0  0  0  0  0
  150.7963  145.3048  159.4436 H   0  0  0  0  0  0  0  0  0  0  0  0
  151.5329  142.8685  159.1169 H   0  0  0  0  0  0  0  0  0  0  0  0
  154.4180  143.6943  159.6975 H   0  0  0  0  0  0  0  0  0  0  0  0
  153.3440  144.4278  158.5149 H   0  0  0  0  0  0  0  0  0  0  0  0
  153.8716  142.7808  158.2994 H   0  0  0  0  0  0  0  0  0  0  0  0
  1  2  1  0  0  0  0
  1 26  1  0  0  0  0
  1 27  1  0  0  0  0
  1 28  1  0  0  0  0
  2  3  1  0  0  0  0
  3  4  1  0  0  0  0
  3 29  1  0  0  0  0
  3 30  1  0  0  0  0
  4  5  1  0  0  0  0
  4 31  1  0  0  0  0
  4 32  1  0  0  0  0
  5 24  1  0  0  0  0
  5  6  1  0  0  0  0
  6  7  1  0  0  0  0
  6  8  2  0  0  0  0
  7 33  1  0  0  0  0
  7 34  1  0  0  0  0
  8  9  1  0  0  0  0
  8 35  1  0  0  0  0
  9 10  2  0  0  0  0
  9 11  1  0  0  0  0
 11 12  1  0  0  0  0
 11 24  1  0  0  0  0
 12 13  1  0  0  0  0
 12 36  1  0  0  0  0
 12 37  1  0  0  0  0
 13 14  2  0  0  0  0
 13 15  1  0  0  0  0
 15 16  1  0  0  0  0
 15 38  1  0  0  0  0
 16 22  1  0  0  0  0
 16 17  1  0  0  0  0
 16 39  1  0  0  0  0
 17 18  1  0  0  0  0
 17 40  1  0  0  0  0
 17 41  1  0  0  0  0
 18 19  1  0  0  0  0
 18 42  1  0  0  0  0
 18 43  1  0  0  0  0
 19 20  1  0  0  0  0
 19 44  1  0  0  0  0
 19 45  1  0  0  0  0
 20 21  1  0  0  0  0
 20 22  1  0  0  0  0
 20 46  1  0  0  0  0
 21 47  1  0  0  0  0
 21 48  1  0  0  0  0
 21 49  1  0  0  0  0
 22 23  1  0  0  0  0
 22 50  1  0  0  0  0
 23 51  1  0  0  0  0
 23 52  1  0  0  0  0
 23 53  1  0  0  0  0
 24 25  2  0  0  0  0
M  END
> <s_m_source_file>
AV-unprocessed.smi

> <i_m_source_file_index>
415

> <i_lp_mmshare_version>
43012

> <i_f3d_flags>
0

> <s_epik_input>
W0NIM11PW0NIMl1bQ0gyXW4xYyhbTkgyXSlbY0hdYyg9TyluKGMxPU8pW0NIMl1DKD1PKVtOSF1bQ0BASF0yW0NIMl1bQ0gyXVtDSDJdW0NAQEhdKFtDSDNdKVtDQEhdMltDSDNd

> <s_epik_cmdline>
J2VwaWtfcHl0aG9uJywgJy1waCcsICc3LjAnLCAnLXRuJywgJzgnLCAnLW1hJywgJzIwMCcsICctbWV0YWxfYmluZGluZycsICctaW1hZScsICc8aW5maWxlLm1hZT4nLCAnLW9tYWUnLCAnPG91dGZpbGUubWFlPic=

> <r_lp_tautomer_probability>
1

> <r_epik_Ionization_Penalty>
8.6647e-06

> <r_epik_Ionization_Penalty_Charging>
1.81162e-08

> <r_epik_Ionization_Penalty_Neutral>
8.64658e-06

> <r_epik_State_Penalty>
-0

> <r_epik_Charging_Adjusted_Penalty>
1.81162e-08

> <i_epik_Tot_Q>
0

> <i_epik_Tot_abs_Q>
0

> <r_epik_Metal_State_Penalty>
-0

> <b_epik_Metal_Only>
0

> <s_lp_Force_Field>
OPLS_2005

> <r_lp_Energy>
22.062

> <b_lp_Chiralities_Consistent>
1

> <s_lp_Variant>
AV-unprocessed.smi:415-2

> <Gold.Version>
5.8.1

> <Gold.Id.Protein>
6NUR|6NUR_protein|mol2

> <Gold.PLP.Fitness>
55.0561

> <Gold.PLP.PLP>
-45.4551

> <Gold.PLP.part.hbond>
-5.5283

> <Gold.PLP.part.metal>
0.0000

> <Gold.PLP.part.buried>
-4.1473

> <Gold.PLP.part.nonpolar>
-37.0090

> <Gold.PLP.part.repulsive>
0.1642

> <Gold.PLP.ligand.clash>
0.0000

> <Gold.PLP.ligand.torsion>
0.6479

> <Gold.PLP.Chemscore.Hbond>
3.6141

> <Gold.PLP.Chemscore.CHOScore>
0.0000

> <Gold.PLP.Chemscore.Metal>
0.0000

> <Gold.Chemscore.Hbonds>
donor molecule, donor type, donor heavy atom, donor atom, acceptor molecule, acceptor atom, score
      L1  H     7    34       P1  7948  1.00
      P1  H  6896  6907       L1    25  0.63
      P1  H  6896  6909       L1     2  0.91
      P1  H  7997  8010       L1    10  1.00

> <Gold.PLP.Chemscore.Internal.Correction>
0.0544

> <Gold.Rescore>
     Score         DG    S(hbond)    S(metal)    S(lipo)     H(rot)  DE(clash)    DE(int)     intcor
     22.58     -23.42       3.17        0.00     112.47       2.26       0.01       0.83       ----

> <Gold.Chemscore.Fitness>
22.5809

> <Gold.Chemscore.DG>
-23.4242

> <Gold.Chemscore.ZeroCoef>
-5.4800

> <Gold.Chemscore.Hbond>
3.1684

> <Gold.Chemscore.Metal>
0.0000

> <Gold.Chemscore.Lipo>
112.4705

> <Gold.Chemscore.Internal_Hbond>
0.0000

> <Gold.Chemscore.DEClash>
0.0096

> <Gold.Chemscore.DEInternal>
0.8337

> <Gold.Chemscore.Rot>
2.2645

> <Gold.Chemscore.Internal.Correction>
   9.000000E+99

> <Gold.Chemscore.Hbonds>
donor molecule, donor type, donor heavy atom, donor atom, acceptor molecule, acceptor atom, score
      L1  H     7    34       P1  7948  0.34
      P1  H  6896  6907       L1    25  0.62
      P1  H  6896  6909       L1     2  0.21
      P1  H  7989  7998       L1    10  0.03
      P1  H  7997  8010       L1    10  0.99

> <Gold.Chemscore.Hbond.Weighted>
-10.5823

> <Gold.Chemscore.Metal.Weighted>
-0.0000

> <Gold.Chemscore.Lipo.Weighted>
-13.1590

> <Gold.Chemscore.Internal_Hbond.Weighted>
0.0000

> <Gold.Chemscore.DEClash.Weighted>
0.0096

> <Gold.Chemscore.DEInternal.Weighted>
0.8337

> <Gold.Chemscore.Rot.Weighted>
5.7972

> <Gold.Chemscore.Internal.Correction.Weighted>
   9.000000E+99

> <Gold.Protein.RotatedTorsions>
[ 6907 6896 6895 6894 ] final   -7.42 input  -60.11 | X-H torsion
[ 7974 7965 7964 7962 ] final   43.23 input  175.53 | X-H torsion
[ 8008 7997 7996 7995 ] final  106.02 input   59.86 | X-H torsion
[ 10167 10162 10161 10158 ] final -117.15 input  -65.29 | X-H torsion
[ 10718 10713 10712 10709 ] final   49.36 input   66.30 | X-H torsion
[ 10763 10752 10751 10750 ] final  -75.03 input  -60.55 | X-H torsion
[ 11005 11000 10999 10996 ] final  147.25 input  -57.11 | X-H torsion

> <Gold.Protein.ActiveResidues>
 VAL166  LYS551  ARG553  GLY616  TRP617  ASP618  TYR619  PRO620  LYS621  CYS622 
 ASP623  PHE694  ASN695  SER759  ASP760  ASP761  ALA762  ILE779  LEU786  VAL792 
 PHE793  MET794  SER795  GLU796  ALA797  LYS798  CYS799  TRP800  GLU811  SER814 

> <Gold.Protein.RotatedAtoms>
  151.4499  135.1029  159.9694 H   0  0  0  0  0  0  0  0  0  0  0  0  # atno 6907 bound_to 6896
  152.4892  133.8450  159.7182 H   0  0  0  0  0  0  0  0  0  0  0  0  # atno 6908 bound_to 6896
  150.9029  133.7035  159.2901 H   0  0  0  0  0  0  0  0  0  0  0  0  # atno 6909 bound_to 6896
  146.0673  139.5210  142.9620 H   0  0  0  0  0  0  0  0  0  0  0  0  # atno 7974 bound_to 7965
  156.1708  140.3120  155.8971 H   0  0  0  0  0  0  0  0  0  0  0  0  # atno 8008 bound_to 7997
  155.3590  140.0475  157.3063 H   0  0  0  0  0  0  0  0  0  0  0  0  # atno 8009 bound_to 7997
  154.5239  140.2208  155.8935 H   0  0  0  0  0  0  0  0  0  0  0  0  # atno 8010 bound_to 7997
  140.0714  143.4873  152.1977 H   0  0  0  0  0  0  0  0  0  0  0  0  # atno 10167 bound_to 10162
  157.4779  130.8296  149.8060 H   0  0  0  0  0  0  0  0  0  0  0  0  # atno 10718 bound_to 10713
  154.4811  135.5845  153.6390 H   0  0  0  0  0  0  0  0  0  0  0  0  # atno 10763 bound_to 10752
  152.9847  135.6090  154.3245 H   0  0  0  0  0  0  0  0  0  0  0  0  # atno 10764 bound_to 10752
  154.3137  135.2844  155.2533 H   0  0  0  0  0  0  0  0  0  0  0  0  # atno 10765 bound_to 10752
  140.0860  134.9069  157.1577 H   0  0  0  0  0  0  0  0  0  0  0  0  # atno 11005 bound_to 11000
  145.6455  141.0275  143.1789 LP  0  0  0  0  0  0  0  0  0  0  0  0  # atno 17320 bound_to 7965
  144.7210  139.8031  143.7382 LP  0  0  0  0  0  0  0  0  0  0  0  0  # atno 17321 bound_to 7965
  139.5833  144.7520  151.3583 LP  0  0  0  0  0  0  0  0  0  0  0  0  # atno 17342 bound_to 10162
  140.7123  143.7357  150.7590 LP  0  0  0  0  0  0  0  0  0  0  0  0  # atno 17343 bound_to 10162
  156.0106  130.3835  150.2278 LP  0  0  0  0  0  0  0  0  0  0  0  0  # atno 17370 bound_to 10713
  157.0463  131.0050  151.3268 LP  0  0  0  0  0  0  0  0  0  0  0  0  # atno 17371 bound_to 10713
  140.3419  134.2694  155.7211 LP  0  0  0  0  0  0  0  0  0  0  0  0  # atno 17394 bound_to 11000
  141.2063  133.7838  157.0186 LP  0  0  0  0  0  0  0  0  0  0  0  0  # atno 17395 bound_to 11000

$$$$
