AV-unprocessed.smi:1389|AV-procd|sdf|5655|dock3
  -GOLD-   22720 5283D 1   1.00000     0.00000
 Structure written by MMmdl.
 52 54  0  0  0  0  0  0  0  0  4 V2000
  154.9941  139.2032  160.9722 C   0  0  0  0  0  0  0  0  0  0  0  0
  154.0053  138.0692  160.6115 C   0  0  1  0  0  0  0  0  0  0  0  0
  154.1035  137.6122  159.1300 C   0  0  0  0  0  0  0  0  0  0  0  0
  153.8114  138.7261  158.2214 N   0  5  0  0  0  0  0  0  0  0  0  0
  152.6632  138.8621  157.5055 C   0  0  0  0  0  0  0  0  0  0  0  0
  151.8534  137.9791  157.2007 O   0  0  0  0  0  0  0  0  0  0  0  0
  152.4497  140.1342  157.1286 N   0  0  0  0  0  0  0  0  0  0  0  0
  151.3210  140.6719  156.4504 C   0  0  0  0  0  0  0  0  0  0  0  0
  150.6176  139.9054  155.4871 C   0  0  0  0  0  0  0  0  0  0  0  0
  149.5494  140.4824  154.7749 C   0  0  0  0  0  0  0  0  0  0  0  0
  149.2133  141.8244  155.0238 C   0  0  0  0  0  0  0  0  0  0  0  0
  149.9124  142.5315  155.9357 N   0  3  0  0  0  0  0  0  0  0  0  0
  150.9398  142.0275  156.6644 C   0  0  0  0  0  0  0  0  0  0  0  0
  151.5737  142.8817  157.5953 N   0  0  0  0  0  0  0  0  0  0  0  0
  151.5878  144.3246  157.3841 C   0  0  0  0  0  0  0  0  0  0  0  0
  152.0043  144.9174  158.7275 C   0  0  0  0  0  0  0  0  0  0  0  0
  151.3566  143.9597  159.7231 C   0  0  0  0  0  0  0  0  0  0  0  0
  151.4348  142.6000  159.0212 C   0  0  0  0  0  0  0  0  0  0  0  0
  154.0831  136.9003  161.5430 N   0  3  0  0  0  0  0  0  0  0  0  0
  155.0507  135.8251  161.1909 C   0  0  0  0  0  0  0  0  0  0  0  0
  154.8736  134.6297  162.1403 C   0  0  0  0  0  0  0  0  0  0  0  0
  155.0556  135.0612  163.4837 O   0  0  0  0  0  0  0  0  0  0  0  0
  154.0959  136.0396  163.8653 C   0  0  0  0  0  0  0  0  0  0  0  0
  154.2304  137.2818  162.9686 C   0  0  0  0  0  0  0  0  0  0  0  0
  154.8209  140.0962  160.3686 H   0  0  0  0  0  0  0  0  0  0  0  0
  156.0379  138.9155  160.8333 H   0  0  0  0  0  0  0  0  0  0  0  0
  154.8741  139.5039  162.0134 H   0  0  0  0  0  0  0  0  0  0  0  0
  153.0094  138.5023  160.7188 H   0  0  0  0  0  0  0  0  0  0  0  0
  155.0922  137.1881  158.9498 H   0  0  0  0  0  0  0  0  0  0  0  0
  153.4060  136.7900  158.9695 H   0  0  0  0  0  0  0  0  0  0  0  0
  153.1024  140.8102  157.4976 H   0  0  0  0  0  0  0  0  0  0  0  0
  150.8985  138.8855  155.2710 H   0  0  0  0  0  0  0  0  0  0  0  0
  149.0054  139.9071  154.0401 H   0  0  0  0  0  0  0  0  0  0  0  0
  148.4153  142.3525  154.5223 H   0  0  0  0  0  0  0  0  0  0  0  0
  152.2775  144.6038  156.5870 H   0  0  0  0  0  0  0  0  0  0  0  0
  150.5917  144.6825  157.1202 H   0  0  0  0  0  0  0  0  0  0  0  0
  153.0898  144.8832  158.8316 H   0  0  0  0  0  0  0  0  0  0  0  0
  151.6820  145.9513  158.8548 H   0  0  0  0  0  0  0  0  0  0  0  0
  151.8448  143.9620  160.6979 H   0  0  0  0  0  0  0  0  0  0  0  0
  150.3119  144.2374  159.8698 H   0  0  0  0  0  0  0  0  0  0  0  0
  150.5565  141.9905  159.2388 H   0  0  0  0  0  0  0  0  0  0  0  0
  152.3176  142.0559  159.3589 H   0  0  0  0  0  0  0  0  0  0  0  0
  154.9025  135.4977  160.1615 H   0  0  0  0  0  0  0  0  0  0  0  0
  156.0730  136.1967  161.2682 H   0  0  0  0  0  0  0  0  0  0  0  0
  153.8882  134.1767  162.0187 H   0  0  0  0  0  0  0  0  0  0  0  0
  155.6099  133.8583  161.9145 H   0  0  0  0  0  0  0  0  0  0  0  0
  153.0898  135.6217  163.8011 H   0  0  0  0  0  0  0  0  0  0  0  0
  154.2620  136.3095  164.9083 H   0  0  0  0  0  0  0  0  0  0  0  0
  155.1983  137.7602  163.1242 H   0  0  0  0  0  0  0  0  0  0  0  0
  153.4631  138.0068  163.2434 H   0  0  0  0  0  0  0  0  0  0  0  0
  153.1651  136.4816  161.4768 H   0  0  0  0  0  0  0  0  0  0  0  0
  149.6456  143.5033  156.0931 H   0  0  0  0  0  0  0  0  0  0  0  0
  1  2  1  0  0  0  0
  1 25  1  0  0  0  0
  1 26  1  0  0  0  0
  1 27  1  0  0  0  0
  2  3  1  0  0  0  0
  2 19  1  0  0  0  0
  2 28  1  0  0  0  0
  3  4  1  0  0  0  0
  3 29  1  0  0  0  0
  3 30  1  0  0  0  0
  4  5  1  0  0  0  0
  5  6  2  0  0  0  0
  5  7  1  0  0  0  0
  7  8  1  0  0  0  0
  7 31  1  0  0  0  0
  8 13  1  0  0  0  0
  8  9  2  0  0  0  0
  9 10  1  0  0  0  0
  9 32  1  0  0  0  0
 10 11  2  0  0  0  0
 10 33  1  0  0  0  0
 11 12  1  0  0  0  0
 11 34  1  0  0  0  0
 12 13  2  0  0  0  0
 12 52  1  0  0  0  0
 13 14  1  0  0  0  0
 14 18  1  0  0  0  0
 14 15  1  0  0  0  0
 15 16  1  0  0  0  0
 15 35  1  0  0  0  0
 15 36  1  0  0  0  0
 16 17  1  0  0  0  0
 16 37  1  0  0  0  0
 16 38  1  0  0  0  0
 17 18  1  0  0  0  0
 17 39  1  0  0  0  0
 17 40  1  0  0  0  0
 18 41  1  0  0  0  0
 18 42  1  0  0  0  0
 19 24  1  0  0  0  0
 19 20  1  0  0  0  0
 19 51  1  0  0  0  0
 20 21  1  0  0  0  0
 20 43  1  0  0  0  0
 20 44  1  0  0  0  0
 21 22  1  0  0  0  0
 21 45  1  0  0  0  0
 21 46  1  0  0  0  0
 22 23  1  0  0  0  0
 23 24  1  0  0  0  0
 23 47  1  0  0  0  0
 23 48  1  0  0  0  0
 24 49  1  0  0  0  0
 24 50  1  0  0  0  0
M  CHG  1   4  -1
M  CHG  1  12   1
M  CHG  1  19   1
M  END
> <s_m_source_file>
AV-unprocessed.smi

> <i_m_source_file_index>
1389

> <i_lp_mmshare_version>
43012

> <i_f3d_flags>
0

> <s_epik_input>
W0NIMl0xW0NIMl1PW0NIMl1bQ0gyXU4xW0NASF0oW0NIM10pW0NIMl1bTkhdQyg9TylbTkhdYzJbY0hdW2NIXVtjSF1uYzJOM1tDSDJdW0NIMl1bQ0gyXVtDSDJdMw==

> <s_epik_cmdline>
J2VwaWtfcHl0aG9uJywgJy1waCcsICc3LjAnLCAnLXRuJywgJzgnLCAnLW1hJywgJzIwMCcsICctbWV0YWxfYmluZGluZycsICctaW1hZScsICc8aW5maWxlLm1hZT4nLCAnLW9tYWUnLCAnPG91dGZpbGUubWFlPic=

> <r_lp_tautomer_probability>
0.999994

> <r_epik_Ionization_Penalty>
8.58362

> <r_epik_Ionization_Penalty_Charging>
8.58361

> <r_epik_Ionization_Penalty_Neutral>
3.55275e-06

> <r_epik_State_Penalty>
8.57766

> <r_epik_Charging_Adjusted_Penalty>
17.1613

> <i_epik_Tot_Q>
1

> <i_epik_Tot_abs_Q>
3

> <r_epik_Metal_State_Penalty>
4.57399

> <b_epik_Metal_Only>
1

> <s_lp_Force_Field>
OPLS_2005

> <r_lp_Energy>
47.3553

> <b_lp_Chiralities_Consistent>
1

> <s_lp_Variant>
AV-unprocessed.smi:1389-10

> <Gold.Version>
5.8.1

> <Gold.Id.Protein>
6NUR|6NUR_protein|mol2

> <Gold.PLP.Fitness>
52.4593

> <Gold.PLP.PLP>
-42.3893

> <Gold.PLP.part.hbond>
-1.8376

> <Gold.PLP.part.metal>
0.0000

> <Gold.PLP.part.buried>
-2.4892

> <Gold.PLP.part.nonpolar>
-37.9268

> <Gold.PLP.part.repulsive>
1.8789

> <Gold.PLP.ligand.clash>
0.0000

> <Gold.PLP.ligand.torsion>
1.2208

> <Gold.PLP.Chemscore.Hbond>
3.8834

> <Gold.PLP.Chemscore.CHOScore>
0.0000

> <Gold.PLP.Chemscore.Metal>
0.0000

> <Gold.Chemscore.Hbonds>
donor molecule, donor type, donor heavy atom, donor atom, acceptor molecule, acceptor atom, score
      L1  H    12    52       P1  8028  1.81
      P1  H  7997  8008       L1     4  1.82

> <Gold.PLP.Chemscore.Internal.Correction>
0.8614

> <Gold.Rescore>
     Score         DG    S(hbond)    S(metal)    S(lipo)     H(rot)  DE(clash)    DE(int)     intcor
     15.74     -18.96       1.16        0.00     117.84       1.63       0.40       2.82       ----

> <Gold.Chemscore.Fitness>
15.7396

> <Gold.Chemscore.DG>
-18.9590

> <Gold.Chemscore.ZeroCoef>
-5.4800

> <Gold.Chemscore.Hbond>
1.1575

> <Gold.Chemscore.Metal>
0.0000

> <Gold.Chemscore.Lipo>
117.8423

> <Gold.Chemscore.Internal_Hbond>
0.0000

> <Gold.Chemscore.DEClash>
0.4017

> <Gold.Chemscore.DEInternal>
2.8176

> <Gold.Chemscore.Rot>
1.6307

> <Gold.Chemscore.Internal.Correction>
   9.000000E+99

> <Gold.Chemscore.Hbonds>
donor molecule, donor type, donor heavy atom, donor atom, acceptor molecule, acceptor atom, score
      L1  H    12    52       P1  8028  0.84
      P1  H  7997  8008       L1     4  0.34

> <Gold.Chemscore.Hbond.Weighted>
-3.8660

> <Gold.Chemscore.Metal.Weighted>
-0.0000

> <Gold.Chemscore.Lipo.Weighted>
-13.7875

> <Gold.Chemscore.Internal_Hbond.Weighted>
0.0000

> <Gold.Chemscore.DEClash.Weighted>
0.4017

> <Gold.Chemscore.DEInternal.Weighted>
2.8176

> <Gold.Chemscore.Rot.Weighted>
4.1746

> <Gold.Chemscore.Internal.Correction.Weighted>
   9.000000E+99

> <Gold.Protein.RotatedTorsions>
[ 6907 6896 6895 6894 ] final   15.94 input  -60.11 | X-H torsion
[ 7974 7965 7964 7962 ] final  -61.58 input  175.53 | X-H torsion
[ 8008 7997 7996 7995 ] final -119.46 input   59.86 | X-H torsion
[ 10167 10162 10161 10158 ] final -159.80 input  -65.29 | X-H torsion
[ 10718 10713 10712 10709 ] final  117.78 input   66.30 | X-H torsion
[ 10763 10752 10751 10750 ] final   79.90 input  -60.55 | X-H torsion
[ 11005 11000 10999 10996 ] final   15.50 input  -57.11 | X-H torsion

> <Gold.Protein.ActiveResidues>
 VAL166  LYS551  ARG553  GLY616  TRP617  ASP618  TYR619  PRO620  LYS621  CYS622 
 ASP623  PHE694  ASN695  SER759  ASP760  ASP761  ALA762  ILE779  LEU786  VAL792 
 PHE793  MET794  SER795  GLU796  ALA797  LYS798  CYS799  TRP800  GLU811  SER814 

> <Gold.Protein.RotatedAtoms>
  151.8260  135.0637  160.0430 H   0  0  0  0  0  0  0  0  0  0  0  0  # atno 6907 bound_to 6896
  152.2916  133.5562  159.5569 H   0  0  0  0  0  0  0  0  0  0  0  0  # atno 6908 bound_to 6896
  150.7232  134.0336  159.3784 H   0  0  0  0  0  0  0  0  0  0  0  0  # atno 6909 bound_to 6896
  145.8018  140.8651  143.0227 H   0  0  0  0  0  0  0  0  0  0  0  0  # atno 7974 bound_to 7965
  155.1160  140.0398  157.2737 H   0  0  0  0  0  0  0  0  0  0  0  0  # atno 8008 bound_to 7997
  154.6649  140.2599  155.7043 H   0  0  0  0  0  0  0  0  0  0  0  0  # atno 8009 bound_to 7997
  156.2634  140.2809  156.1135 H   0  0  0  0  0  0  0  0  0  0  0  0  # atno 8010 bound_to 7997
  139.6587  143.9951  152.2211 H   0  0  0  0  0  0  0  0  0  0  0  0  # atno 10167 bound_to 10162
  157.6074  131.1041  150.7663 H   0  0  0  0  0  0  0  0  0  0  0  0  # atno 10718 bound_to 10713
  153.0989  135.4823  154.8831 H   0  0  0  0  0  0  0  0  0  0  0  0  # atno 10763 bound_to 10752
  154.7357  135.3070  154.8818 H   0  0  0  0  0  0  0  0  0  0  0  0  # atno 10764 bound_to 10752
  153.9441  135.6831  153.4797 H   0  0  0  0  0  0  0  0  0  0  0  0  # atno 10765 bound_to 10752
  140.4576  134.1160  155.7711 H   0  0  0  0  0  0  0  0  0  0  0  0  # atno 11005 bound_to 11000
  144.6768  140.0269  143.7483 LP  0  0  0  0  0  0  0  0  0  0  0  0  # atno 17320 bound_to 7965
  145.9870  139.2985  143.1008 LP  0  0  0  0  0  0  0  0  0  0  0  0  # atno 17321 bound_to 7965
  139.9684  144.6510  150.8012 LP  0  0  0  0  0  0  0  0  0  0  0  0  # atno 17342 bound_to 10162
  140.7571  143.3079  151.2918 LP  0  0  0  0  0  0  0  0  0  0  0  0  # atno 17343 bound_to 10162
  156.8048  130.4933  149.5364 LP  0  0  0  0  0  0  0  0  0  0  0  0  # atno 17370 bound_to 10713
  156.1165  130.6078  151.0128 LP  0  0  0  0  0  0  0  0  0  0  0  0  # atno 17371 bound_to 10713
  141.1636  133.8746  157.1779 LP  0  0  0  0  0  0  0  0  0  0  0  0  # atno 17394 bound_to 11000
  139.9966  135.0044  157.0096 LP  0  0  0  0  0  0  0  0  0  0  0  0  # atno 17395 bound_to 11000

$$$$
