AV-unprocessed.smi:3330|AV-procd|sdf|12809|dock10
  -GOLD-   2272019173D 1   1.00000     0.00000
 Structure written by MMmdl.
 38 39  0  0  0  0  0  0  0  0  3 V2000
  146.2054  135.6829  154.0974 C   0  0  0  0  0  0  0  0  0  0  0  0
  146.1759  134.5064  153.1076 C   0  0  2  0  0  0  0  0  0  0  0  0
  147.5549  133.9875  152.9636 N   0  3  0  0  0  0  0  0  0  0  0  0
  148.0429  133.1693  154.0938 C   0  0  0  0  0  0  0  0  0  0  0  0
  149.5335  133.4237  154.3835 C   0  0  0  0  0  0  0  0  0  0  0  0
  149.7398  134.2433  155.5847 N   0  0  0  0  0  0  0  0  0  0  0  0
  150.3961  135.4082  155.6052 C   0  0  0  0  0  0  0  0  0  0  0  0
  150.9274  135.9913  154.6603 O   0  0  0  0  0  0  0  0  0  0  0  0
  150.3486  135.9332  157.0206 C   0  0  0  0  0  0  0  0  0  0  0  0
  149.5843  134.9129  157.7012 N   0  5  0  0  0  0  0  0  0  0  0  0
  149.2605  133.9496  156.8083 C   0  0  0  0  0  0  0  0  0  0  0  0
  148.6079  132.9300  157.0280 O   0  0  0  0  0  0  0  0  0  0  0  0
  145.5961  134.9003  151.7217 C   0  0  2  0  0  0  0  0  0  0  0  0
  144.2830  135.7012  151.8162 C   0  0  0  0  0  0  0  0  0  0  0  0
  145.4016  133.7320  150.8703 N   0  0  0  0  0  0  0  0  0  0  0  0
  144.2598  133.3470  150.1977 C   0  0  0  0  0  0  0  0  0  0  0  0
  144.5502  132.1952  149.5244 C   0  0  0  0  0  0  0  0  0  0  0  0
  145.9122  131.9465  149.8514 C   0  0  0  0  0  0  0  0  0  0  0  0
  146.4189  132.8672  150.6550 N   0  0  0  0  0  0  0  0  0  0  0  0
  145.2026  136.0333  154.3403 H   0  0  0  0  0  0  0  0  0  0  0  0
  146.7691  136.5265  153.6973 H   0  0  0  0  0  0  0  0  0  0  0  0
  146.6737  135.3883  155.0373 H   0  0  0  0  0  0  0  0  0  0  0  0
  145.5459  133.7299  153.5456 H   0  0  0  0  0  0  0  0  0  0  0  0
  147.6098  133.4388  152.1177 H   0  0  0  0  0  0  0  0  0  0  0  0
  147.4497  133.4027  154.9790 H   0  0  0  0  0  0  0  0  0  0  0  0
  147.8874  132.1126  153.8773 H   0  0  0  0  0  0  0  0  0  0  0  0
  150.0544  132.4718  154.4981 H   0  0  0  0  0  0  0  0  0  0  0  0
  149.9934  133.9033  153.5178 H   0  0  0  0  0  0  0  0  0  0  0  0
  151.3612  136.0460  157.4097 H   0  0  0  0  0  0  0  0  0  0  0  0
  149.8694  136.9127  157.0370 H   0  0  0  0  0  0  0  0  0  0  0  0
  146.3264  135.5371  151.2195 H   0  0  0  0  0  0  0  0  0  0  0  0
  144.4364  136.6731  152.2842 H   0  0  0  0  0  0  0  0  0  0  0  0
  143.5283  135.1675  152.3947 H   0  0  0  0  0  0  0  0  0  0  0  0
  143.8683  135.8893  150.8251 H   0  0  0  0  0  0  0  0  0  0  0  0
  143.3445  133.9181  150.2523 H   0  0  0  0  0  0  0  0  0  0  0  0
  143.8898  131.6161  148.8958 H   0  0  0  0  0  0  0  0  0  0  0  0
  146.5431  131.1308  149.5304 H   0  0  0  0  0  0  0  0  0  0  0  0
  148.1771  134.7778  152.8702 H   0  0  0  0  0  0  0  0  0  0  0  0
  1  2  1  0  0  0  0
  1 20  1  0  0  0  0
  1 21  1  0  0  0  0
  1 22  1  0  0  0  0
  2  3  1  0  0  0  0
  2 13  1  0  0  0  0
  2 23  1  0  0  0  0
  3  4  1  0  0  0  0
  3 24  1  0  0  0  0
  3 38  1  0  0  0  0
  4  5  1  0  0  0  0
  4 25  1  0  0  0  0
  4 26  1  0  0  0  0
  5  6  1  0  0  0  0
  5 27  1  0  0  0  0
  5 28  1  0  0  0  0
  6 11  1  0  0  0  0
  6  7  1  0  0  0  0
  7  8  2  0  0  0  0
  7  9  1  0  0  0  0
  9 10  1  0  0  0  0
  9 29  1  0  0  0  0
  9 30  1  0  0  0  0
 10 11  1  0  0  0  0
 11 12  2  0  0  0  0
 13 14  1  0  0  0  0
 13 15  1  0  0  0  0
 13 31  1  0  0  0  0
 14 32  1  0  0  0  0
 14 33  1  0  0  0  0
 14 34  1  0  0  0  0
 15 19  1  0  0  0  0
 15 16  1  0  0  0  0
 16 17  2  0  0  0  0
 16 35  1  0  0  0  0
 17 18  1  0  0  0  0
 17 36  1  0  0  0  0
 18 19  2  0  0  0  0
 18 37  1  0  0  0  0
M  CHG  1   3   1
M  CHG  1  10  -1
M  END
> <s_m_source_file>
AV-unprocessed.smi

> <i_m_source_file_index>
3330

> <i_lp_mmshare_version>
43012

> <i_f3d_flags>
0

> <s_epik_input>
bjFbY0hdW2NIXVtjSF1uMVtDQEBIXShbQ0gzXSlbQ0BIXShbQ0gzXSlbTkhdW0NIMl1bQ0gyXU4yQyg9TylbQ0gyXVtOSF1DMj1P

> <s_epik_cmdline>
J2VwaWtfcHl0aG9uJywgJy1waCcsICc3LjAnLCAnLXRuJywgJzgnLCAnLW1hJywgJzIwMCcsICctbWV0YWxfYmluZGluZycsICctaW1hZScsICc8aW5maWxlLm1hZT4nLCAnLW9tYWUnLCAnPG91dGZpbGUubWFlPic=

> <r_lp_tautomer_probability>
1

> <r_epik_Ionization_Penalty>
5.18149

> <r_epik_Ionization_Penalty_Charging>
5.18148

> <r_epik_Ionization_Penalty_Neutral>
9.83265e-06

> <r_epik_State_Penalty>
5.18201

> <r_epik_Charging_Adjusted_Penalty>
10.3635

> <i_epik_Tot_Q>
0

> <i_epik_Tot_abs_Q>
2

> <r_epik_Metal_State_Penalty>
1.25422

> <b_epik_Metal_Only>
1

> <s_lp_Force_Field>
OPLS_2005

> <r_lp_Energy>
23.9108

> <b_lp_Chiralities_Consistent>
1

> <s_lp_Variant>
AV-unprocessed.smi:3330-9

> <Gold.Version>
5.8.1

> <Gold.Id.Protein>
6NUR|6NUR_protein|mol2

> <Gold.PLP.Fitness>
49.9246

> <Gold.PLP.PLP>
-31.0659

> <Gold.PLP.part.hbond>
-3.0000

> <Gold.PLP.part.metal>
0.0000

> <Gold.PLP.part.buried>
-6.0964

> <Gold.PLP.part.nonpolar>
-23.8169

> <Gold.PLP.part.repulsive>
0.3997

> <Gold.PLP.ligand.clash>
0.0000

> <Gold.PLP.ligand.torsion>
0.8987

> <Gold.PLP.Chemscore.Hbond>
4.9840

> <Gold.PLP.Chemscore.CHOScore>
1.8559

> <Gold.PLP.Chemscore.Metal>
0.0000

> <Gold.Chemscore.Hbonds>
donor molecule, donor type, donor heavy atom, donor atom, acceptor molecule, acceptor atom, score
      L1  H     3    38       P1  7948  2.00
      P1  H  6896  6909       L1    10  1.55
      P1  H 10752 10763       L1     8  0.99
      L1  C    16    35       P1 10186  1.00
      L1  C    18    37       P1 10747  0.87

> <Gold.PLP.Chemscore.Internal.Correction>
0.1363

> <Gold.Rescore>
     Score         DG    S(hbond)    S(metal)    S(lipo)     H(rot)  DE(clash)    DE(int)     intcor
      9.98     -13.41       2.34        0.00      57.64       2.59       0.12       3.31       ----

> <Gold.Chemscore.Fitness>
9.9793

> <Gold.Chemscore.DG>
-13.4121

> <Gold.Chemscore.ZeroCoef>
-5.4800

> <Gold.Chemscore.Hbond>
2.3411

> <Gold.Chemscore.Metal>
0.0000

> <Gold.Chemscore.Lipo>
57.6392

> <Gold.Chemscore.Internal_Hbond>
0.0000

> <Gold.Chemscore.DEClash>
0.1214

> <Gold.Chemscore.DEInternal>
3.3113

> <Gold.Chemscore.Rot>
2.5903

> <Gold.Chemscore.Internal.Correction>
   9.000000E+99

> <Gold.Chemscore.Hbonds>
donor molecule, donor type, donor heavy atom, donor atom, acceptor molecule, acceptor atom, score
      L1  H     3    38       P1  7948  0.71
      P1  H  6896  6909       L1    10  0.46
      P1  H 10752 10763       L1     8  0.81

> <Gold.Chemscore.Hbond.Weighted>
-7.8194

> <Gold.Chemscore.Metal.Weighted>
-0.0000

> <Gold.Chemscore.Lipo.Weighted>
-6.7438

> <Gold.Chemscore.Internal_Hbond.Weighted>
0.0000

> <Gold.Chemscore.DEClash.Weighted>
0.1214

> <Gold.Chemscore.DEInternal.Weighted>
3.3113

> <Gold.Chemscore.Rot.Weighted>
6.6311

> <Gold.Chemscore.Internal.Correction.Weighted>
   9.000000E+99

> <Gold.Protein.RotatedTorsions>
[ 6907 6896 6895 6894 ] final   20.61 input  -60.11 | X-H torsion
[ 7974 7965 7964 7962 ] final  160.99 input  175.53 | X-H torsion
[ 8008 7997 7996 7995 ] final  -36.81 input   59.86 | X-H torsion
[ 10167 10162 10161 10158 ] final  141.08 input  -65.29 | X-H torsion
[ 10718 10713 10712 10709 ] final    3.49 input   66.30 | X-H torsion
[ 10763 10752 10751 10750 ] final   51.95 input  -60.55 | X-H torsion
[ 11005 11000 10999 10996 ] final -115.94 input  -57.11 | X-H torsion

> <Gold.Protein.ActiveResidues>
 VAL166  LYS551  ARG553  GLY616  TRP617  ASP618  TYR619  PRO620  LYS621  CYS622 
 ASP623  PHE694  ASN695  SER759  ASP760  ASP761  ALA762  ILE779  LEU786  VAL792 
 PHE793  MET794  SER795  GLU796  ALA797  LYS798  CYS799  TRP800  GLU811  SER814 

> <Gold.Protein.RotatedAtoms>
  151.8990  135.0386  160.0504 H   0  0  0  0  0  0  0  0  0  0  0  0  # atno 6907 bound_to 6896
  152.2374  133.5102  159.5258 H   0  0  0  0  0  0  0  0  0  0  0  0  # atno 6908 bound_to 6896
  150.7043  134.1052  159.4023 H   0  0  0  0  0  0  0  0  0  0  0  0  # atno 6909 bound_to 6896
  144.7708  139.7835  143.6297 H   0  0  0  0  0  0  0  0  0  0  0  0  # atno 7974 bound_to 7965
  154.4065  140.1621  156.2435 H   0  0  0  0  0  0  0  0  0  0  0  0  # atno 8008 bound_to 7997
  155.9180  140.3423  155.6128 H   0  0  0  0  0  0  0  0  0  0  0  0  # atno 8009 bound_to 7997
  155.7256  140.0774  157.2302 H   0  0  0  0  0  0  0  0  0  0  0  0  # atno 8010 bound_to 7997
  139.5030  144.6194  151.6088 H   0  0  0  0  0  0  0  0  0  0  0  0  # atno 10167 bound_to 10162
  156.8785  130.5645  149.5654 H   0  0  0  0  0  0  0  0  0  0  0  0  # atno 10718 bound_to 10713
  152.9787  135.5829  154.4499 H   0  0  0  0  0  0  0  0  0  0  0  0  # atno 10763 bound_to 10752
  154.4089  135.2770  155.2051 H   0  0  0  0  0  0  0  0  0  0  0  0  # atno 10764 bound_to 10752
  154.3850  135.6138  153.5865 H   0  0  0  0  0  0  0  0  0  0  0  0  # atno 10765 bound_to 10752
  141.0455  133.9770  157.2925 H   0  0  0  0  0  0  0  0  0  0  0  0  # atno 11005 bound_to 11000
  146.1853  139.5066  142.9840 LP  0  0  0  0  0  0  0  0  0  0  0  0  # atno 17320 bound_to 7965
  145.6329  141.0300  143.1853 LP  0  0  0  0  0  0  0  0  0  0  0  0  # atno 17321 bound_to 7965
  140.5891  143.9811  150.6314 LP  0  0  0  0  0  0  0  0  0  0  0  0  # atno 17342 bound_to 10162
  140.2986  143.3276  152.0994 LP  0  0  0  0  0  0  0  0  0  0  0  0  # atno 17343 bound_to 10162
  156.0689  130.5726  150.9344 LP  0  0  0  0  0  0  0  0  0  0  0  0  # atno 17370 bound_to 10713
  157.6154  131.0933  150.8720 LP  0  0  0  0  0  0  0  0  0  0  0  0  # atno 17371 bound_to 10713
  139.9308  135.0200  156.8394 LP  0  0  0  0  0  0  0  0  0  0  0  0  # atno 17394 bound_to 11000
  140.6155  134.0042  155.7595 LP  0  0  0  0  0  0  0  0  0  0  0  0  # atno 17395 bound_to 11000

$$$$
