AV-unprocessed.smi:167|AV-procd|sdf|1395|dock8
  -GOLD-   2262019133D 1   1.00000     0.00000
 Structure written by MMmdl.
 51 55  0  0  0  0  0  0  0  0  1 V2000
  151.8596  137.4236  153.8129 O   0  0  0  0  0  0  0  0  0  0  0  0
  150.9212  137.4249  154.8672 C   0  0  0  0  0  0  0  0  0  0  0  0
  150.2923  138.8237  155.0159 C   0  0  1  0  0  0  0  0  0  0  0  0
  149.6556  139.3719  153.7222 C   0  0  0  0  0  0  0  0  0  0  0  0
  148.2260  139.7064  154.1966 C   0  0  2  0  0  0  0  0  0  0  0  0
  148.2741  140.9425  155.1118 C   0  0  0  0  0  0  0  0  0  0  0  0
  148.8570  140.3398  156.4010 C   0  0  0  0  0  0  0  0  0  0  0  0
  149.0788  138.8760  155.9785 C   0  0  1  0  0  0  0  0  0  0  0  0
  147.9146  138.6404  155.1362 N   0  0  0  0  0  0  0  0  0  0  0  0
  147.5965  137.3893  154.7061 C   0  0  0  0  0  0  0  0  0  0  0  0
  148.3178  136.3325  155.1656 N   0  0  0  0  0  0  0  0  0  0  0  0
  148.0243  135.0894  154.7758 C   0  0  0  0  0  0  0  0  0  0  0  0
  147.0711  134.6823  153.9369 N   0  0  0  0  0  0  0  0  0  0  0  0
  146.3554  135.7367  153.4517 C   0  0  0  0  0  0  0  0  0  0  0  0
  146.5507  137.1101  153.7778 C   0  0  0  0  0  0  0  0  0  0  0  0
  145.6304  137.8882  153.0855 N   0  0  0  0  0  0  0  0  0  0  0  0
  144.9229  137.0274  152.4073 C   0  0  0  0  0  0  0  0  0  0  0  0
  145.2993  135.7116  152.5562 N   0  0  0  0  0  0  0  0  0  0  0  0
  144.6867  134.5629  151.9507 C   0  0  0  0  0  0  0  0  0  0  0  0
  145.2966  133.1618  152.0720 C   0  0  0  0  0  0  0  0  0  0  0  0
  144.7826  132.8311  150.6509 C   0  0  0  0  0  0  0  0  0  0  0  0
  145.7305  132.0165  149.7488 C   0  0  0  0  0  0  0  0  0  0  0  0
  146.4447  131.0277  150.4641 O   0  0  0  0  0  0  0  0  0  0  0  0
  143.4136  132.1253  150.6286 C   0  0  0  0  0  0  0  0  0  0  0  0
  142.8721  132.0788  149.3239 O   0  0  0  0  0  0  0  0  0  0  0  0
  144.7433  134.3628  150.4357 C   0  0  0  0  0  0  0  0  0  0  0  0
  151.4066  137.2215  153.0083 H   0  0  0  0  0  0  0  0  0  0  0  0
  150.1708  136.6605  154.6691 H   0  0  0  0  0  0  0  0  0  0  0  0
  151.4347  137.1419  155.7863 H   0  0  0  0  0  0  0  0  0  0  0  0
  151.0682  139.5024  155.3743 H   0  0  0  0  0  0  0  0  0  0  0  0
  150.1830  140.2419  153.3297 H   0  0  0  0  0  0  0  0  0  0  0  0
  149.6348  138.6155  152.9363 H   0  0  0  0  0  0  0  0  0  0  0  0
  147.5136  139.8217  153.3789 H   0  0  0  0  0  0  0  0  0  0  0  0
  148.8881  141.7452  154.7019 H   0  0  0  0  0  0  0  0  0  0  0  0
  147.2731  141.3366  155.2915 H   0  0  0  0  0  0  0  0  0  0  0  0
  149.7711  140.8356  156.7291 H   0  0  0  0  0  0  0  0  0  0  0  0
  148.1311  140.4018  157.2126 H   0  0  0  0  0  0  0  0  0  0  0  0
  149.1819  138.2217  156.8424 H   0  0  0  0  0  0  0  0  0  0  0  0
  148.6407  134.3095  155.1977 H   0  0  0  0  0  0  0  0  0  0  0  0
  144.1008  137.3362  151.7784 H   0  0  0  0  0  0  0  0  0  0  0  0
  143.6516  134.5422  152.2958 H   0  0  0  0  0  0  0  0  0  0  0  0
  146.3837  133.1734  152.1517 H   0  0  0  0  0  0  0  0  0  0  0  0
  144.8623  132.5537  152.8660 H   0  0  0  0  0  0  0  0  0  0  0  0
  145.1753  131.5190  148.9530 H   0  0  0  0  0  0  0  0  0  0  0  0
  146.4636  132.6619  149.2644 H   0  0  0  0  0  0  0  0  0  0  0  0
  147.3034  130.9410  150.0788 H   0  0  0  0  0  0  0  0  0  0  0  0
  143.4916  131.1071  151.0115 H   0  0  0  0  0  0  0  0  0  0  0  0
  142.6941  132.6363  151.2686 H   0  0  0  0  0  0  0  0  0  0  0  0
  142.1494  132.6859  149.2767 H   0  0  0  0  0  0  0  0  0  0  0  0
  143.8661  134.7329  149.9038 H   0  0  0  0  0  0  0  0  0  0  0  0
  145.6579  134.7670  149.9993 H   0  0  0  0  0  0  0  0  0  0  0  0
  1  2  1  0  0  0  0
  1 27  1  0  0  0  0
  2  3  1  0  0  0  0
  2 28  1  0  0  0  0
  2 29  1  0  0  0  0
  3  8  1  0  0  0  0
  3  4  1  0  0  0  0
  3 30  1  0  0  0  0
  4  5  1  0  0  0  0
  4 31  1  0  0  0  0
  4 32  1  0  0  0  0
  5  9  1  0  0  0  0
  5  6  1  0  0  0  0
  5 33  1  0  0  0  0
  6  7  1  0  0  0  0
  6 34  1  0  0  0  0
  6 35  1  0  0  0  0
  7  8  1  0  0  0  0
  7 36  1  0  0  0  0
  7 37  1  0  0  0  0
  8  9  1  0  0  0  0
  8 38  1  0  0  0  0
  9 10  1  0  0  0  0
 10 15  1  0  0  0  0
 10 11  2  0  0  0  0
 11 12  1  0  0  0  0
 12 13  2  0  0  0  0
 12 39  1  0  0  0  0
 13 14  1  0  0  0  0
 14 18  1  0  0  0  0
 14 15  2  0  0  0  0
 15 16  1  0  0  0  0
 16 17  2  0  0  0  0
 17 18  1  0  0  0  0
 17 40  1  0  0  0  0
 18 19  1  0  0  0  0
 19 26  1  0  0  0  0
 19 20  1  0  0  0  0
 19 41  1  0  0  0  0
 20 21  1  0  0  0  0
 20 42  1  0  0  0  0
 20 43  1  0  0  0  0
 21 22  1  0  0  0  0
 21 24  1  0  0  0  0
 21 26  1  0  0  0  0
 22 23  1  0  0  0  0
 22 44  1  0  0  0  0
 22 45  1  0  0  0  0
 23 46  1  0  0  0  0
 24 25  1  0  0  0  0
 24 47  1  0  0  0  0
 24 48  1  0  0  0  0
 25 49  1  0  0  0  0
 26 50  1  0  0  0  0
 26 51  1  0  0  0  0
M  END
> <s_m_source_file>
AV-unprocessed.smi

> <i_m_source_file_index>
167

> <i_lp_mmshare_version>
43012

> <i_f3d_flags>
0

> <s_epik_input>
W09IXVtDSDJdW0NASF0oW0NIMl1bQ0BASF0xMilbQ0BIXShbQ0gyXVtDSDJdMSlOMmMobltjSF1uMyljKGMzNCluW2NIXW40W0NIXShbQ0gyXTUpW0NIMl1DNShbQ0gyXVtPSF0pW0NIMl1bT0hd

> <s_epik_cmdline>
J2VwaWtfcHl0aG9uJywgJy1waCcsICc3LjAnLCAnLXRuJywgJzgnLCAnLW1hJywgJzIwMCcsICctbWV0YWxfYmluZGluZycsICctaW1hZScsICc8aW5maWxlLm1hZT4nLCAnLW9tYWUnLCAnPG91dGZpbGUubWFlPic=

> <r_lp_tautomer_probability>
1

> <r_epik_Ionization_Penalty>
0.0047903

> <r_epik_Ionization_Penalty_Charging>
0

> <r_epik_Ionization_Penalty_Neutral>
0.0047903

> <r_epik_State_Penalty>
0.00341021

> <r_epik_Charging_Adjusted_Penalty>
0.00341021

> <i_epik_Tot_Q>
0

> <i_epik_Tot_abs_Q>
0

> <r_epik_Metal_State_Penalty>
-0

> <b_epik_Metal_Only>
0

> <s_lp_Force_Field>
OPLS_2005

> <r_lp_Energy>
89.2094

> <b_lp_Chiralities_Consistent>
1

> <s_lp_Variant>
AV-unprocessed.smi:167-4

> <Gold.Version>
5.8.1

> <Gold.Id.Protein>
6NUR|6NUR_protein|mol2

> <Gold.PLP.Fitness>
49.9258

> <Gold.PLP.PLP>
-33.6652

> <Gold.PLP.part.hbond>
-5.9767

> <Gold.PLP.part.metal>
0.0000

> <Gold.PLP.part.buried>
-1.3919

> <Gold.PLP.part.nonpolar>
-27.7093

> <Gold.PLP.part.repulsive>
0.4737

> <Gold.PLP.ligand.clash>
0.0000

> <Gold.PLP.ligand.torsion>
0.8767

> <Gold.PLP.Chemscore.Hbond>
4.8525

> <Gold.PLP.Chemscore.CHOScore>
1.0000

> <Gold.PLP.Chemscore.Metal>
0.0000

> <Gold.Chemscore.Hbonds>
donor molecule, donor type, donor heavy atom, donor atom, acceptor molecule, acceptor atom, score
      L1  H     1    27       P1  7949  0.96
      L1  H    23    46       P1 10747  1.00
      L1  H    25    49       P1 10186  0.88
      P1  H 10752 10764       L1     1  0.88
      P1  H 10785 10796       L1    25  0.96
      L1  C    17    40       P1 10171  1.00

> <Gold.PLP.Chemscore.Internal.Correction>
0.4565

> <Gold.Rescore>
     Score         DG    S(hbond)    S(metal)    S(lipo)     H(rot)  DE(clash)    DE(int)     intcor
     11.72     -16.66       3.56        0.00      85.86       4.20       1.70       3.24       ----

> <Gold.Chemscore.Fitness>
11.7166

> <Gold.Chemscore.DG>
-16.6559

> <Gold.Chemscore.ZeroCoef>
-5.4800

> <Gold.Chemscore.Hbond>
3.5605

> <Gold.Chemscore.Metal>
0.0000

> <Gold.Chemscore.Lipo>
85.8591

> <Gold.Chemscore.Internal_Hbond>
0.0000

> <Gold.Chemscore.DEClash>
1.7030

> <Gold.Chemscore.DEInternal>
3.2363

> <Gold.Chemscore.Rot>
4.2038

> <Gold.Chemscore.Internal.Correction>
   9.000000E+99

> <Gold.Chemscore.Hbonds>
donor molecule, donor type, donor heavy atom, donor atom, acceptor molecule, acceptor atom, score
      L1  H     1    27       P1  7949  0.74
      L1  H    23    46       P1 10747  0.95
      L1  H    25    49       P1 10186  0.84
      P1  H 10752 10764       L1     1  0.14
      P1  H 10785 10796       L1    25  0.41

> <Gold.Chemscore.Hbond.Weighted>
-11.8921

> <Gold.Chemscore.Metal.Weighted>
-0.0000

> <Gold.Chemscore.Lipo.Weighted>
-10.0455

> <Gold.Chemscore.Internal_Hbond.Weighted>
0.0000

> <Gold.Chemscore.DEClash.Weighted>
1.7030

> <Gold.Chemscore.DEInternal.Weighted>
3.2363

> <Gold.Chemscore.Rot.Weighted>
10.7617

> <Gold.Chemscore.Internal.Correction.Weighted>
   9.000000E+99

> <Gold.Protein.RotatedTorsions>
[ 6907 6896 6895 6894 ] final -144.92 input  -60.11 | X-H torsion
[ 7974 7965 7964 7962 ] final  132.51 input  175.53 | X-H torsion
[ 8008 7997 7996 7995 ] final  -95.28 input   59.86 | X-H torsion
[ 10167 10162 10161 10158 ] final -100.78 input  -65.29 | X-H torsion
[ 10718 10713 10712 10709 ] final   78.71 input   66.30 | X-H torsion
[ 10763 10752 10751 10750 ] final  -89.27 input  -60.55 | X-H torsion
[ 11005 11000 10999 10996 ] final  169.65 input  -57.11 | X-H torsion

> <Gold.Protein.ActiveResidues>
 VAL166  LYS551  ARG553  GLY616  TRP617  ASP618  TYR619  PRO620  LYS621  CYS622 
 ASP623  PHE694  ASN695  SER759  ASP760  ASP761  ALA762  ILE779  LEU786  VAL792 
 PHE793  MET794  SER795  GLU796  ALA797  LYS798  CYS799  TRP800  GLU811  SER814 

> <Gold.Protein.RotatedAtoms>
  151.1206  133.5106  159.2602 H   0  0  0  0  0  0  0  0  0  0  0  0  # atno 6907 bound_to 6896
  151.1865  135.0383  159.8824 H   0  0  0  0  0  0  0  0  0  0  0  0  # atno 6908 bound_to 6896
  152.5455  134.1052  159.8388 H   0  0  0  0  0  0  0  0  0  0  0  0  # atno 6909 bound_to 6896
  144.9960  139.4358  143.5315 H   0  0  0  0  0  0  0  0  0  0  0  0  # atno 7974 bound_to 7965
  154.7594  140.0481  157.0960 H   0  0  0  0  0  0  0  0  0  0  0  0  # atno 8008 bound_to 7997
  154.9957  140.3118  155.4868 H   0  0  0  0  0  0  0  0  0  0  0  0  # atno 8009 bound_to 7997
  156.2901  140.2210  156.5064 H   0  0  0  0  0  0  0  0  0  0  0  0  # atno 8010 bound_to 7997
  140.2483  143.3490  152.0738 H   0  0  0  0  0  0  0  0  0  0  0  0  # atno 10167 bound_to 10162
  157.6754  130.9881  150.1826 H   0  0  0  0  0  0  0  0  0  0  0  0  # atno 10718 bound_to 10713
  154.6535  135.5347  153.7930 H   0  0  0  0  0  0  0  0  0  0  0  0  # atno 10763 bound_to 10752
  153.0400  135.6488  154.0981 H   0  0  0  0  0  0  0  0  0  0  0  0  # atno 10764 bound_to 10752
  154.0896  135.2941  155.3254 H   0  0  0  0  0  0  0  0  0  0  0  0  # atno 10765 bound_to 10752
  140.3000  134.7603  157.3908 H   0  0  0  0  0  0  0  0  0  0  0  0  # atno 11005 bound_to 11000
  146.3442  139.9321  142.8752 LP  0  0  0  0  0  0  0  0  0  0  0  0  # atno 17320 bound_to 7965
  145.2218  140.9938  143.4041 LP  0  0  0  0  0  0  0  0  0  0  0  0  # atno 17321 bound_to 7965
  139.5054  144.6795  151.6045 LP  0  0  0  0  0  0  0  0  0  0  0  0  # atno 17342 bound_to 10162
  140.6060  143.9523  150.6419 LP  0  0  0  0  0  0  0  0  0  0  0  0  # atno 17343 bound_to 10162
  156.2555  130.3705  149.8186 LP  0  0  0  0  0  0  0  0  0  0  0  0  # atno 17370 bound_to 10713
  156.5946  130.8521  151.3416 LP  0  0  0  0  0  0  0  0  0  0  0  0  # atno 17371 bound_to 10713
  140.1118  134.5335  155.8259 LP  0  0  0  0  0  0  0  0  0  0  0  0  # atno 17394 bound_to 11000
  141.2130  133.6727  156.6703 LP  0  0  0  0  0  0  0  0  0  0  0  0  # atno 17395 bound_to 11000

$$$$
