AV-unprocessed.smi:1622|AV-procd|sdf|6497|dock9
  -GOLD-   22720 7163D 1   1.00000     0.00000
 Structure written by MMmdl.
 41 42  0  0  0  0  0  0  0  0  2 V2000
  145.9285  137.5155  151.9112 C   0  0  0  0  0  0  0  0  0  0  0  0
  145.5015  136.0727  151.5953 C   0  0  0  0  0  0  0  0  0  0  0  0
  143.9721  135.8689  151.4205 C   0  0  2  0  0  0  0  0  0  0  0  0
  143.1695  136.1949  152.7080 C   0  0  0  0  0  0  0  0  0  0  0  0
  142.6847  137.5733  152.7345 N   0  0  0  0  0  0  0  0  0  0  0  0
  141.4083  137.9464  152.9104 C   0  0  0  0  0  0  0  0  0  0  0  0
  140.4833  137.1495  153.0659 O   0  0  0  0  0  0  0  0  0  0  0  0
  141.2844  139.2854  152.8949 N   0  0  0  0  0  0  0  0  0  0  0  0
  140.1090  140.0599  153.0841 C   0  0  0  0  0  0  0  0  0  0  0  0
  140.0954  141.2551  153.6902 N   0  0  0  0  0  0  0  0  0  0  0  0
  138.8191  141.7979  153.7358 N   0  0  0  0  0  0  0  0  0  0  0  0
  137.9078  141.0002  153.1661 C   0  0  0  0  0  0  0  0  0  0  0  0
  136.4630  141.3572  153.0839 C   0  0  0  0  0  0  0  0  0  0  0  0
  138.5477  139.4969  152.5128 S   0  0  0  0  0  0  0  0  0  0  0  0
  143.6583  134.5002  150.9108 N   0  3  0  0  0  0  0  0  0  0  0  0
  144.4811  134.0379  149.7728 C   0  0  0  0  0  0  0  0  0  0  0  0
  144.2918  132.5221  149.7125 C   0  0  0  0  0  0  0  0  0  0  0  0
  143.8892  132.1086  151.1300 C   0  0  0  0  0  0  0  0  0  0  0  0
  143.7415  133.4159  151.9149 C   0  0  0  0  0  0  0  0  0  0  0  0
  147.0119  137.5801  152.0119 H   0  0  0  0  0  0  0  0  0  0  0  0
  145.4920  137.8688  152.8453 H   0  0  0  0  0  0  0  0  0  0  0  0
  145.6345  138.2073  151.1233 H   0  0  0  0  0  0  0  0  0  0  0  0
  146.0234  135.7426  150.6973 H   0  0  0  0  0  0  0  0  0  0  0  0
  145.8772  135.4163  152.3802 H   0  0  0  0  0  0  0  0  0  0  0  0
  143.6446  136.5742  150.6547 H   0  0  0  0  0  0  0  0  0  0  0  0
  142.2812  135.5671  152.7717 H   0  0  0  0  0  0  0  0  0  0  0  0
  143.7629  135.9622  153.5935 H   0  0  0  0  0  0  0  0  0  0  0  0
  143.3758  138.2991  152.6104 H   0  0  0  0  0  0  0  0  0  0  0  0
  142.1296  139.8146  152.7391 H   0  0  0  0  0  0  0  0  0  0  0  0
  136.2032  142.0803  153.8577 H   0  0  0  0  0  0  0  0  0  0  0  0
  135.8482  140.4673  153.2194 H   0  0  0  0  0  0  0  0  0  0  0  0
  136.2424  141.7917  152.1090 H   0  0  0  0  0  0  0  0  0  0  0  0
  144.1924  134.5147  148.8355 H   0  0  0  0  0  0  0  0  0  0  0  0
  145.5303  134.2691  149.9645 H   0  0  0  0  0  0  0  0  0  0  0  0
  143.4895  132.2739  149.0163 H   0  0  0  0  0  0  0  0  0  0  0  0
  145.1933  132.0128  149.3705 H   0  0  0  0  0  0  0  0  0  0  0  0
  142.9447  131.5636  151.1072 H   0  0  0  0  0  0  0  0  0  0  0  0
  144.6330  131.4565  151.5891 H   0  0  0  0  0  0  0  0  0  0  0  0
  144.6238  133.5646  152.5397 H   0  0  0  0  0  0  0  0  0  0  0  0
  142.8671  133.3978  152.5659 H   0  0  0  0  0  0  0  0  0  0  0  0
  142.7028  134.5135  150.5830 H   0  0  0  0  0  0  0  0  0  0  0  0
  1  2  1  0  0  0  0
  1 20  1  0  0  0  0
  1 21  1  0  0  0  0
  1 22  1  0  0  0  0
  2  3  1  0  0  0  0
  2 23  1  0  0  0  0
  2 24  1  0  0  0  0
  3  4  1  0  0  0  0
  3 15  1  0  0  0  0
  3 25  1  0  0  0  0
  4  5  1  0  0  0  0
  4 26  1  0  0  0  0
  4 27  1  0  0  0  0
  5  6  1  0  0  0  0
  5 28  1  0  0  0  0
  6  7  2  0  0  0  0
  6  8  1  0  0  0  0
  8  9  1  0  0  0  0
  8 29  1  0  0  0  0
  9 14  1  0  0  0  0
  9 10  2  0  0  0  0
 10 11  1  0  0  0  0
 11 12  2  0  0  0  0
 12 13  1  0  0  0  0
 12 14  1  0  0  0  0
 13 30  1  0  0  0  0
 13 31  1  0  0  0  0
 13 32  1  0  0  0  0
 15 19  1  0  0  0  0
 15 16  1  0  0  0  0
 15 41  1  0  0  0  0
 16 17  1  0  0  0  0
 16 33  1  0  0  0  0
 16 34  1  0  0  0  0
 17 18  1  0  0  0  0
 17 35  1  0  0  0  0
 17 36  1  0  0  0  0
 18 19  1  0  0  0  0
 18 37  1  0  0  0  0
 18 38  1  0  0  0  0
 19 39  1  0  0  0  0
 19 40  1  0  0  0  0
M  CHG  1  15   1
M  END
> <s_m_source_file>
AV-unprocessed.smi

> <i_m_source_file_index>
1622

> <i_lp_mmshare_version>
43012

> <i_f3d_flags>
0

> <s_epik_input>
W0NIMl0xW0NIMl1bQ0gyXVtDSDJdTjFbQ0BIXShbQ0gyXVtDSDNdKVtDSDJdW05IXUMoPU8pW05IXWMybm5jKHMyKVtDSDNd

> <s_epik_cmdline>
J2VwaWtfcHl0aG9uJywgJy1waCcsICc3LjAnLCAnLXRuJywgJzgnLCAnLW1hJywgJzIwMCcsICctbWV0YWxfYmluZGluZycsICctaW1hZScsICc8aW5maWxlLm1hZT4nLCAnLW9tYWUnLCAnPG91dGZpbGUubWFlPic=

> <r_lp_tautomer_probability>
1

> <r_epik_Ionization_Penalty>
0.00164835

> <r_epik_Ionization_Penalty_Charging>
0.00115997

> <r_epik_Ionization_Penalty_Neutral>
0.00048838

> <r_epik_State_Penalty>
-0

> <r_epik_Charging_Adjusted_Penalty>
0.00115997

> <i_epik_Tot_Q>
1

> <i_epik_Tot_abs_Q>
1

> <r_epik_Metal_State_Penalty>
0.216651

> <b_epik_Metal_Only>
0

> <s_lp_Force_Field>
OPLS_2005

> <r_lp_Energy>
32.351

> <b_lp_Chiralities_Consistent>
1

> <s_lp_Variant>
AV-unprocessed.smi:1622-1

> <Gold.Version>
5.8.1

> <Gold.Id.Protein>
6NUR|6NUR_protein|mol2

> <Gold.PLP.Fitness>
40.6355

> <Gold.PLP.PLP>
-32.0173

> <Gold.PLP.part.hbond>
-3.8340

> <Gold.PLP.part.metal>
0.0000

> <Gold.PLP.part.buried>
1.7880

> <Gold.PLP.part.nonpolar>
-30.3268

> <Gold.PLP.part.repulsive>
0.5115

> <Gold.PLP.ligand.clash>
0.0000

> <Gold.PLP.ligand.torsion>
0.9233

> <Gold.PLP.Chemscore.Hbond>
3.4633

> <Gold.PLP.Chemscore.CHOScore>
0.0000

> <Gold.PLP.Chemscore.Metal>
0.0000

> <Gold.Chemscore.Hbonds>
donor molecule, donor type, donor heavy atom, donor atom, acceptor molecule, acceptor atom, score
      L1  H     5    28       P1 10175  0.60
      L1  H     8    29       P1 10175  1.00
      L1  H    15    41       P1 10186  2.00

> <Gold.PLP.Chemscore.Internal.Correction>
0.0749

> <Gold.Rescore>
     Score         DG    S(hbond)    S(metal)    S(lipo)     H(rot)  DE(clash)    DE(int)     intcor
     12.48     -14.49       1.51        0.00      72.82       1.77       0.73       1.28       ----

> <Gold.Chemscore.Fitness>
12.4814

> <Gold.Chemscore.DG>
-14.4920

> <Gold.Chemscore.ZeroCoef>
-5.4800

> <Gold.Chemscore.Hbond>
1.5071

> <Gold.Chemscore.Metal>
0.0000

> <Gold.Chemscore.Lipo>
72.8158

> <Gold.Chemscore.Internal_Hbond>
0.0000

> <Gold.Chemscore.DEClash>
0.7265

> <Gold.Chemscore.DEInternal>
1.2840

> <Gold.Chemscore.Rot>
1.7738

> <Gold.Chemscore.Internal.Correction>
   9.000000E+99

> <Gold.Chemscore.Hbonds>
donor molecule, donor type, donor heavy atom, donor atom, acceptor molecule, acceptor atom, score
      L1  H     5    28       P1 10175  0.58
      L1  H     8    29       P1 10175  0.34
      L1  H    15    41       P1 10186  0.34

> <Gold.Chemscore.Hbond.Weighted>
-5.0336

> <Gold.Chemscore.Metal.Weighted>
-0.0000

> <Gold.Chemscore.Lipo.Weighted>
-8.5194

> <Gold.Chemscore.Internal_Hbond.Weighted>
0.0000

> <Gold.Chemscore.DEClash.Weighted>
0.7265

> <Gold.Chemscore.DEInternal.Weighted>
1.2840

> <Gold.Chemscore.Rot.Weighted>
4.5411

> <Gold.Chemscore.Internal.Correction.Weighted>
   9.000000E+99

> <Gold.Protein.RotatedTorsions>
[ 6907 6896 6895 6894 ] final  -51.90 input  -60.11 | X-H torsion
[ 7974 7965 7964 7962 ] final  -17.07 input  175.53 | X-H torsion
[ 8008 7997 7996 7995 ] final  -58.34 input   59.86 | X-H torsion
[ 10167 10162 10161 10158 ] final  140.83 input  -65.29 | X-H torsion
[ 10718 10713 10712 10709 ] final -150.58 input   66.30 | X-H torsion
[ 10763 10752 10751 10750 ] final  121.54 input  -60.55 | X-H torsion
[ 11005 11000 10999 10996 ] final -140.24 input  -57.11 | X-H torsion

> <Gold.Protein.ActiveResidues>
 VAL166  LYS551  ARG553  GLY616  TRP617  ASP618  TYR619  PRO620  LYS621  CYS622 
 ASP623  PHE694  ASN695  SER759  ASP760  ASP761  ALA762  ILE779  LEU786  VAL792 
 PHE793  MET794  SER795  GLU796  ALA797  LYS798  CYS799  TRP800  GLU811  SER814 

> <Gold.Protein.RotatedAtoms>
  150.8568  134.7909  159.7051 H   0  0  0  0  0  0  0  0  0  0  0  0  # atno 6907 bound_to 6896
  152.4617  134.5165  159.9779 H   0  0  0  0  0  0  0  0  0  0  0  0  # atno 6908 bound_to 6896
  151.5276  133.3417  159.2948 H   0  0  0  0  0  0  0  0  0  0  0  0  # atno 6909 bound_to 6896
  146.1958  140.3727  142.8441 H   0  0  0  0  0  0  0  0  0  0  0  0  # atno 7974 bound_to 7965
  154.4305  140.1086  156.5942 H   0  0  0  0  0  0  0  0  0  0  0  0  # atno 8008 bound_to 7997
  155.5980  140.3493  155.4566 H   0  0  0  0  0  0  0  0  0  0  0  0  # atno 8009 bound_to 7997
  156.0195  140.1236  157.0361 H   0  0  0  0  0  0  0  0  0  0  0  0  # atno 8010 bound_to 7997
  139.5038  144.6210  151.6051 H   0  0  0  0  0  0  0  0  0  0  0  0  # atno 10167 bound_to 10162
  156.4479  130.8154  151.2384 H   0  0  0  0  0  0  0  0  0  0  0  0  # atno 10718 bound_to 10713
  153.6157  135.3422  155.2994 H   0  0  0  0  0  0  0  0  0  0  0  0  # atno 10763 bound_to 10752
  154.8610  135.4261  154.2262 H   0  0  0  0  0  0  0  0  0  0  0  0  # atno 10764 bound_to 10752
  153.3123  135.7032  153.7177 H   0  0  0  0  0  0  0  0  0  0  0  0  # atno 10765 bound_to 10752
  140.8442  134.2365  157.4794 H   0  0  0  0  0  0  0  0  0  0  0  0  # atno 11005 bound_to 11000
  144.8578  140.7095  143.6127 LP  0  0  0  0  0  0  0  0  0  0  0  0  # atno 17320 bound_to 7965
  145.3648  139.1673  143.4364 LP  0  0  0  0  0  0  0  0  0  0  0  0  # atno 17321 bound_to 7965
  140.5912  143.9776  150.6326 LP  0  0  0  0  0  0  0  0  0  0  0  0  # atno 17342 bound_to 10162
  140.2957  143.3294  152.1020 LP  0  0  0  0  0  0  0  0  0  0  0  0  # atno 17343 bound_to 10162
  157.7504  131.0147  150.3475 LP  0  0  0  0  0  0  0  0  0  0  0  0  # atno 17370 bound_to 10713
  156.3847  130.3887  149.7075 LP  0  0  0  0  0  0  0  0  0  0  0  0  # atno 17371 bound_to 10713
  139.8703  134.9651  156.4516 LP  0  0  0  0  0  0  0  0  0  0  0  0  # atno 17394 bound_to 11000
  140.8862  133.7881  155.9521 LP  0  0  0  0  0  0  0  0  0  0  0  0  # atno 17395 bound_to 11000

$$$$
