AV-unprocessed.smi:2794|AV-procd|sdf|10776|dock1
  -GOLD-   2272015213D 1   1.00000     0.00000
 Structure written by MMmdl.
 34 35  0  0  0  0  0  0  0  0  1 V2000
  153.5946  141.6979  160.9319 C   0  0  0  0  0  0  0  0  0  0  0  0
  152.6726  142.7604  160.3718 C   0  0  0  0  0  0  0  0  0  0  0  0
  152.5019  143.9936  161.0307 C   0  0  0  0  0  0  0  0  0  0  0  0
  151.6324  144.9373  160.4550 C   0  0  0  0  0  0  0  0  0  0  0  0
  150.9751  144.6115  159.2530 C   0  0  0  0  0  0  0  0  0  0  0  0
  151.2014  143.3507  158.6568 C   0  0  0  0  0  0  0  0  0  0  0  0
  150.4901  143.1209  157.4499 N   0  0  0  0  0  0  0  0  0  0  0  0
  150.5038  142.0251  156.6646 C   0  0  0  0  0  0  0  0  0  0  0  0
  151.1728  141.0162  156.8811 O   0  0  0  0  0  0  0  0  0  0  0  0
  149.6974  142.1057  155.5894 N   0  0  0  0  0  0  0  0  0  0  0  0
  149.4704  141.1102  154.5391 C   0  0  2  0  0  0  0  0  0  0  0  0
  148.1743  141.3971  153.7903 C   0  0  0  0  0  0  0  0  0  0  0  0
  147.2744  140.4533  153.4656 C   0  0  0  0  0  0  0  0  0  0  0  0
  147.4470  138.9828  153.7967 C   0  0  0  0  0  0  0  0  0  0  0  0
  148.8925  138.6465  154.2032 C   0  0  0  0  0  0  0  0  0  0  0  0
  149.4710  139.6978  155.1625 C   0  0  0  0  0  0  0  0  0  0  0  0
  152.0419  142.4473  159.2195 N   0  0  0  0  0  0  0  0  0  0  0  0
  154.0082  142.0000  161.8943 H   0  0  0  0  0  0  0  0  0  0  0  0
  154.4229  141.5172  160.2462 H   0  0  0  0  0  0  0  0  0  0  0  0
  153.0542  140.7614  161.0730 H   0  0  0  0  0  0  0  0  0  0  0  0
  153.0218  144.2134  161.9514 H   0  0  0  0  0  0  0  0  0  0  0  0
  151.4716  145.8954  160.9268 H   0  0  0  0  0  0  0  0  0  0  0  0
  150.3036  145.3249  158.7978 H   0  0  0  0  0  0  0  0  0  0  0  0
  149.8887  143.8740  157.1507 H   0  0  0  0  0  0  0  0  0  0  0  0
  149.1618  142.9572  155.5013 H   0  0  0  0  0  0  0  0  0  0  0  0
  150.2804  141.1551  153.8093 H   0  0  0  0  0  0  0  0  0  0  0  0
  147.9848  142.4236  153.5121 H   0  0  0  0  0  0  0  0  0  0  0  0
  146.3665  140.7328  152.9515 H   0  0  0  0  0  0  0  0  0  0  0  0
  146.7592  138.7359  154.6059 H   0  0  0  0  0  0  0  0  0  0  0  0
  147.1545  138.3822  152.9351 H   0  0  0  0  0  0  0  0  0  0  0  0
  148.9293  137.6565  154.6586 H   0  0  0  0  0  0  0  0  0  0  0  0
  149.5181  138.5981  153.3109 H   0  0  0  0  0  0  0  0  0  0  0  0
  150.4840  139.4209  155.4567 H   0  0  0  0  0  0  0  0  0  0  0  0
  148.8755  139.6958  156.0771 H   0  0  0  0  0  0  0  0  0  0  0  0
  1  2  1  0  0  0  0
  1 18  1  0  0  0  0
  1 19  1  0  0  0  0
  1 20  1  0  0  0  0
  2 17  1  0  0  0  0
  2  3  2  0  0  0  0
  3  4  1  0  0  0  0
  3 21  1  0  0  0  0
  4  5  2  0  0  0  0
  4 22  1  0  0  0  0
  5  6  1  0  0  0  0
  5 23  1  0  0  0  0
  6  7  1  0  0  0  0
  6 17  2  0  0  0  0
  7  8  1  0  0  0  0
  7 24  1  0  0  0  0
  8  9  2  0  0  0  0
  8 10  1  0  0  0  0
 10 11  1  0  0  0  0
 10 25  1  0  0  0  0
 11 16  1  0  0  0  0
 11 12  1  0  0  0  0
 11 26  1  0  0  0  0
 12 13  2  0  0  0  0
 12 27  1  0  0  0  0
 13 14  1  0  0  0  0
 13 28  1  0  0  0  0
 14 15  1  0  0  0  0
 14 29  1  0  0  0  0
 14 30  1  0  0  0  0
 15 16  1  0  0  0  0
 15 31  1  0  0  0  0
 15 32  1  0  0  0  0
 16 33  1  0  0  0  0
 16 34  1  0  0  0  0
M  END
> <s_m_source_file>
AV-unprocessed.smi

> <i_m_source_file_index>
2794

> <i_lp_mmshare_version>
43012

> <i_f3d_flags>
0

> <s_epik_input>
W0NIM11jMVtjSF1bY0hdW2NIXWMobjEpW05IXUMoPU8pW05IXVtDQEBIXTJbQ0hdPVtDSF1bQ0gyXVtDSDJdW0NIMl0y

> <s_epik_cmdline>
J2VwaWtfcHl0aG9uJywgJy1waCcsICc3LjAnLCAnLXRuJywgJzgnLCAnLW1hJywgJzIwMCcsICctbWV0YWxfYmluZGluZycsICctaW1hZScsICc8aW5maWxlLm1hZT4nLCAnLW9tYWUnLCAnPG91dGZpbGUubWFlPic=

> <r_lp_tautomer_probability>
1

> <r_epik_Ionization_Penalty>
8.4544e-05

> <r_epik_Ionization_Penalty_Charging>
0

> <r_epik_Ionization_Penalty_Neutral>
8.4544e-05

> <r_epik_State_Penalty>
-0

> <r_epik_Charging_Adjusted_Penalty>
0

> <i_epik_Tot_Q>
0

> <i_epik_Tot_abs_Q>
0

> <r_epik_Metal_State_Penalty>
-0

> <b_epik_Metal_Only>
0

> <s_lp_Force_Field>
OPLS_2005

> <r_lp_Energy>
18.5134

> <b_lp_Chiralities_Consistent>
1

> <s_lp_Variant>
AV-unprocessed.smi:2794-1

> <Gold.Version>
5.8.1

> <Gold.Id.Protein>
6NUR|6NUR_protein|mol2

> <Gold.PLP.Fitness>
44.1299

> <Gold.PLP.PLP>
-38.7778

> <Gold.PLP.part.hbond>
-2.0000

> <Gold.PLP.part.metal>
0.0000

> <Gold.PLP.part.buried>
-4.7137

> <Gold.PLP.part.nonpolar>
-32.3030

> <Gold.PLP.part.repulsive>
0.1969

> <Gold.PLP.ligand.clash>
0.0000

> <Gold.PLP.ligand.torsion>
0.2916

> <Gold.PLP.Chemscore.Hbond>
1.9760

> <Gold.PLP.Chemscore.CHOScore>
0.0000

> <Gold.PLP.Chemscore.Metal>
0.0000

> <Gold.Chemscore.Hbonds>
donor molecule, donor type, donor heavy atom, donor atom, acceptor molecule, acceptor atom, score
      L1  H     7    24       P1  8028  0.98
      L1  H    10    25       P1  8028  1.00

> <Gold.PLP.Chemscore.Internal.Correction>
0.0073

> <Gold.Rescore>
     Score         DG    S(hbond)    S(metal)    S(lipo)     H(rot)  DE(clash)    DE(int)     intcor
     17.56     -20.82       1.94        0.00      97.59       1.00       0.25       3.00       ----

> <Gold.Chemscore.Fitness>
17.5630

> <Gold.Chemscore.DG>
-20.8196

> <Gold.Chemscore.ZeroCoef>
-5.4800

> <Gold.Chemscore.Hbond>
1.9406

> <Gold.Chemscore.Metal>
0.0000

> <Gold.Chemscore.Lipo>
97.5891

> <Gold.Chemscore.Internal_Hbond>
0.0000

> <Gold.Chemscore.DEClash>
0.2535

> <Gold.Chemscore.DEInternal>
3.0032

> <Gold.Chemscore.Rot>
1.0000

> <Gold.Chemscore.Internal.Correction>
   9.000000E+99

> <Gold.Chemscore.Hbonds>
donor molecule, donor type, donor heavy atom, donor atom, acceptor molecule, acceptor atom, score
      L1  H     7    24       P1  8028  0.80
      L1  H    10    25       P1  8028  0.98

> <Gold.Chemscore.Hbond.Weighted>
-6.4817

> <Gold.Chemscore.Metal.Weighted>
-0.0000

> <Gold.Chemscore.Lipo.Weighted>
-11.4179

> <Gold.Chemscore.Internal_Hbond.Weighted>
0.0000

> <Gold.Chemscore.DEClash.Weighted>
0.2535

> <Gold.Chemscore.DEInternal.Weighted>
3.0032

> <Gold.Chemscore.Rot.Weighted>
2.5600

> <Gold.Chemscore.Internal.Correction.Weighted>
   9.000000E+99

> <Gold.Protein.RotatedTorsions>
[ 6907 6896 6895 6894 ] final  -57.89 input  -60.11 | X-H torsion
[ 7974 7965 7964 7962 ] final   25.40 input  175.53 | X-H torsion
[ 8008 7997 7996 7995 ] final  128.24 input   59.86 | X-H torsion
[ 10167 10162 10161 10158 ] final   78.36 input  -65.29 | X-H torsion
[ 10718 10713 10712 10709 ] final  -72.95 input   66.30 | X-H torsion
[ 10763 10752 10751 10750 ] final  -78.43 input  -60.55 | X-H torsion
[ 11005 11000 10999 10996 ] final -159.67 input  -57.11 | X-H torsion

> <Gold.Protein.ActiveResidues>
 VAL166  LYS551  ARG553  GLY616  TRP617  ASP618  TYR619  PRO620  LYS621  CYS622 
 ASP623  PHE694  ASN695  SER759  ASP760  ASP761  ALA762  ILE779  LEU786  VAL792 
 PHE793  MET794  SER795  GLU796  ALA797  LYS798  CYS799  TRP800  GLU811  SER814 

> <Gold.Protein.RotatedAtoms>
  150.8050  134.7169  159.6635 H   0  0  0  0  0  0  0  0  0  0  0  0  # atno 6907 bound_to 6896
  152.4169  134.6022  160.0013 H   0  0  0  0  0  0  0  0  0  0  0  0  # atno 6908 bound_to 6896
  151.6249  133.3299  159.3132 H   0  0  0  0  0  0  0  0  0  0  0  0  # atno 6909 bound_to 6896
  146.1890  139.7471  142.8845 H   0  0  0  0  0  0  0  0  0  0  0  0  # atno 7974 bound_to 7965
  156.2910  140.2649  156.2403 H   0  0  0  0  0  0  0  0  0  0  0  0  # atno 8008 bound_to 7997
  154.9984  140.0388  157.2368 H   0  0  0  0  0  0  0  0  0  0  0  0  # atno 8009 bound_to 7997
  154.7623  140.2763  155.6209 H   0  0  0  0  0  0  0  0  0  0  0  0  # atno 8010 bound_to 7997
  139.9717  144.5890  150.7979 H   0  0  0  0  0  0  0  0  0  0  0  0  # atno 10167 bound_to 10162
  156.0300  130.4383  150.2669 H   0  0  0  0  0  0  0  0  0  0  0  0  # atno 10718 bound_to 10713
  154.5257  135.5730  153.6717 H   0  0  0  0  0  0  0  0  0  0  0  0  # atno 10763 bound_to 10752
  152.9927  135.6192  154.2695 H   0  0  0  0  0  0  0  0  0  0  0  0  # atno 10764 bound_to 10752
  154.2618  135.2856  155.2754 H   0  0  0  0  0  0  0  0  0  0  0  0  # atno 10765 bound_to 10752
  140.6400  134.4561  157.5233 H   0  0  0  0  0  0  0  0  0  0  0  0  # atno 11005 bound_to 11000
  145.3850  141.0364  143.3156 LP  0  0  0  0  0  0  0  0  0  0  0  0  # atno 17320 bound_to 7965
  144.8451  139.5410  143.6882 LP  0  0  0  0  0  0  0  0  0  0  0  0  # atno 17321 bound_to 7965
  140.7519  143.2982  151.3150 LP  0  0  0  0  0  0  0  0  0  0  0  0  # atno 17342 bound_to 10162
  139.6476  144.0422  152.2602 LP  0  0  0  0  0  0  0  0  0  0  0  0  # atno 17343 bound_to 10162
  157.0771  131.0133  151.3169 LP  0  0  0  0  0  0  0  0  0  0  0  0  # atno 17370 bound_to 10713
  157.4955  130.7848  149.7551 LP  0  0  0  0  0  0  0  0  0  0  0  0  # atno 17371 bound_to 10713
  139.9084  134.8399  156.1620 LP  0  0  0  0  0  0  0  0  0  0  0  0  # atno 17394 bound_to 11000
  141.0614  133.6840  156.1959 LP  0  0  0  0  0  0  0  0  0  0  0  0  # atno 17395 bound_to 11000

$$$$
