AV-unprocessed.smi:2191|AV-procd|sdf|8892|dock10
  -GOLD-   2272012103D 1   1.00000     0.00000
 Structure written by MMmdl.
 36 38  0  0  0  0  0  0  0  0  1 V2000
  150.0951  140.0290  154.0194 O   0  0  0  0  0  0  0  0  0  0  0  0
  149.3162  140.8781  154.8398 C   0  0  2  0  0  0  0  0  0  0  0  0
  148.1360  141.4037  154.0080 C   0  0  0  0  0  0  0  0  0  0  0  0
  147.2666  142.1392  154.8586 O   0  0  0  0  0  0  0  0  0  0  0  0
  146.4878  143.1297  154.2992 C   0  0  0  0  0  0  0  0  0  0  0  0
  145.5104  143.7184  155.1282 C   0  0  0  0  0  0  0  0  0  0  0  0
  144.6711  144.7390  154.6413 C   0  0  0  0  0  0  0  0  0  0  0  0
  144.8020  145.1828  153.3125 C   0  0  0  0  0  0  0  0  0  0  0  0
  145.7719  144.6035  152.4734 C   0  0  0  0  0  0  0  0  0  0  0  0
  146.6119  143.5831  152.9610 C   0  0  0  0  0  0  0  0  0  0  0  0
  150.2031  142.0239  155.3652 C   0  0  0  0  0  0  0  0  0  0  0  0
  150.6040  141.8330  156.7481 N   0  0  0  0  0  0  0  0  0  0  0  0
  150.4512  140.7184  157.4887 C   0  0  0  0  0  0  0  0  0  0  0  0
  150.8881  140.7556  158.7442 N   0  0  0  0  0  0  0  0  0  0  0  0
  151.3818  142.0462  158.8297 C   0  0  0  0  0  0  0  0  0  0  0  0
  151.9887  142.7259  159.9102 C   0  0  0  0  0  0  0  0  0  0  0  0
  152.4172  144.0618  159.7637 C   0  0  0  0  0  0  0  0  0  0  0  0
  152.2484  144.7366  158.5371 C   0  0  0  0  0  0  0  0  0  0  0  0
  151.6482  144.0795  157.4458 C   0  0  0  0  0  0  0  0  0  0  0  0
  151.2190  142.7475  157.5968 C   0  0  0  0  0  0  0  0  0  0  0  0
  149.7213  140.0281  153.1513 H   0  0  0  0  0  0  0  0  0  0  0  0
  148.9410  140.3041  155.6882 H   0  0  0  0  0  0  0  0  0  0  0  0
  148.5098  142.0770  153.2347 H   0  0  0  0  0  0  0  0  0  0  0  0
  147.6171  140.5809  153.5124 H   0  0  0  0  0  0  0  0  0  0  0  0
  145.4033  143.3834  156.1496 H   0  0  0  0  0  0  0  0  0  0  0  0
  143.9274  145.1807  155.2876 H   0  0  0  0  0  0  0  0  0  0  0  0
  144.1596  145.9659  152.9375 H   0  0  0  0  0  0  0  0  0  0  0  0
  145.8726  144.9425  151.4530 H   0  0  0  0  0  0  0  0  0  0  0  0
  147.3441  143.1647  152.2873 H   0  0  0  0  0  0  0  0  0  0  0  0
  151.0989  142.1246  154.7512 H   0  0  0  0  0  0  0  0  0  0  0  0
  149.6713  142.9739  155.2955 H   0  0  0  0  0  0  0  0  0  0  0  0
  149.9932  139.8287  157.0817 H   0  0  0  0  0  0  0  0  0  0  0  0
  152.1236  142.2187  160.8540 H   0  0  0  0  0  0  0  0  0  0  0  0
  152.8782  144.5711  160.5972 H   0  0  0  0  0  0  0  0  0  0  0  0
  152.5810  145.7592  158.4337 H   0  0  0  0  0  0  0  0  0  0  0  0
  151.5204  144.5921  156.5042 H   0  0  0  0  0  0  0  0  0  0  0  0
  1  2  1  0  0  0  0
  1 21  1  0  0  0  0
  2  3  1  0  0  0  0
  2 11  1  0  0  0  0
  2 22  1  0  0  0  0
  3  4  1  0  0  0  0
  3 23  1  0  0  0  0
  3 24  1  0  0  0  0
  4  5  1  0  0  0  0
  5 10  1  0  0  0  0
  5  6  2  0  0  0  0
  6  7  1  0  0  0  0
  6 25  1  0  0  0  0
  7  8  2  0  0  0  0
  7 26  1  0  0  0  0
  8  9  1  0  0  0  0
  8 27  1  0  0  0  0
  9 10  2  0  0  0  0
  9 28  1  0  0  0  0
 10 29  1  0  0  0  0
 11 12  1  0  0  0  0
 11 30  1  0  0  0  0
 11 31  1  0  0  0  0
 12 20  1  0  0  0  0
 12 13  1  0  0  0  0
 13 14  2  0  0  0  0
 13 32  1  0  0  0  0
 14 15  1  0  0  0  0
 15 20  2  0  0  0  0
 15 16  1  0  0  0  0
 16 17  2  0  0  0  0
 16 33  1  0  0  0  0
 17 18  1  0  0  0  0
 17 34  1  0  0  0  0
 18 19  2  0  0  0  0
 18 35  1  0  0  0  0
 19 20  1  0  0  0  0
 19 36  1  0  0  0  0
M  END
> <s_m_source_file>
AV-unprocessed.smi

> <i_m_source_file_index>
2191

> <i_lp_mmshare_version>
43012

> <i_f3d_flags>
0

> <s_epik_input>
W2NIXTFbY0hdW2NIXVtjSF1jKGMxMiluKFtjSF1uMilbQ0gyXVtDQEhdKFtPSF0pW0NIMl1PYzNbY0hdW2NIXVtjSF1bY0hdW2NIXTM=

> <s_epik_cmdline>
J2VwaWtfcHl0aG9uJywgJy1waCcsICc3LjAnLCAnLXRuJywgJzgnLCAnLW1hJywgJzIwMCcsICctbWV0YWxfYmluZGluZycsICctaW1hZScsICc8aW5maWxlLm1hZT4nLCAnLW9tYWUnLCAnPG91dGZpbGUubWFlPic=

> <r_lp_tautomer_probability>
1

> <r_epik_Ionization_Penalty>
0.0640132

> <r_epik_Ionization_Penalty_Charging>
0

> <r_epik_Ionization_Penalty_Neutral>
0.0640132

> <r_epik_State_Penalty>
0.0557325

> <r_epik_Charging_Adjusted_Penalty>
0.0557325

> <i_epik_Tot_Q>
0

> <i_epik_Tot_abs_Q>
0

> <r_epik_Metal_State_Penalty>
5.8435e-05

> <b_epik_Metal_Only>
0

> <s_lp_Force_Field>
OPLS_2005

> <r_lp_Energy>
16.2786

> <b_lp_Chiralities_Consistent>
1

> <s_lp_Variant>
AV-unprocessed.smi:2191-1

> <Gold.Version>
5.8.1

> <Gold.Id.Protein>
6NUR|6NUR_protein|mol2

> <Gold.PLP.Fitness>
51.9859

> <Gold.PLP.PLP>
-48.2265

> <Gold.PLP.part.hbond>
-2.0000

> <Gold.PLP.part.metal>
0.0000

> <Gold.PLP.part.buried>
-4.7573

> <Gold.PLP.part.nonpolar>
-42.1621

> <Gold.PLP.part.repulsive>
0.1259

> <Gold.PLP.ligand.clash>
0.0000

> <Gold.PLP.ligand.torsion>
0.9533

> <Gold.PLP.Chemscore.Hbond>
1.8800

> <Gold.PLP.Chemscore.CHOScore>
0.0000

> <Gold.PLP.Chemscore.Metal>
0.0000

> <Gold.Chemscore.Hbonds>
donor molecule, donor type, donor heavy atom, donor atom, acceptor molecule, acceptor atom, score
      L1  H     1    21       P1  7957  1.00
      P1  H  7989  7998       L1     1  0.61

> <Gold.PLP.Chemscore.Internal.Correction>
0.0261

> <Gold.Rescore>
     Score         DG    S(hbond)    S(metal)    S(lipo)     H(rot)  DE(clash)    DE(int)     intcor
     17.14     -19.56       1.42        0.00     128.32       2.22       1.46       0.96       ----

> <Gold.Chemscore.Fitness>
17.1374

> <Gold.Chemscore.DG>
-19.5640

> <Gold.Chemscore.ZeroCoef>
-5.4800

> <Gold.Chemscore.Hbond>
1.4232

> <Gold.Chemscore.Metal>
0.0000

> <Gold.Chemscore.Lipo>
128.3231

> <Gold.Chemscore.Internal_Hbond>
0.0000

> <Gold.Chemscore.DEClash>
1.4638

> <Gold.Chemscore.DEInternal>
0.9628

> <Gold.Chemscore.Rot>
2.2200

> <Gold.Chemscore.Internal.Correction>
   9.000000E+99

> <Gold.Chemscore.Hbonds>
donor molecule, donor type, donor heavy atom, donor atom, acceptor molecule, acceptor atom, score
      L1  H     1    21       P1  7957  0.96
      P1  H  7989  7998       L1     1  0.04

> <Gold.Chemscore.Hbond.Weighted>
-4.7535

> <Gold.Chemscore.Metal.Weighted>
-0.0000

> <Gold.Chemscore.Lipo.Weighted>
-15.0138

> <Gold.Chemscore.Internal_Hbond.Weighted>
0.0000

> <Gold.Chemscore.DEClash.Weighted>
1.4638

> <Gold.Chemscore.DEInternal.Weighted>
0.9628

> <Gold.Chemscore.Rot.Weighted>
5.6832

> <Gold.Chemscore.Internal.Correction.Weighted>
   9.000000E+99

> <Gold.Protein.RotatedTorsions>
[ 6907 6896 6895 6894 ] final  172.27 input  -60.11 | X-H torsion
[ 7974 7965 7964 7962 ] final  176.86 input  175.53 | X-H torsion
[ 8008 7997 7996 7995 ] final -157.89 input   59.86 | X-H torsion
[ 10167 10162 10161 10158 ] final  -13.63 input  -65.29 | X-H torsion
[ 10718 10713 10712 10709 ] final  -31.47 input   66.30 | X-H torsion
[ 10763 10752 10751 10750 ] final  134.86 input  -60.55 | X-H torsion
[ 11005 11000 10999 10996 ] final  -30.76 input  -57.11 | X-H torsion

> <Gold.Protein.ActiveResidues>
 VAL166  LYS551  ARG553  GLY616  TRP617  ASP618  TYR619  PRO620  LYS621  CYS622 
 ASP623  PHE694  ASN695  SER759  ASP760  ASP761  ALA762  ILE779  LEU786  VAL792 
 PHE793  MET794  SER795  GLU796  ALA797  LYS798  CYS799  TRP800  GLU811  SER814 

> <Gold.Protein.RotatedAtoms>
  151.7869  133.3355  159.3487 H   0  0  0  0  0  0  0  0  0  0  0  0  # atno 6907 bound_to 6896
  150.7406  134.5878  159.5981 H   0  0  0  0  0  0  0  0  0  0  0  0  # atno 6908 bound_to 6896
  152.3237  134.7349  160.0358 H   0  0  0  0  0  0  0  0  0  0  0  0  # atno 6909 bound_to 6896
  144.7177  140.0160  143.6440 H   0  0  0  0  0  0  0  0  0  0  0  0  # atno 7974 bound_to 7965
  155.7393  140.0812  157.2253 H   0  0  0  0  0  0  0  0  0  0  0  0  # atno 8008 bound_to 7997
  154.4024  140.1581  156.2653 H   0  0  0  0  0  0  0  0  0  0  0  0  # atno 8009 bound_to 7997
  155.9035  140.3408  155.6047 H   0  0  0  0  0  0  0  0  0  0  0  0  # atno 8010 bound_to 7997
  140.7186  143.5405  150.9414 H   0  0  0  0  0  0  0  0  0  0  0  0  # atno 10167 bound_to 10162
  156.3869  130.4366  149.7425 H   0  0  0  0  0  0  0  0  0  0  0  0  # atno 10718 bound_to 10713
  153.8306  135.3104  155.3418 H   0  0  0  0  0  0  0  0  0  0  0  0  # atno 10763 bound_to 10752
  154.7975  135.4747  154.0198 H   0  0  0  0  0  0  0  0  0  0  0  0  # atno 10764 bound_to 10752
  153.1636  135.6865  153.8797 H   0  0  0  0  0  0  0  0  0  0  0  0  # atno 10765 bound_to 10752
  140.9410  133.7278  156.1076 H   0  0  0  0  0  0  0  0  0  0  0  0  # atno 11005 bound_to 11000
  146.0219  139.3259  143.0807 LP  0  0  0  0  0  0  0  0  0  0  0  0  # atno 17320 bound_to 7965
  145.8557  140.9503  143.0726 LP  0  0  0  0  0  0  0  0  0  0  0  0  # atno 17321 bound_to 7965
  139.9128  143.6699  152.3112 LP  0  0  0  0  0  0  0  0  0  0  0  0  # atno 17342 bound_to 10162
  139.7089  144.7623  151.1146 LP  0  0  0  0  0  0  0  0  0  0  0  0  # atno 17343 bound_to 10162
  156.4494  130.7899  151.2920 LP  0  0  0  0  0  0  0  0  0  0  0  0  # atno 17370 bound_to 10713
  157.7496  131.0100  150.3290 LP  0  0  0  0  0  0  0  0  0  0  0  0  # atno 17371 bound_to 10713
  140.7733  134.3807  157.5503 LP  0  0  0  0  0  0  0  0  0  0  0  0  # atno 17394 bound_to 11000
  139.8820  134.9036  156.2858 LP  0  0  0  0  0  0  0  0  0  0  0  0  # atno 17395 bound_to 11000

$$$$
