AV-unprocessed.smi:787|AV-procd|sdf|3729|dock5
  -GOLD-   22720 1163D 1   1.00000     0.00000
 Structure written by MMmdl.
 46 48  0  0  0  0  0  0  0  0  1 V2000
  146.1629  138.6549  153.7505 C   0  0  0  0  0  0  0  0  0  0  0  0
  145.1438  139.6486  154.0493 N   0  0  0  0  0  0  0  0  0  0  0  0
  144.9368  140.0782  155.3677 C   0  0  0  0  0  0  0  0  0  0  0  0
  143.9002  139.5857  156.0852 N   0  0  0  0  0  0  0  0  0  0  0  0
  143.7354  140.0351  157.3362 C   0  0  0  0  0  0  0  0  0  0  0  0
  144.4651  140.9337  158.0156 N   0  0  0  0  0  0  0  0  0  0  0  0
  145.4979  141.4225  157.3156 C   0  0  0  0  0  0  0  0  0  0  0  0
  146.4151  142.3573  157.7644 N   0  0  0  0  0  0  0  0  0  0  0  0
  147.2105  142.4863  156.7053 C   0  0  0  0  0  0  0  0  0  0  0  0
  146.9164  141.7525  155.6141 N   0  0  0  0  0  0  0  0  0  0  0  0
  147.6355  141.7365  154.3528 C   0  0  0  0  0  0  0  0  0  0  0  0
  149.1447  141.5034  154.5503 C   0  0  2  0  0  0  0  0  0  0  0  0
  149.6856  141.1194  153.3029 O   0  0  0  0  0  0  0  0  0  0  0  0
  149.4478  140.3860  155.5732 C   0  0  0  0  0  0  0  0  0  0  0  0
  150.4489  140.7122  156.5964 N   0  0  0  0  0  0  0  0  0  0  0  0
  150.7426  139.5299  157.3972 C   0  0  0  0  0  0  0  0  0  0  0  0
  150.0242  141.7949  157.4921 C   0  0  0  0  0  0  0  0  0  0  0  0
  151.0995  142.3711  158.3948 C   0  0  0  0  0  0  0  0  0  0  0  0
  151.6773  141.5777  159.4090 C   0  0  0  0  0  0  0  0  0  0  0  0
  152.6633  142.1204  160.2558 C   0  0  0  0  0  0  0  0  0  0  0  0
  153.0643  143.4615  160.1012 C   0  0  0  0  0  0  0  0  0  0  0  0
  152.4812  144.2586  159.0976 C   0  0  0  0  0  0  0  0  0  0  0  0
  151.5050  143.7135  158.2418 C   0  0  0  0  0  0  0  0  0  0  0  0
  145.7849  141.0254  155.9753 C   0  0  0  0  0  0  0  0  0  0  0  0
  146.1681  138.4380  152.6824 H   0  0  0  0  0  0  0  0  0  0  0  0
  145.9660  137.7259  154.2862 H   0  0  0  0  0  0  0  0  0  0  0  0
  147.1527  139.0179  154.0293 H   0  0  0  0  0  0  0  0  0  0  0  0
  144.4785  139.8971  153.3310 H   0  0  0  0  0  0  0  0  0  0  0  0
  142.8945  139.6201  157.8715 H   0  0  0  0  0  0  0  0  0  0  0  0
  148.0554  143.1593  156.7213 H   0  0  0  0  0  0  0  0  0  0  0  0
  147.2067  140.9678  153.7081 H   0  0  0  0  0  0  0  0  0  0  0  0
  147.4554  142.6888  153.8527 H   0  0  0  0  0  0  0  0  0  0  0  0
  149.6070  142.4467  154.8297 H   0  0  0  0  0  0  0  0  0  0  0  0
  149.4068  140.2369  153.1124 H   0  0  0  0  0  0  0  0  0  0  0  0
  148.5288  140.0741  156.0696 H   0  0  0  0  0  0  0  0  0  0  0  0
  149.7669  139.5104  155.0052 H   0  0  0  0  0  0  0  0  0  0  0  0
  151.5104  139.7448  158.1410 H   0  0  0  0  0  0  0  0  0  0  0  0
  151.1164  138.7194  156.7705 H   0  0  0  0  0  0  0  0  0  0  0  0
  149.8524  139.1746  157.9184 H   0  0  0  0  0  0  0  0  0  0  0  0
  149.5683  142.5995  156.9130 H   0  0  0  0  0  0  0  0  0  0  0  0
  149.2402  141.4263  158.1549 H   0  0  0  0  0  0  0  0  0  0  0  0
  151.3687  140.5501  159.5343 H   0  0  0  0  0  0  0  0  0  0  0  0
  153.1094  141.5090  161.0263 H   0  0  0  0  0  0  0  0  0  0  0  0
  153.8198  143.8783  160.7508 H   0  0  0  0  0  0  0  0  0  0  0  0
  152.7892  145.2868  158.9783 H   0  0  0  0  0  0  0  0  0  0  0  0
  151.0680  144.3307  157.4705 H   0  0  0  0  0  0  0  0  0  0  0  0
  1  2  1  0  0  0  0
  1 25  1  0  0  0  0
  1 26  1  0  0  0  0
  1 27  1  0  0  0  0
  2  3  1  0  0  0  0
  2 28  1  0  0  0  0
  3 24  1  0  0  0  0
  3  4  2  0  0  0  0
  4  5  1  0  0  0  0
  5  6  2  0  0  0  0
  5 29  1  0  0  0  0
  6  7  1  0  0  0  0
  7 24  2  0  0  0  0
  7  8  1  0  0  0  0
  8  9  2  0  0  0  0
  9 10  1  0  0  0  0
  9 30  1  0  0  0  0
 10 11  1  0  0  0  0
 10 24  1  0  0  0  0
 11 12  1  0  0  0  0
 11 31  1  0  0  0  0
 11 32  1  0  0  0  0
 12 13  1  0  0  0  0
 12 14  1  0  0  0  0
 12 33  1  0  0  0  0
 13 34  1  0  0  0  0
 14 15  1  0  0  0  0
 14 35  1  0  0  0  0
 14 36  1  0  0  0  0
 15 16  1  0  0  0  0
 15 17  1  0  0  0  0
 16 37  1  0  0  0  0
 16 38  1  0  0  0  0
 16 39  1  0  0  0  0
 17 18  1  0  0  0  0
 17 40  1  0  0  0  0
 17 41  1  0  0  0  0
 18 23  1  0  0  0  0
 18 19  2  0  0  0  0
 19 20  1  0  0  0  0
 19 42  1  0  0  0  0
 20 21  2  0  0  0  0
 20 43  1  0  0  0  0
 21 22  1  0  0  0  0
 21 44  1  0  0  0  0
 22 23  2  0  0  0  0
 22 45  1  0  0  0  0
 23 46  1  0  0  0  0
M  END
> <s_m_source_file>
AV-unprocessed.smi

> <i_m_source_file_index>
787

> <i_lp_mmshare_version>
43012

> <i_f3d_flags>
0

> <s_epik_input>
bjFbY0hdbmMoW05IXVtDSDNdKWMoYzEyKW4oW2NIXW4yKVtDSDJdW0NASF0oW09IXSlbQ0gyXU4oW0NIM10pW0NIMl1jM1tjSF1bY0hdW2NIXVtjSF1bY0hdMw==

> <s_epik_cmdline>
J2VwaWtfcHl0aG9uJywgJy1waCcsICc3LjAnLCAnLXRuJywgJzgnLCAnLW1hJywgJzIwMCcsICctbWV0YWxfYmluZGluZycsICctaW1hZScsICc8aW5maWxlLm1hZT4nLCAnLW9tYWUnLCAnPG91dGZpbGUubWFlPic=

> <r_lp_tautomer_probability>
0.999987

> <r_epik_Ionization_Penalty>
1.52367

> <r_epik_Ionization_Penalty_Charging>
0

> <r_epik_Ionization_Penalty_Neutral>
1.52367

> <r_epik_State_Penalty>
1.60995

> <r_epik_Charging_Adjusted_Penalty>
1.60995

> <i_epik_Tot_Q>
0

> <i_epik_Tot_abs_Q>
0

> <r_epik_Metal_State_Penalty>
1.60969

> <b_epik_Metal_Only>
0

> <s_lp_Force_Field>
OPLS_2005

> <r_lp_Energy>
20.724

> <b_lp_Chiralities_Consistent>
1

> <s_lp_Variant>
AV-unprocessed.smi:787-5

> <Gold.Version>
5.8.1

> <Gold.Id.Protein>
6NUR|6NUR_protein|mol2

> <Gold.PLP.Fitness>
43.2025

> <Gold.PLP.PLP>
-37.0620

> <Gold.PLP.part.hbond>
-3.0992

> <Gold.PLP.part.metal>
0.0000

> <Gold.PLP.part.buried>
-4.9205

> <Gold.PLP.part.nonpolar>
-29.3092

> <Gold.PLP.part.repulsive>
0.1692

> <Gold.PLP.ligand.clash>
0.0000

> <Gold.PLP.ligand.torsion>
1.7035

> <Gold.PLP.Chemscore.Hbond>
2.1430

> <Gold.PLP.Chemscore.CHOScore>
0.9274

> <Gold.PLP.Chemscore.Metal>
0.0000

> <Gold.Chemscore.Hbonds>
donor molecule, donor type, donor heavy atom, donor atom, acceptor molecule, acceptor atom, score
      L1  H     2    28       P1 10175  0.44
      L1  H    13    34       P1  7957  0.10
      P1  H  7989  7998       L1    13  0.13
      P1  H  8011  8017       L1    13  1.00
      L1  C     9    30       P1  8028  0.89

> <Gold.PLP.Chemscore.Internal.Correction>
0.3364

> <Gold.Rescore>
     Score         DG    S(hbond)    S(metal)    S(lipo)     H(rot)  DE(clash)    DE(int)     intcor
     14.28     -16.34       1.98        0.00     104.16       3.11       0.26       1.80       ----

> <Gold.Chemscore.Fitness>
14.2842

> <Gold.Chemscore.DG>
-16.3360

> <Gold.Chemscore.ZeroCoef>
-5.4800

> <Gold.Chemscore.Hbond>
1.9832

> <Gold.Chemscore.Metal>
0.0000

> <Gold.Chemscore.Lipo>
104.1644

> <Gold.Chemscore.Internal_Hbond>
0.0000

> <Gold.Chemscore.DEClash>
0.2552

> <Gold.Chemscore.DEInternal>
1.7965

> <Gold.Chemscore.Rot>
3.1075

> <Gold.Chemscore.Internal.Correction>
   9.000000E+99

> <Gold.Chemscore.Hbonds>
donor molecule, donor type, donor heavy atom, donor atom, acceptor molecule, acceptor atom, score
      L1  H     2    28       P1 10175  0.44
      L1  H    13    34       P1  7957  0.12
      P1  H  7989  7998       L1    13  0.04
      P1  H  8011  8017       L1    13  0.72

> <Gold.Chemscore.Hbond.Weighted>
-6.6238

> <Gold.Chemscore.Metal.Weighted>
-0.0000

> <Gold.Chemscore.Lipo.Weighted>
-12.1872

> <Gold.Chemscore.Internal_Hbond.Weighted>
0.0000

> <Gold.Chemscore.DEClash.Weighted>
0.2552

> <Gold.Chemscore.DEInternal.Weighted>
1.7965

> <Gold.Chemscore.Rot.Weighted>
7.9551

> <Gold.Chemscore.Internal.Correction.Weighted>
   9.000000E+99

> <Gold.Protein.RotatedTorsions>
[ 6907 6896 6895 6894 ] final  -48.13 input  -60.11 | X-H torsion
[ 7974 7965 7964 7962 ] final  121.01 input  175.53 | X-H torsion
[ 8008 7997 7996 7995 ] final  -47.53 input   59.86 | X-H torsion
[ 10167 10162 10161 10158 ] final  -14.73 input  -65.29 | X-H torsion
[ 10718 10713 10712 10709 ] final  -73.32 input   66.30 | X-H torsion
[ 10763 10752 10751 10750 ] final  103.47 input  -60.55 | X-H torsion
[ 11005 11000 10999 10996 ] final  139.89 input  -57.11 | X-H torsion

> <Gold.Protein.ActiveResidues>
 VAL166  LYS551  ARG553  GLY616  TRP617  ASP618  TYR619  PRO620  LYS621  CYS622 
 ASP623  PHE694  ASN695  SER759  ASP760  ASP761  ALA762  ILE779  LEU786  VAL792 
 PHE793  MET794  SER795  GLU796  ALA797  LYS798  CYS799  TRP800  GLU811  SER814 

> <Gold.Protein.RotatedAtoms>
  150.8937  134.8343  159.7310 H   0  0  0  0  0  0  0  0  0  0  0  0  # atno 6907 bound_to 6896
  152.4852  134.4609  159.9614 H   0  0  0  0  0  0  0  0  0  0  0  0  # atno 6908 bound_to 6896
  151.4669  133.3540  159.2853 H   0  0  0  0  0  0  0  0  0  0  0  0  # atno 6909 bound_to 6896
  145.1244  139.3368  143.4697 H   0  0  0  0  0  0  0  0  0  0  0  0  # atno 7974 bound_to 7965
  154.4018  140.1344  156.4190 H   0  0  0  0  0  0  0  0  0  0  0  0  # atno 8008 bound_to 7997
  155.7661  140.3485  155.5202 H   0  0  0  0  0  0  0  0  0  0  0  0  # atno 8009 bound_to 7997
  155.8812  140.0988  157.1474 H   0  0  0  0  0  0  0  0  0  0  0  0  # atno 8010 bound_to 7997
  140.7206  143.5291  150.9541 H   0  0  0  0  0  0  0  0  0  0  0  0  # atno 10167 bound_to 10162
  156.0285  130.4391  150.2725 H   0  0  0  0  0  0  0  0  0  0  0  0  # atno 10718 bound_to 10713
  153.3531  135.3975  155.1661 H   0  0  0  0  0  0  0  0  0  0  0  0  # atno 10763 bound_to 10752
  154.8666  135.3661  154.5196 H   0  0  0  0  0  0  0  0  0  0  0  0  # atno 10764 bound_to 10752
  153.5649  135.7080  153.5590 H   0  0  0  0  0  0  0  0  0  0  0  0  # atno 10765 bound_to 10752
  140.0287  134.9362  157.0620 H   0  0  0  0  0  0  0  0  0  0  0  0  # atno 11005 bound_to 11000
  146.3519  140.1217  142.8600 LP  0  0  0  0  0  0  0  0  0  0  0  0  # atno 17320 bound_to 7965
  145.0704  140.9151  143.4885 LP  0  0  0  0  0  0  0  0  0  0  0  0  # atno 17321 bound_to 7965
  139.9011  143.6835  152.3131 LP  0  0  0  0  0  0  0  0  0  0  0  0  # atno 17342 bound_to 10162
  139.7185  144.7607  151.0995 LP  0  0  0  0  0  0  0  0  0  0  0  0  # atno 17343 bound_to 10162
  157.0828  131.0148  151.3150 LP  0  0  0  0  0  0  0  0  0  0  0  0  # atno 17370 bound_to 10713
  157.4914  130.7824  149.7511 LP  0  0  0  0  0  0  0  0  0  0  0  0  # atno 17371 bound_to 10713
  140.4262  134.1828  155.7166 LP  0  0  0  0  0  0  0  0  0  0  0  0  # atno 17394 bound_to 11000
  141.1818  133.8397  157.1230 LP  0  0  0  0  0  0  0  0  0  0  0  0  # atno 17395 bound_to 11000

$$$$
