AV-unprocessed.smi:3003|AV-procd|sdf|11438|dock8
  -GOLD-   2272016363D 1   1.00000     0.00000
 Structure written by MMmdl.
 41 42  0  0  0  0  0  0  0  0  1 V2000
  146.7082  134.3917  154.9871 C   0  0  0  0  0  0  0  0  0  0  0  0
  147.8446  135.7087  155.5002 S   0  0  0  0  0  0  0  0  0  0  0  0
  149.4480  134.8770  155.2961 C   0  0  1  0  0  0  0  0  0  0  0  0
  149.4153  133.9520  154.0693 C   0  0  0  0  0  0  0  0  0  0  0  0
  150.6045  135.8783  155.1934 C   0  0  0  0  0  0  0  0  0  0  0  0
  151.5312  135.8425  156.0036 O   0  0  0  0  0  0  0  0  0  0  0  0
  150.5398  136.7691  154.1914 N   0  0  0  0  0  0  0  0  0  0  0  0
  151.5225  137.8196  153.9460 C   0  0  0  0  0  0  0  0  0  0  0  0
  151.5177  138.9259  154.9911 C   0  0  0  0  0  0  0  0  0  0  0  0
  150.5363  139.9389  154.9967 C   0  0  0  0  0  0  0  0  0  0  0  0
  150.5838  140.9312  155.9941 C   0  0  0  0  0  0  0  0  0  0  0  0
  151.6147  140.8887  156.9629 C   0  0  0  0  0  0  0  0  0  0  0  0
  151.6753  141.8678  157.9786 N   0  0  0  0  0  0  0  0  0  0  0  0
  152.6508  141.6189  159.0375 C   0  0  0  0  0  0  0  0  0  0  0  0
  152.4160  142.5752  160.2196 C   0  0  0  0  0  0  0  0  0  0  0  0
  152.4301  143.9229  159.7610 O   0  0  0  0  0  0  0  0  0  0  0  0
  151.3967  144.1692  158.8136 C   0  0  0  0  0  0  0  0  0  0  0  0
  151.5996  143.2724  157.5809 C   0  0  0  0  0  0  0  0  0  0  0  0
  152.5665  139.9228  156.9423 N   0  0  0  0  0  0  0  0  0  0  0  0
  152.5154  138.9727  155.9851 C   0  0  0  0  0  0  0  0  0  0  0  0
  145.6802  134.7524  155.0207 H   0  0  0  0  0  0  0  0  0  0  0  0
  146.7904  133.5302  155.6495 H   0  0  0  0  0  0  0  0  0  0  0  0
  146.9288  134.0730  153.9684 H   0  0  0  0  0  0  0  0  0  0  0  0
  149.6012  134.2511  156.1769 H   0  0  0  0  0  0  0  0  0  0  0  0
  150.3735  133.4516  153.9241 H   0  0  0  0  0  0  0  0  0  0  0  0
  149.1843  134.5024  153.1564 H   0  0  0  0  0  0  0  0  0  0  0  0
  148.6574  133.1772  154.1876 H   0  0  0  0  0  0  0  0  0  0  0  0
  149.7486  136.7260  153.5653 H   0  0  0  0  0  0  0  0  0  0  0  0
  152.5187  137.3798  153.8717 H   0  0  0  0  0  0  0  0  0  0  0  0
  151.3090  138.2660  152.9747 H   0  0  0  0  0  0  0  0  0  0  0  0
  149.7564  139.9613  154.2500 H   0  0  0  0  0  0  0  0  0  0  0  0
  149.8411  141.7150  155.9962 H   0  0  0  0  0  0  0  0  0  0  0  0
  152.6029  140.5928  159.3987 H   0  0  0  0  0  0  0  0  0  0  0  0
  153.6532  141.7661  158.6331 H   0  0  0  0  0  0  0  0  0  0  0  0
  151.4671  142.3572  160.7125 H   0  0  0  0  0  0  0  0  0  0  0  0
  153.1991  142.4466  160.9668 H   0  0  0  0  0  0  0  0  0  0  0  0
  150.4210  143.9908  159.2684 H   0  0  0  0  0  0  0  0  0  0  0  0
  151.4247  145.2192  158.5222 H   0  0  0  0  0  0  0  0  0  0  0  0
  152.5183  143.5522  157.0637 H   0  0  0  0  0  0  0  0  0  0  0  0
  150.7734  143.4237  156.8853 H   0  0  0  0  0  0  0  0  0  0  0  0
  153.2934  138.2243  156.0194 H   0  0  0  0  0  0  0  0  0  0  0  0
  1  2  1  0  0  0  0
  1 21  1  0  0  0  0
  1 22  1  0  0  0  0
  1 23  1  0  0  0  0
  2  3  1  0  0  0  0
  3  4  1  0  0  0  0
  3  5  1  0  0  0  0
  3 24  1  0  0  0  0
  4 25  1  0  0  0  0
  4 26  1  0  0  0  0
  4 27  1  0  0  0  0
  5  6  2  0  0  0  0
  5  7  1  0  0  0  0
  7  8  1  0  0  0  0
  7 28  1  0  0  0  0
  8  9  1  0  0  0  0
  8 29  1  0  0  0  0
  8 30  1  0  0  0  0
  9 20  1  0  0  0  0
  9 10  2  0  0  0  0
 10 11  1  0  0  0  0
 10 31  1  0  0  0  0
 11 12  2  0  0  0  0
 11 32  1  0  0  0  0
 12 13  1  0  0  0  0
 12 19  1  0  0  0  0
 13 18  1  0  0  0  0
 13 14  1  0  0  0  0
 14 15  1  0  0  0  0
 14 33  1  0  0  0  0
 14 34  1  0  0  0  0
 15 16  1  0  0  0  0
 15 35  1  0  0  0  0
 15 36  1  0  0  0  0
 16 17  1  0  0  0  0
 17 18  1  0  0  0  0
 17 37  1  0  0  0  0
 17 38  1  0  0  0  0
 18 39  1  0  0  0  0
 18 40  1  0  0  0  0
 19 20  2  0  0  0  0
 20 41  1  0  0  0  0
M  END
> <s_m_source_file>
AV-unprocessed.smi

> <i_m_source_file_index>
3003

> <i_lp_mmshare_version>
43012

> <i_f3d_flags>
0

> <s_epik_input>
W0NIM11TW0NASF0oW0NIM10pQyg9TylbTkhdW0NIMl1jMVtjSF1bY0hdYyhuW2NIXTEpTjJbQ0gyXVtDSDJdT1tDSDJdW0NIMl0y

> <s_epik_cmdline>
J2VwaWtfcHl0aG9uJywgJy1waCcsICc3LjAnLCAnLXRuJywgJzgnLCAnLW1hJywgJzIwMCcsICctbWV0YWxfYmluZGluZycsICctaW1hZScsICc8aW5maWxlLm1hZT4nLCAnLW9tYWUnLCAnPG91dGZpbGUubWFlPic=

> <r_lp_tautomer_probability>
1

> <r_epik_Ionization_Penalty>
0.00417642

> <r_epik_Ionization_Penalty_Charging>
0

> <r_epik_Ionization_Penalty_Neutral>
0.00417642

> <r_epik_State_Penalty>
0.00299889

> <r_epik_Charging_Adjusted_Penalty>
0.00299889

> <i_epik_Tot_Q>
0

> <i_epik_Tot_abs_Q>
0

> <r_epik_Metal_State_Penalty>
-0

> <b_epik_Metal_Only>
0

> <s_lp_Force_Field>
OPLS_2005

> <r_lp_Energy>
16.8537

> <b_lp_Chiralities_Consistent>
1

> <s_lp_Variant>
AV-unprocessed.smi:3003-2

> <Gold.Version>
5.8.1

> <Gold.Id.Protein>
6NUR|6NUR_protein|mol2

> <Gold.PLP.Fitness>
44.8039

> <Gold.PLP.PLP>
-37.9179

> <Gold.PLP.part.hbond>
-4.0000

> <Gold.PLP.part.metal>
0.0000

> <Gold.PLP.part.buried>
-1.9419

> <Gold.PLP.part.nonpolar>
-30.9255

> <Gold.PLP.part.repulsive>
0.1232

> <Gold.PLP.ligand.clash>
0.0000

> <Gold.PLP.ligand.torsion>
0.6810

> <Gold.PLP.Chemscore.Hbond>
2.6260

> <Gold.PLP.Chemscore.CHOScore>
0.0000

> <Gold.PLP.Chemscore.Metal>
0.0000

> <Gold.Chemscore.Hbonds>
donor molecule, donor type, donor heavy atom, donor atom, acceptor molecule, acceptor atom, score
      L1  H     7    28       P1  7948  0.99
      P1  H  7997  8008       L1    19  0.60
      P1  H 10752 10763       L1     6  1.00

> <Gold.PLP.Chemscore.Internal.Correction>
0.3700

> <Gold.Rescore>
     Score         DG    S(hbond)    S(metal)    S(lipo)     H(rot)  DE(clash)    DE(int)     intcor
     17.05     -18.07       1.81        0.00      92.49       1.67       0.26       0.76       ----

> <Gold.Chemscore.Fitness>
17.0502

> <Gold.Chemscore.DG>
-18.0653

> <Gold.Chemscore.ZeroCoef>
-5.4800

> <Gold.Chemscore.Hbond>
1.8069

> <Gold.Chemscore.Metal>
0.0000

> <Gold.Chemscore.Lipo>
92.4870

> <Gold.Chemscore.Internal_Hbond>
0.0000

> <Gold.Chemscore.DEClash>
0.2589

> <Gold.Chemscore.DEInternal>
0.7562

> <Gold.Chemscore.Rot>
1.6682

> <Gold.Chemscore.Internal.Correction>
   9.000000E+99

> <Gold.Chemscore.Hbonds>
donor molecule, donor type, donor heavy atom, donor atom, acceptor molecule, acceptor atom, score
      L1  H     7    28       P1  7948  0.47
      P1  H  7997  8008       L1    19  0.04
      P1  H 10752 10763       L1     6  0.74

> <Gold.Chemscore.Hbond.Weighted>
-6.0351

> <Gold.Chemscore.Metal.Weighted>
-0.0000

> <Gold.Chemscore.Lipo.Weighted>
-10.8210

> <Gold.Chemscore.Internal_Hbond.Weighted>
0.0000

> <Gold.Chemscore.DEClash.Weighted>
0.2589

> <Gold.Chemscore.DEInternal.Weighted>
0.7562

> <Gold.Chemscore.Rot.Weighted>
4.2707

> <Gold.Chemscore.Internal.Correction.Weighted>
   9.000000E+99

> <Gold.Protein.RotatedTorsions>
[ 6907 6896 6895 6894 ] final   66.82 input  -60.11 | X-H torsion
[ 7974 7965 7964 7962 ] final  -86.25 input  175.53 | X-H torsion
[ 8008 7997 7996 7995 ] final  -71.87 input   59.86 | X-H torsion
[ 10167 10162 10161 10158 ] final  171.07 input  -65.29 | X-H torsion
[ 10718 10713 10712 10709 ] final   99.35 input   66.30 | X-H torsion
[ 10763 10752 10751 10750 ] final   94.11 input  -60.55 | X-H torsion
[ 11005 11000 10999 10996 ] final   47.89 input  -57.11 | X-H torsion

> <Gold.Protein.ActiveResidues>
 VAL166  LYS551  ARG553  GLY616  TRP617  ASP618  TYR619  PRO620  LYS621  CYS622 
 ASP623  PHE694  ASN695  SER759  ASP760  ASP761  ALA762  ILE779  LEU786  VAL792 
 PHE793  MET794  SER795  GLU796  ALA797  LYS798  CYS799  TRP800  GLU811  SER814 

> <Gold.Protein.RotatedAtoms>
  152.4508  134.5397  159.9835 H   0  0  0  0  0  0  0  0  0  0  0  0  # atno 6907 bound_to 6896
  151.5470  133.3418  159.2954 H   0  0  0  0  0  0  0  0  0  0  0  0  # atno 6908 bound_to 6896
  150.8437  134.7770  159.7016 H   0  0  0  0  0  0  0  0  0  0  0  0  # atno 6909 bound_to 6896
  145.4824  140.9556  143.1857 H   0  0  0  0  0  0  0  0  0  0  0  0  # atno 7974 bound_to 7965
  154.5122  140.0807  156.8011 H   0  0  0  0  0  0  0  0  0  0  0  0  # atno 8008 bound_to 7997
  155.3760  140.3425  155.4227 H   0  0  0  0  0  0  0  0  0  0  0  0  # atno 8009 bound_to 7997
  156.1586  140.1581  156.8638 H   0  0  0  0  0  0  0  0  0  0  0  0  # atno 8010 bound_to 7997
  139.5036  144.3526  151.9907 H   0  0  0  0  0  0  0  0  0  0  0  0  # atno 10167 bound_to 10162
  157.6878  131.0667  150.4935 H   0  0  0  0  0  0  0  0  0  0  0  0  # atno 10718 bound_to 10713
  153.2380  135.4301  155.0667 H   0  0  0  0  0  0  0  0  0  0  0  0  # atno 10763 bound_to 10752
  154.8327  135.3395  154.6691 H   0  0  0  0  0  0  0  0  0  0  0  0  # atno 10764 bound_to 10752
  153.7116  135.7022  153.5092 H   0  0  0  0  0  0  0  0  0  0  0  0  # atno 10765 bound_to 10752
  140.1239  134.4793  155.8575 H   0  0  0  0  0  0  0  0  0  0  0  0  # atno 11005 bound_to 11000
  144.7881  139.6385  143.7125 LP  0  0  0  0  0  0  0  0  0  0  0  0  # atno 17320 bound_to 7965
  146.2333  139.5855  142.9541 LP  0  0  0  0  0  0  0  0  0  0  0  0  # atno 17321 bound_to 7965
  140.2963  144.3697  150.6073 LP  0  0  0  0  0  0  0  0  0  0  0  0  # atno 17342 bound_to 10162
  140.5908  143.2168  151.7257 LP  0  0  0  0  0  0  0  0  0  0  0  0  # atno 17343 bound_to 10162
  156.5260  130.4173  149.6226 LP  0  0  0  0  0  0  0  0  0  0  0  0  # atno 17370 bound_to 10713
  156.3111  130.7230  151.2122 LP  0  0  0  0  0  0  0  0  0  0  0  0  # atno 17371 bound_to 10713
  141.2157  133.6771  156.6942 LP  0  0  0  0  0  0  0  0  0  0  0  0  # atno 17394 bound_to 11000
  140.2929  134.8226  157.4032 LP  0  0  0  0  0  0  0  0  0  0  0  0  # atno 17395 bound_to 11000

$$$$
