AV-unprocessed.smi:1232|AV-procd|sdf|5170|dock2
  -GOLD-   22720 4243D 1   1.00000     0.00000
 Structure written by MMmdl.
 53 54  0  0  0  0  0  0  0  0  1 V2000
  147.9959  135.5828  159.3610 C   0  0  0  0  0  0  0  0  0  0  0  0
  149.0478  135.4810  158.2619 C   0  0  0  0  0  0  0  0  0  0  0  0
  150.2419  135.4993  158.5552 O   0  0  0  0  0  0  0  0  0  0  0  0
  148.5777  135.3814  157.0055 N   0  0  0  0  0  0  0  0  0  0  0  0
  149.3281  135.2353  155.7500 C   0  0  1  0  0  0  0  0  0  0  0  0
  150.3018  136.4104  155.5451 C   0  0  0  0  0  0  0  0  0  0  0  0
  151.2023  136.6243  156.3571 O   0  0  0  0  0  0  0  0  0  0  0  0
  150.1237  137.1536  154.4411 N   0  0  0  0  0  0  0  0  0  0  0  0
  150.9473  138.2969  154.0616 C   0  0  0  0  0  0  0  0  0  0  0  0
  151.1719  139.3105  155.1753 C   0  0  0  0  0  0  0  0  0  0  0  0
  152.2510  139.2076  156.0779 C   0  0  0  0  0  0  0  0  0  0  0  0
  152.3933  140.1784  157.0875 C   0  0  0  0  0  0  0  0  0  0  0  0
  151.4514  141.2314  157.1726 C   0  0  0  0  0  0  0  0  0  0  0  0
  151.5759  142.2198  158.1739 N   0  0  0  0  0  0  0  0  0  0  0  0
  151.6661  143.6162  157.7513 C   0  0  0  0  0  0  0  0  0  0  0  0
  151.5013  144.5536  158.9587 C   0  0  0  0  0  0  0  0  0  0  0  0
  152.4548  144.2166  159.9606 O   0  0  0  0  0  0  0  0  0  0  0  0
  152.2784  142.8877  160.4434 C   0  0  2  0  0  0  0  0  0  0  0  0
  153.2829  142.6506  161.5762 C   0  0  0  0  0  0  0  0  0  0  0  0
  152.4716  141.8937  159.2813 C   0  0  0  0  0  0  0  0  0  0  0  0
  150.4075  141.3174  156.3114 N   0  0  0  0  0  0  0  0  0  0  0  0
  150.2761  140.3846  155.3449 C   0  0  0  0  0  0  0  0  0  0  0  0
  149.9332  133.8142  155.5229 C   0  0  0  0  0  0  0  0  0  0  0  0
  151.2752  133.6119  156.2540 C   0  0  0  0  0  0  0  0  0  0  0  0
  150.1198  133.4943  154.0269 C   0  0  0  0  0  0  0  0  0  0  0  0
  147.2259  136.3069  159.0929 H   0  0  0  0  0  0  0  0  0  0  0  0
  148.4482  135.9002  160.3011 H   0  0  0  0  0  0  0  0  0  0  0  0
  147.5209  134.6141  159.5190 H   0  0  0  0  0  0  0  0  0  0  0  0
  147.5734  135.3936  156.9045 H   0  0  0  0  0  0  0  0  0  0  0  0
  148.5592  135.3539  154.9845 H   0  0  0  0  0  0  0  0  0  0  0  0
  149.3681  136.9067  153.8184 H   0  0  0  0  0  0  0  0  0  0  0  0
  151.9082  137.9447  153.6822 H   0  0  0  0  0  0  0  0  0  0  0  0
  150.4576  138.8065  153.2315 H   0  0  0  0  0  0  0  0  0  0  0  0
  152.9608  138.3969  156.0078 H   0  0  0  0  0  0  0  0  0  0  0  0
  153.2100  140.0946  157.7886 H   0  0  0  0  0  0  0  0  0  0  0  0
  152.6327  143.7878  157.2752 H   0  0  0  0  0  0  0  0  0  0  0  0
  150.8939  143.8399  157.0140 H   0  0  0  0  0  0  0  0  0  0  0  0
  151.6574  145.5883  158.6538 H   0  0  0  0  0  0  0  0  0  0  0  0
  150.4908  144.4906  159.3657 H   0  0  0  0  0  0  0  0  0  0  0  0
  151.2699  142.7857  160.8484 H   0  0  0  0  0  0  0  0  0  0  0  0
  153.1799  141.6466  161.9883 H   0  0  0  0  0  0  0  0  0  0  0  0
  153.1281  143.3607  162.3888 H   0  0  0  0  0  0  0  0  0  0  0  0
  154.3085  142.7649  161.2244 H   0  0  0  0  0  0  0  0  0  0  0  0
  152.3039  140.8830  159.6503 H   0  0  0  0  0  0  0  0  0  0  0  0
  153.5007  141.9316  158.9211 H   0  0  0  0  0  0  0  0  0  0  0  0
  149.4284  140.5024  154.6861 H   0  0  0  0  0  0  0  0  0  0  0  0
  149.2519  133.0700  155.9344 H   0  0  0  0  0  0  0  0  0  0  0  0
  152.0123  134.3522  155.9417 H   0  0  0  0  0  0  0  0  0  0  0  0
  151.6896  132.6252  156.0457 H   0  0  0  0  0  0  0  0  0  0  0  0
  151.1646  133.6839  157.3361 H   0  0  0  0  0  0  0  0  0  0  0  0
  150.7936  134.2075  153.5515 H   0  0  0  0  0  0  0  0  0  0  0  0
  149.1761  133.5152  153.4826 H   0  0  0  0  0  0  0  0  0  0  0  0
  150.5422  132.4988  153.8888 H   0  0  0  0  0  0  0  0  0  0  0  0
  1  2  1  0  0  0  0
  1 26  1  0  0  0  0
  1 27  1  0  0  0  0
  1 28  1  0  0  0  0
  2  3  2  0  0  0  0
  2  4  1  0  0  0  0
  4  5  1  0  0  0  0
  4 29  1  0  0  0  0
  5  6  1  0  0  0  0
  5 23  1  0  0  0  0
  5 30  1  0  0  0  0
  6  7  2  0  0  0  0
  6  8  1  0  0  0  0
  8  9  1  0  0  0  0
  8 31  1  0  0  0  0
  9 10  1  0  0  0  0
  9 32  1  0  0  0  0
  9 33  1  0  0  0  0
 10 22  1  0  0  0  0
 10 11  2  0  0  0  0
 11 12  1  0  0  0  0
 11 34  1  0  0  0  0
 12 13  2  0  0  0  0
 12 35  1  0  0  0  0
 13 14  1  0  0  0  0
 13 21  1  0  0  0  0
 14 20  1  0  0  0  0
 14 15  1  0  0  0  0
 15 16  1  0  0  0  0
 15 36  1  0  0  0  0
 15 37  1  0  0  0  0
 16 17  1  0  0  0  0
 16 38  1  0  0  0  0
 16 39  1  0  0  0  0
 17 18  1  0  0  0  0
 18 19  1  0  0  0  0
 18 20  1  0  0  0  0
 18 40  1  0  0  0  0
 19 41  1  0  0  0  0
 19 42  1  0  0  0  0
 19 43  1  0  0  0  0
 20 44  1  0  0  0  0
 20 45  1  0  0  0  0
 21 22  2  0  0  0  0
 22 46  1  0  0  0  0
 23 24  1  0  0  0  0
 23 25  1  0  0  0  0
 23 47  1  0  0  0  0
 24 48  1  0  0  0  0
 24 49  1  0  0  0  0
 24 50  1  0  0  0  0
 25 51  1  0  0  0  0
 25 52  1  0  0  0  0
 25 53  1  0  0  0  0
M  END
> <s_m_source_file>
AV-unprocessed.smi

> <i_m_source_file_index>
1232

> <i_lp_mmshare_version>
43012

> <i_f3d_flags>
0

> <s_epik_input>
W0NIM11DKD1PKVtOSF1bQ0BASF0oW0NIXShbQ0gzXSlbQ0gzXSlDKD1PKVtOSF1bQ0gyXWMxW2NIXVtjSF1jKG5bY0hdMSlOMltDSDJdW0NIMl1PW0NAQEhdKFtDSDNdKVtDSDJdMg==

> <s_epik_cmdline>
J2VwaWtfcHl0aG9uJywgJy1waCcsICc3LjAnLCAnLXRuJywgJzgnLCAnLW1hJywgJzIwMCcsICctbWV0YWxfYmluZGluZycsICctaW1hZScsICc8aW5maWxlLm1hZT4nLCAnLW9tYWUnLCAnPG91dGZpbGUubWFlPic=

> <r_lp_tautomer_probability>
1

> <r_epik_Ionization_Penalty>
0.00557618

> <r_epik_Ionization_Penalty_Charging>
0

> <r_epik_Ionization_Penalty_Neutral>
0.00557618

> <r_epik_State_Penalty>
0.00408363

> <r_epik_Charging_Adjusted_Penalty>
0.00408363

> <i_epik_Tot_Q>
0

> <i_epik_Tot_abs_Q>
0

> <r_epik_Metal_State_Penalty>
-0

> <b_epik_Metal_Only>
0

> <s_lp_Force_Field>
OPLS_2005

> <r_lp_Energy>
20.9167

> <b_lp_Chiralities_Consistent>
1

> <s_lp_Variant>
AV-unprocessed.smi:1232-4

> <Gold.Version>
5.8.1

> <Gold.Id.Protein>
6NUR|6NUR_protein|mol2

> <Gold.PLP.Fitness>
47.6607

> <Gold.PLP.PLP>
-43.9222

> <Gold.PLP.part.hbond>
-2.0000

> <Gold.PLP.part.metal>
0.0000

> <Gold.PLP.part.buried>
-5.2282

> <Gold.PLP.part.nonpolar>
-35.3875

> <Gold.PLP.part.repulsive>
0.1634

> <Gold.PLP.ligand.clash>
0.0000

> <Gold.PLP.ligand.torsion>
1.2275

> <Gold.PLP.Chemscore.Hbond>
1.7977

> <Gold.PLP.Chemscore.CHOScore>
0.0000

> <Gold.PLP.Chemscore.Metal>
0.0000

> <Gold.Chemscore.Hbonds>
donor molecule, donor type, donor heavy atom, donor atom, acceptor molecule, acceptor atom, score
      L1  H     8    31       P1  7948  0.72
      P1  H  6896  6907       L1     3  0.62

> <Gold.PLP.Chemscore.Internal.Correction>
0.8004

> <Gold.Rescore>
     Score         DG    S(hbond)    S(metal)    S(lipo)     H(rot)  DE(clash)    DE(int)     intcor
     13.17     -19.36       1.86        0.00     112.04       2.13       0.10       6.09       ----

> <Gold.Chemscore.Fitness>
13.1708

> <Gold.Chemscore.DG>
-19.3567

> <Gold.Chemscore.ZeroCoef>
-5.4800

> <Gold.Chemscore.Hbond>
1.8638

> <Gold.Chemscore.Metal>
0.0000

> <Gold.Chemscore.Lipo>
112.0397

> <Gold.Chemscore.Internal_Hbond>
0.0000

> <Gold.Chemscore.DEClash>
0.1009

> <Gold.Chemscore.DEInternal>
6.0850

> <Gold.Chemscore.Rot>
2.1317

> <Gold.Chemscore.Internal.Correction>
   9.000000E+99

> <Gold.Chemscore.Hbonds>
donor molecule, donor type, donor heavy atom, donor atom, acceptor molecule, acceptor atom, score
      L1  H     8    31       P1  7948  0.65
      P1  H  6896  6907       L1     3  0.59

> <Gold.Chemscore.Hbond.Weighted>
-6.2252

> <Gold.Chemscore.Metal.Weighted>
-0.0000

> <Gold.Chemscore.Lipo.Weighted>
-13.1086

> <Gold.Chemscore.Internal_Hbond.Weighted>
0.0000

> <Gold.Chemscore.DEClash.Weighted>
0.1009

> <Gold.Chemscore.DEInternal.Weighted>
6.0850

> <Gold.Chemscore.Rot.Weighted>
5.4572

> <Gold.Chemscore.Internal.Correction.Weighted>
   9.000000E+99

> <Gold.Protein.RotatedTorsions>
[ 6907 6896 6895 6894 ] final  -57.93 input  -60.11 | X-H torsion
[ 7974 7965 7964 7962 ] final  -85.39 input  175.53 | X-H torsion
[ 8008 7997 7996 7995 ] final -169.59 input   59.86 | X-H torsion
[ 10167 10162 10161 10158 ] final   -8.68 input  -65.29 | X-H torsion
[ 10718 10713 10712 10709 ] final   15.68 input   66.30 | X-H torsion
[ 10763 10752 10751 10750 ] final  -72.67 input  -60.55 | X-H torsion
[ 11005 11000 10999 10996 ] final   25.84 input  -57.11 | X-H torsion

> <Gold.Protein.ActiveResidues>
 VAL166  LYS551  ARG553  GLY616  TRP617  ASP618  TYR619  PRO620  LYS621  CYS622 
 ASP623  PHE694  ASN695  SER759  ASP760  ASP761  ALA762  ILE779  LEU786  VAL792 
 PHE793  MET794  SER795  GLU796  ALA797  LYS798  CYS799  TRP800  GLU811  SER814 

> <Gold.Protein.RotatedAtoms>
  150.8047  134.7163  159.6632 H   0  0  0  0  0  0  0  0  0  0  0  0  # atno 6907 bound_to 6896
  152.4165  134.6028  160.0014 H   0  0  0  0  0  0  0  0  0  0  0  0  # atno 6908 bound_to 6896
  151.6256  133.3299  159.3133 H   0  0  0  0  0  0  0  0  0  0  0  0  # atno 6909 bound_to 6896
  145.4939  140.9551  143.1797 H   0  0  0  0  0  0  0  0  0  0  0  0  # atno 7974 bound_to 7965
  155.9070  140.1051  157.1307 H   0  0  0  0  0  0  0  0  0  0  0  0  # atno 8008 bound_to 7997
  154.4034  140.1281  156.4573 H   0  0  0  0  0  0  0  0  0  0  0  0  # atno 8009 bound_to 7997
  155.7355  140.3468  155.5082 H   0  0  0  0  0  0  0  0  0  0  0  0  # atno 8010 bound_to 7997
  140.7066  143.5942  150.8863 H   0  0  0  0  0  0  0  0  0  0  0  0  # atno 10167 bound_to 10162
  157.0570  130.6293  149.5778 H   0  0  0  0  0  0  0  0  0  0  0  0  # atno 10718 bound_to 10713
  154.4489  135.5922  153.6178 H   0  0  0  0  0  0  0  0  0  0  0  0  # atno 10763 bound_to 10752
  152.9812  135.6016  154.3629 H   0  0  0  0  0  0  0  0  0  0  0  0  # atno 10764 bound_to 10752
  154.3488  135.2841  155.2362 H   0  0  0  0  0  0  0  0  0  0  0  0  # atno 10765 bound_to 10752
  140.3435  134.2307  155.7687 H   0  0  0  0  0  0  0  0  0  0  0  0  # atno 11005 bound_to 11000
  144.7818  139.6510  143.7151 LP  0  0  0  0  0  0  0  0  0  0  0  0  # atno 17320 bound_to 7965
  146.2267  139.5736  142.9582 LP  0  0  0  0  0  0  0  0  0  0  0  0  # atno 17321 bound_to 7965
  139.9667  143.6103  152.2986 LP  0  0  0  0  0  0  0  0  0  0  0  0  # atno 17342 bound_to 10162
  139.6675  144.7662  151.1846 LP  0  0  0  0  0  0  0  0  0  0  0  0  # atno 17343 bound_to 10162
  155.9990  130.5065  150.7591 LP  0  0  0  0  0  0  0  0  0  0  0  0  # atno 17370 bound_to 10713
  157.4985  131.0916  151.0343 LP  0  0  0  0  0  0  0  0  0  0  0  0  # atno 17371 bound_to 10713
  141.2032  133.7918  157.0352 LP  0  0  0  0  0  0  0  0  0  0  0  0  # atno 17394 bound_to 11000
  140.0762  134.9674  157.1549 LP  0  0  0  0  0  0  0  0  0  0  0  0  # atno 17395 bound_to 11000

$$$$
