AV-unprocessed.smi:2795|AV-procd|sdf|10778|dock4
  -GOLD-   2272015213D 1   1.00000     0.00000
 Structure written by MMmdl.
 37 38  0  0  0  0  0  0  0  0  2 V2000
  146.7312  141.8934  154.0946 C   0  0  0  0  0  0  0  0  0  0  0  0
  147.5257  140.6912  153.8318 N   0  0  0  0  0  0  0  0  0  0  0  0
  147.1049  139.7274  153.0030 C   0  0  0  0  0  0  0  0  0  0  0  0
  148.0541  138.7893  152.9875 N   0  3  0  0  0  0  0  0  0  0  0  0
  149.0859  139.1534  153.8080 C   0  0  0  0  0  0  0  0  0  0  0  0
  148.7580  140.3716  154.3551 C   0  0  0  0  0  0  0  0  0  0  0  0
  149.4835  141.2634  155.3159 C   0  0  0  0  0  0  0  0  0  0  0  0
  150.1767  140.4854  156.4490 C   0  0  0  0  0  0  0  0  0  0  0  0
  150.8232  141.3839  157.3980 N   0  0  0  0  0  0  0  0  0  0  0  0
  152.0220  141.1767  157.9666 C   0  0  0  0  0  0  0  0  0  0  0  0
  152.7128  140.1866  157.7227 O   0  0  0  0  0  0  0  0  0  0  0  0
  152.5241  142.2590  158.9352 C   0  0  2  0  0  0  0  0  0  0  0  0
  152.6792  141.7360  160.3817 C   0  0  0  0  0  0  0  0  0  0  0  0
  153.1137  142.8665  161.3217 C   0  0  0  0  0  0  0  0  0  0  0  0
  152.1591  144.0560  161.1794 C   0  0  0  0  0  0  0  0  0  0  0  0
  152.0347  144.4656  159.7039 C   0  0  0  0  0  0  0  0  0  0  0  0
  151.6048  143.3531  158.9256 O   0  0  0  0  0  0  0  0  0  0  0  0
  145.7746  141.8351  153.5734 H   0  0  0  0  0  0  0  0  0  0  0  0
  147.2810  142.7677  153.7452 H   0  0  0  0  0  0  0  0  0  0  0  0
  146.5525  141.9774  155.1668 H   0  0  0  0  0  0  0  0  0  0  0  0
  146.1806  139.7087  152.4531 H   0  0  0  0  0  0  0  0  0  0  0  0
  149.9600  138.5321  153.9391 H   0  0  0  0  0  0  0  0  0  0  0  0
  150.2173  141.8461  154.7579 H   0  0  0  0  0  0  0  0  0  0  0  0
  148.7716  141.9739  155.7379 H   0  0  0  0  0  0  0  0  0  0  0  0
  149.4451  139.8913  156.9975 H   0  0  0  0  0  0  0  0  0  0  0  0
  150.9102  139.7856  156.0445 H   0  0  0  0  0  0  0  0  0  0  0  0
  150.3211  142.2226  157.6532 H   0  0  0  0  0  0  0  0  0  0  0  0
  153.4904  142.6034  158.5627 H   0  0  0  0  0  0  0  0  0  0  0  0
  151.7328  141.3189  160.7294 H   0  0  0  0  0  0  0  0  0  0  0  0
  153.4115  140.9285  160.4232 H   0  0  0  0  0  0  0  0  0  0  0  0
  153.1348  142.5166  162.3541 H   0  0  0  0  0  0  0  0  0  0  0  0
  154.1293  143.1791  161.0749 H   0  0  0  0  0  0  0  0  0  0  0  0
  151.1757  143.7865  161.5669 H   0  0  0  0  0  0  0  0  0  0  0  0
  152.5122  144.8969  161.7767 H   0  0  0  0  0  0  0  0  0  0  0  0
  151.3068  145.2704  159.5989 H   0  0  0  0  0  0  0  0  0  0  0  0
  152.9845  144.8438  159.3230 H   0  0  0  0  0  0  0  0  0  0  0  0
  148.0133  137.9346  152.4463 H   0  0  0  0  0  0  0  0  0  0  0  0
  1  2  1  0  0  0  0
  1 18  1  0  0  0  0
  1 19  1  0  0  0  0
  1 20  1  0  0  0  0
  2  6  1  0  0  0  0
  2  3  1  0  0  0  0
  3  4  2  0  0  0  0
  3 21  1  0  0  0  0
  4  5  1  0  0  0  0
  4 37  1  0  0  0  0
  5  6  2  0  0  0  0
  5 22  1  0  0  0  0
  6  7  1  0  0  0  0
  7  8  1  0  0  0  0
  7 23  1  0  0  0  0
  7 24  1  0  0  0  0
  8  9  1  0  0  0  0
  8 25  1  0  0  0  0
  8 26  1  0  0  0  0
  9 10  1  0  0  0  0
  9 27  1  0  0  0  0
 10 11  2  0  0  0  0
 10 12  1  0  0  0  0
 12 17  1  0  0  0  0
 12 13  1  0  0  0  0
 12 28  1  0  0  0  0
 13 14  1  0  0  0  0
 13 29  1  0  0  0  0
 13 30  1  0  0  0  0
 14 15  1  0  0  0  0
 14 31  1  0  0  0  0
 14 32  1  0  0  0  0
 15 16  1  0  0  0  0
 15 33  1  0  0  0  0
 15 34  1  0  0  0  0
 16 17  1  0  0  0  0
 16 35  1  0  0  0  0
 16 36  1  0  0  0  0
M  CHG  1   4   1
M  END
> <s_m_source_file>
AV-unprocessed.smi

> <i_m_source_file_index>
2795

> <i_lp_mmshare_version>
43012

> <i_f3d_flags>
0

> <s_epik_input>
W0NIM11uMVtjSF1uW2NIXWMxW0NIMl1bQ0gyXVtOSF1DKD1PKVtDQEBIXTJbQ0gyXVtDSDJdW0NIMl1bQ0gyXU8y

> <s_epik_cmdline>
J2VwaWtfcHl0aG9uJywgJy1waCcsICc3LjAnLCAnLXRuJywgJzgnLCAnLW1hJywgJzIwMCcsICctbWV0YWxfYmluZGluZycsICctaW1hZScsICc8aW5maWxlLm1hZT4nLCAnLW9tYWUnLCAnPG91dGZpbGUubWFlPic=

> <r_lp_tautomer_probability>
1

> <r_epik_Ionization_Penalty>
0.154825

> <r_epik_Ionization_Penalty_Charging>
0

> <r_epik_Ionization_Penalty_Neutral>
0.154825

> <r_epik_State_Penalty>
0.144119

> <r_epik_Charging_Adjusted_Penalty>
0.144119

> <i_epik_Tot_Q>
1

> <i_epik_Tot_abs_Q>
1

> <r_epik_Metal_State_Penalty>
0.465431

> <b_epik_Metal_Only>
0

> <s_lp_Force_Field>
OPLS_2005

> <r_lp_Energy>
10.1075

> <b_lp_Chiralities_Consistent>
1

> <s_lp_Variant>
AV-unprocessed.smi:2795-1

> <Gold.Version>
5.8.1

> <Gold.Id.Protein>
6NUR|6NUR_protein|mol2

> <Gold.PLP.Fitness>
48.9645

> <Gold.PLP.PLP>
-38.8333

> <Gold.PLP.part.hbond>
-3.0000

> <Gold.PLP.part.metal>
0.0000

> <Gold.PLP.part.buried>
-3.0082

> <Gold.PLP.part.nonpolar>
-33.5603

> <Gold.PLP.part.repulsive>
0.1325

> <Gold.PLP.ligand.clash>
0.0000

> <Gold.PLP.ligand.torsion>
0.4652

> <Gold.PLP.Chemscore.Hbond>
2.8560

> <Gold.PLP.Chemscore.CHOScore>
0.8280

> <Gold.PLP.Chemscore.Metal>
0.0000

> <Gold.Chemscore.Hbonds>
donor molecule, donor type, donor heavy atom, donor atom, acceptor molecule, acceptor atom, score
      L1  H     4    37       P1  7948  1.89
      P1  H  7997  8009       L1    11  1.00
      L1  C     3    21       P1 10175  0.81

> <Gold.PLP.Chemscore.Internal.Correction>
0.0098

> <Gold.Rescore>
     Score         DG    S(hbond)    S(metal)    S(lipo)     H(rot)  DE(clash)    DE(int)     intcor
     16.57     -17.35       1.88        0.00      87.81       1.82       0.32       0.47       ----

> <Gold.Chemscore.Fitness>
16.5681

> <Gold.Chemscore.DG>
-17.3545

> <Gold.Chemscore.ZeroCoef>
-5.4800

> <Gold.Chemscore.Hbond>
1.8764

> <Gold.Chemscore.Metal>
0.0000

> <Gold.Chemscore.Lipo>
87.8091

> <Gold.Chemscore.Internal_Hbond>
0.0000

> <Gold.Chemscore.DEClash>
0.3197

> <Gold.Chemscore.DEInternal>
0.4667

> <Gold.Chemscore.Rot>
1.8227

> <Gold.Chemscore.Internal.Correction>
   9.000000E+99

> <Gold.Chemscore.Hbonds>
donor molecule, donor type, donor heavy atom, donor atom, acceptor molecule, acceptor atom, score
      L1  H     4    37       P1  7948  0.87
      P1  H  7997  8009       L1    11  0.94

> <Gold.Chemscore.Hbond.Weighted>
-6.2670

> <Gold.Chemscore.Metal.Weighted>
-0.0000

> <Gold.Chemscore.Lipo.Weighted>
-10.2737

> <Gold.Chemscore.Internal_Hbond.Weighted>
0.0000

> <Gold.Chemscore.DEClash.Weighted>
0.3197

> <Gold.Chemscore.DEInternal.Weighted>
0.4667

> <Gold.Chemscore.Rot.Weighted>
4.6662

> <Gold.Chemscore.Internal.Correction.Weighted>
   9.000000E+99

> <Gold.Protein.RotatedTorsions>
[ 6907 6896 6895 6894 ] final  -13.70 input  -60.11 | X-H torsion
[ 7974 7965 7964 7962 ] final  -87.73 input  175.53 | X-H torsion
[ 8008 7997 7996 7995 ] final  168.11 input   59.86 | X-H torsion
[ 10167 10162 10161 10158 ] final  -96.71 input  -65.29 | X-H torsion
[ 10718 10713 10712 10709 ] final   76.30 input   66.30 | X-H torsion
[ 10763 10752 10751 10750 ] final   24.09 input  -60.55 | X-H torsion
[ 11005 11000 10999 10996 ] final   -3.47 input  -57.11 | X-H torsion

> <Gold.Protein.ActiveResidues>
 VAL166  LYS551  ARG553  GLY616  TRP617  ASP618  TYR619  PRO620  LYS621  CYS622 
 ASP623  PHE694  ASN695  SER759  ASP760  ASP761  ALA762  ILE779  LEU786  VAL792 
 PHE793  MET794  SER795  GLU796  ALA797  LYS798  CYS799  TRP800  GLU811  SER814 

> <Gold.Protein.RotatedAtoms>
  151.3508  135.0884  159.9402 H   0  0  0  0  0  0  0  0  0  0  0  0  # atno 6907 bound_to 6896
  152.5187  133.9354  159.7611 H   0  0  0  0  0  0  0  0  0  0  0  0  # atno 6908 bound_to 6896
  150.9729  133.6271  159.2764 H   0  0  0  0  0  0  0  0  0  0  0  0  # atno 6909 bound_to 6896
  145.4626  140.9561  143.1961 H   0  0  0  0  0  0  0  0  0  0  0  0  # atno 7974 bound_to 7965
  156.1575  140.1599  156.8667 H   0  0  0  0  0  0  0  0  0  0  0  0  # atno 8008 bound_to 7997
  154.5129  140.0796  156.8061 H   0  0  0  0  0  0  0  0  0  0  0  0  # atno 8009 bound_to 7997
  155.3773  140.3403  155.4247 H   0  0  0  0  0  0  0  0  0  0  0  0  # atno 8010 bound_to 7997
  140.2910  143.3222  152.0346 H   0  0  0  0  0  0  0  0  0  0  0  0  # atno 10167 bound_to 10162
  157.6668  130.9768  150.1477 H   0  0  0  0  0  0  0  0  0  0  0  0  # atno 10718 bound_to 10713
  153.0789  135.6613  154.0086 H   0  0  0  0  0  0  0  0  0  0  0  0  # atno 10763 bound_to 10752
  153.9713  135.2964  155.3428 H   0  0  0  0  0  0  0  0  0  0  0  0  # atno 10764 bound_to 10752
  154.7184  135.5175  153.8845 H   0  0  0  0  0  0  0  0  0  0  0  0  # atno 10765 bound_to 10752
  140.6697  133.9247  155.8487 H   0  0  0  0  0  0  0  0  0  0  0  0  # atno 11005 bound_to 11000
  144.7993  139.6172  143.7078 LP  0  0  0  0  0  0  0  0  0  0  0  0  # atno 17320 bound_to 7965
  146.2442  139.6064  142.9471 LP  0  0  0  0  0  0  0  0  0  0  0  0  # atno 17321 bound_to 7965
  139.4938  144.6525  151.6644 LP  0  0  0  0  0  0  0  0  0  0  0  0  # atno 17342 bound_to 10162
  140.5732  144.0072  150.6228 LP  0  0  0  0  0  0  0  0  0  0  0  0  # atno 17343 bound_to 10162
  156.2284  130.3680  149.8473 LP  0  0  0  0  0  0  0  0  0  0  0  0  # atno 17370 bound_to 10713
  156.6307  130.8664  151.3494 LP  0  0  0  0  0  0  0  0  0  0  0  0  # atno 17371 bound_to 10713
  141.0402  134.0633  157.3911 LP  0  0  0  0  0  0  0  0  0  0  0  0  # atno 17394 bound_to 11000
  139.8985  135.0155  156.7154 LP  0  0  0  0  0  0  0  0  0  0  0  0  # atno 17395 bound_to 11000

$$$$
