AV-unprocessed.smi:2919|AV-procd|sdf|11195|dock8
  -GOLD-   2272016 83D 1   1.00000     0.00000
 Structure written by MMmdl.
 34 36  0  0  0  0  0  0  0  0  1 V2000
  151.6072  137.8073  154.4970 C   0  0  0  0  0  0  0  0  0  0  0  0
  151.1536  139.1652  155.0031 C   0  0  0  0  0  0  0  0  0  0  0  0
  152.0265  139.7883  155.8247 N   0  0  0  0  0  0  0  0  0  0  0  0
  151.7386  140.9875  156.3327 N   0  0  0  0  0  0  0  0  0  0  0  0
  150.5712  141.6085  156.0365 C   0  0  0  0  0  0  0  0  0  0  0  0
  150.3401  142.8724  156.6107 N   0  0  0  0  0  0  0  0  0  0  0  0
  151.1744  143.3875  157.6914 C   0  0  1  0  0  0  0  0  0  0  0  0
  150.7936  144.8106  158.1208 C   0  0  0  0  0  0  0  0  0  0  0  0
  150.5259  144.6292  159.6199 C   0  0  2  0  0  0  0  0  0  0  0  0
  151.8077  144.3277  160.4082 C   0  0  0  0  0  0  0  0  0  0  0  0
  152.0952  142.8842  159.9962 C   0  0  0  0  0  0  0  0  0  0  0  0
  150.9613  142.6078  159.0000 C   0  0  1  0  0  0  0  0  0  0  0  0
  149.9167  143.3505  159.6082 O   0  0  0  0  0  0  0  0  0  0  0  0
  149.6080  141.0115  155.1823 C   0  0  0  0  0  0  0  0  0  0  0  0
  148.3496  141.6848  154.8664 C   0  0  0  0  0  0  0  0  0  0  0  0
  147.3535  142.2176  154.6162 N   0  0  0  0  0  0  0  0  0  0  0  0
  149.9093  139.7362  154.6412 C   0  0  0  0  0  0  0  0  0  0  0  0
  148.9334  139.0193  153.7113 C   0  0  0  0  0  0  0  0  0  0  0  0
  150.9122  137.0302  154.8156 H   0  0  0  0  0  0  0  0  0  0  0  0
  152.5951  137.5473  154.8793 H   0  0  0  0  0  0  0  0  0  0  0  0
  151.6608  137.8042  153.4082 H   0  0  0  0  0  0  0  0  0  0  0  0
  149.7093  143.5140  156.1518 H   0  0  0  0  0  0  0  0  0  0  0  0
  152.2223  143.3257  157.3946 H   0  0  0  0  0  0  0  0  0  0  0  0
  151.5844  145.5346  157.9225 H   0  0  0  0  0  0  0  0  0  0  0  0
  149.8883  145.1546  157.6180 H   0  0  0  0  0  0  0  0  0  0  0  0
  149.9104  145.4156  160.0571 H   0  0  0  0  0  0  0  0  0  0  0  0
  152.6191  145.0108  160.1543 H   0  0  0  0  0  0  0  0  0  0  0  0
  151.6295  144.3902  161.4823 H   0  0  0  0  0  0  0  0  0  0  0  0
  153.0829  142.7580  159.5515 H   0  0  0  0  0  0  0  0  0  0  0  0
  152.0212  142.2195  160.8575 H   0  0  0  0  0  0  0  0  0  0  0  0
  150.7476  141.5464  158.8669 H   0  0  0  0  0  0  0  0  0  0  0  0
  148.7571  139.6181  152.8171 H   0  0  0  0  0  0  0  0  0  0  0  0
  147.9775  138.8671  154.2134 H   0  0  0  0  0  0  0  0  0  0  0  0
  149.2855  138.0427  153.3843 H   0  0  0  0  0  0  0  0  0  0  0  0
  1  2  1  0  0  0  0
  1 19  1  0  0  0  0
  1 20  1  0  0  0  0
  1 21  1  0  0  0  0
  2 17  1  0  0  0  0
  2  3  2  0  0  0  0
  3  4  1  0  0  0  0
  4  5  2  0  0  0  0
  5  6  1  0  0  0  0
  5 14  1  0  0  0  0
  6  7  1  0  0  0  0
  6 22  1  0  0  0  0
  7 12  1  0  0  0  0
  7  8  1  0  0  0  0
  7 23  1  0  0  0  0
  8  9  1  0  0  0  0
  8 24  1  0  0  0  0
  8 25  1  0  0  0  0
  9 13  1  0  0  0  0
  9 10  1  0  0  0  0
  9 26  1  0  0  0  0
 10 11  1  0  0  0  0
 10 27  1  0  0  0  0
 10 28  1  0  0  0  0
 11 12  1  0  0  0  0
 11 29  1  0  0  0  0
 11 30  1  0  0  0  0
 12 13  1  0  0  0  0
 12 31  1  0  0  0  0
 14 15  1  0  0  0  0
 14 17  2  0  0  0  0
 15 16  3  0  0  0  0
 17 18  1  0  0  0  0
 18 32  1  0  0  0  0
 18 33  1  0  0  0  0
 18 34  1  0  0  0  0
M  END
> <s_m_source_file>
AV-unprocessed.smi

> <i_m_source_file_index>
2919

> <i_lp_mmshare_version>
43012

> <i_f3d_flags>
0

> <s_epik_input>
W0NIM11jMW5uYyhjKEMjTiljMVtDSDNdKVtOSF1bQ0BIXShbQ0gyXVtDQEBIXTIzKVtDQEBIXShPMylbQ0gyXVtDSDJdMg==

> <s_epik_cmdline>
J2VwaWtfcHl0aG9uJywgJy1waCcsICc3LjAnLCAnLXRuJywgJzgnLCAnLW1hJywgJzIwMCcsICctbWV0YWxfYmluZGluZycsICctaW1hZScsICc8aW5maWxlLm1hZT4nLCAnLW9tYWUnLCAnPG91dGZpbGUubWFlPic=

> <r_lp_tautomer_probability>
1

> <r_epik_Ionization_Penalty>
0.00143865

> <r_epik_Ionization_Penalty_Charging>
0

> <r_epik_Ionization_Penalty_Neutral>
0.00143865

> <r_epik_State_Penalty>
-0

> <r_epik_Charging_Adjusted_Penalty>
0

> <i_epik_Tot_Q>
0

> <i_epik_Tot_abs_Q>
0

> <r_epik_Metal_State_Penalty>
-0

> <b_epik_Metal_Only>
0

> <s_lp_Force_Field>
OPLS_2005

> <r_lp_Energy>
49.0135

> <b_lp_Chiralities_Consistent>
1

> <s_lp_Variant>
AV-unprocessed.smi:2919-4

> <Gold.Version>
5.8.1

> <Gold.Id.Protein>
6NUR|6NUR_protein|mol2

> <Gold.PLP.Fitness>
41.4431

> <Gold.PLP.PLP>
-38.5825

> <Gold.PLP.part.hbond>
-1.9755

> <Gold.PLP.part.metal>
0.0000

> <Gold.PLP.part.buried>
-3.1331

> <Gold.PLP.part.nonpolar>
-34.0495

> <Gold.PLP.part.repulsive>
1.4801

> <Gold.PLP.ligand.clash>
0.0000

> <Gold.PLP.ligand.torsion>
0.0797

> <Gold.PLP.Chemscore.Hbond>
1.0000

> <Gold.PLP.Chemscore.CHOScore>
0.0000

> <Gold.PLP.Chemscore.Metal>
0.0000

> <Gold.Chemscore.Hbonds>
donor molecule, donor type, donor heavy atom, donor atom, acceptor molecule, acceptor atom, score
      L1  H     6    22       P1  8028  1.00

> <Gold.PLP.Chemscore.Internal.Correction>
0.0200

> <Gold.Rescore>
     Score         DG    S(hbond)    S(metal)    S(lipo)     H(rot)  DE(clash)    DE(int)     intcor
     17.22     -18.16       1.00        0.00     101.69       1.00       0.84       0.09       ----

> <Gold.Chemscore.Fitness>
17.2211

> <Gold.Chemscore.DG>
-18.1575

> <Gold.Chemscore.ZeroCoef>
-5.4800

> <Gold.Chemscore.Hbond>
0.9999

> <Gold.Chemscore.Metal>
0.0000

> <Gold.Chemscore.Lipo>
101.6898

> <Gold.Chemscore.Internal_Hbond>
0.0000

> <Gold.Chemscore.DEClash>
0.8440

> <Gold.Chemscore.DEInternal>
0.0923

> <Gold.Chemscore.Rot>
1.0000

> <Gold.Chemscore.Internal.Correction>
   9.000000E+99

> <Gold.Chemscore.Hbonds>
donor molecule, donor type, donor heavy atom, donor atom, acceptor molecule, acceptor atom, score
      L1  H     6    22       P1  8028  0.94

> <Gold.Chemscore.Hbond.Weighted>
-3.3398

> <Gold.Chemscore.Metal.Weighted>
-0.0000

> <Gold.Chemscore.Lipo.Weighted>
-11.8977

> <Gold.Chemscore.Internal_Hbond.Weighted>
0.0000

> <Gold.Chemscore.DEClash.Weighted>
0.8440

> <Gold.Chemscore.DEInternal.Weighted>
0.0923

> <Gold.Chemscore.Rot.Weighted>
2.5600

> <Gold.Chemscore.Internal.Correction.Weighted>
   9.000000E+99

> <Gold.Protein.RotatedTorsions>
[ 6907 6896 6895 6894 ] final  154.34 input  -60.11 | X-H torsion
[ 7974 7965 7964 7962 ] final  160.94 input  175.53 | X-H torsion
[ 8008 7997 7996 7995 ] final  136.55 input   59.86 | X-H torsion
[ 10167 10162 10161 10158 ] final   20.92 input  -65.29 | X-H torsion
[ 10718 10713 10712 10709 ] final  115.99 input   66.30 | X-H torsion
[ 10763 10752 10751 10750 ] final  -67.54 input  -60.55 | X-H torsion
[ 11005 11000 10999 10996 ] final -106.01 input  -57.11 | X-H torsion

> <Gold.Protein.ActiveResidues>
 VAL166  LYS551  ARG553  GLY616  TRP617  ASP618  TYR619  PRO620  LYS621  CYS622 
 ASP623  PHE694  ASN695  SER759  ASP760  ASP761  ALA762  ILE779  LEU786  VAL792 
 PHE793  MET794  SER795  GLU796  ALA797  LYS798  CYS799  TRP800  GLU811  SER814 

> <Gold.Protein.RotatedAtoms>
  152.0599  133.4057  159.4412 H   0  0  0  0  0  0  0  0  0  0  0  0  # atno 6907 bound_to 6896
  150.6866  134.3212  159.4797 H   0  0  0  0  0  0  0  0  0  0  0  0  # atno 6908 bound_to 6896
  152.1032  134.9326  160.0619 H   0  0  0  0  0  0  0  0  0  0  0  0  # atno 6909 bound_to 6896
  144.7711  139.7828  143.6296 H   0  0  0  0  0  0  0  0  0  0  0  0  # atno 7974 bound_to 7965
  156.3004  140.2442  156.3763 H   0  0  0  0  0  0  0  0  0  0  0  0  # atno 8008 bound_to 7997
  154.8742  140.0415  157.1763 H   0  0  0  0  0  0  0  0  0  0  0  0  # atno 8009 bound_to 7997
  154.8763  140.2942  155.5455 H   0  0  0  0  0  0  0  0  0  0  0  0  # atno 8010 bound_to 7997
  140.5466  143.9583  150.6552 H   0  0  0  0  0  0  0  0  0  0  0  0  # atno 10167 bound_to 10162
  157.6188  131.1019  150.7408 H   0  0  0  0  0  0  0  0  0  0  0  0  # atno 10718 bound_to 10713
  154.3760  135.6084  153.5765 H   0  0  0  0  0  0  0  0  0  0  0  0  # atno 10763 bound_to 10752
  152.9789  135.5849  154.4466 H   0  0  0  0  0  0  0  0  0  0  0  0  # atno 10764 bound_to 10752
  154.4227  135.2846  155.1942 H   0  0  0  0  0  0  0  0  0  0  0  0  # atno 10765 bound_to 10752
  141.1025  133.8857  157.1804 H   0  0  0  0  0  0  0  0  0  0  0  0  # atno 11005 bound_to 11000
  146.1858  139.5072  142.9837 LP  0  0  0  0  0  0  0  0  0  0  0  0  # atno 17320 bound_to 7965
  145.6322  141.0302  143.1857 LP  0  0  0  0  0  0  0  0  0  0  0  0  # atno 17321 bound_to 7965
  140.2997  143.3268  152.0983 LP  0  0  0  0  0  0  0  0  0  0  0  0  # atno 17342 bound_to 10162
  139.5010  144.6704  151.6256 LP  0  0  0  0  0  0  0  0  0  0  0  0  # atno 17343 bound_to 10162
  156.7770  130.4847  149.5408 LP  0  0  0  0  0  0  0  0  0  0  0  0  # atno 17370 bound_to 10713
  156.1323  130.6187  151.0351 LP  0  0  0  0  0  0  0  0  0  0  0  0  # atno 17371 bound_to 10713
  139.9882  135.0074  156.9914 LP  0  0  0  0  0  0  0  0  0  0  0  0  # atno 17394 bound_to 11000
  140.4985  134.1121  155.7246 LP  0  0  0  0  0  0  0  0  0  0  0  0  # atno 17395 bound_to 11000

$$$$
