AV-unprocessed.smi:102|AV-procd|sdf|947|dock10
  -GOLD-   2262017473D 1   1.00000     0.00000
 Structure written by MMmdl.
 44 45  0  0  0  0  0  0  0  0  1 V2000
  147.4282  135.2168  162.5753 C   0  0  0  0  0  0  0  0  0  0  0  0
  147.6901  135.9715  161.2789 C   0  0  0  0  0  0  0  0  0  0  0  0
  147.6275  137.1997  161.2254 O   0  0  0  0  0  0  0  0  0  0  0  0
  147.9809  135.1521  160.2593 O   0  0  0  0  0  0  0  0  0  0  0  0
  148.3394  135.6973  158.9988 C   0  0  0  0  0  0  0  0  0  0  0  0
  148.4770  134.5842  157.9503 C   0  0  2  0  0  0  0  0  0  0  0  0
  149.8493  134.3283  157.6609 O   0  0  0  0  0  0  0  0  0  0  0  0
  150.1089  134.4829  156.2965 C   0  0  2  0  0  0  0  0  0  0  0  0
  150.7355  135.8562  156.0939 N   0  0  0  0  0  0  0  0  0  0  0  0
  150.1535  136.8832  155.3534 C   0  0  0  0  0  0  0  0  0  0  0  0
  150.7089  138.1118  155.2280 C   0  0  0  0  0  0  0  0  0  0  0  0
  150.0826  139.0510  154.4990 F   0  0  0  0  0  0  0  0  0  0  0  0
  151.9712  138.4319  155.8847 C   0  0  0  0  0  0  0  0  0  0  0  0
  152.5491  139.5155  155.8301 O   0  0  0  0  0  0  0  0  0  0  0  0
  152.5141  137.3817  156.6274 N   0  0  0  0  0  0  0  0  0  0  0  0
  151.9524  136.1123  156.7672 C   0  0  0  0  0  0  0  0  0  0  0  0
  152.5192  135.2674  157.4594 O   0  0  0  0  0  0  0  0  0  0  0  0
  148.7577  134.2826  155.5902 C   0  0  1  0  0  0  0  0  0  0  0  0
  148.5312  132.8882  155.4009 O   0  0  0  0  0  0  0  0  0  0  0  0
  148.8257  132.3037  154.2268 C   0  0  0  0  0  0  0  0  0  0  0  0
  149.2330  130.8456  154.3896 C   0  0  0  0  0  0  0  0  0  0  0  0
  148.7945  132.8431  153.1207 O   0  0  0  0  0  0  0  0  0  0  0  0
  147.7812  134.8606  156.6130 C   0  0  1  0  0  0  0  0  0  0  0  0
  146.4909  134.2646  156.5433 O   0  0  0  0  0  0  0  0  0  0  0  0
  145.5187  134.6633  157.3822 C   0  0  0  0  0  0  0  0  0  0  0  0
  144.2012  133.9413  157.1330 C   0  0  0  0  0  0  0  0  0  0  0  0
  145.6273  135.5178  158.2619 O   0  0  0  0  0  0  0  0  0  0  0  0
  153.3848  137.5573  157.1073 H   0  0  0  0  0  0  0  0  0  0  0  0
  148.2113  134.4796  162.7527 H   0  0  0  0  0  0  0  0  0  0  0  0
  146.4698  134.7004  162.5234 H   0  0  0  0  0  0  0  0  0  0  0  0
  147.4041  135.9049  163.4204 H   0  0  0  0  0  0  0  0  0  0  0  0
  147.5842  136.4163  158.6787 H   0  0  0  0  0  0  0  0  0  0  0  0
  149.2838  136.2353  159.0917 H   0  0  0  0  0  0  0  0  0  0  0  0
  148.0850  133.6577  158.3717 H   0  0  0  0  0  0  0  0  0  0  0  0
  150.8723  133.7831  155.9500 H   0  0  0  0  0  0  0  0  0  0  0  0
  149.2170  136.7416  154.8403 H   0  0  0  0  0  0  0  0  0  0  0  0
  148.7143  134.7941  154.6289 H   0  0  0  0  0  0  0  0  0  0  0  0
  148.6085  130.3545  155.1361 H   0  0  0  0  0  0  0  0  0  0  0  0
  150.2732  130.7785  154.7080 H   0  0  0  0  0  0  0  0  0  0  0  0
  149.1253  130.3114  153.4454 H   0  0  0  0  0  0  0  0  0  0  0  0
  147.6987  135.9385  156.4762 H   0  0  0  0  0  0  0  0  0  0  0  0
  144.3794  132.9059  156.8415 H   0  0  0  0  0  0  0  0  0  0  0  0
  143.6463  134.4360  156.3359 H   0  0  0  0  0  0  0  0  0  0  0  0
  143.5885  133.9441  158.0346 H   0  0  0  0  0  0  0  0  0  0  0  0
  1  2  1  0  0  0  0
  1 29  1  0  0  0  0
  1 30  1  0  0  0  0
  1 31  1  0  0  0  0
  2  3  2  0  0  0  0
  2  4  1  0  0  0  0
  4  5  1  0  0  0  0
  5  6  1  0  0  0  0
  5 32  1  0  0  0  0
  5 33  1  0  0  0  0
  6 23  1  0  0  0  0
  6  7  1  0  0  0  0
  6 34  1  0  0  0  0
  7  8  1  0  0  0  0
  8  9  1  0  0  0  0
  8 18  1  0  0  0  0
  8 35  1  0  0  0  0
  9 16  1  0  0  0  0
  9 10  1  0  0  0  0
 10 11  2  0  0  0  0
 10 36  1  0  0  0  0
 11 12  1  0  0  0  0
 11 13  1  0  0  0  0
 13 14  2  0  0  0  0
 13 15  1  0  0  0  0
 15 28  1  0  0  0  0
 15 16  1  0  0  0  0
 16 17  2  0  0  0  0
 18 19  1  0  0  0  0
 18 23  1  0  0  0  0
 18 37  1  0  0  0  0
 19 20  1  0  0  0  0
 20 21  1  0  0  0  0
 20 22  2  0  0  0  0
 21 38  1  0  0  0  0
 21 39  1  0  0  0  0
 21 40  1  0  0  0  0
 23 24  1  0  0  0  0
 23 41  1  0  0  0  0
 24 25  1  0  0  0  0
 25 26  1  0  0  0  0
 25 27  2  0  0  0  0
 26 42  1  0  0  0  0
 26 43  1  0  0  0  0
 26 44  1  0  0  0  0
M  END
> <s_m_source_file>
AV-unprocessed.smi

> <i_m_source_file_index>
102

> <i_lp_mmshare_version>
43012

> <i_f3d_flags>
0

> <s_epik_input>
W0NIM11DKD1PKU9bQ0gyXVtDQEBIXTFPW0NASF0oW0NAQEhdKE9DKD1PKVtDSDNdKVtDQEhdMU9DKD1PKVtDSDNdKW4yW2NIXWMoRiljKD1PKVtuSF1jMj1P

> <s_epik_cmdline>
J2VwaWtfcHl0aG9uJywgJy1waCcsICc3LjAnLCAnLXRuJywgJzgnLCAnLW1hJywgJzIwMCcsICctbWV0YWxfYmluZGluZycsICctaW1hZScsICc8aW5maWxlLm1hZT4nLCAnLW9tYWUnLCAnPG91dGZpbGUubWFlPic=

> <r_lp_tautomer_probability>
0.999537

> <r_epik_Ionization_Penalty>
0.058267

> <r_epik_Ionization_Penalty_Charging>
0.058267

> <r_epik_Ionization_Penalty_Neutral>
6.57791e-16

> <r_epik_State_Penalty>
0.0503774

> <r_epik_Charging_Adjusted_Penalty>
0.108644

> <i_epik_Tot_Q>
0

> <i_epik_Tot_abs_Q>
0

> <r_epik_Metal_State_Penalty>
2.6644

> <b_epik_Metal_Only>
0

> <s_epik_Chemistry_Notes>
This compound has an ester and may undergo hydrolysis at high or low pH. This compound contains an acetal/aminal-like group ( X-CH(R)-Y where X, Y are N, S, or O) that may be acid/base labile, releasing an aldehyde.

> <s_lp_Force_Field>
OPLS_2005

> <r_lp_Energy>
12.8292

> <b_lp_Chiralities_Consistent>
1

> <s_lp_Variant>
AV-unprocessed.smi:102-3

> <Gold.Version>
5.8.1

> <Gold.Id.Protein>
6NUR|6NUR_protein|mol2

> <Gold.PLP.Fitness>
41.0834

> <Gold.PLP.PLP>
-32.4449

> <Gold.PLP.part.hbond>
-5.0000

> <Gold.PLP.part.metal>
0.0000

> <Gold.PLP.part.buried>
-5.8087

> <Gold.PLP.part.nonpolar>
-23.0785

> <Gold.PLP.part.repulsive>
0.3395

> <Gold.PLP.ligand.clash>
0.0000

> <Gold.PLP.ligand.torsion>
1.4988

> <Gold.PLP.Chemscore.Hbond>
3.8400

> <Gold.PLP.Chemscore.CHOScore>
0.0000

> <Gold.PLP.Chemscore.Metal>
0.0000

> <Gold.Chemscore.Hbonds>
donor molecule, donor type, donor heavy atom, donor atom, acceptor molecule, acceptor atom, score
      P1  H  6896  6908       L1     7  1.00
      P1  H  6931  6943       L1     3  0.93
      P1  H  6934  6947       L1     3  0.88
      P1  H  7997  8008       L1    14  1.00

> <Gold.PLP.Chemscore.Internal.Correction>
0.1161

> <Gold.Rescore>
     Score         DG    S(hbond)    S(metal)    S(lipo)     H(rot)  DE(clash)    DE(int)     intcor
      8.84     -11.66       3.75        0.00      34.45       4.05       0.00       2.82       ----

> <Gold.Chemscore.Fitness>
8.8410

> <Gold.Chemscore.DG>
-11.6636

> <Gold.Chemscore.ZeroCoef>
-5.4800

> <Gold.Chemscore.Hbond>
3.7505

> <Gold.Chemscore.Metal>
0.0000

> <Gold.Chemscore.Lipo>
34.4468

> <Gold.Chemscore.Internal_Hbond>
0.0000

> <Gold.Chemscore.DEClash>
0.0029

> <Gold.Chemscore.DEInternal>
2.8197

> <Gold.Chemscore.Rot>
4.0520

> <Gold.Chemscore.Internal.Correction>
   9.000000E+99

> <Gold.Chemscore.Hbonds>
donor molecule, donor type, donor heavy atom, donor atom, acceptor molecule, acceptor atom, score
      P1  H  6896  6908       L1     7  0.57
      P1  H  6931  6943       L1     3  0.88
      P1  H  6934  6947       L1     3  0.86
      P1  H  7997  8008       L1    14  0.99

> <Gold.Chemscore.Hbond.Weighted>
-12.5265

> <Gold.Chemscore.Metal.Weighted>
-0.0000

> <Gold.Chemscore.Lipo.Weighted>
-4.0303

> <Gold.Chemscore.Internal_Hbond.Weighted>
0.0000

> <Gold.Chemscore.DEClash.Weighted>
0.0029

> <Gold.Chemscore.DEInternal.Weighted>
2.8197

> <Gold.Chemscore.Rot.Weighted>
10.3732

> <Gold.Chemscore.Internal.Correction.Weighted>
   9.000000E+99

> <Gold.Protein.RotatedTorsions>
[ 6907 6896 6895 6894 ] final  134.91 input  -60.11 | X-H torsion
[ 7974 7965 7964 7962 ] final -151.40 input  175.53 | X-H torsion
[ 8008 7997 7996 7995 ] final  -37.66 input   59.86 | X-H torsion
[ 10167 10162 10161 10158 ] final  117.86 input  -65.29 | X-H torsion
[ 10718 10713 10712 10709 ] final -164.36 input   66.30 | X-H torsion
[ 10763 10752 10751 10750 ] final  118.40 input  -60.55 | X-H torsion
[ 11005 11000 10999 10996 ] final  126.85 input  -57.11 | X-H torsion

> <Gold.Protein.ActiveResidues>
 VAL166  LYS551  ARG553  GLY616  TRP617  ASP618  TYR619  PRO620  LYS621  CYS622 
 ASP623  PHE694  ASN695  SER759  ASP760  ASP761  ALA762  ILE779  LEU786  VAL792 
 PHE793  MET794  SER795  GLU796  ALA797  LYS798  CYS799  TRP800  GLU811  SER814 

> <Gold.Protein.RotatedAtoms>
  152.3061  133.5705  159.5650 H   0  0  0  0  0  0  0  0  0  0  0  0  # atno 6907 bound_to 6896
  150.7300  134.0220  159.3713 H   0  0  0  0  0  0  0  0  0  0  0  0  # atno 6908 bound_to 6896
  151.8116  135.0679  160.0464 H   0  0  0  0  0  0  0  0  0  0  0  0  # atno 6909 bound_to 6896
  144.7852  140.4803  143.5811 H   0  0  0  0  0  0  0  0  0  0  0  0  # atno 7974 bound_to 7965
  154.4050  140.1598  156.2573 H   0  0  0  0  0  0  0  0  0  0  0  0  # atno 8008 bound_to 7997
  155.9067  140.3430  155.6045 H   0  0  0  0  0  0  0  0  0  0  0  0  # atno 8009 bound_to 7997
  155.7384  140.0789  157.2248 H   0  0  0  0  0  0  0  0  0  0  0  0  # atno 8010 bound_to 7997
  139.6150  144.7090  151.2759 H   0  0  0  0  0  0  0  0  0  0  0  0  # atno 10167 bound_to 10162
  156.6380  130.8957  151.2990 H   0  0  0  0  0  0  0  0  0  0  0  0  # atno 10718 bound_to 10713
  153.5670  135.3509  155.2822 H   0  0  0  0  0  0  0  0  0  0  0  0  # atno 10763 bound_to 10752
  154.8687  135.4150  154.2767 H   0  0  0  0  0  0  0  0  0  0  0  0  # atno 10764 bound_to 10752
  153.3525  135.7056  153.6847 H   0  0  0  0  0  0  0  0  0  0  0  0  # atno 10765 bound_to 10752
  139.9477  134.9627  156.8768 H   0  0  0  0  0  0  0  0  0  0  0  0  # atno 11005 bound_to 11000
  145.5941  139.1498  143.3166 LP  0  0  0  0  0  0  0  0  0  0  0  0  # atno 17320 bound_to 7965
  146.2080  140.6065  142.9072 LP  0  0  0  0  0  0  0  0  0  0  0  0  # atno 17321 bound_to 7965
  140.7345  143.6764  150.8038 LP  0  0  0  0  0  0  0  0  0  0  0  0  # atno 17342 bound_to 10162
  140.0366  143.5389  152.2737 LP  0  0  0  0  0  0  0  0  0  0  0  0  # atno 17343 bound_to 10162
  157.7180  130.9521  150.1327 LP  0  0  0  0  0  0  0  0  0  0  0  0  # atno 17370 bound_to 10713
  156.2182  130.3672  149.8588 LP  0  0  0  0  0  0  0  0  0  0  0  0  # atno 17371 bound_to 10713
  140.5794  134.0367  155.7458 LP  0  0  0  0  0  0  0  0  0  0  0  0  # atno 17394 bound_to 11000
  141.1132  133.9582  157.2871 LP  0  0  0  0  0  0  0  0  0  0  0  0  # atno 17395 bound_to 11000

$$$$
