AV-unprocessed.smi:287|AV-procd|sdf|2190|dock6
  -GOLD-   2262021583D 1   1.00000     0.00000
 Structure written by MMmdl.
 55 58  0  0  0  0  0  0  0  0  1 V2000
  141.8037  135.1255  162.8336 C   0  0  0  0  0  0  0  0  0  0  0  0
  143.2608  135.1712  162.5239 C   0  0  0  0  0  0  0  0  0  0  0  0
  144.1477  136.1833  162.2994 C   0  0  0  0  0  0  0  0  0  0  0  0
  145.4225  135.5885  162.0606 C   0  0  0  0  0  0  0  0  0  0  0  0
  146.7155  136.3388  161.7695 C   0  0  2  0  0  0  0  0  0  0  0  0
  147.6993  136.1591  162.9379 C   0  0  0  0  0  0  0  0  0  0  0  0
  146.5277  137.7360  161.6540 O   0  0  0  0  0  0  0  0  0  0  0  0
  147.3725  135.8839  160.4457 C   0  0  0  0  0  0  0  0  0  0  0  0
  148.8286  135.9811  160.4714 N   0  0  0  0  0  0  0  0  0  0  0  0
  149.4660  136.8621  159.6721 C   0  0  0  0  0  0  0  0  0  0  0  0
  150.8217  136.8873  159.6010 N   0  0  0  0  0  0  0  0  0  0  0  0
  151.4286  137.7664  158.8000 C   0  0  0  0  0  0  0  0  0  0  0  0
  150.8793  138.6868  158.0054 N   0  0  0  0  0  0  0  0  0  0  0  0
  149.5154  138.6714  158.0692 C   0  0  0  0  0  0  0  0  0  0  0  0
  148.7428  137.7888  158.8775 C   0  0  0  0  0  0  0  0  0  0  0  0
  147.3917  138.0409  158.6949 N   0  0  0  0  0  0  0  0  0  0  0  0
  147.3698  139.0129  157.8249 C   0  0  0  0  0  0  0  0  0  0  0  0
  148.5996  139.4686  157.4001 N   0  0  0  0  0  0  0  0  0  0  0  0
  148.8293  140.5546  156.3829 C   0  0  2  0  0  0  0  0  0  0  0  0
  147.6406  140.7641  155.6894 O   0  0  0  0  0  0  0  0  0  0  0  0
  147.6755  140.0483  154.4660 C   0  0  1  0  0  0  0  0  0  0  0  0
  146.6674  140.6407  153.4652 C   0  0  0  0  0  0  0  0  0  0  0  0
  146.8054  140.0791  152.1760 O   0  0  0  0  0  0  0  0  0  0  0  0
  149.1536  140.0366  154.0395 C   0  0  2  0  0  0  0  0  0  0  0  0
  149.4749  138.8000  153.4351 O   0  0  0  0  0  0  0  0  0  0  0  0
  149.9255  140.2176  155.3524 C   0  0  1  0  0  0  0  0  0  0  0  0
  150.8472  141.2824  155.2297 O   0  0  0  0  0  0  0  0  0  0  0  0
  145.2000  134.2350  162.1512 C   0  0  0  0  0  0  0  0  0  0  0  0
  146.0670  133.0275  162.0093 C   0  0  0  0  0  0  0  0  0  0  0  0
  143.8928  133.9744  162.4332 O   0  0  0  0  0  0  0  0  0  0  0  0
  149.0668  141.4293  156.9904 H   0  0  0  0  0  0  0  0  0  0  0  0
  147.3480  139.0356  154.7007 H   0  0  0  0  0  0  0  0  0  0  0  0
  149.3772  140.8457  153.3437 H   0  0  0  0  0  0  0  0  0  0  0  0
  150.4795  139.3296  155.6567 H   0  0  0  0  0  0  0  0  0  0  0  0
  141.4074  136.1292  162.9891 H   0  0  0  0  0  0  0  0  0  0  0  0
  141.6183  134.5459  163.7378 H   0  0  0  0  0  0  0  0  0  0  0  0
  141.2491  134.6657  162.0155 H   0  0  0  0  0  0  0  0  0  0  0  0
  143.9111  137.2368  162.3109 H   0  0  0  0  0  0  0  0  0  0  0  0
  147.9493  135.1082  163.0871 H   0  0  0  0  0  0  0  0  0  0  0  0
  147.2775  136.5313  163.8724 H   0  0  0  0  0  0  0  0  0  0  0  0
  148.6331  136.6942  162.7607 H   0  0  0  0  0  0  0  0  0  0  0  0
  145.6282  137.9355  161.8640 H   0  0  0  0  0  0  0  0  0  0  0  0
  147.0604  134.8718  160.1824 H   0  0  0  0  0  0  0  0  0  0  0  0
  147.0245  136.5359  159.6431 H   0  0  0  0  0  0  0  0  0  0  0  0
  149.3006  135.3947  161.1453 H   0  0  0  0  0  0  0  0  0  0  0  0
  152.5079  137.7277  158.7955 H   0  0  0  0  0  0  0  0  0  0  0  0
  146.4408  139.4298  157.4636 H   0  0  0  0  0  0  0  0  0  0  0  0
  145.6515  140.4457  153.8092 H   0  0  0  0  0  0  0  0  0  0  0  0
  146.7809  141.7231  153.4038 H   0  0  0  0  0  0  0  0  0  0  0  0
  147.7221  139.9109  152.0184 H   0  0  0  0  0  0  0  0  0  0  0  0
  149.6713  138.9568  152.5236 H   0  0  0  0  0  0  0  0  0  0  0  0
  151.3882  141.3000  156.0045 H   0  0  0  0  0  0  0  0  0  0  0  0
  146.5502  133.0115  161.0325 H   0  0  0  0  0  0  0  0  0  0  0  0
  145.4865  132.1101  162.1101 H   0  0  0  0  0  0  0  0  0  0  0  0
  146.8438  133.0182  162.7738 H   0  0  0  0  0  0  0  0  0  0  0  0
  1  2  1  0  0  0  0
  1 35  1  0  0  0  0
  1 36  1  0  0  0  0
  1 37  1  0  0  0  0
  2 30  1  0  0  0  0
  2  3  2  0  0  0  0
  3  4  1  0  0  0  0
  3 38  1  0  0  0  0
  4  5  1  0  0  0  0
  4 28  2  0  0  0  0
  5  6  1  0  0  0  0
  5  7  1  0  0  0  0
  5  8  1  0  0  0  0
  6 39  1  0  0  0  0
  6 40  1  0  0  0  0
  6 41  1  0  0  0  0
  7 42  1  0  0  0  0
  8  9  1  0  0  0  0
  8 43  1  0  0  0  0
  8 44  1  0  0  0  0
  9 10  1  0  0  0  0
  9 45  1  0  0  0  0
 10 15  1  0  0  0  0
 10 11  2  0  0  0  0
 11 12  1  0  0  0  0
 12 13  2  0  0  0  0
 12 46  1  0  0  0  0
 13 14  1  0  0  0  0
 14 18  1  0  0  0  0
 14 15  2  0  0  0  0
 15 16  1  0  0  0  0
 16 17  2  0  0  0  0
 17 18  1  0  0  0  0
 17 47  1  0  0  0  0
 18 19  1  0  0  0  0
 19 31  1  0  0  0  0
 19 26  1  0  0  0  0
 19 20  1  0  0  0  0
 20 21  1  0  0  0  0
 21 32  1  0  0  0  0
 21 22  1  0  0  0  0
 21 24  1  0  0  0  0
 22 23  1  0  0  0  0
 22 48  1  0  0  0  0
 22 49  1  0  0  0  0
 23 50  1  0  0  0  0
 24 33  1  0  0  0  0
 24 25  1  0  0  0  0
 24 26  1  0  0  0  0
 25 51  1  0  0  0  0
 26 34  1  0  0  0  0
 26 27  1  0  0  0  0
 27 52  1  0  0  0  0
 28 29  1  0  0  0  0
 28 30  1  0  0  0  0
 29 53  1  0  0  0  0
 29 54  1  0  0  0  0
 29 55  1  0  0  0  0
M  END
> <s_m_source_file>
AV-unprocessed.smi

> <i_m_source_file_index>
287

> <i_lp_mmshare_version>
43012

> <i_f3d_flags>
0

> <s_epik_input>
W0NIM11jMVtjSF1jKGMobzEpW0NIM10pW0NAQF0oW0NIM10pKFtPSF0pW0NIMl1bTkhdYyhuW2NIXW4yKWMoYzIzKW5bY0hdbjNbQ0BASF00T1tDQEhdKFtDSDJdW09IXSlbQ0BASF0oW09IXSlbQ0BIXTRbT0hd

> <s_epik_cmdline>
J2VwaWtfcHl0aG9uJywgJy1waCcsICc3LjAnLCAnLXRuJywgJzgnLCAnLW1hJywgJzIwMCcsICctbWV0YWxfYmluZGluZycsICctaW1hZScsICc8aW5maWxlLm1hZT4nLCAnLW9tYWUnLCAnPG91dGZpbGUubWFlPic=

> <r_lp_tautomer_probability>
1

> <r_epik_Ionization_Penalty>
0.000992612

> <r_epik_Ionization_Penalty_Charging>
0

> <r_epik_Ionization_Penalty_Neutral>
0.000992612

> <r_epik_State_Penalty>
-0

> <r_epik_Charging_Adjusted_Penalty>
0

> <i_epik_Tot_Q>
0

> <i_epik_Tot_abs_Q>
0

> <r_epik_Metal_State_Penalty>
-0

> <b_epik_Metal_Only>
0

> <s_epik_Chemistry_Notes>
This compound contains an acetal/aminal-like group ( X-CH(R)-Y where X, Y are N, S, or O) that may be acid/base labile, releasing an aldehyde.

> <s_lp_Force_Field>
OPLS_2005

> <r_lp_Energy>
41.2787

> <b_lp_Chiralities_Consistent>
1

> <s_lp_Variant>
AV-unprocessed.smi:287-14

> <Gold.Version>
5.8.1

> <Gold.Id.Protein>
6NUR|6NUR_protein|mol2

> <Gold.PLP.Fitness>
50.1170

> <Gold.PLP.PLP>
-40.3083

> <Gold.PLP.part.hbond>
-7.6392

> <Gold.PLP.part.metal>
0.0000

> <Gold.PLP.part.buried>
-1.5527

> <Gold.PLP.part.nonpolar>
-31.9259

> <Gold.PLP.part.repulsive>
0.3296

> <Gold.PLP.ligand.clash>
1.1400

> <Gold.PLP.ligand.torsion>
1.2155

> <Gold.PLP.Chemscore.Hbond>
4.4160

> <Gold.PLP.Chemscore.CHOScore>
0.0000

> <Gold.PLP.Chemscore.Metal>
0.0000

> <Gold.Chemscore.Hbonds>
donor molecule, donor type, donor heavy atom, donor atom, acceptor molecule, acceptor atom, score
      L1  H    23    50       P1  7957  0.96
      L1  H    25    51       P1  7957  0.99
      P1  H  6896  6908       L1    11  1.00
      P1  H  6934  6947       L1     7  0.93
      P1  H  7989  7998       L1    27  0.54

> <Gold.PLP.Chemscore.Internal.Correction>
0.1317

> <Gold.Rescore>
     Score         DG    S(hbond)    S(metal)    S(lipo)     H(rot)  DE(clash)    DE(int)     intcor
     11.09     -14.50       3.79        0.00      84.01       5.27       0.75       2.66       ----

> <Gold.Chemscore.Fitness>
11.0869

> <Gold.Chemscore.DG>
-14.4991

> <Gold.Chemscore.ZeroCoef>
-5.4800

> <Gold.Chemscore.Hbond>
3.7947

> <Gold.Chemscore.Metal>
0.0000

> <Gold.Chemscore.Lipo>
84.0065

> <Gold.Chemscore.Internal_Hbond>
0.0000

> <Gold.Chemscore.DEClash>
0.7516

> <Gold.Chemscore.DEInternal>
2.6606

> <Gold.Chemscore.Rot>
5.2672

> <Gold.Chemscore.Internal.Correction>
   9.000000E+99

> <Gold.Chemscore.Hbonds>
donor molecule, donor type, donor heavy atom, donor atom, acceptor molecule, acceptor atom, score
      L1  H    23    50       P1  7957  0.89
      L1  H    25    51       P1  7957  0.78
      P1  H  6896  6908       L1    11  0.30
      P1  H  6934  6947       L1     7  0.53
      P1  H  7989  7998       L1    27  0.18

> <Gold.Chemscore.Hbond.Weighted>
-12.6742

> <Gold.Chemscore.Metal.Weighted>
-0.0000

> <Gold.Chemscore.Lipo.Weighted>
-9.8288

> <Gold.Chemscore.Internal_Hbond.Weighted>
0.0000

> <Gold.Chemscore.DEClash.Weighted>
0.7516

> <Gold.Chemscore.DEInternal.Weighted>
2.6606

> <Gold.Chemscore.Rot.Weighted>
13.4839

> <Gold.Chemscore.Internal.Correction.Weighted>
   9.000000E+99

> <Gold.Protein.RotatedTorsions>
[ 6907 6896 6895 6894 ] final -142.03 input  -60.11 | X-H torsion
[ 7974 7965 7964 7962 ] final   14.57 input  175.53 | X-H torsion
[ 8008 7997 7996 7995 ] final -179.13 input   59.86 | X-H torsion
[ 10167 10162 10161 10158 ] final  -85.21 input  -65.29 | X-H torsion
[ 10718 10713 10712 10709 ] final   -6.91 input   66.30 | X-H torsion
[ 10763 10752 10751 10750 ] final -159.32 input  -60.55 | X-H torsion
[ 11005 11000 10999 10996 ] final  150.81 input  -57.11 | X-H torsion

> <Gold.Protein.ActiveResidues>
 VAL166  LYS551  ARG553  GLY616  TRP617  ASP618  TYR619  PRO620  LYS621  CYS622 
 ASP623  PHE694  ASN695  SER759  ASP760  ASP761  ALA762  ILE779  LEU786  VAL792 
 PHE793  MET794  SER795  GLU796  ALA797  LYS798  CYS799  TRP800  GLU811  SER814 

> <Gold.Protein.RotatedAtoms>
  151.0817  133.5385  159.2620 H   0  0  0  0  0  0  0  0  0  0  0  0  # atno 6907 bound_to 6896
  151.2286  135.0545  159.8988 H   0  0  0  0  0  0  0  0  0  0  0  0  # atno 6908 bound_to 6896
  152.5424  134.0609  159.8205 H   0  0  0  0  0  0  0  0  0  0  0  0  # atno 6909 bound_to 6896
  146.2301  139.9021  142.8537 H   0  0  0  0  0  0  0  0  0  0  0  0  # atno 7974 bound_to 7965
  156.0269  140.1273  157.0299 H   0  0  0  0  0  0  0  0  0  0  0  0  # atno 8008 bound_to 7997
  154.4334  140.1057  156.6114 H   0  0  0  0  0  0  0  0  0  0  0  0  # atno 8009 bound_to 7997
  155.5863  140.3468  155.4556 H   0  0  0  0  0  0  0  0  0  0  0  0  # atno 8010 bound_to 7997
  140.4059  143.2643  151.9081 H   0  0  0  0  0  0  0  0  0  0  0  0  # atno 10167 bound_to 10162
  156.7249  130.5162  149.5859 H   0  0  0  0  0  0  0  0  0  0  0  0  # atno 10718 bound_to 10713
  154.7485  135.3086  154.8602 H   0  0  0  0  0  0  0  0  0  0  0  0  # atno 10763 bound_to 10752
  153.9396  135.6776  153.4748 H   0  0  0  0  0  0  0  0  0  0  0  0  # atno 10764 bound_to 10752
  153.1081  135.4879  154.8914 H   0  0  0  0  0  0  0  0  0  0  0  0  # atno 10765 bound_to 10752
  140.1164  134.8892  157.2009 H   0  0  0  0  0  0  0  0  0  0  0  0  # atno 11005 bound_to 11000
  145.2313  140.9974  143.3989 LP  0  0  0  0  0  0  0  0  0  0  0  0  # atno 17320 bound_to 7965
  144.9528  139.4064  143.6394 LP  0  0  0  0  0  0  0  0  0  0  0  0  # atno 17321 bound_to 7965
  139.4783  144.5586  151.8274 LP  0  0  0  0  0  0  0  0  0  0  0  0  # atno 17342 bound_to 10162
  140.4690  144.1614  150.5915 LP  0  0  0  0  0  0  0  0  0  0  0  0  # atno 17343 bound_to 10162
  156.1569  130.6348  151.0668 LP  0  0  0  0  0  0  0  0  0  0  0  0  # atno 17370 bound_to 10713
  157.6883  131.0818  150.7181 LP  0  0  0  0  0  0  0  0  0  0  0  0  # atno 17371 bound_to 10713
  140.3023  134.3117  155.7287 LP  0  0  0  0  0  0  0  0  0  0  0  0  # atno 17394 bound_to 11000
  141.2142  133.7599  156.9658 LP  0  0  0  0  0  0  0  0  0  0  0  0  # atno 17395 bound_to 11000

$$$$
