AV-unprocessed.smi:1976|AV-procd|sdf|7987|dock3
  -GOLD-   2272010163D 1   1.00000     0.00000
 Structure written by MMmdl.
 45 47  0  0  0  0  0  0  0  0  2 V2000
  150.1401  139.9417  155.8268 O   0  0  0  0  0  0  0  0  0  0  0  0
  149.3291  139.9606  156.7536 C   0  0  0  0  0  0  0  0  0  0  0  0
  149.7744  139.7031  158.2001 C   0  0  0  0  0  0  0  0  0  0  0  0
  150.9896  140.4440  158.5783 N   0  0  0  0  0  0  0  0  0  0  0  0
  150.9052  141.8501  158.5951 C   0  0  0  0  0  0  0  0  0  0  0  0
  151.9470  142.6431  158.9105 C   0  0  0  0  0  0  0  0  0  0  0  0
  151.8109  144.1566  158.9688 C   0  0  0  0  0  0  0  0  0  0  0  0
  152.2147  144.6302  160.1478 F   0  0  0  0  0  0  0  0  0  0  0  0
  152.5587  144.7155  158.0185 F   0  0  0  0  0  0  0  0  0  0  0  0
  150.5463  144.5339  158.7771 F   0  0  0  0  0  0  0  0  0  0  0  0
  153.1801  141.9737  159.2747 C   0  0  0  0  0  0  0  0  0  0  0  0
  153.2767  140.6297  159.2679 C   0  0  0  0  0  0  0  0  0  0  0  0
  152.1419  139.7815  158.8964 C   0  0  0  0  0  0  0  0  0  0  0  0
  152.2207  138.5530  158.8733 O   0  0  0  0  0  0  0  0  0  0  0  0
  148.0252  140.2208  156.5798 N   0  0  0  0  0  0  0  0  0  0  0  0
  147.3913  140.4988  155.2938 C   0  0  2  0  0  0  0  0  0  0  0  0
  148.2460  141.3311  154.3420 C   0  0  0  0  0  0  0  0  0  0  0  0
  147.2200  141.8870  153.3507 C   0  0  0  0  0  0  0  0  0  0  0  0
  145.9228  141.9526  154.0670 N   0  3  2  0  0  0  0  0  0  0  0  0
  145.3059  143.3060  154.0747 C   0  0  0  0  0  0  0  0  0  0  0  0
  144.1927  143.3950  155.1287 C   0  0  0  0  0  0  0  0  0  0  0  0
  144.7420  143.1666  156.5497 C   0  0  0  0  0  0  0  0  0  0  0  0
  146.0546  142.3591  156.5528 C   0  0  0  0  0  0  0  0  0  0  0  0
  146.0940  141.3191  155.4062 C   0  0  2  0  0  0  0  0  0  0  0  0
  148.9459  139.9614  158.8610 H   0  0  0  0  0  0  0  0  0  0  0  0
  149.9296  138.6321  158.3448 H   0  0  0  0  0  0  0  0  0  0  0  0
  149.9357  142.2460  158.3297 H   0  0  0  0  0  0  0  0  0  0  0  0
  154.0440  142.5589  159.5533 H   0  0  0  0  0  0  0  0  0  0  0  0
  154.2125  140.1654  159.5421 H   0  0  0  0  0  0  0  0  0  0  0  0
  147.4294  140.2216  157.3953 H   0  0  0  0  0  0  0  0  0  0  0  0
  147.1530  139.5511  154.8060 H   0  0  0  0  0  0  0  0  0  0  0  0
  148.7226  142.1513  154.8808 H   0  0  0  0  0  0  0  0  0  0  0  0
  149.0290  140.7503  153.8533 H   0  0  0  0  0  0  0  0  0  0  0  0
  147.5362  142.8481  152.9428 H   0  0  0  0  0  0  0  0  0  0  0  0
  147.1035  141.2012  152.5110 H   0  0  0  0  0  0  0  0  0  0  0  0
  146.0622  144.0637  154.2871 H   0  0  0  0  0  0  0  0  0  0  0  0
  144.9128  143.5227  153.0809 H   0  0  0  0  0  0  0  0  0  0  0  0
  143.6895  144.3608  155.0741 H   0  0  0  0  0  0  0  0  0  0  0  0
  143.4337  142.6436  154.9055 H   0  0  0  0  0  0  0  0  0  0  0  0
  144.9150  144.1239  157.0428 H   0  0  0  0  0  0  0  0  0  0  0  0
  143.9853  142.6528  157.1439 H   0  0  0  0  0  0  0  0  0  0  0  0
  146.8987  143.0423  156.4474 H   0  0  0  0  0  0  0  0  0  0  0  0
  146.1726  141.8796  157.5250 H   0  0  0  0  0  0  0  0  0  0  0  0
  145.2597  140.6330  155.5604 H   0  0  0  0  0  0  0  0  0  0  0  0
  145.2899  141.3518  153.5582 H   0  0  0  0  0  0  0  0  0  0  0  0
  1  2  2  0  0  0  0
  2  3  1  0  0  0  0
  2 15  1  0  0  0  0
  3  4  1  0  0  0  0
  3 25  1  0  0  0  0
  3 26  1  0  0  0  0
  4 13  1  0  0  0  0
  4  5  1  0  0  0  0
  5  6  2  0  0  0  0
  5 27  1  0  0  0  0
  6  7  1  0  0  0  0
  6 11  1  0  0  0  0
  7  8  1  0  0  0  0
  7  9  1  0  0  0  0
  7 10  1  0  0  0  0
 11 12  2  0  0  0  0
 11 28  1  0  0  0  0
 12 13  1  0  0  0  0
 12 29  1  0  0  0  0
 13 14  2  0  0  0  0
 15 16  1  0  0  0  0
 15 30  1  0  0  0  0
 16 24  1  0  0  0  0
 16 17  1  0  0  0  0
 16 31  1  0  0  0  0
 17 18  1  0  0  0  0
 17 32  1  0  0  0  0
 17 33  1  0  0  0  0
 18 19  1  0  0  0  0
 18 34  1  0  0  0  0
 18 35  1  0  0  0  0
 19 24  1  0  0  0  0
 19 20  1  0  0  0  0
 19 45  1  0  0  0  0
 20 21  1  0  0  0  0
 20 36  1  0  0  0  0
 20 37  1  0  0  0  0
 21 22  1  0  0  0  0
 21 38  1  0  0  0  0
 21 39  1  0  0  0  0
 22 23  1  0  0  0  0
 22 40  1  0  0  0  0
 22 41  1  0  0  0  0
 23 24  1  0  0  0  0
 23 42  1  0  0  0  0
 23 43  1  0  0  0  0
 24 44  1  0  0  0  0
M  CHG  1  19   1
M  END
> <s_m_source_file>
AV-unprocessed.smi

> <i_m_source_file_index>
1976

> <i_lp_mmshare_version>
43012

> <i_f3d_flags>
0

> <s_epik_input>
W0NIMl0xW0NIMl1bQ0gyXVtDSDJdW0NASF0oTjEyKVtDQEBIXShbQ0gyXVtDSDJdMilbTkhdQyg9TylbQ0gyXW4zW2NIXWMoQyhGKShGKUYpW2NIXVtjSF1jMz1P

> <s_epik_cmdline>
J2VwaWtfcHl0aG9uJywgJy1waCcsICc3LjAnLCAnLXRuJywgJzgnLCAnLW1hJywgJzIwMCcsICctbWV0YWxfYmluZGluZycsICctaW1hZScsICc8aW5maWxlLm1hZT4nLCAnLW9tYWUnLCAnPG91dGZpbGUubWFlPic=

> <r_lp_tautomer_probability>
1

> <r_epik_Ionization_Penalty>
0.00171506

> <r_epik_Ionization_Penalty_Charging>
0.00171498

> <r_epik_Ionization_Penalty_Neutral>
7.81737e-08

> <r_epik_State_Penalty>
0.00115937

> <r_epik_Charging_Adjusted_Penalty>
0.00287436

> <i_epik_Tot_Q>
1

> <i_epik_Tot_abs_Q>
1

> <r_epik_Metal_State_Penalty>
-0

> <b_epik_Metal_Only>
0

> <s_lp_Force_Field>
OPLS_2005

> <r_lp_Energy>
52.9045

> <b_lp_Chiralities_Consistent>
1

> <s_lp_Variant>
AV-unprocessed.smi:1976-5

> <Gold.Version>
5.8.1

> <Gold.Id.Protein>
6NUR|6NUR_protein|mol2

> <Gold.PLP.Fitness>
45.8853

> <Gold.PLP.PLP>
-43.6158

> <Gold.PLP.part.hbond>
-0.7776

> <Gold.PLP.part.metal>
0.0000

> <Gold.PLP.part.buried>
-8.4597

> <Gold.PLP.part.nonpolar>
-35.8390

> <Gold.PLP.part.repulsive>
0.0736

> <Gold.PLP.ligand.clash>
1.3079

> <Gold.PLP.ligand.torsion>
0.6721

> <Gold.PLP.Chemscore.Hbond>
1.6250

> <Gold.PLP.Chemscore.CHOScore>
0.0000

> <Gold.PLP.Chemscore.Metal>
0.0000

> <Gold.Chemscore.Hbonds>
donor molecule, donor type, donor heavy atom, donor atom, acceptor molecule, acceptor atom, score
      L1  H    19    45       P1 10175  1.62

> <Gold.PLP.Chemscore.Internal.Correction>
0.0465

> <Gold.Rescore>
     Score         DG    S(hbond)    S(metal)    S(lipo)     H(rot)  DE(clash)    DE(int)     intcor
     10.60     -13.51       0.70        0.00      83.35       1.58       0.68       2.24       ----

> <Gold.Chemscore.Fitness>
10.5986

> <Gold.Chemscore.DG>
-13.5129

> <Gold.Chemscore.ZeroCoef>
-5.4800

> <Gold.Chemscore.Hbond>
0.6985

> <Gold.Chemscore.Metal>
0.0000

> <Gold.Chemscore.Lipo>
83.3532

> <Gold.Chemscore.Internal_Hbond>
0.0000

> <Gold.Chemscore.DEClash>
0.6761

> <Gold.Chemscore.DEInternal>
2.2382

> <Gold.Chemscore.Rot>
1.5830

> <Gold.Chemscore.Internal.Correction>
   9.000000E+99

> <Gold.Chemscore.Hbonds>
donor molecule, donor type, donor heavy atom, donor atom, acceptor molecule, acceptor atom, score
      L1  H    19    45       P1 10175  0.20

> <Gold.Chemscore.Hbond.Weighted>
-2.3329

> <Gold.Chemscore.Metal.Weighted>
-0.0000

> <Gold.Chemscore.Lipo.Weighted>
-9.7523

> <Gold.Chemscore.Internal_Hbond.Weighted>
0.0000

> <Gold.Chemscore.DEClash.Weighted>
0.6761

> <Gold.Chemscore.DEInternal.Weighted>
2.2382

> <Gold.Chemscore.Rot.Weighted>
4.0524

> <Gold.Chemscore.Internal.Correction.Weighted>
   9.000000E+99

> <Gold.Protein.RotatedTorsions>
[ 6907 6896 6895 6894 ] final   60.22 input  -60.11 | X-H torsion
[ 7974 7965 7964 7962 ] final   11.65 input  175.53 | X-H torsion
[ 8008 7997 7996 7995 ] final  -31.09 input   59.86 | X-H torsion
[ 10167 10162 10161 10158 ] final    4.20 input  -65.29 | X-H torsion
[ 10718 10713 10712 10709 ] final -168.40 input   66.30 | X-H torsion
[ 10763 10752 10751 10750 ] final  127.86 input  -60.55 | X-H torsion
[ 11005 11000 10999 10996 ] final   85.17 input  -57.11 | X-H torsion

> <Gold.Protein.ActiveResidues>
 VAL166  LYS551  ARG553  GLY616  TRP617  ASP618  TYR619  PRO620  LYS621  CYS622 
 ASP623  PHE694  ASN695  SER759  ASP760  ASP761  ALA762  ILE779  LEU786  VAL792 
 PHE793  MET794  SER795  GLU796  ALA797  LYS798  CYS799  TRP800  GLU811  SER814 

> <Gold.Protein.RotatedAtoms>
  152.3984  134.6328  160.0079 H   0  0  0  0  0  0  0  0  0  0  0  0  # atno 6907 bound_to 6896
  151.6540  133.3314  159.3166 H   0  0  0  0  0  0  0  0  0  0  0  0  # atno 6908 bound_to 6896
  150.7888  134.6937  159.6556 H   0  0  0  0  0  0  0  0  0  0  0  0  # atno 6909 bound_to 6896
  146.2367  139.9454  142.8477 H   0  0  0  0  0  0  0  0  0  0  0  0  # atno 7974 bound_to 7965
  154.4226  140.1774  156.1511 H   0  0  0  0  0  0  0  0  0  0  0  0  # atno 8008 bound_to 7997
  155.9915  140.3368  155.6733 H   0  0  0  0  0  0  0  0  0  0  0  0  # atno 8009 bound_to 7997
  155.6366  140.0675  157.2622 H   0  0  0  0  0  0  0  0  0  0  0  0  # atno 8010 bound_to 7997
  140.6547  143.7458  150.7633 H   0  0  0  0  0  0  0  0  0  0  0  0  # atno 10167 bound_to 10162
  156.6964  130.9179  151.3075 H   0  0  0  0  0  0  0  0  0  0  0  0  # atno 10718 bound_to 10713
  153.7162  135.3260  155.3257 H   0  0  0  0  0  0  0  0  0  0  0  0  # atno 10763 bound_to 10752
  154.8370  135.4488  154.1264 H   0  0  0  0  0  0  0  0  0  0  0  0  # atno 10764 bound_to 10752
  153.2371  135.6967  153.7904 H   0  0  0  0  0  0  0  0  0  0  0  0  # atno 10765 bound_to 10752
  139.8979  134.8268  156.2545 H   0  0  0  0  0  0  0  0  0  0  0  0  # atno 11005 bound_to 11000
  145.1912  140.9812  143.4209 LP  0  0  0  0  0  0  0  0  0  0  0  0  # atno 17320 bound_to 7965
  144.9855  139.3741  143.6241 LP  0  0  0  0  0  0  0  0  0  0  0  0  # atno 17321 bound_to 7965
  140.1115  143.4695  152.2367 LP  0  0  0  0  0  0  0  0  0  0  0  0  # atno 17342 bound_to 10162
  139.5767  144.7491  151.3746 LP  0  0  0  0  0  0  0  0  0  0  0  0  # atno 17343 bound_to 10162
  157.6990  130.9312  150.0728 LP  0  0  0  0  0  0  0  0  0  0  0  0  # atno 17370 bound_to 10713
  156.1760  130.3648  149.9099 LP  0  0  0  0  0  0  0  0  0  0  0  0  # atno 17371 bound_to 10713
  141.0202  133.7045  156.1256 LP  0  0  0  0  0  0  0  0  0  0  0  0  # atno 17394 bound_to 11000
  140.7244  134.4323  157.5572 LP  0  0  0  0  0  0  0  0  0  0  0  0  # atno 17395 bound_to 11000

$$$$
