AV-unprocessed.smi:2005|AV-procd|sdf|8126|dock2
  -GOLD-   2272010363D 1   1.00000     0.00000
 Structure written by MMmdl.
 39 40  0  0  0  0  0  0  0  0  1 V2000
  148.4518  123.1396  150.4533 C   0  0  0  0  0  0  0  0  0  0  0  0
  149.0131  123.7917  151.7254 C   0  0  0  0  0  0  0  0  0  0  0  0
  148.8380  122.9198  152.9775 C   0  0  0  0  0  0  0  0  0  0  0  0
  148.4896  125.1795  151.9270 C   0  0  0  0  0  0  0  0  0  0  0  0
  147.8737  125.5718  153.0505 N   0  0  0  0  0  0  0  0  0  0  0  0
  147.4836  126.9026  153.0026 N   0  0  0  0  0  0  0  0  0  0  0  0
  147.8162  127.4786  151.8396 C   0  0  0  0  0  0  0  0  0  0  0  0
  147.5401  128.8346  151.5222 N   0  0  0  0  0  0  0  0  0  0  0  0
  146.3995  129.5209  151.7122 C   0  0  0  0  0  0  0  0  0  0  0  0
  145.3666  129.0649  152.2037 O   0  0  0  0  0  0  0  0  0  0  0  0
  146.5256  130.7904  151.2993 N   0  0  0  0  0  0  0  0  0  0  0  0
  145.4875  131.8136  151.3802 C   0  0  2  0  0  0  0  0  0  0  0  0
  145.0435  132.2078  149.9596 C   0  0  0  0  0  0  0  0  0  0  0  0
  143.9934  133.3324  149.9839 C   0  0  0  0  0  0  0  0  0  0  0  0
  144.4739  134.5627  150.7760 C   0  0  2  0  0  0  0  0  0  0  0  0
  145.5093  135.2188  150.0706 O   0  0  0  0  0  0  0  0  0  0  0  0
  144.9578  134.1733  152.1854 C   0  0  0  0  0  0  0  0  0  0  0  0
  146.0031  133.0444  152.1534 C   0  0  0  0  0  0  0  0  0  0  0  0
  148.6368  126.4299  150.6966 S   0  0  0  0  0  0  0  0  0  0  0  0
  148.6717  123.7446  149.5730 H   0  0  0  0  0  0  0  0  0  0  0  0
  147.3697  123.0195  150.5136 H   0  0  0  0  0  0  0  0  0  0  0  0
  148.8868  122.1528  150.2925 H   0  0  0  0  0  0  0  0  0  0  0  0
  150.0883  123.8891  151.5698 H   0  0  0  0  0  0  0  0  0  0  0  0
  149.3186  123.3762  153.8436 H   0  0  0  0  0  0  0  0  0  0  0  0
  149.2819  121.9343  152.8347 H   0  0  0  0  0  0  0  0  0  0  0  0
  147.7839  122.7772  153.2180 H   0  0  0  0  0  0  0  0  0  0  0  0
  148.3071  129.3470  151.1128 H   0  0  0  0  0  0  0  0  0  0  0  0
  147.4117  131.0766  150.9092 H   0  0  0  0  0  0  0  0  0  0  0  0
  144.6215  131.4043  151.9042 H   0  0  0  0  0  0  0  0  0  0  0  0
  145.9079  132.5318  149.3781 H   0  0  0  0  0  0  0  0  0  0  0  0
  144.6343  131.3391  149.4425 H   0  0  0  0  0  0  0  0  0  0  0  0
  143.7270  133.6186  148.9657 H   0  0  0  0  0  0  0  0  0  0  0  0
  143.0791  132.9515  150.4404 H   0  0  0  0  0  0  0  0  0  0  0  0
  143.6512  135.2727  150.8648 H   0  0  0  0  0  0  0  0  0  0  0  0
  145.5884  134.8229  149.2161 H   0  0  0  0  0  0  0  0  0  0  0  0
  145.3628  135.0444  152.7016 H   0  0  0  0  0  0  0  0  0  0  0  0
  144.1020  133.8428  152.7754 H   0  0  0  0  0  0  0  0  0  0  0  0
  146.2644  132.7645  153.1744 H   0  0  0  0  0  0  0  0  0  0  0  0
  146.9210  133.4122  151.6926 H   0  0  0  0  0  0  0  0  0  0  0  0
  1  2  1  0  0  0  0
  1 20  1  0  0  0  0
  1 21  1  0  0  0  0
  1 22  1  0  0  0  0
  2  3  1  0  0  0  0
  2  4  1  0  0  0  0
  2 23  1  0  0  0  0
  3 24  1  0  0  0  0
  3 25  1  0  0  0  0
  3 26  1  0  0  0  0
  4 19  1  0  0  0  0
  4  5  2  0  0  0  0
  5  6  1  0  0  0  0
  6  7  2  0  0  0  0
  7  8  1  0  0  0  0
  7 19  1  0  0  0  0
  8  9  1  0  0  0  0
  8 27  1  0  0  0  0
  9 10  2  0  0  0  0
  9 11  1  0  0  0  0
 11 12  1  0  0  0  0
 11 28  1  0  0  0  0
 12 18  1  0  0  0  0
 12 13  1  0  0  0  0
 12 29  1  0  0  0  0
 13 14  1  0  0  0  0
 13 30  1  0  0  0  0
 13 31  1  0  0  0  0
 14 15  1  0  0  0  0
 14 32  1  0  0  0  0
 14 33  1  0  0  0  0
 15 16  1  0  0  0  0
 15 17  1  0  0  0  0
 15 34  1  0  0  0  0
 16 35  1  0  0  0  0
 17 18  1  0  0  0  0
 17 36  1  0  0  0  0
 17 37  1  0  0  0  0
 18 38  1  0  0  0  0
 18 39  1  0  0  0  0
M  END
> <s_m_source_file>
AV-unprocessed.smi

> <i_m_source_file_index>
2005

> <i_lp_mmshare_version>
43012

> <i_f3d_flags>
0

> <s_epik_input>
W0NIM11bQ0hdKFtDSDNdKWMxbm5jKHMxKVtOSF1DKD1PKVtOSF1bQ0BASF0yW0NIMl1bQ0gyXVtDQEBIXShbT0hdKVtDSDJdW0NIMl0y

> <s_epik_cmdline>
J2VwaWtfcHl0aG9uJywgJy1waCcsICc3LjAnLCAnLXRuJywgJzgnLCAnLW1hJywgJzIwMCcsICctbWV0YWxfYmluZGluZycsICctaW1hZScsICc8aW5maWxlLm1hZT4nLCAnLW9tYWUnLCAnPG91dGZpbGUubWFlPic=

> <r_lp_tautomer_probability>
1

> <r_epik_Ionization_Penalty>
0.000372581

> <r_epik_Ionization_Penalty_Charging>
0

> <r_epik_Ionization_Penalty_Neutral>
0.000372581

> <r_epik_State_Penalty>
-0

> <r_epik_Charging_Adjusted_Penalty>
0

> <i_epik_Tot_Q>
0

> <i_epik_Tot_abs_Q>
0

> <r_epik_Metal_State_Penalty>
0.186152

> <b_epik_Metal_Only>
0

> <s_lp_Force_Field>
OPLS_2005

> <r_lp_Energy>
3.3573

> <b_lp_Chiralities_Consistent>
1

> <s_lp_Variant>
AV-unprocessed.smi:2005-2

> <Gold.Version>
5.8.1

> <Gold.Id.Protein>
6NUR|6NUR_protein|mol2

> <Gold.PLP.Fitness>
43.8841

> <Gold.PLP.PLP>
-35.8430

> <Gold.PLP.part.hbond>
-4.5795

> <Gold.PLP.part.metal>
0.0000

> <Gold.PLP.part.buried>
-6.5406

> <Gold.PLP.part.nonpolar>
-25.8528

> <Gold.PLP.part.repulsive>
0.2797

> <Gold.PLP.ligand.clash>
0.0000

> <Gold.PLP.ligand.torsion>
0.4440

> <Gold.PLP.Chemscore.Hbond>
2.9500

> <Gold.PLP.Chemscore.CHOScore>
0.0000

> <Gold.PLP.Chemscore.Metal>
0.0000

> <Gold.Chemscore.Hbonds>
donor molecule, donor type, donor heavy atom, donor atom, acceptor molecule, acceptor atom, score
      L1  H     8    27       P1 10747  0.95
      L1  H    11    28       P1 10747  1.00
      L1  H    16    35       P1  7921  1.00

> <Gold.PLP.Chemscore.Internal.Correction>
0.0790

> <Gold.Rescore>
     Score         DG    S(hbond)    S(metal)    S(lipo)     H(rot)  DE(clash)    DE(int)     intcor
     15.98     -16.53       2.44        0.00      62.39       1.72       0.11       0.45       ----

> <Gold.Chemscore.Fitness>
15.9789

> <Gold.Chemscore.DG>
-16.5306

> <Gold.Chemscore.ZeroCoef>
-5.4800

> <Gold.Chemscore.Hbond>
2.4419

> <Gold.Chemscore.Metal>
0.0000

> <Gold.Chemscore.Lipo>
62.3906

> <Gold.Chemscore.Internal_Hbond>
0.0000

> <Gold.Chemscore.DEClash>
0.1066

> <Gold.Chemscore.DEInternal>
0.4451

> <Gold.Chemscore.Rot>
1.7207

> <Gold.Chemscore.Internal.Correction>
   9.000000E+99

> <Gold.Chemscore.Hbonds>
donor molecule, donor type, donor heavy atom, donor atom, acceptor molecule, acceptor atom, score
      L1  H     8    27       P1 10747  0.21
      L1  H    11    28       P1 10747  0.98
      L1  H    16    35       P1  7921  0.95

> <Gold.Chemscore.Hbond.Weighted>
-8.1561

> <Gold.Chemscore.Metal.Weighted>
-0.0000

> <Gold.Chemscore.Lipo.Weighted>
-7.2997

> <Gold.Chemscore.Internal_Hbond.Weighted>
0.0000

> <Gold.Chemscore.DEClash.Weighted>
0.1066

> <Gold.Chemscore.DEInternal.Weighted>
0.4451

> <Gold.Chemscore.Rot.Weighted>
4.4051

> <Gold.Chemscore.Internal.Correction.Weighted>
   9.000000E+99

> <Gold.Protein.RotatedTorsions>
[ 6907 6896 6895 6894 ] final  -97.03 input  -60.11 | X-H torsion
[ 7974 7965 7964 7962 ] final  149.11 input  175.53 | X-H torsion
[ 8008 7997 7996 7995 ] final   55.16 input   59.86 | X-H torsion
[ 10167 10162 10161 10158 ] final  152.69 input  -65.29 | X-H torsion
[ 10718 10713 10712 10709 ] final   60.28 input   66.30 | X-H torsion
[ 10763 10752 10751 10750 ] final    1.41 input  -60.55 | X-H torsion
[ 11005 11000 10999 10996 ] final  -70.08 input  -57.11 | X-H torsion

> <Gold.Protein.ActiveResidues>
 VAL166  LYS551  ARG553  GLY616  TRP617  ASP618  TYR619  PRO620  LYS621  CYS622 
 ASP623  PHE694  ASN695  SER759  ASP760  ASP761  ALA762  ILE779  LEU786  VAL792 
 PHE793  MET794  SER795  GLU796  ALA797  LYS798  CYS799  TRP800  GLU811  SER814 

> <Gold.Protein.RotatedAtoms>
  150.7005  134.1412  159.4105 H   0  0  0  0  0  0  0  0  0  0  0  0  # atno 6907 bound_to 6896
  151.9397  135.0217  160.0544 H   0  0  0  0  0  0  0  0  0  0  0  0  # atno 6908 bound_to 6896
  152.2105  133.4872  159.5144 H   0  0  0  0  0  0  0  0  0  0  0  0  # atno 6909 bound_to 6896
  144.8463  139.6238  143.5994 H   0  0  0  0  0  0  0  0  0  0  0  0  # atno 7974 bound_to 7965
  155.4965  140.3473  155.4364 H   0  0  0  0  0  0  0  0  0  0  0  0  # atno 8008 bound_to 7997
  156.0942  140.1418  156.9580 H   0  0  0  0  0  0  0  0  0  0  0  0  # atno 8009 bound_to 7997
  154.4653  140.0920  156.6982 H   0  0  0  0  0  0  0  0  0  0  0  0  # atno 8010 bound_to 7997
  139.4831  144.5336  151.7682 H   0  0  0  0  0  0  0  0  0  0  0  0  # atno 10167 bound_to 10162
  157.5741  130.8930  149.9316 H   0  0  0  0  0  0  0  0  0  0  0  0  # atno 10718 bound_to 10713
  153.3083  135.6961  153.7139 H   0  0  0  0  0  0  0  0  0  0  0  0  # atno 10763 bound_to 10752
  153.6026  135.3459  155.2951 H   0  0  0  0  0  0  0  0  0  0  0  0  # atno 10764 bound_to 10752
  154.8569  135.4344  154.2214 H   0  0  0  0  0  0  0  0  0  0  0  0  # atno 10765 bound_to 10752
  141.1567  133.6781  156.6698 H   0  0  0  0  0  0  0  0  0  0  0  0  # atno 11005 bound_to 11000
  146.2747  139.6722  142.9271 LP  0  0  0  0  0  0  0  0  0  0  0  0  # atno 17320 bound_to 7965
  145.4590  141.0432  143.2762 LP  0  0  0  0  0  0  0  0  0  0  0  0  # atno 17321 bound_to 7965
  140.4866  144.1372  150.5942 LP  0  0  0  0  0  0  0  0  0  0  0  0  # atno 17342 bound_to 10162
  140.4219  143.2608  151.9705 LP  0  0  0  0  0  0  0  0  0  0  0  0  # atno 17343 bound_to 10162
  156.0785  130.3676  150.0628 LP  0  0  0  0  0  0  0  0  0  0  0  0  # atno 17370 bound_to 10713
  156.8777  130.9546  151.3603 LP  0  0  0  0  0  0  0  0  0  0  0  0  # atno 17371 bound_to 10713
  140.3183  134.8028  157.4232 LP  0  0  0  0  0  0  0  0  0  0  0  0  # atno 17394 bound_to 11000
  140.1118  134.5335  155.8259 LP  0  0  0  0  0  0  0  0  0  0  0  0  # atno 17395 bound_to 11000

$$$$
