AV-unprocessed.smi:2110|AV-procd|sdf|8611|dock9
  -GOLD-   2272011353D 1   1.00000     0.00000
 Structure written by MMmdl.
 46 47  0  0  0  0  0  0  0  0  3 V2000
  147.5584  135.8290  162.8051 C   0  0  0  0  0  0  0  0  0  0  0  0
  146.7500  135.2267  161.6460 C   0  0  0  0  0  0  0  0  0  0  0  0
  147.4953  134.1818  160.9157 N   0  0  0  0  0  0  0  0  0  0  0  0
  147.6811  132.8832  161.5955 C   0  0  0  0  0  0  0  0  0  0  0  0
  146.4104  132.0185  161.5996 C   0  0  0  0  0  0  0  0  0  0  0  0
  147.9048  134.3869  159.2299 S   0  0  0  0  0  0  0  0  0  0  0  0
  148.8653  135.5006  159.1947 O   0  0  0  0  0  0  0  0  0  0  0  0
  148.3695  133.0726  158.7520 O   0  0  0  0  0  0  0  0  0  0  0  0
  146.4383  134.8396  158.6832 N   0  5  0  0  0  0  0  0  0  0  0  0
  145.7534  134.1086  157.6292 C   0  0  0  0  0  0  0  0  0  0  0  0
  146.3622  134.4107  156.2684 C   0  0  0  0  0  0  0  0  0  0  0  0
  147.5148  135.2218  156.1616 C   0  0  0  0  0  0  0  0  0  0  0  0
  148.0468  135.4878  154.8867 C   0  0  0  0  0  0  0  0  0  0  0  0
  147.4554  134.9711  153.7892 N   0  3  0  0  0  0  0  0  0  0  0  0
  146.3465  134.1914  153.8217 C   0  0  0  0  0  0  0  0  0  0  0  0
  145.8305  133.7153  152.5939 N   0  0  0  0  0  0  0  0  0  0  0  0
  145.3196  134.6917  151.6344 C   0  0  0  0  0  0  0  0  0  0  0  0
  144.5303  133.9943  150.5132 C   0  0  0  0  0  0  0  0  0  0  0  0
  145.3325  132.9840  149.9141 O   0  0  0  0  0  0  0  0  0  0  0  0
  145.6850  131.9726  150.8499 C   0  0  0  0  0  0  0  0  0  0  0  0
  146.5273  132.5832  151.9821 C   0  0  0  0  0  0  0  0  0  0  0  0
  145.7765  133.8947  155.0867 C   0  0  0  0  0  0  0  0  0  0  0  0
  147.0070  136.6447  163.2725 H   0  0  0  0  0  0  0  0  0  0  0  0
  148.5153  136.2272  162.4690 H   0  0  0  0  0  0  0  0  0  0  0  0
  147.7575  135.0879  163.5790 H   0  0  0  0  0  0  0  0  0  0  0  0
  145.8251  134.7965  162.0300 H   0  0  0  0  0  0  0  0  0  0  0  0
  146.4464  136.0133  160.9548 H   0  0  0  0  0  0  0  0  0  0  0  0
  148.4901  132.3325  161.1167 H   0  0  0  0  0  0  0  0  0  0  0  0
  148.0046  133.0679  162.6201 H   0  0  0  0  0  0  0  0  0  0  0  0
  146.6154  131.0413  162.0363 H   0  0  0  0  0  0  0  0  0  0  0  0
  146.0348  131.8547  160.5910 H   0  0  0  0  0  0  0  0  0  0  0  0
  145.6122  132.4730  162.1857 H   0  0  0  0  0  0  0  0  0  0  0  0
  145.7948  133.0311  157.7915 H   0  0  0  0  0  0  0  0  0  0  0  0
  144.6926  134.3579  157.5871 H   0  0  0  0  0  0  0  0  0  0  0  0
  147.9928  135.6455  157.0349 H   0  0  0  0  0  0  0  0  0  0  0  0
  148.9220  136.0964  154.7125 H   0  0  0  0  0  0  0  0  0  0  0  0
  144.6561  135.4020  152.1276 H   0  0  0  0  0  0  0  0  0  0  0  0
  146.1549  135.2542  151.2151 H   0  0  0  0  0  0  0  0  0  0  0  0
  143.6071  133.5594  150.8997 H   0  0  0  0  0  0  0  0  0  0  0  0
  144.2442  134.7188  149.7508 H   0  0  0  0  0  0  0  0  0  0  0  0
  144.7859  131.4974  151.2459 H   0  0  0  0  0  0  0  0  0  0  0  0
  146.2534  131.1972  150.3364 H   0  0  0  0  0  0  0  0  0  0  0  0
  147.4849  132.9300  151.5916 H   0  0  0  0  0  0  0  0  0  0  0  0
  146.7416  131.8018  152.7109 H   0  0  0  0  0  0  0  0  0  0  0  0
  144.8860  133.2877  155.1601 H   0  0  0  0  0  0  0  0  0  0  0  0
  147.8675  135.1824  152.8806 H   0  0  0  0  0  0  0  0  0  0  0  0
  1  2  1  0  0  0  0
  1 23  1  0  0  0  0
  1 24  1  0  0  0  0
  1 25  1  0  0  0  0
  2  3  1  0  0  0  0
  2 26  1  0  0  0  0
  2 27  1  0  0  0  0
  3  4  1  0  0  0  0
  3  6  1  0  0  0  0
  4  5  1  0  0  0  0
  4 28  1  0  0  0  0
  4 29  1  0  0  0  0
  5 30  1  0  0  0  0
  5 31  1  0  0  0  0
  5 32  1  0  0  0  0
  6  7  2  0  0  0  0
  6  8  2  0  0  0  0
  6  9  1  0  0  0  0
  9 10  1  0  0  0  0
 10 11  1  0  0  0  0
 10 33  1  0  0  0  0
 10 34  1  0  0  0  0
 11 22  1  0  0  0  0
 11 12  2  0  0  0  0
 12 13  1  0  0  0  0
 12 35  1  0  0  0  0
 13 14  2  0  0  0  0
 13 36  1  0  0  0  0
 14 15  1  0  0  0  0
 14 46  1  0  0  0  0
 15 16  1  0  0  0  0
 15 22  2  0  0  0  0
 16 21  1  0  0  0  0
 16 17  1  0  0  0  0
 17 18  1  0  0  0  0
 17 37  1  0  0  0  0
 17 38  1  0  0  0  0
 18 19  1  0  0  0  0
 18 39  1  0  0  0  0
 18 40  1  0  0  0  0
 19 20  1  0  0  0  0
 20 21  1  0  0  0  0
 20 41  1  0  0  0  0
 20 42  1  0  0  0  0
 21 43  1  0  0  0  0
 21 44  1  0  0  0  0
 22 45  1  0  0  0  0
M  CHG  1   9  -1
M  CHG  1  14   1
M  END
> <s_m_source_file>
AV-unprocessed.smi

> <i_m_source_file_index>
2110

> <i_lp_mmshare_version>
43012

> <i_f3d_flags>
0

> <s_epik_input>
W0NIM11bQ0gyXU4oW0NIMl1bQ0gzXSlTKD1PKSg9TylbTkhdW0NIMl1jMVtjSF1bY0hdbmMoW2NIXTEpTjJbQ0gyXVtDSDJdT1tDSDJdW0NIMl0y

> <s_epik_cmdline>
J2VwaWtfcHl0aG9uJywgJy1waCcsICc3LjAnLCAnLXRuJywgJzgnLCAnLW1hJywgJzIwMCcsICctbWV0YWxfYmluZGluZycsICctaW1hZScsICc8aW5maWxlLm1hZT4nLCAnLW9tYWUnLCAnPG91dGZpbGUubWFlPic=

> <r_lp_tautomer_probability>
0.999994

> <r_epik_Ionization_Penalty>
2.03784

> <r_epik_Ionization_Penalty_Charging>
2.03784

> <r_epik_Ionization_Penalty_Neutral>
4.07977e-08

> <r_epik_State_Penalty>
3.04665

> <r_epik_Charging_Adjusted_Penalty>
5.08449

> <i_epik_Tot_Q>
0

> <i_epik_Tot_abs_Q>
2

> <r_epik_Metal_State_Penalty>
1.92951

> <b_epik_Metal_Only>
1

> <s_lp_Force_Field>
OPLS_2005

> <r_lp_Energy>
13.8127

> <b_lp_Chiralities_Consistent>
1

> <s_lp_Variant>
AV-unprocessed.smi:2110-4

> <Gold.Version>
5.8.1

> <Gold.Id.Protein>
6NUR|6NUR_protein|mol2

> <Gold.PLP.Fitness>
36.2644

> <Gold.PLP.PLP>
-28.2444

> <Gold.PLP.part.hbond>
-2.0000

> <Gold.PLP.part.metal>
0.0000

> <Gold.PLP.part.buried>
-4.8581

> <Gold.PLP.part.nonpolar>
-21.6360

> <Gold.PLP.part.repulsive>
0.8938

> <Gold.PLP.ligand.clash>
0.0000

> <Gold.PLP.ligand.torsion>
2.3395

> <Gold.PLP.Chemscore.Hbond>
3.0000

> <Gold.PLP.Chemscore.CHOScore>
0.0000

> <Gold.PLP.Chemscore.Metal>
0.0000

> <Gold.Chemscore.Hbonds>
donor molecule, donor type, donor heavy atom, donor atom, acceptor molecule, acceptor atom, score
      L1  H    14    46       P1  7948  2.00
      P1  H  6896  6907       L1     7  0.84

> <Gold.PLP.Chemscore.Internal.Correction>
3.6989

> <Gold.Rescore>
     Score         DG    S(hbond)    S(metal)    S(lipo)     H(rot)  DE(clash)    DE(int)     intcor
     12.20     -14.70       1.93        0.00      61.19       1.72       0.04       2.47       ----

> <Gold.Chemscore.Fitness>
12.1970

> <Gold.Chemscore.DG>
-14.7003

> <Gold.Chemscore.ZeroCoef>
-5.4800

> <Gold.Chemscore.Hbond>
1.9322

> <Gold.Chemscore.Metal>
0.0000

> <Gold.Chemscore.Lipo>
61.1902

> <Gold.Chemscore.Internal_Hbond>
0.0000

> <Gold.Chemscore.DEClash>
0.0375

> <Gold.Chemscore.DEInternal>
2.4658

> <Gold.Chemscore.Rot>
1.7159

> <Gold.Chemscore.Internal.Correction>
   9.000000E+99

> <Gold.Chemscore.Hbonds>
donor molecule, donor type, donor heavy atom, donor atom, acceptor molecule, acceptor atom, score
      L1  H    14    46       P1  7948  0.94
      P1  H  6896  6907       L1     7  0.57

> <Gold.Chemscore.Hbond.Weighted>
-6.4536

> <Gold.Chemscore.Metal.Weighted>
-0.0000

> <Gold.Chemscore.Lipo.Weighted>
-7.1593

> <Gold.Chemscore.Internal_Hbond.Weighted>
0.0000

> <Gold.Chemscore.DEClash.Weighted>
0.0375

> <Gold.Chemscore.DEInternal.Weighted>
2.4658

> <Gold.Chemscore.Rot.Weighted>
4.3926

> <Gold.Chemscore.Internal.Correction.Weighted>
   9.000000E+99

> <Gold.Protein.RotatedTorsions>
[ 6907 6896 6895 6894 ] final  -54.22 input  -60.11 | X-H torsion
[ 7974 7965 7964 7962 ] final   27.35 input  175.53 | X-H torsion
[ 8008 7997 7996 7995 ] final  -95.57 input   59.86 | X-H torsion
[ 10167 10162 10161 10158 ] final  -75.26 input  -65.29 | X-H torsion
[ 10718 10713 10712 10709 ] final  159.76 input   66.30 | X-H torsion
[ 10763 10752 10751 10750 ] final -176.17 input  -60.55 | X-H torsion
[ 11005 11000 10999 10996 ] final  -35.09 input  -57.11 | X-H torsion

> <Gold.Protein.ActiveResidues>
 VAL166  LYS551  ARG553  GLY616  TRP617  ASP618  TYR619  PRO620  LYS621  CYS622 
 ASP623  PHE694  ASN695  SER759  ASP760  ASP761  ALA762  ILE779  LEU786  VAL792 
 PHE793  MET794  SER795  GLU796  ALA797  LYS798  CYS799  TRP800  GLU811  SER814 

> <Gold.Protein.RotatedAtoms>
  150.8357  134.7630  159.6890 H   0  0  0  0  0  0  0  0  0  0  0  0  # atno 6907 bound_to 6896
  152.4454  134.5501  159.9874 H   0  0  0  0  0  0  0  0  0  0  0  0  # atno 6908 bound_to 6896
  151.5652  133.3360  159.3014 H   0  0  0  0  0  0  0  0  0  0  0  0  # atno 6909 bound_to 6896
  146.1789  139.7204  142.8915 H   0  0  0  0  0  0  0  0  0  0  0  0  # atno 7974 bound_to 7965
  154.7630  140.0479  157.0989 H   0  0  0  0  0  0  0  0  0  0  0  0  # atno 8008 bound_to 7997
  154.9914  140.3113  155.4885 H   0  0  0  0  0  0  0  0  0  0  0  0  # atno 8009 bound_to 7997
  156.2907  140.2218  156.5019 H   0  0  0  0  0  0  0  0  0  0  0  0  # atno 8010 bound_to 7997
  140.4957  143.2371  151.7834 H   0  0  0  0  0  0  0  0  0  0  0  0  # atno 10167 bound_to 10162
  157.1598  131.0584  151.2238 H   0  0  0  0  0  0  0  0  0  0  0  0  # atno 10718 bound_to 10713
  154.5756  135.2831  155.0784 H   0  0  0  0  0  0  0  0  0  0  0  0  # atno 10763 bound_to 10752
  154.2139  135.6403  153.5127 H   0  0  0  0  0  0  0  0  0  0  0  0  # atno 10764 bound_to 10752
  153.0071  135.5498  154.6394 H   0  0  0  0  0  0  0  0  0  0  0  0  # atno 10765 bound_to 10752
  140.9768  133.7078  156.1616 H   0  0  0  0  0  0  0  0  0  0  0  0  # atno 11005 bound_to 11000
  145.4133  141.0399  143.3005 LP  0  0  0  0  0  0  0  0  0  0  0  0  # atno 17320 bound_to 7965
  144.8282  139.5674  143.6956 LP  0  0  0  0  0  0  0  0  0  0  0  0  # atno 17321 bound_to 7965
  139.4861  144.4589  151.9565 LP  0  0  0  0  0  0  0  0  0  0  0  0  # atno 17342 bound_to 10162
  140.3677  144.2894  150.5924 LP  0  0  0  0  0  0  0  0  0  0  0  0  # atno 17343 bound_to 10162
  157.4143  130.7402  149.6863 LP  0  0  0  0  0  0  0  0  0  0  0  0  # atno 17370 bound_to 10713
  155.9756  130.4087  150.3840 LP  0  0  0  0  0  0  0  0  0  0  0  0  # atno 17371 bound_to 10713
  140.7247  134.4320  157.5572 LP  0  0  0  0  0  0  0  0  0  0  0  0  # atno 17394 bound_to 11000
  139.8934  134.8732  156.2226 LP  0  0  0  0  0  0  0  0  0  0  0  0  # atno 17395 bound_to 11000

$$$$
