AV-unprocessed.smi:1497|AV-procd|sdf|6058|dock4
  -GOLD-   22720 6173D 1   1.00000     0.00000
 Structure written by MMmdl.
 33 34  0  0  0  0  0  0  0  0  1 V2000
  150.3831  136.1416  154.3249 N   0  0  0  0  0  0  0  0  0  0  0  0
  150.9710  137.2334  154.8224 C   0  0  0  0  0  0  0  0  0  0  0  0
  151.5461  137.2320  155.9084 O   0  0  0  0  0  0  0  0  0  0  0  0
  150.8970  138.5122  153.9851 C   0  0  0  0  0  0  0  0  0  0  0  0
  150.9450  139.6976  154.8228 N   0  0  0  0  0  0  0  0  0  0  0  0
  151.8117  139.9739  155.8622 C   0  0  0  0  0  0  0  0  0  0  0  0
  151.4517  141.2006  156.3322 C   0  0  0  0  0  0  0  0  0  0  0  0
  152.0863  141.8696  157.4087 N   0  0  0  0  0  0  0  0  0  0  0  0
  151.6848  142.9936  158.0323 C   0  0  0  0  0  0  0  0  0  0  0  0
  150.6803  143.6242  157.7010 O   0  0  0  0  0  0  0  0  0  0  0  0
  152.4979  143.3910  159.0452 N   0  0  0  0  0  0  0  0  0  0  0  0
  153.5260  142.5680  159.7052 C   0  0  0  0  0  0  0  0  0  0  0  0
  152.9368  141.9618  160.9897 C   0  0  0  0  0  0  0  0  0  0  0  0
  152.4706  143.2664  162.1706 S   0  0  0  0  0  0  0  0  0  0  0  0
  151.4977  144.3426  161.0709 C   0  0  0  0  0  0  0  0  0  0  0  0
  152.2651  144.6451  159.7725 C   0  0  0  0  0  0  0  0  0  0  0  0
  150.3529  141.6175  155.5288 C   0  0  0  0  0  0  0  0  0  0  0  0
  150.0558  140.7018  154.6190 N   0  0  0  0  0  0  0  0  0  0  0  0
  150.4135  135.2774  154.8466 H   0  0  0  0  0  0  0  0  0  0  0  0
  149.9148  136.1806  153.4316 H   0  0  0  0  0  0  0  0  0  0  0  0
  151.7276  138.5442  153.2786 H   0  0  0  0  0  0  0  0  0  0  0  0
  149.9774  138.5230  153.3975 H   0  0  0  0  0  0  0  0  0  0  0  0
  152.5881  139.2882  156.1685 H   0  0  0  0  0  0  0  0  0  0  0  0
  152.9341  141.4435  157.7531 H   0  0  0  0  0  0  0  0  0  0  0  0
  153.9198  141.7771  159.0667 H   0  0  0  0  0  0  0  0  0  0  0  0
  154.3926  143.1840  159.9499 H   0  0  0  0  0  0  0  0  0  0  0  0
  152.0585  141.3578  160.7589 H   0  0  0  0  0  0  0  0  0  0  0  0
  153.6623  141.3026  161.4666 H   0  0  0  0  0  0  0  0  0  0  0  0
  150.5471  143.8572  160.8470 H   0  0  0  0  0  0  0  0  0  0  0  0
  151.2671  145.2669  161.6008 H   0  0  0  0  0  0  0  0  0  0  0  0
  153.2147  145.1308  160.0006 H   0  0  0  0  0  0  0  0  0  0  0  0
  151.7104  145.3682  159.1726 H   0  0  0  0  0  0  0  0  0  0  0  0
  149.7700  142.5257  155.5642 H   0  0  0  0  0  0  0  0  0  0  0  0
  1  2  1  0  0  0  0
  1 19  1  0  0  0  0
  1 20  1  0  0  0  0
  2  3  2  0  0  0  0
  2  4  1  0  0  0  0
  4  5  1  0  0  0  0
  4 21  1  0  0  0  0
  4 22  1  0  0  0  0
  5 18  1  0  0  0  0
  5  6  1  0  0  0  0
  6  7  2  0  0  0  0
  6 23  1  0  0  0  0
  7  8  1  0  0  0  0
  7 17  1  0  0  0  0
  8  9  1  0  0  0  0
  8 24  1  0  0  0  0
  9 10  2  0  0  0  0
  9 11  1  0  0  0  0
 11 16  1  0  0  0  0
 11 12  1  0  0  0  0
 12 13  1  0  0  0  0
 12 25  1  0  0  0  0
 12 26  1  0  0  0  0
 13 14  1  0  0  0  0
 13 27  1  0  0  0  0
 13 28  1  0  0  0  0
 14 15  1  0  0  0  0
 15 16  1  0  0  0  0
 15 29  1  0  0  0  0
 15 30  1  0  0  0  0
 16 31  1  0  0  0  0
 16 32  1  0  0  0  0
 17 18  2  0  0  0  0
 17 33  1  0  0  0  0
M  END
> <s_m_source_file>
AV-unprocessed.smi

> <i_m_source_file_index>
1497

> <i_lp_mmshare_version>
43012

> <i_f3d_flags>
0

> <s_epik_input>
W05IMl1DKD1PKVtDSDJdbjFbY0hdYyhbY0hdbjEpW05IXUMoPU8pTjJbQ0gyXVtDSDJdU1tDSDJdW0NIMl0y

> <s_epik_cmdline>
J2VwaWtfcHl0aG9uJywgJy1waCcsICc3LjAnLCAnLXRuJywgJzgnLCAnLW1hJywgJzIwMCcsICctbWV0YWxfYmluZGluZycsICctaW1hZScsICc8aW5maWxlLm1hZT4nLCAnLW9tYWUnLCAnPG91dGZpbGUubWFlPic=

> <r_lp_tautomer_probability>
1

> <r_epik_Ionization_Penalty>
3.75542e-05

> <r_epik_Ionization_Penalty_Charging>
0

> <r_epik_Ionization_Penalty_Neutral>
3.75542e-05

> <r_epik_State_Penalty>
-0

> <r_epik_Charging_Adjusted_Penalty>
0

> <i_epik_Tot_Q>
0

> <i_epik_Tot_abs_Q>
0

> <r_epik_Metal_State_Penalty>
-0

> <b_epik_Metal_Only>
0

> <s_lp_Force_Field>
OPLS_2005

> <r_lp_Energy>
28.4964

> <b_lp_Chiralities_Consistent>
1

> <s_lp_Variant>
AV-unprocessed.smi:1497-1

> <Gold.Version>
5.8.1

> <Gold.Id.Protein>
6NUR|6NUR_protein|mol2

> <Gold.PLP.Fitness>
46.3587

> <Gold.PLP.PLP>
-41.5110

> <Gold.PLP.part.hbond>
-1.9889

> <Gold.PLP.part.metal>
0.0000

> <Gold.PLP.part.buried>
-2.4058

> <Gold.PLP.part.nonpolar>
-37.8566

> <Gold.PLP.part.repulsive>
0.8374

> <Gold.PLP.ligand.clash>
0.0000

> <Gold.PLP.ligand.torsion>
0.5958

> <Gold.PLP.Chemscore.Hbond>
1.0000

> <Gold.PLP.Chemscore.CHOScore>
1.0000

> <Gold.PLP.Chemscore.Metal>
0.0000

> <Gold.Chemscore.Hbonds>
donor molecule, donor type, donor heavy atom, donor atom, acceptor molecule, acceptor atom, score
      L1  H     1    20       P1  7948  0.70
      L1  C    17    33       P1  8028  1.00

> <Gold.PLP.Chemscore.Internal.Correction>
0.0392

> <Gold.Rescore>
     Score         DG    S(hbond)    S(metal)    S(lipo)     H(rot)  DE(clash)    DE(int)     intcor
     11.87     -15.14       0.99        0.00      88.07       1.54       0.43       2.84       ----

> <Gold.Chemscore.Fitness>
11.8706

> <Gold.Chemscore.DG>
-15.1416

> <Gold.Chemscore.ZeroCoef>
-5.4800

> <Gold.Chemscore.Hbond>
0.9870

> <Gold.Chemscore.Metal>
0.0000

> <Gold.Chemscore.Lipo>
88.0699

> <Gold.Chemscore.Internal_Hbond>
0.0000

> <Gold.Chemscore.DEClash>
0.4301

> <Gold.Chemscore.DEInternal>
2.8409

> <Gold.Chemscore.Rot>
1.5388

> <Gold.Chemscore.Internal.Correction>
   9.000000E+99

> <Gold.Chemscore.Hbonds>
donor molecule, donor type, donor heavy atom, donor atom, acceptor molecule, acceptor atom, score
      L1  H     1    20       P1  7948  0.07

> <Gold.Chemscore.Hbond.Weighted>
-3.2966

> <Gold.Chemscore.Metal.Weighted>
-0.0000

> <Gold.Chemscore.Lipo.Weighted>
-10.3042

> <Gold.Chemscore.Internal_Hbond.Weighted>
0.0000

> <Gold.Chemscore.DEClash.Weighted>
0.4301

> <Gold.Chemscore.DEInternal.Weighted>
2.8409

> <Gold.Chemscore.Rot.Weighted>
3.9392

> <Gold.Chemscore.Internal.Correction.Weighted>
   9.000000E+99

> <Gold.Protein.RotatedTorsions>
[ 6907 6896 6895 6894 ] final   29.73 input  -60.11 | X-H torsion
[ 7974 7965 7964 7962 ] final  106.50 input  175.53 | X-H torsion
[ 8008 7997 7996 7995 ] final  -47.26 input   59.86 | X-H torsion
[ 10167 10162 10161 10158 ] final   60.26 input  -65.29 | X-H torsion
[ 10718 10713 10712 10709 ] final  170.96 input   66.30 | X-H torsion
[ 10763 10752 10751 10750 ] final -137.58 input  -60.55 | X-H torsion
[ 11005 11000 10999 10996 ] final  150.84 input  -57.11 | X-H torsion

> <Gold.Protein.ActiveResidues>
 VAL166  LYS551  ARG553  GLY616  TRP617  ASP618  TYR619  PRO620  LYS621  CYS622 
 ASP623  PHE694  ASN695  SER759  ASP760  ASP761  ALA762  ILE779  LEU786  VAL792 
 PHE793  MET794  SER795  GLU796  ALA797  LYS798  CYS799  TRP800  GLU811  SER814 

> <Gold.Protein.RotatedAtoms>
  152.0358  134.9741  160.0573 H   0  0  0  0  0  0  0  0  0  0  0  0  # atno 6907 bound_to 6896
  152.1199  133.4343  159.4679 H   0  0  0  0  0  0  0  0  0  0  0  0  # atno 6908 bound_to 6896
  150.6848  134.2466  159.4537 H   0  0  0  0  0  0  0  0  0  0  0  0  # atno 6909 bound_to 6896
  145.3058  139.2555  143.3789 H   0  0  0  0  0  0  0  0  0  0  0  0  # atno 7974 bound_to 7965
  154.4015  140.1351  156.4146 H   0  0  0  0  0  0  0  0  0  0  0  0  # atno 8008 bound_to 7997
  155.7701  140.3484  155.5222 H   0  0  0  0  0  0  0  0  0  0  0  0  # atno 8009 bound_to 7997
  155.8775  140.0982  157.1498 H   0  0  0  0  0  0  0  0  0  0  0  0  # atno 8010 bound_to 7997
  140.1675  144.4309  150.6678 H   0  0  0  0  0  0  0  0  0  0  0  0  # atno 10167 bound_to 10162
  157.0005  131.0174  151.2832 H   0  0  0  0  0  0  0  0  0  0  0  0  # atno 10718 bound_to 10713
  154.8658  135.3638  154.5246 H   0  0  0  0  0  0  0  0  0  0  0  0  # atno 10763 bound_to 10752
  153.5874  135.7016  153.5442 H   0  0  0  0  0  0  0  0  0  0  0  0  # atno 10764 bound_to 10752
  153.3403  135.4100  155.1528 H   0  0  0  0  0  0  0  0  0  0  0  0  # atno 10765 bound_to 10752
  140.1166  134.8890  157.2013 H   0  0  0  0  0  0  0  0  0  0  0  0  # atno 11005 bound_to 11000
  146.3136  140.3582  142.8662 LP  0  0  0  0  0  0  0  0  0  0  0  0  # atno 17320 bound_to 7965
  144.9056  140.7696  143.5839 LP  0  0  0  0  0  0  0  0  0  0  0  0  # atno 17321 bound_to 7965
  140.6603  143.2250  151.5871 LP  0  0  0  0  0  0  0  0  0  0  0  0  # atno 17342 bound_to 10162
  139.5353  144.2799  152.1237 LP  0  0  0  0  0  0  0  0  0  0  0  0  # atno 17343 bound_to 10162
  157.5394  130.8110  149.8010 LP  0  0  0  0  0  0  0  0  0  0  0  0  # atno 17370 bound_to 10713
  156.0173  130.3809  150.2071 LP  0  0  0  0  0  0  0  0  0  0  0  0  # atno 17371 bound_to 10713
  140.3020  134.3121  155.7287 LP  0  0  0  0  0  0  0  0  0  0  0  0  # atno 17394 bound_to 11000
  141.2142  133.7598  156.9654 LP  0  0  0  0  0  0  0  0  0  0  0  0  # atno 17395 bound_to 11000

$$$$
