AV-unprocessed.smi:2021|AV-procd|sdf|8184|dock9
  -GOLD-   2272010443D 1   1.00000     0.00000
 Structure written by MMmdl.
 41 42  0  0  0  0  0  0  0  0  3 V2000
  145.8956  132.0619  149.6596 C   0  0  0  0  0  0  0  0  0  0  0  0
  145.7879  132.6144  151.0909 C   0  0  0  0  0  0  0  0  0  0  0  0
  144.3179  132.8663  151.4582 C   0  0  0  0  0  0  0  0  0  0  0  0
  146.6199  133.9019  151.2757 C   0  0  0  0  0  0  0  0  0  0  0  0
  147.3335  133.9564  152.5773 N   0  3  2  0  0  0  0  0  0  0  0  0
  148.1176  132.7338  152.8808 C   0  0  0  0  0  0  0  0  0  0  0  0
  148.8480  132.8854  154.2251 C   0  0  0  0  0  0  0  0  0  0  0  0
  147.9056  133.1736  155.2495 O   0  0  0  0  0  0  0  0  0  0  0  0
  147.2171  134.3994  155.0213 C   0  0  2  0  0  0  0  0  0  0  0  0
  146.2936  134.6714  156.2159 C   0  0  0  0  0  0  0  0  0  0  0  0
  147.0014  134.4663  157.4719 N   0  0  0  0  0  0  0  0  0  0  0  0
  146.4157  134.2489  158.6558 C   0  0  0  0  0  0  0  0  0  0  0  0
  145.1857  134.2045  158.7322 O   0  0  0  0  0  0  0  0  0  0  0  0
  147.2902  134.0969  159.6755 N   0  5  0  0  0  0  0  0  0  0  0  0
  147.4134  135.0622  160.6018 C   0  0  0  0  0  0  0  0  0  0  0  0
  147.5517  136.3575  160.2756 N   0  0  0  0  0  0  0  0  0  0  0  0
  147.6632  137.1901  161.3810 N   0  0  0  0  0  0  0  0  0  0  0  0
  147.6150  136.4966  162.5183 C   0  0  0  0  0  0  0  0  0  0  0  0
  147.4335  134.7639  162.3425 S   0  0  0  0  0  0  0  0  0  0  0  0
  146.4266  134.2797  153.7041 C   0  0  0  0  0  0  0  0  0  0  0  0
  145.5447  132.7886  148.9262 H   0  0  0  0  0  0  0  0  0  0  0  0
  145.2964  131.1582  149.5427 H   0  0  0  0  0  0  0  0  0  0  0  0
  146.9240  131.8027  149.4069 H   0  0  0  0  0  0  0  0  0  0  0  0
  146.1541  131.8494  151.7751 H   0  0  0  0  0  0  0  0  0  0  0  0
  143.8680  133.6161  150.8062 H   0  0  0  0  0  0  0  0  0  0  0  0
  144.2234  133.2192  152.4857 H   0  0  0  0  0  0  0  0  0  0  0  0
  143.7277  131.9534  151.3711 H   0  0  0  0  0  0  0  0  0  0  0  0
  147.3466  133.9571  150.4634 H   0  0  0  0  0  0  0  0  0  0  0  0
  145.9883  134.7863  151.1770 H   0  0  0  0  0  0  0  0  0  0  0  0
  147.4515  131.8702  152.9164 H   0  0  0  0  0  0  0  0  0  0  0  0
  148.8488  132.5414  152.0967 H   0  0  0  0  0  0  0  0  0  0  0  0
  149.3695  131.9615  154.4754 H   0  0  0  0  0  0  0  0  0  0  0  0
  149.6019  133.6729  154.1740 H   0  0  0  0  0  0  0  0  0  0  0  0
  147.9394  135.2144  154.9385 H   0  0  0  0  0  0  0  0  0  0  0  0
  145.9340  135.7010  156.1779 H   0  0  0  0  0  0  0  0  0  0  0  0
  145.4179  134.0216  156.1771 H   0  0  0  0  0  0  0  0  0  0  0  0
  148.0103  134.4905  157.4458 H   0  0  0  0  0  0  0  0  0  0  0  0
  147.6898  137.0080  163.4662 H   0  0  0  0  0  0  0  0  0  0  0  0
  145.9117  135.2198  153.5014 H   0  0  0  0  0  0  0  0  0  0  0  0
  145.6613  133.5064  153.7903 H   0  0  0  0  0  0  0  0  0  0  0  0
  147.9890  134.7224  152.5149 H   0  0  0  0  0  0  0  0  0  0  0  0
  1  2  1  0  0  0  0
  1 21  1  0  0  0  0
  1 22  1  0  0  0  0
  1 23  1  0  0  0  0
  2  3  1  0  0  0  0
  2  4  1  0  0  0  0
  2 24  1  0  0  0  0
  3 25  1  0  0  0  0
  3 26  1  0  0  0  0
  3 27  1  0  0  0  0
  4  5  1  0  0  0  0
  4 28  1  0  0  0  0
  4 29  1  0  0  0  0
  5 20  1  0  0  0  0
  5  6  1  0  0  0  0
  5 41  1  0  0  0  0
  6  7  1  0  0  0  0
  6 30  1  0  0  0  0
  6 31  1  0  0  0  0
  7  8  1  0  0  0  0
  7 32  1  0  0  0  0
  7 33  1  0  0  0  0
  8  9  1  0  0  0  0
  9 10  1  0  0  0  0
  9 20  1  0  0  0  0
  9 34  1  0  0  0  0
 10 11  1  0  0  0  0
 10 35  1  0  0  0  0
 10 36  1  0  0  0  0
 11 12  1  0  0  0  0
 11 37  1  0  0  0  0
 12 13  2  0  0  0  0
 12 14  1  0  0  0  0
 14 15  1  0  0  0  0
 15 19  1  0  0  0  0
 15 16  2  0  0  0  0
 16 17  1  0  0  0  0
 17 18  2  0  0  0  0
 18 19  1  0  0  0  0
 18 38  1  0  0  0  0
 20 39  1  0  0  0  0
 20 40  1  0  0  0  0
M  CHG  1   5   1
M  CHG  1  14  -1
M  END
> <s_m_source_file>
AV-unprocessed.smi

> <i_m_source_file_index>
2021

> <i_lp_mmshare_version>
43012

> <i_f3d_flags>
0

> <s_epik_input>
W0NIM11bQ0hdKFtDSDNdKVtDSDJdTjFbQ0gyXVtDSDJdT1tDQEhdKFtDSDJdMSlbQ0gyXVtOSF1DKD1PKVtOSF1jMm5uW2NIXXMy

> <s_epik_cmdline>
J2VwaWtfcHl0aG9uJywgJy1waCcsICc3LjAnLCAnLXRuJywgJzgnLCAnLW1hJywgJzIwMCcsICctbWV0YWxfYmluZGluZycsICctaW1hZScsICc8aW5maWxlLm1hZT4nLCAnLW9tYWUnLCAnPG91dGZpbGUubWFlPic=

> <r_lp_tautomer_probability>
1

> <r_epik_Ionization_Penalty>
3.15762

> <r_epik_Ionization_Penalty_Charging>
3.12229

> <r_epik_Ionization_Penalty_Neutral>
0.0353298

> <r_epik_State_Penalty>
3.11266

> <r_epik_Charging_Adjusted_Penalty>
6.23495

> <i_epik_Tot_Q>
0

> <i_epik_Tot_abs_Q>
2

> <r_epik_Metal_State_Penalty>
0.541462

> <b_epik_Metal_Only>
1

> <s_lp_Force_Field>
OPLS_2005

> <r_lp_Energy>
10.6965

> <b_lp_Chiralities_Consistent>
1

> <s_lp_Variant>
AV-unprocessed.smi:2021-10

> <Gold.Version>
5.8.1

> <Gold.Id.Protein>
6NUR|6NUR_protein|mol2

> <Gold.PLP.Fitness>
39.4149

> <Gold.PLP.PLP>
-31.7361

> <Gold.PLP.part.hbond>
-3.0000

> <Gold.PLP.part.metal>
0.0000

> <Gold.PLP.part.buried>
-4.8062

> <Gold.PLP.part.nonpolar>
-24.1772

> <Gold.PLP.part.repulsive>
0.0186

> <Gold.PLP.ligand.clash>
0.0000

> <Gold.PLP.ligand.torsion>
1.9361

> <Gold.PLP.Chemscore.Hbond>
3.8140

> <Gold.PLP.Chemscore.CHOScore>
0.0000

> <Gold.PLP.Chemscore.Metal>
0.0000

> <Gold.Chemscore.Hbonds>
donor molecule, donor type, donor heavy atom, donor atom, acceptor molecule, acceptor atom, score
      L1  H     5    41       P1  7948  2.00
      P1  H  6931  6943       L1    17  0.73
      P1  H  6934  6947       L1    17  0.82

> <Gold.PLP.Chemscore.Internal.Correction>
0.1089

> <Gold.Rescore>
     Score         DG    S(hbond)    S(metal)    S(lipo)     H(rot)  DE(clash)    DE(int)     intcor
     13.74     -15.39       1.91        0.00      70.43       1.85       0.00       1.65       ----

> <Gold.Chemscore.Fitness>
13.7415

> <Gold.Chemscore.DG>
-15.3871

> <Gold.Chemscore.ZeroCoef>
-5.4800

> <Gold.Chemscore.Hbond>
1.9143

> <Gold.Chemscore.Metal>
0.0000

> <Gold.Chemscore.Lipo>
70.4307

> <Gold.Chemscore.Internal_Hbond>
0.0000

> <Gold.Chemscore.DEClash>
0.0000

> <Gold.Chemscore.DEInternal>
1.6456

> <Gold.Chemscore.Rot>
1.8466

> <Gold.Chemscore.Internal.Correction>
   9.000000E+99

> <Gold.Chemscore.Hbonds>
donor molecule, donor type, donor heavy atom, donor atom, acceptor molecule, acceptor atom, score
      L1  H     5    41       P1  7948  0.65
      P1  H  6931  6943       L1    17  0.09
      P1  H  6934  6947       L1    17  0.66

> <Gold.Chemscore.Hbond.Weighted>
-6.3939

> <Gold.Chemscore.Metal.Weighted>
-0.0000

> <Gold.Chemscore.Lipo.Weighted>
-8.2404

> <Gold.Chemscore.Internal_Hbond.Weighted>
0.0000

> <Gold.Chemscore.DEClash.Weighted>
0.0000

> <Gold.Chemscore.DEInternal.Weighted>
1.6456

> <Gold.Chemscore.Rot.Weighted>
4.7272

> <Gold.Chemscore.Internal.Correction.Weighted>
   9.000000E+99

> <Gold.Protein.RotatedTorsions>
[ 6907 6896 6895 6894 ] final  163.23 input  -60.11 | X-H torsion
[ 7974 7965 7964 7962 ] final -110.58 input  175.53 | X-H torsion
[ 8008 7997 7996 7995 ] final  152.95 input   59.86 | X-H torsion
[ 10167 10162 10161 10158 ] final  123.63 input  -65.29 | X-H torsion
[ 10718 10713 10712 10709 ] final   79.38 input   66.30 | X-H torsion
[ 10763 10752 10751 10750 ] final -159.90 input  -60.55 | X-H torsion
[ 11005 11000 10999 10996 ] final  -40.17 input  -57.11 | X-H torsion

> <Gold.Protein.ActiveResidues>
 VAL166  LYS551  ARG553  GLY616  TRP617  ASP618  TYR619  PRO620  LYS621  CYS622 
 ASP623  PHE694  ASN695  SER759  ASP760  ASP761  ALA762  ILE779  LEU786  VAL792 
 PHE793  MET794  SER795  GLU796  ALA797  LYS798  CYS799  TRP800  GLU811  SER814 

> <Gold.Protein.RotatedAtoms>
  151.9284  133.3604  159.3921 H   0  0  0  0  0  0  0  0  0  0  0  0  # atno 6907 bound_to 6896
  150.7022  134.4563  159.5369 H   0  0  0  0  0  0  0  0  0  0  0  0  # atno 6908 bound_to 6896
  152.2199  134.8423  160.0538 H   0  0  0  0  0  0  0  0  0  0  0  0  # atno 6909 bound_to 6896
  145.1665  140.8904  143.3560 H   0  0  0  0  0  0  0  0  0  0  0  0  # atno 7974 bound_to 7965
  156.2605  140.2007  156.6414 H   0  0  0  0  0  0  0  0  0  0  0  0  # atno 8008 bound_to 7997
  154.6607  140.0561  157.0083 H   0  0  0  0  0  0  0  0  0  0  0  0  # atno 8009 bound_to 7997
  155.1281  140.3231  155.4483 H   0  0  0  0  0  0  0  0  0  0  0  0  # atno 8010 bound_to 7997
  139.5788  144.6976  151.3582 H   0  0  0  0  0  0  0  0  0  0  0  0  # atno 10167 bound_to 10162
  157.6775  130.9912  150.1924 H   0  0  0  0  0  0  0  0  0  0  0  0  # atno 10718 bound_to 10713
  154.7436  135.3074  154.8685 H   0  0  0  0  0  0  0  0  0  0  0  0  # atno 10763 bound_to 10752
  153.9492  135.6766  153.4748 H   0  0  0  0  0  0  0  0  0  0  0  0  # atno 10764 bound_to 10752
  153.1033  135.4901  154.8832 H   0  0  0  0  0  0  0  0  0  0  0  0  # atno 10765 bound_to 10752
  141.0155  133.6887  156.2286 H   0  0  0  0  0  0  0  0  0  0  0  0  # atno 11005 bound_to 11000
  145.0277  139.3368  143.6040 LP  0  0  0  0  0  0  0  0  0  0  0  0  # atno 17320 bound_to 7965
  146.3475  139.9602  142.8718 LP  0  0  0  0  0  0  0  0  0  0  0  0  # atno 17321 bound_to 7965
  140.7068  143.7492  150.7497 LP  0  0  0  0  0  0  0  0  0  0  0  0  # atno 17342 bound_to 10162
  140.1019  143.4780  152.2420 LP  0  0  0  0  0  0  0  0  0  0  0  0  # atno 17343 bound_to 10162
  156.2633  130.3713  149.8108 LP  0  0  0  0  0  0  0  0  0  0  0  0  # atno 17370 bound_to 10713
  156.5846  130.8480  151.3392 LP  0  0  0  0  0  0  0  0  0  0  0  0  # atno 17371 bound_to 10713
  140.6661  134.4917  157.5585 LP  0  0  0  0  0  0  0  0  0  0  0  0  # atno 17394 bound_to 11000
  139.9115  134.8336  156.1513 LP  0  0  0  0  0  0  0  0  0  0  0  0  # atno 17395 bound_to 11000

$$$$
