AV-unprocessed.smi:1295|AV-procd|sdf|5410|dock10
  -GOLD-   22720 4573D 1   1.00000     0.00000
 Structure written by MMmdl.
 42 43  0  0  0  0  0  0  0  0  2 V2000
  153.6994  142.7939  162.8971 C   0  0  0  0  0  0  0  0  0  0  0  0
  152.9606  142.8450  161.5770 C   0  0  0  0  0  0  0  0  0  0  0  0
  152.3118  143.9015  161.2647 N   0  0  0  0  0  0  0  0  0  0  0  0
  151.6280  143.9558  160.0385 C   0  0  0  0  0  0  0  0  0  0  0  0
  150.8930  145.2529  159.7465 C   0  0  0  0  0  0  0  0  0  0  0  0
  151.6401  142.8991  159.1760 C   0  0  0  0  0  0  0  0  0  0  0  0
  150.9218  142.9155  157.8270 C   0  0  0  0  0  0  0  0  0  0  0  0
  149.8912  141.8056  157.6106 C   0  0  0  0  0  0  0  0  0  0  0  0
  150.0099  140.7251  158.1879 O   0  0  0  0  0  0  0  0  0  0  0  0
  148.8805  142.0946  156.7762 N   0  0  0  0  0  0  0  0  0  0  0  0
  147.7483  141.2256  156.4511 C   0  0  1  0  0  0  0  0  0  0  0  0
  146.4311  141.9290  156.8354 C   0  0  0  0  0  0  0  0  0  0  0  0
  146.1230  143.1265  155.9192 C   0  0  0  0  0  0  0  0  0  0  0  0
  146.1125  142.7072  154.4415 C   0  0  0  0  0  0  0  0  0  0  0  0
  147.4298  142.0216  154.0444 C   0  0  0  0  0  0  0  0  0  0  0  0
  147.7406  140.8159  154.9557 C   0  0  1  0  0  0  0  0  0  0  0  0
  149.0267  140.0936  154.5195 C   0  0  0  0  0  0  0  0  0  0  0  0
  152.3928  141.6968  159.5775 C   0  0  0  0  0  0  0  0  0  0  0  0
  152.4244  140.7093  158.8443 O   0  0  0  0  0  0  0  0  0  0  0  0
  153.0389  141.7267  160.7780 N   0  5  0  0  0  0  0  0  0  0  0  0
  153.4314  143.6408  163.5302 H   0  0  0  0  0  0  0  0  0  0  0  0
  154.7758  142.8203  162.7260 H   0  0  0  0  0  0  0  0  0  0  0  0
  153.4562  141.8768  163.4345 H   0  0  0  0  0  0  0  0  0  0  0  0
  151.3127  145.7407  158.8666 H   0  0  0  0  0  0  0  0  0  0  0  0
  150.9711  145.9476  160.5837 H   0  0  0  0  0  0  0  0  0  0  0  0
  149.8342  145.0646  159.5691 H   0  0  0  0  0  0  0  0  0  0  0  0
  150.4296  143.8830  157.7215 H   0  0  0  0  0  0  0  0  0  0  0  0
  151.6352  142.8803  157.0033 H   0  0  0  0  0  0  0  0  0  0  0  0
  148.8812  143.0077  156.3456 H   0  0  0  0  0  0  0  0  0  0  0  0
  147.8125  140.3160  157.0507 H   0  0  0  0  0  0  0  0  0  0  0  0
  145.6115  141.2122  156.7709 H   0  0  0  0  0  0  0  0  0  0  0  0
  146.4666  142.2536  157.8762 H   0  0  0  0  0  0  0  0  0  0  0  0
  145.1599  143.5608  156.1884 H   0  0  0  0  0  0  0  0  0  0  0  0
  146.8655  143.9108  156.0720 H   0  0  0  0  0  0  0  0  0  0  0  0
  145.2783  142.0283  154.2606 H   0  0  0  0  0  0  0  0  0  0  0  0
  145.9426  143.5792  153.8092 H   0  0  0  0  0  0  0  0  0  0  0  0
  147.3686  141.6957  153.0056 H   0  0  0  0  0  0  0  0  0  0  0  0
  148.2462  142.7436  154.0906 H   0  0  0  0  0  0  0  0  0  0  0  0
  146.9265  140.1006  154.8287 H   0  0  0  0  0  0  0  0  0  0  0  0
  149.8931  140.7544  154.5540 H   0  0  0  0  0  0  0  0  0  0  0  0
  148.9393  139.7223  153.4982 H   0  0  0  0  0  0  0  0  0  0  0  0
  149.2334  139.2388  155.1640 H   0  0  0  0  0  0  0  0  0  0  0  0
  1  2  1  0  0  0  0
  1 21  1  0  0  0  0
  1 22  1  0  0  0  0
  1 23  1  0  0  0  0
  2 20  1  0  0  0  0
  2  3  2  0  0  0  0
  3  4  1  0  0  0  0
  4  5  1  0  0  0  0
  4  6  2  0  0  0  0
  5 24  1  0  0  0  0
  5 25  1  0  0  0  0
  5 26  1  0  0  0  0
  6  7  1  0  0  0  0
  6 18  1  0  0  0  0
  7  8  1  0  0  0  0
  7 27  1  0  0  0  0
  7 28  1  0  0  0  0
  8  9  2  0  0  0  0
  8 10  1  0  0  0  0
 10 11  1  0  0  0  0
 10 29  1  0  0  0  0
 11 16  1  0  0  0  0
 11 12  1  0  0  0  0
 11 30  1  0  0  0  0
 12 13  1  0  0  0  0
 12 31  1  0  0  0  0
 12 32  1  0  0  0  0
 13 14  1  0  0  0  0
 13 33  1  0  0  0  0
 13 34  1  0  0  0  0
 14 15  1  0  0  0  0
 14 35  1  0  0  0  0
 14 36  1  0  0  0  0
 15 16  1  0  0  0  0
 15 37  1  0  0  0  0
 15 38  1  0  0  0  0
 16 17  1  0  0  0  0
 16 39  1  0  0  0  0
 17 40  1  0  0  0  0
 17 41  1  0  0  0  0
 17 42  1  0  0  0  0
 18 19  2  0  0  0  0
 18 20  1  0  0  0  0
M  CHG  1  20  -1
M  END
> <s_m_source_file>
AV-unprocessed.smi

> <i_m_source_file_index>
1295

> <i_lp_mmshare_version>
43012

> <i_f3d_flags>
0

> <s_epik_input>
W0NIM11jMW5jKFtDSDNdKWMoYyg9TylbbkhdMSlbQ0gyXUMoPU8pW05IXVtDQEBIXTJbQ0gyXVtDSDJdW0NIMl1bQ0gyXVtDQEhdMltDSDNd

> <s_epik_cmdline>
J2VwaWtfcHl0aG9uJywgJy1waCcsICc3LjAnLCAnLXRuJywgJzgnLCAnLW1hJywgJzIwMCcsICctbWV0YWxfYmluZGluZycsICctaW1hZScsICc8aW5maWxlLm1hZT4nLCAnLW9tYWUnLCAnPG91dGZpbGUubWFlPic=

> <r_lp_tautomer_probability>
0.839158

> <r_epik_Ionization_Penalty>
6.67742

> <r_epik_Ionization_Penalty_Charging>
7.78154e-08

> <r_epik_Ionization_Penalty_Neutral>
6.67742

> <r_epik_State_Penalty>
4.51991

> <r_epik_Charging_Adjusted_Penalty>
4.51991

> <i_epik_Tot_Q>
-1

> <i_epik_Tot_abs_Q>
1

> <r_epik_Metal_State_Penalty>
0.853272

> <b_epik_Metal_Only>
1

> <s_lp_Force_Field>
OPLS_2005

> <r_lp_Energy>
15.7399

> <b_lp_Chiralities_Consistent>
1

> <s_lp_Variant>
AV-unprocessed.smi:1295-10

> <Gold.Version>
5.8.1

> <Gold.Id.Protein>
6NUR|6NUR_protein|mol2

> <Gold.PLP.Fitness>
42.9875

> <Gold.PLP.PLP>
-40.7534

> <Gold.PLP.part.hbond>
-1.0000

> <Gold.PLP.part.metal>
0.0000

> <Gold.PLP.part.buried>
-6.9679

> <Gold.PLP.part.nonpolar>
-31.7937

> <Gold.PLP.part.repulsive>
0.1762

> <Gold.PLP.ligand.clash>
0.0000

> <Gold.PLP.ligand.torsion>
0.3863

> <Gold.PLP.Chemscore.Hbond>
1.0000

> <Gold.PLP.Chemscore.CHOScore>
0.0000

> <Gold.PLP.Chemscore.Metal>
0.0000

> <Gold.Chemscore.Hbonds>
donor molecule, donor type, donor heavy atom, donor atom, acceptor molecule, acceptor atom, score
      L1  H    10    29       P1  8028  1.00

> <Gold.PLP.Chemscore.Internal.Correction>
0.0068

> <Gold.Rescore>
     Score         DG    S(hbond)    S(metal)    S(lipo)     H(rot)  DE(clash)    DE(int)     intcor
     14.01     -15.72       1.26        0.00      83.06       1.45       0.17       1.54       ----

> <Gold.Chemscore.Fitness>
14.0064

> <Gold.Chemscore.DG>
-15.7214

> <Gold.Chemscore.ZeroCoef>
-5.4800

> <Gold.Chemscore.Hbond>
1.2641

> <Gold.Chemscore.Metal>
0.0000

> <Gold.Chemscore.Lipo>
83.0641

> <Gold.Chemscore.Internal_Hbond>
0.0000

> <Gold.Chemscore.DEClash>
0.1726

> <Gold.Chemscore.DEInternal>
1.5424

> <Gold.Chemscore.Rot>
1.4450

> <Gold.Chemscore.Internal.Correction>
   9.000000E+99

> <Gold.Chemscore.Hbonds>
donor molecule, donor type, donor heavy atom, donor atom, acceptor molecule, acceptor atom, score
      L1  H    10    29       P1  8028  0.99

> <Gold.Chemscore.Hbond.Weighted>
-4.2221

> <Gold.Chemscore.Metal.Weighted>
-0.0000

> <Gold.Chemscore.Lipo.Weighted>
-9.7185

> <Gold.Chemscore.Internal_Hbond.Weighted>
0.0000

> <Gold.Chemscore.DEClash.Weighted>
0.1726

> <Gold.Chemscore.DEInternal.Weighted>
1.5424

> <Gold.Chemscore.Rot.Weighted>
3.6992

> <Gold.Chemscore.Internal.Correction.Weighted>
   9.000000E+99

> <Gold.Protein.RotatedTorsions>
[ 6907 6896 6895 6894 ] final   27.14 input  -60.11 | X-H torsion
[ 7974 7965 7964 7962 ] final  115.49 input  175.53 | X-H torsion
[ 8008 7997 7996 7995 ] final  160.72 input   59.86 | X-H torsion
[ 10167 10162 10161 10158 ] final  -58.72 input  -65.29 | X-H torsion
[ 10718 10713 10712 10709 ] final  -25.97 input   66.30 | X-H torsion
[ 10763 10752 10751 10750 ] final  -91.31 input  -60.55 | X-H torsion
[ 11005 11000 10999 10996 ] final -174.21 input  -57.11 | X-H torsion

> <Gold.Protein.ActiveResidues>
 VAL166  LYS551  ARG553  GLY616  TRP617  ASP618  TYR619  PRO620  LYS621  CYS622 
 ASP623  PHE694  ASN695  SER759  ASP760  ASP761  ALA762  ILE779  LEU786  VAL792 
 PHE793  MET794  SER795  GLU796  ALA797  LYS798  CYS799  TRP800  GLU811  SER814 

> <Gold.Protein.RotatedAtoms>
  151.9979  134.9944  160.0563 H   0  0  0  0  0  0  0  0  0  0  0  0  # atno 6907 bound_to 6896
  152.1547  133.4539  159.4839 H   0  0  0  0  0  0  0  0  0  0  0  0  # atno 6908 bound_to 6896
  150.6880  134.2063  159.4385 H   0  0  0  0  0  0  0  0  0  0  0  0  # atno 6909 bound_to 6896
  145.1914  139.2998  143.4366 H   0  0  0  0  0  0  0  0  0  0  0  0  # atno 7974 bound_to 7965
  156.2153  140.1796  156.7603 H   0  0  0  0  0  0  0  0  0  0  0  0  # atno 8008 bound_to 7997
  154.5782  140.0670  156.9094 H   0  0  0  0  0  0  0  0  0  0  0  0  # atno 8009 bound_to 7997
  155.2550  140.3331  155.4281 H   0  0  0  0  0  0  0  0  0  0  0  0  # atno 8010 bound_to 7997
  140.6180  143.2409  151.5550 H   0  0  0  0  0  0  0  0  0  0  0  0  # atno 10167 bound_to 10162
  156.4573  130.4496  149.6951 H   0  0  0  0  0  0  0  0  0  0  0  0  # atno 10718 bound_to 10713
  154.6747  135.5272  153.8184 H   0  0  0  0  0  0  0  0  0  0  0  0  # atno 10763 bound_to 10752
  153.0525  135.6538  154.0669 H   0  0  0  0  0  0  0  0  0  0  0  0  # atno 10764 bound_to 10752
  154.0564  135.2965  155.3312 H   0  0  0  0  0  0  0  0  0  0  0  0  # atno 10765 bound_to 10752
  140.4771  134.6111  157.4905 H   0  0  0  0  0  0  0  0  0  0  0  0  # atno 11005 bound_to 11000
  146.3435  140.2127  142.8590 LP  0  0  0  0  0  0  0  0  0  0  0  0  # atno 17320 bound_to 7965
  145.0038  140.8655  143.5265 LP  0  0  0  0  0  0  0  0  0  0  0  0  # atno 17321 bound_to 7965
  139.5415  144.2636  152.1359 LP  0  0  0  0  0  0  0  0  0  0  0  0  # atno 17342 bound_to 10162
  140.1850  144.4808  150.6508 LP  0  0  0  0  0  0  0  0  0  0  0  0  # atno 17343 bound_to 10162
  156.3753  130.7551  151.2539 LP  0  0  0  0  0  0  0  0  0  0  0  0  # atno 17370 bound_to 10713
  157.7500  131.0311  150.4168 LP  0  0  0  0  0  0  0  0  0  0  0  0  # atno 17371 bound_to 10713
  139.9849  134.7077  155.9791 LP  0  0  0  0  0  0  0  0  0  0  0  0  # atno 17394 bound_to 11000
  141.1549  133.6544  156.4130 LP  0  0  0  0  0  0  0  0  0  0  0  0  # atno 17395 bound_to 11000

$$$$
