AV-unprocessed.smi:1072|AV-procd|sdf|4683|dock2
  -GOLD-   22720 3203D 1   1.00000     0.00000
 Structure written by MMmdl.
 46 47  0  0  0  0  0  0  0  0  1 V2000
  151.0456  142.6363  157.1810 C   0  0  0  0  0  0  0  0  0  0  0  0
  150.8868  141.3755  156.3582 C   0  0  0  0  0  0  0  0  0  0  0  0
  149.8202  141.0808  155.6904 N   0  0  0  0  0  0  0  0  0  0  0  0
  149.7911  139.8836  154.9619 C   0  0  0  0  0  0  0  0  0  0  0  0
  148.5060  139.6116  154.1985 C   0  0  0  0  0  0  0  0  0  0  0  0
  150.8560  139.0291  154.9457 C   0  0  0  0  0  0  0  0  0  0  0  0
  150.8541  137.7204  154.1570 C   0  0  0  0  0  0  0  0  0  0  0  0
  150.6103  136.4510  154.9766 C   0  0  0  0  0  0  0  0  0  0  0  0
  151.5116  135.9824  155.6716 O   0  0  0  0  0  0  0  0  0  0  0  0
  149.3847  135.9089  154.8683 N   0  0  0  0  0  0  0  0  0  0  0  0
  148.8640  134.6837  155.4926 C   0  0  1  0  0  0  0  0  0  0  0  0
  149.3832  134.5792  156.9430 C   0  0  0  0  0  0  0  0  0  0  0  0
  147.3130  134.6391  155.4696 C   0  0  0  0  0  0  0  0  0  0  0  0
  146.7380  134.5894  154.0428 C   0  0  0  0  0  0  0  0  0  0  0  0
  147.2907  133.3879  153.2554 C   0  0  1  0  0  0  0  0  0  0  0  0
  146.7244  133.3428  151.8294 C   0  0  0  0  0  0  0  0  0  0  0  0
  148.8299  133.4127  153.2521 C   0  0  0  0  0  0  0  0  0  0  0  0
  149.4007  133.4793  154.6818 C   0  0  0  0  0  0  0  0  0  0  0  0
  152.0686  139.3756  155.7120 C   0  0  0  0  0  0  0  0  0  0  0  0
  153.0843  138.6837  155.7620 O   0  0  0  0  0  0  0  0  0  0  0  0
  152.0077  140.5472  156.3838 N   0  0  0  0  0  0  0  0  0  0  0  0
  152.8135  140.8294  156.9224 H   0  0  0  0  0  0  0  0  0  0  0  0
  150.9531  143.5145  156.5417 H   0  0  0  0  0  0  0  0  0  0  0  0
  152.0162  142.6751  157.6769 H   0  0  0  0  0  0  0  0  0  0  0  0
  150.2701  142.6857  157.9455 H   0  0  0  0  0  0  0  0  0  0  0  0
  148.0195  138.7128  154.5772 H   0  0  0  0  0  0  0  0  0  0  0  0
  148.7091  139.4765  153.1361 H   0  0  0  0  0  0  0  0  0  0  0  0
  147.8034  140.4396  154.2987 H   0  0  0  0  0  0  0  0  0  0  0  0
  150.1147  137.7532  153.3562 H   0  0  0  0  0  0  0  0  0  0  0  0
  151.8131  137.6297  153.6454 H   0  0  0  0  0  0  0  0  0  0  0  0
  148.7339  136.3944  154.2683 H   0  0  0  0  0  0  0  0  0  0  0  0
  149.0865  133.6349  157.4002 H   0  0  0  0  0  0  0  0  0  0  0  0
  148.9930  135.3754  157.5770 H   0  0  0  0  0  0  0  0  0  0  0  0
  150.4720  134.6323  156.9799 H   0  0  0  0  0  0  0  0  0  0  0  0
  146.9733  133.7544  156.0099 H   0  0  0  0  0  0  0  0  0  0  0  0
  146.8859  135.4858  156.0065 H   0  0  0  0  0  0  0  0  0  0  0  0
  145.6501  134.5311  154.0927 H   0  0  0  0  0  0  0  0  0  0  0  0
  146.9693  135.5172  153.5179 H   0  0  0  0  0  0  0  0  0  0  0  0
  146.9713  132.4773  153.7645 H   0  0  0  0  0  0  0  0  0  0  0  0
  147.0011  134.2337  151.2649 H   0  0  0  0  0  0  0  0  0  0  0  0
  145.6358  133.2812  151.8419 H   0  0  0  0  0  0  0  0  0  0  0  0
  147.0972  132.4744  151.2857 H   0  0  0  0  0  0  0  0  0  0  0  0
  149.2133  132.5233  152.7508 H   0  0  0  0  0  0  0  0  0  0  0  0
  149.1842  134.2648  152.6705 H   0  0  0  0  0  0  0  0  0  0  0  0
  150.4903  133.5105  154.6375 H   0  0  0  0  0  0  0  0  0  0  0  0
  149.1493  132.5521  155.1990 H   0  0  0  0  0  0  0  0  0  0  0  0
  1  2  1  0  0  0  0
  1 23  1  0  0  0  0
  1 24  1  0  0  0  0
  1 25  1  0  0  0  0
  2 21  1  0  0  0  0
  2  3  2  0  0  0  0
  3  4  1  0  0  0  0
  4  5  1  0  0  0  0
  4  6  2  0  0  0  0
  5 26  1  0  0  0  0
  5 27  1  0  0  0  0
  5 28  1  0  0  0  0
  6  7  1  0  0  0  0
  6 19  1  0  0  0  0
  7  8  1  0  0  0  0
  7 29  1  0  0  0  0
  7 30  1  0  0  0  0
  8  9  2  0  0  0  0
  8 10  1  0  0  0  0
 10 11  1  0  0  0  0
 10 31  1  0  0  0  0
 11 18  1  0  0  0  0
 11 12  1  0  0  0  0
 11 13  1  0  0  0  0
 12 32  1  0  0  0  0
 12 33  1  0  0  0  0
 12 34  1  0  0  0  0
 13 14  1  0  0  0  0
 13 35  1  0  0  0  0
 13 36  1  0  0  0  0
 14 15  1  0  0  0  0
 14 37  1  0  0  0  0
 14 38  1  0  0  0  0
 15 16  1  0  0  0  0
 15 17  1  0  0  0  0
 15 39  1  0  0  0  0
 16 40  1  0  0  0  0
 16 41  1  0  0  0  0
 16 42  1  0  0  0  0
 17 18  1  0  0  0  0
 17 43  1  0  0  0  0
 17 44  1  0  0  0  0
 18 45  1  0  0  0  0
 18 46  1  0  0  0  0
 19 20  2  0  0  0  0
 19 21  1  0  0  0  0
 21 22  1  0  0  0  0
M  END
> <s_m_source_file>
AV-unprocessed.smi

> <i_m_source_file_index>
1072

> <i_lp_mmshare_version>
43012

> <i_f3d_flags>
0

> <s_epik_input>
W0NIM11jMW5jKFtDSDNdKWMoYyg9TylbbkhdMSlbQ0gyXUMoPU8pW05IXVtDQEBdMihbQ0gzXSlbQ0gyXVtDSDJdW0NAQEhdKFtDSDNdKVtDSDJdW0NIMl0y

> <s_epik_cmdline>
J2VwaWtfcHl0aG9uJywgJy1waCcsICc3LjAnLCAnLXRuJywgJzgnLCAnLW1hJywgJzIwMCcsICctbWV0YWxfYmluZGluZycsICctaW1hZScsICc8aW5maWxlLm1hZT4nLCAnLW9tYWUnLCAnPG91dGZpbGUubWFlPic=

> <r_lp_tautomer_probability>
0.839158

> <r_epik_Ionization_Penalty>
0.000352328

> <r_epik_Ionization_Penalty_Charging>
0.000314696

> <r_epik_Ionization_Penalty_Neutral>
3.76315e-05

> <r_epik_State_Penalty>
0.09125

> <r_epik_Charging_Adjusted_Penalty>
0.0915647

> <i_epik_Tot_Q>
0

> <i_epik_Tot_abs_Q>
0

> <r_epik_Metal_State_Penalty>
0.245598

> <b_epik_Metal_Only>
0

> <s_lp_Force_Field>
OPLS_2005

> <r_lp_Energy>
11.0611

> <b_lp_Chiralities_Consistent>
1

> <s_lp_Variant>
AV-unprocessed.smi:1072-1

> <Gold.Version>
5.8.1

> <Gold.Id.Protein>
6NUR|6NUR_protein|mol2

> <Gold.PLP.Fitness>
39.6547

> <Gold.PLP.PLP>
-34.7742

> <Gold.PLP.part.hbond>
-3.0000

> <Gold.PLP.part.metal>
0.0000

> <Gold.PLP.part.buried>
-0.8383

> <Gold.PLP.part.nonpolar>
-31.2001

> <Gold.PLP.part.repulsive>
0.3311

> <Gold.PLP.ligand.clash>
0.0000

> <Gold.PLP.ligand.torsion>
0.8486

> <Gold.PLP.Chemscore.Hbond>
2.1888

> <Gold.PLP.Chemscore.CHOScore>
0.0000

> <Gold.PLP.Chemscore.Metal>
0.0000

> <Gold.Chemscore.Hbonds>
donor molecule, donor type, donor heavy atom, donor atom, acceptor molecule, acceptor atom, score
      L1  H    10    31       P1  7948  0.02
      P1  H  7997  8008       L1    20  0.90
      P1  H 10752 10764       L1     9  1.00

> <Gold.PLP.Chemscore.Internal.Correction>
0.0113

> <Gold.Rescore>
     Score         DG    S(hbond)    S(metal)    S(lipo)     H(rot)  DE(clash)    DE(int)     intcor
     14.06     -16.78       2.11        0.00      68.44       1.47       0.15       2.56       ----

> <Gold.Chemscore.Fitness>
14.0637

> <Gold.Chemscore.DG>
-16.7751

> <Gold.Chemscore.ZeroCoef>
-5.4800

> <Gold.Chemscore.Hbond>
2.1104

> <Gold.Chemscore.Metal>
0.0000

> <Gold.Chemscore.Lipo>
68.4365

> <Gold.Chemscore.Internal_Hbond>
0.0000

> <Gold.Chemscore.DEClash>
0.1472

> <Gold.Chemscore.DEInternal>
2.5642

> <Gold.Chemscore.Rot>
1.4690

> <Gold.Chemscore.Internal.Correction>
   9.000000E+99

> <Gold.Chemscore.Hbonds>
donor molecule, donor type, donor heavy atom, donor atom, acceptor molecule, acceptor atom, score
      L1  H    10    31       P1  7948  0.04
      P1  H  7997  8008       L1    20  0.17
      P1  H 10752 10764       L1     9  0.98

> <Gold.Chemscore.Hbond.Weighted>
-7.0487

> <Gold.Chemscore.Metal.Weighted>
-0.0000

> <Gold.Chemscore.Lipo.Weighted>
-8.0071

> <Gold.Chemscore.Internal_Hbond.Weighted>
0.0000

> <Gold.Chemscore.DEClash.Weighted>
0.1472

> <Gold.Chemscore.DEInternal.Weighted>
2.5642

> <Gold.Chemscore.Rot.Weighted>
3.7607

> <Gold.Chemscore.Internal.Correction.Weighted>
   9.000000E+99

> <Gold.Protein.RotatedTorsions>
[ 6907 6896 6895 6894 ] final -173.19 input  -60.11 | X-H torsion
[ 7974 7965 7964 7962 ] final  135.39 input  175.53 | X-H torsion
[ 8008 7997 7996 7995 ] final  -40.14 input   59.86 | X-H torsion
[ 10167 10162 10161 10158 ] final   10.33 input  -65.29 | X-H torsion
[ 10718 10713 10712 10709 ] final  172.75 input   66.30 | X-H torsion
[ 10763 10752 10751 10750 ] final  -36.01 input  -60.55 | X-H torsion
[ 11005 11000 10999 10996 ] final  168.48 input  -57.11 | X-H torsion

> <Gold.Protein.ActiveResidues>
 VAL166  LYS551  ARG553  GLY616  TRP617  ASP618  TYR619  PRO620  LYS621  CYS622 
 ASP623  PHE694  ASN695  SER759  ASP760  ASP761  ALA762  ILE779  LEU786  VAL792 
 PHE793  MET794  SER795  GLU796  ALA797  LYS798  CYS799  TRP800  GLU811  SER814 

> <Gold.Protein.RotatedAtoms>
  151.5522  133.3416  159.2954 H   0  0  0  0  0  0  0  0  0  0  0  0  # atno 6907 bound_to 6896
  150.8472  134.7787  159.6991 H   0  0  0  0  0  0  0  0  0  0  0  0  # atno 6908 bound_to 6896
  152.4527  134.5367  159.9878 H   0  0  0  0  0  0  0  0  0  0  0  0  # atno 6909 bound_to 6896
  144.9668  139.4649  143.5453 H   0  0  0  0  0  0  0  0  0  0  0  0  # atno 7974 bound_to 7965
  154.4015  140.1533  156.2979 H   0  0  0  0  0  0  0  0  0  0  0  0  # atno 8008 bound_to 7997
  155.8727  140.3448  155.5811 H   0  0  0  0  0  0  0  0  0  0  0  0  # atno 8009 bound_to 7997
  155.7756  140.0836  157.2076 H   0  0  0  0  0  0  0  0  0  0  0  0  # atno 8010 bound_to 7997
  140.6201  143.8223  150.7165 H   0  0  0  0  0  0  0  0  0  0  0  0  # atno 10167 bound_to 10162
  156.9744  131.0100  151.2897 H   0  0  0  0  0  0  0  0  0  0  0  0  # atno 10718 bound_to 10713
  153.8727  135.6829  153.4773 H   0  0  0  0  0  0  0  0  0  0  0  0  # atno 10763 bound_to 10752
  153.1278  135.4711  154.9298 H   0  0  0  0  0  0  0  0  0  0  0  0  # atno 10764 bound_to 10752
  154.7706  135.3237  154.8148 H   0  0  0  0  0  0  0  0  0  0  0  0  # atno 10765 bound_to 10752
  140.2877  134.7699  157.3812 H   0  0  0  0  0  0  0  0  0  0  0  0  # atno 11005 bound_to 11000
  146.3370  139.8854  142.8817 LP  0  0  0  0  0  0  0  0  0  0  0  0  # atno 17320 bound_to 7965
  145.2618  141.0079  143.3822 LP  0  0  0  0  0  0  0  0  0  0  0  0  # atno 17321 bound_to 7965
  140.1811  143.4114  152.1932 LP  0  0  0  0  0  0  0  0  0  0  0  0  # atno 17342 bound_to 10162
  139.5431  144.7275  151.4669 LP  0  0  0  0  0  0  0  0  0  0  0  0  # atno 17343 bound_to 10162
  157.5570  130.8220  149.8217 LP  0  0  0  0  0  0  0  0  0  0  0  0  # atno 17370 bound_to 10713
  156.0269  130.3776  150.1796 LP  0  0  0  0  0  0  0  0  0  0  0  0  # atno 17371 bound_to 10713
  140.1224  134.5202  155.8172 LP  0  0  0  0  0  0  0  0  0  0  0  0  # atno 17394 bound_to 11000
  141.2152  133.6761  156.6891 LP  0  0  0  0  0  0  0  0  0  0  0  0  # atno 17395 bound_to 11000

$$$$
