AV-unprocessed.smi:3105|AV-procd|sdf|11820|dock1
  -GOLD-   2272017193D 1   1.00000     0.00000
 Structure written by MMmdl.
 34 34  0  0  0  0  0  0  0  0  2 V2000
  150.1431  141.0487  158.0613 C   0  0  0  0  0  0  0  0  0  0  0  0
  150.7258  142.2267  157.2513 C   0  0  1  0  0  0  0  0  0  0  0  0
  150.0395  142.3383  155.9429 N   0  3  0  0  0  0  0  0  0  0  0  0
  149.9152  141.0778  155.1808 C   0  0  0  0  0  0  0  0  0  0  0  0
  151.2987  140.5614  154.7477 C   0  0  0  0  0  0  0  0  0  0  0  0
  151.2421  139.2185  154.0115 C   0  0  0  0  0  0  0  0  0  0  0  0
  150.5187  139.1799  152.8902 N   0  0  0  0  0  0  0  0  0  0  0  0
  151.8387  138.2316  154.4377 O   0  0  0  0  0  0  0  0  0  0  0  0
  150.6342  143.5802  158.0067 C   0  0  2  0  0  0  0  0  0  0  0  0
  151.0328  144.7786  157.1233 C   0  0  0  0  0  0  0  0  0  0  0  0
  151.4217  143.5847  159.2335 N   0  0  0  0  0  0  0  0  0  0  0  0
  151.2519  144.3705  160.3552 C   0  0  0  0  0  0  0  0  0  0  0  0
  152.2274  144.0265  161.2464 C   0  0  0  0  0  0  0  0  0  0  0  0
  152.9597  143.0107  160.5716 C   0  0  0  0  0  0  0  0  0  0  0  0
  152.4770  142.7494  159.3677 N   0  0  0  0  0  0  0  0  0  0  0  0
  150.6720  140.9035  159.0030 H   0  0  0  0  0  0  0  0  0  0  0  0
  150.2183  140.1067  157.5191 H   0  0  0  0  0  0  0  0  0  0  0  0
  149.0911  141.2136  158.2952 H   0  0  0  0  0  0  0  0  0  0  0  0
  151.7810  142.0208  157.0633 H   0  0  0  0  0  0  0  0  0  0  0  0
  149.1228  142.7373  156.0860 H   0  0  0  0  0  0  0  0  0  0  0  0
  149.4168  140.3348  155.8054 H   0  0  0  0  0  0  0  0  0  0  0  0
  149.2882  141.2376  154.3033 H   0  0  0  0  0  0  0  0  0  0  0  0
  151.7756  141.2961  154.0970 H   0  0  0  0  0  0  0  0  0  0  0  0
  151.9434  140.4476  155.6202 H   0  0  0  0  0  0  0  0  0  0  0  0
  150.4425  138.3222  152.3627 H   0  0  0  0  0  0  0  0  0  0  0  0
  150.0451  140.0134  152.5719 H   0  0  0  0  0  0  0  0  0  0  0  0
  149.5948  143.7255  158.3064 H   0  0  0  0  0  0  0  0  0  0  0  0
  150.3744  144.8798  156.2607 H   0  0  0  0  0  0  0  0  0  0  0  0
  152.0530  144.6800  156.7507 H   0  0  0  0  0  0  0  0  0  0  0  0
  150.9746  145.7123  157.6837 H   0  0  0  0  0  0  0  0  0  0  0  0
  150.4596  145.1011  160.4269 H   0  0  0  0  0  0  0  0  0  0  0  0
  152.3939  144.4393  162.2305 H   0  0  0  0  0  0  0  0  0  0  0  0
  153.8219  142.4599  160.9179 H   0  0  0  0  0  0  0  0  0  0  0  0
  150.5797  142.9742  155.3738 H   0  0  0  0  0  0  0  0  0  0  0  0
  1  2  1  0  0  0  0
  1 16  1  0  0  0  0
  1 17  1  0  0  0  0
  1 18  1  0  0  0  0
  2  3  1  0  0  0  0
  2  9  1  0  0  0  0
  2 19  1  0  0  0  0
  3  4  1  0  0  0  0
  3 20  1  0  0  0  0
  3 34  1  0  0  0  0
  4  5  1  0  0  0  0
  4 21  1  0  0  0  0
  4 22  1  0  0  0  0
  5  6  1  0  0  0  0
  5 23  1  0  0  0  0
  5 24  1  0  0  0  0
  6  7  1  0  0  0  0
  6  8  2  0  0  0  0
  7 25  1  0  0  0  0
  7 26  1  0  0  0  0
  9 10  1  0  0  0  0
  9 11  1  0  0  0  0
  9 27  1  0  0  0  0
 10 28  1  0  0  0  0
 10 29  1  0  0  0  0
 10 30  1  0  0  0  0
 11 15  1  0  0  0  0
 11 12  1  0  0  0  0
 12 13  2  0  0  0  0
 12 31  1  0  0  0  0
 13 14  1  0  0  0  0
 13 32  1  0  0  0  0
 14 15  2  0  0  0  0
 14 33  1  0  0  0  0
M  CHG  1   3   1
M  END
> <s_m_source_file>
AV-unprocessed.smi

> <i_m_source_file_index>
3105

> <i_lp_mmshare_version>
43012

> <i_f3d_flags>
0

> <s_epik_input>
W05IMl1DKD1PKVtDSDJdW0NIMl1bTkhdW0NAQEhdKFtDSDNdKVtDQEhdKFtDSDNdKW4xW2NIXVtjSF1bY0hdbjE=

> <s_epik_cmdline>
J2VwaWtfcHl0aG9uJywgJy1waCcsICc3LjAnLCAnLXRuJywgJzgnLCAnLW1hJywgJzIwMCcsICctbWV0YWxfYmluZGluZycsICctaW1hZScsICc8aW5maWxlLm1hZT4nLCAnLW9tYWUnLCAnPG91dGZpbGUubWFlPic=

> <r_lp_tautomer_probability>
1

> <r_epik_Ionization_Penalty>
0.00475669

> <r_epik_Ionization_Penalty_Charging>
0.00474654

> <r_epik_Ionization_Penalty_Neutral>
1.01546e-05

> <r_epik_State_Penalty>
-0

> <r_epik_Charging_Adjusted_Penalty>
0.00474654

> <i_epik_Tot_Q>
1

> <i_epik_Tot_abs_Q>
1

> <r_epik_Metal_State_Penalty>
-0

> <b_epik_Metal_Only>
0

> <s_lp_Force_Field>
OPLS_2005

> <r_lp_Energy>
9.05092

> <b_lp_Chiralities_Consistent>
1

> <s_lp_Variant>
AV-unprocessed.smi:3105-2

> <Gold.Version>
5.8.1

> <Gold.Id.Protein>
6NUR|6NUR_protein|mol2

> <Gold.PLP.Fitness>
44.6938

> <Gold.PLP.PLP>
-34.6490

> <Gold.PLP.part.hbond>
-3.0000

> <Gold.PLP.part.metal>
0.0000

> <Gold.PLP.part.buried>
-4.0746

> <Gold.PLP.part.nonpolar>
-27.4449

> <Gold.PLP.part.repulsive>
0.3146

> <Gold.PLP.ligand.clash>
0.0000

> <Gold.PLP.ligand.torsion>
0.7033

> <Gold.PLP.Chemscore.Hbond>
3.7520

> <Gold.PLP.Chemscore.CHOScore>
0.0000

> <Gold.PLP.Chemscore.Metal>
0.0000

> <Gold.Chemscore.Hbonds>
donor molecule, donor type, donor heavy atom, donor atom, acceptor molecule, acceptor atom, score
      L1  H     3    20       P1  8028  0.69
      L1  H     7    26       P1  7957  0.28

> <Gold.PLP.Chemscore.Internal.Correction>
0.1955

> <Gold.Rescore>
     Score         DG    S(hbond)    S(metal)    S(lipo)     H(rot)  DE(clash)    DE(int)     intcor
     14.82     -16.99       2.79        0.00      81.17       2.85       1.65       0.52       ----

> <Gold.Chemscore.Fitness>
14.8219

> <Gold.Chemscore.DG>
-16.9898

> <Gold.Chemscore.ZeroCoef>
-5.4800

> <Gold.Chemscore.Hbond>
2.7851

> <Gold.Chemscore.Metal>
0.0000

> <Gold.Chemscore.Lipo>
81.1689

> <Gold.Chemscore.Internal_Hbond>
0.0000

> <Gold.Chemscore.DEClash>
1.6468

> <Gold.Chemscore.DEInternal>
0.5211

> <Gold.Chemscore.Rot>
2.8473

> <Gold.Chemscore.Internal.Correction>
   9.000000E+99

> <Gold.Chemscore.Hbonds>
donor molecule, donor type, donor heavy atom, donor atom, acceptor molecule, acceptor atom, score
      L1  H     3    20       P1  8028  0.33
      L1  H     7    26       P1  7957  0.28

> <Gold.Chemscore.Hbond.Weighted>
-9.3022

> <Gold.Chemscore.Metal.Weighted>
-0.0000

> <Gold.Chemscore.Lipo.Weighted>
-9.4968

> <Gold.Chemscore.Internal_Hbond.Weighted>
0.0000

> <Gold.Chemscore.DEClash.Weighted>
1.6468

> <Gold.Chemscore.DEInternal.Weighted>
0.5211

> <Gold.Chemscore.Rot.Weighted>
7.2892

> <Gold.Chemscore.Internal.Correction.Weighted>
   9.000000E+99

> <Gold.Protein.RotatedTorsions>
[ 6907 6896 6895 6894 ] final  101.12 input  -60.11 | X-H torsion
[ 7974 7965 7964 7962 ] final  167.51 input  175.53 | X-H torsion
[ 8008 7997 7996 7995 ] final   15.71 input   59.86 | X-H torsion
[ 10167 10162 10161 10158 ] final  177.62 input  -65.29 | X-H torsion
[ 10718 10713 10712 10709 ] final  136.98 input   66.30 | X-H torsion
[ 10763 10752 10751 10750 ] final   49.46 input  -60.55 | X-H torsion
[ 11005 11000 10999 10996 ] final   -7.66 input  -57.11 | X-H torsion

> <Gold.Protein.ActiveResidues>
 VAL166  LYS551  ARG553  GLY616  TRP617  ASP618  TYR619  PRO620  LYS621  CYS622 
 ASP623  PHE694  ASN695  SER759  ASP760  ASP761  ALA762  ILE779  LEU786  VAL792 
 PHE793  MET794  SER795  GLU796  ALA797  LYS798  CYS799  TRP800  GLU811  SER814 

> <Gold.Protein.RotatedAtoms>
  152.5357  134.0174  159.7965 H   0  0  0  0  0  0  0  0  0  0  0  0  # atno 6907 bound_to 6896
  151.0366  133.5735  159.2662 H   0  0  0  0  0  0  0  0  0  0  0  0  # atno 6908 bound_to 6896
  151.2720  135.0695  159.9191 H   0  0  0  0  0  0  0  0  0  0  0  0  # atno 6909 bound_to 6896
  144.7422  139.8771  143.6393 H   0  0  0  0  0  0  0  0  0  0  0  0  # atno 7974 bound_to 7965
  154.8666  140.2952  155.5507 H   0  0  0  0  0  0  0  0  0  0  0  0  # atno 8008 bound_to 7997
  156.3021  140.2468  156.3581 H   0  0  0  0  0  0  0  0  0  0  0  0  # atno 8009 bound_to 7997
  154.8862  140.0396  157.1801 H   0  0  0  0  0  0  0  0  0  0  0  0  # atno 8010 bound_to 7997
  139.5260  144.2777  152.0574 H   0  0  0  0  0  0  0  0  0  0  0  0  # atno 10167 bound_to 10162
  157.4409  131.1057  151.0144 H   0  0  0  0  0  0  0  0  0  0  0  0  # atno 10718 bound_to 10713
  152.9787  135.5911  154.4093 H   0  0  0  0  0  0  0  0  0  0  0  0  # atno 10763 bound_to 10752
  154.3730  135.2767  155.2257 H   0  0  0  0  0  0  0  0  0  0  0  0  # atno 10764 bound_to 10752
  154.4204  135.6060  153.6061 H   0  0  0  0  0  0  0  0  0  0  0  0  # atno 10765 bound_to 10752
  140.7151  133.8876  155.8779 H   0  0  0  0  0  0  0  0  0  0  0  0  # atno 11005 bound_to 11000
  146.1238  139.4261  143.0211 LP  0  0  0  0  0  0  0  0  0  0  0  0  # atno 17320 bound_to 7965
  145.7265  141.0057  143.1374 LP  0  0  0  0  0  0  0  0  0  0  0  0  # atno 17321 bound_to 7965
  140.2234  144.4443  150.6332 LP  0  0  0  0  0  0  0  0  0  0  0  0  # atno 17342 bound_to 10162
  140.6404  143.2202  151.6303 LP  0  0  0  0  0  0  0  0  0  0  0  0  # atno 17343 bound_to 10162
  157.1007  130.5980  149.5459 LP  0  0  0  0  0  0  0  0  0  0  0  0  # atno 17370 bound_to 10713
  155.9948  130.5013  150.7436 LP  0  0  0  0  0  0  0  0  0  0  0  0  # atno 17371 bound_to 10713
  141.0051  134.1097  157.4278 LP  0  0  0  0  0  0  0  0  0  0  0  0  # atno 17394 bound_to 11000
  139.8862  135.0079  156.6482 LP  0  0  0  0  0  0  0  0  0  0  0  0  # atno 17395 bound_to 11000

$$$$
