AV-unprocessed.smi:1509|AV-procd|sdf|6091|dock6
  -GOLD-   22720 6213D 1   1.00000     0.00000
 Structure written by MMmdl.
 42 43  0  0  0  0  0  0  0  0  2 V2000
  143.6717  137.4282  153.5020 C   0  0  0  0  0  0  0  0  0  0  0  0
  145.1412  136.9771  153.5714 C   0  0  1  0  0  0  0  0  0  0  0  0
  145.6120  136.2774  152.2831 C   0  0  0  0  0  0  0  0  0  0  0  0
  145.8232  137.2876  151.1471 C   0  0  0  0  0  0  0  0  0  0  0  0
  146.7593  138.4242  151.5869 C   0  0  0  0  0  0  0  0  0  0  0  0
  146.2516  139.0978  152.8101 N   0  3  2  0  0  0  0  0  0  0  0  0
  147.0615  140.2896  153.1690 C   0  0  0  0  0  0  0  0  0  0  0  0
  146.9472  140.6553  154.6589 C   0  0  0  0  0  0  0  0  0  0  0  0
  147.6562  141.9804  154.9854 C   0  0  0  0  0  0  0  0  0  0  0  0
  149.0877  141.7937  155.1910 N   0  0  0  0  0  0  0  0  0  0  0  0
  149.6348  140.8691  155.9961 C   0  0  0  0  0  0  0  0  0  0  0  0
  148.9713  140.0896  156.6795 O   0  0  0  0  0  0  0  0  0  0  0  0
  151.1624  140.8137  156.0396 C   0  0  0  0  0  0  0  0  0  0  0  0
  151.6502  139.5110  155.6271 N   0  0  0  0  0  0  0  0  0  0  0  0
  151.0387  138.5024  155.0025 C   0  0  0  0  0  0  0  0  0  0  0  0
  151.8526  137.4739  154.8209 N   0  0  0  0  0  0  0  0  0  0  0  0
  153.0405  137.9099  155.3836 N   0  0  0  0  0  0  0  0  0  0  0  0
  152.9266  139.1179  155.8635 N   0  0  0  0  0  0  0  0  0  0  0  0
  146.0912  138.1371  153.9362 C   0  0  0  0  0  0  0  0  0  0  0  0
  143.5131  138.1882  152.7372 H   0  0  0  0  0  0  0  0  0  0  0  0
  143.3472  137.8484  154.4543 H   0  0  0  0  0  0  0  0  0  0  0  0
  143.0147  136.5879  153.2754 H   0  0  0  0  0  0  0  0  0  0  0  0
  145.1978  136.2437  154.3766 H   0  0  0  0  0  0  0  0  0  0  0  0
  146.5528  135.7611  152.4789 H   0  0  0  0  0  0  0  0  0  0  0  0
  144.9000  135.5087  151.9809 H   0  0  0  0  0  0  0  0  0  0  0  0
  146.2396  136.7812  150.2758 H   0  0  0  0  0  0  0  0  0  0  0  0
  144.8649  137.7002  150.8301 H   0  0  0  0  0  0  0  0  0  0  0  0
  147.7621  138.0363  151.7737 H   0  0  0  0  0  0  0  0  0  0  0  0
  146.8449  139.1470  150.7745 H   0  0  0  0  0  0  0  0  0  0  0  0
  148.1034  140.1295  152.8869 H   0  0  0  0  0  0  0  0  0  0  0  0
  146.7145  141.1460  152.5888 H   0  0  0  0  0  0  0  0  0  0  0  0
  145.8946  140.7296  154.9353 H   0  0  0  0  0  0  0  0  0  0  0  0
  147.3728  139.8631  155.2741 H   0  0  0  0  0  0  0  0  0  0  0  0
  147.4871  142.7102  154.1916 H   0  0  0  0  0  0  0  0  0  0  0  0
  147.2389  142.4119  155.8957 H   0  0  0  0  0  0  0  0  0  0  0  0
  149.7068  142.3964  154.6681 H   0  0  0  0  0  0  0  0  0  0  0  0
  151.5852  141.5753  155.3831 H   0  0  0  0  0  0  0  0  0  0  0  0
  151.5174  141.0254  157.0494 H   0  0  0  0  0  0  0  0  0  0  0  0
  150.0060  138.5200  154.6866 H   0  0  0  0  0  0  0  0  0  0  0  0
  145.7133  138.6428  154.8240 H   0  0  0  0  0  0  0  0  0  0  0  0
  147.0715  137.7387  154.2037 H   0  0  0  0  0  0  0  0  0  0  0  0
  145.3288  139.4375  152.5793 H   0  0  0  0  0  0  0  0  0  0  0  0
  1  2  1  0  0  0  0
  1 20  1  0  0  0  0
  1 21  1  0  0  0  0
  1 22  1  0  0  0  0
  2 19  1  0  0  0  0
  2  3  1  0  0  0  0
  2 23  1  0  0  0  0
  3  4  1  0  0  0  0
  3 24  1  0  0  0  0
  3 25  1  0  0  0  0
  4  5  1  0  0  0  0
  4 26  1  0  0  0  0
  4 27  1  0  0  0  0
  5  6  1  0  0  0  0
  5 28  1  0  0  0  0
  5 29  1  0  0  0  0
  6  7  1  0  0  0  0
  6 19  1  0  0  0  0
  6 42  1  0  0  0  0
  7  8  1  0  0  0  0
  7 30  1  0  0  0  0
  7 31  1  0  0  0  0
  8  9  1  0  0  0  0
  8 32  1  0  0  0  0
  8 33  1  0  0  0  0
  9 10  1  0  0  0  0
  9 34  1  0  0  0  0
  9 35  1  0  0  0  0
 10 11  1  0  0  0  0
 10 36  1  0  0  0  0
 11 12  2  0  0  0  0
 11 13  1  0  0  0  0
 13 14  1  0  0  0  0
 13 37  1  0  0  0  0
 13 38  1  0  0  0  0
 14 18  1  0  0  0  0
 14 15  1  0  0  0  0
 15 16  2  0  0  0  0
 15 39  1  0  0  0  0
 16 17  1  0  0  0  0
 17 18  2  0  0  0  0
 19 40  1  0  0  0  0
 19 41  1  0  0  0  0
M  CHG  1   6   1
M  END
> <s_m_source_file>
AV-unprocessed.smi

> <i_m_source_file_index>
1509

> <i_lp_mmshare_version>
43012

> <i_f3d_flags>
0

> <s_epik_input>
W0NIM11bQ0BASF0xW0NIMl1bQ0gyXVtDSDJdTihbQ0gyXTEpW0NIMl1bQ0gyXVtDSDJdW05IXUMoPU8pW0NIMl1uMltjSF1ubm4y

> <s_epik_cmdline>
J2VwaWtfcHl0aG9uJywgJy1waCcsICc3LjAnLCAnLXRuJywgJzgnLCAnLW1hJywgJzIwMCcsICctbWV0YWxfYmluZGluZycsICctaW1hZScsICc8aW5maWxlLm1hZT4nLCAnLW9tYWUnLCAnPG91dGZpbGUubWFlPic=

> <r_lp_tautomer_probability>
1

> <r_epik_Ionization_Penalty>
0.00044216

> <r_epik_Ionization_Penalty_Charging>
0.000440775

> <r_epik_Ionization_Penalty_Neutral>
1.38512e-06

> <r_epik_State_Penalty>
0.000271914

> <r_epik_Charging_Adjusted_Penalty>
0.000712689

> <i_epik_Tot_Q>
1

> <i_epik_Tot_abs_Q>
1

> <r_epik_Metal_State_Penalty>
-0

> <b_epik_Metal_Only>
0

> <s_lp_Force_Field>
OPLS_2005

> <r_lp_Energy>
22.736

> <b_lp_Chiralities_Consistent>
1

> <s_lp_Variant>
AV-unprocessed.smi:1509-2

> <Gold.Version>
5.8.1

> <Gold.Id.Protein>
6NUR|6NUR_protein|mol2

> <Gold.PLP.Fitness>
39.3005

> <Gold.PLP.PLP>
-31.0530

> <Gold.PLP.part.hbond>
-5.0000

> <Gold.PLP.part.metal>
0.0000

> <Gold.PLP.part.buried>
5.3542

> <Gold.PLP.part.nonpolar>
-31.2387

> <Gold.PLP.part.repulsive>
0.3667

> <Gold.PLP.ligand.clash>
0.0000

> <Gold.PLP.ligand.torsion>
0.6785

> <Gold.PLP.Chemscore.Hbond>
3.1811

> <Gold.PLP.Chemscore.CHOScore>
0.0000

> <Gold.PLP.Chemscore.Metal>
0.0000

> <Gold.Chemscore.Hbonds>
donor molecule, donor type, donor heavy atom, donor atom, acceptor molecule, acceptor atom, score
      L1  H     6    42       P1 10175  2.00
      P1  H  7997  8010       L1    18  1.00
      P1  H 10752 10764       L1    16  0.14

> <Gold.PLP.Chemscore.Internal.Correction>
0.0610

> <Gold.Rescore>
     Score         DG    S(hbond)    S(metal)    S(lipo)     H(rot)  DE(clash)    DE(int)     intcor
      9.37     -12.02       2.00        0.00      63.84       2.97       2.27       0.38       ----

> <Gold.Chemscore.Fitness>
9.3684

> <Gold.Chemscore.DG>
-12.0155

> <Gold.Chemscore.ZeroCoef>
-5.4800

> <Gold.Chemscore.Hbond>
1.9952

> <Gold.Chemscore.Metal>
0.0000

> <Gold.Chemscore.Lipo>
63.8406

> <Gold.Chemscore.Internal_Hbond>
0.0000

> <Gold.Chemscore.DEClash>
2.2694

> <Gold.Chemscore.DEInternal>
0.3776

> <Gold.Chemscore.Rot>
2.9680

> <Gold.Chemscore.Internal.Correction>
   9.000000E+99

> <Gold.Chemscore.Hbonds>
donor molecule, donor type, donor heavy atom, donor atom, acceptor molecule, acceptor atom, score
      L1  H     6    42       P1 10175  0.99
      P1  H  7997  8010       L1    18  0.99

> <Gold.Chemscore.Hbond.Weighted>
-6.6641

> <Gold.Chemscore.Metal.Weighted>
-0.0000

> <Gold.Chemscore.Lipo.Weighted>
-7.4693

> <Gold.Chemscore.Internal_Hbond.Weighted>
0.0000

> <Gold.Chemscore.DEClash.Weighted>
2.2694

> <Gold.Chemscore.DEInternal.Weighted>
0.3776

> <Gold.Chemscore.Rot.Weighted>
7.5980

> <Gold.Chemscore.Internal.Correction.Weighted>
   9.000000E+99

> <Gold.Protein.RotatedTorsions>
[ 6907 6896 6895 6894 ] final  -31.92 input  -60.11 | X-H torsion
[ 7974 7965 7964 7962 ] final -117.25 input  175.53 | X-H torsion
[ 8008 7997 7996 7995 ] final   85.00 input   59.86 | X-H torsion
[ 10167 10162 10161 10158 ] final  -35.14 input  -65.29 | X-H torsion
[ 10718 10713 10712 10709 ] final   38.50 input   66.30 | X-H torsion
[ 10763 10752 10751 10750 ] final  -84.13 input  -60.55 | X-H torsion
[ 11005 11000 10999 10996 ] final  153.38 input  -57.11 | X-H torsion

> <Gold.Protein.ActiveResidues>
 VAL166  LYS551  ARG553  GLY616  TRP617  ASP618  TYR619  PRO620  LYS621  CYS622 
 ASP623  PHE694  ASN695  SER759  ASP760  ASP761  ALA762  ILE779  LEU786  VAL792 
 PHE793  MET794  SER795  GLU796  ALA797  LYS798  CYS799  TRP800  GLU811  SER814 

> <Gold.Protein.RotatedAtoms>
  151.0856  134.9885  159.8377 H   0  0  0  0  0  0  0  0  0  0  0  0  # atno 6907 bound_to 6896
  152.5424  134.2128  159.8766 H   0  0  0  0  0  0  0  0  0  0  0  0  # atno 6908 bound_to 6896
  151.2161  133.4485  159.2633 H   0  0  0  0  0  0  0  0  0  0  0  0  # atno 6909 bound_to 6896
  145.0874  140.8467  143.4003 H   0  0  0  0  0  0  0  0  0  0  0  0  # atno 7974 bound_to 7965
  155.9443  140.3405  155.6354 H   0  0  0  0  0  0  0  0  0  0  0  0  # atno 8008 bound_to 7997
  155.7000  140.0759  157.2432 H   0  0  0  0  0  0  0  0  0  0  0  0  # atno 8009 bound_to 7997
  154.4109  140.1642  156.2168 H   0  0  0  0  0  0  0  0  0  0  0  0  # atno 8010 bound_to 7997
  140.7171  143.3498  151.2180 H   0  0  0  0  0  0  0  0  0  0  0  0  # atno 10167 bound_to 10162
  157.3596  130.7642  149.7038 H   0  0  0  0  0  0  0  0  0  0  0  0  # atno 10718 bound_to 10713
  154.5959  135.5531  153.7325 H   0  0  0  0  0  0  0  0  0  0  0  0  # atno 10763 bound_to 10752
  153.0135  135.6354  154.1783 H   0  0  0  0  0  0  0  0  0  0  0  0  # atno 10764 bound_to 10752
  154.1724  135.2891  155.3057 H   0  0  0  0  0  0  0  0  0  0  0  0  # atno 10765 bound_to 10752
  140.1393  134.8750  157.2309 H   0  0  0  0  0  0  0  0  0  0  0  0  # atno 11005 bound_to 11000
  145.1106  139.2760  143.5639 LP  0  0  0  0  0  0  0  0  0  0  0  0  # atno 17320 bound_to 7965
  146.3531  140.0700  142.8624 LP  0  0  0  0  0  0  0  0  0  0  0  0  # atno 17321 bound_to 7965
  139.7026  143.9508  152.2912 LP  0  0  0  0  0  0  0  0  0  0  0  0  # atno 17342 bound_to 10162
  139.9206  144.6802  150.8465 LP  0  0  0  0  0  0  0  0  0  0  0  0  # atno 17343 bound_to 10162
  155.9735  130.4117  150.3997 LP  0  0  0  0  0  0  0  0  0  0  0  0  # atno 17370 bound_to 10713
  157.2072  131.0452  151.2619 LP  0  0  0  0  0  0  0  0  0  0  0  0  # atno 17371 bound_to 10713
  140.2743  134.3424  155.7363 LP  0  0  0  0  0  0  0  0  0  0  0  0  # atno 17394 bound_to 11000
  141.2183  133.7441  156.9269 LP  0  0  0  0  0  0  0  0  0  0  0  0  # atno 17395 bound_to 11000

$$$$
