AV-unprocessed.smi:2568|AV-procd|sdf|10091|dock3
  -GOLD-   2272014113D 1   1.00000     0.00000
 Structure written by MMmdl.
 24 25  0  0  0  0  0  0  0  0  1 V2000
  151.6624  138.0585  158.8460 C   0  0  0  0  0  0  0  0  0  0  0  0
  152.1338  139.4603  159.0360 C   0  0  0  0  0  0  0  0  0  0  0  0
  153.3497  139.7425  159.5063 N   0  0  0  0  0  0  0  0  0  0  0  0
  153.5058  141.0820  159.5657 N   0  0  0  0  0  0  0  0  0  0  0  0
  152.3251  141.5203  159.1292 C   0  0  0  0  0  0  0  0  0  0  0  0
  152.0565  142.9868  158.9874 C   0  0  1  0  0  0  0  0  0  0  0  0
  150.6639  143.2666  158.3885 C   0  0  0  0  0  0  0  0  0  0  0  0
  150.4039  144.7055  158.3607 N   0  0  0  0  0  0  0  0  0  0  0  0
  150.5624  145.2966  159.6888 C   0  0  0  0  0  0  0  0  0  0  0  0
  151.9523  144.9636  160.2617 C   0  0  0  0  0  0  0  0  0  0  0  0
  152.1309  143.5518  160.2945 O   0  0  0  0  0  0  0  0  0  0  0  0
  151.4281  140.5521  158.7638 N   0  0  0  0  0  0  0  0  0  0  0  0
  154.0709  139.0900  159.7788 H   0  0  0  0  0  0  0  0  0  0  0  0
  150.6210  138.0466  158.5224 H   0  0  0  0  0  0  0  0  0  0  0  0
  151.7422  137.5056  159.7822 H   0  0  0  0  0  0  0  0  0  0  0  0
  152.2682  137.5594  158.0895 H   0  0  0  0  0  0  0  0  0  0  0  0
  152.8337  143.4264  158.3585 H   0  0  0  0  0  0  0  0  0  0  0  0
  150.5974  142.8549  157.3812 H   0  0  0  0  0  0  0  0  0  0  0  0
  149.8996  142.7654  158.9839 H   0  0  0  0  0  0  0  0  0  0  0  0
  149.4617  144.8745  158.0234 H   0  0  0  0  0  0  0  0  0  0  0  0
  150.4277  146.3770  159.6358 H   0  0  0  0  0  0  0  0  0  0  0  0
  149.7901  144.9166  160.3587 H   0  0  0  0  0  0  0  0  0  0  0  0
  152.7416  145.4299  159.6698 H   0  0  0  0  0  0  0  0  0  0  0  0
  152.0425  145.3533  161.2758 H   0  0  0  0  0  0  0  0  0  0  0  0
  1 14  1  0  0  0  0
  1 15  1  0  0  0  0
  1 16  1  0  0  0  0
  1  2  1  0  0  0  0
  2 12  2  0  0  0  0
  2  3  1  0  0  0  0
  3  4  1  0  0  0  0
  3 13  1  0  0  0  0
  4  5  2  0  0  0  0
  5 12  1  0  0  0  0
  5  6  1  0  0  0  0
  6 11  1  0  0  0  0
  6  7  1  0  0  0  0
  6 17  1  0  0  0  0
  7  8  1  0  0  0  0
  7 18  1  0  0  0  0
  7 19  1  0  0  0  0
  8  9  1  0  0  0  0
  8 20  1  0  0  0  0
  9 10  1  0  0  0  0
  9 21  1  0  0  0  0
  9 22  1  0  0  0  0
 10 11  1  0  0  0  0
 10 23  1  0  0  0  0
 10 24  1  0  0  0  0
M  END
> <s_m_source_file>
AV-unprocessed.smi

> <i_m_source_file_index>
2568

> <i_lp_mmshare_version>
43012

> <i_f3d_flags>
0

> <s_epik_input>
W0NIM11jMW5bbkhdYyhuMSlbQ0BASF0yW0NIMl1bTkhdW0NIMl1bQ0gyXU8y

> <s_epik_cmdline>
J2VwaWtfcHl0aG9uJywgJy1waCcsICc3LjAnLCAnLXRuJywgJzgnLCAnLW1hJywgJzIwMCcsICctbWV0YWxfYmluZGluZycsICctaW1hZScsICc8aW5maWxlLm1hZT4nLCAnLW9tYWUnLCAnPG91dGZpbGUubWFlPic=

> <r_epik_Ionization_Penalty>
1.10101

> <r_epik_Ionization_Penalty_Charging>
0

> <r_epik_Ionization_Penalty_Neutral>
1.10101

> <r_epik_State_Penalty>
1.26524

> <r_epik_Charging_Adjusted_Penalty>
1.26524

> <i_epik_Tot_Q>
0

> <i_epik_Tot_abs_Q>
0

> <r_epik_Metal_State_Penalty>
1.56429

> <b_epik_Metal_Only>
0

> <s_lp_Force_Field>
OPLS_2005

> <r_lp_Energy>
12.1745

> <b_lp_Chiralities_Consistent>
1

> <s_lp_Variant>
AV-unprocessed.smi:2568-4

> <Gold.Version>
5.8.1

> <Gold.Id.Protein>
6NUR|6NUR_protein|mol2

> <Gold.PLP.Fitness>
24.1612

> <Gold.PLP.PLP>
-21.6231

> <Gold.PLP.part.hbond>
-1.9162

> <Gold.PLP.part.metal>
0.0000

> <Gold.PLP.part.buried>
-5.2061

> <Gold.PLP.part.nonpolar>
-15.1809

> <Gold.PLP.part.repulsive>
0.1335

> <Gold.PLP.ligand.clash>
0.0000

> <Gold.PLP.ligand.torsion>
0.0123

> <Gold.PLP.Chemscore.Hbond>
0.8500

> <Gold.PLP.Chemscore.CHOScore>
0.0000

> <Gold.PLP.Chemscore.Metal>
0.0000

> <Gold.Chemscore.Hbonds>
donor molecule, donor type, donor heavy atom, donor atom, acceptor molecule, acceptor atom, score
      L1  H     8    20       P1  8029  0.85

> <Gold.PLP.Chemscore.Internal.Correction>
0.0126

> <Gold.Rescore>
     Score         DG    S(hbond)    S(metal)    S(lipo)     H(rot)  DE(clash)    DE(int)     intcor
     10.89     -10.94       0.86        0.00      44.09       1.00       0.04       0.02       ----

> <Gold.Chemscore.Fitness>
10.8881

> <Gold.Chemscore.DG>
-10.9413

> <Gold.Chemscore.ZeroCoef>
-5.4800

> <Gold.Chemscore.Hbond>
0.8572

> <Gold.Chemscore.Metal>
0.0000

> <Gold.Chemscore.Lipo>
44.0890

> <Gold.Chemscore.Internal_Hbond>
0.0000

> <Gold.Chemscore.DEClash>
0.0351

> <Gold.Chemscore.DEInternal>
0.0181

> <Gold.Chemscore.Rot>
1.0000

> <Gold.Chemscore.Internal.Correction>
   9.000000E+99

> <Gold.Chemscore.Hbonds>
donor molecule, donor type, donor heavy atom, donor atom, acceptor molecule, acceptor atom, score
      L1  H     8    20       P1  8029  0.14

> <Gold.Chemscore.Hbond.Weighted>
-2.8629

> <Gold.Chemscore.Metal.Weighted>
-0.0000

> <Gold.Chemscore.Lipo.Weighted>
-5.1584

> <Gold.Chemscore.Internal_Hbond.Weighted>
0.0000

> <Gold.Chemscore.DEClash.Weighted>
0.0351

> <Gold.Chemscore.DEInternal.Weighted>
0.0181

> <Gold.Chemscore.Rot.Weighted>
2.5600

> <Gold.Chemscore.Internal.Correction.Weighted>
   9.000000E+99

> <Gold.Protein.RotatedTorsions>
[ 6907 6896 6895 6894 ] final  -25.25 input  -60.11 | X-H torsion
[ 7974 7965 7964 7962 ] final   94.75 input  175.53 | X-H torsion
[ 8008 7997 7996 7995 ] final   60.51 input   59.86 | X-H torsion
[ 10167 10162 10161 10158 ] final  122.94 input  -65.29 | X-H torsion
[ 10718 10713 10712 10709 ] final -166.86 input   66.30 | X-H torsion
[ 10763 10752 10751 10750 ] final -163.97 input  -60.55 | X-H torsion
[ 11005 11000 10999 10996 ] final  116.55 input  -57.11 | X-H torsion

> <Gold.Protein.ActiveResidues>
 VAL166  LYS551  ARG553  GLY616  TRP617  ASP618  TYR619  PRO620  LYS621  CYS622 
 ASP623  PHE694  ASN695  SER759  ASP760  ASP761  ALA762  ILE779  LEU786  VAL792 
 PHE793  MET794  SER795  GLU796  ALA797  LYS798  CYS799  TRP800  GLU811  SER814 

> <Gold.Protein.RotatedAtoms>
  151.1778  135.0347  159.8779 H   0  0  0  0  0  0  0  0  0  0  0  0  # atno 6907 bound_to 6896
  152.5446  134.1097  159.8363 H   0  0  0  0  0  0  0  0  0  0  0  0  # atno 6908 bound_to 6896
  151.1210  133.5057  159.2634 H   0  0  0  0  0  0  0  0  0  0  0  0  # atno 6909 bound_to 6896
  145.4614  139.2287  143.2985 H   0  0  0  0  0  0  0  0  0  0  0  0  # atno 7974 bound_to 7965
  155.5835  140.3492  155.4547 H   0  0  0  0  0  0  0  0  0  0  0  0  # atno 8008 bound_to 7997
  156.0355  140.1284  157.0237 H   0  0  0  0  0  0  0  0  0  0  0  0  # atno 8009 bound_to 7997
  154.4370  140.1034  156.6147 H   0  0  0  0  0  0  0  0  0  0  0  0  # atno 8010 bound_to 7997
  139.5828  144.6994  151.3484 H   0  0  0  0  0  0  0  0  0  0  0  0  # atno 10167 bound_to 10162
  156.6740  130.9095  151.3048 H   0  0  0  0  0  0  0  0  0  0  0  0  # atno 10718 bound_to 10713
  154.7072  135.2999  154.9252 H   0  0  0  0  0  0  0  0  0  0  0  0  # atno 10763 bound_to 10752
  154.0165  135.6688  153.4773 H   0  0  0  0  0  0  0  0  0  0  0  0  # atno 10764 bound_to 10752
  153.0726  135.5052  154.8250 H   0  0  0  0  0  0  0  0  0  0  0  0  # atno 10765 bound_to 10752
  139.9045  134.9599  156.7216 H   0  0  0  0  0  0  0  0  0  0  0  0  # atno 11005 bound_to 11000
  146.2449  140.5383  142.8918 LP  0  0  0  0  0  0  0  0  0  0  0  0  # atno 17320 bound_to 7965
  144.8001  140.6196  143.6484 LP  0  0  0  0  0  0  0  0  0  0  0  0  # atno 17321 bound_to 7965
  140.7104  143.7404  150.7557 LP  0  0  0  0  0  0  0  0  0  0  0  0  # atno 17342 bound_to 10162
  140.0941  143.4849  152.2462 LP  0  0  0  0  0  0  0  0  0  0  0  0  # atno 17343 bound_to 10162
  157.7067  130.9393  150.0955 LP  0  0  0  0  0  0  0  0  0  0  0  0  # atno 17370 bound_to 10713
  156.1917  130.3655  149.8901 LP  0  0  0  0  0  0  0  0  0  0  0  0  # atno 17371 bound_to 10713
  140.6996  133.9318  155.8016 LP  0  0  0  0  0  0  0  0  0  0  0  0  # atno 17394 bound_to 11000
  141.0381  134.0660  157.3935 LP  0  0  0  0  0  0  0  0  0  0  0  0  # atno 17395 bound_to 11000

$$$$
