AV-unprocessed.smi:911|AV-procd|sdf|4138|dock3
  -GOLD-   22720 2 43D 1   1.00000     0.00000
 Structure written by MMmdl.
 47 49  0  0  0  0  0  0  0  0  3 V2000
  146.2729  134.0949  151.0834 C   0  0  0  0  0  0  0  0  0  0  0  0
  145.1157  135.0418  151.5115 C   0  0  0  0  0  0  0  0  0  0  0  0
  144.3931  135.4206  150.1880 C   0  0  0  0  0  0  0  0  0  0  0  0
  144.1876  134.4602  152.5968 C   0  0  2  0  0  0  0  0  0  0  0  0
  143.2179  135.6238  152.9058 C   0  0  0  0  0  0  0  0  0  0  0  0
  144.1265  136.8632  152.7647 C   0  0  0  0  0  0  0  0  0  0  0  0
  145.5048  136.2403  152.4227 C   0  0  2  0  0  0  0  0  0  0  0  0
  146.4772  137.2653  151.8057 C   0  0  0  0  0  0  0  0  0  0  0  0
  145.9852  135.5806  153.7540 C   0  0  2  0  0  0  0  0  0  0  0  0
  147.4118  135.2699  153.7582 N   0  0  0  0  0  0  0  0  0  0  0  0
  148.0438  134.3510  154.5069 C   0  0  0  0  0  0  0  0  0  0  0  0
  147.4573  133.5841  155.2692 O   0  0  0  0  0  0  0  0  0  0  0  0
  149.5791  134.2949  154.4161 C   0  0  0  0  0  0  0  0  0  0  0  0
  150.2716  135.2700  155.2797 N   0  0  0  0  0  0  0  0  0  0  0  0
  150.1806  136.6240  154.9004 C   0  0  0  0  0  0  0  0  0  0  0  0
  150.8146  137.6016  155.5761 C   0  0  0  0  0  0  0  0  0  0  0  0
  150.7380  138.9810  155.1492 N   0  3  0  0  0  0  0  0  0  0  0  0
  149.7532  139.3467  154.5157 O   0  0  0  0  0  0  0  0  0  0  0  0
  151.6553  139.7443  155.4362 O   0  5  0  0  0  0  0  0  0  0  0  0
  151.5971  137.2208  156.7357 C   0  0  0  0  0  0  0  0  0  0  0  0
  151.6921  135.9272  157.1014 C   0  0  0  0  0  0  0  0  0  0  0  0
  151.0168  134.8624  156.3523 C   0  0  0  0  0  0  0  0  0  0  0  0
  151.1257  133.6765  156.6628 O   0  0  0  0  0  0  0  0  0  0  0  0
  145.1088  134.3106  153.8293 C   0  0  0  0  0  0  0  0  0  0  0  0
  145.8881  133.2588  150.4990 H   0  0  0  0  0  0  0  0  0  0  0  0
  146.8368  133.6489  151.8976 H   0  0  0  0  0  0  0  0  0  0  0  0
  146.9913  134.6193  150.4527 H   0  0  0  0  0  0  0  0  0  0  0  0
  143.5462  136.0942  150.2977 H   0  0  0  0  0  0  0  0  0  0  0  0
  144.0115  134.5285  149.6903 H   0  0  0  0  0  0  0  0  0  0  0  0
  145.0835  135.9023  149.4949 H   0  0  0  0  0  0  0  0  0  0  0  0
  143.6801  133.5350  152.3219 H   0  0  0  0  0  0  0  0  0  0  0  0
  142.3898  135.6570  152.1975 H   0  0  0  0  0  0  0  0  0  0  0  0
  142.7827  135.5458  153.9028 H   0  0  0  0  0  0  0  0  0  0  0  0
  143.7698  137.5228  151.9733 H   0  0  0  0  0  0  0  0  0  0  0  0
  144.1485  137.4617  153.6761 H   0  0  0  0  0  0  0  0  0  0  0  0
  146.7114  138.0564  152.5183 H   0  0  0  0  0  0  0  0  0  0  0  0
  146.0474  137.7361  150.9217 H   0  0  0  0  0  0  0  0  0  0  0  0
  147.4170  136.8033  151.5030 H   0  0  0  0  0  0  0  0  0  0  0  0
  145.7624  136.2255  154.6060 H   0  0  0  0  0  0  0  0  0  0  0  0
  147.9859  135.8465  153.1607 H   0  0  0  0  0  0  0  0  0  0  0  0
  149.8981  133.2857  154.6804 H   0  0  0  0  0  0  0  0  0  0  0  0
  149.8682  134.4164  153.3710 H   0  0  0  0  0  0  0  0  0  0  0  0
  149.5841  136.7997  154.0166 H   0  0  0  0  0  0  0  0  0  0  0  0
  152.1128  137.9695  157.3190 H   0  0  0  0  0  0  0  0  0  0  0  0
  152.2819  135.6658  157.9679 H   0  0  0  0  0  0  0  0  0  0  0  0
  144.5441  134.2613  154.7611 H   0  0  0  0  0  0  0  0  0  0  0  0
  145.6996  133.3956  153.7758 H   0  0  0  0  0  0  0  0  0  0  0  0
  1  2  1  0  0  0  0
  1 25  1  0  0  0  0
  1 26  1  0  0  0  0
  1 27  1  0  0  0  0
  2  7  1  0  0  0  0
  2  3  1  0  0  0  0
  2  4  1  0  0  0  0
  3 28  1  0  0  0  0
  3 29  1  0  0  0  0
  3 30  1  0  0  0  0
  4 24  1  0  0  0  0
  4  5  1  0  0  0  0
  4 31  1  0  0  0  0
  5  6  1  0  0  0  0
  5 32  1  0  0  0  0
  5 33  1  0  0  0  0
  6  7  1  0  0  0  0
  6 34  1  0  0  0  0
  6 35  1  0  0  0  0
  7  8  1  0  0  0  0
  7  9  1  0  0  0  0
  8 36  1  0  0  0  0
  8 37  1  0  0  0  0
  8 38  1  0  0  0  0
  9 10  1  0  0  0  0
  9 24  1  0  0  0  0
  9 39  1  0  0  0  0
 10 11  1  0  0  0  0
 10 40  1  0  0  0  0
 11 12  2  0  0  0  0
 11 13  1  0  0  0  0
 13 14  1  0  0  0  0
 13 41  1  0  0  0  0
 13 42  1  0  0  0  0
 14 22  1  0  0  0  0
 14 15  1  0  0  0  0
 15 16  2  0  0  0  0
 15 43  1  0  0  0  0
 16 17  1  0  0  0  0
 16 20  1  0  0  0  0
 17 18  2  0  0  0  0
 17 19  1  0  0  0  0
 20 21  2  0  0  0  0
 20 44  1  0  0  0  0
 21 22  1  0  0  0  0
 21 45  1  0  0  0  0
 22 23  2  0  0  0  0
 24 46  1  0  0  0  0
 24 47  1  0  0  0  0
M  CHG  1  17   1
M  CHG  1  19  -1
M  END
> <s_m_source_file>
AV-unprocessed.smi

> <i_m_source_file_index>
911

> <i_lp_mmshare_version>
43012

> <i_f3d_flags>
0

> <s_epik_input>
W0NIM11bQ0BdMTJDKFtDSDNdKShbQ0gzXSlbQ0BIXShbQ0gyXVtDSDJdMSlbQ0gyXVtDQEBIXTJbTkhdQyg9TylbQ0gyXW4zW2NIXWMoW04rXSg9TylbTy1dKVtjSF1bY0hdYzM9Tw==

> <s_epik_cmdline>
J2VwaWtfcHl0aG9uJywgJy1waCcsICc3LjAnLCAnLXRuJywgJzgnLCAnLW1hJywgJzIwMCcsICctbWV0YWxfYmluZGluZycsICctaW1hZScsICc8aW5maWxlLm1hZT4nLCAnLW9tYWUnLCAnPG91dGZpbGUubWFlPic=

> <r_lp_tautomer_probability>
1

> <r_epik_Ionization_Penalty>
2.04092e-08

> <r_epik_Ionization_Penalty_Charging>
8.54191e-11

> <r_epik_Ionization_Penalty_Neutral>
2.03238e-08

> <r_epik_State_Penalty>
-0

> <r_epik_Charging_Adjusted_Penalty>
8.54191e-11

> <i_epik_Tot_Q>
0

> <i_epik_Tot_abs_Q>
2

> <r_epik_Metal_State_Penalty>
-0

> <b_epik_Metal_Only>
0

> <s_lp_Force_Field>
OPLS_2005

> <r_lp_Energy>
66.6033

> <b_lp_Chiralities_Consistent>
1

> <s_lp_Variant>
AV-unprocessed.smi:911-3

> <Gold.Version>
5.8.1

> <Gold.Id.Protein>
6NUR|6NUR_protein|mol2

> <Gold.PLP.Fitness>
38.6870

> <Gold.PLP.PLP>
-31.6712

> <Gold.PLP.part.hbond>
-2.4160

> <Gold.PLP.part.metal>
0.0000

> <Gold.PLP.part.buried>
0.0595

> <Gold.PLP.part.nonpolar>
-29.5324

> <Gold.PLP.part.repulsive>
0.9583

> <Gold.PLP.ligand.clash>
0.0000

> <Gold.PLP.ligand.torsion>
1.0078

> <Gold.PLP.Chemscore.Hbond>
2.0000

> <Gold.PLP.Chemscore.CHOScore>
1.0000

> <Gold.PLP.Chemscore.Metal>
0.0000

> <Gold.Chemscore.Hbonds>
donor molecule, donor type, donor heavy atom, donor atom, acceptor molecule, acceptor atom, score
      L1  H    10    40       P1  7948  1.00
      P1  H  7989  7998       L1    19  0.41
      L1  C    15    43       P1  7948  1.00

> <Gold.PLP.Chemscore.Internal.Correction>
0.0314

> <Gold.Rescore>
     Score         DG    S(hbond)    S(metal)    S(lipo)     H(rot)  DE(clash)    DE(int)     intcor
     12.10     -16.01       1.96        0.00      67.47       1.53       1.44       2.47       ----

> <Gold.Chemscore.Fitness>
12.1012

> <Gold.Chemscore.DG>
-16.0092

> <Gold.Chemscore.ZeroCoef>
-5.4800

> <Gold.Chemscore.Hbond>
1.9599

> <Gold.Chemscore.Metal>
0.0000

> <Gold.Chemscore.Lipo>
67.4710

> <Gold.Chemscore.Internal_Hbond>
0.0000

> <Gold.Chemscore.DEClash>
1.4353

> <Gold.Chemscore.DEInternal>
2.4727

> <Gold.Chemscore.Rot>
1.5277

> <Gold.Chemscore.Internal.Correction>
   9.000000E+99

> <Gold.Chemscore.Hbonds>
donor molecule, donor type, donor heavy atom, donor atom, acceptor molecule, acceptor atom, score
      L1  H    10    40       P1  7948  0.99
      P1  H  7989  7998       L1    19  0.07

> <Gold.Chemscore.Hbond.Weighted>
-6.5461

> <Gold.Chemscore.Metal.Weighted>
-0.0000

> <Gold.Chemscore.Lipo.Weighted>
-7.8941

> <Gold.Chemscore.Internal_Hbond.Weighted>
0.0000

> <Gold.Chemscore.DEClash.Weighted>
1.4353

> <Gold.Chemscore.DEInternal.Weighted>
2.4727

> <Gold.Chemscore.Rot.Weighted>
3.9110

> <Gold.Chemscore.Internal.Correction.Weighted>
   9.000000E+99

> <Gold.Protein.RotatedTorsions>
[ 6907 6896 6895 6894 ] final  111.64 input  -60.11 | X-H torsion
[ 7974 7965 7964 7962 ] final    9.51 input  175.53 | X-H torsion
[ 8008 7997 7996 7995 ] final -143.45 input   59.86 | X-H torsion
[ 10167 10162 10161 10158 ] final   32.39 input  -65.29 | X-H torsion
[ 10718 10713 10712 10709 ] final -116.73 input   66.30 | X-H torsion
[ 10763 10752 10751 10750 ] final  122.38 input  -60.55 | X-H torsion
[ 11005 11000 10999 10996 ] final  -64.02 input  -57.11 | X-H torsion

> <Gold.Protein.ActiveResidues>
 VAL166  LYS551  ARG553  GLY616  TRP617  ASP618  TYR619  PRO620  LYS621  CYS622 
 ASP623  PHE694  ASN695  SER759  ASP760  ASP761  ALA762  ILE779  LEU786  VAL792 
 PHE793  MET794  SER795  GLU796  ALA797  LYS798  CYS799  TRP800  GLU811  SER814 

> <Gold.Protein.RotatedAtoms>
  152.4959  133.8629  159.7259 H   0  0  0  0  0  0  0  0  0  0  0  0  # atno 6907 bound_to 6896
  150.9136  133.6958  159.2855 H   0  0  0  0  0  0  0  0  0  0  0  0  # atno 6908 bound_to 6896
  151.4359  135.1019  159.9708 H   0  0  0  0  0  0  0  0  0  0  0  0  # atno 6909 bound_to 6896
  146.2402  139.9773  142.8440 H   0  0  0  0  0  0  0  0  0  0  0  0  # atno 7974 bound_to 7965
  155.5108  140.0583  157.2923 H   0  0  0  0  0  0  0  0  0  0  0  0  # atno 8008 bound_to 7997
  154.4552  140.1969  156.0348 H   0  0  0  0  0  0  0  0  0  0  0  0  # atno 8009 bound_to 7997
  156.0785  140.3250  155.7668 H   0  0  0  0  0  0  0  0  0  0  0  0  # atno 8010 bound_to 7997
  140.4502  144.1059  150.6190 H   0  0  0  0  0  0  0  0  0  0  0  0  # atno 10167 bound_to 10162
  156.0984  130.6151  150.9073 H   0  0  0  0  0  0  0  0  0  0  0  0  # atno 10718 bound_to 10713
  153.6289  135.3399  155.3035 H   0  0  0  0  0  0  0  0  0  0  0  0  # atno 10763 bound_to 10752
  154.8584  135.4291  154.2127 H   0  0  0  0  0  0  0  0  0  0  0  0  # atno 10764 bound_to 10752
  153.3018  135.7025  153.7270 H   0  0  0  0  0  0  0  0  0  0  0  0  # atno 10765 bound_to 10752
  141.1412  133.6660  156.5770 H   0  0  0  0  0  0  0  0  0  0  0  0  # atno 11005 bound_to 11000
  145.1625  140.9680  143.4369 LP  0  0  0  0  0  0  0  0  0  0  0  0  # atno 17320 bound_to 7965
  145.0103  139.3516  143.6123 LP  0  0  0  0  0  0  0  0  0  0  0  0  # atno 17321 bound_to 7965
  140.4215  143.2609  151.9709 LP  0  0  0  0  0  0  0  0  0  0  0  0  # atno 17342 bound_to 10162
  139.4796  144.5826  151.7907 LP  0  0  0  0  0  0  0  0  0  0  0  0  # atno 17343 bound_to 10162
  157.6149  131.0934  150.8728 LP  0  0  0  0  0  0  0  0  0  0  0  0  # atno 17370 bound_to 10713
  156.8861  130.5196  149.5288 LP  0  0  0  0  0  0  0  0  0  0  0  0  # atno 17371 bound_to 10713
  140.3868  134.7475  157.4696 LP  0  0  0  0  0  0  0  0  0  0  0  0  # atno 17394 bound_to 11000
  140.0596  134.6014  155.8764 LP  0  0  0  0  0  0  0  0  0  0  0  0  # atno 17395 bound_to 11000

$$$$
