AV-unprocessed.smi:1715|AV-procd|sdf|6911|dock8
  -GOLD-   22720 8113D 1   1.00000     0.00000
 Structure written by MMmdl.
 40 41  0  0  0  0  0  0  0  0  1 V2000
  151.6232  137.6161  155.9095 C   0  0  0  0  0  0  0  0  0  0  0  0
  151.5663  138.6253  154.7499 C   0  0  1  0  0  0  0  0  0  0  0  0
  150.2749  138.5252  153.9136 C   0  0  0  0  0  0  0  0  0  0  0  0
  149.1079  139.0637  154.6049 N   0  0  0  0  0  0  0  0  0  0  0  0
  147.9122  138.9516  153.7713 C   0  0  0  0  0  0  0  0  0  0  0  0
  146.7756  139.9274  154.1293 C   0  0  0  0  0  0  0  0  0  0  0  0
  145.4691  139.3464  153.8450 N   0  0  0  0  0  0  0  0  0  0  0  0
  145.0862  138.1077  154.1852 C   0  0  0  0  0  0  0  0  0  0  0  0
  145.8095  137.3111  154.7837 O   0  0  0  0  0  0  0  0  0  0  0  0
  143.8269  137.8604  153.7886 N   0  0  0  0  0  0  0  0  0  0  0  0
  143.0862  136.6649  153.9680 C   0  0  0  0  0  0  0  0  0  0  0  0
  141.6697  136.5981  154.0657 C   0  0  0  0  0  0  0  0  0  0  0  0
  141.2545  135.3501  154.2284 N   0  0  0  0  0  0  0  0  0  0  0  0
  142.3922  134.6196  154.2366 N   0  0  0  0  0  0  0  0  0  0  0  0
  143.5319  135.3778  154.0812 C   0  0  0  0  0  0  0  0  0  0  0  0
  149.3877  140.4396  155.0056 C   0  0  0  0  0  0  0  0  0  0  0  0
  150.6445  140.5379  155.8898 C   0  0  2  0  0  0  0  0  0  0  0  0
  150.9940  141.9890  156.2361 C   0  0  0  0  0  0  0  0  0  0  0  0
  151.7564  139.9663  155.2033 O   0  0  0  0  0  0  0  0  0  0  0  0
  142.3750  133.6156  154.3482 H   0  0  0  0  0  0  0  0  0  0  0  0
  151.5928  136.5929  155.5342 H   0  0  0  0  0  0  0  0  0  0  0  0
  150.7868  137.7339  156.5981 H   0  0  0  0  0  0  0  0  0  0  0  0
  152.5450  137.7315  156.4799 H   0  0  0  0  0  0  0  0  0  0  0  0
  152.4081  138.4025  154.0937 H   0  0  0  0  0  0  0  0  0  0  0  0
  150.4212  139.0671  152.9778 H   0  0  0  0  0  0  0  0  0  0  0  0
  150.0994  137.4842  153.6395 H   0  0  0  0  0  0  0  0  0  0  0  0
  148.1828  139.0743  152.7215 H   0  0  0  0  0  0  0  0  0  0  0  0
  147.5210  137.9372  153.8618 H   0  0  0  0  0  0  0  0  0  0  0  0
  146.8374  140.2182  155.1796 H   0  0  0  0  0  0  0  0  0  0  0  0
  146.8529  140.8443  153.5463 H   0  0  0  0  0  0  0  0  0  0  0  0
  144.8088  139.9313  153.3542 H   0  0  0  0  0  0  0  0  0  0  0  0
  143.3468  138.6057  153.3059 H   0  0  0  0  0  0  0  0  0  0  0  0
  140.9443  137.3974  154.0244 H   0  0  0  0  0  0  0  0  0  0  0  0
  144.5195  134.9413  154.0665 H   0  0  0  0  0  0  0  0  0  0  0  0
  149.5143  141.0634  154.1192 H   0  0  0  0  0  0  0  0  0  0  0  0
  148.5446  140.8508  155.5595 H   0  0  0  0  0  0  0  0  0  0  0  0
  150.4773  139.9955  156.8209 H   0  0  0  0  0  0  0  0  0  0  0  0
  150.1820  142.4687  156.7833 H   0  0  0  0  0  0  0  0  0  0  0  0
  151.1843  142.5748  155.3364 H   0  0  0  0  0  0  0  0  0  0  0  0
  151.8873  142.0360  156.8592 H   0  0  0  0  0  0  0  0  0  0  0  0
  1  2  1  0  0  0  0
  1 21  1  0  0  0  0
  1 22  1  0  0  0  0
  1 23  1  0  0  0  0
  2 19  1  0  0  0  0
  2  3  1  0  0  0  0
  2 24  1  0  0  0  0
  3  4  1  0  0  0  0
  3 25  1  0  0  0  0
  3 26  1  0  0  0  0
  4  5  1  0  0  0  0
  4 16  1  0  0  0  0
  5  6  1  0  0  0  0
  5 27  1  0  0  0  0
  5 28  1  0  0  0  0
  6  7  1  0  0  0  0
  6 29  1  0  0  0  0
  6 30  1  0  0  0  0
  7  8  1  0  0  0  0
  7 31  1  0  0  0  0
  8  9  2  0  0  0  0
  8 10  1  0  0  0  0
 10 11  1  0  0  0  0
 10 32  1  0  0  0  0
 11 15  2  0  0  0  0
 11 12  1  0  0  0  0
 12 13  2  0  0  0  0
 12 33  1  0  0  0  0
 13 14  1  0  0  0  0
 14 20  1  0  0  0  0
 14 15  1  0  0  0  0
 15 34  1  0  0  0  0
 16 17  1  0  0  0  0
 16 35  1  0  0  0  0
 16 36  1  0  0  0  0
 17 18  1  0  0  0  0
 17 19  1  0  0  0  0
 17 37  1  0  0  0  0
 18 38  1  0  0  0  0
 18 39  1  0  0  0  0
 18 40  1  0  0  0  0
M  END
> <s_m_source_file>
AV-unprocessed.smi

> <i_m_source_file_index>
1715

> <i_lp_mmshare_version>
43012

> <i_f3d_flags>
0

> <s_epik_input>
W0NIM11bQ0BASF0xW0NIMl1OKFtDSDJdW0NASF0oTzEpW0NIM10pW0NIMl1bQ0gyXVtOSF1DKD1PKVtOSF1jMltjSF1uW25IXVtjSF0y

> <s_epik_cmdline>
J2VwaWtfcHl0aG9uJywgJy1waCcsICc3LjAnLCAnLXRuJywgJzgnLCAnLW1hJywgJzIwMCcsICctbWV0YWxfYmluZGluZycsICctaW1hZScsICc8aW5maWxlLm1hZT4nLCAnLW9tYWUnLCAnPG91dGZpbGUubWFlPic=

> <r_lp_tautomer_probability>
0.5

> <r_epik_Ionization_Penalty>
0.242771

> <r_epik_Ionization_Penalty_Charging>
0

> <r_epik_Ionization_Penalty_Neutral>
0.242771

> <r_epik_State_Penalty>
0.233765

> <r_epik_Charging_Adjusted_Penalty>
0.233765

> <i_epik_Tot_Q>
0

> <i_epik_Tot_abs_Q>
0

> <r_epik_Metal_State_Penalty>
0.233764

> <b_epik_Metal_Only>
0

> <s_lp_Force_Field>
OPLS_2005

> <r_lp_Energy>
25.0708

> <b_lp_Chiralities_Consistent>
1

> <s_lp_Variant>
AV-unprocessed.smi:1715-3

> <Gold.Version>
5.8.1

> <Gold.Id.Protein>
6NUR|6NUR_protein|mol2

> <Gold.PLP.Fitness>
39.8170

> <Gold.PLP.PLP>
-27.3753

> <Gold.PLP.part.hbond>
-5.5176

> <Gold.PLP.part.metal>
0.0000

> <Gold.PLP.part.buried>
-5.6733

> <Gold.PLP.part.nonpolar>
-16.6584

> <Gold.PLP.part.repulsive>
0.3685

> <Gold.PLP.ligand.clash>
0.0000

> <Gold.PLP.ligand.torsion>
0.6943

> <Gold.PLP.Chemscore.Hbond>
4.6068

> <Gold.PLP.Chemscore.CHOScore>
0.0000

> <Gold.PLP.Chemscore.Metal>
0.0000

> <Gold.Chemscore.Hbonds>
donor molecule, donor type, donor heavy atom, donor atom, acceptor molecule, acceptor atom, score
      L1  H     7    31       P1 10175  0.99
      L1  H    10    32       P1 10175  0.86
      L1  H    14    20       P1 10957  1.00
      P1  H  7989  7998       L1    19  0.91
      P1  H 11000 11005       L1    13  0.74

> <Gold.PLP.Chemscore.Internal.Correction>
0.0099

> <Gold.Rescore>
     Score         DG    S(hbond)    S(metal)    S(lipo)     H(rot)  DE(clash)    DE(int)     intcor
     16.83     -19.58       3.23        0.00      63.99       1.63       0.08       2.67       ----

> <Gold.Chemscore.Fitness>
16.8325

> <Gold.Chemscore.DG>
-19.5839

> <Gold.Chemscore.ZeroCoef>
-5.4800

> <Gold.Chemscore.Hbond>
3.2295

> <Gold.Chemscore.Metal>
0.0000

> <Gold.Chemscore.Lipo>
63.9902

> <Gold.Chemscore.Internal_Hbond>
0.0000

> <Gold.Chemscore.DEClash>
0.0770

> <Gold.Chemscore.DEInternal>
2.6744

> <Gold.Chemscore.Rot>
1.6287

> <Gold.Chemscore.Internal.Correction>
   9.000000E+99

> <Gold.Chemscore.Hbonds>
donor molecule, donor type, donor heavy atom, donor atom, acceptor molecule, acceptor atom, score
      L1  H     7    31       P1 10175  0.93
      L1  H    10    32       P1 10175  0.78
      L1  H    14    20       P1 10957  1.00
      P1  H  7989  7998       L1    19  0.07
      P1  H 11000 11005       L1    13  0.16

> <Gold.Chemscore.Hbond.Weighted>
-10.7865

> <Gold.Chemscore.Metal.Weighted>
-0.0000

> <Gold.Chemscore.Lipo.Weighted>
-7.4869

> <Gold.Chemscore.Internal_Hbond.Weighted>
0.0000

> <Gold.Chemscore.DEClash.Weighted>
0.0770

> <Gold.Chemscore.DEInternal.Weighted>
2.6744

> <Gold.Chemscore.Rot.Weighted>
4.1695

> <Gold.Chemscore.Internal.Correction.Weighted>
   9.000000E+99

> <Gold.Protein.RotatedTorsions>
[ 6907 6896 6895 6894 ] final -171.78 input  -60.11 | X-H torsion
[ 7974 7965 7964 7962 ] final  -46.50 input  175.53 | X-H torsion
[ 8008 7997 7996 7995 ] final  175.18 input   59.86 | X-H torsion
[ 10167 10162 10161 10158 ] final  155.55 input  -65.29 | X-H torsion
[ 10718 10713 10712 10709 ] final  149.30 input   66.30 | X-H torsion
[ 10763 10752 10751 10750 ] final  -31.17 input  -60.55 | X-H torsion
[ 11005 11000 10999 10996 ] final   38.17 input  -57.11 | X-H torsion

> <Gold.Protein.ActiveResidues>
 VAL166  LYS551  ARG553  GLY616  TRP617  ASP618  TYR619  PRO620  LYS621  CYS622 
 ASP623  PHE694  ASN695  SER759  ASP760  ASP761  ALA762  ILE779  LEU786  VAL792 
 PHE793  MET794  SER795  GLU796  ALA797  LYS798  CYS799  TRP800  GLU811  SER814 

> <Gold.Protein.RotatedAtoms>
  151.5293  133.3452  159.2915 H   0  0  0  0  0  0  0  0  0  0  0  0  # atno 6907 bound_to 6896
  150.8603  134.7956  159.7089 H   0  0  0  0  0  0  0  0  0  0  0  0  # atno 6908 bound_to 6896
  152.4625  134.5161  159.9820 H   0  0  0  0  0  0  0  0  0  0  0  0  # atno 6909 bound_to 6896
  145.9713  140.7380  142.9409 H   0  0  0  0  0  0  0  0  0  0  0  0  # atno 7974 bound_to 7965
  156.0897  140.1415  156.9608 H   0  0  0  0  0  0  0  0  0  0  0  0  # atno 8008 bound_to 7997
  154.4634  140.0935  156.7002 H   0  0  0  0  0  0  0  0  0  0  0  0  # atno 8009 bound_to 7997
  155.4940  140.3449  155.4362 H   0  0  0  0  0  0  0  0  0  0  0  0  # atno 8010 bound_to 7997
  139.4821  144.5088  151.8056 H   0  0  0  0  0  0  0  0  0  0  0  0  # atno 10167 bound_to 10162
  157.2978  131.0865  151.1413 H   0  0  0  0  0  0  0  0  0  0  0  0  # atno 10718 bound_to 10713
  153.7930  135.6896  153.4868 H   0  0  0  0  0  0  0  0  0  0  0  0  # atno 10763 bound_to 10752
  153.1737  135.4533  154.9935 H   0  0  0  0  0  0  0  0  0  0  0  0  # atno 10764 bound_to 10752
  154.8037  135.3348  154.7424 H   0  0  0  0  0  0  0  0  0  0  0  0  # atno 10765 bound_to 10752
  140.2152  134.3706  155.8030 H   0  0  0  0  0  0  0  0  0  0  0  0  # atno 11005 bound_to 11000
  144.6837  140.2753  143.7300 LP  0  0  0  0  0  0  0  0  0  0  0  0  # atno 17320 bound_to 7965
  145.7902  139.1924  143.2107 LP  0  0  0  0  0  0  0  0  0  0  0  0  # atno 17321 bound_to 7965
  140.4589  144.1749  150.5904 LP  0  0  0  0  0  0  0  0  0  0  0  0  # atno 17342 bound_to 10162
  140.4505  143.2488  151.9354 LP  0  0  0  0  0  0  0  0  0  0  0  0  # atno 17343 bound_to 10162
  157.2784  130.6738  149.6054 LP  0  0  0  0  0  0  0  0  0  0  0  0  # atno 17370 bound_to 10713
  155.9670  130.4457  150.5513 LP  0  0  0  0  0  0  0  0  0  0  0  0  # atno 17371 bound_to 10713
  141.2225  133.7164  156.8485 LP  0  0  0  0  0  0  0  0  0  0  0  0  # atno 17394 bound_to 11000
  140.1908  134.8967  157.3057 LP  0  0  0  0  0  0  0  0  0  0  0  0  # atno 17395 bound_to 11000

$$$$
