AV-unprocessed.smi:728|AV-procd|sdf|3518|dock9
  -GOLD-   22720 0513D 1   1.00000     0.00000
 Structure written by MMmdl.
 39 40  0  0  0  0  0  0  0  0  1 V2000
  146.7048  141.7784  156.0016 C   0  0  0  0  0  0  0  0  0  0  0  0
  147.5494  141.9016  154.7242 C   0  0  0  0  0  0  0  0  0  0  0  0
  146.8182  141.3523  153.4909 C   0  0  0  0  0  0  0  0  0  0  0  0
  148.8996  141.2755  154.8802 C   0  0  0  0  0  0  0  0  0  0  0  0
  149.6921  141.3285  155.9492 N   0  0  0  0  0  0  0  0  0  0  0  0
  150.6970  140.4880  155.5755 C   0  0  0  0  0  0  0  0  0  0  0  0
  151.8766  140.1967  156.4477 C   0  0  0  0  0  0  0  0  0  0  0  0
  151.7050  140.8559  157.8173 C   0  0  0  0  0  0  0  0  0  0  0  0
  151.7264  140.1695  158.8389 O   0  0  0  0  0  0  0  0  0  0  0  0
  151.5299  142.1872  157.8217 N   0  0  0  0  0  0  0  0  0  0  0  0
  151.2981  143.0069  159.0062 C   0  0  0  0  0  0  0  0  0  0  0  0
  151.2201  144.4987  158.6198 C   0  0  0  0  0  0  0  0  0  0  0  0
  151.0641  145.3950  159.8590 C   0  0  0  0  0  0  0  0  0  0  0  0
  152.1898  145.1450  160.8750 C   0  0  0  0  0  0  0  0  0  0  0  0
  152.2629  143.6609  161.2672 C   0  0  0  0  0  0  0  0  0  0  0  0
  152.4248  142.7649  160.0287 C   0  0  0  0  0  0  0  0  0  0  0  0
  150.5652  139.9250  154.3803 N   0  0  0  0  0  0  0  0  0  0  0  0
  149.3412  140.4292  153.9181 O   0  0  0  0  0  0  0  0  0  0  0  0
  147.2165  142.2245  156.8550 H   0  0  0  0  0  0  0  0  0  0  0  0
  146.4995  140.7350  156.2440 H   0  0  0  0  0  0  0  0  0  0  0  0
  145.7471  142.2870  155.8892 H   0  0  0  0  0  0  0  0  0  0  0  0
  147.7126  142.9669  154.5541 H   0  0  0  0  0  0  0  0  0  0  0  0
  147.4024  141.5149  152.5844 H   0  0  0  0  0  0  0  0  0  0  0  0
  145.8537  141.8418  153.3545 H   0  0  0  0  0  0  0  0  0  0  0  0
  146.6382  140.2805  153.5824 H   0  0  0  0  0  0  0  0  0  0  0  0
  151.9934  139.1183  156.5672 H   0  0  0  0  0  0  0  0  0  0  0  0
  152.7862  140.5637  155.9704 H   0  0  0  0  0  0  0  0  0  0  0  0
  151.5258  142.6646  156.9319 H   0  0  0  0  0  0  0  0  0  0  0  0
  150.3537  142.7112  159.4674 H   0  0  0  0  0  0  0  0  0  0  0  0
  152.1216  144.7870  158.0767 H   0  0  0  0  0  0  0  0  0  0  0  0
  150.3839  144.6687  157.9403 H   0  0  0  0  0  0  0  0  0  0  0  0
  151.0585  146.4438  159.5606 H   0  0  0  0  0  0  0  0  0  0  0  0
  150.0988  145.2021  160.3286 H   0  0  0  0  0  0  0  0  0  0  0  0
  153.1438  145.4580  160.4488 H   0  0  0  0  0  0  0  0  0  0  0  0
  152.0316  145.7573  161.7633 H   0  0  0  0  0  0  0  0  0  0  0  0
  153.0934  143.4987  161.9549 H   0  0  0  0  0  0  0  0  0  0  0  0
  151.3566  143.3801  161.8053 H   0  0  0  0  0  0  0  0  0  0  0  0
  152.4355  141.7175  160.3325 H   0  0  0  0  0  0  0  0  0  0  0  0
  153.3931  142.9621  159.5661 H   0  0  0  0  0  0  0  0  0  0  0  0
  1  2  1  0  0  0  0
  1 19  1  0  0  0  0
  1 20  1  0  0  0  0
  1 21  1  0  0  0  0
  2  3  1  0  0  0  0
  2  4  1  0  0  0  0
  2 22  1  0  0  0  0
  3 23  1  0  0  0  0
  3 24  1  0  0  0  0
  3 25  1  0  0  0  0
  4 18  1  0  0  0  0
  4  5  2  0  0  0  0
  5  6  1  0  0  0  0
  6  7  1  0  0  0  0
  6 17  2  0  0  0  0
  7  8  1  0  0  0  0
  7 26  1  0  0  0  0
  7 27  1  0  0  0  0
  8  9  2  0  0  0  0
  8 10  1  0  0  0  0
 10 11  1  0  0  0  0
 10 28  1  0  0  0  0
 11 16  1  0  0  0  0
 11 12  1  0  0  0  0
 11 29  1  0  0  0  0
 12 13  1  0  0  0  0
 12 30  1  0  0  0  0
 12 31  1  0  0  0  0
 13 14  1  0  0  0  0
 13 32  1  0  0  0  0
 13 33  1  0  0  0  0
 14 15  1  0  0  0  0
 14 34  1  0  0  0  0
 14 35  1  0  0  0  0
 15 16  1  0  0  0  0
 15 36  1  0  0  0  0
 15 37  1  0  0  0  0
 16 38  1  0  0  0  0
 16 39  1  0  0  0  0
 17 18  1  0  0  0  0
M  END
> <s_m_source_file>
AV-unprocessed.smi

> <i_m_source_file_index>
728

> <i_lp_mmshare_version>
43012

> <i_f3d_flags>
0

> <s_epik_input>
W0NIM11bQ0hdKFtDSDNdKWMxbmMobm8xKVtDSDJdQyg9TylbTkhdW0NIXTJbQ0gyXVtDSDJdW0NIMl1bQ0gyXVtDSDJdMg==

> <s_epik_cmdline>
J2VwaWtfcHl0aG9uJywgJy1waCcsICc3LjAnLCAnLXRuJywgJzgnLCAnLW1hJywgJzIwMCcsICctbWV0YWxfYmluZGluZycsICctaW1hZScsICc8aW5maWxlLm1hZT4nLCAnLW9tYWUnLCAnPG91dGZpbGUubWFlPic=

> <r_lp_tautomer_probability>
1

> <r_epik_Ionization_Penalty>
6.23623e-08

> <r_epik_Ionization_Penalty_Charging>
0

> <r_epik_Ionization_Penalty_Neutral>
6.23623e-08

> <r_epik_State_Penalty>
-0

> <r_epik_Charging_Adjusted_Penalty>
0

> <i_epik_Tot_Q>
0

> <i_epik_Tot_abs_Q>
0

> <r_epik_Metal_State_Penalty>
-0

> <b_epik_Metal_Only>
0

> <s_lp_Force_Field>
OPLS_2005

> <r_lp_Energy>
7.21718

> <b_lp_Chiralities_Consistent>
1

> <s_lp_Variant>
AV-unprocessed.smi:728-1

> <Gold.Version>
5.8.1

> <Gold.Id.Protein>
6NUR|6NUR_protein|mol2

> <Gold.PLP.Fitness>
39.2647

> <Gold.PLP.PLP>
-36.8406

> <Gold.PLP.part.hbond>
-1.8873

> <Gold.PLP.part.metal>
0.0000

> <Gold.PLP.part.buried>
-6.0673

> <Gold.PLP.part.nonpolar>
-31.8321

> <Gold.PLP.part.repulsive>
2.5615

> <Gold.PLP.ligand.clash>
0.0000

> <Gold.PLP.ligand.torsion>
0.3454

> <Gold.PLP.Chemscore.Hbond>
1.0000

> <Gold.PLP.Chemscore.CHOScore>
0.0000

> <Gold.PLP.Chemscore.Metal>
0.0000

> <Gold.Chemscore.Hbonds>
donor molecule, donor type, donor heavy atom, donor atom, acceptor molecule, acceptor atom, score
      P1  H  7989  7998       L1    17  1.00

> <Gold.PLP.Chemscore.Internal.Correction>
0.1148

> <Gold.Rescore>
     Score         DG    S(hbond)    S(metal)    S(lipo)     H(rot)  DE(clash)    DE(int)     intcor
      9.13     -12.53       0.21        0.00      90.10       1.63       1.82       1.58       ----

> <Gold.Chemscore.Fitness>
9.1255

> <Gold.Chemscore.DG>
-12.5339

> <Gold.Chemscore.ZeroCoef>
-5.4800

> <Gold.Chemscore.Hbond>
0.2072

> <Gold.Chemscore.Metal>
0.0000

> <Gold.Chemscore.Lipo>
90.1017

> <Gold.Chemscore.Internal_Hbond>
0.0000

> <Gold.Chemscore.DEClash>
1.8238

> <Gold.Chemscore.DEInternal>
1.5845

> <Gold.Chemscore.Rot>
1.6329

> <Gold.Chemscore.Internal.Correction>
   9.000000E+99

> <Gold.Chemscore.Hbonds>
donor molecule, donor type, donor heavy atom, donor atom, acceptor molecule, acceptor atom, score
      P1  H  7989  7998       L1    17  0.07

> <Gold.Chemscore.Hbond.Weighted>
-0.6922

> <Gold.Chemscore.Metal.Weighted>
-0.0000

> <Gold.Chemscore.Lipo.Weighted>
-10.5419

> <Gold.Chemscore.Internal_Hbond.Weighted>
0.0000

> <Gold.Chemscore.DEClash.Weighted>
1.8238

> <Gold.Chemscore.DEInternal.Weighted>
1.5845

> <Gold.Chemscore.Rot.Weighted>
4.1802

> <Gold.Chemscore.Internal.Correction.Weighted>
   9.000000E+99

> <Gold.Protein.RotatedTorsions>
[ 6907 6896 6895 6894 ] final    1.03 input  -60.11 | X-H torsion
[ 7974 7965 7964 7962 ] final  -52.16 input  175.53 | X-H torsion
[ 8008 7997 7996 7995 ] final  146.40 input   59.86 | X-H torsion
[ 10167 10162 10161 10158 ] final -146.69 input  -65.29 | X-H torsion
[ 10718 10713 10712 10709 ] final -128.44 input   66.30 | X-H torsion
[ 10763 10752 10751 10750 ] final -140.19 input  -60.55 | X-H torsion
[ 11005 11000 10999 10996 ] final  156.19 input  -57.11 | X-H torsion

> <Gold.Protein.ActiveResidues>
 VAL166  LYS551  ARG553  GLY616  TRP617  ASP618  TYR619  PRO620  LYS621  CYS622 
 ASP623  PHE694  ASN695  SER759  ASP760  ASP761  ALA762  ILE779  LEU786  VAL792 
 PHE793  MET794  SER795  GLU796  ALA797  LYS798  CYS799  TRP800  GLU811  SER814 

> <Gold.Protein.RotatedAtoms>
  151.5861  135.1056  160.0028 H   0  0  0  0  0  0  0  0  0  0  0  0  # atno 6907 bound_to 6896
  152.4330  133.7306  159.6596 H   0  0  0  0  0  0  0  0  0  0  0  0  # atno 6908 bound_to 6896
  150.8224  133.8159  159.3156 H   0  0  0  0  0  0  0  0  0  0  0  0  # atno 6909 bound_to 6896
  145.9110  140.7915  142.9695 H   0  0  0  0  0  0  0  0  0  0  0  0  # atno 7974 bound_to 7965
  156.2856  140.2183  156.5371 H   0  0  0  0  0  0  0  0  0  0  0  0  # atno 8008 bound_to 7997
  154.7400  140.0488  157.0825 H   0  0  0  0  0  0  0  0  0  0  0  0  # atno 8009 bound_to 7997
  155.0242  140.3127  155.4785 H   0  0  0  0  0  0  0  0  0  0  0  0  # atno 8010 bound_to 7997
  139.7690  143.8265  152.2621 H   0  0  0  0  0  0  0  0  0  0  0  0  # atno 10167 bound_to 10162
  156.1951  130.6820  151.0471 H   0  0  0  0  0  0  0  0  0  0  0  0  # atno 10718 bound_to 10713
  154.8586  135.3560  154.5668 H   0  0  0  0  0  0  0  0  0  0  0  0  # atno 10763 bound_to 10752
  153.6282  135.7003  153.5290 H   0  0  0  0  0  0  0  0  0  0  0  0  # atno 10764 bound_to 10752
  153.3072  135.4189  155.1264 H   0  0  0  0  0  0  0  0  0  0  0  0  # atno 10765 bound_to 10752
  140.1651  134.8582  157.2622 H   0  0  0  0  0  0  0  0  0  0  0  0  # atno 11005 bound_to 11000
  144.6743  140.1826  143.7404 LP  0  0  0  0  0  0  0  0  0  0  0  0  # atno 17320 bound_to 7965
  145.8671  139.2253  143.1682 LP  0  0  0  0  0  0  0  0  0  0  0  0  # atno 17321 bound_to 7965
  139.8294  144.7260  150.9470 LP  0  0  0  0  0  0  0  0  0  0  0  0  # atno 17342 bound_to 10162
  140.7813  143.4084  151.1032 LP  0  0  0  0  0  0  0  0  0  0  0  0  # atno 17343 bound_to 10162
  157.6952  131.0796  150.6989 LP  0  0  0  0  0  0  0  0  0  0  0  0  # atno 17370 bound_to 10713
  156.7046  130.4633  149.5563 LP  0  0  0  0  0  0  0  0  0  0  0  0  # atno 17371 bound_to 10713
  140.2443  134.3758  155.7468 LP  0  0  0  0  0  0  0  0  0  0  0  0  # atno 17394 bound_to 11000
  141.2213  133.7282  156.8837 LP  0  0  0  0  0  0  0  0  0  0  0  0  # atno 17395 bound_to 11000

$$$$
