AV-unprocessed.smi:1757|AV-procd|sdf|7078|dock4
  -GOLD-   22720 8293D 1   1.00000     0.00000
 Structure written by MMmdl.
 39 40  0  0  0  0  0  0  0  0  3 V2000
  146.9892  136.8902  154.5398 C   0  0  0  0  0  0  0  0  0  0  0  0
  148.4554  136.9844  154.3719 N   0  3  2  0  0  0  0  0  0  0  0  0
  149.1904  136.1258  155.3338 C   0  0  0  0  0  0  0  0  0  0  0  0
  150.7048  136.1466  155.0537 C   0  0  0  0  0  0  0  0  0  0  0  0
  151.2711  137.5778  155.0456 C   0  0  2  0  0  0  0  0  0  0  0  0
  151.2975  138.1238  156.4019 N   0  0  0  0  0  0  0  0  0  0  0  0
  151.8566  139.2889  156.7601 C   0  0  0  0  0  0  0  0  0  0  0  0
  152.4137  140.0404  155.9607 O   0  0  0  0  0  0  0  0  0  0  0  0
  151.6975  139.5083  158.0776 N   0  0  0  0  0  0  0  0  0  0  0  0
  152.1264  140.5923  158.8627 C   0  0  0  0  0  0  0  0  0  0  0  0
  151.7443  141.8869  158.6807 C   0  0  0  0  0  0  0  0  0  0  0  0
  152.2338  142.9702  159.5241 C   0  0  0  0  0  0  0  0  0  0  0  0
  151.7535  144.4065  159.4152 C   0  0  0  0  0  0  0  0  0  0  0  0
  152.1590  144.9618  158.2731 F   0  0  0  0  0  0  0  0  0  0  0  0
  150.4221  144.4432  159.4449 F   0  0  0  0  0  0  0  0  0  0  0  0
  152.2127  145.1428  160.4272 F   0  0  0  0  0  0  0  0  0  0  0  0
  153.1006  142.5230  160.5022 C   0  0  0  0  0  0  0  0  0  0  0  0
  153.5503  141.2699  160.7321 N   0  5  0  0  0  0  0  0  0  0  0  0
  153.0854  140.2644  159.9381 C   0  0  0  0  0  0  0  0  0  0  0  0
  153.4465  139.0976  160.0977 O   0  0  0  0  0  0  0  0  0  0  0  0
  150.4431  138.4591  154.0875 C   0  0  0  0  0  0  0  0  0  0  0  0
  148.9375  138.3876  154.3968 C   0  0  0  0  0  0  0  0  0  0  0  0
  146.6827  137.2613  155.5187 H   0  0  0  0  0  0  0  0  0  0  0  0
  146.6567  135.8558  154.4455 H   0  0  0  0  0  0  0  0  0  0  0  0
  146.4758  137.4749  153.7756 H   0  0  0  0  0  0  0  0  0  0  0  0
  148.9879  136.4611  156.3523 H   0  0  0  0  0  0  0  0  0  0  0  0
  148.8240  135.1011  155.2610 H   0  0  0  0  0  0  0  0  0  0  0  0
  151.2309  135.5348  155.7878 H   0  0  0  0  0  0  0  0  0  0  0  0
  150.8928  135.6829  154.0841 H   0  0  0  0  0  0  0  0  0  0  0  0
  152.3000  137.5331  154.6833 H   0  0  0  0  0  0  0  0  0  0  0  0
  150.8648  137.5695  157.1264 H   0  0  0  0  0  0  0  0  0  0  0  0
  151.1631  138.8193  158.5867 H   0  0  0  0  0  0  0  0  0  0  0  0
  151.0725  142.1604  157.8842 H   0  0  0  0  0  0  0  0  0  0  0  0
  153.4868  143.2871  161.2102 H   0  0  0  0  0  0  0  0  0  0  0  0
  150.7832  139.4947  154.1234 H   0  0  0  0  0  0  0  0  0  0  0  0
  150.6112  138.1252  153.0629 H   0  0  0  0  0  0  0  0  0  0  0  0
  148.3887  138.9752  153.6596 H   0  0  0  0  0  0  0  0  0  0  0  0
  148.7286  138.8310  155.3718 H   0  0  0  0  0  0  0  0  0  0  0  0
  148.6611  136.6257  153.4501 H   0  0  0  0  0  0  0  0  0  0  0  0
  1  2  1  0  0  0  0
  1 23  1  0  0  0  0
  1 24  1  0  0  0  0
  1 25  1  0  0  0  0
  2 22  1  0  0  0  0
  2  3  1  0  0  0  0
  2 39  1  0  0  0  0
  3  4  1  0  0  0  0
  3 26  1  0  0  0  0
  3 27  1  0  0  0  0
  4  5  1  0  0  0  0
  4 28  1  0  0  0  0
  4 29  1  0  0  0  0
  5  6  1  0  0  0  0
  5 21  1  0  0  0  0
  5 30  1  0  0  0  0
  6  7  1  0  0  0  0
  6 31  1  0  0  0  0
  7  8  2  0  0  0  0
  7  9  1  0  0  0  0
  9 10  1  0  0  0  0
  9 32  1  0  0  0  0
 10 19  1  0  0  0  0
 10 11  2  0  0  0  0
 11 12  1  0  0  0  0
 11 33  1  0  0  0  0
 12 13  1  0  0  0  0
 12 17  2  0  0  0  0
 13 14  1  0  0  0  0
 13 15  1  0  0  0  0
 13 16  1  0  0  0  0
 17 18  1  0  0  0  0
 17 34  1  0  0  0  0
 18 19  1  0  0  0  0
 19 20  2  0  0  0  0
 21 22  1  0  0  0  0
 21 35  1  0  0  0  0
 21 36  1  0  0  0  0
 22 37  1  0  0  0  0
 22 38  1  0  0  0  0
M  CHG  1   2   1
M  CHG  1  18  -1
M  END
> <s_m_source_file>
AV-unprocessed.smi

> <i_m_source_file_index>
1757

> <i_lp_mmshare_version>
43012

> <i_f3d_flags>
0

> <s_epik_input>
W0NIM11OMVtDSDJdW0NIMl1bQ0hdKFtDSDJdW0NIMl0xKVtOSF1DKD1PKVtOSF1jMltjSF1jKEMoRikoRilGKVtjSF1bbkhdYzI9Tw==

> <s_epik_cmdline>
J2VwaWtfcHl0aG9uJywgJy1waCcsICc3LjAnLCAnLXRuJywgJzgnLCAnLW1hJywgJzIwMCcsICctbWV0YWxfYmluZGluZycsICctaW1hZScsICc8aW5maWxlLm1hZT4nLCAnLW9tYWUnLCAnPG91dGZpbGUubWFlPic=

> <r_lp_tautomer_probability>
1

> <r_epik_Ionization_Penalty>
3.04759

> <r_epik_Ionization_Penalty_Charging>
0.155898

> <r_epik_Ionization_Penalty_Neutral>
2.89169

> <r_epik_State_Penalty>
2.88714

> <r_epik_Charging_Adjusted_Penalty>
3.04304

> <i_epik_Tot_Q>
0

> <i_epik_Tot_abs_Q>
2

> <r_epik_Metal_State_Penalty>
0.445786

> <b_epik_Metal_Only>
1

> <s_lp_Force_Field>
OPLS_2005

> <r_lp_Energy>
26.2534

> <b_lp_Chiralities_Consistent>
1

> <s_lp_Variant>
AV-unprocessed.smi:1757-4

> <Gold.Version>
5.8.1

> <Gold.Id.Protein>
6NUR|6NUR_protein|mol2

> <Gold.PLP.Fitness>
49.1548

> <Gold.PLP.PLP>
-41.7203

> <Gold.PLP.part.hbond>
-2.0000

> <Gold.PLP.part.metal>
0.0000

> <Gold.PLP.part.buried>
-6.5277

> <Gold.PLP.part.nonpolar>
-33.6506

> <Gold.PLP.part.repulsive>
0.1238

> <Gold.PLP.ligand.clash>
0.0000

> <Gold.PLP.ligand.torsion>
0.7489

> <Gold.PLP.Chemscore.Hbond>
2.9600

> <Gold.PLP.Chemscore.CHOScore>
0.0000

> <Gold.PLP.Chemscore.Metal>
0.0000

> <Gold.Chemscore.Hbonds>
donor molecule, donor type, donor heavy atom, donor atom, acceptor molecule, acceptor atom, score
      L1  H     2    39       P1  7948  2.00
      P1  H  7997  8010       L1     8  0.96

> <Gold.PLP.Chemscore.Internal.Correction>
0.0524

> <Gold.Rescore>
     Score         DG    S(hbond)    S(metal)    S(lipo)     H(rot)  DE(clash)    DE(int)     intcor
     17.69     -18.58       1.99        0.00      77.01       1.00       0.09       0.80       ----

> <Gold.Chemscore.Fitness>
17.6901

> <Gold.Chemscore.DG>
-18.5796

> <Gold.Chemscore.ZeroCoef>
-5.4800

> <Gold.Chemscore.Hbond>
1.9908

> <Gold.Chemscore.Metal>
0.0000

> <Gold.Chemscore.Lipo>
77.0119

> <Gold.Chemscore.Internal_Hbond>
0.0000

> <Gold.Chemscore.DEClash>
0.0875

> <Gold.Chemscore.DEInternal>
0.8020

> <Gold.Chemscore.Rot>
1.0000

> <Gold.Chemscore.Internal.Correction>
   9.000000E+99

> <Gold.Chemscore.Hbonds>
donor molecule, donor type, donor heavy atom, donor atom, acceptor molecule, acceptor atom, score
      L1  H     2    39       P1  7948  1.00
      P1  H  7997  8010       L1     8  0.48

> <Gold.Chemscore.Hbond.Weighted>
-6.6492

> <Gold.Chemscore.Metal.Weighted>
-0.0000

> <Gold.Chemscore.Lipo.Weighted>
-9.0104

> <Gold.Chemscore.Internal_Hbond.Weighted>
0.0000

> <Gold.Chemscore.DEClash.Weighted>
0.0875

> <Gold.Chemscore.DEInternal.Weighted>
0.8020

> <Gold.Chemscore.Rot.Weighted>
2.5600

> <Gold.Chemscore.Internal.Correction.Weighted>
   9.000000E+99

> <Gold.Protein.RotatedTorsions>
[ 6907 6896 6895 6894 ] final  156.54 input  -60.11 | X-H torsion
[ 7974 7965 7964 7962 ] final -140.02 input  175.53 | X-H torsion
[ 8008 7997 7996 7995 ] final   65.28 input   59.86 | X-H torsion
[ 10167 10162 10161 10158 ] final  163.99 input  -65.29 | X-H torsion
[ 10718 10713 10712 10709 ] final  114.21 input   66.30 | X-H torsion
[ 10763 10752 10751 10750 ] final  -39.57 input  -60.55 | X-H torsion
[ 11005 11000 10999 10996 ] final  118.75 input  -57.11 | X-H torsion

> <Gold.Protein.ActiveResidues>
 VAL166  LYS551  ARG553  GLY616  TRP617  ASP618  TYR619  PRO620  LYS621  CYS622 
 ASP623  PHE694  ASN695  SER759  ASP760  ASP761  ALA762  ILE779  LEU786  VAL792 
 PHE793  MET794  SER795  GLU796  ALA797  LYS798  CYS799  TRP800  GLU811  SER814 

> <Gold.Protein.RotatedAtoms>
  152.0282  133.3926  159.4286 H   0  0  0  0  0  0  0  0  0  0  0  0  # atno 6907 bound_to 6896
  150.6884  134.3550  159.4935 H   0  0  0  0  0  0  0  0  0  0  0  0  # atno 6908 bound_to 6896
  152.1333  134.9118  160.0608 H   0  0  0  0  0  0  0  0  0  0  0  0  # atno 6909 bound_to 6896
  144.8630  140.6249  143.5316 H   0  0  0  0  0  0  0  0  0  0  0  0  # atno 7974 bound_to 7965
  155.6592  140.3497  155.4776 H   0  0  0  0  0  0  0  0  0  0  0  0  # atno 8008 bound_to 7997
  155.9782  140.1169  157.0773 H   0  0  0  0  0  0  0  0  0  0  0  0  # atno 8009 bound_to 7997
  154.4184  140.1143  156.5386 H   0  0  0  0  0  0  0  0  0  0  0  0  # atno 8010 bound_to 7997
  139.4882  144.4280  151.9105 H   0  0  0  0  0  0  0  0  0  0  0  0  # atno 10167 bound_to 10162
  157.6294  131.0995  150.7153 H   0  0  0  0  0  0  0  0  0  0  0  0  # atno 10718 bound_to 10713
  153.9317  135.6771  153.4745 H   0  0  0  0  0  0  0  0  0  0  0  0  # atno 10763 bound_to 10752
  153.0976  135.4843  154.8805 H   0  0  0  0  0  0  0  0  0  0  0  0  # atno 10764 bound_to 10752
  154.7425  135.3164  154.8661 H   0  0  0  0  0  0  0  0  0  0  0  0  # atno 10765 bound_to 10752
  139.9121  134.9623  156.7551 H   0  0  0  0  0  0  0  0  0  0  0  0  # atno 11005 bound_to 11000
  145.4275  139.1554  143.4040 LP  0  0  0  0  0  0  0  0  0  0  0  0  # atno 17320 bound_to 7965
  146.2875  140.4389  142.8752 LP  0  0  0  0  0  0  0  0  0  0  0  0  # atno 17321 bound_to 7965
  140.3727  144.2835  150.5918 LP  0  0  0  0  0  0  0  0  0  0  0  0  # atno 17342 bound_to 10162
  140.5304  143.2244  151.8247 LP  0  0  0  0  0  0  0  0  0  0  0  0  # atno 17343 bound_to 10162
  156.7495  130.4764  149.5459 LP  0  0  0  0  0  0  0  0  0  0  0  0  # atno 17370 bound_to 10713
  156.1487  130.6295  151.0567 LP  0  0  0  0  0  0  0  0  0  0  0  0  # atno 17371 bound_to 10713
  140.6742  133.9532  155.7874 LP  0  0  0  0  0  0  0  0  0  0  0  0  # atno 17394 bound_to 11000
  141.0556  134.0422  157.3727 LP  0  0  0  0  0  0  0  0  0  0  0  0  # atno 17395 bound_to 11000

$$$$
