AV-unprocessed.smi:1012|AV-procd|sdf|4422|dock1
  -GOLD-   22720 2373D 1   1.00000     0.00000
 Structure written by MMmdl.
 43 45  0  0  0  0  0  0  0  0  1 V2000
  151.2403  144.7928  158.2796 C   0  0  0  0  0  0  0  0  0  0  0  0
  151.1797  143.3949  158.0368 O   0  0  0  0  0  0  0  0  0  0  0  0
  151.9391  142.5550  158.8265 C   0  0  0  0  0  0  0  0  0  0  0  0
  152.5180  142.9592  160.0576 C   0  0  0  0  0  0  0  0  0  0  0  0
  153.2837  142.0594  160.8228 C   0  0  0  0  0  0  0  0  0  0  0  0
  153.4825  140.7432  160.3722 C   0  0  0  0  0  0  0  0  0  0  0  0
  152.9145  140.3293  159.1546 C   0  0  0  0  0  0  0  0  0  0  0  0
  152.1486  141.2257  158.3796 C   0  0  0  0  0  0  0  0  0  0  0  0
  151.5502  140.7206  157.0766 C   0  0  0  0  0  0  0  0  0  0  0  0
  150.1915  141.1060  156.9499 O   0  0  0  0  0  0  0  0  0  0  0  0
  149.8887  141.6513  155.6763 C   0  0  0  0  0  0  0  0  0  0  0  0
  149.2160  140.5710  154.8176 C   0  0  2  0  0  0  0  0  0  0  0  0
  150.1889  140.0015  153.9642 O   0  0  0  0  0  0  0  0  0  0  0  0
  148.0470  141.1250  153.9801 C   0  0  0  0  0  0  0  0  0  0  0  0
  146.9191  141.5208  154.8034 N   0  0  0  0  0  0  0  0  0  0  0  0
  146.6001  141.0600  156.0282 C   0  0  0  0  0  0  0  0  0  0  0  0
  145.5156  141.5684  156.6067 N   0  0  0  0  0  0  0  0  0  0  0  0
  145.0798  142.4642  155.6452 C   0  0  0  0  0  0  0  0  0  0  0  0
  143.9670  143.3352  155.6396 C   0  0  0  0  0  0  0  0  0  0  0  0
  143.7180  144.1699  154.5301 C   0  0  0  0  0  0  0  0  0  0  0  0
  142.6471  144.9987  154.5411 F   0  0  0  0  0  0  0  0  0  0  0  0
  144.5768  144.1462  153.4108 C   0  0  0  0  0  0  0  0  0  0  0  0
  144.3297  144.9504  152.3497 F   0  0  0  0  0  0  0  0  0  0  0  0
  145.6923  143.2871  153.3942 C   0  0  0  0  0  0  0  0  0  0  0  0
  145.9362  142.4567  154.5034 C   0  0  0  0  0  0  0  0  0  0  0  0
  150.5947  145.3086  157.5689 H   0  0  0  0  0  0  0  0  0  0  0  0
  152.2517  145.1784  158.1440 H   0  0  0  0  0  0  0  0  0  0  0  0
  150.8889  145.0395  159.2824 H   0  0  0  0  0  0  0  0  0  0  0  0
  152.3895  143.9596  160.4417 H   0  0  0  0  0  0  0  0  0  0  0  0
  153.7185  142.3808  161.7577 H   0  0  0  0  0  0  0  0  0  0  0  0
  154.0685  140.0518  160.9597 H   0  0  0  0  0  0  0  0  0  0  0  0
  153.0684  139.3161  158.8128 H   0  0  0  0  0  0  0  0  0  0  0  0
  152.1292  141.1425  156.2536 H   0  0  0  0  0  0  0  0  0  0  0  0
  151.6295  139.6365  156.9944 H   0  0  0  0  0  0  0  0  0  0  0  0
  149.2385  142.5222  155.7767 H   0  0  0  0  0  0  0  0  0  0  0  0
  150.8124  141.9838  155.1996 H   0  0  0  0  0  0  0  0  0  0  0  0
  148.8523  139.7779  155.4725 H   0  0  0  0  0  0  0  0  0  0  0  0
  149.7980  139.8584  153.1160 H   0  0  0  0  0  0  0  0  0  0  0  0
  148.3702  141.9967  153.4097 H   0  0  0  0  0  0  0  0  0  0  0  0
  147.7098  140.3849  153.2529 H   0  0  0  0  0  0  0  0  0  0  0  0
  147.1998  140.3111  156.5249 H   0  0  0  0  0  0  0  0  0  0  0  0
  143.3031  143.3621  156.4907 H   0  0  0  0  0  0  0  0  0  0  0  0
  146.3528  143.2669  152.5401 H   0  0  0  0  0  0  0  0  0  0  0  0
  1  2  1  0  0  0  0
  1 26  1  0  0  0  0
  1 27  1  0  0  0  0
  1 28  1  0  0  0  0
  2  3  1  0  0  0  0
  3  8  1  0  0  0  0
  3  4  2  0  0  0  0
  4  5  1  0  0  0  0
  4 29  1  0  0  0  0
  5  6  2  0  0  0  0
  5 30  1  0  0  0  0
  6  7  1  0  0  0  0
  6 31  1  0  0  0  0
  7  8  2  0  0  0  0
  7 32  1  0  0  0  0
  8  9  1  0  0  0  0
  9 10  1  0  0  0  0
  9 33  1  0  0  0  0
  9 34  1  0  0  0  0
 10 11  1  0  0  0  0
 11 12  1  0  0  0  0
 11 35  1  0  0  0  0
 11 36  1  0  0  0  0
 12 13  1  0  0  0  0
 12 14  1  0  0  0  0
 12 37  1  0  0  0  0
 13 38  1  0  0  0  0
 14 15  1  0  0  0  0
 14 39  1  0  0  0  0
 14 40  1  0  0  0  0
 15 25  1  0  0  0  0
 15 16  1  0  0  0  0
 16 17  2  0  0  0  0
 16 41  1  0  0  0  0
 17 18  1  0  0  0  0
 18 25  2  0  0  0  0
 18 19  1  0  0  0  0
 19 20  2  0  0  0  0
 19 42  1  0  0  0  0
 20 21  1  0  0  0  0
 20 22  1  0  0  0  0
 22 23  1  0  0  0  0
 22 24  2  0  0  0  0
 24 25  1  0  0  0  0
 24 43  1  0  0  0  0
M  END
> <s_m_source_file>
AV-unprocessed.smi

> <i_m_source_file_index>
1012

> <i_lp_mmshare_version>
43012

> <i_f3d_flags>
0

> <s_epik_input>
W0NIM11PYzFbY0hdW2NIXVtjSF1bY0hdYzFbQ0gyXU9bQ0gyXVtDQEhdKFtPSF0pW0NIMl1uKFtjSF1uMiljKGMyMylbY0hdYyhGKWMoRilbY0hdMw==

> <s_epik_cmdline>
J2VwaWtfcHl0aG9uJywgJy1waCcsICc3LjAnLCAnLXRuJywgJzgnLCAnLW1hJywgJzIwMCcsICctbWV0YWxfYmluZGluZycsICctaW1hZScsICc8aW5maWxlLm1hZT4nLCAnLW9tYWUnLCAnPG91dGZpbGUubWFlPic=

> <r_lp_tautomer_probability>
1

> <r_epik_Ionization_Penalty>
0.0160257

> <r_epik_Ionization_Penalty_Charging>
0

> <r_epik_Ionization_Penalty_Neutral>
0.0160257

> <r_epik_State_Penalty>
0.0126263

> <r_epik_Charging_Adjusted_Penalty>
0.0126263

> <i_epik_Tot_Q>
0

> <i_epik_Tot_abs_Q>
0

> <r_epik_Metal_State_Penalty>
1.27616e-05

> <b_epik_Metal_Only>
0

> <s_lp_Force_Field>
OPLS_2005

> <r_lp_Energy>
17.5186

> <b_lp_Chiralities_Consistent>
1

> <s_lp_Variant>
AV-unprocessed.smi:1012-1

> <Gold.Version>
5.8.1

> <Gold.Id.Protein>
6NUR|6NUR_protein|mol2

> <Gold.PLP.Fitness>
59.5809

> <Gold.PLP.PLP>
-57.1014

> <Gold.PLP.part.hbond>
-2.0000

> <Gold.PLP.part.metal>
0.0000

> <Gold.PLP.part.buried>
-5.8430

> <Gold.PLP.part.nonpolar>
-50.4548

> <Gold.PLP.part.repulsive>
0.2201

> <Gold.PLP.ligand.clash>
0.0000

> <Gold.PLP.ligand.torsion>
1.9453

> <Gold.PLP.Chemscore.Hbond>
1.9920

> <Gold.PLP.Chemscore.CHOScore>
0.0000

> <Gold.PLP.Chemscore.Metal>
0.0000

> <Gold.Chemscore.Hbonds>
donor molecule, donor type, donor heavy atom, donor atom, acceptor molecule, acceptor atom, score
      L1  H    13    38       P1  7957  1.00
      P1  H  7989  7998       L1    13  0.90

> <Gold.PLP.Chemscore.Internal.Correction>
0.3941

> <Gold.Rescore>
     Score         DG    S(hbond)    S(metal)    S(lipo)     H(rot)  DE(clash)    DE(int)     intcor
     14.39     -18.48       1.58        0.00     130.32       2.93       0.51       3.59       ----

> <Gold.Chemscore.Fitness>
14.3872

> <Gold.Chemscore.DG>
-18.4847

> <Gold.Chemscore.ZeroCoef>
-5.4800

> <Gold.Chemscore.Hbond>
1.5768

> <Gold.Chemscore.Metal>
0.0000

> <Gold.Chemscore.Lipo>
130.3229

> <Gold.Chemscore.Internal_Hbond>
0.0000

> <Gold.Chemscore.DEClash>
0.5066

> <Gold.Chemscore.DEInternal>
3.5909

> <Gold.Chemscore.Rot>
2.9335

> <Gold.Chemscore.Internal.Correction>
   9.000000E+99

> <Gold.Chemscore.Hbonds>
donor molecule, donor type, donor heavy atom, donor atom, acceptor molecule, acceptor atom, score
      L1  H    13    38       P1  7957  0.97
      P1  H  7989  7998       L1    13  0.20

> <Gold.Chemscore.Hbond.Weighted>
-5.2666

> <Gold.Chemscore.Metal.Weighted>
-0.0000

> <Gold.Chemscore.Lipo.Weighted>
-15.2478

> <Gold.Chemscore.Internal_Hbond.Weighted>
0.0000

> <Gold.Chemscore.DEClash.Weighted>
0.5066

> <Gold.Chemscore.DEInternal.Weighted>
3.5909

> <Gold.Chemscore.Rot.Weighted>
7.5097

> <Gold.Chemscore.Internal.Correction.Weighted>
   9.000000E+99

> <Gold.Protein.RotatedTorsions>
[ 6907 6896 6895 6894 ] final   42.01 input  -60.11 | X-H torsion
[ 7974 7965 7964 7962 ] final  -50.27 input  175.53 | X-H torsion
[ 8008 7997 7996 7995 ] final -171.32 input   59.86 | X-H torsion
[ 10167 10162 10161 10158 ] final  137.59 input  -65.29 | X-H torsion
[ 10718 10713 10712 10709 ] final  -20.98 input   66.30 | X-H torsion
[ 10763 10752 10751 10750 ] final   74.93 input  -60.55 | X-H torsion
[ 11005 11000 10999 10996 ] final  114.53 input  -57.11 | X-H torsion

> <Gold.Protein.ActiveResidues>
 VAL166  LYS551  ARG553  GLY616  TRP617  ASP618  TYR619  PRO620  LYS621  CYS622 
 ASP623  PHE694  ASN695  SER759  ASP760  ASP761  ALA762  ILE779  LEU786  VAL792 
 PHE793  MET794  SER795  GLU796  ALA797  LYS798  CYS799  TRP800  GLU811  SER814 

> <Gold.Protein.RotatedAtoms>
  152.2026  134.8574  160.0506 H   0  0  0  0  0  0  0  0  0  0  0  0  # atno 6907 bound_to 6896
  151.9422  133.3636  159.3977 H   0  0  0  0  0  0  0  0  0  0  0  0  # atno 6908 bound_to 6896
  150.6958  134.4351  159.5310 H   0  0  0  0  0  0  0  0  0  0  0  0  # atno 6909 bound_to 6896
  145.9316  140.7744  142.9597 H   0  0  0  0  0  0  0  0  0  0  0  0  # atno 7974 bound_to 7965
  155.9299  140.1089  157.1140 H   0  0  0  0  0  0  0  0  0  0  0  0  # atno 8008 bound_to 7997
  154.4069  140.1239  156.4855 H   0  0  0  0  0  0  0  0  0  0  0  0  # atno 8009 bound_to 7997
  155.7092  140.3471  155.4969 H   0  0  0  0  0  0  0  0  0  0  0  0  # atno 8010 bound_to 7997
  139.5139  144.6401  151.5591 H   0  0  0  0  0  0  0  0  0  0  0  0  # atno 10167 bound_to 10162
  156.5244  130.4640  149.6580 H   0  0  0  0  0  0  0  0  0  0  0  0  # atno 10718 bound_to 10713
  153.0620  135.5007  154.8114 H   0  0  0  0  0  0  0  0  0  0  0  0  # atno 10763 bound_to 10752
  154.6896  135.2982  154.9500 H   0  0  0  0  0  0  0  0  0  0  0  0  # atno 10764 bound_to 10752
  154.0259  135.6736  153.4829 H   0  0  0  0  0  0  0  0  0  0  0  0  # atno 10765 bound_to 10752
  139.8983  134.9569  156.6906 H   0  0  0  0  0  0  0  0  0  0  0  0  # atno 11005 bound_to 11000
  144.6765  140.2136  143.7374 LP  0  0  0  0  0  0  0  0  0  0  0  0  # atno 17320 bound_to 7965
  145.8418  139.2133  143.1823 LP  0  0  0  0  0  0  0  0  0  0  0  0  # atno 17321 bound_to 7965
  140.6165  143.9339  150.6492 LP  0  0  0  0  0  0  0  0  0  0  0  0  # atno 17342 bound_to 10162
  140.2599  143.3532  152.1332 LP  0  0  0  0  0  0  0  0  0  0  0  0  # atno 17343 bound_to 10162
  156.3119  130.7233  151.2128 LP  0  0  0  0  0  0  0  0  0  0  0  0  # atno 17370 bound_to 10713
  157.7432  131.0479  150.4967 LP  0  0  0  0  0  0  0  0  0  0  0  0  # atno 17371 bound_to 10713
  140.7228  133.9126  155.8158 LP  0  0  0  0  0  0  0  0  0  0  0  0  # atno 17394 bound_to 11000
  141.0214  134.0884  157.4116 LP  0  0  0  0  0  0  0  0  0  0  0  0  # atno 17395 bound_to 11000

$$$$
