AV-unprocessed.smi:3057|AV-procd|sdf|11662|dock9
  -GOLD-   2272017 63D 1   1.00000     0.00000
 Structure written by MMmdl.
 40 42  0  0  0  0  0  0  0  0  1 V2000
  147.7893  137.3549  154.4233 C   0  0  0  0  0  0  0  0  0  0  0  0
  148.4221  138.3251  155.4425 C   0  0  2  0  0  0  0  0  0  0  0  0
  147.4254  139.4151  155.8681 C   0  0  0  0  0  0  0  0  0  0  0  0
  147.6793  140.5588  154.8738 C   0  0  0  0  0  0  0  0  0  0  0  0
  149.1109  140.2966  154.4286 C   0  0  0  0  0  0  0  0  0  0  0  0
  149.7951  141.1289  153.8352 O   0  0  0  0  0  0  0  0  0  0  0  0
  149.5036  139.0794  154.8369 N   0  0  0  0  0  0  0  0  0  0  0  0
  150.8583  138.5211  154.9685 C   0  0  1  0  0  0  0  0  0  0  0  0
  151.8724  139.4968  155.5953 C   0  0  0  0  0  0  0  0  0  0  0  0
  152.8255  139.9152  154.9368 O   0  0  0  0  0  0  0  0  0  0  0  0
  151.6368  139.8702  156.8611 N   0  0  0  0  0  0  0  0  0  0  0  0
  152.4737  140.7935  157.6143 C   0  0  0  0  0  0  0  0  0  0  0  0
  151.9345  140.9720  159.0404 C   0  0  0  0  0  0  0  0  0  0  0  0
  151.6894  142.4291  159.3842 C   0  0  0  0  0  0  0  0  0  0  0  0
  152.1938  142.9812  160.5813 C   0  0  0  0  0  0  0  0  0  0  0  0
  151.9316  144.3373  160.8572 C   0  0  0  0  0  0  0  0  0  0  0  0
  151.1780  145.0845  159.9314 C   0  0  0  0  0  0  0  0  0  0  0  0
  150.7180  144.4396  158.7659 C   0  0  0  0  0  0  0  0  0  0  0  0
  150.9638  143.1401  158.4918 N   0  0  0  0  0  0  0  0  0  0  0  0
  150.7220  137.2254  155.7980 C   0  0  0  0  0  0  0  0  0  0  0  0
  149.2192  137.4312  156.7923 S   0  0  0  0  0  0  0  0  0  0  0  0
  147.3567  137.8889  153.5768 H   0  0  0  0  0  0  0  0  0  0  0  0
  146.9915  136.7727  154.8850 H   0  0  0  0  0  0  0  0  0  0  0  0
  148.5183  136.6508  154.0230 H   0  0  0  0  0  0  0  0  0  0  0  0
  146.3907  139.0705  155.8527 H   0  0  0  0  0  0  0  0  0  0  0  0
  147.6420  139.7588  156.8808 H   0  0  0  0  0  0  0  0  0  0  0  0
  147.0149  140.4947  154.0116 H   0  0  0  0  0  0  0  0  0  0  0  0
  147.5689  141.5407  155.3347 H   0  0  0  0  0  0  0  0  0  0  0  0
  151.2069  138.2630  153.9670 H   0  0  0  0  0  0  0  0  0  0  0  0
  150.8307  139.4869  157.3332 H   0  0  0  0  0  0  0  0  0  0  0  0
  153.4965  140.4134  157.6428 H   0  0  0  0  0  0  0  0  0  0  0  0
  152.5001  141.7567  157.1020 H   0  0  0  0  0  0  0  0  0  0  0  0
  151.0038  140.4152  159.1603 H   0  0  0  0  0  0  0  0  0  0  0  0
  152.6377  140.5520  159.7614 H   0  0  0  0  0  0  0  0  0  0  0  0
  152.7658  142.3812  161.2738 H   0  0  0  0  0  0  0  0  0  0  0  0
  152.3008  144.7951  161.7630 H   0  0  0  0  0  0  0  0  0  0  0  0
  150.9572  146.1264  160.1103 H   0  0  0  0  0  0  0  0  0  0  0  0
  150.1366  144.9817  158.0348 H   0  0  0  0  0  0  0  0  0  0  0  0
  150.5902  136.3668  155.1392 H   0  0  0  0  0  0  0  0  0  0  0  0
  151.5852  137.0198  156.4325 H   0  0  0  0  0  0  0  0  0  0  0  0
  1  2  1  0  0  0  0
  1 22  1  0  0  0  0
  1 23  1  0  0  0  0
  1 24  1  0  0  0  0
  2  7  1  0  0  0  0
  2 21  1  0  0  0  0
  2  3  1  0  0  0  0
  3  4  1  0  0  0  0
  3 25  1  0  0  0  0
  3 26  1  0  0  0  0
  4  5  1  0  0  0  0
  4 27  1  0  0  0  0
  4 28  1  0  0  0  0
  5  6  2  0  0  0  0
  5  7  1  0  0  0  0
  7  8  1  0  0  0  0
  8  9  1  0  0  0  0
  8 20  1  0  0  0  0
  8 29  1  0  0  0  0
  9 10  2  0  0  0  0
  9 11  1  0  0  0  0
 11 12  1  0  0  0  0
 11 30  1  0  0  0  0
 12 13  1  0  0  0  0
 12 31  1  0  0  0  0
 12 32  1  0  0  0  0
 13 14  1  0  0  0  0
 13 33  1  0  0  0  0
 13 34  1  0  0  0  0
 14 19  1  0  0  0  0
 14 15  2  0  0  0  0
 15 16  1  0  0  0  0
 15 35  1  0  0  0  0
 16 17  2  0  0  0  0
 16 36  1  0  0  0  0
 17 18  1  0  0  0  0
 17 37  1  0  0  0  0
 18 19  2  0  0  0  0
 18 38  1  0  0  0  0
 20 21  1  0  0  0  0
 20 39  1  0  0  0  0
 20 40  1  0  0  0  0
M  END
> <s_m_source_file>
AV-unprocessed.smi

> <i_m_source_file_index>
3057

> <i_lp_mmshare_version>
43012

> <i_f3d_flags>
0

> <s_epik_input>
W0NIMl0xW0NIMl1DKD1PKU4oW0NAQF0xMltDSDNdKVtDQEhdKFtDSDJdUzIpQyg9TylbTkhdW0NIMl1bQ0gyXWMzW2NIXVtjSF1bY0hdW2NIXW4z

> <s_epik_cmdline>
J2VwaWtfcHl0aG9uJywgJy1waCcsICc3LjAnLCAnLXRuJywgJzgnLCAnLW1hJywgJzIwMCcsICctbWV0YWxfYmluZGluZycsICctaW1hZScsICc8aW5maWxlLm1hZT4nLCAnLW9tYWUnLCAnPG91dGZpbGUubWFlPic=

> <r_epik_Ionization_Penalty>
0.0249631

> <r_epik_Ionization_Penalty_Charging>
0

> <r_epik_Ionization_Penalty_Neutral>
0.0249631

> <r_epik_State_Penalty>
0.0202943

> <r_epik_Charging_Adjusted_Penalty>
0.0202943

> <i_epik_Tot_Q>
0

> <i_epik_Tot_abs_Q>
0

> <r_epik_Metal_State_Penalty>
0.0194661

> <b_epik_Metal_Only>
0

> <s_lp_Force_Field>
OPLS_2005

> <r_lp_Energy>
25.2027

> <b_lp_Chiralities_Consistent>
1

> <s_lp_Variant>
AV-unprocessed.smi:3057-2

> <Gold.Version>
5.8.1

> <Gold.Id.Protein>
6NUR|6NUR_protein|mol2

> <Gold.PLP.Fitness>
41.2428

> <Gold.PLP.PLP>
-32.6167

> <Gold.PLP.part.hbond>
-3.7839

> <Gold.PLP.part.metal>
0.0000

> <Gold.PLP.part.buried>
-5.6201

> <Gold.PLP.part.nonpolar>
-24.7670

> <Gold.PLP.part.repulsive>
1.8224

> <Gold.PLP.ligand.clash>
0.0000

> <Gold.PLP.ligand.torsion>
0.5008

> <Gold.PLP.Chemscore.Hbond>
2.2704

> <Gold.PLP.Chemscore.CHOScore>
0.9364

> <Gold.PLP.Chemscore.Metal>
0.0000

> <Gold.Chemscore.Hbonds>
donor molecule, donor type, donor heavy atom, donor atom, acceptor molecule, acceptor atom, score
      P1  H  7989  7998       L1     6  0.34
      P1  H  7997  8008       L1    10  1.00
      P1  H  8011  8017       L1     6  0.85
      L1  C    18    38       P1  8028  0.31
      L1  C    18    38       P1  8029  0.69

> <Gold.PLP.Chemscore.Internal.Correction>
0.0074

> <Gold.Rescore>
     Score         DG    S(hbond)    S(metal)    S(lipo)     H(rot)  DE(clash)    DE(int)     intcor
     17.07     -18.12       1.98        0.00      85.08       1.53       0.45       0.60       ----

> <Gold.Chemscore.Fitness>
17.0684

> <Gold.Chemscore.DG>
-18.1205

> <Gold.Chemscore.ZeroCoef>
-5.4800

> <Gold.Chemscore.Hbond>
1.9798

> <Gold.Chemscore.Metal>
0.0000

> <Gold.Chemscore.Lipo>
85.0840

> <Gold.Chemscore.Internal_Hbond>
0.0000

> <Gold.Chemscore.DEClash>
0.4479

> <Gold.Chemscore.DEInternal>
0.6042

> <Gold.Chemscore.Rot>
1.5339

> <Gold.Chemscore.Internal.Correction>
   9.000000E+99

> <Gold.Chemscore.Hbonds>
donor molecule, donor type, donor heavy atom, donor atom, acceptor molecule, acceptor atom, score
      P1  H  7989  7998       L1     6  0.34
      P1  H  7997  8008       L1    10  0.82
      P1  H  8011  8017       L1     6  0.83

> <Gold.Chemscore.Hbond.Weighted>
-6.6124

> <Gold.Chemscore.Metal.Weighted>
-0.0000

> <Gold.Chemscore.Lipo.Weighted>
-9.9548

> <Gold.Chemscore.Internal_Hbond.Weighted>
0.0000

> <Gold.Chemscore.DEClash.Weighted>
0.4479

> <Gold.Chemscore.DEInternal.Weighted>
0.6042

> <Gold.Chemscore.Rot.Weighted>
3.9267

> <Gold.Chemscore.Internal.Correction.Weighted>
   9.000000E+99

> <Gold.Protein.RotatedTorsions>
[ 6907 6896 6895 6894 ] final  128.87 input  -60.11 | X-H torsion
[ 7974 7965 7964 7962 ] final   87.54 input  175.53 | X-H torsion
[ 8008 7997 7996 7995 ] final  -24.82 input   59.86 | X-H torsion
[ 10167 10162 10161 10158 ] final  -29.23 input  -65.29 | X-H torsion
[ 10718 10713 10712 10709 ] final -148.14 input   66.30 | X-H torsion
[ 10763 10752 10751 10750 ] final -139.17 input  -60.55 | X-H torsion
[ 11005 11000 10999 10996 ] final  -27.27 input  -57.11 | X-H torsion

> <Gold.Protein.ActiveResidues>
 VAL166  LYS551  ARG553  GLY616  TRP617  ASP618  TYR619  PRO620  LYS621  CYS622 
 ASP623  PHE694  ASN695  SER759  ASP760  ASP761  ALA762  ILE779  LEU786  VAL792 
 PHE793  MET794  SER795  GLU796  ALA797  LYS798  CYS799  TRP800  GLU811  SER814 

> <Gold.Protein.RotatedAtoms>
  152.3678  133.6380  159.6063 H   0  0  0  0  0  0  0  0  0  0  0  0  # atno 6907 bound_to 6896
  150.7647  133.9319  159.3438 H   0  0  0  0  0  0  0  0  0  0  0  0  # atno 6908 bound_to 6896
  151.7146  135.0907  160.0325 H   0  0  0  0  0  0  0  0  0  0  0  0  # atno 6909 bound_to 6896
  145.5576  139.2301  143.2478 H   0  0  0  0  0  0  0  0  0  0  0  0  # atno 7974 bound_to 7965
  154.4508  140.1943  156.0524 H   0  0  0  0  0  0  0  0  0  0  0  0  # atno 8008 bound_to 7997
  156.0644  140.3292  155.7473 H   0  0  0  0  0  0  0  0  0  0  0  0  # atno 8009 bound_to 7997
  155.5361  140.0582  157.2870 H   0  0  0  0  0  0  0  0  0  0  0  0  # atno 8010 bound_to 7997
  140.7262  143.3946  151.1370 H   0  0  0  0  0  0  0  0  0  0  0  0  # atno 10167 bound_to 10162
  156.4165  130.8007  151.2228 H   0  0  0  0  0  0  0  0  0  0  0  0  # atno 10718 bound_to 10713
  154.8617  135.3590  154.5504 H   0  0  0  0  0  0  0  0  0  0  0  0  # atno 10763 bound_to 10752
  153.6122  135.7009  153.5347 H   0  0  0  0  0  0  0  0  0  0  0  0  # atno 10764 bound_to 10752
  153.3200  135.4154  155.1369 H   0  0  0  0  0  0  0  0  0  0  0  0  # atno 10765 bound_to 10752
  140.9104  133.7465  156.0663 H   0  0  0  0  0  0  0  0  0  0  0  0  # atno 11005 bound_to 11000
  146.1874  140.6400  142.9161 LP  0  0  0  0  0  0  0  0  0  0  0  0  # atno 17320 bound_to 7965
  144.7499  140.5163  143.6809 LP  0  0  0  0  0  0  0  0  0  0  0  0  # atno 17321 bound_to 7965
  139.7556  143.8712  152.3088 LP  0  0  0  0  0  0  0  0  0  0  0  0  # atno 17342 bound_to 10162
  139.8581  144.7131  150.9133 LP  0  0  0  0  0  0  0  0  0  0  0  0  # atno 17343 bound_to 10162
  157.7508  131.0241  150.3864 LP  0  0  0  0  0  0  0  0  0  0  0  0  # atno 17370 bound_to 10713
  156.4172  130.3946  149.6850 LP  0  0  0  0  0  0  0  0  0  0  0  0  # atno 17371 bound_to 10713
  140.8117  134.3391  157.5409 LP  0  0  0  0  0  0  0  0  0  0  0  0  # atno 17394 bound_to 11000
  139.8756  134.9258  156.3384 LP  0  0  0  0  0  0  0  0  0  0  0  0  # atno 17395 bound_to 11000

$$$$
