AV-unprocessed.smi:585|AV-procd|sdf|3000|dock1
  -GOLD-   2262023503D 1   1.00000     0.00000
 Structure written by MMmdl.
 38 39  0  0  0  0  0  0  0  0  1 V2000
  144.7571  143.3653  155.2292 C   0  0  0  0  0  0  0  0  0  0  0  0
  145.8199  143.3380  154.2933 O   0  0  0  0  0  0  0  0  0  0  0  0
  146.5419  142.1181  154.3232 C   0  0  0  0  0  0  0  0  0  0  0  0
  147.8242  142.2459  153.4877 C   0  0  0  0  0  0  0  0  0  0  0  0
  148.6623  141.0548  153.5675 N   0  0  0  0  0  0  0  0  0  0  0  0
  149.3794  140.7361  154.7300 C   0  0  0  0  0  0  0  0  0  0  0  0
  148.8311  141.1031  155.9785 C   0  0  0  0  0  0  0  0  0  0  0  0
  149.5431  140.7922  157.1535 C   0  0  0  0  0  0  0  0  0  0  0  0
  150.7762  140.1255  157.0300 C   0  0  0  0  0  0  0  0  0  0  0  0
  151.7227  139.7129  158.4874 S   0  0  0  0  0  0  0  0  0  0  0  0
  150.9422  138.7451  159.2744 O   0  0  0  0  0  0  0  0  0  0  0  0
  153.1105  139.4090  158.1047 O   0  0  0  0  0  0  0  0  0  0  0  0
  151.7245  141.2094  159.3560 N   0  0  0  0  0  0  0  0  0  0  0  0
  152.4872  141.3062  160.6071 C   0  0  0  0  0  0  0  0  0  0  0  0
  153.2949  142.5999  160.4974 C   0  0  0  0  0  0  0  0  0  0  0  0
  152.4404  143.4727  159.5887 C   0  0  0  0  0  0  0  0  0  0  0  0
  151.8363  142.4683  158.6080 C   0  0  0  0  0  0  0  0  0  0  0  0
  151.2510  139.7989  155.7448 C   0  0  0  0  0  0  0  0  0  0  0  0
  150.5714  140.1006  154.6175 N   0  0  0  0  0  0  0  0  0  0  0  0
  144.2440  144.3252  155.1724 H   0  0  0  0  0  0  0  0  0  0  0  0
  145.1245  143.2393  156.2486 H   0  0  0  0  0  0  0  0  0  0  0  0
  144.0283  142.5812  155.0196 H   0  0  0  0  0  0  0  0  0  0  0  0
  146.8103  141.8936  155.3566 H   0  0  0  0  0  0  0  0  0  0  0  0
  145.9283  141.2911  153.9614 H   0  0  0  0  0  0  0  0  0  0  0  0
  147.5938  142.5087  152.4549 H   0  0  0  0  0  0  0  0  0  0  0  0
  148.4170  143.0716  153.8816 H   0  0  0  0  0  0  0  0  0  0  0  0
  148.9019  140.5862  152.7059 H   0  0  0  0  0  0  0  0  0  0  0  0
  147.8809  141.6134  156.0391 H   0  0  0  0  0  0  0  0  0  0  0  0
  149.1509  141.0613  158.1232 H   0  0  0  0  0  0  0  0  0  0  0  0
  151.7876  141.3506  161.4424 H   0  0  0  0  0  0  0  0  0  0  0  0
  153.1341  140.4398  160.7487 H   0  0  0  0  0  0  0  0  0  0  0  0
  153.4900  143.0598  161.4666 H   0  0  0  0  0  0  0  0  0  0  0  0
  154.2551  142.3980  160.0202 H   0  0  0  0  0  0  0  0  0  0  0  0
  151.6484  143.9484  160.1688 H   0  0  0  0  0  0  0  0  0  0  0  0
  153.0131  144.2565  159.0921 H   0  0  0  0  0  0  0  0  0  0  0  0
  152.5037  142.3290  157.7569 H   0  0  0  0  0  0  0  0  0  0  0  0
  150.8634  142.7838  158.2301 H   0  0  0  0  0  0  0  0  0  0  0  0
  152.1954  139.2927  155.6102 H   0  0  0  0  0  0  0  0  0  0  0  0
  1  2  1  0  0  0  0
  1 20  1  0  0  0  0
  1 21  1  0  0  0  0
  1 22  1  0  0  0  0
  2  3  1  0  0  0  0
  3  4  1  0  0  0  0
  3 23  1  0  0  0  0
  3 24  1  0  0  0  0
  4  5  1  0  0  0  0
  4 25  1  0  0  0  0
  4 26  1  0  0  0  0
  5  6  1  0  0  0  0
  5 27  1  0  0  0  0
  6 19  1  0  0  0  0
  6  7  2  0  0  0  0
  7  8  1  0  0  0  0
  7 28  1  0  0  0  0
  8  9  2  0  0  0  0
  8 29  1  0  0  0  0
  9 10  1  0  0  0  0
  9 18  1  0  0  0  0
 10 11  2  0  0  0  0
 10 12  2  0  0  0  0
 10 13  1  0  0  0  0
 13 17  1  0  0  0  0
 13 14  1  0  0  0  0
 14 15  1  0  0  0  0
 14 30  1  0  0  0  0
 14 31  1  0  0  0  0
 15 16  1  0  0  0  0
 15 32  1  0  0  0  0
 15 33  1  0  0  0  0
 16 17  1  0  0  0  0
 16 34  1  0  0  0  0
 16 35  1  0  0  0  0
 17 36  1  0  0  0  0
 17 37  1  0  0  0  0
 18 19  2  0  0  0  0
 18 38  1  0  0  0  0
M  END
> <s_m_source_file>
AV-unprocessed.smi

> <i_m_source_file_index>
585

> <i_lp_mmshare_version>
43012

> <i_f3d_flags>
0

> <s_epik_input>
W0NIM11PW0NIMl1bQ0gyXVtOSF1jMVtjSF1bY0hdYyhbY0hdbjEpUyg9TykoPU8pTjJbQ0gyXVtDSDJdW0NIMl1bQ0gyXTI=

> <s_epik_cmdline>
J2VwaWtfcHl0aG9uJywgJy1waCcsICc3LjAnLCAnLXRuJywgJzgnLCAnLW1hJywgJzIwMCcsICctbWV0YWxfYmluZGluZycsICctaW1hZScsICc8aW5maWxlLm1hZT4nLCAnLW9tYWUnLCAnPG91dGZpbGUubWFlPic=

> <r_lp_tautomer_probability>
1

> <r_epik_Ionization_Penalty>
0.000380006

> <r_epik_Ionization_Penalty_Charging>
0

> <r_epik_Ionization_Penalty_Neutral>
0.000380006

> <r_epik_State_Penalty>
0.000231905

> <r_epik_Charging_Adjusted_Penalty>
0.000231905

> <i_epik_Tot_Q>
0

> <i_epik_Tot_abs_Q>
0

> <r_epik_Metal_State_Penalty>
-0

> <b_epik_Metal_Only>
0

> <s_lp_Force_Field>
OPLS_2005

> <r_lp_Energy>
14.2821

> <b_lp_Chiralities_Consistent>
1

> <s_lp_Variant>
AV-unprocessed.smi:585-1

> <Gold.Version>
5.8.1

> <Gold.Id.Protein>
6NUR|6NUR_protein|mol2

> <Gold.PLP.Fitness>
41.7602

> <Gold.PLP.PLP>
-33.9338

> <Gold.PLP.part.hbond>
-3.0000

> <Gold.PLP.part.metal>
0.0000

> <Gold.PLP.part.buried>
-6.1071

> <Gold.PLP.part.nonpolar>
-25.2304

> <Gold.PLP.part.repulsive>
0.4760

> <Gold.PLP.ligand.clash>
0.0000

> <Gold.PLP.ligand.torsion>
1.9260

> <Gold.PLP.Chemscore.Hbond>
3.0000

> <Gold.PLP.Chemscore.CHOScore>
0.0000

> <Gold.PLP.Chemscore.Metal>
0.0000

> <Gold.Chemscore.Hbonds>
donor molecule, donor type, donor heavy atom, donor atom, acceptor molecule, acceptor atom, score
      L1  H     5    27       P1  7957  1.00
      P1  H  7989  7998       L1    19  1.00
      P1  H  7997  8009       L1    12  1.00

> <Gold.PLP.Chemscore.Internal.Correction>
2.6784

> <Gold.Rescore>
     Score         DG    S(hbond)    S(metal)    S(lipo)     H(rot)  DE(clash)    DE(int)     intcor
     17.63     -19.66       2.67        0.00      80.28       1.61       0.12       1.91       ----

> <Gold.Chemscore.Fitness>
17.6292

> <Gold.Chemscore.DG>
-19.6609

> <Gold.Chemscore.ZeroCoef>
-5.4800

> <Gold.Chemscore.Hbond>
2.6652

> <Gold.Chemscore.Metal>
0.0000

> <Gold.Chemscore.Lipo>
80.2803

> <Gold.Chemscore.Internal_Hbond>
0.0000

> <Gold.Chemscore.DEClash>
0.1194

> <Gold.Chemscore.DEInternal>
1.9123

> <Gold.Chemscore.Rot>
1.6068

> <Gold.Chemscore.Internal.Correction>
   9.000000E+99

> <Gold.Chemscore.Hbonds>
donor molecule, donor type, donor heavy atom, donor atom, acceptor molecule, acceptor atom, score
      L1  H     5    27       P1  7957  1.00
      P1  H  7989  7998       L1    19  0.61
      P1  H  7997  8009       L1    12  0.94

> <Gold.Chemscore.Hbond.Weighted>
-8.9016

> <Gold.Chemscore.Metal.Weighted>
-0.0000

> <Gold.Chemscore.Lipo.Weighted>
-9.3928

> <Gold.Chemscore.Internal_Hbond.Weighted>
0.0000

> <Gold.Chemscore.DEClash.Weighted>
0.1194

> <Gold.Chemscore.DEInternal.Weighted>
1.9123

> <Gold.Chemscore.Rot.Weighted>
4.1135

> <Gold.Chemscore.Internal.Correction.Weighted>
   9.000000E+99

> <Gold.Protein.RotatedTorsions>
[ 6907 6896 6895 6894 ] final   81.32 input  -60.11 | X-H torsion
[ 7974 7965 7964 7962 ] final  142.75 input  175.53 | X-H torsion
[ 8008 7997 7996 7995 ] final  140.08 input   59.86 | X-H torsion
[ 10167 10162 10161 10158 ] final  -74.04 input  -65.29 | X-H torsion
[ 10718 10713 10712 10709 ] final  -44.48 input   66.30 | X-H torsion
[ 10763 10752 10751 10750 ] final   86.31 input  -60.55 | X-H torsion
[ 11005 11000 10999 10996 ] final   86.39 input  -57.11 | X-H torsion

> <Gold.Protein.ActiveResidues>
 VAL166  LYS551  ARG553  GLY616  TRP617  ASP618  TYR619  PRO620  LYS621  CYS622 
 ASP623  PHE694  ASN695  SER759  ASP760  ASP761  ALA762  ILE779  LEU786  VAL792 
 PHE793  MET794  SER795  GLU796  ALA797  LYS798  CYS799  TRP800  GLU811  SER814 

> <Gold.Protein.RotatedAtoms>
  152.5264  134.3222  159.9152 H   0  0  0  0  0  0  0  0  0  0  0  0  # atno 6907 bound_to 6896
  151.3171  133.4049  159.2659 H   0  0  0  0  0  0  0  0  0  0  0  0  # atno 6908 bound_to 6896
  150.9989  134.9323  159.8000 H   0  0  0  0  0  0  0  0  0  0  0  0  # atno 6909 bound_to 6896
  144.8980  139.5463  143.5767 H   0  0  0  0  0  0  0  0  0  0  0  0  # atno 7974 bound_to 7965
  156.2983  140.2350  156.4343 H   0  0  0  0  0  0  0  0  0  0  0  0  # atno 8008 bound_to 7997
  154.8242  140.0436  157.1452 H   0  0  0  0  0  0  0  0  0  0  0  0  # atno 8009 bound_to 7997
  154.9280  140.3013  155.5185 H   0  0  0  0  0  0  0  0  0  0  0  0  # atno 8010 bound_to 7997
  140.5060  143.2353  151.7673 H   0  0  0  0  0  0  0  0  0  0  0  0  # atno 10167 bound_to 10162
  156.2382  130.4178  149.8792 H   0  0  0  0  0  0  0  0  0  0  0  0  # atno 10718 bound_to 10713
  153.1558  135.4585  154.9702 H   0  0  0  0  0  0  0  0  0  0  0  0  # atno 10763 bound_to 10752
  154.7860  135.3204  154.7887 H   0  0  0  0  0  0  0  0  0  0  0  0  # atno 10764 bound_to 10752
  153.8385  135.6932  153.4860 H   0  0  0  0  0  0  0  0  0  0  0  0  # atno 10765 bound_to 10752
  139.8946  134.8352  156.2714 H   0  0  0  0  0  0  0  0  0  0  0  0  # atno 11005 bound_to 11000
  146.3092  139.7687  142.9033 LP  0  0  0  0  0  0  0  0  0  0  0  0  # atno 17320 bound_to 7965
  145.3666  141.0335  143.3254 LP  0  0  0  0  0  0  0  0  0  0  0  0  # atno 17321 bound_to 7965
  139.4884  144.4457  151.9713 LP  0  0  0  0  0  0  0  0  0  0  0  0  # atno 17342 bound_to 10162
  140.3547  144.3046  150.5943 LP  0  0  0  0  0  0  0  0  0  0  0  0  # atno 17343 bound_to 10162
  156.6383  130.8694  151.3509 LP  0  0  0  0  0  0  0  0  0  0  0  0  # atno 17370 bound_to 10713
  157.7163  130.9502  150.1270 LP  0  0  0  0  0  0  0  0  0  0  0  0  # atno 17371 bound_to 10713
  141.0098  133.7102  156.1093 LP  0  0  0  0  0  0  0  0  0  0  0  0  # atno 17394 bound_to 11000
  140.7383  134.4178  157.5558 LP  0  0  0  0  0  0  0  0  0  0  0  0  # atno 17395 bound_to 11000

$$$$
