AV-unprocessed.smi:451|AV-procd|sdf|2609|dock4
  -GOLD-   2262023 03D 1   1.00000     0.00000
 Structure written by MMmdl.
 38 38  0  0  0  0  0  0  0  0  1 V2000
  152.2466  144.4678  159.9342 C   0  0  0  0  0  0  0  0  0  0  0  0
  152.2841  142.9777  160.2977 C   0  0  0  0  0  0  0  0  0  0  0  0
  153.5836  142.2529  159.8921 C   0  0  0  0  0  0  0  0  0  0  0  0
  153.5143  140.8068  160.0082 N   0  0  0  0  0  0  0  0  0  0  0  0
  154.3632  140.0664  160.8361 C   0  0  0  0  0  0  0  0  0  0  0  0
  155.3241  140.7535  161.5621 N   0  0  0  0  0  0  0  0  0  0  0  0
  154.2765  138.7068  160.9337 C   0  0  0  0  0  0  0  0  0  0  0  0
  155.0993  137.9425  161.7595 N   0  0  0  0  0  0  0  0  0  0  0  0
  156.1278  138.5575  162.5904 C   0  0  0  0  0  0  0  0  0  0  0  0
  155.0546  136.4821  161.7591 C   0  0  0  0  0  0  0  0  0  0  0  0
  155.0621  135.8974  163.1837 C   0  0  0  0  0  0  0  0  0  0  0  0
  155.1537  134.4795  163.1764 O   0  0  0  0  0  0  0  0  0  0  0  0
  155.0958  133.8849  164.4638 C   0  0  0  0  0  0  0  0  0  0  0  0
  153.2641  137.9733  160.1631 C   0  0  0  0  0  0  0  0  0  0  0  0
  153.0889  136.7552  160.1815 O   0  0  0  0  0  0  0  0  0  0  0  0
  152.4460  138.7649  159.3615 N   0  0  0  0  0  0  0  0  0  0  0  0
  152.5169  140.1483  159.2481 C   0  0  0  0  0  0  0  0  0  0  0  0
  151.7200  140.7314  158.5124 O   0  0  0  0  0  0  0  0  0  0  0  0
  151.7355  138.2933  158.8213 H   0  0  0  0  0  0  0  0  0  0  0  0
  151.3353  144.9341  160.3090 H   0  0  0  0  0  0  0  0  0  0  0  0
  152.2700  144.6161  158.8545 H   0  0  0  0  0  0  0  0  0  0  0  0
  153.0946  145.0000  160.3664 H   0  0  0  0  0  0  0  0  0  0  0  0
  152.1564  142.8796  161.3761 H   0  0  0  0  0  0  0  0  0  0  0  0
  151.4251  142.4784  159.8491 H   0  0  0  0  0  0  0  0  0  0  0  0
  153.8947  142.5179  158.8809 H   0  0  0  0  0  0  0  0  0  0  0  0
  154.4142  142.5632  160.5263 H   0  0  0  0  0  0  0  0  0  0  0  0
  155.4149  141.7574  161.5007 H   0  0  0  0  0  0  0  0  0  0  0  0
  155.9551  140.2821  162.1939 H   0  0  0  0  0  0  0  0  0  0  0  0
  155.8990  139.6080  162.7744 H   0  0  0  0  0  0  0  0  0  0  0  0
  157.1023  138.5049  162.1051 H   0  0  0  0  0  0  0  0  0  0  0  0
  156.1994  138.0598  163.5580 H   0  0  0  0  0  0  0  0  0  0  0  0
  154.1631  136.1513  161.2251 H   0  0  0  0  0  0  0  0  0  0  0  0
  155.9040  136.0973  161.1952 H   0  0  0  0  0  0  0  0  0  0  0  0
  155.8629  136.3336  163.7830 H   0  0  0  0  0  0  0  0  0  0  0  0
  154.1285  136.1499  163.6860 H   0  0  0  0  0  0  0  0  0  0  0  0
  155.0959  132.7999  164.3605 H   0  0  0  0  0  0  0  0  0  0  0  0
  154.1847  134.1692  164.9917 H   0  0  0  0  0  0  0  0  0  0  0  0
  155.9552  134.1560  165.0764 H   0  0  0  0  0  0  0  0  0  0  0  0
  1  2  1  0  0  0  0
  1 20  1  0  0  0  0
  1 21  1  0  0  0  0
  1 22  1  0  0  0  0
  2  3  1  0  0  0  0
  2 23  1  0  0  0  0
  2 24  1  0  0  0  0
  3  4  1  0  0  0  0
  3 25  1  0  0  0  0
  3 26  1  0  0  0  0
  4 17  1  0  0  0  0
  4  5  1  0  0  0  0
  5  6  1  0  0  0  0
  5  7  2  0  0  0  0
  6 27  1  0  0  0  0
  6 28  1  0  0  0  0
  7  8  1  0  0  0  0
  7 14  1  0  0  0  0
  8  9  1  0  0  0  0
  8 10  1  0  0  0  0
  9 29  1  0  0  0  0
  9 30  1  0  0  0  0
  9 31  1  0  0  0  0
 10 11  1  0  0  0  0
 10 32  1  0  0  0  0
 10 33  1  0  0  0  0
 11 12  1  0  0  0  0
 11 34  1  0  0  0  0
 11 35  1  0  0  0  0
 12 13  1  0  0  0  0
 13 36  1  0  0  0  0
 13 37  1  0  0  0  0
 13 38  1  0  0  0  0
 14 15  2  0  0  0  0
 14 16  1  0  0  0  0
 16 19  1  0  0  0  0
 16 17  1  0  0  0  0
 17 18  2  0  0  0  0
M  END
> <s_m_source_file>
AV-unprocessed.smi

> <i_m_source_file_index>
451

> <i_lp_mmshare_version>
43012

> <i_f3d_flags>
0

> <s_epik_input>
W0NIM11bQ0gyXVtDSDJdbjFjKFtOSDJdKWMoYyg9TylbbkhdYzE9TylOKFtDSDNdKVtDSDJdW0NIMl1PW0NIM10=

> <s_epik_cmdline>
J2VwaWtfcHl0aG9uJywgJy1waCcsICc3LjAnLCAnLXRuJywgJzgnLCAnLW1hJywgJzIwMCcsICctbWV0YWxfYmluZGluZycsICctaW1hZScsICc8aW5maWxlLm1hZT4nLCAnLW9tYWUnLCAnPG91dGZpbGUubWFlPic=

> <r_lp_tautomer_probability>
1

> <r_epik_Ionization_Penalty>
2.19941e-05

> <r_epik_Ionization_Penalty_Charging>
2.62604e-06

> <r_epik_Ionization_Penalty_Neutral>
1.93681e-05

> <r_epik_State_Penalty>
-0

> <r_epik_Charging_Adjusted_Penalty>
2.62604e-06

> <i_epik_Tot_Q>
0

> <i_epik_Tot_abs_Q>
0

> <r_epik_Metal_State_Penalty>
-0

> <b_epik_Metal_Only>
0

> <s_epik_Chemistry_Notes>
This compound has an imine and may undergo hydrolysis.

> <s_lp_Force_Field>
OPLS_2005

> <r_lp_Energy>
22.0879

> <b_lp_Chiralities_Consistent>
1

> <s_lp_Variant>
AV-unprocessed.smi:451-1

> <Gold.Version>
5.8.1

> <Gold.Id.Protein>
6NUR|6NUR_protein|mol2

> <Gold.PLP.Fitness>
39.3982

> <Gold.PLP.PLP>
-36.7471

> <Gold.PLP.part.hbond>
-1.9513

> <Gold.PLP.part.metal>
0.0000

> <Gold.PLP.part.buried>
-4.6124

> <Gold.PLP.part.nonpolar>
-31.1459

> <Gold.PLP.part.repulsive>
0.1310

> <Gold.PLP.ligand.clash>
21.2512

> <Gold.PLP.ligand.torsion>
0.1980

> <Gold.PLP.Chemscore.Hbond>
0.9913

> <Gold.PLP.Chemscore.CHOScore>
0.0000

> <Gold.PLP.Chemscore.Metal>
0.0000

> <Gold.Chemscore.Hbonds>
donor molecule, donor type, donor heavy atom, donor atom, acceptor molecule, acceptor atom, score
      P1  H  6896  6908       L1    15  1.00

> <Gold.PLP.Chemscore.Internal.Correction>
21.3246

> <Gold.Rescore>
     Score         DG    S(hbond)    S(metal)    S(lipo)     H(rot)  DE(clash)    DE(int)     intcor
      8.57     -12.32       1.00        0.00      73.79       2.00       0.12       3.63       ----

> <Gold.Chemscore.Fitness>
8.5651

> <Gold.Chemscore.DG>
-12.3222

> <Gold.Chemscore.ZeroCoef>
-5.4800

> <Gold.Chemscore.Hbond>
0.9988

> <Gold.Chemscore.Metal>
0.0000

> <Gold.Chemscore.Lipo>
73.7940

> <Gold.Chemscore.Internal_Hbond>
0.0000

> <Gold.Chemscore.DEClash>
0.1229

> <Gold.Chemscore.DEInternal>
3.6341

> <Gold.Chemscore.Rot>
2.0031

> <Gold.Chemscore.Internal.Correction>
   9.000000E+99

> <Gold.Chemscore.Hbonds>
donor molecule, donor type, donor heavy atom, donor atom, acceptor molecule, acceptor atom, score
      P1  H  6896  6908       L1    15  0.95

> <Gold.Chemscore.Hbond.Weighted>
-3.3361

> <Gold.Chemscore.Metal.Weighted>
-0.0000

> <Gold.Chemscore.Lipo.Weighted>
-8.6339

> <Gold.Chemscore.Internal_Hbond.Weighted>
0.0000

> <Gold.Chemscore.DEClash.Weighted>
0.1229

> <Gold.Chemscore.DEInternal.Weighted>
3.6341

> <Gold.Chemscore.Rot.Weighted>
5.1278

> <Gold.Chemscore.Internal.Correction.Weighted>
   9.000000E+99

> <Gold.Protein.RotatedTorsions>
[ 6907 6896 6895 6894 ] final  -84.98 input  -60.11 | X-H torsion
[ 7974 7965 7964 7962 ] final  115.99 input  175.53 | X-H torsion
[ 8008 7997 7996 7995 ] final  173.69 input   59.86 | X-H torsion
[ 10167 10162 10161 10158 ] final    9.60 input  -65.29 | X-H torsion
[ 10718 10713 10712 10709 ] final -144.62 input   66.30 | X-H torsion
[ 10763 10752 10751 10750 ] final  129.59 input  -60.55 | X-H torsion
[ 11005 11000 10999 10996 ] final -108.63 input  -57.11 | X-H torsion

> <Gold.Protein.ActiveResidues>
 VAL166  LYS551  ARG553  GLY616  TRP617  ASP618  TYR619  PRO620  LYS621  CYS622 
 ASP623  PHE694  ASN695  SER759  ASP760  ASP761  ALA762  ILE779  LEU786  VAL792 
 PHE793  MET794  SER795  GLU796  ALA797  LYS798  CYS799  TRP800  GLU811  SER814 

> <Gold.Protein.RotatedAtoms>
  150.6873  134.3274  159.4812 H   0  0  0  0  0  0  0  0  0  0  0  0  # atno 6907 bound_to 6896
  152.1143  134.9249  160.0574 H   0  0  0  0  0  0  0  0  0  0  0  0  # atno 6908 bound_to 6896
  152.0480  133.3971  159.4402 H   0  0  0  0  0  0  0  0  0  0  0  0  # atno 6909 bound_to 6896
  145.1851  139.3029  143.4397 H   0  0  0  0  0  0  0  0  0  0  0  0  # atno 7974 bound_to 7965
  156.1050  140.1453  156.9417 H   0  0  0  0  0  0  0  0  0  0  0  0  # atno 8008 bound_to 7997
  154.4727  140.0904  156.7231 H   0  0  0  0  0  0  0  0  0  0  0  0  # atno 8009 bound_to 7997
  155.4695  140.3441  155.4326 H   0  0  0  0  0  0  0  0  0  0  0  0  # atno 8010 bound_to 7997
  140.6245  143.8132  150.7216 H   0  0  0  0  0  0  0  0  0  0  0  0  # atno 10167 bound_to 10162
  156.3724  130.7795  151.1977 H   0  0  0  0  0  0  0  0  0  0  0  0  # atno 10718 bound_to 10713
  153.7443  135.3219  155.3309 H   0  0  0  0  0  0  0  0  0  0  0  0  # atno 10763 bound_to 10752
  154.8284  135.4552  154.0996 H   0  0  0  0  0  0  0  0  0  0  0  0  # atno 10764 bound_to 10752
  153.2179  135.6944  153.8117 H   0  0  0  0  0  0  0  0  0  0  0  0  # atno 10765 bound_to 10752
  141.0891  133.9086  157.2116 H   0  0  0  0  0  0  0  0  0  0  0  0  # atno 11005 bound_to 11000
  146.3446  140.2044  142.8589 LP  0  0  0  0  0  0  0  0  0  0  0  0  # atno 17320 bound_to 7965
  145.0097  140.8703  143.5231 LP  0  0  0  0  0  0  0  0  0  0  0  0  # atno 17321 bound_to 7965
  140.1729  143.4179  152.1988 LP  0  0  0  0  0  0  0  0  0  0  0  0  # atno 17342 bound_to 10162
  139.5467  144.7304  151.4560 LP  0  0  0  0  0  0  0  0  0  0  0  0  # atno 17343 bound_to 10162
  157.7485  131.0368  150.4427 LP  0  0  0  0  0  0  0  0  0  0  0  0  # atno 17370 bound_to 10713
  156.4657  130.4041  149.6549 LP  0  0  0  0  0  0  0  0  0  0  0  0  # atno 17371 bound_to 10713
  139.9714  135.0127  156.9522 LP  0  0  0  0  0  0  0  0  0  0  0  0  # atno 17394 bound_to 11000
  140.5293  134.0829  155.7311 LP  0  0  0  0  0  0  0  0  0  0  0  0  # atno 17395 bound_to 11000

$$$$
