AV-unprocessed.smi:1988|AV-procd|sdf|8059|dock10
  -GOLD-   2272010263D 1   1.00000     0.00000
 Structure written by MMmdl.
 37 38  0  0  0  0  0  0  0  0  1 V2000
  148.5324  133.1430  153.6005 C   0  0  0  0  0  0  0  0  0  0  0  0
  149.5518  132.1888  154.1536 C   0  0  0  0  0  0  0  0  0  0  0  0
  149.8214  131.0714  153.4999 N   0  0  0  0  0  0  0  0  0  0  0  0
  150.7958  130.4116  154.2548 O   0  0  0  0  0  0  0  0  0  0  0  0
  151.0784  131.1667  155.3464 C   0  0  0  0  0  0  0  0  0  0  0  0
  152.1047  130.6245  156.2827 C   0  0  0  0  0  0  0  0  0  0  0  0
  150.3243  132.3085  155.3449 C   0  0  0  0  0  0  0  0  0  0  0  0
  150.3064  133.4304  156.3521 C   0  0  0  0  0  0  0  0  0  0  0  0
  150.0306  132.8752  157.7499 C   0  0  0  0  0  0  0  0  0  0  0  0
  150.8204  132.0840  158.2641 O   0  0  0  0  0  0  0  0  0  0  0  0
  148.9033  133.2915  158.3484 N   0  0  0  0  0  0  0  0  0  0  0  0
  148.4533  132.9013  159.6806 C   0  0  0  0  0  0  0  0  0  0  0  0
  147.5872  133.9898  160.3442 C   0  0  1  0  0  0  0  0  0  0  0  0
  147.0757  133.6142  161.7517 C   0  0  0  0  0  0  0  0  0  0  0  0
  146.4909  134.8656  162.4141 C   0  0  0  0  0  0  0  0  0  0  0  0
  147.4941  136.2670  161.7970 S   0  0  0  0  0  0  0  0  0  0  0  0
  146.5985  137.2707  161.2022 O   0  0  0  0  0  0  0  0  0  0  0  0
  148.4877  136.6458  162.8130 O   0  0  0  0  0  0  0  0  0  0  0  0
  148.3331  135.3282  160.4651 C   0  0  0  0  0  0  0  0  0  0  0  0
  147.9116  133.5575  154.3946 H   0  0  0  0  0  0  0  0  0  0  0  0
  147.8685  132.6546  152.8862 H   0  0  0  0  0  0  0  0  0  0  0  0
  149.0169  133.9748  153.0894 H   0  0  0  0  0  0  0  0  0  0  0  0
  152.0057  131.0686  157.2732 H   0  0  0  0  0  0  0  0  0  0  0  0
  153.1093  130.8354  155.9163 H   0  0  0  0  0  0  0  0  0  0  0  0
  152.0023  129.5442  156.3877 H   0  0  0  0  0  0  0  0  0  0  0  0
  151.2535  133.9711  156.3674 H   0  0  0  0  0  0  0  0  0  0  0  0
  149.5432  134.1692  156.1044 H   0  0  0  0  0  0  0  0  0  0  0  0
  148.3188  133.9439  157.8461 H   0  0  0  0  0  0  0  0  0  0  0  0
  147.9181  131.9507  159.6502 H   0  0  0  0  0  0  0  0  0  0  0  0
  149.3432  132.7272  160.2860 H   0  0  0  0  0  0  0  0  0  0  0  0
  146.7119  134.1639  159.7166 H   0  0  0  0  0  0  0  0  0  0  0  0
  146.3398  132.8105  161.7187 H   0  0  0  0  0  0  0  0  0  0  0  0
  147.9125  133.2550  162.3522 H   0  0  0  0  0  0  0  0  0  0  0  0
  145.4594  135.0247  162.0990 H   0  0  0  0  0  0  0  0  0  0  0  0
  146.5225  134.8272  163.5031 H   0  0  0  0  0  0  0  0  0  0  0  0
  149.3682  135.1744  160.7716 H   0  0  0  0  0  0  0  0  0  0  0  0
  148.3288  135.9033  159.5392 H   0  0  0  0  0  0  0  0  0  0  0  0
  1  2  1  0  0  0  0
  1 20  1  0  0  0  0
  1 21  1  0  0  0  0
  1 22  1  0  0  0  0
  2  7  1  0  0  0  0
  2  3  2  0  0  0  0
  3  4  1  0  0  0  0
  4  5  1  0  0  0  0
  5  6  1  0  0  0  0
  5  7  2  0  0  0  0
  6 23  1  0  0  0  0
  6 24  1  0  0  0  0
  6 25  1  0  0  0  0
  7  8  1  0  0  0  0
  8  9  1  0  0  0  0
  8 26  1  0  0  0  0
  8 27  1  0  0  0  0
  9 10  2  0  0  0  0
  9 11  1  0  0  0  0
 11 12  1  0  0  0  0
 11 28  1  0  0  0  0
 12 13  1  0  0  0  0
 12 29  1  0  0  0  0
 12 30  1  0  0  0  0
 13 19  1  0  0  0  0
 13 14  1  0  0  0  0
 13 31  1  0  0  0  0
 14 15  1  0  0  0  0
 14 32  1  0  0  0  0
 14 33  1  0  0  0  0
 15 16  1  0  0  0  0
 15 34  1  0  0  0  0
 15 35  1  0  0  0  0
 16 17  2  0  0  0  0
 16 18  2  0  0  0  0
 16 19  1  0  0  0  0
 19 36  1  0  0  0  0
 19 37  1  0  0  0  0
M  END
> <s_m_source_file>
AV-unprocessed.smi

> <i_m_source_file_index>
1988

> <i_lp_mmshare_version>
43012

> <i_f3d_flags>
0

> <s_epik_input>
W0NIM11jMW5vYyhbQ0gzXSljMVtDSDJdQyg9TylbTkhdW0NIMl1bQ0BASF0oW0NIMl0yKVtDSDJdW0NIMl1TMig9Tyk9Tw==

> <s_epik_cmdline>
J2VwaWtfcHl0aG9uJywgJy1waCcsICc3LjAnLCAnLXRuJywgJzgnLCAnLW1hJywgJzIwMCcsICctbWV0YWxfYmluZGluZycsICctaW1hZScsICc8aW5maWxlLm1hZT4nLCAnLW9tYWUnLCAnPG91dGZpbGUubWFlPic=

> <r_lp_tautomer_probability>
1

> <r_epik_Ionization_Penalty>
2.7503e-08

> <r_epik_Ionization_Penalty_Charging>
0

> <r_epik_Ionization_Penalty_Neutral>
2.7503e-08

> <r_epik_State_Penalty>
-0

> <r_epik_Charging_Adjusted_Penalty>
0

> <i_epik_Tot_Q>
0

> <i_epik_Tot_abs_Q>
0

> <r_epik_Metal_State_Penalty>
-0

> <b_epik_Metal_Only>
0

> <s_lp_Force_Field>
OPLS_2005

> <r_lp_Energy>
-1.59396

> <b_lp_Chiralities_Consistent>
1

> <s_lp_Variant>
AV-unprocessed.smi:1988-2

> <Gold.Version>
5.8.1

> <Gold.Id.Protein>
6NUR|6NUR_protein|mol2

> <Gold.PLP.Fitness>
37.1982

> <Gold.PLP.PLP>
-28.6299

> <Gold.PLP.part.hbond>
-3.0000

> <Gold.PLP.part.metal>
0.0000

> <Gold.PLP.part.buried>
-3.5351

> <Gold.PLP.part.nonpolar>
-23.4011

> <Gold.PLP.part.repulsive>
0.2841

> <Gold.PLP.ligand.clash>
0.0000

> <Gold.PLP.ligand.torsion>
0.2190

> <Gold.PLP.Chemscore.Hbond>
3.0000

> <Gold.PLP.Chemscore.CHOScore>
0.0000

> <Gold.PLP.Chemscore.Metal>
0.0000

> <Gold.Chemscore.Hbonds>
donor molecule, donor type, donor heavy atom, donor atom, acceptor molecule, acceptor atom, score
      P1  H  6896  6907       L1    10  0.45
      P1  H  6931  6943       L1    18  0.77
      P1  H  6934  6947       L1    17  1.00

> <Gold.PLP.Chemscore.Internal.Correction>
0.0063

> <Gold.Rescore>
     Score         DG    S(hbond)    S(metal)    S(lipo)     H(rot)  DE(clash)    DE(int)     intcor
     15.35     -15.78       2.42        0.00      56.09       1.70       0.01       0.42       ----

> <Gold.Chemscore.Fitness>
15.3461

> <Gold.Chemscore.DG>
-15.7766

> <Gold.Chemscore.ZeroCoef>
-5.4800

> <Gold.Chemscore.Hbond>
2.4177

> <Gold.Chemscore.Metal>
0.0000

> <Gold.Chemscore.Lipo>
56.0928

> <Gold.Chemscore.Internal_Hbond>
0.0000

> <Gold.Chemscore.DEClash>
0.0149

> <Gold.Chemscore.DEInternal>
0.4156

> <Gold.Chemscore.Rot>
1.6958

> <Gold.Chemscore.Internal.Correction>
   9.000000E+99

> <Gold.Chemscore.Hbonds>
donor molecule, donor type, donor heavy atom, donor atom, acceptor molecule, acceptor atom, score
      P1  H  6896  6907       L1    10  0.02
      P1  H  6931  6943       L1    18  0.11
      P1  H  6934  6947       L1    17  0.98

> <Gold.Chemscore.Hbond.Weighted>
-8.0750

> <Gold.Chemscore.Metal.Weighted>
-0.0000

> <Gold.Chemscore.Lipo.Weighted>
-6.5629

> <Gold.Chemscore.Internal_Hbond.Weighted>
0.0000

> <Gold.Chemscore.DEClash.Weighted>
0.0149

> <Gold.Chemscore.DEInternal.Weighted>
0.4156

> <Gold.Chemscore.Rot.Weighted>
4.3413

> <Gold.Chemscore.Internal.Correction.Weighted>
   9.000000E+99

> <Gold.Protein.RotatedTorsions>
[ 6907 6896 6895 6894 ] final -163.19 input  -60.11 | X-H torsion
[ 7974 7965 7964 7962 ] final  -77.88 input  175.53 | X-H torsion
[ 8008 7997 7996 7995 ] final  -46.98 input   59.86 | X-H torsion
[ 10167 10162 10161 10158 ] final  -91.96 input  -65.29 | X-H torsion
[ 10718 10713 10712 10709 ] final -146.42 input   66.30 | X-H torsion
[ 10763 10752 10751 10750 ] final  112.90 input  -60.55 | X-H torsion
[ 11005 11000 10999 10996 ] final    5.16 input  -57.11 | X-H torsion

> <Gold.Protein.ActiveResidues>
 VAL166  LYS551  ARG553  GLY616  TRP617  ASP618  TYR619  PRO620  LYS621  CYS622 
 ASP623  PHE694  ASN695  SER759  ASP760  ASP761  ALA762  ILE779  LEU786  VAL792 
 PHE793  MET794  SER795  GLU796  ALA797  LYS798  CYS799  TRP800  GLU811  SER814 

> <Gold.Protein.RotatedAtoms>
  151.3922  133.3785  159.2722 H   0  0  0  0  0  0  0  0  0  0  0  0  # atno 6907 bound_to 6896
  150.9496  134.8899  159.7674 H   0  0  0  0  0  0  0  0  0  0  0  0  # atno 6908 bound_to 6896
  152.5106  134.3877  159.9425 H   0  0  0  0  0  0  0  0  0  0  0  0  # atno 6909 bound_to 6896
  145.5938  140.9423  143.1277 H   0  0  0  0  0  0  0  0  0  0  0  0  # atno 7974 bound_to 7965
  154.4012  140.1358  156.4101 H   0  0  0  0  0  0  0  0  0  0  0  0  # atno 8008 bound_to 7997
  155.7742  140.3483  155.5243 H   0  0  0  0  0  0  0  0  0  0  0  0  # atno 8009 bound_to 7997
  155.8737  140.0976  157.1523 H   0  0  0  0  0  0  0  0  0  0  0  0  # atno 8010 bound_to 7997
  140.3396  143.2949  151.9850 H   0  0  0  0  0  0  0  0  0  0  0  0  # atno 10167 bound_to 10162
  156.3947  130.7903  151.2109 H   0  0  0  0  0  0  0  0  0  0  0  0  # atno 10718 bound_to 10713
  153.4846  135.3672  155.2460 H   0  0  0  0  0  0  0  0  0  0  0  0  # atno 10763 bound_to 10752
  154.8754  135.3962  154.3660 H   0  0  0  0  0  0  0  0  0  0  0  0  # atno 10764 bound_to 10752
  153.4269  135.7081  153.6322 H   0  0  0  0  0  0  0  0  0  0  0  0  # atno 10765 bound_to 10752
  140.5738  134.0077  155.8019 H   0  0  0  0  0  0  0  0  0  0  0  0  # atno 11005 bound_to 11000
  144.7339  139.7642  143.7336 LP  0  0  0  0  0  0  0  0  0  0  0  0  # atno 17320 bound_to 7965
  146.1627  139.4747  142.9978 LP  0  0  0  0  0  0  0  0  0  0  0  0  # atno 17321 bound_to 7965
  139.4842  144.6168  151.7332 LP  0  0  0  0  0  0  0  0  0  0  0  0  # atno 17342 bound_to 10162
  140.5321  144.0713  150.6057 LP  0  0  0  0  0  0  0  0  0  0  0  0  # atno 17343 bound_to 10162
  157.7501  131.0305  150.4139 LP  0  0  0  0  0  0  0  0  0  0  0  0  # atno 17370 bound_to 10713
  156.4407  130.3991  149.6699 LP  0  0  0  0  0  0  0  0  0  0  0  0  # atno 17371 bound_to 10713
  141.1039  133.9724  157.3031 LP  0  0  0  0  0  0  0  0  0  0  0  0  # atno 17394 bound_to 11000
  139.9349  135.0197  156.8523 LP  0  0  0  0  0  0  0  0  0  0  0  0  # atno 17395 bound_to 11000

$$$$
