AV-unprocessed.smi:111|AV-procd|sdf|1079|dock7
  -GOLD-   2262018163D 1   1.00000     0.00000
 Structure written by MMmdl.
 46 48  0  0  0  0  0  0  0  0  1 V2000
  151.7217  137.0104  159.5782 O   0  0  0  0  0  0  0  0  0  0  0  0
  151.3956  137.4674  158.4811 C   0  0  0  0  0  0  0  0  0  0  0  0
  150.0302  137.4243  157.9704 C   0  0  0  0  0  0  0  0  0  0  0  0
  149.0569  136.8805  158.7203 F   0  0  0  0  0  0  0  0  0  0  0  0
  149.7269  137.9169  156.7508 C   0  0  0  0  0  0  0  0  0  0  0  0
  150.6685  138.4871  155.9114 N   0  0  0  0  0  0  0  0  0  0  0  0
  150.2847  139.0063  154.5442 C   0  0  2  0  0  0  0  0  0  0  0  0
  150.5346  140.5159  154.4606 C   0  0  0  0  0  0  0  0  0  0  0  0
  149.1693  141.0776  154.7939 C   0  0  0  0  0  0  0  0  0  0  0  0
  148.2482  140.0363  154.1687 C   0  0  0  0  0  0  0  0  0  0  0  0
  148.9175  138.7902  154.3425 O   0  0  0  0  0  0  0  0  0  0  0  0
  152.0109  138.5994  156.3352 C   0  0  0  0  0  0  0  0  0  0  0  0
  152.8542  139.1339  155.6120 O   0  0  0  0  0  0  0  0  0  0  0  0
  152.3343  138.0749  157.6102 N   0  0  0  0  0  0  0  0  0  0  0  0
  153.7184  138.1336  158.0598 C   0  0  0  0  0  0  0  0  0  0  0  0
  153.9493  139.0696  159.2702 C   0  0  2  0  0  0  0  0  0  0  0  0
  153.6521  138.3422  160.4446 O   0  0  0  0  0  0  0  0  0  0  0  0
  153.1060  140.3674  159.2518 C   0  0  0  0  0  0  0  0  0  0  0  0
  153.5942  141.4452  160.2354 C   0  0  0  0  0  0  0  0  0  0  0  0
  152.9220  142.7921  160.0297 C   0  0  0  0  0  0  0  0  0  0  0  0
  152.7688  143.3244  158.7319 C   0  0  0  0  0  0  0  0  0  0  0  0
  152.1435  144.5729  158.5480 C   0  0  0  0  0  0  0  0  0  0  0  0
  151.6726  145.2965  159.6606 C   0  0  0  0  0  0  0  0  0  0  0  0
  151.8268  144.7706  160.9576 C   0  0  0  0  0  0  0  0  0  0  0  0
  152.4499  143.5211  161.1417 C   0  0  0  0  0  0  0  0  0  0  0  0
  148.6987  137.8547  156.4277 H   0  0  0  0  0  0  0  0  0  0  0  0
  150.8541  138.4212  153.8202 H   0  0  0  0  0  0  0  0  0  0  0  0
  151.3292  140.8447  155.1317 H   0  0  0  0  0  0  0  0  0  0  0  0
  150.8105  140.7658  153.4356 H   0  0  0  0  0  0  0  0  0  0  0  0
  149.0275  141.1104  155.8748 H   0  0  0  0  0  0  0  0  0  0  0  0
  149.0100  142.0807  154.3979 H   0  0  0  0  0  0  0  0  0  0  0  0
  147.2569  140.0245  154.6222 H   0  0  0  0  0  0  0  0  0  0  0  0
  148.1322  140.2250  153.1005 H   0  0  0  0  0  0  0  0  0  0  0  0
  154.0775  137.1229  158.2566 H   0  0  0  0  0  0  0  0  0  0  0  0
  154.2959  138.4635  157.1936 H   0  0  0  0  0  0  0  0  0  0  0  0
  155.0087  139.3136  159.3408 H   0  0  0  0  0  0  0  0  0  0  0  0
  153.8644  138.8796  161.1923 H   0  0  0  0  0  0  0  0  0  0  0  0
  153.0682  140.7940  158.2513 H   0  0  0  0  0  0  0  0  0  0  0  0
  152.0668  140.1332  159.4876 H   0  0  0  0  0  0  0  0  0  0  0  0
  153.3915  141.1198  161.2563 H   0  0  0  0  0  0  0  0  0  0  0  0
  154.6771  141.5554  160.1643 H   0  0  0  0  0  0  0  0  0  0  0  0
  153.1249  142.7749  157.8729 H   0  0  0  0  0  0  0  0  0  0  0  0
  152.0222  144.9739  157.5526 H   0  0  0  0  0  0  0  0  0  0  0  0
  151.1898  146.2521  159.5191 H   0  0  0  0  0  0  0  0  0  0  0  0
  151.4612  145.3222  161.8110 H   0  0  0  0  0  0  0  0  0  0  0  0
  152.5596  143.1205  162.1388 H   0  0  0  0  0  0  0  0  0  0  0  0
  1  2  2  0  0  0  0
  2 14  1  0  0  0  0
  2  3  1  0  0  0  0
  3  4  1  0  0  0  0
  3  5  2  0  0  0  0
  5  6  1  0  0  0  0
  5 26  1  0  0  0  0
  6  7  1  0  0  0  0
  6 12  1  0  0  0  0
  7 11  1  0  0  0  0
  7  8  1  0  0  0  0
  7 27  1  0  0  0  0
  8  9  1  0  0  0  0
  8 28  1  0  0  0  0
  8 29  1  0  0  0  0
  9 10  1  0  0  0  0
  9 30  1  0  0  0  0
  9 31  1  0  0  0  0
 10 11  1  0  0  0  0
 10 32  1  0  0  0  0
 10 33  1  0  0  0  0
 12 13  2  0  0  0  0
 12 14  1  0  0  0  0
 14 15  1  0  0  0  0
 15 16  1  0  0  0  0
 15 34  1  0  0  0  0
 15 35  1  0  0  0  0
 16 17  1  0  0  0  0
 16 18  1  0  0  0  0
 16 36  1  0  0  0  0
 17 37  1  0  0  0  0
 18 19  1  0  0  0  0
 18 38  1  0  0  0  0
 18 39  1  0  0  0  0
 19 20  1  0  0  0  0
 19 40  1  0  0  0  0
 19 41  1  0  0  0  0
 20 25  1  0  0  0  0
 20 21  2  0  0  0  0
 21 22  1  0  0  0  0
 21 42  1  0  0  0  0
 22 23  2  0  0  0  0
 22 43  1  0  0  0  0
 23 24  1  0  0  0  0
 23 44  1  0  0  0  0
 24 25  2  0  0  0  0
 24 45  1  0  0  0  0
 25 46  1  0  0  0  0
M  END
> <s_m_source_file>
AV-unprocessed.smi

> <i_m_source_file_index>
111

> <i_lp_mmshare_version>
43012

> <i_f3d_flags>
0

> <s_epik_input>
TzFbQ0gyXVtDSDJdW0NIMl1bQ0BIXTFuKFtjSF1jKEYpYzI9TyljKD1PKW4yW0NIMl1bQ0BIXShbT0hdKVtDSDJdW0NIMl1jM1tjSF1bY0hdW2NIXVtjSF1bY0hdMw==

> <s_epik_cmdline>
J2VwaWtfcHl0aG9uJywgJy1waCcsICc3LjAnLCAnLXRuJywgJzgnLCAnLW1hJywgJzIwMCcsICctbWV0YWxfYmluZGluZycsICctaW1hZScsICc8aW5maWxlLm1hZT4nLCAnLW9tYWUnLCAnPG91dGZpbGUubWFlPic=

> <r_lp_tautomer_probability>
1

> <r_epik_Ionization_Penalty>
1.88248e-07

> <r_epik_Ionization_Penalty_Charging>
4.03974e-08

> <r_epik_Ionization_Penalty_Neutral>
1.47851e-07

> <r_epik_State_Penalty>
-0

> <r_epik_Charging_Adjusted_Penalty>
4.03974e-08

> <i_epik_Tot_Q>
0

> <i_epik_Tot_abs_Q>
0

> <r_epik_Metal_State_Penalty>
-0

> <b_epik_Metal_Only>
0

> <s_epik_Chemistry_Notes>
This compound contains an acetal/aminal-like group ( X-CH(R)-Y where X, Y are N, S, or O) that may be acid/base labile, releasing an aldehyde.

> <s_lp_Force_Field>
OPLS_2005

> <r_lp_Energy>
34.4162

> <b_lp_Chiralities_Consistent>
1

> <s_lp_Variant>
AV-unprocessed.smi:111-1

> <Gold.Version>
5.8.1

> <Gold.Id.Protein>
6NUR|6NUR_protein|mol2

> <Gold.PLP.Fitness>
52.5332

> <Gold.PLP.PLP>
-47.7242

> <Gold.PLP.part.hbond>
-2.0000

> <Gold.PLP.part.metal>
0.0000

> <Gold.PLP.part.buried>
-2.1352

> <Gold.PLP.part.nonpolar>
-43.5527

> <Gold.PLP.part.repulsive>
0.1758

> <Gold.PLP.ligand.clash>
0.0000

> <Gold.PLP.ligand.torsion>
0.6159

> <Gold.PLP.Chemscore.Hbond>
1.9920

> <Gold.PLP.Chemscore.CHOScore>
0.0000

> <Gold.PLP.Chemscore.Metal>
0.0000

> <Gold.Chemscore.Hbonds>
donor molecule, donor type, donor heavy atom, donor atom, acceptor molecule, acceptor atom, score
      P1  H  6896  6908       L1     1  0.90
      P1  H  7997  8010       L1    13  1.00

> <Gold.PLP.Chemscore.Internal.Correction>
0.0649

> <Gold.Rescore>
     Score         DG    S(hbond)    S(metal)    S(lipo)     H(rot)  DE(clash)    DE(int)     intcor
     16.47     -19.95       1.86        0.00     129.09       2.67       1.64       1.84       ----

> <Gold.Chemscore.Fitness>
16.4697

> <Gold.Chemscore.DG>
-19.9519

> <Gold.Chemscore.ZeroCoef>
-5.4800

> <Gold.Chemscore.Hbond>
1.8605

> <Gold.Chemscore.Metal>
0.0000

> <Gold.Chemscore.Lipo>
129.0946

> <Gold.Chemscore.Internal_Hbond>
0.0000

> <Gold.Chemscore.DEClash>
1.6437

> <Gold.Chemscore.DEInternal>
1.8385

> <Gold.Chemscore.Rot>
2.6743

> <Gold.Chemscore.Internal.Correction>
   9.000000E+99

> <Gold.Chemscore.Hbonds>
donor molecule, donor type, donor heavy atom, donor atom, acceptor molecule, acceptor atom, score
      P1  H  6896  6908       L1     1  0.76
      P1  H  7997  8010       L1    13  1.00

> <Gold.Chemscore.Hbond.Weighted>
-6.2141

> <Gold.Chemscore.Metal.Weighted>
-0.0000

> <Gold.Chemscore.Lipo.Weighted>
-15.1041

> <Gold.Chemscore.Internal_Hbond.Weighted>
0.0000

> <Gold.Chemscore.DEClash.Weighted>
1.6437

> <Gold.Chemscore.DEInternal.Weighted>
1.8385

> <Gold.Chemscore.Rot.Weighted>
6.8463

> <Gold.Chemscore.Internal.Correction.Weighted>
   9.000000E+99

> <Gold.Protein.RotatedTorsions>
[ 6907 6896 6895 6894 ] final -144.66 input  -60.11 | X-H torsion
[ 7974 7965 7964 7962 ] final  140.78 input  175.53 | X-H torsion
[ 8008 7997 7996 7995 ] final   95.94 input   59.86 | X-H torsion
[ 10167 10162 10161 10158 ] final  144.61 input  -65.29 | X-H torsion
[ 10718 10713 10712 10709 ] final  -33.41 input   66.30 | X-H torsion
[ 10763 10752 10751 10750 ] final  -54.38 input  -60.55 | X-H torsion
[ 11005 11000 10999 10996 ] final   91.53 input  -57.11 | X-H torsion

> <Gold.Protein.ActiveResidues>
 VAL166  LYS551  ARG553  GLY616  TRP617  ASP618  TYR619  PRO620  LYS621  CYS622 
 ASP623  PHE694  ASN695  SER759  ASP760  ASP761  ALA762  ILE779  LEU786  VAL792 
 PHE793  MET794  SER795  GLU796  ALA797  LYS798  CYS799  TRP800  GLU811  SER814 

> <Gold.Protein.RotatedAtoms>
  151.1171  133.5131  159.2603 H   0  0  0  0  0  0  0  0  0  0  0  0  # atno 6907 bound_to 6896
  151.1903  135.0399  159.8839 H   0  0  0  0  0  0  0  0  0  0  0  0  # atno 6908 bound_to 6896
  152.5453  134.1012  159.8372 H   0  0  0  0  0  0  0  0  0  0  0  0  # atno 6909 bound_to 6896
  144.9155  139.5236  143.5688 H   0  0  0  0  0  0  0  0  0  0  0  0  # atno 7974 bound_to 7965
  156.0743  140.3279  155.7614 H   0  0  0  0  0  0  0  0  0  0  0  0  # atno 8008 bound_to 7997
  155.5255  140.0589  157.2916 H   0  0  0  0  0  0  0  0  0  0  0  0  # atno 8009 bound_to 7997
  154.4547  140.1936  156.0432 H   0  0  0  0  0  0  0  0  0  0  0  0  # atno 8010 bound_to 7997
  139.4943  144.5960  151.6583 H   0  0  0  0  0  0  0  0  0  0  0  0  # atno 10167 bound_to 10162
  156.3630  130.4327  149.7607 H   0  0  0  0  0  0  0  0  0  0  0  0  # atno 10718 bound_to 10713
  154.1740  135.6454  153.5016 H   0  0  0  0  0  0  0  0  0  0  0  0  # atno 10763 bound_to 10752
  153.0077  135.5390  154.6584 H   0  0  0  0  0  0  0  0  0  0  0  0  # atno 10764 bound_to 10752
  154.5930  135.2936  155.0588 H   0  0  0  0  0  0  0  0  0  0  0  0  # atno 10765 bound_to 10752
  139.8837  134.8679  156.3441 H   0  0  0  0  0  0  0  0  0  0  0  0  # atno 11005 bound_to 11000
  146.3180  139.7995  142.8968 LP  0  0  0  0  0  0  0  0  0  0  0  0  # atno 17320 bound_to 7965
  145.3382  141.0282  143.3407 LP  0  0  0  0  0  0  0  0  0  0  0  0  # atno 17321 bound_to 7965
  140.5598  144.0288  150.6164 LP  0  0  0  0  0  0  0  0  0  0  0  0  # atno 17342 bound_to 10162
  140.3370  143.3043  152.0628 LP  0  0  0  0  0  0  0  0  0  0  0  0  # atno 17343 bound_to 10162
  156.4764  130.8020  151.3037 LP  0  0  0  0  0  0  0  0  0  0  0  0  # atno 17370 bound_to 10713
  157.7475  131.0019  150.2982 LP  0  0  0  0  0  0  0  0  0  0  0  0  # atno 17371 bound_to 10713
  140.9638  133.7371  156.0439 LP  0  0  0  0  0  0  0  0  0  0  0  0  # atno 17394 bound_to 11000
  140.7956  134.3568  157.5453 LP  0  0  0  0  0  0  0  0  0  0  0  0  # atno 17395 bound_to 11000

$$$$
