AV-unprocessed.smi:158|AV-procd|sdf|1331|dock1
  -GOLD-   2262019 23D 1   1.00000     0.00000
 Structure written by MMmdl.
 31 33  0  0  0  0  0  0  0  0  1 V2000
  143.6846  142.7383  154.8902 N   0  0  0  0  0  0  0  0  0  0  0  0
  144.8643  142.5658  155.5026 C   0  0  0  0  0  0  0  0  0  0  0  0
  144.9193  142.7091  156.8470 N   0  0  0  0  0  0  0  0  0  0  0  0
  146.0778  142.5431  157.4961 C   0  0  0  0  0  0  0  0  0  0  0  0
  146.0382  142.7463  159.2077 Cl  0  0  0  0  0  0  0  0  0  0  0  0
  147.2660  142.2366  156.9663 N   0  0  0  0  0  0  0  0  0  0  0  0
  147.2187  142.0917  155.6108 C   0  0  0  0  0  0  0  0  0  0  0  0
  146.0551  142.2395  154.8083 C   0  0  0  0  0  0  0  0  0  0  0  0
  146.3674  142.0202  153.4744 N   0  0  0  0  0  0  0  0  0  0  0  0
  147.6463  141.7572  153.4923 C   0  0  0  0  0  0  0  0  0  0  0  0
  148.2417  141.7805  154.7349 N   0  0  0  0  0  0  0  0  0  0  0  0
  149.6862  141.5259  155.0414 C   0  0  2  0  0  0  0  0  0  0  0  0
  150.0661  140.3045  154.4740 O   0  0  0  0  0  0  0  0  0  0  0  0
  150.6244  139.4499  155.4722 C   0  0  2  0  0  0  0  0  0  0  0  0
  150.3770  137.9773  155.1058 C   0  0  0  0  0  0  0  0  0  0  0  0
  150.6785  137.7482  153.7456 O   0  0  0  0  0  0  0  0  0  0  0  0
  149.9517  139.9201  156.7642 C   0  0  1  0  0  0  0  0  0  0  0  0
  150.6628  139.5758  157.9361 O   0  0  0  0  0  0  0  0  0  0  0  0
  149.9028  141.4232  156.5549 C   0  0  1  0  0  0  0  0  0  0  0  0
  151.0808  141.9883  156.8318 F   0  0  0  0  0  0  0  0  0  0  0  0
  150.2134  142.3609  154.5778 H   0  0  0  0  0  0  0  0  0  0  0  0
  151.6960  139.6558  155.5085 H   0  0  0  0  0  0  0  0  0  0  0  0
  148.9390  139.5237  156.8350 H   0  0  0  0  0  0  0  0  0  0  0  0
  149.1302  141.9372  157.1283 H   0  0  0  0  0  0  0  0  0  0  0  0
  143.6193  142.6355  153.8876 H   0  0  0  0  0  0  0  0  0  0  0  0
  142.8637  142.9677  155.4316 H   0  0  0  0  0  0  0  0  0  0  0  0
  148.1974  141.5398  152.5888 H   0  0  0  0  0  0  0  0  0  0  0  0
  150.9692  137.3067  155.7277 H   0  0  0  0  0  0  0  0  0  0  0  0
  149.3289  137.7246  155.2678 H   0  0  0  0  0  0  0  0  0  0  0  0
  149.9472  137.3010  153.3475 H   0  0  0  0  0  0  0  0  0  0  0  0
  150.2618  138.8063  158.3116 H   0  0  0  0  0  0  0  0  0  0  0  0
  1  2  1  0  0  0  0
  1 25  1  0  0  0  0
  1 26  1  0  0  0  0
  2  8  1  0  0  0  0
  2  3  2  0  0  0  0
  3  4  1  0  0  0  0
  4  5  1  0  0  0  0
  4  6  2  0  0  0  0
  6  7  1  0  0  0  0
  7 11  1  0  0  0  0
  7  8  2  0  0  0  0
  8  9  1  0  0  0  0
  9 10  2  0  0  0  0
 10 11  1  0  0  0  0
 10 27  1  0  0  0  0
 11 12  1  0  0  0  0
 12 21  1  0  0  0  0
 12 19  1  0  0  0  0
 12 13  1  0  0  0  0
 13 14  1  0  0  0  0
 14 22  1  0  0  0  0
 14 15  1  0  0  0  0
 14 17  1  0  0  0  0
 15 16  1  0  0  0  0
 15 28  1  0  0  0  0
 15 29  1  0  0  0  0
 16 30  1  0  0  0  0
 17 23  1  0  0  0  0
 17 18  1  0  0  0  0
 17 19  1  0  0  0  0
 18 31  1  0  0  0  0
 19 24  1  0  0  0  0
 19 20  1  0  0  0  0
M  END
> <s_m_source_file>
AV-unprocessed.smi

> <i_m_source_file_index>
158

> <i_lp_mmshare_version>
43012

> <i_f3d_flags>
0

> <s_epik_input>
Q2xjKG4xKW5jKFtOSDJdKWMoYzEyKW5bY0hdbjJbQ0BASF0zT1tDQEhdKFtDSDJdW09IXSlbQ0BASF0oW09IXSlbQ0BASF0zRg==

> <s_epik_cmdline>
J2VwaWtfcHl0aG9uJywgJy1waCcsICc3LjAnLCAnLXRuJywgJzgnLCAnLW1hJywgJzIwMCcsICctbWV0YWxfYmluZGluZycsICctaW1hZScsICc8aW5maWxlLm1hZT4nLCAnLW9tYWUnLCAnPG91dGZpbGUubWFlPic=

> <r_lp_tautomer_probability>
1

> <r_epik_Ionization_Penalty>
6.51543e-05

> <r_epik_Ionization_Penalty_Charging>
0

> <r_epik_Ionization_Penalty_Neutral>
6.51543e-05

> <r_epik_State_Penalty>
-0

> <r_epik_Charging_Adjusted_Penalty>
0

> <i_epik_Tot_Q>
0

> <i_epik_Tot_abs_Q>
0

> <r_epik_Metal_State_Penalty>
-0

> <b_epik_Metal_Only>
0

> <s_epik_Chemistry_Notes>
This compound contains an acetal/aminal-like group ( X-CH(R)-Y where X, Y are N, S, or O) that may be acid/base labile, releasing an aldehyde.

> <s_lp_Force_Field>
OPLS_2005

> <r_lp_Energy>
33.8646

> <b_lp_Chiralities_Consistent>
1

> <s_lp_Variant>
AV-unprocessed.smi:158-9

> <Gold.Version>
5.8.1

> <Gold.Id.Protein>
6NUR|6NUR_protein|mol2

> <Gold.PLP.Fitness>
36.9481

> <Gold.PLP.PLP>
-26.7127

> <Gold.PLP.part.hbond>
-4.3825

> <Gold.PLP.part.metal>
0.0000

> <Gold.PLP.part.buried>
-2.6290

> <Gold.PLP.part.nonpolar>
-19.9890

> <Gold.PLP.part.repulsive>
0.5270

> <Gold.PLP.ligand.clash>
0.0000

> <Gold.PLP.ligand.torsion>
0.2628

> <Gold.PLP.Chemscore.Hbond>
2.5848

> <Gold.PLP.Chemscore.CHOScore>
1.0000

> <Gold.PLP.Chemscore.Metal>
0.0000

> <Gold.Chemscore.Hbonds>
donor molecule, donor type, donor heavy atom, donor atom, acceptor molecule, acceptor atom, score
      L1  H     1    25       P1 10174  0.65
      L1  H    16    30       P1  7948  0.98
      P1  H  7989  7998       L1    13  0.91
      L1  C    10    27       P1  7957  1.00

> <Gold.PLP.Chemscore.Internal.Correction>
0.0067

> <Gold.Rescore>
     Score         DG    S(hbond)    S(metal)    S(lipo)     H(rot)  DE(clash)    DE(int)     intcor
      1.12      -2.74       0.65        0.00      26.24       3.12       0.03       1.58       ----

> <Gold.Chemscore.Fitness>
1.1246

> <Gold.Chemscore.DG>
-2.7404

> <Gold.Chemscore.ZeroCoef>
-5.4800

> <Gold.Chemscore.Hbond>
0.6544

> <Gold.Chemscore.Metal>
0.0000

> <Gold.Chemscore.Lipo>
26.2357

> <Gold.Chemscore.Internal_Hbond>
0.0000

> <Gold.Chemscore.DEClash>
0.0346

> <Gold.Chemscore.DEInternal>
1.5812

> <Gold.Chemscore.Rot>
3.1230

> <Gold.Chemscore.Internal.Correction>
   9.000000E+99

> <Gold.Chemscore.Hbonds>
donor molecule, donor type, donor heavy atom, donor atom, acceptor molecule, acceptor atom, score
      L1  H     1    25       P1 10174  0.05
      L1  H    16    30       P1  7948  0.36
      P1  H  7989  7998       L1    13  0.08

> <Gold.Chemscore.Hbond.Weighted>
-2.1858

> <Gold.Chemscore.Metal.Weighted>
-0.0000

> <Gold.Chemscore.Lipo.Weighted>
-3.0696

> <Gold.Chemscore.Internal_Hbond.Weighted>
0.0000

> <Gold.Chemscore.DEClash.Weighted>
0.0346

> <Gold.Chemscore.DEInternal.Weighted>
1.5812

> <Gold.Chemscore.Rot.Weighted>
7.9950

> <Gold.Chemscore.Internal.Correction.Weighted>
   9.000000E+99

> <Gold.Protein.RotatedTorsions>
[ 6907 6896 6895 6894 ] final  147.84 input  -60.11 | X-H torsion
[ 7974 7965 7964 7962 ] final  127.77 input  175.53 | X-H torsion
[ 8008 7997 7996 7995 ] final   32.23 input   59.86 | X-H torsion
[ 10167 10162 10161 10158 ] final  -91.69 input  -65.29 | X-H torsion
[ 10718 10713 10712 10709 ] final  152.55 input   66.30 | X-H torsion
[ 10763 10752 10751 10750 ] final   49.33 input  -60.55 | X-H torsion
[ 11005 11000 10999 10996 ] final    2.86 input  -57.11 | X-H torsion

> <Gold.Protein.ActiveResidues>
 VAL166  LYS551  ARG553  GLY616  TRP617  ASP618  TYR619  PRO620  LYS621  CYS622 
 ASP623  PHE694  ASN695  SER759  ASP760  ASP761  ALA762  ILE779  LEU786  VAL792 
 PHE793  MET794  SER795  GLU796  ALA797  LYS798  CYS799  TRP800  GLU811  SER814 

> <Gold.Protein.RotatedAtoms>
  152.1494  133.4512  159.4805 H   0  0  0  0  0  0  0  0  0  0  0  0  # atno 6907 bound_to 6896
  150.6894  134.2208  159.4405 H   0  0  0  0  0  0  0  0  0  0  0  0  # atno 6908 bound_to 6896
  152.0104  134.9879  160.0618 H   0  0  0  0  0  0  0  0  0  0  0  0  # atno 6909 bound_to 6896
  145.0469  139.3915  143.5073 H   0  0  0  0  0  0  0  0  0  0  0  0  # atno 7974 bound_to 7965
  155.1192  140.3246  155.4501 H   0  0  0  0  0  0  0  0  0  0  0  0  # atno 8008 bound_to 7997
  156.2668  140.2030  156.6263 H   0  0  0  0  0  0  0  0  0  0  0  0  # atno 8009 bound_to 7997
  154.6697  140.0538  157.0138 H   0  0  0  0  0  0  0  0  0  0  0  0  # atno 8010 bound_to 7997
  140.3424  143.2935  151.9820 H   0  0  0  0  0  0  0  0  0  0  0  0  # atno 10167 bound_to 10162
  157.2563  131.0789  151.1696 H   0  0  0  0  0  0  0  0  0  0  0  0  # atno 10718 bound_to 10713
  152.9787  135.5915  154.4072 H   0  0  0  0  0  0  0  0  0  0  0  0  # atno 10763 bound_to 10752
  154.3711  135.2767  155.2268 H   0  0  0  0  0  0  0  0  0  0  0  0  # atno 10764 bound_to 10752
  154.4223  135.6056  153.6072 H   0  0  0  0  0  0  0  0  0  0  0  0  # atno 10765 bound_to 10752
  140.5996  133.9848  155.8126 H   0  0  0  0  0  0  0  0  0  0  0  0  # atno 11005 bound_to 11000
  146.3514  140.0099  142.8668 LP  0  0  0  0  0  0  0  0  0  0  0  0  # atno 17320 bound_to 7965
  145.1576  140.9656  143.4396 LP  0  0  0  0  0  0  0  0  0  0  0  0  # atno 17321 bound_to 7965
  139.4838  144.6146  151.7370 LP  0  0  0  0  0  0  0  0  0  0  0  0  # atno 17342 bound_to 10162
  140.5297  144.0750  150.6049 LP  0  0  0  0  0  0  0  0  0  0  0  0  # atno 17343 bound_to 10162
  157.3223  130.6943  149.6276 LP  0  0  0  0  0  0  0  0  0  0  0  0  # atno 17370 bound_to 10713
  155.9665  130.4331  150.4994 LP  0  0  0  0  0  0  0  0  0  0  0  0  # atno 17371 bound_to 10713
  141.0881  133.9959  157.3281 LP  0  0  0  0  0  0  0  0  0  0  0  0  # atno 17394 bound_to 11000
  139.9238  135.0201  156.8161 LP  0  0  0  0  0  0  0  0  0  0  0  0  # atno 17395 bound_to 11000

$$$$
