AV-unprocessed.smi:2310|AV-procd|sdf|9255|dock1
  -GOLD-   2272012473D 1   1.00000     0.00000
 Structure written by MMmdl.
 45 46  0  0  0  0  0  0  0  0  1 V2000
  149.4080  132.0557  153.1117 C   0  0  0  0  0  0  0  0  0  0  0  0
  149.3737  133.5806  153.2897 C   0  0  0  0  0  0  0  0  0  0  0  0
  150.4232  134.1109  154.2838 C   0  0  2  0  0  0  0  0  0  0  0  0
  150.2661  133.4563  155.6653 C   0  0  0  0  0  0  0  0  0  0  0  0
  151.5492  133.1014  156.2931 C   0  0  0  0  0  0  0  0  0  0  0  0
  152.5578  132.8230  156.7862 N   0  0  0  0  0  0  0  0  0  0  0  0
  150.3047  135.5639  154.4072 N   0  0  0  0  0  0  0  0  0  0  0  0
  150.8798  136.3221  155.3519 C   0  0  0  0  0  0  0  0  0  0  0  0
  151.5830  135.8708  156.2554 O   0  0  0  0  0  0  0  0  0  0  0  0
  150.6008  137.6224  155.1603 N   0  0  0  0  0  0  0  0  0  0  0  0
  151.0492  138.7436  155.9129 C   0  0  0  0  0  0  0  0  0  0  0  0
  151.9677  138.6441  156.9842 C   0  0  0  0  0  0  0  0  0  0  0  0
  152.3368  139.8089  157.6830 C   0  0  0  0  0  0  0  0  0  0  0  0
  151.7689  141.0479  157.3056 C   0  0  0  0  0  0  0  0  0  0  0  0
  152.1128  142.2400  157.9739 N   0  0  0  0  0  0  0  0  0  0  0  0
  152.9917  142.2445  159.1353 C   0  0  0  0  0  0  0  0  0  0  0  0
  152.6047  143.4893  159.9426 C   0  0  0  0  0  0  0  0  0  0  0  0
  151.8987  144.3895  158.9286 C   0  0  0  0  0  0  0  0  0  0  0  0
  151.2232  143.3911  157.9903 C   0  0  0  0  0  0  0  0  0  0  0  0
  150.8835  141.1415  156.2861 N   0  0  0  0  0  0  0  0  0  0  0  0
  150.5293  140.0248  155.6143 C   0  0  0  0  0  0  0  0  0  0  0  0
  149.5283  140.2325  154.4916 C   0  0  0  0  0  0  0  0  0  0  0  0
  148.6113  131.7261  152.4448 H   0  0  0  0  0  0  0  0  0  0  0  0
  149.2737  131.5463  154.0664 H   0  0  0  0  0  0  0  0  0  0  0  0
  150.3538  131.7223  152.6838 H   0  0  0  0  0  0  0  0  0  0  0  0
  149.5077  134.0609  152.3195 H   0  0  0  0  0  0  0  0  0  0  0  0
  148.3797  133.8680  153.6343 H   0  0  0  0  0  0  0  0  0  0  0  0
  151.4078  133.8400  153.8984 H   0  0  0  0  0  0  0  0  0  0  0  0
  149.7265  134.1155  156.3459 H   0  0  0  0  0  0  0  0  0  0  0  0
  149.6853  132.5373  155.5828 H   0  0  0  0  0  0  0  0  0  0  0  0
  149.7480  136.0304  153.7061 H   0  0  0  0  0  0  0  0  0  0  0  0
  150.0757  137.8444  154.3275 H   0  0  0  0  0  0  0  0  0  0  0  0
  152.3868  137.6985  157.2916 H   0  0  0  0  0  0  0  0  0  0  0  0
  153.0475  139.7346  158.4924 H   0  0  0  0  0  0  0  0  0  0  0  0
  152.8855  141.3421  159.7385 H   0  0  0  0  0  0  0  0  0  0  0  0
  154.0250  142.3100  158.7934 H   0  0  0  0  0  0  0  0  0  0  0  0
  151.9028  143.2102  160.7295 H   0  0  0  0  0  0  0  0  0  0  0  0
  153.4615  143.9708  160.4145 H   0  0  0  0  0  0  0  0  0  0  0  0
  151.1938  145.0827  159.3887 H   0  0  0  0  0  0  0  0  0  0  0  0
  152.6371  144.9740  158.3782 H   0  0  0  0  0  0  0  0  0  0  0  0
  151.0831  143.8078  156.9922 H   0  0  0  0  0  0  0  0  0  0  0  0
  150.2495  143.0930  158.3815 H   0  0  0  0  0  0  0  0  0  0  0  0
  149.9530  139.9089  153.5409 H   0  0  0  0  0  0  0  0  0  0  0  0
  149.2464  141.2818  154.3949 H   0  0  0  0  0  0  0  0  0  0  0  0
  148.6216  139.6567  154.6795 H   0  0  0  0  0  0  0  0  0  0  0  0
  1  2  1  0  0  0  0
  1 23  1  0  0  0  0
  1 24  1  0  0  0  0
  1 25  1  0  0  0  0
  2  3  1  0  0  0  0
  2 26  1  0  0  0  0
  2 27  1  0  0  0  0
  3  4  1  0  0  0  0
  3  7  1  0  0  0  0
  3 28  1  0  0  0  0
  4  5  1  0  0  0  0
  4 29  1  0  0  0  0
  4 30  1  0  0  0  0
  5  6  3  0  0  0  0
  7  8  1  0  0  0  0
  7 31  1  0  0  0  0
  8  9  2  0  0  0  0
  8 10  1  0  0  0  0
 10 11  1  0  0  0  0
 10 32  1  0  0  0  0
 11 21  1  0  0  0  0
 11 12  2  0  0  0  0
 12 13  1  0  0  0  0
 12 33  1  0  0  0  0
 13 14  2  0  0  0  0
 13 34  1  0  0  0  0
 14 15  1  0  0  0  0
 14 20  1  0  0  0  0
 15 19  1  0  0  0  0
 15 16  1  0  0  0  0
 16 17  1  0  0  0  0
 16 35  1  0  0  0  0
 16 36  1  0  0  0  0
 17 18  1  0  0  0  0
 17 37  1  0  0  0  0
 17 38  1  0  0  0  0
 18 19  1  0  0  0  0
 18 39  1  0  0  0  0
 18 40  1  0  0  0  0
 19 41  1  0  0  0  0
 19 42  1  0  0  0  0
 20 21  2  0  0  0  0
 21 22  1  0  0  0  0
 22 43  1  0  0  0  0
 22 44  1  0  0  0  0
 22 45  1  0  0  0  0
M  END
> <s_m_source_file>
AV-unprocessed.smi

> <i_m_source_file_index>
2310

> <i_lp_mmshare_version>
43012

> <i_f3d_flags>
0

> <s_epik_input>
TiNDW0NIMl1bQ0BASF0oW0NIMl1bQ0gzXSlbTkhdQyg9TylbTkhdYzFbY0hdW2NIXWMobmMxW0NIM10pTjJbQ0gyXVtDSDJdW0NIMl1bQ0gyXTI=

> <s_epik_cmdline>
J2VwaWtfcHl0aG9uJywgJy1waCcsICc3LjAnLCAnLXRuJywgJzgnLCAnLW1hJywgJzIwMCcsICctbWV0YWxfYmluZGluZycsICctaW1hZScsICc8aW5maWxlLm1hZT4nLCAnLW9tYWUnLCAnPG91dGZpbGUubWFlPic=

> <r_lp_tautomer_probability>
1

> <r_epik_Ionization_Penalty>
0.281354

> <r_epik_Ionization_Penalty_Charging>
0

> <r_epik_Ionization_Penalty_Neutral>
0.281354

> <r_epik_State_Penalty>
0.273364

> <r_epik_Charging_Adjusted_Penalty>
0.273364

> <i_epik_Tot_Q>
0

> <i_epik_Tot_abs_Q>
0

> <r_epik_Metal_State_Penalty>
0.18752

> <b_epik_Metal_Only>
0

> <s_lp_Force_Field>
OPLS_2005

> <r_lp_Energy>
30.6963

> <b_lp_Chiralities_Consistent>
1

> <s_lp_Variant>
AV-unprocessed.smi:2310-1

> <Gold.Version>
5.8.1

> <Gold.Id.Protein>
6NUR|6NUR_protein|mol2

> <Gold.PLP.Fitness>
43.8651

> <Gold.PLP.PLP>
-39.5180

> <Gold.PLP.part.hbond>
-2.0000

> <Gold.PLP.part.metal>
0.0000

> <Gold.PLP.part.buried>
-3.7441

> <Gold.PLP.part.nonpolar>
-33.5365

> <Gold.PLP.part.repulsive>
0.1246

> <Gold.PLP.ligand.clash>
0.0000

> <Gold.PLP.ligand.torsion>
0.8858

> <Gold.PLP.Chemscore.Hbond>
1.9353

> <Gold.PLP.Chemscore.CHOScore>
0.0000

> <Gold.PLP.Chemscore.Metal>
0.0000

> <Gold.Chemscore.Hbonds>
donor molecule, donor type, donor heavy atom, donor atom, acceptor molecule, acceptor atom, score
      L1  H     7    31       P1  7948  0.95
      P1  H 10752 10763       L1     9  0.91

> <Gold.PLP.Chemscore.Internal.Correction>
0.3129

> <Gold.Rescore>
     Score         DG    S(hbond)    S(metal)    S(lipo)     H(rot)  DE(clash)    DE(int)     intcor
     13.50     -18.71       1.85        0.00      92.06       1.45       0.19       5.02       ----

> <Gold.Chemscore.Fitness>
13.5001

> <Gold.Chemscore.DG>
-18.7129

> <Gold.Chemscore.ZeroCoef>
-5.4800

> <Gold.Chemscore.Hbond>
1.8478

> <Gold.Chemscore.Metal>
0.0000

> <Gold.Chemscore.Lipo>
92.0617

> <Gold.Chemscore.Internal_Hbond>
0.0000

> <Gold.Chemscore.DEClash>
0.1947

> <Gold.Chemscore.DEInternal>
5.0180

> <Gold.Chemscore.Rot>
1.4492

> <Gold.Chemscore.Internal.Correction>
   9.000000E+99

> <Gold.Chemscore.Hbonds>
donor molecule, donor type, donor heavy atom, donor atom, acceptor molecule, acceptor atom, score
      L1  H     7    31       P1  7948  0.20
      P1  H 10752 10763       L1     9  0.20

> <Gold.Chemscore.Hbond.Weighted>
-6.1717

> <Gold.Chemscore.Metal.Weighted>
-0.0000

> <Gold.Chemscore.Lipo.Weighted>
-10.7712

> <Gold.Chemscore.Internal_Hbond.Weighted>
0.0000

> <Gold.Chemscore.DEClash.Weighted>
0.1947

> <Gold.Chemscore.DEInternal.Weighted>
5.0180

> <Gold.Chemscore.Rot.Weighted>
3.7100

> <Gold.Chemscore.Internal.Correction.Weighted>
   9.000000E+99

> <Gold.Protein.RotatedTorsions>
[ 6907 6896 6895 6894 ] final -158.25 input  -60.11 | X-H torsion
[ 7974 7965 7964 7962 ] final   72.28 input  175.53 | X-H torsion
[ 8008 7997 7996 7995 ] final -176.30 input   59.86 | X-H torsion
[ 10167 10162 10161 10158 ] final  -95.66 input  -65.29 | X-H torsion
[ 10718 10713 10712 10709 ] final  -35.97 input   66.30 | X-H torsion
[ 10763 10752 10751 10750 ] final  100.55 input  -60.55 | X-H torsion
[ 11005 11000 10999 10996 ] final  -20.02 input  -57.11 | X-H torsion

> <Gold.Protein.ActiveResidues>
 VAL166  LYS551  ARG553  GLY616  TRP617  ASP618  TYR619  PRO620  LYS621  CYS622 
 ASP623  PHE694  ASN695  SER759  ASP760  ASP761  ALA762  ILE779  LEU786  VAL792 
 PHE793  MET794  SER795  GLU796  ALA797  LYS798  CYS799  TRP800  GLU811  SER814 

> <Gold.Protein.RotatedAtoms>
  151.3153  133.4063  159.2649 H   0  0  0  0  0  0  0  0  0  0  0  0  # atno 6907 bound_to 6896
  151.0080  134.9375  159.8001 H   0  0  0  0  0  0  0  0  0  0  0  0  # atno 6908 bound_to 6896
  152.5293  134.3117  159.9168 H   0  0  0  0  0  0  0  0  0  0  0  0  # atno 6909 bound_to 6896
  145.7554  139.2777  143.1407 H   0  0  0  0  0  0  0  0  0  0  0  0  # atno 7974 bound_to 7965
  155.9931  140.1205  157.0619 H   0  0  0  0  0  0  0  0  0  0  0  0  # atno 8008 bound_to 7997
  154.4218  140.1121  156.5662 H   0  0  0  0  0  0  0  0  0  0  0  0  # atno 8009 bound_to 7997
  155.6315  140.3473  155.4686 H   0  0  0  0  0  0  0  0  0  0  0  0  # atno 8010 bound_to 7997
  140.3019  143.3157  152.0240 H   0  0  0  0  0  0  0  0  0  0  0  0  # atno 10167 bound_to 10162
  156.3323  130.4281  149.7861 H   0  0  0  0  0  0  0  0  0  0  0  0  # atno 10718 bound_to 10713
  153.3154  135.4075  155.1372 H   0  0  0  0  0  0  0  0  0  0  0  0  # atno 10763 bound_to 10752
  154.8587  135.3574  154.5667 H   0  0  0  0  0  0  0  0  0  0  0  0  # atno 10764 bound_to 10752
  153.6098  135.7068  153.5410 H   0  0  0  0  0  0  0  0  0  0  0  0  # atno 10765 bound_to 10752
  140.8424  133.7917  155.9875 H   0  0  0  0  0  0  0  0  0  0  0  0  # atno 11005 bound_to 11000
  146.0316  140.8252  142.9873 LP  0  0  0  0  0  0  0  0  0  0  0  0  # atno 17320 bound_to 7965
  144.6841  140.2778  143.7296 LP  0  0  0  0  0  0  0  0  0  0  0  0  # atno 17321 bound_to 7965
  139.4913  144.6450  151.6798 LP  0  0  0  0  0  0  0  0  0  0  0  0  # atno 17342 bound_to 10162
  140.5644  144.0215  150.6185 LP  0  0  0  0  0  0  0  0  0  0  0  0  # atno 17343 bound_to 10162
  156.5128  130.8180  151.3175 LP  0  0  0  0  0  0  0  0  0  0  0  0  # atno 17370 bound_to 10713
  157.7432  130.9908  150.2579 LP  0  0  0  0  0  0  0  0  0  0  0  0  # atno 17371 bound_to 10713
  140.8881  134.2529  157.5109 LP  0  0  0  0  0  0  0  0  0  0  0  0  # atno 17394 bound_to 11000
  139.8703  134.9648  156.4507 LP  0  0  0  0  0  0  0  0  0  0  0  0  # atno 17395 bound_to 11000

$$$$
