AV-unprocessed.smi:15|AV-procd|sdf|84|dock8
  -GOLD-   2262015223D 1   1.00000     0.00000
 Structure written by MMmdl.
 53 56  0  0  0  0  0  0  0  0  1 V2000
  152.4583  139.9886  158.2634 C   0  0  0  0  0  0  0  0  0  0  0  0
  151.9306  140.4829  156.9104 C   0  0  0  0  0  0  0  0  0  0  0  0
  150.8389  141.4460  157.0503 N   0  0  0  0  0  0  0  0  0  0  0  0
  150.4843  141.9629  158.3739 C   0  0  0  0  0  0  0  0  0  0  0  0
  151.5474  142.9116  158.9631 C   0  0  1  0  0  0  0  0  0  0  0  0
  151.5526  144.2989  158.3244 C   0  0  0  0  0  0  0  0  0  0  0  0
  152.1303  145.1950  159.4107 C   0  0  0  0  0  0  0  0  0  0  0  0
  152.0668  144.3363  160.6765 C   0  0  0  0  0  0  0  0  0  0  0  0
  151.2616  143.2242  160.3182 O   0  0  0  0  0  0  0  0  0  0  0  0
  149.7800  141.3012  156.2181 C   0  0  0  0  0  0  0  0  0  0  0  0
  150.0142  140.7562  154.9975 N   0  0  0  0  0  0  0  0  0  0  0  0
  149.0189  140.6320  154.1151 C   0  0  0  0  0  0  0  0  0  0  0  0
  147.7418  140.9974  154.2404 N   0  0  0  0  0  0  0  0  0  0  0  0
  147.5046  141.5582  155.4608 C   0  0  0  0  0  0  0  0  0  0  0  0
  148.4535  141.7355  156.5067 C   0  0  0  0  0  0  0  0  0  0  0  0
  147.8434  142.3469  157.5965 N   0  0  0  0  0  0  0  0  0  0  0  0
  146.6074  142.5189  157.2168 C   0  0  0  0  0  0  0  0  0  0  0  0
  146.3229  142.0980  155.9376 N   0  0  0  0  0  0  0  0  0  0  0  0
  145.0442  142.1925  155.2515 C   0  0  0  0  0  0  0  0  0  0  0  0
  143.8972  142.8100  156.0944 C   0  0  1  0  0  0  0  0  0  0  0  0
  142.7273  142.7070  155.3005 O   0  0  0  0  0  0  0  0  0  0  0  0
  143.6373  142.1266  157.4298 C   0  0  0  0  0  0  0  0  0  0  0  0
  142.8434  143.1800  158.1958 C   0  0  0  0  0  0  0  0  0  0  0  0
  143.3431  144.4344  157.7464 O   0  0  0  0  0  0  0  0  0  0  0  0
  144.1064  144.2711  156.5522 C   0  0  2  0  0  0  0  0  0  0  0  0
  143.7744  145.3656  155.5264 C   0  0  0  0  0  0  0  0  0  0  0  0
  153.3166  139.3317  158.1225 H   0  0  0  0  0  0  0  0  0  0  0  0
  151.7044  139.4245  158.8118 H   0  0  0  0  0  0  0  0  0  0  0  0
  152.7787  140.8224  158.8886 H   0  0  0  0  0  0  0  0  0  0  0  0
  152.7575  140.9449  156.3691 H   0  0  0  0  0  0  0  0  0  0  0  0
  151.6009  139.6339  156.3117 H   0  0  0  0  0  0  0  0  0  0  0  0
  149.5379  142.4959  158.2922 H   0  0  0  0  0  0  0  0  0  0  0  0
  150.2953  141.1385  159.0630 H   0  0  0  0  0  0  0  0  0  0  0  0
  152.5459  142.4769  158.8936 H   0  0  0  0  0  0  0  0  0  0  0  0
  152.1266  144.3315  157.3982 H   0  0  0  0  0  0  0  0  0  0  0  0
  150.5325  144.6127  158.0985 H   0  0  0  0  0  0  0  0  0  0  0  0
  153.1590  145.4821  159.1911 H   0  0  0  0  0  0  0  0  0  0  0  0
  151.5411  146.1068  159.5134 H   0  0  0  0  0  0  0  0  0  0  0  0
  153.0612  143.9835  160.9536 H   0  0  0  0  0  0  0  0  0  0  0  0
  151.6444  144.8699  161.5281 H   0  0  0  0  0  0  0  0  0  0  0  0
  149.2861  140.1830  153.1699 H   0  0  0  0  0  0  0  0  0  0  0  0
  145.8683  142.9777  157.8574 H   0  0  0  0  0  0  0  0  0  0  0  0
  145.1935  142.7779  154.3432 H   0  0  0  0  0  0  0  0  0  0  0  0
  144.7656  141.1905  154.9216 H   0  0  0  0  0  0  0  0  0  0  0  0
  142.9854  142.4931  154.4169 H   0  0  0  0  0  0  0  0  0  0  0  0
  143.1123  141.1748  157.3407 H   0  0  0  0  0  0  0  0  0  0  0  0
  144.5692  141.9445  157.9637 H   0  0  0  0  0  0  0  0  0  0  0  0
  141.7836  143.1169  157.9464 H   0  0  0  0  0  0  0  0  0  0  0  0
  142.9431  143.0752  159.2763 H   0  0  0  0  0  0  0  0  0  0  0  0
  145.1394  144.4048  156.8705 H   0  0  0  0  0  0  0  0  0  0  0  0
  144.3522  145.2327  154.6117 H   0  0  0  0  0  0  0  0  0  0  0  0
  144.0105  146.3516  155.9268 H   0  0  0  0  0  0  0  0  0  0  0  0
  142.7170  145.3648  155.2617 H   0  0  0  0  0  0  0  0  0  0  0  0
  1  2  1  0  0  0  0
  1 27  1  0  0  0  0
  1 28  1  0  0  0  0
  1 29  1  0  0  0  0
  2  3  1  0  0  0  0
  2 30  1  0  0  0  0
  2 31  1  0  0  0  0
  3  4  1  0  0  0  0
  3 10  1  0  0  0  0
  4  5  1  0  0  0  0
  4 32  1  0  0  0  0
  4 33  1  0  0  0  0
  5  9  1  0  0  0  0
  5  6  1  0  0  0  0
  5 34  1  0  0  0  0
  6  7  1  0  0  0  0
  6 35  1  0  0  0  0
  6 36  1  0  0  0  0
  7  8  1  0  0  0  0
  7 37  1  0  0  0  0
  7 38  1  0  0  0  0
  8  9  1  0  0  0  0
  8 39  1  0  0  0  0
  8 40  1  0  0  0  0
 10 15  1  0  0  0  0
 10 11  2  0  0  0  0
 11 12  1  0  0  0  0
 12 13  2  0  0  0  0
 12 41  1  0  0  0  0
 13 14  1  0  0  0  0
 14 18  1  0  0  0  0
 14 15  2  0  0  0  0
 15 16  1  0  0  0  0
 16 17  2  0  0  0  0
 17 18  1  0  0  0  0
 17 42  1  0  0  0  0
 18 19  1  0  0  0  0
 19 20  1  0  0  0  0
 19 43  1  0  0  0  0
 19 44  1  0  0  0  0
 20 25  1  0  0  0  0
 20 21  1  0  0  0  0
 20 22  1  0  0  0  0
 21 45  1  0  0  0  0
 22 23  1  0  0  0  0
 22 46  1  0  0  0  0
 22 47  1  0  0  0  0
 23 24  1  0  0  0  0
 23 48  1  0  0  0  0
 23 49  1  0  0  0  0
 24 25  1  0  0  0  0
 25 26  1  0  0  0  0
 25 50  1  0  0  0  0
 26 51  1  0  0  0  0
 26 52  1  0  0  0  0
 26 53  1  0  0  0  0
M  END
> <s_m_source_file>
AV-unprocessed.smi

> <i_m_source_file_index>
15

> <i_lp_mmshare_version>
43012

> <i_f3d_flags>
0

> <s_epik_input>
TzFbQ0gyXVtDSDJdW0NIMl1bQ0BIXTFbQ0gyXU4oW0NIMl1bQ0gzXSljKG5bY0hdbjIpYyhjMjMpbltjSF1uM1tDSDJdW0NAQF00KFtPSF0pW0NIMl1bQ0gyXU9bQ0BIXTRbQ0gzXQ==

> <s_epik_cmdline>
J2VwaWtfcHl0aG9uJywgJy1waCcsICc3LjAnLCAnLXRuJywgJzgnLCAnLW1hJywgJzIwMCcsICctbWV0YWxfYmluZGluZycsICctaW1hZScsICc8aW5maWxlLm1hZT4nLCAnLW9tYWUnLCAnPG91dGZpbGUubWFlPic=

> <r_lp_tautomer_probability>
1

> <r_epik_Ionization_Penalty>
0.00360814

> <r_epik_Ionization_Penalty_Charging>
0

> <r_epik_Ionization_Penalty_Neutral>
0.00360814

> <r_epik_State_Penalty>
0.00237482

> <r_epik_Charging_Adjusted_Penalty>
0.00237482

> <i_epik_Tot_Q>
0

> <i_epik_Tot_abs_Q>
0

> <r_epik_Metal_State_Penalty>
-0

> <b_epik_Metal_Only>
0

> <s_lp_Force_Field>
OPLS_2005

> <r_lp_Energy>
47.1955

> <b_lp_Chiralities_Consistent>
1

> <s_lp_Variant>
AV-unprocessed.smi:15-6

> <Gold.Version>
5.8.1

> <Gold.Id.Protein>
6NUR|6NUR_protein|mol2

> <Gold.PLP.Fitness>
46.0095

> <Gold.PLP.PLP>
-39.1703

> <Gold.PLP.part.hbond>
-2.2866

> <Gold.PLP.part.metal>
0.0000

> <Gold.PLP.part.buried>
-4.6537

> <Gold.PLP.part.nonpolar>
-33.2436

> <Gold.PLP.part.repulsive>
1.2936

> <Gold.PLP.ligand.clash>
0.0000

> <Gold.PLP.ligand.torsion>
0.6228

> <Gold.PLP.Chemscore.Hbond>
1.4028

> <Gold.PLP.Chemscore.CHOScore>
0.9963

> <Gold.PLP.Chemscore.Metal>
0.0000

> <Gold.Chemscore.Hbonds>
donor molecule, donor type, donor heavy atom, donor atom, acceptor molecule, acceptor atom, score
      L1  H    21    45       P1 10174  0.32
      P1  H  7989  7998       L1    11  0.38
      L1  C    12    41       P1  7957  1.00

> <Gold.PLP.Chemscore.Internal.Correction>
0.8874

> <Gold.Rescore>
     Score         DG    S(hbond)    S(metal)    S(lipo)     H(rot)  DE(clash)    DE(int)     intcor
      8.82     -13.79       1.42        0.00      83.95       2.44       1.62       3.35       ----

> <Gold.Chemscore.Fitness>
8.8224

> <Gold.Chemscore.DG>
-13.7897

> <Gold.Chemscore.ZeroCoef>
-5.4800

> <Gold.Chemscore.Hbond>
1.4198

> <Gold.Chemscore.Metal>
0.0000

> <Gold.Chemscore.Lipo>
83.9486

> <Gold.Chemscore.Internal_Hbond>
0.0000

> <Gold.Chemscore.DEClash>
1.6162

> <Gold.Chemscore.DEInternal>
3.3511

> <Gold.Chemscore.Rot>
2.4431

> <Gold.Chemscore.Internal.Correction>
   9.000000E+99

> <Gold.Chemscore.Hbonds>
donor molecule, donor type, donor heavy atom, donor atom, acceptor molecule, acceptor atom, score
      L1  H    21    45       P1 10174  0.11
      P1  H  7989  7998       L1    11  0.06

> <Gold.Chemscore.Hbond.Weighted>
-4.7421

> <Gold.Chemscore.Metal.Weighted>
-0.0000

> <Gold.Chemscore.Lipo.Weighted>
-9.8220

> <Gold.Chemscore.Internal_Hbond.Weighted>
0.0000

> <Gold.Chemscore.DEClash.Weighted>
1.6162

> <Gold.Chemscore.DEInternal.Weighted>
3.3511

> <Gold.Chemscore.Rot.Weighted>
6.2544

> <Gold.Chemscore.Internal.Correction.Weighted>
   9.000000E+99

> <Gold.Protein.RotatedTorsions>
[ 6907 6896 6895 6894 ] final   19.49 input  -60.11 | X-H torsion
[ 7974 7965 7964 7962 ] final   94.89 input  175.53 | X-H torsion
[ 8008 7997 7996 7995 ] final   72.62 input   59.86 | X-H torsion
[ 10167 10162 10161 10158 ] final   -1.90 input  -65.29 | X-H torsion
[ 10718 10713 10712 10709 ] final   48.65 input   66.30 | X-H torsion
[ 10763 10752 10751 10750 ] final  -71.90 input  -60.55 | X-H torsion
[ 11005 11000 10999 10996 ] final -168.26 input  -57.11 | X-H torsion

> <Gold.Protein.ActiveResidues>
 VAL166  LYS551  ARG553  GLY616  TRP617  ASP618  TYR619  PRO620  LYS621  CYS622 
 ASP623  PHE694  ASN695  SER759  ASP760  ASP761  ALA762  ILE779  LEU786  VAL792 
 PHE793  MET794  SER795  GLU796  ALA797  LYS798  CYS799  TRP800  GLU811  SER814 

> <Gold.Protein.RotatedAtoms>
  151.8817  135.0451  160.0489 H   0  0  0  0  0  0  0  0  0  0  0  0  # atno 6907 bound_to 6896
  152.2507  133.5208  159.5332 H   0  0  0  0  0  0  0  0  0  0  0  0  # atno 6908 bound_to 6896
  150.7083  134.0880  159.3964 H   0  0  0  0  0  0  0  0  0  0  0  0  # atno 6909 bound_to 6896
  145.4595  139.2288  143.2995 H   0  0  0  0  0  0  0  0  0  0  0  0  # atno 7974 bound_to 7965
  155.7715  140.3484  155.5249 H   0  0  0  0  0  0  0  0  0  0  0  0  # atno 8008 bound_to 7997
  155.8817  140.1003  157.1501 H   0  0  0  0  0  0  0  0  0  0  0  0  # atno 8009 bound_to 7997
  154.4025  140.1321  156.4192 H   0  0  0  0  0  0  0  0  0  0  0  0  # atno 8010 bound_to 7997
  140.6829  143.6721  150.8177 H   0  0  0  0  0  0  0  0  0  0  0  0  # atno 10167 bound_to 10162
  157.4708  130.8254  149.7985 H   0  0  0  0  0  0  0  0  0  0  0  0  # atno 10718 bound_to 10713
  154.4382  135.5947  153.6112 H   0  0  0  0  0  0  0  0  0  0  0  0  # atno 10763 bound_to 10752
  152.9803  135.5991  154.3755 H   0  0  0  0  0  0  0  0  0  0  0  0  # atno 10764 bound_to 10752
  154.3601  135.2841  155.2303 H   0  0  0  0  0  0  0  0  0  0  0  0  # atno 10765 bound_to 10752
  140.5440  134.5495  157.5106 H   0  0  0  0  0  0  0  0  0  0  0  0  # atno 11005 bound_to 11000
  146.2459  140.5362  142.8914 LP  0  0  0  0  0  0  0  0  0  0  0  0  # atno 17320 bound_to 7965
  144.8012  140.6216  143.6477 LP  0  0  0  0  0  0  0  0  0  0  0  0  # atno 17321 bound_to 7965
  140.0423  143.5333  152.2712 LP  0  0  0  0  0  0  0  0  0  0  0  0  # atno 17342 bound_to 10162
  139.6165  144.7620  151.2835 LP  0  0  0  0  0  0  0  0  0  0  0  0  # atno 17343 bound_to 10162
  156.0072  130.3850  150.2389 LP  0  0  0  0  0  0  0  0  0  0  0  0  # atno 17370 bound_to 10713
  157.0571  131.0079  151.3235 LP  0  0  0  0  0  0  0  0  0  0  0  0  # atno 17371 bound_to 10713
  139.9489  134.7652  156.0495 LP  0  0  0  0  0  0  0  0  0  0  0  0  # atno 17394 bound_to 11000
  141.1211  133.6612  156.3217 LP  0  0  0  0  0  0  0  0  0  0  0  0  # atno 17395 bound_to 11000

$$$$
