AV-unprocessed.smi:2054|AV-procd|sdf|8333|dock4
  -GOLD-   2272011 03D 1   1.00000     0.00000
 Structure written by MMmdl.
 43 44  0  0  0  0  0  0  0  0  2 V2000
  150.3633  132.4380  155.8406 C   0  0  0  0  0  0  0  0  0  0  0  0
  149.2517  133.6205  156.7084 S   0  0  0  0  0  0  0  0  0  0  0  0
  147.9435  133.5743  156.0370 O   0  0  0  0  0  0  0  0  0  0  0  0
  149.3412  133.3915  158.1586 O   0  0  0  0  0  0  0  0  0  0  0  0
  149.9715  135.1625  156.3699 N   0  0  0  0  0  0  0  0  0  0  0  0
  149.9816  135.6128  154.9635 C   0  0  0  0  0  0  0  0  0  0  0  0
  150.2644  137.1200  154.8527 C   0  0  0  0  0  0  0  0  0  0  0  0
  151.5745  137.4936  155.5649 C   0  0  0  0  0  0  0  0  0  0  0  0
  151.8565  138.9987  155.4659 C   0  0  0  0  0  0  0  0  0  0  0  0
  152.9030  139.4045  154.9590 O   0  0  0  0  0  0  0  0  0  0  0  0
  150.9131  139.8190  155.9542 N   0  0  0  0  0  0  0  0  0  0  0  0
  150.9858  141.2752  155.9420 C   0  0  0  0  0  0  0  0  0  0  0  0
  150.0490  141.8999  156.9897 C   0  0  0  0  0  0  0  0  0  0  0  0
  150.7871  142.8201  157.9420 C   0  0  0  0  0  0  0  0  0  0  0  0
  151.6763  142.3307  158.9232 C   0  0  0  0  0  0  0  0  0  0  0  0
  152.3236  143.2433  159.7823 C   0  0  0  0  0  0  0  0  0  0  0  0
  152.0682  144.6233  159.6426 C   0  0  0  0  0  0  0  0  0  0  0  0
  151.1702  145.0568  158.6459 C   0  0  0  0  0  0  0  0  0  0  0  0
  150.5692  144.1517  157.8428 N   0  3  0  0  0  0  0  0  0  0  0  0
  151.4692  137.0437  157.0305 C   0  0  0  0  0  0  0  0  0  0  0  0
  151.1773  135.5378  157.1360 C   0  0  0  0  0  0  0  0  0  0  0  0
  149.9522  131.4325  155.9249 H   0  0  0  0  0  0  0  0  0  0  0  0
  151.3549  132.4548  156.2901 H   0  0  0  0  0  0  0  0  0  0  0  0
  150.4341  132.7111  154.7880 H   0  0  0  0  0  0  0  0  0  0  0  0
  150.7362  135.0457  154.4170 H   0  0  0  0  0  0  0  0  0  0  0  0
  149.0236  135.3894  154.4963 H   0  0  0  0  0  0  0  0  0  0  0  0
  150.3139  137.4029  153.8004 H   0  0  0  0  0  0  0  0  0  0  0  0
  149.4273  137.6738  155.2816 H   0  0  0  0  0  0  0  0  0  0  0  0
  152.3954  136.9519  155.0913 H   0  0  0  0  0  0  0  0  0  0  0  0
  150.0823  139.4042  156.3515 H   0  0  0  0  0  0  0  0  0  0  0  0
  152.0159  141.5958  156.1061 H   0  0  0  0  0  0  0  0  0  0  0  0
  150.7091  141.6191  154.9449 H   0  0  0  0  0  0  0  0  0  0  0  0
  149.2551  142.4601  156.4937 H   0  0  0  0  0  0  0  0  0  0  0  0
  149.5566  141.1202  157.5726 H   0  0  0  0  0  0  0  0  0  0  0  0
  151.8601  141.2706  159.0197 H   0  0  0  0  0  0  0  0  0  0  0  0
  153.0073  142.8887  160.5399 H   0  0  0  0  0  0  0  0  0  0  0  0
  152.5537  145.3384  160.2908 H   0  0  0  0  0  0  0  0  0  0  0  0
  150.9165  146.0917  158.4683 H   0  0  0  0  0  0  0  0  0  0  0  0
  152.3945  137.2714  157.5610 H   0  0  0  0  0  0  0  0  0  0  0  0
  150.6787  137.5974  157.5399 H   0  0  0  0  0  0  0  0  0  0  0  0
  151.0468  135.2760  158.1857 H   0  0  0  0  0  0  0  0  0  0  0  0
  152.0247  134.9581  156.7677 H   0  0  0  0  0  0  0  0  0  0  0  0
  149.9225  144.4877  157.1283 H   0  0  0  0  0  0  0  0  0  0  0  0
  1  2  1  0  0  0  0
  1 22  1  0  0  0  0
  1 23  1  0  0  0  0
  1 24  1  0  0  0  0
  2  3  2  0  0  0  0
  2  4  2  0  0  0  0
  2  5  1  0  0  0  0
  5 21  1  0  0  0  0
  5  6  1  0  0  0  0
  6  7  1  0  0  0  0
  6 25  1  0  0  0  0
  6 26  1  0  0  0  0
  7  8  1  0  0  0  0
  7 27  1  0  0  0  0
  7 28  1  0  0  0  0
  8  9  1  0  0  0  0
  8 20  1  0  0  0  0
  8 29  1  0  0  0  0
  9 10  2  0  0  0  0
  9 11  1  0  0  0  0
 11 12  1  0  0  0  0
 11 30  1  0  0  0  0
 12 13  1  0  0  0  0
 12 31  1  0  0  0  0
 12 32  1  0  0  0  0
 13 14  1  0  0  0  0
 13 33  1  0  0  0  0
 13 34  1  0  0  0  0
 14 19  1  0  0  0  0
 14 15  2  0  0  0  0
 15 16  1  0  0  0  0
 15 35  1  0  0  0  0
 16 17  2  0  0  0  0
 16 36  1  0  0  0  0
 17 18  1  0  0  0  0
 17 37  1  0  0  0  0
 18 19  2  0  0  0  0
 18 38  1  0  0  0  0
 19 43  1  0  0  0  0
 20 21  1  0  0  0  0
 20 39  1  0  0  0  0
 20 40  1  0  0  0  0
 21 41  1  0  0  0  0
 21 42  1  0  0  0  0
M  CHG  1  19   1
M  END
> <s_m_source_file>
AV-unprocessed.smi

> <i_m_source_file_index>
2054

> <i_lp_mmshare_version>
43012

> <i_f3d_flags>
0

> <s_epik_input>
W0NIM11TKD1PKSg9TylOMVtDSDJdW0NIMl1bQ0hdKFtDSDJdW0NIMl0xKUMoPU8pW05IXVtDSDJdW0NIMl1jMltjSF1bY0hdW2NIXVtjSF1uMg==

> <s_epik_cmdline>
J2VwaWtfcHl0aG9uJywgJy1waCcsICc3LjAnLCAnLXRuJywgJzgnLCAnLW1hJywgJzIwMCcsICctbWV0YWxfYmluZGluZycsICctaW1hZScsICc8aW5maWxlLm1hZT4nLCAnLW9tYWUnLCAnPG91dGZpbGUubWFlPic=

> <r_epik_Ionization_Penalty>
1.82741

> <r_epik_Ionization_Penalty_Charging>
1.82741

> <r_epik_Ionization_Penalty_Neutral>
1.85342e-08

> <r_epik_State_Penalty>
1.94311

> <r_epik_Charging_Adjusted_Penalty>
3.77052

> <i_epik_Tot_Q>
1

> <i_epik_Tot_abs_Q>
1

> <r_epik_Metal_State_Penalty>
1.96983

> <b_epik_Metal_Only>
0

> <s_lp_Force_Field>
OPLS_2005

> <r_lp_Energy>
8.70127

> <b_lp_Chiralities_Consistent>
1

> <s_lp_Variant>
AV-unprocessed.smi:2054-2

> <Gold.Version>
5.8.1

> <Gold.Id.Protein>
6NUR|6NUR_protein|mol2

> <Gold.PLP.Fitness>
50.0340

> <Gold.PLP.PLP>
-38.7227

> <Gold.PLP.part.hbond>
-4.1648

> <Gold.PLP.part.metal>
0.0000

> <Gold.PLP.part.buried>
-5.0993

> <Gold.PLP.part.nonpolar>
-30.1168

> <Gold.PLP.part.repulsive>
0.2042

> <Gold.PLP.ligand.clash>
0.0000

> <Gold.PLP.ligand.torsion>
1.0423

> <Gold.PLP.Chemscore.Hbond>
4.2153

> <Gold.PLP.Chemscore.CHOScore>
0.0000

> <Gold.PLP.Chemscore.Metal>
0.0000

> <Gold.Chemscore.Hbonds>
donor molecule, donor type, donor heavy atom, donor atom, acceptor molecule, acceptor atom, score
      L1  H    19    43       P1  8028  2.00
      P1  H  6896  6907       L1     4  1.00
      P1  H  7989  7998       L1    10  0.03
      P1  H  7997  8009       L1    10  1.00

> <Gold.PLP.Chemscore.Internal.Correction>
0.7500

> <Gold.Rescore>
     Score         DG    S(hbond)    S(metal)    S(lipo)     H(rot)  DE(clash)    DE(int)     intcor
     20.32     -21.58       2.68        0.00     103.81       1.95       0.06       1.20       ----

> <Gold.Chemscore.Fitness>
20.3239

> <Gold.Chemscore.DG>
-21.5794

> <Gold.Chemscore.ZeroCoef>
-5.4800

> <Gold.Chemscore.Hbond>
2.6759

> <Gold.Chemscore.Metal>
0.0000

> <Gold.Chemscore.Lipo>
103.8053

> <Gold.Chemscore.Internal_Hbond>
0.0000

> <Gold.Chemscore.DEClash>
0.0581

> <Gold.Chemscore.DEInternal>
1.1974

> <Gold.Chemscore.Rot>
1.9466

> <Gold.Chemscore.Internal.Correction>
   9.000000E+99

> <Gold.Chemscore.Hbonds>
donor molecule, donor type, donor heavy atom, donor atom, acceptor molecule, acceptor atom, score
      L1  H    19    43       P1  8028  0.40
      P1  H  6896  6907       L1     4  1.00
      P1  H  7997  8009       L1    10  0.98

> <Gold.Chemscore.Hbond.Weighted>
-8.9374

> <Gold.Chemscore.Metal.Weighted>
-0.0000

> <Gold.Chemscore.Lipo.Weighted>
-12.1452

> <Gold.Chemscore.Internal_Hbond.Weighted>
0.0000

> <Gold.Chemscore.DEClash.Weighted>
0.0581

> <Gold.Chemscore.DEInternal.Weighted>
1.1974

> <Gold.Chemscore.Rot.Weighted>
4.9832

> <Gold.Chemscore.Internal.Correction.Weighted>
   9.000000E+99

> <Gold.Protein.RotatedTorsions>
[ 6907 6896 6895 6894 ] final -112.87 input  -60.11 | X-H torsion
[ 7974 7965 7964 7962 ] final  -82.33 input  175.53 | X-H torsion
[ 8008 7997 7996 7995 ] final -132.24 input   59.86 | X-H torsion
[ 10167 10162 10161 10158 ] final -126.86 input  -65.29 | X-H torsion
[ 10718 10713 10712 10709 ] final  171.10 input   66.30 | X-H torsion
[ 10763 10752 10751 10750 ] final  104.74 input  -60.55 | X-H torsion
[ 11005 11000 10999 10996 ] final -126.36 input  -57.11 | X-H torsion

> <Gold.Protein.ActiveResidues>
 VAL166  LYS551  ARG553  GLY616  TRP617  ASP618  TYR619  PRO620  LYS621  CYS622 
 ASP623  PHE694  ASN695  SER759  ASP760  ASP761  ALA762  ILE779  LEU786  VAL792 
 PHE793  MET794  SER795  GLU796  ALA797  LYS798  CYS799  TRP800  GLU811  SER814 

> <Gold.Protein.RotatedAtoms>
  150.7788  133.9027  159.3345 H   0  0  0  0  0  0  0  0  0  0  0  0  # atno 6907 bound_to 6896
  151.6895  135.0947  160.0240 H   0  0  0  0  0  0  0  0  0  0  0  0  # atno 6908 bound_to 6896
  152.3833  133.6538  159.6214 H   0  0  0  0  0  0  0  0  0  0  0  0  # atno 6909 bound_to 6896
  145.5347  140.9517  143.1584 H   0  0  0  0  0  0  0  0  0  0  0  0  # atno 7974 bound_to 7965
  155.3256  140.0464  157.3041 H   0  0  0  0  0  0  0  0  0  0  0  0  # atno 8008 bound_to 7997
  154.5356  140.2271  155.8694 H   0  0  0  0  0  0  0  0  0  0  0  0  # atno 8009 bound_to 7997
  156.1832  140.3069  155.9194 H   0  0  0  0  0  0  0  0  0  0  0  0  # atno 8010 bound_to 7997
  139.9670  143.5887  152.2426 H   0  0  0  0  0  0  0  0  0  0  0  0  # atno 10167 bound_to 10162
  156.9985  131.0169  151.2837 H   0  0  0  0  0  0  0  0  0  0  0  0  # atno 10718 bound_to 10713
  153.3700  135.3933  155.1781 H   0  0  0  0  0  0  0  0  0  0  0  0  # atno 10763 bound_to 10752
  154.8692  135.3700  154.4990 H   0  0  0  0  0  0  0  0  0  0  0  0  # atno 10764 bound_to 10752
  153.5457  135.7084  153.5676 H   0  0  0  0  0  0  0  0  0  0  0  0  # atno 10765 bound_to 10752
  140.9687  134.0835  157.3892 H   0  0  0  0  0  0  0  0  0  0  0  0  # atno 11005 bound_to 11000
  144.7607  139.6963  143.7235 LP  0  0  0  0  0  0  0  0  0  0  0  0  # atno 17320 bound_to 7965
  146.2021  139.5322  142.9736 LP  0  0  0  0  0  0  0  0  0  0  0  0  # atno 17321 bound_to 7965
  139.6510  144.7660  151.2148 LP  0  0  0  0  0  0  0  0  0  0  0  0  # atno 17342 bound_to 10162
  140.7534  143.6161  150.8558 LP  0  0  0  0  0  0  0  0  0  0  0  0  # atno 17343 bound_to 10162
  157.5407  130.8118  149.8026 LP  0  0  0  0  0  0  0  0  0  0  0  0  # atno 17370 bound_to 10713
  156.0180  130.3806  150.2050 LP  0  0  0  0  0  0  0  0  0  0  0  0  # atno 17371 bound_to 10713
  139.8904  135.0112  156.6735 LP  0  0  0  0  0  0  0  0  0  0  0  0  # atno 17394 bound_to 11000
  140.7360  133.9018  155.8244 LP  0  0  0  0  0  0  0  0  0  0  0  0  # atno 17395 bound_to 11000

$$$$
