AV-unprocessed.smi:69|AV-procd|sdf|648|dock7
  -GOLD-   2262016543D 1   1.00000     0.00000
 Structure written by MMmdl.
 32 34  0  0  0  0  0  0  0  0  1 V2000
  153.5437  137.1226  157.0109 N   0  0  0  0  0  0  0  0  0  0  0  0
  152.9110  138.3036  157.0433 C   0  0  0  0  0  0  0  0  0  0  0  0
  153.1756  139.1477  158.0685 N   0  0  0  0  0  0  0  0  0  0  0  0
  152.5546  140.3310  158.1253 C   0  0  0  0  0  0  0  0  0  0  0  0
  151.6567  140.8458  157.2800 N   0  0  0  0  0  0  0  0  0  0  0  0
  151.3954  139.9916  156.2476 C   0  0  0  0  0  0  0  0  0  0  0  0
  151.9766  138.7087  156.0569 C   0  0  0  0  0  0  0  0  0  0  0  0
  151.4702  138.1290  154.9012 N   0  0  0  0  0  0  0  0  0  0  0  0
  150.6350  139.0224  154.4405 C   0  0  0  0  0  0  0  0  0  0  0  0
  150.5235  140.1716  155.1965 N   0  0  0  0  0  0  0  0  0  0  0  0
  149.6707  141.3852  154.9706 C   0  0  1  0  0  0  0  0  0  0  0  0
  149.0306  141.2528  153.7370 O   0  0  0  0  0  0  0  0  0  0  0  0
  147.6797  140.8529  153.9366 C   0  0  2  0  0  0  0  0  0  0  0  0
  146.8205  141.1466  152.6952 C   0  0  0  0  0  0  0  0  0  0  0  0
  146.2467  139.9509  152.2117 O   0  0  0  0  0  0  0  0  0  0  0  0
  147.2947  141.6202  155.2078 C   0  0  2  0  0  0  0  0  0  0  0  0
  146.9724  142.9679  154.9139 O   0  0  0  0  0  0  0  0  0  0  0  0
  148.5658  141.5448  156.0454 C   0  0  1  0  0  0  0  0  0  0  0  0
  148.4754  140.4566  156.9500 O   0  0  0  0  0  0  0  0  0  0  0  0
  150.3762  142.2165  154.9374 H   0  0  0  0  0  0  0  0  0  0  0  0
  147.6522  139.7856  154.1649 H   0  0  0  0  0  0  0  0  0  0  0  0
  146.4349  141.1714  155.7076 H   0  0  0  0  0  0  0  0  0  0  0  0
  148.7393  142.4566  156.6189 H   0  0  0  0  0  0  0  0  0  0  0  0
  153.3607  136.4761  156.2568 H   0  0  0  0  0  0  0  0  0  0  0  0
  154.1990  136.8809  157.7400 H   0  0  0  0  0  0  0  0  0  0  0  0
  152.8135  140.9541  158.9686 H   0  0  0  0  0  0  0  0  0  0  0  0
  150.0763  138.8594  153.5304 H   0  0  0  0  0  0  0  0  0  0  0  0
  146.0024  141.8186  152.9556 H   0  0  0  0  0  0  0  0  0  0  0  0
  147.4037  141.6296  151.9106 H   0  0  0  0  0  0  0  0  0  0  0  0
  145.3455  139.9142  152.4936 H   0  0  0  0  0  0  0  0  0  0  0  0
  147.6700  143.5203  155.2323 H   0  0  0  0  0  0  0  0  0  0  0  0
  147.5683  140.1977  157.0132 H   0  0  0  0  0  0  0  0  0  0  0  0
  1  2  1  0  0  0  0
  1 24  1  0  0  0  0
  1 25  1  0  0  0  0
  2  7  1  0  0  0  0
  2  3  2  0  0  0  0
  3  4  1  0  0  0  0
  4  5  2  0  0  0  0
  4 26  1  0  0  0  0
  5  6  1  0  0  0  0
  6 10  1  0  0  0  0
  6  7  2  0  0  0  0
  7  8  1  0  0  0  0
  8  9  2  0  0  0  0
  9 10  1  0  0  0  0
  9 27  1  0  0  0  0
 10 11  1  0  0  0  0
 11 20  1  0  0  0  0
 11 18  1  0  0  0  0
 11 12  1  0  0  0  0
 12 13  1  0  0  0  0
 13 21  1  0  0  0  0
 13 14  1  0  0  0  0
 13 16  1  0  0  0  0
 14 15  1  0  0  0  0
 14 28  1  0  0  0  0
 14 29  1  0  0  0  0
 15 30  1  0  0  0  0
 16 22  1  0  0  0  0
 16 17  1  0  0  0  0
 16 18  1  0  0  0  0
 17 31  1  0  0  0  0
 18 23  1  0  0  0  0
 18 19  1  0  0  0  0
 19 32  1  0  0  0  0
M  END
> <s_m_source_file>
AV-unprocessed.smi

> <i_m_source_file_index>
69

> <i_lp_mmshare_version>
43012

> <i_f3d_flags>
0

> <s_epik_input>
bjFbY0hdbmMoW05IMl0pYyhjMTIpbltjSF1uMltDQEBIXTNPW0NASF0oW0NIMl1bT0hdKVtDQEBIXShbT0hdKVtDQEhdM1tPSF0=

> <s_epik_cmdline>
J2VwaWtfcHl0aG9uJywgJy1waCcsICc3LjAnLCAnLXRuJywgJzgnLCAnLW1hJywgJzIwMCcsICctbWV0YWxfYmluZGluZycsICctaW1hZScsICc8aW5maWxlLm1hZT4nLCAnLW9tYWUnLCAnPG91dGZpbGUubWFlPic=

> <r_lp_tautomer_probability>
1

> <r_epik_Ionization_Penalty>
0.000428445

> <r_epik_Ionization_Penalty_Charging>
0

> <r_epik_Ionization_Penalty_Neutral>
0.000428445

> <r_epik_State_Penalty>
-0

> <r_epik_Charging_Adjusted_Penalty>
0

> <i_epik_Tot_Q>
0

> <i_epik_Tot_abs_Q>
0

> <r_epik_Metal_State_Penalty>
-0

> <b_epik_Metal_Only>
0

> <s_epik_Chemistry_Notes>
This compound contains an acetal/aminal-like group ( X-CH(R)-Y where X, Y are N, S, or O) that may be acid/base labile, releasing an aldehyde.

> <s_lp_Force_Field>
OPLS_2005

> <r_lp_Energy>
38.9041

> <b_lp_Chiralities_Consistent>
1

> <s_lp_Variant>
AV-unprocessed.smi:69-6

> <Gold.Version>
5.8.1

> <Gold.Id.Protein>
6NUR|6NUR_protein|mol2

> <Gold.PLP.Fitness>
35.0929

> <Gold.PLP.PLP>
-24.3871

> <Gold.PLP.part.hbond>
-5.3023

> <Gold.PLP.part.metal>
0.0000

> <Gold.PLP.part.buried>
-0.2628

> <Gold.PLP.part.nonpolar>
-19.4999

> <Gold.PLP.part.repulsive>
1.8994

> <Gold.PLP.ligand.clash>
0.0000

> <Gold.PLP.ligand.torsion>
0.8295

> <Gold.PLP.Chemscore.Hbond>
3.2138

> <Gold.PLP.Chemscore.CHOScore>
0.8763

> <Gold.PLP.Chemscore.Metal>
0.0000

> <Gold.Chemscore.Hbonds>
donor molecule, donor type, donor heavy atom, donor atom, acceptor molecule, acceptor atom, score
      L1  H    15    30       P1 10175  1.00
      L1  H    17    31       P1  8028  0.90
      P1  H  7997  8010       L1     3  0.39
      P1  H  8011  8017       L1    12  0.88
      L1  C     9    27       P1  7957  0.63

> <Gold.PLP.Chemscore.Internal.Correction>
0.0944

> <Gold.Rescore>
     Score         DG    S(hbond)    S(metal)    S(lipo)     H(rot)  DE(clash)    DE(int)     intcor
      2.02      -4.72       1.79        0.00      30.48       4.03       1.27       1.44       ----

> <Gold.Chemscore.Fitness>
2.0155

> <Gold.Chemscore.DG>
-4.7234

> <Gold.Chemscore.ZeroCoef>
-5.4800

> <Gold.Chemscore.Hbond>
1.7929

> <Gold.Chemscore.Metal>
0.0000

> <Gold.Chemscore.Lipo>
30.4792

> <Gold.Chemscore.Internal_Hbond>
0.0000

> <Gold.Chemscore.DEClash>
1.2704

> <Gold.Chemscore.DEInternal>
1.4375

> <Gold.Chemscore.Rot>
4.0277

> <Gold.Chemscore.Internal.Correction>
   9.000000E+99

> <Gold.Chemscore.Hbonds>
donor molecule, donor type, donor heavy atom, donor atom, acceptor molecule, acceptor atom, score
      L1  H    15    30       P1 10175  0.94
      L1  H    17    31       P1  8028  0.18
      P1  H  8011  8017       L1    12  0.72

> <Gold.Chemscore.Hbond.Weighted>
-5.9883

> <Gold.Chemscore.Metal.Weighted>
-0.0000

> <Gold.Chemscore.Lipo.Weighted>
-3.5661

> <Gold.Chemscore.Internal_Hbond.Weighted>
0.0000

> <Gold.Chemscore.DEClash.Weighted>
1.2704

> <Gold.Chemscore.DEInternal.Weighted>
1.4375

> <Gold.Chemscore.Rot.Weighted>
10.3110

> <Gold.Chemscore.Internal.Correction.Weighted>
   9.000000E+99

> <Gold.Protein.RotatedTorsions>
[ 6907 6896 6895 6894 ] final   22.56 input  -60.11 | X-H torsion
[ 7974 7965 7964 7962 ] final   42.55 input  175.53 | X-H torsion
[ 8008 7997 7996 7995 ] final   11.43 input   59.86 | X-H torsion
[ 10167 10162 10161 10158 ] final    5.25 input  -65.29 | X-H torsion
[ 10718 10713 10712 10709 ] final  -34.95 input   66.30 | X-H torsion
[ 10763 10752 10751 10750 ] final -152.28 input  -60.55 | X-H torsion
[ 11005 11000 10999 10996 ] final  121.51 input  -57.11 | X-H torsion

> <Gold.Protein.ActiveResidues>
 VAL166  LYS551  ARG553  GLY616  TRP617  ASP618  TYR619  PRO620  LYS621  CYS622 
 ASP623  PHE694  ASN695  SER759  ASP760  ASP761  ALA762  ILE779  LEU786  VAL792 
 PHE793  MET794  SER795  GLU796  ALA797  LYS798  CYS799  TRP800  GLU811  SER814 

> <Gold.Protein.RotatedAtoms>
  151.9290  135.0265  160.0527 H   0  0  0  0  0  0  0  0  0  0  0  0  # atno 6907 bound_to 6896
  152.2135  133.4924  159.5131 H   0  0  0  0  0  0  0  0  0  0  0  0  # atno 6908 bound_to 6896
  150.6982  134.1353  159.4127 H   0  0  0  0  0  0  0  0  0  0  0  0  # atno 6909 bound_to 6896
  146.0730  139.5287  142.9585 H   0  0  0  0  0  0  0  0  0  0  0  0  # atno 7974 bound_to 7965
  154.8069  140.2861  155.5881 H   0  0  0  0  0  0  0  0  0  0  0  0  # atno 8008 bound_to 7997
  156.2984  140.2576  156.2878 H   0  0  0  0  0  0  0  0  0  0  0  0  # atno 8009 bound_to 7997
  154.9493  140.0379  157.2125 H   0  0  0  0  0  0  0  0  0  0  0  0  # atno 8010 bound_to 7997
  140.6492  143.7587  150.7547 H   0  0  0  0  0  0  0  0  0  0  0  0  # atno 10167 bound_to 10162
  156.3445  130.4298  149.7758 H   0  0  0  0  0  0  0  0  0  0  0  0  # atno 10718 bound_to 10713
  154.8004  135.3240  154.7564 H   0  0  0  0  0  0  0  0  0  0  0  0  # atno 10763 bound_to 10752
  153.8233  135.6885  153.4828 H   0  0  0  0  0  0  0  0  0  0  0  0  # atno 10764 bound_to 10752
  153.1717  135.4620  154.9855 H   0  0  0  0  0  0  0  0  0  0  0  0  # atno 10765 bound_to 10752
  139.9229  134.9639  156.7969 H   0  0  0  0  0  0  0  0  0  0  0  0  # atno 11005 bound_to 11000
  145.6356  141.0295  143.1839 LP  0  0  0  0  0  0  0  0  0  0  0  0  # atno 17320 bound_to 7965
  144.7244  139.7924  143.7370 LP  0  0  0  0  0  0  0  0  0  0  0  0  # atno 17321 bound_to 7965
  140.1234  143.4591  152.2299 LP  0  0  0  0  0  0  0  0  0  0  0  0  # atno 17342 bound_to 10162
  139.5705  144.7460  151.3904 LP  0  0  0  0  0  0  0  0  0  0  0  0  # atno 17343 bound_to 10162
  156.4982  130.8116  151.3122 LP  0  0  0  0  0  0  0  0  0  0  0  0  # atno 17370 bound_to 10713
  157.7452  130.9953  150.2740 LP  0  0  0  0  0  0  0  0  0  0  0  0  # atno 17371 bound_to 10713
  140.6421  133.9808  155.7713 LP  0  0  0  0  0  0  0  0  0  0  0  0  # atno 17394 bound_to 11000
  141.0764  134.0128  157.3451 LP  0  0  0  0  0  0  0  0  0  0  0  0  # atno 17395 bound_to 11000

$$$$
