AV-unprocessed.smi:39|AV-procd|sdf|365|dock5
  -GOLD-   2262016203D 1   1.00000     0.00000
 Structure written by MMmdl.
 31 32  0  0  0  0  0  0  0  0  4 V2000
  151.0032  144.9896  158.7507 C   0  0  0  0  0  0  0  0  0  0  0  0
  151.4998  143.5763  158.5003 C   0  0  0  0  0  0  0  0  0  0  0  0
  151.1682  142.8813  157.3894 C   0  0  0  0  0  0  0  0  0  0  0  0
  151.6205  141.5909  157.1672 N   0  0  0  0  0  0  0  0  0  0  0  0
  151.2406  140.8117  155.9228 C   0  0  1  0  0  0  0  0  0  0  0  0
  150.5044  139.5152  156.3009 C   0  0  0  0  0  0  0  0  0  0  0  0
  149.2556  139.5776  155.4362 C   0  0  1  0  0  0  0  0  0  0  0  0
  148.1135  138.8789  156.0302 N   0  0  0  0  0  0  0  0  0  0  0  0
  147.7670  139.2516  157.1585 N   0  3  0  0  0  0  0  0  0  0  0  0
  147.3393  139.5376  158.1735 N   0  5  0  0  0  0  0  0  0  0  0  0
  149.0281  141.0855  155.3301 C   0  0  2  0  0  0  0  0  0  0  0  0
  148.1502  141.4949  154.1376 C   0  0  0  0  0  0  0  0  0  0  0  0
  147.9588  142.8934  154.1342 O   0  0  0  0  0  0  0  0  0  0  0  0
  150.3565  141.5606  155.1387 O   0  0  0  0  0  0  0  0  0  0  0  0
  152.4743  140.9760  158.1204 C   0  0  0  0  0  0  0  0  0  0  0  0
  152.8717  139.8338  157.8874 O   0  0  0  0  0  0  0  0  0  0  0  0
  152.8131  141.6689  159.2444 N   0  5  0  0  0  0  0  0  0  0  0  0
  152.3698  142.9344  159.4927 C   0  0  0  0  0  0  0  0  0  0  0  0
  152.6776  143.5459  160.5155 O   0  0  0  0  0  0  0  0  0  0  0  0
  152.1711  140.6574  155.3740 H   0  0  0  0  0  0  0  0  0  0  0  0
  149.4867  139.1840  154.4439 H   0  0  0  0  0  0  0  0  0  0  0  0
  148.6203  141.4649  156.2694 H   0  0  0  0  0  0  0  0  0  0  0  0
  150.3835  145.3444  157.9267 H   0  0  0  0  0  0  0  0  0  0  0  0
  151.8440  145.6752  158.8604 H   0  0  0  0  0  0  0  0  0  0  0  0
  150.4066  145.0270  159.6627 H   0  0  0  0  0  0  0  0  0  0  0  0
  150.5311  143.3612  156.6629 H   0  0  0  0  0  0  0  0  0  0  0  0
  151.1247  138.6418  156.0977 H   0  0  0  0  0  0  0  0  0  0  0  0
  150.2480  139.5262  157.3620 H   0  0  0  0  0  0  0  0  0  0  0  0
  148.5856  141.1673  153.1931 H   0  0  0  0  0  0  0  0  0  0  0  0
  147.1665  141.0316  154.2186 H   0  0  0  0  0  0  0  0  0  0  0  0
  148.5580  143.2802  154.7539 H   0  0  0  0  0  0  0  0  0  0  0  0
  1  2  1  0  0  0  0
  1 23  1  0  0  0  0
  1 24  1  0  0  0  0
  1 25  1  0  0  0  0
  2 18  1  0  0  0  0
  2  3  2  0  0  0  0
  3  4  1  0  0  0  0
  3 26  1  0  0  0  0
  4  5  1  0  0  0  0
  4 15  1  0  0  0  0
  5 20  1  0  0  0  0
  5 14  1  0  0  0  0
  5  6  1  0  0  0  0
  6  7  1  0  0  0  0
  6 27  1  0  0  0  0
  6 28  1  0  0  0  0
  7 21  1  0  0  0  0
  7  8  1  0  0  0  0
  7 11  1  0  0  0  0
  8  9  2  0  0  0  0
  9 10  2  0  0  0  0
 11 22  1  0  0  0  0
 11 12  1  0  0  0  0
 11 14  1  0  0  0  0
 12 13  1  0  0  0  0
 12 29  1  0  0  0  0
 12 30  1  0  0  0  0
 13 31  1  0  0  0  0
 15 16  2  0  0  0  0
 15 17  1  0  0  0  0
 17 18  1  0  0  0  0
 18 19  2  0  0  0  0
M  CHG  1   9   1
M  CHG  1  10  -1
M  CHG  1  17  -1
M  END
> <s_m_source_file>
AV-unprocessed.smi

> <i_m_source_file_index>
39

> <i_lp_mmshare_version>
43012

> <i_f3d_flags>
0

> <s_epik_input>
Tz1jMVtuSF1jKD1PKW4oW2NIXWMxW0NIM10pW0NASF0yW0NIMl1bQ0BIXShOPVtOK109W04tXSlbQ0BIXShPMilbQ0gyXVtPSF0=

> <s_epik_cmdline>
J2VwaWtfcHl0aG9uJywgJy1waCcsICc3LjAnLCAnLXRuJywgJzgnLCAnLW1hJywgJzIwMCcsICctbWV0YWxfYmluZGluZycsICctaW1hZScsICc8aW5maWxlLm1hZT4nLCAnLW9tYWUnLCAnPG91dGZpbGUubWFlPic=

> <r_lp_tautomer_probability>
0.999537

> <r_epik_Ionization_Penalty>
3.6393

> <r_epik_Ionization_Penalty_Charging>
9.76484e-08

> <r_epik_Ionization_Penalty_Neutral>
3.6393

> <r_epik_State_Penalty>
3.63887

> <r_epik_Charging_Adjusted_Penalty>
3.63887

> <i_epik_Tot_Q>
-1

> <i_epik_Tot_abs_Q>
3

> <r_epik_Metal_State_Penalty>
0.225911

> <b_epik_Metal_Only>
1

> <s_epik_Chemistry_Notes>
This compound contains an acetal/aminal-like group ( X-CH(R)-Y where X, Y are N, S, or O) that may be acid/base labile, releasing an aldehyde.

> <s_lp_Force_Field>
OPLS_2005

> <r_lp_Energy>
32.9978

> <b_lp_Chiralities_Consistent>
1

> <s_lp_Variant>
AV-unprocessed.smi:39-15

> <Gold.Version>
5.8.1

> <Gold.Id.Protein>
6NUR|6NUR_protein|mol2

> <Gold.PLP.Fitness>
39.7298

> <Gold.PLP.PLP>
-31.0485

> <Gold.PLP.part.hbond>
-5.9454

> <Gold.PLP.part.metal>
0.0000

> <Gold.PLP.part.buried>
-2.1984

> <Gold.PLP.part.nonpolar>
-21.3376

> <Gold.PLP.part.repulsive>
0.1669

> <Gold.PLP.ligand.clash>
0.0000

> <Gold.PLP.ligand.torsion>
0.0356

> <Gold.PLP.Chemscore.Hbond>
1.9055

> <Gold.PLP.Chemscore.CHOScore>
1.0000

> <Gold.PLP.Chemscore.Metal>
0.0000

> <Gold.Chemscore.Hbonds>
donor molecule, donor type, donor heavy atom, donor atom, acceptor molecule, acceptor atom, score
      L1  H    13    31       P1  8028  0.83
      P1  H  7989  7998       L1    14  0.06
      P1  H  7997  8010       L1    16  1.00
      L1  C     3    26       P1  8028  1.00

> <Gold.PLP.Chemscore.Internal.Correction>
0.0359

> <Gold.Rescore>
     Score         DG    S(hbond)    S(metal)    S(lipo)     H(rot)  DE(clash)    DE(int)     intcor
      8.66     -10.24       1.76        0.00      49.91       2.72       0.28       1.29       ----

> <Gold.Chemscore.Fitness>
8.6641

> <Gold.Chemscore.DG>
-10.2428

> <Gold.Chemscore.ZeroCoef>
-5.4800

> <Gold.Chemscore.Hbond>
1.7589

> <Gold.Chemscore.Metal>
0.0000

> <Gold.Chemscore.Lipo>
49.9080

> <Gold.Chemscore.Internal_Hbond>
0.0000

> <Gold.Chemscore.DEClash>
0.2842

> <Gold.Chemscore.DEInternal>
1.2945

> <Gold.Chemscore.Rot>
2.7153

> <Gold.Chemscore.Internal.Correction>
   9.000000E+99

> <Gold.Chemscore.Hbonds>
donor molecule, donor type, donor heavy atom, donor atom, acceptor molecule, acceptor atom, score
      L1  H    13    31       P1  8028  0.83
      P1  H  7997  8010       L1    16  0.54

> <Gold.Chemscore.Hbond.Weighted>
-5.8747

> <Gold.Chemscore.Metal.Weighted>
-0.0000

> <Gold.Chemscore.Lipo.Weighted>
-5.8392

> <Gold.Chemscore.Internal_Hbond.Weighted>
0.0000

> <Gold.Chemscore.DEClash.Weighted>
0.2842

> <Gold.Chemscore.DEInternal.Weighted>
1.2945

> <Gold.Chemscore.Rot.Weighted>
6.9512

> <Gold.Chemscore.Internal.Correction.Weighted>
   9.000000E+99

> <Gold.Protein.RotatedTorsions>
[ 6907 6896 6895 6894 ] final  -18.18 input  -60.11 | X-H torsion
[ 7974 7965 7964 7962 ] final -140.59 input  175.53 | X-H torsion
[ 8008 7997 7996 7995 ] final   33.56 input   59.86 | X-H torsion
[ 10167 10162 10161 10158 ] final  -25.96 input  -65.29 | X-H torsion
[ 10718 10713 10712 10709 ] final   69.32 input   66.30 | X-H torsion
[ 10763 10752 10751 10750 ] final  -33.43 input  -60.55 | X-H torsion
[ 11005 11000 10999 10996 ] final   24.30 input  -57.11 | X-H torsion

> <Gold.Protein.ActiveResidues>
 VAL166  LYS551  ARG553  GLY616  TRP617  ASP618  TYR619  PRO620  LYS621  CYS622 
 ASP623  PHE694  ASN695  SER759  ASP760  ASP761  ALA762  ILE779  LEU786  VAL792 
 PHE793  MET794  SER795  GLU796  ALA797  LYS798  CYS799  TRP800  GLU811  SER814 

> <Gold.Protein.RotatedAtoms>
  151.2821  135.0717  159.9172 H   0  0  0  0  0  0  0  0  0  0  0  0  # atno 6907 bound_to 6896
  152.5332  134.0020  159.7909 H   0  0  0  0  0  0  0  0  0  0  0  0  # atno 6908 bound_to 6896
  151.0276  133.5769  159.2695 H   0  0  0  0  0  0  0  0  0  0  0  0  # atno 6909 bound_to 6896
  144.8585  140.6181  143.5344 H   0  0  0  0  0  0  0  0  0  0  0  0  # atno 7974 bound_to 7965
  155.1406  140.3266  155.4453 H   0  0  0  0  0  0  0  0  0  0  0  0  # atno 8008 bound_to 7997
  156.2606  140.1994  156.6471 H   0  0  0  0  0  0  0  0  0  0  0  0  # atno 8009 bound_to 7997
  154.6545  140.0554  156.9980 H   0  0  0  0  0  0  0  0  0  0  0  0  # atno 8010 bound_to 7997
  140.7284  143.4219  151.0938 H   0  0  0  0  0  0  0  0  0  0  0  0  # atno 10167 bound_to 10162
  157.6339  130.9419  150.0497 H   0  0  0  0  0  0  0  0  0  0  0  0  # atno 10718 bound_to 10713
  153.8300  135.6867  153.4816 H   0  0  0  0  0  0  0  0  0  0  0  0  # atno 10763 bound_to 10752
  153.1517  135.4615  154.9644 H   0  0  0  0  0  0  0  0  0  0  0  0  # atno 10764 bound_to 10752
  154.7891  135.3295  154.7764 H   0  0  0  0  0  0  0  0  0  0  0  0  # atno 10765 bound_to 10752
  140.3602  134.2134  155.7673 H   0  0  0  0  0  0  0  0  0  0  0  0  # atno 11005 bound_to 11000
  145.4359  139.1542  143.3997 LP  0  0  0  0  0  0  0  0  0  0  0  0  # atno 17320 bound_to 7965
  146.2842  140.4478  142.8764 LP  0  0  0  0  0  0  0  0  0  0  0  0  # atno 17321 bound_to 7965
  139.7866  143.8279  152.3146 LP  0  0  0  0  0  0  0  0  0  0  0  0  # atno 17342 bound_to 10162
  139.8248  144.7280  150.9526 LP  0  0  0  0  0  0  0  0  0  0  0  0  # atno 17343 bound_to 10162
  156.1563  130.3643  149.9365 LP  0  0  0  0  0  0  0  0  0  0  0  0  # atno 17370 bound_to 10713
  156.7373  130.9066  151.3630 LP  0  0  0  0  0  0  0  0  0  0  0  0  # atno 17371 bound_to 10713
  141.1986  133.8031  157.0574 LP  0  0  0  0  0  0  0  0  0  0  0  0  # atno 17394 bound_to 11000
  140.0633  134.9743  157.1342 LP  0  0  0  0  0  0  0  0  0  0  0  0  # atno 17395 bound_to 11000

$$$$
