AV-unprocessed.smi:1077|AV-procd|sdf|4701|dock9
  -GOLD-   22720 3223D 1   1.00000     0.00000
 Structure written by MMmdl.
 42 43  0  0  0  0  0  0  0  0  1 V2000
  147.3705  136.6740  158.2050 C   0  0  0  0  0  0  0  0  0  0  0  0
  148.6377  136.6848  159.0734 C   0  0  0  0  0  0  0  0  0  0  0  0
  149.6916  137.4971  158.5229 N   0  0  0  0  0  0  0  0  0  0  0  0
  149.5629  138.1227  157.3003 C   0  0  0  0  0  0  0  0  0  0  0  0
  150.5418  138.8819  156.7666 C   0  0  0  0  0  0  0  0  0  0  0  0
  150.3901  139.5242  155.5032 C   0  0  0  0  0  0  0  0  0  0  0  0
  150.2528  140.0273  154.4699 N   0  0  0  0  0  0  0  0  0  0  0  0
  151.8089  139.0788  157.4662 C   0  0  0  0  0  0  0  0  0  0  0  0
  152.7280  139.7714  157.0250 O   0  0  0  0  0  0  0  0  0  0  0  0
  151.9270  138.4176  158.7153 N   0  0  0  0  0  0  0  0  0  0  0  0
  153.1799  138.5876  159.4834 C   0  0  0  0  0  0  0  0  0  0  0  0
  153.6086  140.0557  159.6241 C   0  0  0  0  0  0  0  0  0  0  0  0
  154.7998  140.3644  159.6824 O   0  0  0  0  0  0  0  0  0  0  0  0
  152.6133  140.9541  159.6681 N   0  0  0  0  0  0  0  0  0  0  0  0
  152.7812  142.3973  159.8090 C   0  0  0  0  0  0  0  0  0  0  0  0
  152.2910  142.8700  161.1944 C   0  0  0  0  0  0  0  0  0  0  0  0
  152.3751  144.3987  161.3318 C   0  0  0  0  0  0  0  0  0  0  0  0
  151.6024  145.1028  160.2062 C   0  0  0  0  0  0  0  0  0  0  0  0
  152.0964  144.6434  158.8257 C   0  0  0  0  0  0  0  0  0  0  0  0
  152.0121  143.1150  158.6834 C   0  0  0  0  0  0  0  0  0  0  0  0
  150.8872  137.6306  159.2669 C   0  0  0  0  0  0  0  0  0  0  0  0
  151.0218  137.0819  160.3637 O   0  0  0  0  0  0  0  0  0  0  0  0
  146.5816  136.0929  158.6827 H   0  0  0  0  0  0  0  0  0  0  0  0
  147.5570  136.2320  157.2261 H   0  0  0  0  0  0  0  0  0  0  0  0
  146.9911  137.6842  158.0497 H   0  0  0  0  0  0  0  0  0  0  0  0
  148.4231  137.1003  160.0591 H   0  0  0  0  0  0  0  0  0  0  0  0
  149.0447  135.6851  159.2370 H   0  0  0  0  0  0  0  0  0  0  0  0
  148.6423  138.0016  156.7475 H   0  0  0  0  0  0  0  0  0  0  0  0
  153.0991  138.1604  160.4836 H   0  0  0  0  0  0  0  0  0  0  0  0
  153.9902  138.0211  159.0204 H   0  0  0  0  0  0  0  0  0  0  0  0
  151.6654  140.6114  159.6086 H   0  0  0  0  0  0  0  0  0  0  0  0
  153.8404  142.6411  159.7059 H   0  0  0  0  0  0  0  0  0  0  0  0
  151.2593  142.5507  161.3489 H   0  0  0  0  0  0  0  0  0  0  0  0
  152.8796  142.4024  161.9846 H   0  0  0  0  0  0  0  0  0  0  0  0
  151.9823  144.7063  162.3014 H   0  0  0  0  0  0  0  0  0  0  0  0
  153.4201  144.7101  161.3086 H   0  0  0  0  0  0  0  0  0  0  0  0
  150.5374  144.8884  160.3043 H   0  0  0  0  0  0  0  0  0  0  0  0
  151.7102  146.1838  160.2999 H   0  0  0  0  0  0  0  0  0  0  0  0
  151.5084  145.1224  158.0423 H   0  0  0  0  0  0  0  0  0  0  0  0
  153.1277  144.9674  158.6801 H   0  0  0  0  0  0  0  0  0  0  0  0
  152.4068  142.8158  157.7116 H   0  0  0  0  0  0  0  0  0  0  0  0
  150.9645  142.8099  158.6984 H   0  0  0  0  0  0  0  0  0  0  0  0
  1  2  1  0  0  0  0
  1 23  1  0  0  0  0
  1 24  1  0  0  0  0
  1 25  1  0  0  0  0
  2  3  1  0  0  0  0
  2 26  1  0  0  0  0
  2 27  1  0  0  0  0
  3 21  1  0  0  0  0
  3  4  1  0  0  0  0
  4  5  2  0  0  0  0
  4 28  1  0  0  0  0
  5  6  1  0  0  0  0
  5  8  1  0  0  0  0
  6  7  3  0  0  0  0
  8  9  2  0  0  0  0
  8 10  1  0  0  0  0
 10 11  1  0  0  0  0
 10 21  1  0  0  0  0
 11 12  1  0  0  0  0
 11 29  1  0  0  0  0
 11 30  1  0  0  0  0
 12 13  2  0  0  0  0
 12 14  1  0  0  0  0
 14 15  1  0  0  0  0
 14 31  1  0  0  0  0
 15 20  1  0  0  0  0
 15 16  1  0  0  0  0
 15 32  1  0  0  0  0
 16 17  1  0  0  0  0
 16 33  1  0  0  0  0
 16 34  1  0  0  0  0
 17 18  1  0  0  0  0
 17 35  1  0  0  0  0
 17 36  1  0  0  0  0
 18 19  1  0  0  0  0
 18 37  1  0  0  0  0
 18 38  1  0  0  0  0
 19 20  1  0  0  0  0
 19 39  1  0  0  0  0
 19 40  1  0  0  0  0
 20 41  1  0  0  0  0
 20 42  1  0  0  0  0
 21 22  2  0  0  0  0
M  END
> <s_m_source_file>
AV-unprocessed.smi

> <i_m_source_file_index>
1077

> <i_lp_mmshare_version>
43012

> <i_f3d_flags>
0

> <s_epik_input>
W0NIM11bQ0gyXW4xW2NIXWMoQyNOKWMoPU8pbihjMT1PKVtDSDJdQyg9TylbTkhdW0NIXTJbQ0gyXVtDSDJdW0NIMl1bQ0gyXVtDSDJdMg==

> <s_epik_cmdline>
J2VwaWtfcHl0aG9uJywgJy1waCcsICc3LjAnLCAnLXRuJywgJzgnLCAnLW1hJywgJzIwMCcsICctbWV0YWxfYmluZGluZycsICctaW1hZScsICc8aW5maWxlLm1hZT4nLCAnLW9tYWUnLCAnPG91dGZpbGUubWFlPic=

> <r_lp_tautomer_probability>
1

> <r_epik_Ionization_Penalty>
1.90876e-08

> <r_epik_Ionization_Penalty_Charging>
4.07395e-11

> <r_epik_Ionization_Penalty_Neutral>
1.90469e-08

> <r_epik_State_Penalty>
-0

> <r_epik_Charging_Adjusted_Penalty>
4.07395e-11

> <i_epik_Tot_Q>
0

> <i_epik_Tot_abs_Q>
0

> <r_epik_Metal_State_Penalty>
-0

> <b_epik_Metal_Only>
0

> <s_lp_Force_Field>
OPLS_2005

> <r_lp_Energy>
10.9803

> <b_lp_Chiralities_Consistent>
1

> <s_lp_Variant>
AV-unprocessed.smi:1077-1

> <Gold.Version>
5.8.1

> <Gold.Id.Protein>
6NUR|6NUR_protein|mol2

> <Gold.PLP.Fitness>
45.6375

> <Gold.PLP.PLP>
-37.7207

> <Gold.PLP.part.hbond>
-3.8829

> <Gold.PLP.part.metal>
0.0000

> <Gold.PLP.part.buried>
-4.3085

> <Gold.PLP.part.nonpolar>
-31.5622

> <Gold.PLP.part.repulsive>
0.2470

> <Gold.PLP.ligand.clash>
0.0000

> <Gold.PLP.ligand.torsion>
0.5456

> <Gold.PLP.Chemscore.Hbond>
3.0000

> <Gold.PLP.Chemscore.CHOScore>
0.0000

> <Gold.PLP.Chemscore.Metal>
0.0000

> <Gold.Chemscore.Hbonds>
donor molecule, donor type, donor heavy atom, donor atom, acceptor molecule, acceptor atom, score
      P1  H  6896  6908       L1    22  1.00
      P1  H  7989  7998       L1     7  1.00
      P1  H  7997  8008       L1     9  1.00

> <Gold.PLP.Chemscore.Internal.Correction>
0.0080

> <Gold.Rescore>
     Score         DG    S(hbond)    S(metal)    S(lipo)     H(rot)  DE(clash)    DE(int)     intcor
     18.26     -20.31       2.88        0.00      82.75       1.75       0.03       2.01       ----

> <Gold.Chemscore.Fitness>
18.2642

> <Gold.Chemscore.DG>
-20.3055

> <Gold.Chemscore.ZeroCoef>
-5.4800

> <Gold.Chemscore.Hbond>
2.8828

> <Gold.Chemscore.Metal>
0.0000

> <Gold.Chemscore.Lipo>
82.7535

> <Gold.Chemscore.Internal_Hbond>
0.0000

> <Gold.Chemscore.DEClash>
0.0282

> <Gold.Chemscore.DEInternal>
2.0131

> <Gold.Chemscore.Rot>
1.7520

> <Gold.Chemscore.Internal.Correction>
   9.000000E+99

> <Gold.Chemscore.Hbonds>
donor molecule, donor type, donor heavy atom, donor atom, acceptor molecule, acceptor atom, score
      P1  H  6896  6908       L1    22  0.42
      P1  H  7989  7998       L1     7  0.99
      P1  H  7997  8008       L1     9  0.97

> <Gold.Chemscore.Hbond.Weighted>
-9.6285

> <Gold.Chemscore.Metal.Weighted>
-0.0000

> <Gold.Chemscore.Lipo.Weighted>
-9.6822

> <Gold.Chemscore.Internal_Hbond.Weighted>
0.0000

> <Gold.Chemscore.DEClash.Weighted>
0.0282

> <Gold.Chemscore.DEInternal.Weighted>
2.0131

> <Gold.Chemscore.Rot.Weighted>
4.4852

> <Gold.Chemscore.Internal.Correction.Weighted>
   9.000000E+99

> <Gold.Protein.RotatedTorsions>
[ 6907 6896 6895 6894 ] final -143.00 input  -60.11 | X-H torsion
[ 7974 7965 7964 7962 ] final    0.16 input  175.53 | X-H torsion
[ 8008 7997 7996 7995 ] final  -43.56 input   59.86 | X-H torsion
[ 10167 10162 10161 10158 ] final    4.84 input  -65.29 | X-H torsion
[ 10718 10713 10712 10709 ] final   37.24 input   66.30 | X-H torsion
[ 10763 10752 10751 10750 ] final  100.21 input  -60.55 | X-H torsion
[ 11005 11000 10999 10996 ] final  112.52 input  -57.11 | X-H torsion

> <Gold.Protein.ActiveResidues>
 VAL166  LYS551  ARG553  GLY616  TRP617  ASP618  TYR619  PRO620  LYS621  CYS622 
 ASP623  PHE694  ASN695  SER759  ASP760  ASP761  ALA762  ILE779  LEU786  VAL792 
 PHE793  MET794  SER795  GLU796  ALA797  LYS798  CYS799  TRP800  GLU811  SER814 

> <Gold.Protein.RotatedAtoms>
  151.0946  133.5289  159.2612 H   0  0  0  0  0  0  0  0  0  0  0  0  # atno 6907 bound_to 6896
  151.2143  135.0493  159.8934 H   0  0  0  0  0  0  0  0  0  0  0  0  # atno 6908 bound_to 6896
  152.5437  134.0758  159.8267 H   0  0  0  0  0  0  0  0  0  0  0  0  # atno 6909 bound_to 6896
  146.2432  140.1179  142.8341 H   0  0  0  0  0  0  0  0  0  0  0  0  # atno 7974 bound_to 7965
  154.3997  140.1444  156.3539 H   0  0  0  0  0  0  0  0  0  0  0  0  # atno 8008 bound_to 7997
  155.8243  140.3468  155.5512 H   0  0  0  0  0  0  0  0  0  0  0  0  # atno 8009 bound_to 7997
  155.8255  140.0904  157.1814 H   0  0  0  0  0  0  0  0  0  0  0  0  # atno 8010 bound_to 7997
  140.6513  143.7537  150.7580 H   0  0  0  0  0  0  0  0  0  0  0  0  # atno 10167 bound_to 10162
  157.3446  130.7566  149.6935 H   0  0  0  0  0  0  0  0  0  0  0  0  # atno 10718 bound_to 10713
  153.3111  135.4087  155.1336 H   0  0  0  0  0  0  0  0  0  0  0  0  # atno 10763 bound_to 10752
  154.8576  135.3564  154.5723 H   0  0  0  0  0  0  0  0  0  0  0  0  # atno 10764 bound_to 10752
  153.6152  135.7066  153.5390 H   0  0  0  0  0  0  0  0  0  0  0  0  # atno 10765 bound_to 10752
  139.8929  134.9531  156.6598 H   0  0  0  0  0  0  0  0  0  0  0  0  # atno 11005 bound_to 11000
  145.0431  140.8961  143.5040 LP  0  0  0  0  0  0  0  0  0  0  0  0  # atno 17320 bound_to 7965
  145.1263  139.2661  143.5562 LP  0  0  0  0  0  0  0  0  0  0  0  0  # atno 17321 bound_to 7965
  140.1188  143.4631  152.2326 LP  0  0  0  0  0  0  0  0  0  0  0  0  # atno 17342 bound_to 10162
  139.5729  144.7472  151.3842 LP  0  0  0  0  0  0  0  0  0  0  0  0  # atno 17343 bound_to 10162
  155.9712  130.4158  150.4198 LP  0  0  0  0  0  0  0  0  0  0  0  0  # atno 17370 bound_to 10713
  157.2252  131.0491  151.2524 LP  0  0  0  0  0  0  0  0  0  0  0  0  # atno 17371 bound_to 10713
  140.7456  133.8941  155.8309 LP  0  0  0  0  0  0  0  0  0  0  0  0  # atno 17394 bound_to 11000
  141.0042  134.1108  157.4286 LP  0  0  0  0  0  0  0  0  0  0  0  0  # atno 17395 bound_to 11000

$$$$
