AV-unprocessed.smi:2053|AV-procd|sdf|8331|dock7
  -GOLD-   2272010593D 1   1.00000     0.00000
 Structure written by MMmdl.
 44 45  0  0  0  0  0  0  0  0  1 V2000
  152.1708  139.4671  155.3984 C   0  0  0  0  0  0  0  0  0  0  0  0
  150.9430  139.6032  156.0921 O   0  0  0  0  0  0  0  0  0  0  0  0
  150.8898  140.7847  156.8743 C   0  0  0  0  0  0  0  0  0  0  0  0
  151.8854  140.6679  158.0322 C   0  0  0  0  0  0  0  0  0  0  0  0
  151.6089  141.6953  158.9793 O   0  0  0  0  0  0  0  0  0  0  0  0
  152.4514  141.8384  160.0624 C   0  0  0  0  0  0  0  0  0  0  0  0
  152.1598  142.8357  161.0137 C   0  0  0  0  0  0  0  0  0  0  0  0
  153.0140  142.9916  162.1219 C   0  0  0  0  0  0  0  0  0  0  0  0
  154.1433  142.1466  162.2389 C   0  0  0  0  0  0  0  0  0  0  0  0
  155.0691  142.1852  163.3161 N   0  0  0  0  0  0  0  0  0  0  0  0
  155.0445  142.9387  164.4310 C   0  0  0  0  0  0  0  0  0  0  0  0
  154.1868  143.7862  164.6788 O   0  0  0  0  0  0  0  0  0  0  0  0
  156.2018  142.6874  165.4118 C   0  0  1  0  0  0  0  0  0  0  0  0
  156.1960  143.6098  166.6441 C   0  0  0  0  0  0  0  0  0  0  0  0
  155.4531  142.8007  167.6979 C   0  0  0  0  0  0  0  0  0  0  0  0
  155.8976  141.3690  167.4062 C   0  0  0  0  0  0  0  0  0  0  0  0
  156.1838  141.3224  165.9645 N   0  0  0  0  0  0  0  0  0  0  0  0
  157.3483  140.1789  165.3867 S   0  0  0  0  0  0  0  0  0  0  0  0
  156.3172  138.9986  164.4253 C   0  0  0  0  0  0  0  0  0  0  0  0
  158.2360  140.8832  164.4489 O   0  0  0  0  0  0  0  0  0  0  0  0
  157.9162  139.4866  166.5535 O   0  0  0  0  0  0  0  0  0  0  0  0
  154.3383  141.1709  161.2395 C   0  0  0  0  0  0  0  0  0  0  0  0
  153.5236  141.0163  160.1746 N   0  0  0  0  0  0  0  0  0  0  0  0
  152.1623  138.5463  154.8152 H   0  0  0  0  0  0  0  0  0  0  0  0
  153.0123  139.4191  156.0906 H   0  0  0  0  0  0  0  0  0  0  0  0
  152.3296  140.2993  154.7113 H   0  0  0  0  0  0  0  0  0  0  0  0
  151.1571  141.6387  156.2502 H   0  0  0  0  0  0  0  0  0  0  0  0
  149.8818  140.9585  157.2545 H   0  0  0  0  0  0  0  0  0  0  0  0
  151.8201  139.6787  158.4886 H   0  0  0  0  0  0  0  0  0  0  0  0
  152.8979  140.7934  157.6450 H   0  0  0  0  0  0  0  0  0  0  0  0
  151.2916  143.4676  160.8986 H   0  0  0  0  0  0  0  0  0  0  0  0
  152.7764  143.7419  162.8593 H   0  0  0  0  0  0  0  0  0  0  0  0
  155.8743  141.5836  163.2137 H   0  0  0  0  0  0  0  0  0  0  0  0
  157.1345  142.8487  164.8686 H   0  0  0  0  0  0  0  0  0  0  0  0
  157.2215  143.7862  166.9721 H   0  0  0  0  0  0  0  0  0  0  0  0
  155.7433  144.5871  166.4720 H   0  0  0  0  0  0  0  0  0  0  0  0
  155.6841  143.1163  168.7157 H   0  0  0  0  0  0  0  0  0  0  0  0
  154.3762  142.8948  167.5517 H   0  0  0  0  0  0  0  0  0  0  0  0
  156.8053  141.1399  167.9656 H   0  0  0  0  0  0  0  0  0  0  0  0
  155.1376  140.6349  167.6745 H   0  0  0  0  0  0  0  0  0  0  0  0
  156.9583  138.2382  163.9797 H   0  0  0  0  0  0  0  0  0  0  0  0
  155.7907  139.5353  163.6364 H   0  0  0  0  0  0  0  0  0  0  0  0
  155.5947  138.5188  165.0847 H   0  0  0  0  0  0  0  0  0  0  0  0
  155.1775  140.4929  161.2928 H   0  0  0  0  0  0  0  0  0  0  0  0
  1  2  1  0  0  0  0
  1 24  1  0  0  0  0
  1 25  1  0  0  0  0
  1 26  1  0  0  0  0
  2  3  1  0  0  0  0
  3  4  1  0  0  0  0
  3 27  1  0  0  0  0
  3 28  1  0  0  0  0
  4  5  1  0  0  0  0
  4 29  1  0  0  0  0
  4 30  1  0  0  0  0
  5  6  1  0  0  0  0
  6 23  1  0  0  0  0
  6  7  2  0  0  0  0
  7  8  1  0  0  0  0
  7 31  1  0  0  0  0
  8  9  2  0  0  0  0
  8 32  1  0  0  0  0
  9 10  1  0  0  0  0
  9 22  1  0  0  0  0
 10 11  1  0  0  0  0
 10 33  1  0  0  0  0
 11 12  2  0  0  0  0
 11 13  1  0  0  0  0
 13 17  1  0  0  0  0
 13 14  1  0  0  0  0
 13 34  1  0  0  0  0
 14 15  1  0  0  0  0
 14 35  1  0  0  0  0
 14 36  1  0  0  0  0
 15 16  1  0  0  0  0
 15 37  1  0  0  0  0
 15 38  1  0  0  0  0
 16 17  1  0  0  0  0
 16 39  1  0  0  0  0
 16 40  1  0  0  0  0
 17 18  1  0  0  0  0
 18 19  1  0  0  0  0
 18 20  2  0  0  0  0
 18 21  2  0  0  0  0
 19 41  1  0  0  0  0
 19 42  1  0  0  0  0
 19 43  1  0  0  0  0
 22 23  2  0  0  0  0
 22 44  1  0  0  0  0
M  END
> <s_m_source_file>
AV-unprocessed.smi

> <i_m_source_file_index>
2053

> <i_lp_mmshare_version>
43012

> <i_f3d_flags>
0

> <s_epik_input>
W0NIM11PW0NIMl1bQ0gyXU9jMVtjSF1bY0hdYyhbY0hdbjEpW05IXUMoPU8pW0NAQEhdMltDSDJdW0NIMl1bQ0gyXU4yUyg9TykoPU8pW0NIM10=

> <s_epik_cmdline>
J2VwaWtfcHl0aG9uJywgJy1waCcsICc3LjAnLCAnLXRuJywgJzgnLCAnLW1hJywgJzIwMCcsICctbWV0YWxfYmluZGluZycsICctaW1hZScsICc8aW5maWxlLm1hZT4nLCAnLW9tYWUnLCAnPG91dGZpbGUubWFlPic=

> <r_lp_tautomer_probability>
1

> <r_epik_Ionization_Penalty>
1.28704e-05

> <r_epik_Ionization_Penalty_Charging>
0

> <r_epik_Ionization_Penalty_Neutral>
1.28704e-05

> <r_epik_State_Penalty>
-0

> <r_epik_Charging_Adjusted_Penalty>
0

> <i_epik_Tot_Q>
0

> <i_epik_Tot_abs_Q>
0

> <r_epik_Metal_State_Penalty>
-0

> <b_epik_Metal_Only>
0

> <s_lp_Force_Field>
OPLS_2005

> <r_lp_Energy>
12.3258

> <b_lp_Chiralities_Consistent>
1

> <s_lp_Variant>
AV-unprocessed.smi:2053-2

> <Gold.Version>
5.8.1

> <Gold.Id.Protein>
6NUR|6NUR_protein|mol2

> <Gold.PLP.Fitness>
44.1279

> <Gold.PLP.PLP>
-44.2577

> <Gold.PLP.part.hbond>
-2.0900

> <Gold.PLP.part.metal>
0.0000

> <Gold.PLP.part.buried>
-4.7889

> <Gold.PLP.part.nonpolar>
-35.5876

> <Gold.PLP.part.repulsive>
0.1771

> <Gold.PLP.ligand.clash>
0.0000

> <Gold.PLP.ligand.torsion>
0.3538

> <Gold.PLP.Chemscore.Hbond>
0.0000

> <Gold.PLP.Chemscore.CHOScore>
0.0000

> <Gold.PLP.Chemscore.Metal>
0.0000

> <Gold.PLP.Chemscore.Internal.Correction>
0.5777

> <Gold.Rescore>
     Score         DG    S(hbond)    S(metal)    S(lipo)     H(rot)  DE(clash)    DE(int)     intcor
      7.56     -10.54       0.00        0.00      92.64       2.26       1.44       1.54       ----

> <Gold.Chemscore.Fitness>
7.5606

> <Gold.Chemscore.DG>
-10.5394

> <Gold.Chemscore.ZeroCoef>
-5.4800

> <Gold.Chemscore.Hbond>
0.0000

> <Gold.Chemscore.Metal>
0.0000

> <Gold.Chemscore.Lipo>
92.6405

> <Gold.Chemscore.Internal_Hbond>
0.0000

> <Gold.Chemscore.DEClash>
1.4361

> <Gold.Chemscore.DEInternal>
1.5427

> <Gold.Chemscore.Rot>
2.2576

> <Gold.Chemscore.Internal.Correction>
   9.000000E+99

> <Gold.Chemscore.Hbond.Weighted>
-0.0000

> <Gold.Chemscore.Metal.Weighted>
-0.0000

> <Gold.Chemscore.Lipo.Weighted>
-10.8389

> <Gold.Chemscore.Internal_Hbond.Weighted>
0.0000

> <Gold.Chemscore.DEClash.Weighted>
1.4361

> <Gold.Chemscore.DEInternal.Weighted>
1.5427

> <Gold.Chemscore.Rot.Weighted>
5.7796

> <Gold.Chemscore.Internal.Correction.Weighted>
   9.000000E+99

> <Gold.Protein.RotatedTorsions>
[ 6907 6896 6895 6894 ] final -172.42 input  -60.11 | X-H torsion
[ 7974 7965 7964 7962 ] final   35.33 input  175.53 | X-H torsion
[ 8008 7997 7996 7995 ] final -143.55 input   59.86 | X-H torsion
[ 10167 10162 10161 10158 ] final -137.04 input  -65.29 | X-H torsion
[ 10718 10713 10712 10709 ] final  -53.82 input   66.30 | X-H torsion
[ 10763 10752 10751 10750 ] final   -5.83 input  -60.55 | X-H torsion
[ 11005 11000 10999 10996 ] final  132.59 input  -57.11 | X-H torsion

> <Gold.Protein.ActiveResidues>
 VAL166  LYS551  ARG553  GLY616  TRP617  ASP618  TYR619  PRO620  LYS621  CYS622 
 ASP623  PHE694  ASN695  SER759  ASP760  ASP761  ALA762  ILE779  LEU786  VAL792 
 PHE793  MET794  SER795  GLU796  ALA797  LYS798  CYS799  TRP800  GLU811  SER814 

> <Gold.Protein.RotatedAtoms>
  151.5396  133.3435  159.2932 H   0  0  0  0  0  0  0  0  0  0  0  0  # atno 6907 bound_to 6896
  150.8543  134.7880  159.7044 H   0  0  0  0  0  0  0  0  0  0  0  0  # atno 6908 bound_to 6896
  152.4581  134.5254  159.9847 H   0  0  0  0  0  0  0  0  0  0  0  0  # atno 6909 bound_to 6896
  146.1290  139.6156  142.9239 H   0  0  0  0  0  0  0  0  0  0  0  0  # atno 7974 bound_to 7965
  155.5125  140.0584  157.2921 H   0  0  0  0  0  0  0  0  0  0  0  0  # atno 8008 bound_to 7997
  154.4547  140.1966  156.0363 H   0  0  0  0  0  0  0  0  0  0  0  0  # atno 8009 bound_to 7997
  156.0775  140.3251  155.7656 H   0  0  0  0  0  0  0  0  0  0  0  0  # atno 8010 bound_to 7997
  139.8617  143.7068  152.2649 H   0  0  0  0  0  0  0  0  0  0  0  0  # atno 10167 bound_to 10162
  156.1503  130.4151  149.9956 H   0  0  0  0  0  0  0  0  0  0  0  0  # atno 10718 bound_to 10713
  153.4039  135.7006  153.6406 H   0  0  0  0  0  0  0  0  0  0  0  0  # atno 10763 bound_to 10752
  153.4928  135.3669  155.2501 H   0  0  0  0  0  0  0  0  0  0  0  0  # atno 10764 bound_to 10752
  154.8712  135.4093  154.3379 H   0  0  0  0  0  0  0  0  0  0  0  0  # atno 10765 bound_to 10752
  139.9799  134.9551  156.9603 H   0  0  0  0  0  0  0  0  0  0  0  0  # atno 11005 bound_to 11000
  145.5301  141.0427  143.2387 LP  0  0  0  0  0  0  0  0  0  0  0  0  # atno 17320 bound_to 7965
  144.7671  139.6819  143.7210 LP  0  0  0  0  0  0  0  0  0  0  0  0  # atno 17321 bound_to 7965
  139.7367  144.7569  151.0716 LP  0  0  0  0  0  0  0  0  0  0  0  0  # atno 17342 bound_to 10162
  140.7774  143.5022  150.9757 LP  0  0  0  0  0  0  0  0  0  0  0  0  # atno 17343 bound_to 10162
  156.7816  130.9223  151.3646 LP  0  0  0  0  0  0  0  0  0  0  0  0  # atno 17370 bound_to 10713
  157.6651  130.9000  149.9914 LP  0  0  0  0  0  0  0  0  0  0  0  0  # atno 17371 bound_to 10713
  140.5117  134.0995  155.7272 LP  0  0  0  0  0  0  0  0  0  0  0  0  # atno 17394 bound_to 11000
  141.1472  133.9033  157.2186 LP  0  0  0  0  0  0  0  0  0  0  0  0  # atno 17395 bound_to 11000

$$$$
