AV-unprocessed.smi:2370|AV-procd|sdf|9435|dock6
  -GOLD-   2272013 63D 1   1.00000     0.00000
 Structure written by MMmdl.
 37 38  0  0  0  0  0  0  0  0  1 V2000
  146.9527  139.0811  152.8368 C   0  0  0  0  0  0  0  0  0  0  0  0
  146.8190  140.4956  152.7848 O   0  0  0  0  0  0  0  0  0  0  0  0
  147.2695  141.2111  153.9358 C   0  0  0  0  0  0  0  0  0  0  0  0
  148.7868  141.0684  154.1415 C   0  0  0  0  0  0  0  0  0  0  0  0
  149.2914  142.0458  155.1014 N   0  0  0  0  0  0  0  0  0  0  0  0
  150.2646  141.8288  155.9974 C   0  0  0  0  0  0  0  0  0  0  0  0
  150.8713  140.7621  156.0990 O   0  0  0  0  0  0  0  0  0  0  0  0
  150.4675  142.9124  156.7671 N   0  0  0  0  0  0  0  0  0  0  0  0
  151.3605  143.0560  157.8620 C   0  0  0  0  0  0  0  0  0  0  0  0
  152.0927  141.9412  158.3459 C   0  0  0  0  0  0  0  0  0  0  0  0
  152.9904  142.1144  159.4185 C   0  0  0  0  0  0  0  0  0  0  0  0
  153.7747  140.9369  159.9587 C   0  0  0  0  0  0  0  0  0  0  0  0
  153.1421  143.3995  159.9724 C   0  0  0  0  0  0  0  0  0  0  0  0
  152.3920  144.4530  159.4190 C   0  0  0  0  0  0  0  0  0  0  0  0
  151.5332  144.2896  158.3905 N   0  0  0  0  0  0  0  0  0  0  0  0
  146.6716  142.6306  153.8754 C   0  0  0  0  0  0  0  0  0  0  0  0
  146.2920  142.4918  155.3502 C   0  0  0  0  0  0  0  0  0  0  0  0
  146.3377  140.9774  155.1426 C   0  0  0  0  0  0  0  0  0  0  0  0
  146.4855  138.6459  151.9535 H   0  0  0  0  0  0  0  0  0  0  0  0
  146.4627  138.6560  153.7129 H   0  0  0  0  0  0  0  0  0  0  0  0
  147.9977  138.7725  152.8346 H   0  0  0  0  0  0  0  0  0  0  0  0
  149.0344  140.0549  154.4608 H   0  0  0  0  0  0  0  0  0  0  0  0
  149.3221  141.2055  153.2026 H   0  0  0  0  0  0  0  0  0  0  0  0
  148.8430  142.9502  155.0989 H   0  0  0  0  0  0  0  0  0  0  0  0
  149.8257  143.6795  156.6307 H   0  0  0  0  0  0  0  0  0  0  0  0
  151.9862  140.9620  157.9036 H   0  0  0  0  0  0  0  0  0  0  0  0
  154.5318  141.2597  160.6739 H   0  0  0  0  0  0  0  0  0  0  0  0
  154.2770  140.4096  159.1472 H   0  0  0  0  0  0  0  0  0  0  0  0
  153.1055  140.2379  160.4607 H   0  0  0  0  0  0  0  0  0  0  0  0
  153.8181  143.5791  160.7956 H   0  0  0  0  0  0  0  0  0  0  0  0
  152.4848  145.4549  159.8113 H   0  0  0  0  0  0  0  0  0  0  0  0
  147.3830  143.4297  153.6694 H   0  0  0  0  0  0  0  0  0  0  0  0
  145.7971  142.7023  153.2258 H   0  0  0  0  0  0  0  0  0  0  0  0
  147.0701  142.8530  156.0245 H   0  0  0  0  0  0  0  0  0  0  0  0
  145.3107  142.8894  155.6098 H   0  0  0  0  0  0  0  0  0  0  0  0
  145.3640  140.5683  154.8668 H   0  0  0  0  0  0  0  0  0  0  0  0
  146.7862  140.4223  155.9669 H   0  0  0  0  0  0  0  0  0  0  0  0
  1  2  1  0  0  0  0
  1 19  1  0  0  0  0
  1 20  1  0  0  0  0
  1 21  1  0  0  0  0
  2  3  1  0  0  0  0
  3 18  1  0  0  0  0
  3  4  1  0  0  0  0
  3 16  1  0  0  0  0
  4  5  1  0  0  0  0
  4 22  1  0  0  0  0
  4 23  1  0  0  0  0
  5  6  1  0  0  0  0
  5 24  1  0  0  0  0
  6  7  2  0  0  0  0
  6  8  1  0  0  0  0
  8  9  1  0  0  0  0
  8 25  1  0  0  0  0
  9 15  1  0  0  0  0
  9 10  2  0  0  0  0
 10 11  1  0  0  0  0
 10 26  1  0  0  0  0
 11 12  1  0  0  0  0
 11 13  2  0  0  0  0
 12 27  1  0  0  0  0
 12 28  1  0  0  0  0
 12 29  1  0  0  0  0
 13 14  1  0  0  0  0
 13 30  1  0  0  0  0
 14 15  2  0  0  0  0
 14 31  1  0  0  0  0
 16 17  1  0  0  0  0
 16 32  1  0  0  0  0
 16 33  1  0  0  0  0
 17 18  1  0  0  0  0
 17 34  1  0  0  0  0
 17 35  1  0  0  0  0
 18 36  1  0  0  0  0
 18 37  1  0  0  0  0
M  END
> <s_m_source_file>
AV-unprocessed.smi

> <i_m_source_file_index>
2370

> <i_lp_mmshare_version>
43012

> <i_f3d_flags>
0

> <s_epik_input>
W0NIMl0xW0NIMl1bQ0gyXUMxKE9bQ0gzXSlbQ0gyXVtOSF1DKD1PKVtOSF1jMltjSF1jKFtDSDNdKVtjSF1bY0hdbjI=

> <s_epik_cmdline>
J2VwaWtfcHl0aG9uJywgJy1waCcsICc3LjAnLCAnLXRuJywgJzgnLCAnLW1hJywgJzIwMCcsICctbWV0YWxfYmluZGluZycsICctaW1hZScsICc8aW5maWxlLm1hZT4nLCAnLW9tYWUnLCAnPG91dGZpbGUubWFlPic=

> <r_lp_tautomer_probability>
1

> <r_epik_Ionization_Penalty>
9.08611e-05

> <r_epik_Ionization_Penalty_Charging>
0

> <r_epik_Ionization_Penalty_Neutral>
9.08611e-05

> <r_epik_State_Penalty>
-0

> <r_epik_Charging_Adjusted_Penalty>
0

> <i_epik_Tot_Q>
0

> <i_epik_Tot_abs_Q>
0

> <r_epik_Metal_State_Penalty>
-0

> <b_epik_Metal_Only>
0

> <s_lp_Force_Field>
OPLS_2005

> <r_lp_Energy>
22.0857

> <b_lp_Chiralities_Consistent>
1

> <s_lp_Variant>
AV-unprocessed.smi:2370-1

> <Gold.Version>
5.8.1

> <Gold.Id.Protein>
6NUR|6NUR_protein|mol2

> <Gold.PLP.Fitness>
45.7207

> <Gold.PLP.PLP>
-40.3245

> <Gold.PLP.part.hbond>
-2.0000

> <Gold.PLP.part.metal>
0.0000

> <Gold.PLP.part.buried>
-6.5355

> <Gold.PLP.part.nonpolar>
-32.7961

> <Gold.PLP.part.repulsive>
0.6181

> <Gold.PLP.ligand.clash>
0.0000

> <Gold.PLP.ligand.torsion>
0.4227

> <Gold.PLP.Chemscore.Hbond>
1.9920

> <Gold.PLP.Chemscore.CHOScore>
0.0000

> <Gold.PLP.Chemscore.Metal>
0.0000

> <Gold.Chemscore.Hbonds>
donor molecule, donor type, donor heavy atom, donor atom, acceptor molecule, acceptor atom, score
      L1  H     5    24       P1  8028  0.98
      L1  H     8    25       P1  8028  1.00

> <Gold.PLP.Chemscore.Internal.Correction>
0.2656

> <Gold.Rescore>
     Score         DG    S(hbond)    S(metal)    S(lipo)     H(rot)  DE(clash)    DE(int)     intcor
     16.32     -18.99       1.92        0.00      92.32       1.45       0.02       2.64       ----

> <Gold.Chemscore.Fitness>
16.3250

> <Gold.Chemscore.DG>
-18.9879

> <Gold.Chemscore.ZeroCoef>
-5.4800

> <Gold.Chemscore.Hbond>
1.9234

> <Gold.Chemscore.Metal>
0.0000

> <Gold.Chemscore.Lipo>
92.3218

> <Gold.Chemscore.Internal_Hbond>
0.0000

> <Gold.Chemscore.DEClash>
0.0180

> <Gold.Chemscore.DEInternal>
2.6450

> <Gold.Chemscore.Rot>
1.4523

> <Gold.Chemscore.Internal.Correction>
   9.000000E+99

> <Gold.Chemscore.Hbonds>
donor molecule, donor type, donor heavy atom, donor atom, acceptor molecule, acceptor atom, score
      L1  H     5    24       P1  8028  0.93
      L1  H     8    25       P1  8028  0.97

> <Gold.Chemscore.Hbond.Weighted>
-6.4242

> <Gold.Chemscore.Metal.Weighted>
-0.0000

> <Gold.Chemscore.Lipo.Weighted>
-10.8016

> <Gold.Chemscore.Internal_Hbond.Weighted>
0.0000

> <Gold.Chemscore.DEClash.Weighted>
0.0180

> <Gold.Chemscore.DEInternal.Weighted>
2.6450

> <Gold.Chemscore.Rot.Weighted>
3.7179

> <Gold.Chemscore.Internal.Correction.Weighted>
   9.000000E+99

> <Gold.Protein.RotatedTorsions>
[ 6907 6896 6895 6894 ] final   31.64 input  -60.11 | X-H torsion
[ 7974 7965 7964 7962 ] final    1.43 input  175.53 | X-H torsion
[ 8008 7997 7996 7995 ] final   -7.45 input   59.86 | X-H torsion
[ 10167 10162 10161 10158 ] final   49.02 input  -65.29 | X-H torsion
[ 10718 10713 10712 10709 ] final -133.16 input   66.30 | X-H torsion
[ 10763 10752 10751 10750 ] final  -47.10 input  -60.55 | X-H torsion
[ 11005 11000 10999 10996 ] final  -25.18 input  -57.11 | X-H torsion

> <Gold.Protein.ActiveResidues>
 VAL166  LYS551  ARG553  GLY616  TRP617  ASP618  TYR619  PRO620  LYS621  CYS622 
 ASP623  PHE694  ASN695  SER759  ASP760  ASP761  ALA762  ILE779  LEU786  VAL792 
 PHE793  MET794  SER795  GLU796  ALA797  LYS798  CYS799  TRP800  GLU811  SER814 

> <Gold.Protein.RotatedAtoms>
  152.0631  134.9581  160.0574 H   0  0  0  0  0  0  0  0  0  0  0  0  # atno 6907 bound_to 6896
  152.0937  133.4208  159.4563 H   0  0  0  0  0  0  0  0  0  0  0  0  # atno 6908 bound_to 6896
  150.6837  134.2761  159.4651 H   0  0  0  0  0  0  0  0  0  0  0  0  # atno 6909 bound_to 6896
  146.2440  140.0988  142.8348 H   0  0  0  0  0  0  0  0  0  0  0  0  # atno 7974 bound_to 7965
  154.5837  140.2406  155.8017 H   0  0  0  0  0  0  0  0  0  0  0  0  # atno 8008 bound_to 7997
  156.2198  140.3001  155.9880 H   0  0  0  0  0  0  0  0  0  0  0  0  # atno 8009 bound_to 7997
  155.2496  140.0410  157.2975 H   0  0  0  0  0  0  0  0  0  0  0  0  # atno 8010 bound_to 7997
  140.2872  144.3088  150.6249 H   0  0  0  0  0  0  0  0  0  0  0  0  # atno 10167 bound_to 10162
  156.2420  130.7101  151.0966 H   0  0  0  0  0  0  0  0  0  0  0  0  # atno 10718 bound_to 10713
  154.0559  135.6624  153.4806 H   0  0  0  0  0  0  0  0  0  0  0  0  # atno 10763 bound_to 10752
  153.0445  135.5123  154.7706 H   0  0  0  0  0  0  0  0  0  0  0  0  # atno 10764 bound_to 10752
  154.6727  135.3032  154.9687 H   0  0  0  0  0  0  0  0  0  0  0  0  # atno 10765 bound_to 10752
  140.8914  133.7586  156.0426 H   0  0  0  0  0  0  0  0  0  0  0  0  # atno 11005 bound_to 11000
  145.0586  140.9071  143.4952 LP  0  0  0  0  0  0  0  0  0  0  0  0  # atno 17320 bound_to 7965
  145.1099  139.2764  143.5642 LP  0  0  0  0  0  0  0  0  0  0  0  0  # atno 17321 bound_to 7965
  140.5762  143.2176  151.7510 LP  0  0  0  0  0  0  0  0  0  0  0  0  # atno 17342 bound_to 10162
  139.4947  144.4145  152.0044 LP  0  0  0  0  0  0  0  0  0  0  0  0  # atno 17343 bound_to 10162
  157.7179  131.0699  150.6253 LP  0  0  0  0  0  0  0  0  0  0  0  0  # atno 17370 bound_to 10713
  156.6327  130.4436  149.5780 LP  0  0  0  0  0  0  0  0  0  0  0  0  # atno 17371 bound_to 10713
  140.8342  134.3142  157.5337 LP  0  0  0  0  0  0  0  0  0  0  0  0  # atno 17394 bound_to 11000
  139.8730  134.9380  156.3703 LP  0  0  0  0  0  0  0  0  0  0  0  0  # atno 17395 bound_to 11000

$$$$
