AV-unprocessed.smi:1726|AV-procd|sdf|6963|dock7
  -GOLD-   22720 8173D 1   1.00000     0.00000
 Structure written by MMmdl.
 42 43  0  0  0  0  0  0  0  0  3 V2000
  145.2844  132.7141  151.6293 C   0  0  0  0  0  0  0  0  0  0  0  0
  146.6062  133.4716  151.4359 C   0  0  0  0  0  0  0  0  0  0  0  0
  146.5039  134.8959  151.8395 N   0  3  1  0  0  0  0  0  0  0  0  0
  145.7184  135.7070  150.8731 C   0  0  0  0  0  0  0  0  0  0  0  0
  145.7599  137.2027  151.2352 C   0  0  0  0  0  0  0  0  0  0  0  0
  145.3129  137.4450  152.6874 C   0  0  0  0  0  0  0  0  0  0  0  0
  146.1083  136.5589  153.6630 C   0  0  2  0  0  0  0  0  0  0  0  0
  147.5013  137.0038  153.7138 N   0  0  0  0  0  0  0  0  0  0  0  0
  148.0075  137.8833  154.5895 C   0  0  0  0  0  0  0  0  0  0  0  0
  147.3284  138.4421  155.4504 O   0  0  0  0  0  0  0  0  0  0  0  0
  149.3329  138.0235  154.4111 N   0  0  0  0  0  0  0  0  0  0  0  0
  150.2482  138.8121  155.1276 C   0  0  0  0  0  0  0  0  0  0  0  0
  149.9098  139.8498  155.9419 C   0  0  0  0  0  0  0  0  0  0  0  0
  150.9073  140.6375  156.6554 C   0  0  0  0  0  0  0  0  0  0  0  0
  150.5726  141.8460  157.5116 C   0  0  0  0  0  0  0  0  0  0  0  0
  151.0482  142.9519  156.9407 F   0  0  0  0  0  0  0  0  0  0  0  0
  149.2538  141.9842  157.6512 F   0  0  0  0  0  0  0  0  0  0  0  0
  151.1147  141.7378  158.7248 F   0  0  0  0  0  0  0  0  0  0  0  0
  152.1967  140.2260  156.3789 C   0  0  0  0  0  0  0  0  0  0  0  0
  152.6151  139.2084  155.5946 N   0  5  0  0  0  0  0  0  0  0  0  0
  151.6737  138.4725  154.9395 C   0  0  0  0  0  0  0  0  0  0  0  0
  151.9848  137.5360  154.2024 O   0  0  0  0  0  0  0  0  0  0  0  0
  145.9982  135.0814  153.2255 C   0  0  0  0  0  0  0  0  0  0  0  0
  145.4155  131.6534  151.4141 H   0  0  0  0  0  0  0  0  0  0  0  0
  144.4986  133.0814  150.9699 H   0  0  0  0  0  0  0  0  0  0  0  0
  144.9283  132.8002  152.6564 H   0  0  0  0  0  0  0  0  0  0  0  0
  147.3619  132.9785  152.0489 H   0  0  0  0  0  0  0  0  0  0  0  0
  146.9490  133.3966  150.4028 H   0  0  0  0  0  0  0  0  0  0  0  0
  146.1176  135.5736  149.8668 H   0  0  0  0  0  0  0  0  0  0  0  0
  144.6865  135.3523  150.8547 H   0  0  0  0  0  0  0  0  0  0  0  0
  146.7721  137.5832  151.0926 H   0  0  0  0  0  0  0  0  0  0  0  0
  145.1243  137.7674  150.5527 H   0  0  0  0  0  0  0  0  0  0  0  0
  145.4244  138.4983  152.9479 H   0  0  0  0  0  0  0  0  0  0  0  0
  144.2498  137.2183  152.7789 H   0  0  0  0  0  0  0  0  0  0  0  0
  145.6791  136.6703  154.6602 H   0  0  0  0  0  0  0  0  0  0  0  0
  148.1319  136.6005  153.0359 H   0  0  0  0  0  0  0  0  0  0  0  0
  149.7563  137.4442  153.7008 H   0  0  0  0  0  0  0  0  0  0  0  0
  148.8792  140.1352  156.0741 H   0  0  0  0  0  0  0  0  0  0  0  0
  153.0159  140.8037  156.8578 H   0  0  0  0  0  0  0  0  0  0  0  0
  144.9590  134.7527  153.2783 H   0  0  0  0  0  0  0  0  0  0  0  0
  146.5491  134.4505  153.9216 H   0  0  0  0  0  0  0  0  0  0  0  0
  147.4445  135.2638  151.8196 H   0  0  0  0  0  0  0  0  0  0  0  0
  1  2  1  0  0  0  0
  1 24  1  0  0  0  0
  1 25  1  0  0  0  0
  1 26  1  0  0  0  0
  2  3  1  0  0  0  0
  2 27  1  0  0  0  0
  2 28  1  0  0  0  0
  3 23  1  0  0  0  0
  3  4  1  0  0  0  0
  3 42  1  0  0  0  0
  4  5  1  0  0  0  0
  4 29  1  0  0  0  0
  4 30  1  0  0  0  0
  5  6  1  0  0  0  0
  5 31  1  0  0  0  0
  5 32  1  0  0  0  0
  6  7  1  0  0  0  0
  6 33  1  0  0  0  0
  6 34  1  0  0  0  0
  7  8  1  0  0  0  0
  7 23  1  0  0  0  0
  7 35  1  0  0  0  0
  8  9  1  0  0  0  0
  8 36  1  0  0  0  0
  9 10  2  0  0  0  0
  9 11  1  0  0  0  0
 11 12  1  0  0  0  0
 11 37  1  0  0  0  0
 12 21  1  0  0  0  0
 12 13  2  0  0  0  0
 13 14  1  0  0  0  0
 13 38  1  0  0  0  0
 14 15  1  0  0  0  0
 14 19  2  0  0  0  0
 15 16  1  0  0  0  0
 15 17  1  0  0  0  0
 15 18  1  0  0  0  0
 19 20  1  0  0  0  0
 19 39  1  0  0  0  0
 20 21  1  0  0  0  0
 21 22  2  0  0  0  0
 23 40  1  0  0  0  0
 23 41  1  0  0  0  0
M  CHG  1   3   1
M  CHG  1  20  -1
M  END
> <s_m_source_file>
AV-unprocessed.smi

> <i_m_source_file_index>
1726

> <i_lp_mmshare_version>
43012

> <i_f3d_flags>
0

> <s_epik_input>
W0NIM11bQ0gyXU4xW0NIMl1bQ0gyXVtDSDJdW0NASF0oW0NIMl0xKVtOSF1DKD1PKVtOSF1jMltjSF1jKEMoRikoRilGKVtjSF1bbkhdYzI9Tw==

> <s_epik_cmdline>
J2VwaWtfcHl0aG9uJywgJy1waCcsICc3LjAnLCAnLXRuJywgJzgnLCAnLW1hJywgJzIwMCcsICctbWV0YWxfYmluZGluZycsICctaW1hZScsICc8aW5maWxlLm1hZT4nLCAnLW9tYWUnLCAnPG91dGZpbGUubWFlPic=

> <r_lp_tautomer_probability>
1

> <r_epik_Ionization_Penalty>
3.01007

> <r_epik_Ionization_Penalty_Charging>
0.14897

> <r_epik_Ionization_Penalty_Neutral>
2.8611

> <r_epik_State_Penalty>
2.85632

> <r_epik_Charging_Adjusted_Penalty>
3.00529

> <i_epik_Tot_Q>
0

> <i_epik_Tot_abs_Q>
2

> <r_epik_Metal_State_Penalty>
0.443826

> <b_epik_Metal_Only>
1

> <s_lp_Force_Field>
OPLS_2005

> <r_lp_Energy>
34.1377

> <b_lp_Chiralities_Consistent>
1

> <s_lp_Variant>
AV-unprocessed.smi:1726-7

> <Gold.Version>
5.8.1

> <Gold.Id.Protein>
6NUR|6NUR_protein|mol2

> <Gold.PLP.Fitness>
43.1738

> <Gold.PLP.PLP>
-32.1348

> <Gold.PLP.part.hbond>
-4.3939

> <Gold.PLP.part.metal>
0.0000

> <Gold.PLP.part.buried>
-2.4026

> <Gold.PLP.part.nonpolar>
-27.4238

> <Gold.PLP.part.repulsive>
0.2533

> <Gold.PLP.ligand.clash>
0.0000

> <Gold.PLP.ligand.torsion>
0.5759

> <Gold.PLP.Chemscore.Hbond>
4.0417

> <Gold.PLP.Chemscore.CHOScore>
0.0000

> <Gold.PLP.Chemscore.Metal>
0.0000

> <Gold.Chemscore.Hbonds>
donor molecule, donor type, donor heavy atom, donor atom, acceptor molecule, acceptor atom, score
      L1  H     3    42       P1  7948  2.00
      L1  H     8    36       P1  7948  0.88
      L1  H    11    37       P1  7948  0.21
      P1  H  7997  8008       L1    20  0.08
      P1  H 10752 10765       L1    22  0.77

> <Gold.PLP.Chemscore.Internal.Correction>
0.0657

> <Gold.Rescore>
     Score         DG    S(hbond)    S(metal)    S(lipo)     H(rot)  DE(clash)    DE(int)     intcor
     18.09     -21.68       3.50        0.00      66.47       1.28       1.98       1.61       ----

> <Gold.Chemscore.Fitness>
18.0872

> <Gold.Chemscore.DG>
-21.6759

> <Gold.Chemscore.ZeroCoef>
-5.4800

> <Gold.Chemscore.Hbond>
3.5016

> <Gold.Chemscore.Metal>
0.0000

> <Gold.Chemscore.Lipo>
66.4665

> <Gold.Chemscore.Internal_Hbond>
0.0000

> <Gold.Chemscore.DEClash>
1.9783

> <Gold.Chemscore.DEInternal>
1.6104

> <Gold.Chemscore.Rot>
1.2796

> <Gold.Chemscore.Internal.Correction>
   9.000000E+99

> <Gold.Chemscore.Hbonds>
donor molecule, donor type, donor heavy atom, donor atom, acceptor molecule, acceptor atom, score
      L1  H     3    42       P1  7948  0.96
      L1  H     8    36       P1  7948  0.86
      L1  H    11    37       P1  7948  0.17
      P1  H 10752 10765       L1    22  0.75

> <Gold.Chemscore.Hbond.Weighted>
-11.6952

> <Gold.Chemscore.Metal.Weighted>
-0.0000

> <Gold.Chemscore.Lipo.Weighted>
-7.7766

> <Gold.Chemscore.Internal_Hbond.Weighted>
0.0000

> <Gold.Chemscore.DEClash.Weighted>
1.9783

> <Gold.Chemscore.DEInternal.Weighted>
1.6104

> <Gold.Chemscore.Rot.Weighted>
3.2759

> <Gold.Chemscore.Internal.Correction.Weighted>
   9.000000E+99

> <Gold.Protein.RotatedTorsions>
[ 6907 6896 6895 6894 ] final   53.31 input  -60.11 | X-H torsion
[ 7974 7965 7964 7962 ] final -130.21 input  175.53 | X-H torsion
[ 8008 7997 7996 7995 ] final  -13.64 input   59.86 | X-H torsion
[ 10167 10162 10161 10158 ] final -161.17 input  -65.29 | X-H torsion
[ 10718 10713 10712 10709 ] final  -75.91 input   66.30 | X-H torsion
[ 10763 10752 10751 10750 ] final  152.49 input  -60.55 | X-H torsion
[ 11005 11000 10999 10996 ] final  101.32 input  -57.11 | X-H torsion

> <Gold.Protein.ActiveResidues>
 VAL166  LYS551  ARG553  GLY616  TRP617  ASP618  TYR619  PRO620  LYS621  CYS622 
 ASP623  PHE694  ASN695  SER759  ASP760  ASP761  ALA762  ILE779  LEU786  VAL792 
 PHE793  MET794  SER795  GLU796  ALA797  LYS798  CYS799  TRP800  GLU811  SER814 

> <Gold.Protein.RotatedAtoms>
  152.3324  134.7242  160.0285 H   0  0  0  0  0  0  0  0  0  0  0  0  # atno 6907 bound_to 6896
  151.7654  133.3331  159.3437 H   0  0  0  0  0  0  0  0  0  0  0  0  # atno 6908 bound_to 6896
  150.7431  134.5999  159.6076 H   0  0  0  0  0  0  0  0  0  0  0  0  # atno 6909 bound_to 6896
  144.9496  140.7330  143.4796 H   0  0  0  0  0  0  0  0  0  0  0  0  # atno 7974 bound_to 7965
  154.5275  140.2244  155.8863 H   0  0  0  0  0  0  0  0  0  0  0  0  # atno 8008 bound_to 7997
  156.1729  140.3118  155.8970 H   0  0  0  0  0  0  0  0  0  0  0  0  # atno 8009 bound_to 7997
  155.3520  140.0456  157.3037 H   0  0  0  0  0  0  0  0  0  0  0  0  # atno 8010 bound_to 7997
  139.6485  144.0128  152.2144 H   0  0  0  0  0  0  0  0  0  0  0  0  # atno 10167 bound_to 10162
  156.0192  130.4452  150.3114 H   0  0  0  0  0  0  0  0  0  0  0  0  # atno 10718 bound_to 10713
  154.1209  135.2833  155.3208 H   0  0  0  0  0  0  0  0  0  0  0  0  # atno 10763 bound_to 10752
  154.6424  135.5398  153.7808 H   0  0  0  0  0  0  0  0  0  0  0  0  # atno 10764 bound_to 10752
  153.0313  135.6489  154.1363 H   0  0  0  0  0  0  0  0  0  0  0  0  # atno 10765 bound_to 10752
  139.8773  134.9178  156.4890 H   0  0  0  0  0  0  0  0  0  0  0  0  # atno 11005 bound_to 11000
  145.2864  139.1899  143.4764 LP  0  0  0  0  0  0  0  0  0  0  0  0  # atno 17320 bound_to 7965
  146.3316  140.2834  142.8611 LP  0  0  0  0  0  0  0  0  0  0  0  0  # atno 17321 bound_to 7965
  139.9836  144.6411  150.7878 LP  0  0  0  0  0  0  0  0  0  0  0  0  # atno 17342 bound_to 10162
  140.7526  143.2993  151.3121 LP  0  0  0  0  0  0  0  0  0  0  0  0  # atno 17343 bound_to 10162
  157.1216  131.0248  151.3007 LP  0  0  0  0  0  0  0  0  0  0  0  0  # atno 17370 bound_to 10713
  157.4623  130.7660  149.7247 LP  0  0  0  0  0  0  0  0  0  0  0  0  # atno 17371 bound_to 10713
  140.8672  133.8015  155.9327 LP  0  0  0  0  0  0  0  0  0  0  0  0  # atno 17394 bound_to 11000
  140.8989  134.2403  157.5053 LP  0  0  0  0  0  0  0  0  0  0  0  0  # atno 17395 bound_to 11000

$$$$
