AV-unprocessed.smi:3009|AV-procd|sdf|11451|dock10
  -GOLD-   2272016383D 1   1.00000     0.00000
 Structure written by MMmdl.
 44 45  0  0  0  0  0  0  0  0  2 V2000
  149.2451  141.7081  154.7905 C   0  0  0  0  0  0  0  0  0  0  0  0
  149.8417  140.9916  156.0136 C   0  0  0  0  0  0  0  0  0  0  0  0
  150.2475  142.0131  157.0865 C   0  0  0  0  0  0  0  0  0  0  0  0
  151.0447  140.1028  155.6306 C   0  0  0  0  0  0  0  0  0  0  0  0
  150.7504  139.1701  154.5082 N   0  3  1  0  0  0  0  0  0  0  0  0
  151.7246  138.0580  154.3919 C   0  0  0  0  0  0  0  0  0  0  0  0
  151.4494  136.9671  155.4422 C   0  0  0  0  0  0  0  0  0  0  0  0
  150.1139  136.5000  155.2984 O   0  0  0  0  0  0  0  0  0  0  0  0
  149.1500  137.5251  155.5211 C   0  0  2  0  0  0  0  0  0  0  0  0
  147.7470  136.9013  155.4153 C   0  0  0  0  0  0  0  0  0  0  0  0
  147.4449  136.4775  154.0522 N   0  0  0  0  0  0  0  0  0  0  0  0
  146.3114  135.8704  153.6737 C   0  0  0  0  0  0  0  0  0  0  0  0
  145.3891  135.6131  154.4481 O   0  0  0  0  0  0  0  0  0  0  0  0
  146.3257  135.5777  152.3634 N   0  0  0  0  0  0  0  0  0  0  0  0
  145.3092  134.9306  151.6162 C   0  0  0  0  0  0  0  0  0  0  0  0
  145.1423  133.5219  151.5273 C   0  0  0  0  0  0  0  0  0  0  0  0
  144.1108  133.2048  150.7579 N   0  0  0  0  0  0  0  0  0  0  0  0
  143.6204  134.3973  150.3512 N   0  0  0  0  0  0  0  0  0  0  0  0
  144.3190  135.4756  150.8476 C   0  0  0  0  0  0  0  0  0  0  0  0
  149.3611  138.6436  154.4772 C   0  0  0  0  0  0  0  0  0  0  0  0
  142.8185  134.4583  149.7400 H   0  0  0  0  0  0  0  0  0  0  0  0
  149.9817  142.3528  154.3101 H   0  0  0  0  0  0  0  0  0  0  0  0
  148.3969  142.3304  155.0772 H   0  0  0  0  0  0  0  0  0  0  0  0
  148.8869  140.9975  154.0452 H   0  0  0  0  0  0  0  0  0  0  0  0
  149.0604  140.3721  156.4527 H   0  0  0  0  0  0  0  0  0  0  0  0
  151.0266  142.6838  156.7227 H   0  0  0  0  0  0  0  0  0  0  0  0
  150.6269  141.5165  157.9801 H   0  0  0  0  0  0  0  0  0  0  0  0
  149.3971  142.6251  157.3887 H   0  0  0  0  0  0  0  0  0  0  0  0
  151.8697  140.7580  155.3463 H   0  0  0  0  0  0  0  0  0  0  0  0
  151.3954  139.5453  156.4989 H   0  0  0  0  0  0  0  0  0  0  0  0
  151.6357  137.6269  153.3938 H   0  0  0  0  0  0  0  0  0  0  0  0
  152.7470  138.4285  154.4736 H   0  0  0  0  0  0  0  0  0  0  0  0
  152.1316  136.1292  155.2980 H   0  0  0  0  0  0  0  0  0  0  0  0
  151.6142  137.3389  156.4545 H   0  0  0  0  0  0  0  0  0  0  0  0
  149.2800  137.9302  156.5253 H   0  0  0  0  0  0  0  0  0  0  0  0
  147.6601  136.0466  156.0886 H   0  0  0  0  0  0  0  0  0  0  0  0
  146.9906  137.6206  155.7306 H   0  0  0  0  0  0  0  0  0  0  0  0
  148.1514  136.6517  153.3523 H   0  0  0  0  0  0  0  0  0  0  0  0
  147.1544  135.8342  151.8471 H   0  0  0  0  0  0  0  0  0  0  0  0
  145.7223  132.7353  151.9871 H   0  0  0  0  0  0  0  0  0  0  0  0
  144.0529  136.4951  150.6114 H   0  0  0  0  0  0  0  0  0  0  0  0
  148.6348  139.4427  154.6195 H   0  0  0  0  0  0  0  0  0  0  0  0
  149.1765  138.2441  153.4791 H   0  0  0  0  0  0  0  0  0  0  0  0
  150.8673  139.7252  153.6723 H   0  0  0  0  0  0  0  0  0  0  0  0
  1  2  1  0  0  0  0
  1 22  1  0  0  0  0
  1 23  1  0  0  0  0
  1 24  1  0  0  0  0
  2  3  1  0  0  0  0
  2  4  1  0  0  0  0
  2 25  1  0  0  0  0
  3 26  1  0  0  0  0
  3 27  1  0  0  0  0
  3 28  1  0  0  0  0
  4  5  1  0  0  0  0
  4 29  1  0  0  0  0
  4 30  1  0  0  0  0
  5 20  1  0  0  0  0
  5  6  1  0  0  0  0
  5 44  1  0  0  0  0
  6  7  1  0  0  0  0
  6 31  1  0  0  0  0
  6 32  1  0  0  0  0
  7  8  1  0  0  0  0
  7 33  1  0  0  0  0
  7 34  1  0  0  0  0
  8  9  1  0  0  0  0
  9 10  1  0  0  0  0
  9 20  1  0  0  0  0
  9 35  1  0  0  0  0
 10 11  1  0  0  0  0
 10 36  1  0  0  0  0
 10 37  1  0  0  0  0
 11 12  1  0  0  0  0
 11 38  1  0  0  0  0
 12 13  2  0  0  0  0
 12 14  1  0  0  0  0
 14 15  1  0  0  0  0
 14 39  1  0  0  0  0
 15 19  2  0  0  0  0
 15 16  1  0  0  0  0
 16 17  2  0  0  0  0
 16 40  1  0  0  0  0
 17 18  1  0  0  0  0
 18 21  1  0  0  0  0
 18 19  1  0  0  0  0
 19 41  1  0  0  0  0
 20 42  1  0  0  0  0
 20 43  1  0  0  0  0
M  CHG  1   5   1
M  END
> <s_m_source_file>
AV-unprocessed.smi

> <i_m_source_file_index>
3009

> <i_lp_mmshare_version>
43012

> <i_f3d_flags>
0

> <s_epik_input>
W0NIM11bQ0hdKFtDSDNdKVtDSDJdTjFbQ0gyXVtDSDJdT1tDQEhdKFtDSDJdMSlbQ0gyXVtOSF1DKD1PKVtOSF1jMltjSF1uW25IXVtjSF0y

> <s_epik_cmdline>
J2VwaWtfcHl0aG9uJywgJy1waCcsICc3LjAnLCAnLXRuJywgJzgnLCAnLW1hJywgJzIwMCcsICctbWV0YWxfYmluZGluZycsICctaW1hZScsICc8aW5maWxlLm1hZT4nLCAnLW9tYWUnLCAnPG91dGZpbGUubWFlPic=

> <r_lp_tautomer_probability>
0.5

> <r_epik_Ionization_Penalty>
0.0974064

> <r_epik_Ionization_Penalty_Charging>
0.0973651

> <r_epik_Ionization_Penalty_Neutral>
4.13573e-05

> <r_epik_State_Penalty>
0.0874853

> <r_epik_Charging_Adjusted_Penalty>
0.18485

> <i_epik_Tot_Q>
1

> <i_epik_Tot_abs_Q>
1

> <r_epik_Metal_State_Penalty>
0.0874855

> <b_epik_Metal_Only>
0

> <s_lp_Force_Field>
OPLS_2005

> <r_lp_Energy>
21.5437

> <b_lp_Chiralities_Consistent>
1

> <s_lp_Variant>
AV-unprocessed.smi:3009-3

> <Gold.Version>
5.8.1

> <Gold.Id.Protein>
6NUR|6NUR_protein|mol2

> <Gold.PLP.Fitness>
37.8689

> <Gold.PLP.PLP>
-27.8729

> <Gold.PLP.part.hbond>
-3.0000

> <Gold.PLP.part.metal>
0.0000

> <Gold.PLP.part.buried>
-2.3425

> <Gold.PLP.part.nonpolar>
-22.6727

> <Gold.PLP.part.repulsive>
0.4602

> <Gold.PLP.ligand.clash>
0.0000

> <Gold.PLP.ligand.torsion>
1.0143

> <Gold.PLP.Chemscore.Hbond>
2.9920

> <Gold.PLP.Chemscore.CHOScore>
1.0000

> <Gold.PLP.Chemscore.Metal>
0.0000

> <Gold.Chemscore.Hbonds>
donor molecule, donor type, donor heavy atom, donor atom, acceptor molecule, acceptor atom, score
      L1  H    11    38       P1  7948  1.00
      L1  H    14    39       P1  7948  0.99
      L1  H    18    21       P1 10186  0.98
      L1  C    19    41       P1 10171  1.00

> <Gold.PLP.Chemscore.Internal.Correction>
0.0485

> <Gold.Rescore>
     Score         DG    S(hbond)    S(metal)    S(lipo)     H(rot)  DE(clash)    DE(int)     intcor
     16.97     -18.13       2.93        0.00      63.71       1.80       0.14       1.01       ----

> <Gold.Chemscore.Fitness>
16.9726

> <Gold.Chemscore.DG>
-18.1290

> <Gold.Chemscore.ZeroCoef>
-5.4800

> <Gold.Chemscore.Hbond>
2.9322

> <Gold.Chemscore.Metal>
0.0000

> <Gold.Chemscore.Lipo>
63.7080

> <Gold.Chemscore.Internal_Hbond>
0.0000

> <Gold.Chemscore.DEClash>
0.1448

> <Gold.Chemscore.DEInternal>
1.0117

> <Gold.Chemscore.Rot>
1.7963

> <Gold.Chemscore.Internal.Correction>
   9.000000E+99

> <Gold.Chemscore.Hbonds>
donor molecule, donor type, donor heavy atom, donor atom, acceptor molecule, acceptor atom, score
      L1  H    11    38       P1  7948  0.95
      L1  H    14    39       P1  7948  0.94
      L1  H    18    21       P1 10186  0.89

> <Gold.Chemscore.Hbond.Weighted>
-9.7937

> <Gold.Chemscore.Metal.Weighted>
-0.0000

> <Gold.Chemscore.Lipo.Weighted>
-7.4538

> <Gold.Chemscore.Internal_Hbond.Weighted>
0.0000

> <Gold.Chemscore.DEClash.Weighted>
0.1448

> <Gold.Chemscore.DEInternal.Weighted>
1.0117

> <Gold.Chemscore.Rot.Weighted>
4.5985

> <Gold.Chemscore.Internal.Correction.Weighted>
   9.000000E+99

> <Gold.Protein.RotatedTorsions>
[ 6907 6896 6895 6894 ] final -118.43 input  -60.11 | X-H torsion
[ 7974 7965 7964 7962 ] final  -15.51 input  175.53 | X-H torsion
[ 8008 7997 7996 7995 ] final   13.35 input   59.86 | X-H torsion
[ 10167 10162 10161 10158 ] final -168.07 input  -65.29 | X-H torsion
[ 10718 10713 10712 10709 ] final -143.26 input   66.30 | X-H torsion
[ 10763 10752 10751 10750 ] final   56.37 input  -60.55 | X-H torsion
[ 11005 11000 10999 10996 ] final   30.62 input  -57.11 | X-H torsion

> <Gold.Protein.ActiveResidues>
 VAL166  LYS551  ARG553  GLY616  TRP617  ASP618  TYR619  PRO620  LYS621  CYS622 
 ASP623  PHE694  ASN695  SER759  ASP760  ASP761  ALA762  ILE779  LEU786  VAL792 
 PHE793  MET794  SER795  GLU796  ALA797  LYS798  CYS799  TRP800  GLU811  SER814 

> <Gold.Protein.RotatedAtoms>
  150.8219  133.8237  159.3134 H   0  0  0  0  0  0  0  0  0  0  0  0  # atno 6907 bound_to 6896
  151.5993  135.1046  160.0066 H   0  0  0  0  0  0  0  0  0  0  0  0  # atno 6908 bound_to 6896
  152.4308  133.7233  159.6602 H   0  0  0  0  0  0  0  0  0  0  0  0  # atno 6909 bound_to 6896
  146.2028  140.3504  142.8417 H   0  0  0  0  0  0  0  0  0  0  0  0  # atno 7974 bound_to 7965
  154.8333  140.2903  155.5708 H   0  0  0  0  0  0  0  0  0  0  0  0  # atno 8008 bound_to 7997
  156.3007  140.2528  156.3193 H   0  0  0  0  0  0  0  0  0  0  0  0  # atno 8009 bound_to 7997
  154.9207  140.0386  157.1985 H   0  0  0  0  0  0  0  0  0  0  0  0  # atno 8010 bound_to 7997
  139.6009  144.1013  152.1741 H   0  0  0  0  0  0  0  0  0  0  0  0  # atno 10167 bound_to 10162
  156.3558  130.7712  151.1872 H   0  0  0  0  0  0  0  0  0  0  0  0  # atno 10718 bound_to 10713
  152.9831  135.5679  154.5217 H   0  0  0  0  0  0  0  0  0  0  0  0  # atno 10763 bound_to 10752
  154.4704  135.2784  155.1649 H   0  0  0  0  0  0  0  0  0  0  0  0  # atno 10764 bound_to 10752
  154.3199  135.6271  153.5556 H   0  0  0  0  0  0  0  0  0  0  0  0  # atno 10765 bound_to 10752
  140.2925  134.2849  155.7772 H   0  0  0  0  0  0  0  0  0  0  0  0  # atno 11005 bound_to 11000
  144.8723  140.7289  143.6039 LP  0  0  0  0  0  0  0  0  0  0  0  0  # atno 17320 bound_to 7965
  145.3423  139.1729  143.4479 LP  0  0  0  0  0  0  0  0  0  0  0  0  # atno 17321 bound_to 7965
  140.0609  144.5857  150.7263 LP  0  0  0  0  0  0  0  0  0  0  0  0  # atno 17342 bound_to 10162
  140.7248  143.2625  151.4156 LP  0  0  0  0  0  0  0  0  0  0  0  0  # atno 17343 bound_to 10162
  157.7467  131.0414  150.4645 LP  0  0  0  0  0  0  0  0  0  0  0  0  # atno 17370 bound_to 10713
  156.4848  130.4082  149.6440 LP  0  0  0  0  0  0  0  0  0  0  0  0  # atno 17371 bound_to 10713
  141.2143  133.7594  156.9645 LP  0  0  0  0  0  0  0  0  0  0  0  0  # atno 17394 bound_to 11000
  140.1183  134.9433  157.2166 LP  0  0  0  0  0  0  0  0  0  0  0  0  # atno 17395 bound_to 11000

$$$$
