AV-unprocessed.smi:2857|AV-procd|sdf|10997|dock3
  -GOLD-   2272015453D 1   1.00000     0.00000
 Structure written by MMmdl.
 44 46  0  0  0  0  0  0  0  0  1 V2000
  152.5909  132.1328  157.2853 C   0  0  0  0  0  0  0  0  0  0  0  0
  151.4206  132.7012  156.5091 C   0  0  0  0  0  0  0  0  0  0  0  0
  150.5843  131.8525  155.7585 C   0  0  0  0  0  0  0  0  0  0  0  0
  149.4995  132.3893  155.0425 C   0  0  0  0  0  0  0  0  0  0  0  0
  149.2433  133.7758  155.0722 C   0  0  0  0  0  0  0  0  0  0  0  0
  148.0691  134.3373  154.2923 C   0  0  0  0  0  0  0  0  0  0  0  0
  150.0760  134.6400  155.8205 C   0  0  0  0  0  0  0  0  0  0  0  0
  149.7706  135.9856  155.8057 O   0  0  0  0  0  0  0  0  0  0  0  0
  150.7496  136.9114  156.2580 C   0  0  0  0  0  0  0  0  0  0  0  0
  151.2508  137.7213  155.0526 C   0  0  2  0  0  0  0  0  0  0  0  0
  151.9286  136.8421  154.1762 O   0  0  0  0  0  0  0  0  0  0  0  0
  152.2073  138.8532  155.4775 C   0  0  0  0  0  0  0  0  0  0  0  0
  151.5014  140.0700  155.8511 N   0  0  0  0  0  0  0  0  0  0  0  0
  150.5931  140.6038  154.9939 N   0  0  0  0  0  0  0  0  0  0  0  0
  150.1282  141.6980  155.5931 C   0  0  0  0  0  0  0  0  0  0  0  0
  150.7288  141.9050  156.8650 C   0  0  0  0  0  0  0  0  0  0  0  0
  150.6045  142.9102  157.9158 C   0  0  0  0  0  0  0  0  0  0  0  0
  151.3371  142.7818  158.9776 N   0  0  0  0  0  0  0  0  0  0  0  0
  152.2270  141.7113  159.1218 N   0  0  0  0  0  0  0  0  0  0  0  0
  152.9816  141.7076  160.3729 C   0  0  0  0  0  0  0  0  0  0  0  0
  152.4161  140.7180  158.2015 C   0  0  0  0  0  0  0  0  0  0  0  0
  153.2020  139.7824  158.3505 O   0  0  0  0  0  0  0  0  0  0  0  0
  151.5819  140.8574  156.9832 C   0  0  0  0  0  0  0  0  0  0  0  0
  151.1669  134.0875  156.5392 C   0  0  0  0  0  0  0  0  0  0  0  0
  152.6938  131.0595  157.1229 H   0  0  0  0  0  0  0  0  0  0  0  0
  152.4536  132.3043  158.3531 H   0  0  0  0  0  0  0  0  0  0  0  0
  153.5194  132.6136  156.9764 H   0  0  0  0  0  0  0  0  0  0  0  0
  150.7702  130.7887  155.7286 H   0  0  0  0  0  0  0  0  0  0  0  0
  148.8641  131.7303  154.4688 H   0  0  0  0  0  0  0  0  0  0  0  0
  148.4242  134.9935  153.4976 H   0  0  0  0  0  0  0  0  0  0  0  0
  147.4167  134.9135  154.9487 H   0  0  0  0  0  0  0  0  0  0  0  0
  147.4750  133.5441  153.8383 H   0  0  0  0  0  0  0  0  0  0  0  0
  150.2799  137.5859  156.9758 H   0  0  0  0  0  0  0  0  0  0  0  0
  151.5789  136.4106  156.7612 H   0  0  0  0  0  0  0  0  0  0  0  0
  150.3998  138.1567  154.5268 H   0  0  0  0  0  0  0  0  0  0  0  0
  151.3896  136.7103  153.4109 H   0  0  0  0  0  0  0  0  0  0  0  0
  152.8028  138.5324  156.3338 H   0  0  0  0  0  0  0  0  0  0  0  0
  152.9205  139.0774  154.6851 H   0  0  0  0  0  0  0  0  0  0  0  0
  149.3831  142.2964  155.0902 H   0  0  0  0  0  0  0  0  0  0  0  0
  149.9126  143.7450  157.8048 H   0  0  0  0  0  0  0  0  0  0  0  0
  154.0545  141.7267  160.1756 H   0  0  0  0  0  0  0  0  0  0  0  0
  152.7566  140.8115  160.9529 H   0  0  0  0  0  0  0  0  0  0  0  0
  152.7457  142.5721  160.9957 H   0  0  0  0  0  0  0  0  0  0  0  0
  151.8263  134.7099  157.1249 H   0  0  0  0  0  0  0  0  0  0  0  0
  1  2  1  0  0  0  0
  1 25  1  0  0  0  0
  1 26  1  0  0  0  0
  1 27  1  0  0  0  0
  2 24  1  0  0  0  0
  2  3  2  0  0  0  0
  3  4  1  0  0  0  0
  3 28  1  0  0  0  0
  4  5  2  0  0  0  0
  4 29  1  0  0  0  0
  5  6  1  0  0  0  0
  5  7  1  0  0  0  0
  6 30  1  0  0  0  0
  6 31  1  0  0  0  0
  6 32  1  0  0  0  0
  7  8  1  0  0  0  0
  7 24  2  0  0  0  0
  8  9  1  0  0  0  0
  9 10  1  0  0  0  0
  9 33  1  0  0  0  0
  9 34  1  0  0  0  0
 10 11  1  0  0  0  0
 10 12  1  0  0  0  0
 10 35  1  0  0  0  0
 11 36  1  0  0  0  0
 12 13  1  0  0  0  0
 12 37  1  0  0  0  0
 12 38  1  0  0  0  0
 13 23  1  0  0  0  0
 13 14  1  0  0  0  0
 14 15  2  0  0  0  0
 15 16  1  0  0  0  0
 15 39  1  0  0  0  0
 16 23  2  0  0  0  0
 16 17  1  0  0  0  0
 17 18  2  0  0  0  0
 17 40  1  0  0  0  0
 18 19  1  0  0  0  0
 19 20  1  0  0  0  0
 19 21  1  0  0  0  0
 20 41  1  0  0  0  0
 20 42  1  0  0  0  0
 20 43  1  0  0  0  0
 21 22  2  0  0  0  0
 21 23  1  0  0  0  0
 24 44  1  0  0  0  0
M  END
> <s_m_source_file>
AV-unprocessed.smi

> <i_m_source_file_index>
2857

> <i_lp_mmshare_version>
43012

> <i_f3d_flags>
0

> <s_epik_input>
W0NIM11jMVtjSF1bY0hdYyhbQ0gzXSljKFtjSF0xKU9bQ0gyXVtDQEhdKFtPSF0pW0NIMl1uKG5bY0hdMiljKGMyMyljKD1PKW4oW0NIM10pbltjSF0z

> <s_epik_cmdline>
J2VwaWtfcHl0aG9uJywgJy1waCcsICc3LjAnLCAnLXRuJywgJzgnLCAnLW1hJywgJzIwMCcsICctbWV0YWxfYmluZGluZycsICctaW1hZScsICc8aW5maWxlLm1hZT4nLCAnLW9tYWUnLCAnPG91dGZpbGUubWFlPic=

> <r_lp_tautomer_probability>
1

> <r_epik_Ionization_Penalty>
2.24607e-06

> <r_epik_Ionization_Penalty_Charging>
1.42095e-10

> <r_epik_Ionization_Penalty_Neutral>
2.24593e-06

> <r_epik_State_Penalty>
-0

> <r_epik_Charging_Adjusted_Penalty>
1.42095e-10

> <i_epik_Tot_Q>
0

> <i_epik_Tot_abs_Q>
0

> <r_epik_Metal_State_Penalty>
-0

> <b_epik_Metal_Only>
0

> <s_lp_Force_Field>
OPLS_2005

> <r_lp_Energy>
31.8826

> <b_lp_Chiralities_Consistent>
1

> <s_lp_Variant>
AV-unprocessed.smi:2857-1

> <Gold.Version>
5.8.1

> <Gold.Id.Protein>
6NUR|6NUR_protein|mol2

> <Gold.PLP.Fitness>
59.8728

> <Gold.PLP.PLP>
-44.2905

> <Gold.PLP.part.hbond>
-3.9439

> <Gold.PLP.part.metal>
0.0000

> <Gold.PLP.part.buried>
-3.9902

> <Gold.PLP.part.nonpolar>
-34.9567

> <Gold.PLP.part.repulsive>
0.1886

> <Gold.PLP.ligand.clash>
0.0000

> <Gold.PLP.ligand.torsion>
0.9193

> <Gold.PLP.Chemscore.Hbond>
3.9440

> <Gold.PLP.Chemscore.CHOScore>
1.8399

> <Gold.PLP.Chemscore.Metal>
0.0000

> <Gold.Chemscore.Hbonds>
donor molecule, donor type, donor heavy atom, donor atom, acceptor molecule, acceptor atom, score
      L1  H    11    36       P1  7949  0.92
      P1  H  7989  7998       L1    14  0.96
      P1  H  7997  8010       L1    22  1.00
      P1  H 10752 10763       L1    11  0.98
      L1  C    15    39       P1  8028  0.89
      L1  C    17    40       P1  8028  0.95

> <Gold.PLP.Chemscore.Internal.Correction>
0.0694

> <Gold.Rescore>
     Score         DG    S(hbond)    S(metal)    S(lipo)     H(rot)  DE(clash)    DE(int)     intcor
     18.16     -19.14       2.47        0.00      97.05       2.32       0.04       0.94       ----

> <Gold.Chemscore.Fitness>
18.1634

> <Gold.Chemscore.DG>
-19.1381

> <Gold.Chemscore.ZeroCoef>
-5.4800

> <Gold.Chemscore.Hbond>
2.4707

> <Gold.Chemscore.Metal>
0.0000

> <Gold.Chemscore.Lipo>
97.0464

> <Gold.Chemscore.Internal_Hbond>
0.0000

> <Gold.Chemscore.DEClash>
0.0373

> <Gold.Chemscore.DEInternal>
0.9374

> <Gold.Chemscore.Rot>
2.3236

> <Gold.Chemscore.Internal.Correction>
   9.000000E+99

> <Gold.Chemscore.Hbonds>
donor molecule, donor type, donor heavy atom, donor atom, acceptor molecule, acceptor atom, score
      L1  H    11    36       P1  7949  0.65
      P1  H  7989  7998       L1    14  0.26
      P1  H  7997  8010       L1    22  0.60
      P1  H 10752 10763       L1    11  0.32

> <Gold.Chemscore.Hbond.Weighted>
-8.2520

> <Gold.Chemscore.Metal.Weighted>
-0.0000

> <Gold.Chemscore.Lipo.Weighted>
-11.3544

> <Gold.Chemscore.Internal_Hbond.Weighted>
0.0000

> <Gold.Chemscore.DEClash.Weighted>
0.0373

> <Gold.Chemscore.DEInternal.Weighted>
0.9374

> <Gold.Chemscore.Rot.Weighted>
5.9484

> <Gold.Chemscore.Internal.Correction.Weighted>
   9.000000E+99

> <Gold.Protein.RotatedTorsions>
[ 6907 6896 6895 6894 ] final  171.26 input  -60.11 | X-H torsion
[ 7974 7965 7964 7962 ] final   89.72 input  175.53 | X-H torsion
[ 8008 7997 7996 7995 ] final   31.05 input   59.86 | X-H torsion
[ 10167 10162 10161 10158 ] final -100.35 input  -65.29 | X-H torsion
[ 10718 10713 10712 10709 ] final    8.00 input   66.30 | X-H torsion
[ 10763 10752 10751 10750 ] final   21.88 input  -60.55 | X-H torsion
[ 11005 11000 10999 10996 ] final -165.15 input  -57.11 | X-H torsion

> <Gold.Protein.ActiveResidues>
 VAL166  LYS551  ARG553  GLY616  TRP617  ASP618  TYR619  PRO620  LYS621  CYS622 
 ASP623  PHE694  ASN695  SER759  ASP760  ASP761  ALA762  ILE779  LEU786  VAL792 
 PHE793  MET794  SER795  GLU796  ALA797  LYS798  CYS799  TRP800  GLU811  SER814 

> <Gold.Protein.RotatedAtoms>
  151.8031  133.3372  159.3532 H   0  0  0  0  0  0  0  0  0  0  0  0  # atno 6907 bound_to 6896
  150.7352  134.5735  159.5912 H   0  0  0  0  0  0  0  0  0  0  0  0  # atno 6908 bound_to 6896
  152.3129  134.7477  160.0383 H   0  0  0  0  0  0  0  0  0  0  0  0  # atno 6909 bound_to 6896
  145.5286  139.2282  143.2631 H   0  0  0  0  0  0  0  0  0  0  0  0  # atno 7974 bound_to 7965
  155.1002  140.3229  155.4549 H   0  0  0  0  0  0  0  0  0  0  0  0  # atno 8008 bound_to 7997
  156.2719  140.2062  156.6075 H   0  0  0  0  0  0  0  0  0  0  0  0  # atno 8009 bound_to 7997
  154.6835  140.0524  157.0278 H   0  0  0  0  0  0  0  0  0  0  0  0  # atno 8010 bound_to 7997
  140.2528  143.3460  152.0698 H   0  0  0  0  0  0  0  0  0  0  0  0  # atno 10167 bound_to 10162
  156.9452  130.5876  149.5654 H   0  0  0  0  0  0  0  0  0  0  0  0  # atno 10718 bound_to 10713
  153.0959  135.6659  153.9764 H   0  0  0  0  0  0  0  0  0  0  0  0  # atno 10763 bound_to 10752
  153.9347  135.3000  155.3446 H   0  0  0  0  0  0  0  0  0  0  0  0  # atno 10764 bound_to 10752
  154.7378  135.5093  153.9145 H   0  0  0  0  0  0  0  0  0  0  0  0  # atno 10765 bound_to 10752
  140.5789  134.5162  157.5175 H   0  0  0  0  0  0  0  0  0  0  0  0  # atno 11005 bound_to 11000
  146.2059  140.6102  142.9081 LP  0  0  0  0  0  0  0  0  0  0  0  0  # atno 17320 bound_to 7965
  144.7638  140.5483  143.6717 LP  0  0  0  0  0  0  0  0  0  0  0  0  # atno 17321 bound_to 7965
  139.5041  144.6768  151.6108 LP  0  0  0  0  0  0  0  0  0  0  0  0  # atno 17342 bound_to 10162
  140.6027  143.9581  150.6397 LP  0  0  0  0  0  0  0  0  0  0  0  0  # atno 17343 bound_to 10162
  156.0387  130.5472  150.8717 LP  0  0  0  0  0  0  0  0  0  0  0  0  # atno 17370 bound_to 10713
  157.5758  131.0946  150.9347 LP  0  0  0  0  0  0  0  0  0  0  0  0  # atno 17371 bound_to 10713
  139.9326  134.7934  156.0888 LP  0  0  0  0  0  0  0  0  0  0  0  0  # atno 17394 bound_to 11000
  141.1009  133.6678  156.2752 LP  0  0  0  0  0  0  0  0  0  0  0  0  # atno 17395 bound_to 11000

$$$$
