AV-unprocessed.smi:1591|AV-procd|sdf|6398|dock4
  -GOLD-   22720 7 33D 1   1.00000     0.00000
 Structure written by MMmdl.
 52 55  0  0  0  0  0  0  0  0  1 V2000
  146.2601  137.8465  153.0845 C   0  0  0  0  0  0  0  0  0  0  0  0
  147.4898  138.5654  153.6605 C   0  0  0  0  0  0  0  0  0  0  0  0
  148.1922  137.7961  154.8076 C   0  0  1  0  0  0  0  0  0  0  0  0
  148.7436  136.5462  154.2845 N   0  0  0  0  0  0  0  0  0  0  0  0
  148.9955  135.4151  154.9647 C   0  0  0  0  0  0  0  0  0  0  0  0
  148.7024  135.2615  156.1495 O   0  0  0  0  0  0  0  0  0  0  0  0
  149.7050  134.2800  154.2059 C   0  0  0  0  0  0  0  0  0  0  0  0
  148.7940  133.2386  153.6992 N   0  0  0  0  0  0  0  0  0  0  0  0
  147.7889  133.5652  152.7997 C   0  0  0  0  0  0  0  0  0  0  0  0
  146.9519  132.6516  152.2529 C   0  0  0  0  0  0  0  0  0  0  0  0
  147.0748  131.2387  152.5957 C   0  0  0  0  0  0  0  0  0  0  0  0
  146.3692  130.3367  152.1500 O   0  0  0  0  0  0  0  0  0  0  0  0
  148.0946  130.9504  153.5064 N   0  0  0  0  0  0  0  0  0  0  0  0
  148.9585  131.8868  154.0757 C   0  0  0  0  0  0  0  0  0  0  0  0
  149.8307  131.5228  154.8630 O   0  0  0  0  0  0  0  0  0  0  0  0
  149.3154  138.5881  155.5576 C   0  0  0  0  0  0  0  0  0  0  0  0
  149.8697  137.7198  156.7278 C   0  0  0  0  0  0  0  0  0  0  0  0
  150.9780  138.4646  157.4987 C   0  0  1  0  0  0  0  0  0  0  0  0
  152.1371  138.7974  156.5374 C   0  0  0  0  0  0  0  0  0  0  0  0
  151.6091  139.6950  155.4001 C   0  0  2  0  0  0  0  0  0  0  0  0
  151.0335  140.9981  155.9921 C   0  0  0  0  0  0  0  0  0  0  0  0
  149.8773  140.6519  156.9529 C   0  0  2  0  0  0  0  0  0  0  0  0
  150.4030  139.7629  158.0967 C   0  0  0  0  0  0  0  0  0  0  0  0
  148.7691  139.9067  156.1774 C   0  0  0  0  0  0  0  0  0  0  0  0
  150.5068  138.9476  154.6198 C   0  0  0  0  0  0  0  0  0  0  0  0
  148.2179  129.9845  153.7739 H   0  0  0  0  0  0  0  0  0  0  0  0
  145.7620  138.4699  152.3418 H   0  0  0  0  0  0  0  0  0  0  0  0
  145.5354  137.6199  153.8667 H   0  0  0  0  0  0  0  0  0  0  0  0
  146.5304  136.9109  152.5947 H   0  0  0  0  0  0  0  0  0  0  0  0
  148.1905  138.7616  152.8492 H   0  0  0  0  0  0  0  0  0  0  0  0
  147.1527  139.5376  154.0163 H   0  0  0  0  0  0  0  0  0  0  0  0
  147.4211  137.5645  155.5445 H   0  0  0  0  0  0  0  0  0  0  0  0
  149.0202  136.5621  153.3136 H   0  0  0  0  0  0  0  0  0  0  0  0
  150.2860  134.7088  153.3872 H   0  0  0  0  0  0  0  0  0  0  0  0
  150.4417  133.8367  154.8772 H   0  0  0  0  0  0  0  0  0  0  0  0
  147.6678  134.5992  152.5092 H   0  0  0  0  0  0  0  0  0  0  0  0
  146.1905  132.9674  151.5545 H   0  0  0  0  0  0  0  0  0  0  0  0
  149.0631  137.4505  157.4110 H   0  0  0  0  0  0  0  0  0  0  0  0
  150.2771  136.7787  156.3599 H   0  0  0  0  0  0  0  0  0  0  0  0
  151.3478  137.8291  158.3038 H   0  0  0  0  0  0  0  0  0  0  0  0
  152.9414  139.3012  157.0749 H   0  0  0  0  0  0  0  0  0  0  0  0
  152.5650  137.8810  156.1281 H   0  0  0  0  0  0  0  0  0  0  0  0
  152.4286  139.9373  154.7227 H   0  0  0  0  0  0  0  0  0  0  0  0
  151.8122  141.5498  156.5203 H   0  0  0  0  0  0  0  0  0  0  0  0
  150.6797  141.6516  155.1938 H   0  0  0  0  0  0  0  0  0  0  0  0
  149.4681  141.5720  157.3712 H   0  0  0  0  0  0  0  0  0  0  0  0
  149.6001  139.5338  158.7984 H   0  0  0  0  0  0  0  0  0  0  0  0
  151.1702  140.2902  158.6651 H   0  0  0  0  0  0  0  0  0  0  0  0
  148.3915  140.5740  155.4036 H   0  0  0  0  0  0  0  0  0  0  0  0
  147.9279  139.6947  156.8388 H   0  0  0  0  0  0  0  0  0  0  0  0
  150.9356  138.0516  154.1698 H   0  0  0  0  0  0  0  0  0  0  0  0
  150.1697  139.5719  153.7923 H   0  0  0  0  0  0  0  0  0  0  0  0
  1  2  1  0  0  0  0
  1 27  1  0  0  0  0
  1 28  1  0  0  0  0
  1 29  1  0  0  0  0
  2  3  1  0  0  0  0
  2 30  1  0  0  0  0
  2 31  1  0  0  0  0
  3  4  1  0  0  0  0
  3 16  1  0  0  0  0
  3 32  1  0  0  0  0
  4  5  1  0  0  0  0
  4 33  1  0  0  0  0
  5  6  2  0  0  0  0
  5  7  1  0  0  0  0
  7  8  1  0  0  0  0
  7 34  1  0  0  0  0
  7 35  1  0  0  0  0
  8 14  1  0  0  0  0
  8  9  1  0  0  0  0
  9 10  2  0  0  0  0
  9 36  1  0  0  0  0
 10 11  1  0  0  0  0
 10 37  1  0  0  0  0
 11 12  2  0  0  0  0
 11 13  1  0  0  0  0
 13 26  1  0  0  0  0
 13 14  1  0  0  0  0
 14 15  2  0  0  0  0
 16 24  1  0  0  0  0
 16 25  1  0  0  0  0
 16 17  1  0  0  0  0
 17 18  1  0  0  0  0
 17 38  1  0  0  0  0
 17 39  1  0  0  0  0
 18 23  1  0  0  0  0
 18 19  1  0  0  0  0
 18 40  1  0  0  0  0
 19 20  1  0  0  0  0
 19 41  1  0  0  0  0
 19 42  1  0  0  0  0
 20 21  1  0  0  0  0
 20 25  1  0  0  0  0
 20 43  1  0  0  0  0
 21 22  1  0  0  0  0
 21 44  1  0  0  0  0
 21 45  1  0  0  0  0
 22 23  1  0  0  0  0
 22 24  1  0  0  0  0
 22 46  1  0  0  0  0
 23 47  1  0  0  0  0
 23 48  1  0  0  0  0
 24 49  1  0  0  0  0
 24 50  1  0  0  0  0
 25 51  1  0  0  0  0
 25 52  1  0  0  0  0
M  END
> <s_m_source_file>
AV-unprocessed.smi

> <i_m_source_file_index>
1591

> <i_lp_mmshare_version>
43012

> <i_f3d_flags>
0

> <s_epik_input>
W0NIMl0xW0NASF0oW0NIMl0yKVtDSDJdW0NASF0oW0NIMl0zKVtDSDJdW0NAQEhdMVtDSDJdQzIzW0NASF0oW0NIMl1bQ0gzXSlbTkhdQyg9TylbQ0gyXW40W2NIXVtjSF1jKD1PKVtuSF1jND1P

> <s_epik_cmdline>
J2VwaWtfcHl0aG9uJywgJy1waCcsICc3LjAnLCAnLXRuJywgJzgnLCAnLW1hJywgJzIwMCcsICctbWV0YWxfYmluZGluZycsICctaW1hZScsICc8aW5maWxlLm1hZT4nLCAnLW9tYWUnLCAnPG91dGZpbGUubWFlPic=

> <r_lp_tautomer_probability>
0.999537

> <r_epik_Ionization_Penalty>
0.00297067

> <r_epik_Ionization_Penalty_Charging>
0.00297065

> <r_epik_Ionization_Penalty_Neutral>
1.95363e-08

> <r_epik_State_Penalty>
0.00208437

> <r_epik_Charging_Adjusted_Penalty>
0.00505502

> <i_epik_Tot_Q>
0

> <i_epik_Tot_abs_Q>
0

> <r_epik_Metal_State_Penalty>
0.36072

> <b_epik_Metal_Only>
0

> <s_lp_Force_Field>
OPLS_2005

> <r_lp_Energy>
36.0514

> <b_lp_Chiralities_Consistent>
1

> <s_lp_Variant>
AV-unprocessed.smi:1591-2

> <Gold.Version>
5.8.1

> <Gold.Id.Protein>
6NUR|6NUR_protein|mol2

> <Gold.PLP.Fitness>
37.2271

> <Gold.PLP.PLP>
-32.4034

> <Gold.PLP.part.hbond>
-1.0000

> <Gold.PLP.part.metal>
0.0000

> <Gold.PLP.part.buried>
-3.2484

> <Gold.PLP.part.nonpolar>
-27.9528

> <Gold.PLP.part.repulsive>
0.1729

> <Gold.PLP.ligand.clash>
0.0000

> <Gold.PLP.ligand.torsion>
0.6488

> <Gold.PLP.Chemscore.Hbond>
1.0000

> <Gold.PLP.Chemscore.CHOScore>
1.0000

> <Gold.PLP.Chemscore.Metal>
0.0000

> <Gold.Chemscore.Hbonds>
donor molecule, donor type, donor heavy atom, donor atom, acceptor molecule, acceptor atom, score
      L1  H     4    33       P1  7948  0.86
      L1  C     9    36       P1  7948  1.00

> <Gold.PLP.Chemscore.Internal.Correction>
0.1213

> <Gold.Rescore>
     Score         DG    S(hbond)    S(metal)    S(lipo)     H(rot)  DE(clash)    DE(int)     intcor
     10.00     -12.36       1.00        0.00      74.93       2.04       0.28       2.08       ----

> <Gold.Chemscore.Fitness>
10.0042

> <Gold.Chemscore.DG>
-12.3574

> <Gold.Chemscore.ZeroCoef>
-5.4800

> <Gold.Chemscore.Hbond>
0.9985

> <Gold.Chemscore.Metal>
0.0000

> <Gold.Chemscore.Lipo>
74.9330

> <Gold.Chemscore.Internal_Hbond>
0.0000

> <Gold.Chemscore.DEClash>
0.2752

> <Gold.Chemscore.DEInternal>
2.0780

> <Gold.Chemscore.Rot>
2.0409

> <Gold.Chemscore.Internal.Correction>
   9.000000E+99

> <Gold.Chemscore.Hbonds>
donor molecule, donor type, donor heavy atom, donor atom, acceptor molecule, acceptor atom, score
      L1  H     4    33       P1  7948  0.83

> <Gold.Chemscore.Hbond.Weighted>
-3.3348

> <Gold.Chemscore.Metal.Weighted>
-0.0000

> <Gold.Chemscore.Lipo.Weighted>
-8.7672

> <Gold.Chemscore.Internal_Hbond.Weighted>
0.0000

> <Gold.Chemscore.DEClash.Weighted>
0.2752

> <Gold.Chemscore.DEInternal.Weighted>
2.0780

> <Gold.Chemscore.Rot.Weighted>
5.2246

> <Gold.Chemscore.Internal.Correction.Weighted>
   9.000000E+99

> <Gold.Protein.RotatedTorsions>
[ 6907 6896 6895 6894 ] final -125.34 input  -60.11 | X-H torsion
[ 7974 7965 7964 7962 ] final    2.89 input  175.53 | X-H torsion
[ 8008 7997 7996 7995 ] final   38.69 input   59.86 | X-H torsion
[ 10167 10162 10161 10158 ] final  106.08 input  -65.29 | X-H torsion
[ 10718 10713 10712 10709 ] final   53.49 input   66.30 | X-H torsion
[ 10763 10752 10751 10750 ] final   72.16 input  -60.55 | X-H torsion
[ 11005 11000 10999 10996 ] final  159.91 input  -57.11 | X-H torsion

> <Gold.Protein.ActiveResidues>
 VAL166  LYS551  ARG553  GLY616  TRP617  ASP618  TYR619  PRO620  LYS621  CYS622 
 ASP623  PHE694  ASN695  SER759  ASP760  ASP761  ALA762  ILE779  LEU786  VAL792 
 PHE793  MET794  SER795  GLU796  ALA797  LYS798  CYS799  TRP800  GLU811  SER814 

> <Gold.Protein.RotatedAtoms>
  150.8858  133.7310  159.2918 H   0  0  0  0  0  0  0  0  0  0  0  0  # atno 6907 bound_to 6896
  151.4876  135.1054  159.9804 H   0  0  0  0  0  0  0  0  0  0  0  0  # atno 6908 bound_to 6896
  152.4789  133.8159  159.7083 H   0  0  0  0  0  0  0  0  0  0  0  0  # atno 6909 bound_to 6896
  146.2444  140.0768  142.8359 H   0  0  0  0  0  0  0  0  0  0  0  0  # atno 7974 bound_to 7965
  155.2244  140.3333  155.4311 H   0  0  0  0  0  0  0  0  0  0  0  0  # atno 8008 bound_to 7997
  156.2320  140.1855  156.7264 H   0  0  0  0  0  0  0  0  0  0  0  0  # atno 8009 bound_to 7997
  154.5995  140.0625  156.9334 H   0  0  0  0  0  0  0  0  0  0  0  0  # atno 8010 bound_to 7997
  139.7039  144.7089  151.1139 H   0  0  0  0  0  0  0  0  0  0  0  0  # atno 10167 bound_to 10162
  157.5172  130.8540  149.8511 H   0  0  0  0  0  0  0  0  0  0  0  0  # atno 10718 bound_to 10713
  153.0442  135.5110  154.7702 H   0  0  0  0  0  0  0  0  0  0  0  0  # atno 10763 bound_to 10752
  154.6615  135.2939  154.9862 H   0  0  0  0  0  0  0  0  0  0  0  0  # atno 10764 bound_to 10752
  154.0711  135.6677  153.4877 H   0  0  0  0  0  0  0  0  0  0  0  0  # atno 10765 bound_to 10752
  140.2008  134.8339  157.3016 H   0  0  0  0  0  0  0  0  0  0  0  0  # atno 11005 bound_to 11000
  145.0768  140.9193  143.4849 LP  0  0  0  0  0  0  0  0  0  0  0  0  # atno 17320 bound_to 7965
  145.0913  139.2888  143.5734 LP  0  0  0  0  0  0  0  0  0  0  0  0  # atno 17321 bound_to 7965
  140.7716  143.5386  150.9339 LP  0  0  0  0  0  0  0  0  0  0  0  0  # atno 17342 bound_to 10162
  139.9068  143.6768  152.3122 LP  0  0  0  0  0  0  0  0  0  0  0  0  # atno 17343 bound_to 10162
  156.0328  130.3759  150.1640 LP  0  0  0  0  0  0  0  0  0  0  0  0  # atno 17370 bound_to 10713
  156.9829  130.9869  151.3433 LP  0  0  0  0  0  0  0  0  0  0  0  0  # atno 17371 bound_to 10713
  140.2056  134.4201  155.7639 LP  0  0  0  0  0  0  0  0  0  0  0  0  # atno 17394 bound_to 11000
  141.2227  133.7093  156.8255 LP  0  0  0  0  0  0  0  0  0  0  0  0  # atno 17395 bound_to 11000

$$$$
