AV-unprocessed.smi:1125|AV-procd|sdf|4836|dock6
  -GOLD-   22720 3403D 1   1.00000     0.00000
 Structure written by MMmdl.
 45 46  0  0  0  0  0  0  0  0  1 V2000
  153.0958  142.5668  160.8191 C   0  0  0  0  0  0  0  0  0  0  0  0
  152.0917  142.6028  159.7652 N   0  0  0  0  0  0  0  0  0  0  0  0
  151.9604  141.2699  159.1755 C   0  0  0  0  0  0  0  0  0  0  0  0
  150.8593  141.2707  158.1002 C   0  0  0  0  0  0  0  0  0  0  0  0
  151.1642  142.2979  156.9993 C   0  0  0  0  0  0  0  0  0  0  0  0
  150.0488  142.3657  156.0604 N   0  0  0  0  0  0  0  0  0  0  0  0
  149.7651  141.4433  155.1273 C   0  0  0  0  0  0  0  0  0  0  0  0
  150.4335  140.4239  154.9553 O   0  0  0  0  0  0  0  0  0  0  0  0
  148.5428  141.7127  154.2486 C   0  0  0  0  0  0  0  0  0  0  0  0
  147.5885  140.5555  154.3121 C   0  0  0  0  0  0  0  0  0  0  0  0
  147.1635  139.7789  153.2638 C   0  0  0  0  0  0  0  0  0  0  0  0
  146.0570  138.5395  153.7817 S   0  0  0  0  0  0  0  0  0  0  0  0
  146.2002  139.1320  155.4407 C   0  0  0  0  0  0  0  0  0  0  0  0
  145.4760  138.5526  156.6325 C   0  0  0  0  0  0  0  0  0  0  0  0
  145.8786  139.3140  157.9105 C   0  0  0  0  0  0  0  0  0  0  0  0
  145.8396  137.0666  156.8422 C   0  0  0  0  0  0  0  0  0  0  0  0
  143.9535  138.6328  156.4077 C   0  0  0  0  0  0  0  0  0  0  0  0
  147.0302  140.1774  155.5370 N   0  0  0  0  0  0  0  0  0  0  0  0
  151.4243  143.6698  157.6465 C   0  0  0  0  0  0  0  0  0  0  0  0
  152.4984  143.5687  158.7440 C   0  0  0  0  0  0  0  0  0  0  0  0
  152.8050  141.8648  161.6011 H   0  0  0  0  0  0  0  0  0  0  0  0
  153.2019  143.5496  161.2796 H   0  0  0  0  0  0  0  0  0  0  0  0
  154.0698  142.2641  160.4321 H   0  0  0  0  0  0  0  0  0  0  0  0
  152.9111  140.9529  158.7434 H   0  0  0  0  0  0  0  0  0  0  0  0
  151.7061  140.5499  159.9541 H   0  0  0  0  0  0  0  0  0  0  0  0
  150.7670  140.2744  157.6664 H   0  0  0  0  0  0  0  0  0  0  0  0
  149.8987  141.4953  158.5670 H   0  0  0  0  0  0  0  0  0  0  0  0
  152.0633  141.9764  156.4699 H   0  0  0  0  0  0  0  0  0  0  0  0
  149.4401  143.1683  156.1326 H   0  0  0  0  0  0  0  0  0  0  0  0
  148.0637  142.6369  154.5752 H   0  0  0  0  0  0  0  0  0  0  0  0
  148.8674  141.8819  153.2212 H   0  0  0  0  0  0  0  0  0  0  0  0
  147.4388  139.8583  152.2224 H   0  0  0  0  0  0  0  0  0  0  0  0
  145.3825  138.9039  158.7908 H   0  0  0  0  0  0  0  0  0  0  0  0
  145.6100  140.3691  157.8495 H   0  0  0  0  0  0  0  0  0  0  0  0
  146.9544  139.2583  158.0824 H   0  0  0  0  0  0  0  0  0  0  0  0
  146.9076  136.9346  157.0198 H   0  0  0  0  0  0  0  0  0  0  0  0
  145.5673  136.4587  155.9786 H   0  0  0  0  0  0  0  0  0  0  0  0
  145.3175  136.6492  157.7041 H   0  0  0  0  0  0  0  0  0  0  0  0
  143.4035  138.2079  157.2482 H   0  0  0  0  0  0  0  0  0  0  0  0
  143.6562  138.0883  155.5105 H   0  0  0  0  0  0  0  0  0  0  0  0
  143.6201  139.6647  156.2906 H   0  0  0  0  0  0  0  0  0  0  0  0
  151.7406  144.3900  156.8910 H   0  0  0  0  0  0  0  0  0  0  0  0
  150.5013  144.0602  158.0780 H   0  0  0  0  0  0  0  0  0  0  0  0
  152.6391  144.5477  159.2037 H   0  0  0  0  0  0  0  0  0  0  0  0
  153.4565  143.2780  158.3097 H   0  0  0  0  0  0  0  0  0  0  0  0
  1  2  1  0  0  0  0
  1 21  1  0  0  0  0
  1 22  1  0  0  0  0
  1 23  1  0  0  0  0
  2 20  1  0  0  0  0
  2  3  1  0  0  0  0
  3  4  1  0  0  0  0
  3 24  1  0  0  0  0
  3 25  1  0  0  0  0
  4  5  1  0  0  0  0
  4 26  1  0  0  0  0
  4 27  1  0  0  0  0
  5  6  1  0  0  0  0
  5 19  1  0  0  0  0
  5 28  1  0  0  0  0
  6  7  1  0  0  0  0
  6 29  1  0  0  0  0
  7  8  2  0  0  0  0
  7  9  1  0  0  0  0
  9 10  1  0  0  0  0
  9 30  1  0  0  0  0
  9 31  1  0  0  0  0
 10 18  1  0  0  0  0
 10 11  2  0  0  0  0
 11 12  1  0  0  0  0
 11 32  1  0  0  0  0
 12 13  1  0  0  0  0
 13 14  1  0  0  0  0
 13 18  2  0  0  0  0
 14 15  1  0  0  0  0
 14 16  1  0  0  0  0
 14 17  1  0  0  0  0
 15 33  1  0  0  0  0
 15 34  1  0  0  0  0
 15 35  1  0  0  0  0
 16 36  1  0  0  0  0
 16 37  1  0  0  0  0
 16 38  1  0  0  0  0
 17 39  1  0  0  0  0
 17 40  1  0  0  0  0
 17 41  1  0  0  0  0
 19 20  1  0  0  0  0
 19 42  1  0  0  0  0
 19 43  1  0  0  0  0
 20 44  1  0  0  0  0
 20 45  1  0  0  0  0
M  END
> <s_m_source_file>
AV-unprocessed.smi

> <i_m_source_file_index>
1125

> <i_lp_mmshare_version>
43012

> <i_f3d_flags>
0

> <s_epik_input>
W0NIM11OMVtDSDJdW0NIMl1bQ0hdKFtDSDJdW0NIMl0xKVtOSF1DKD1PKVtDSDJdYzJbY0hdc2MobjIpQyhbQ0gzXSkoW0NIM10pW0NIM10=

> <s_epik_cmdline>
J2VwaWtfcHl0aG9uJywgJy1waCcsICc3LjAnLCAnLXRuJywgJzgnLCAnLW1hJywgJzIwMCcsICctbWV0YWxfYmluZGluZycsICctaW1hZScsICc8aW5maWxlLm1hZT4nLCAnLW9tYWUnLCAnPG91dGZpbGUubWFlPic=

> <r_epik_Ionization_Penalty>
2.53567

> <r_epik_Ionization_Penalty_Charging>
0

> <r_epik_Ionization_Penalty_Neutral>
2.53567

> <r_epik_State_Penalty>
2.70312

> <r_epik_Charging_Adjusted_Penalty>
2.70312

> <i_epik_Tot_Q>
0

> <i_epik_Tot_abs_Q>
0

> <r_epik_Metal_State_Penalty>
2.70311

> <b_epik_Metal_Only>
0

> <s_lp_Force_Field>
OPLS_2005

> <r_lp_Energy>
6.33754

> <b_lp_Chiralities_Consistent>
1

> <s_lp_Variant>
AV-unprocessed.smi:1125-3

> <Gold.Version>
5.8.1

> <Gold.Id.Protein>
6NUR|6NUR_protein|mol2

> <Gold.PLP.Fitness>
40.3742

> <Gold.PLP.PLP>
-31.8281

> <Gold.PLP.part.hbond>
-2.0000

> <Gold.PLP.part.metal>
0.0000

> <Gold.PLP.part.buried>
-3.9597

> <Gold.PLP.part.nonpolar>
-26.3508

> <Gold.PLP.part.repulsive>
0.2117

> <Gold.PLP.ligand.clash>
0.0000

> <Gold.PLP.ligand.torsion>
0.2198

> <Gold.PLP.Chemscore.Hbond>
1.9920

> <Gold.PLP.Chemscore.CHOScore>
1.0000

> <Gold.PLP.Chemscore.Metal>
0.0000

> <Gold.Chemscore.Hbonds>
donor molecule, donor type, donor heavy atom, donor atom, acceptor molecule, acceptor atom, score
      L1  H     6    29       P1  8028  1.00
      P1  H  7989  7998       L1     8  1.00
      L1  C    11    32       P1  7957  1.00

> <Gold.PLP.Chemscore.Internal.Correction>
0.0097

> <Gold.Rescore>
     Score         DG    S(hbond)    S(metal)    S(lipo)     H(rot)  DE(clash)    DE(int)     intcor
     16.85     -17.21       1.63        0.00      83.30       1.35       0.01       0.35       ----

> <Gold.Chemscore.Fitness>
16.8463

> <Gold.Chemscore.DG>
-17.2085

> <Gold.Chemscore.ZeroCoef>
-5.4800

> <Gold.Chemscore.Hbond>
1.6304

> <Gold.Chemscore.Metal>
0.0000

> <Gold.Chemscore.Lipo>
83.2954

> <Gold.Chemscore.Internal_Hbond>
0.0000

> <Gold.Chemscore.DEClash>
0.0088

> <Gold.Chemscore.DEInternal>
0.3534

> <Gold.Chemscore.Rot>
1.3526

> <Gold.Chemscore.Internal.Correction>
   9.000000E+99

> <Gold.Chemscore.Hbonds>
donor molecule, donor type, donor heavy atom, donor atom, acceptor molecule, acceptor atom, score
      L1  H     6    29       P1  8028  0.98
      P1  H  7989  7998       L1     8  0.43

> <Gold.Chemscore.Hbond.Weighted>
-5.4456

> <Gold.Chemscore.Metal.Weighted>
-0.0000

> <Gold.Chemscore.Lipo.Weighted>
-9.7456

> <Gold.Chemscore.Internal_Hbond.Weighted>
0.0000

> <Gold.Chemscore.DEClash.Weighted>
0.0088

> <Gold.Chemscore.DEInternal.Weighted>
0.3534

> <Gold.Chemscore.Rot.Weighted>
3.4626

> <Gold.Chemscore.Internal.Correction.Weighted>
   9.000000E+99

> <Gold.Protein.RotatedTorsions>
[ 6907 6896 6895 6894 ] final   37.36 input  -60.11 | X-H torsion
[ 7974 7965 7964 7962 ] final   72.22 input  175.53 | X-H torsion
[ 8008 7997 7996 7995 ] final -167.21 input   59.86 | X-H torsion
[ 10167 10162 10161 10158 ] final -151.92 input  -65.29 | X-H torsion
[ 10718 10713 10712 10709 ] final   -5.38 input   66.30 | X-H torsion
[ 10763 10752 10751 10750 ] final  -58.40 input  -60.55 | X-H torsion
[ 11005 11000 10999 10996 ] final  163.54 input  -57.11 | X-H torsion

> <Gold.Protein.ActiveResidues>
 VAL166  LYS551  ARG553  GLY616  TRP617  ASP618  TYR619  PRO620  LYS621  CYS622 
 ASP623  PHE694  ASN695  SER759  ASP760  ASP761  ALA762  ILE779  LEU786  VAL792 
 PHE793  MET794  SER795  GLU796  ALA797  LYS798  CYS799  TRP800  GLU811  SER814 

> <Gold.Protein.RotatedAtoms>
  152.1422  134.9054  160.0552 H   0  0  0  0  0  0  0  0  0  0  0  0  # atno 6907 bound_to 6896
  152.0117  133.3859  159.4231 H   0  0  0  0  0  0  0  0  0  0  0  0  # atno 6908 bound_to 6896
  150.6866  134.3644  159.5008 H   0  0  0  0  0  0  0  0  0  0  0  0  # atno 6909 bound_to 6896
  145.7561  139.2780  143.1403 H   0  0  0  0  0  0  0  0  0  0  0  0  # atno 7974 bound_to 7965
  155.8746  140.0999  157.1527 H   0  0  0  0  0  0  0  0  0  0  0  0  # atno 8008 bound_to 7997
  154.4000  140.1340  156.4184 H   0  0  0  0  0  0  0  0  0  0  0  0  # atno 8009 bound_to 7997
  155.7712  140.3461  155.5250 H   0  0  0  0  0  0  0  0  0  0  0  0  # atno 8010 bound_to 7997
  139.7226  143.8934  152.2508 H   0  0  0  0  0  0  0  0  0  0  0  0  # atno 10167 bound_to 10162
  156.7474  130.5228  149.5811 H   0  0  0  0  0  0  0  0  0  0  0  0  # atno 10718 bound_to 10713
  154.2375  135.6349  153.5196 H   0  0  0  0  0  0  0  0  0  0  0  0  # atno 10763 bound_to 10752
  152.9936  135.5534  154.5946 H   0  0  0  0  0  0  0  0  0  0  0  0  # atno 10764 bound_to 10752
  154.5444  135.2897  155.1040 H   0  0  0  0  0  0  0  0  0  0  0  0  # atno 10765 bound_to 10752
  140.2368  134.8082  157.3371 H   0  0  0  0  0  0  0  0  0  0  0  0  # atno 11005 bound_to 11000
  146.0309  140.8259  142.9876 LP  0  0  0  0  0  0  0  0  0  0  0  0  # atno 17320 bound_to 7965
  144.6839  140.2767  143.7298 LP  0  0  0  0  0  0  0  0  0  0  0  0  # atno 17321 bound_to 7965
  139.8834  144.7005  150.8852 LP  0  0  0  0  0  0  0  0  0  0  0  0  # atno 17342 bound_to 10162
  140.7756  143.3643  151.1768 LP  0  0  0  0  0  0  0  0  0  0  0  0  # atno 17343 bound_to 10162
  156.1424  130.6254  151.0485 LP  0  0  0  0  0  0  0  0  0  0  0  0  # atno 17370 bound_to 10713
  157.6792  131.0842  150.7414 LP  0  0  0  0  0  0  0  0  0  0  0  0  # atno 17371 bound_to 10713
  140.1694  134.4628  155.7841 LP  0  0  0  0  0  0  0  0  0  0  0  0  # atno 17394 bound_to 11000
  141.2214  133.6935  156.7681 LP  0  0  0  0  0  0  0  0  0  0  0  0  # atno 17395 bound_to 11000

$$$$
