AV-unprocessed.smi:67|AV-procd|sdf|629|dock4
  -GOLD-   2262016523D 1   1.00000     0.00000
 Structure written by MMmdl.
 49 51  0  0  0  0  0  0  0  0  3 V2000
  144.2035  138.2126  153.9139 O   0  0  0  0  0  0  0  0  0  0  0  0
  145.5988  138.2124  154.1653 C   0  0  1  0  0  0  0  0  0  0  0  0
  145.9523  139.4910  154.9587 C   0  0  0  0  0  0  0  0  0  0  0  0
  147.3871  139.5309  155.3518 N   0  3  2  0  0  0  0  0  0  0  0  0
  147.5974  140.0642  156.7234 C   0  0  0  0  0  0  0  0  0  0  0  0
  149.0589  139.8929  157.1703 C   0  0  0  0  0  0  0  0  0  0  0  0
  150.0211  140.5199  156.1407 C   0  0  1  0  0  0  0  0  0  0  0  0
  151.3995  140.5032  156.5196 O   0  0  0  0  0  0  0  0  0  0  0  0
  151.8750  141.0602  157.6918 C   0  0  0  0  0  0  0  0  0  0  0  0
  152.6420  140.3942  158.6804 C   0  0  0  0  0  0  0  0  0  0  0  0
  153.0724  141.0787  159.8329 C   0  0  0  0  0  0  0  0  0  0  0  0
  152.7422  142.4330  160.0192 C   0  0  0  0  0  0  0  0  0  0  0  0
  151.9729  143.1114  159.0518 C   0  0  0  0  0  0  0  0  0  0  0  0
  151.6146  144.5788  159.2362 C   0  0  0  0  0  0  0  0  0  0  0  0
  152.1756  145.2925  158.2610 F   0  0  0  0  0  0  0  0  0  0  0  0
  150.2929  144.7495  159.1879 F   0  0  0  0  0  0  0  0  0  0  0  0
  152.0510  145.0382  160.4096 F   0  0  0  0  0  0  0  0  0  0  0  0
  151.5531  142.4187  157.8961 C   0  0  0  0  0  0  0  0  0  0  0  0
  149.7386  140.0535  154.6977 C   0  0  0  0  0  0  0  0  0  0  0  0
  148.2489  140.2226  154.3565 C   0  0  0  0  0  0  0  0  0  0  0  0
  146.0043  136.8967  154.8379 C   0  0  0  0  0  0  0  0  0  0  0  0
  146.0873  135.8997  153.6804 C   0  0  0  0  0  0  0  0  0  0  0  0
  146.4544  136.6870  152.4879 N   0  3  0  0  0  0  0  0  0  0  0  0
  146.3245  138.1231  152.8117 C   0  0  0  0  0  0  0  0  0  0  0  0
  143.9854  138.9681  153.3885 H   0  0  0  0  0  0  0  0  0  0  0  0
  145.6959  140.3819  154.3826 H   0  0  0  0  0  0  0  0  0  0  0  0
  145.3180  139.5314  155.8461 H   0  0  0  0  0  0  0  0  0  0  0  0
  147.3137  141.1175  156.7520 H   0  0  0  0  0  0  0  0  0  0  0  0
  146.9490  139.5404  157.4271 H   0  0  0  0  0  0  0  0  0  0  0  0
  149.2017  140.3684  158.1412 H   0  0  0  0  0  0  0  0  0  0  0  0
  149.2533  138.8350  157.3266 H   0  0  0  0  0  0  0  0  0  0  0  0
  149.7880  141.5858  156.1458 H   0  0  0  0  0  0  0  0  0  0  0  0
  152.9243  139.3598  158.5936 H   0  0  0  0  0  0  0  0  0  0  0  0
  153.6602  140.5624  160.5775 H   0  0  0  0  0  0  0  0  0  0  0  0
  153.0841  142.9460  160.9060 H   0  0  0  0  0  0  0  0  0  0  0  0
  150.9730  142.9378  157.1470 H   0  0  0  0  0  0  0  0  0  0  0  0
  150.3412  140.6365  154.0004 H   0  0  0  0  0  0  0  0  0  0  0  0
  150.0172  139.0155  154.5352 H   0  0  0  0  0  0  0  0  0  0  0  0
  148.0643  139.8262  153.3586 H   0  0  0  0  0  0  0  0  0  0  0  0
  147.9893  141.2820  154.3257 H   0  0  0  0  0  0  0  0  0  0  0  0
  146.9939  136.9989  155.2857 H   0  0  0  0  0  0  0  0  0  0  0  0
  145.3163  136.5788  155.6226 H   0  0  0  0  0  0  0  0  0  0  0  0
  146.8027  135.0986  153.8680 H   0  0  0  0  0  0  0  0  0  0  0  0
  145.1114  135.4453  153.5048 H   0  0  0  0  0  0  0  0  0  0  0  0
  147.4077  136.4875  152.2192 H   0  0  0  0  0  0  0  0  0  0  0  0
  145.8215  138.6724  152.0144 H   0  0  0  0  0  0  0  0  0  0  0  0
  147.3341  138.5273  152.8980 H   0  0  0  0  0  0  0  0  0  0  0  0
  145.8326  136.4457  151.7288 H   0  0  0  0  0  0  0  0  0  0  0  0
  147.6898  138.5672  155.3809 H   0  0  0  0  0  0  0  0  0  0  0  0
  1  2  1  0  0  0  0
  1 25  1  0  0  0  0
  2 24  1  0  0  0  0
  2  3  1  0  0  0  0
  2 21  1  0  0  0  0
  3  4  1  0  0  0  0
  3 26  1  0  0  0  0
  3 27  1  0  0  0  0
  4 20  1  0  0  0  0
  4  5  1  0  0  0  0
  4 49  1  0  0  0  0
  5  6  1  0  0  0  0
  5 28  1  0  0  0  0
  5 29  1  0  0  0  0
  6  7  1  0  0  0  0
  6 30  1  0  0  0  0
  6 31  1  0  0  0  0
  7  8  1  0  0  0  0
  7 19  1  0  0  0  0
  7 32  1  0  0  0  0
  8  9  1  0  0  0  0
  9 18  1  0  0  0  0
  9 10  2  0  0  0  0
 10 11  1  0  0  0  0
 10 33  1  0  0  0  0
 11 12  2  0  0  0  0
 11 34  1  0  0  0  0
 12 13  1  0  0  0  0
 12 35  1  0  0  0  0
 13 14  1  0  0  0  0
 13 18  2  0  0  0  0
 14 15  1  0  0  0  0
 14 16  1  0  0  0  0
 14 17  1  0  0  0  0
 18 36  1  0  0  0  0
 19 20  1  0  0  0  0
 19 37  1  0  0  0  0
 19 38  1  0  0  0  0
 20 39  1  0  0  0  0
 20 40  1  0  0  0  0
 21 22  1  0  0  0  0
 21 41  1  0  0  0  0
 21 42  1  0  0  0  0
 22 23  1  0  0  0  0
 22 43  1  0  0  0  0
 22 44  1  0  0  0  0
 23 24  1  0  0  0  0
 23 45  1  0  0  0  0
 23 48  1  0  0  0  0
 24 46  1  0  0  0  0
 24 47  1  0  0  0  0
M  CHG  1   4   1
M  CHG  1  23   1
M  END
> <s_m_source_file>
AV-unprocessed.smi

> <i_m_source_file_index>
67

> <i_lp_mmshare_version>
43012

> <i_f3d_flags>
0

> <s_epik_input>
W0NIMl0xW05IXVtDSDJdW0NIMl1bQ0BAXTEoW09IXSlbQ0gyXU4yW0NIMl1bQ0gyXVtDSF0oW0NIMl1bQ0gyXTIpT2MzW2NIXVtjSF1bY0hdYyhDKEYpKEYpRilbY0hdMw==

> <s_epik_cmdline>
J2VwaWtfcHl0aG9uJywgJy1waCcsICc3LjAnLCAnLXRuJywgJzgnLCAnLW1hJywgJzIwMCcsICctbWV0YWxfYmluZGluZycsICctaW1hZScsICc8aW5maWxlLm1hZT4nLCAnLW9tYWUnLCAnPG91dGZpbGUubWFlPic=

> <r_lp_tautomer_probability>
1

> <r_epik_Ionization_Penalty>
0.0989853

> <r_epik_Ionization_Penalty_Charging>
0.0989662

> <r_epik_Ionization_Penalty_Neutral>
1.91014e-05

> <r_epik_State_Penalty>
0.0852826

> <r_epik_Charging_Adjusted_Penalty>
0.184249

> <i_epik_Tot_Q>
2

> <i_epik_Tot_abs_Q>
2

> <r_epik_Metal_State_Penalty>
0.0849414

> <b_epik_Metal_Only>
0

> <s_lp_Force_Field>
OPLS_2005

> <r_lp_Energy>
60.8706

> <b_lp_Chiralities_Consistent>
1

> <s_lp_Variant>
AV-unprocessed.smi:67-1

> <Gold.Version>
5.8.1

> <Gold.Id.Protein>
6NUR|6NUR_protein|mol2

> <Gold.PLP.Fitness>
51.7940

> <Gold.PLP.PLP>
-43.5719

> <Gold.PLP.part.hbond>
-1.8851

> <Gold.PLP.part.metal>
0.0000

> <Gold.PLP.part.buried>
-5.8567

> <Gold.PLP.part.nonpolar>
-36.0291

> <Gold.PLP.part.repulsive>
0.0520

> <Gold.PLP.ligand.clash>
0.9583

> <Gold.PLP.ligand.torsion>
0.5895

> <Gold.PLP.Chemscore.Hbond>
3.0000

> <Gold.PLP.Chemscore.CHOScore>
0.0000

> <Gold.PLP.Chemscore.Metal>
0.0000

> <Gold.Chemscore.Hbonds>
donor molecule, donor type, donor heavy atom, donor atom, acceptor molecule, acceptor atom, score
      L1  H     1    25       P1 10175  1.00
      L1  H    23    45       P1  7948  2.00

> <Gold.PLP.Chemscore.Internal.Correction>
1.3594

> <Gold.Rescore>
     Score         DG    S(hbond)    S(metal)    S(lipo)     H(rot)  DE(clash)    DE(int)     intcor
     17.19     -18.22       1.99        0.00     101.05       2.24       0.27       0.77       ----

> <Gold.Chemscore.Fitness>
17.1854

> <Gold.Chemscore.DG>
-18.2196

> <Gold.Chemscore.ZeroCoef>
-5.4800

> <Gold.Chemscore.Hbond>
1.9876

> <Gold.Chemscore.Metal>
0.0000

> <Gold.Chemscore.Lipo>
101.0535

> <Gold.Chemscore.Internal_Hbond>
0.0000

> <Gold.Chemscore.DEClash>
0.2668

> <Gold.Chemscore.DEInternal>
0.7674

> <Gold.Chemscore.Rot>
2.2352

> <Gold.Chemscore.Internal.Correction>
   9.000000E+99

> <Gold.Chemscore.Hbonds>
donor molecule, donor type, donor heavy atom, donor atom, acceptor molecule, acceptor atom, score
      L1  H     1    25       P1 10175  1.00
      L1  H    23    45       P1  7948  0.98

> <Gold.Chemscore.Hbond.Weighted>
-6.6385

> <Gold.Chemscore.Metal.Weighted>
-0.0000

> <Gold.Chemscore.Lipo.Weighted>
-11.8233

> <Gold.Chemscore.Internal_Hbond.Weighted>
0.0000

> <Gold.Chemscore.DEClash.Weighted>
0.2668

> <Gold.Chemscore.DEInternal.Weighted>
0.7674

> <Gold.Chemscore.Rot.Weighted>
5.7221

> <Gold.Chemscore.Internal.Correction.Weighted>
   9.000000E+99

> <Gold.Protein.RotatedTorsions>
[ 6907 6896 6895 6894 ] final  -83.47 input  -60.11 | X-H torsion
[ 7974 7965 7964 7962 ] final -109.07 input  175.53 | X-H torsion
[ 8008 7997 7996 7995 ] final    8.53 input   59.86 | X-H torsion
[ 10167 10162 10161 10158 ] final  146.02 input  -65.29 | X-H torsion
[ 10718 10713 10712 10709 ] final -146.93 input   66.30 | X-H torsion
[ 10763 10752 10751 10750 ] final -131.31 input  -60.55 | X-H torsion
[ 11005 11000 10999 10996 ] final  -39.05 input  -57.11 | X-H torsion

> <Gold.Protein.ActiveResidues>
 VAL166  LYS551  ARG553  GLY616  TRP617  ASP618  TYR619  PRO620  LYS621  CYS622 
 ASP623  PHE694  ASN695  SER759  ASP760  ASP761  ALA762  ILE779  LEU786  VAL792 
 PHE793  MET794  SER795  GLU796  ALA797  LYS798  CYS799  TRP800  GLU811  SER814 

> <Gold.Protein.RotatedAtoms>
  150.6885  134.3507  159.4907 H   0  0  0  0  0  0  0  0  0  0  0  0  # atno 6907 bound_to 6896
  152.1348  134.9104  160.0566 H   0  0  0  0  0  0  0  0  0  0  0  0  # atno 6908 bound_to 6896
  152.0260  133.3883  159.4315 H   0  0  0  0  0  0  0  0  0  0  0  0  # atno 6909 bound_to 6896
  145.1851  140.8989  143.3457 H   0  0  0  0  0  0  0  0  0  0  0  0  # atno 7974 bound_to 7965
  154.7681  140.2797  155.6160 H   0  0  0  0  0  0  0  0  0  0  0  0  # atno 8008 bound_to 7997
  156.2928  140.2647  156.2404 H   0  0  0  0  0  0  0  0  0  0  0  0  # atno 8009 bound_to 7997
  154.9934  140.0373  157.2319 H   0  0  0  0  0  0  0  0  0  0  0  0  # atno 8010 bound_to 7997
  139.4915  144.5860  151.6778 H   0  0  0  0  0  0  0  0  0  0  0  0  # atno 10167 bound_to 10162
  156.4011  130.7934  151.2145 H   0  0  0  0  0  0  0  0  0  0  0  0  # atno 10718 bound_to 10713
  154.8751  135.3834  154.4226 H   0  0  0  0  0  0  0  0  0  0  0  0  # atno 10763 bound_to 10752
  153.4928  135.7030  153.5880 H   0  0  0  0  0  0  0  0  0  0  0  0  # atno 10764 bound_to 10752
  153.4246  135.3893  155.2099 H   0  0  0  0  0  0  0  0  0  0  0  0  # atno 10765 bound_to 10752
  141.0073  133.6925  156.2135 H   0  0  0  0  0  0  0  0  0  0  0  0  # atno 11005 bound_to 11000
  145.0097  139.3521  143.6126 LP  0  0  0  0  0  0  0  0  0  0  0  0  # atno 17320 bound_to 7965
  146.3446  139.9354  142.8748 LP  0  0  0  0  0  0  0  0  0  0  0  0  # atno 17321 bound_to 7965
  140.5476  144.0478  150.6113 LP  0  0  0  0  0  0  0  0  0  0  0  0  # atno 17342 bound_to 10162
  140.3521  143.2957  152.0475 LP  0  0  0  0  0  0  0  0  0  0  0  0  # atno 17343 bound_to 10162
  157.7504  131.0286  150.4058 LP  0  0  0  0  0  0  0  0  0  0  0  0  # atno 17370 bound_to 10713
  156.4337  130.3977  149.6743 LP  0  0  0  0  0  0  0  0  0  0  0  0  # atno 17371 bound_to 10713
  140.6791  134.4786  157.5589 LP  0  0  0  0  0  0  0  0  0  0  0  0  # atno 17394 bound_to 11000
  139.9070  134.8426  156.1667 LP  0  0  0  0  0  0  0  0  0  0  0  0  # atno 17395 bound_to 11000

$$$$
