AV-unprocessed.smi:1487|AV-procd|sdf|6008|dock3
  -GOLD-   22720 6103D 1   1.00000     0.00000
 Structure written by MMmdl.
 48 50  0  0  0  0  0  0  0  0  2 V2000
  154.2275  142.5866  163.5069 C   0  0  0  0  0  0  0  0  0  0  0  0
  153.5232  142.7293  162.1694 C   0  0  0  0  0  0  0  0  0  0  0  0
  152.6295  143.8065  161.9754 C   0  0  0  0  0  0  0  0  0  0  0  0
  151.9525  143.9736  160.7478 C   0  0  0  0  0  0  0  0  0  0  0  0
  151.0481  144.9411  160.3442 N   0  0  0  0  0  0  0  0  0  0  0  0
  150.7761  144.5530  159.1019 C   0  0  0  0  0  0  0  0  0  0  0  0
  151.4023  143.4494  158.6495 N   0  0  0  0  0  0  0  0  0  0  0  0
  151.2644  142.8413  157.3379 C   0  0  0  0  0  0  0  0  0  0  0  0
  150.0131  141.9487  157.2267 C   0  0  1  0  0  0  0  0  0  0  0  0
  148.8524  142.7481  157.3518 O   0  0  0  0  0  0  0  0  0  0  0  0
  149.9573  141.2158  155.8719 C   0  0  0  0  0  0  0  0  0  0  0  0
  151.1393  140.3443  155.6467 N   0  3  1  0  0  0  0  0  0  0  0  0
  151.6307  139.7212  156.9036 C   0  0  0  0  0  0  0  0  0  0  0  0
  152.9355  138.9416  156.6670 C   0  0  0  0  0  0  0  0  0  0  0  0
  152.7559  137.8849  155.5696 C   0  0  0  0  0  0  0  0  0  0  0  0
  152.2205  138.5479  154.2922 C   0  0  1  0  0  0  0  0  0  0  0  0
  151.9720  137.5582  153.3166 O   0  0  0  0  0  0  0  0  0  0  0  0
  150.9258  139.3304  154.5791 C   0  0  0  0  0  0  0  0  0  0  0  0
  152.1960  143.0262  159.7106 C   0  0  0  0  0  0  0  0  0  0  0  0
  153.0840  141.9509  159.8912 C   0  0  0  0  0  0  0  0  0  0  0  0
  153.7512  141.7981  161.1244 C   0  0  0  0  0  0  0  0  0  0  0  0
  154.7055  140.6318  161.3107 C   0  0  0  0  0  0  0  0  0  0  0  0
  153.9887  143.4163  164.1729 H   0  0  0  0  0  0  0  0  0  0  0  0
  155.3092  142.5693  163.3720 H   0  0  0  0  0  0  0  0  0  0  0  0
  153.9241  141.6625  163.9995 H   0  0  0  0  0  0  0  0  0  0  0  0
  152.4550  144.5152  162.7716 H   0  0  0  0  0  0  0  0  0  0  0  0
  150.0819  145.1035  158.4837 H   0  0  0  0  0  0  0  0  0  0  0  0
  151.2379  143.6330  156.5880 H   0  0  0  0  0  0  0  0  0  0  0  0
  152.1629  142.2560  157.1382 H   0  0  0  0  0  0  0  0  0  0  0  0
  150.0233  141.2338  158.0492 H   0  0  0  0  0  0  0  0  0  0  0  0
  149.0332  143.6005  156.9841 H   0  0  0  0  0  0  0  0  0  0  0  0
  149.0442  140.6184  155.8430 H   0  0  0  0  0  0  0  0  0  0  0  0
  149.8750  141.9297  155.0508 H   0  0  0  0  0  0  0  0  0  0  0  0
  151.8107  140.4940  157.6522 H   0  0  0  0  0  0  0  0  0  0  0  0
  150.8633  139.0594  157.3083 H   0  0  0  0  0  0  0  0  0  0  0  0
  153.7293  139.6337  156.3826 H   0  0  0  0  0  0  0  0  0  0  0  0
  153.2586  138.4648  157.5930 H   0  0  0  0  0  0  0  0  0  0  0  0
  153.7049  137.3851  155.3709 H   0  0  0  0  0  0  0  0  0  0  0  0
  152.0623  137.1159  155.9133 H   0  0  0  0  0  0  0  0  0  0  0  0
  152.9733  139.2292  153.8929 H   0  0  0  0  0  0  0  0  0  0  0  0
  151.4952  137.9487  152.6000 H   0  0  0  0  0  0  0  0  0  0  0  0
  150.1310  138.6474  154.8843 H   0  0  0  0  0  0  0  0  0  0  0  0
  150.5898  139.8136  153.6619 H   0  0  0  0  0  0  0  0  0  0  0  0
  153.2505  141.2486  159.0878 H   0  0  0  0  0  0  0  0  0  0  0  0
  154.7411  140.0000  160.4225 H   0  0  0  0  0  0  0  0  0  0  0  0
  154.3914  140.0106  162.1500 H   0  0  0  0  0  0  0  0  0  0  0  0
  155.7157  140.9927  161.5053 H   0  0  0  0  0  0  0  0  0  0  0  0
  151.8795  140.9557  155.3315 H   0  0  0  0  0  0  0  0  0  0  0  0
  1  2  1  0  0  0  0
  1 23  1  0  0  0  0
  1 24  1  0  0  0  0
  1 25  1  0  0  0  0
  2 21  1  0  0  0  0
  2  3  2  0  0  0  0
  3  4  1  0  0  0  0
  3 26  1  0  0  0  0
  4 19  2  0  0  0  0
  4  5  1  0  0  0  0
  5  6  2  0  0  0  0
  6  7  1  0  0  0  0
  6 27  1  0  0  0  0
  7  8  1  0  0  0  0
  7 19  1  0  0  0  0
  8  9  1  0  0  0  0
  8 28  1  0  0  0  0
  8 29  1  0  0  0  0
  9 10  1  0  0  0  0
  9 11  1  0  0  0  0
  9 30  1  0  0  0  0
 10 31  1  0  0  0  0
 11 12  1  0  0  0  0
 11 32  1  0  0  0  0
 11 33  1  0  0  0  0
 12 18  1  0  0  0  0
 12 13  1  0  0  0  0
 12 48  1  0  0  0  0
 13 14  1  0  0  0  0
 13 34  1  0  0  0  0
 13 35  1  0  0  0  0
 14 15  1  0  0  0  0
 14 36  1  0  0  0  0
 14 37  1  0  0  0  0
 15 16  1  0  0  0  0
 15 38  1  0  0  0  0
 15 39  1  0  0  0  0
 16 17  1  0  0  0  0
 16 18  1  0  0  0  0
 16 40  1  0  0  0  0
 17 41  1  0  0  0  0
 18 42  1  0  0  0  0
 18 43  1  0  0  0  0
 19 20  1  0  0  0  0
 20 21  2  0  0  0  0
 20 44  1  0  0  0  0
 21 22  1  0  0  0  0
 22 45  1  0  0  0  0
 22 46  1  0  0  0  0
 22 47  1  0  0  0  0
M  CHG  1  12   1
M  END
> <s_m_source_file>
AV-unprocessed.smi

> <i_m_source_file_index>
1487

> <i_lp_mmshare_version>
43012

> <i_f3d_flags>
0

> <s_epik_input>
W0NIM11jKFtjSF0xKWMoW0NIM10pW2NIXWMoYzEyKW4oW2NIXW4yKVtDSDJdW0NASF0oW09IXSlbQ0gyXU4zW0NIMl1bQ0gyXVtDSDJdW0NAQEhdKFtPSF0pW0NIMl0z

> <s_epik_cmdline>
J2VwaWtfcHl0aG9uJywgJy1waCcsICc3LjAnLCAnLXRuJywgJzgnLCAnLW1hJywgJzIwMCcsICctbWV0YWxfYmluZGluZycsICctaW1hZScsICc8aW5maWxlLm1hZT4nLCAnLW9tYWUnLCAnPG91dGZpbGUubWFlPic=

> <r_epik_Ionization_Penalty>
0.0940186

> <r_epik_Ionization_Penalty_Charging>
0.00679686

> <r_epik_Ionization_Penalty_Neutral>
0.0872218

> <r_epik_State_Penalty>
0.0799311

> <r_epik_Charging_Adjusted_Penalty>
0.086728

> <i_epik_Tot_Q>
1

> <i_epik_Tot_abs_Q>
1

> <r_epik_Metal_State_Penalty>
7.95545e-05

> <b_epik_Metal_Only>
0

> <s_lp_Force_Field>
OPLS_2005

> <r_lp_Energy>
21.5016

> <b_lp_Chiralities_Consistent>
1

> <s_lp_Variant>
AV-unprocessed.smi:1487-2

> <Gold.Version>
5.8.1

> <Gold.Id.Protein>
6NUR|6NUR_protein|mol2

> <Gold.PLP.Fitness>
61.4417

> <Gold.PLP.PLP>
-53.0722

> <Gold.PLP.part.hbond>
-2.9342

> <Gold.PLP.part.metal>
0.0000

> <Gold.PLP.part.buried>
-4.8221

> <Gold.PLP.part.nonpolar>
-45.4383

> <Gold.PLP.part.repulsive>
0.3109

> <Gold.PLP.ligand.clash>
0.0000

> <Gold.PLP.ligand.torsion>
0.5364

> <Gold.PLP.Chemscore.Hbond>
2.1293

> <Gold.PLP.Chemscore.CHOScore>
1.0061

> <Gold.PLP.Chemscore.Metal>
0.0000

> <Gold.Chemscore.Hbonds>
donor molecule, donor type, donor heavy atom, donor atom, acceptor molecule, acceptor atom, score
      L1  H    10    31       P1  8028  0.99
      P1  H 10752 10765       L1    17  0.52
      L1  C     6    27       P1  8029  0.77

> <Gold.PLP.Chemscore.Internal.Correction>
0.0362

> <Gold.Rescore>
     Score         DG    S(hbond)    S(metal)    S(lipo)     H(rot)  DE(clash)    DE(int)     intcor
     21.89     -22.54       2.23        0.00     140.62       2.67       0.13       0.52       ----

> <Gold.Chemscore.Fitness>
21.8851

> <Gold.Chemscore.DG>
-22.5376

> <Gold.Chemscore.ZeroCoef>
-5.4800

> <Gold.Chemscore.Hbond>
2.2286

> <Gold.Chemscore.Metal>
0.0000

> <Gold.Chemscore.Lipo>
140.6198

> <Gold.Chemscore.Internal_Hbond>
0.0000

> <Gold.Chemscore.DEClash>
0.1349

> <Gold.Chemscore.DEInternal>
0.5176

> <Gold.Chemscore.Rot>
2.6712

> <Gold.Chemscore.Internal.Correction>
   9.000000E+99

> <Gold.Chemscore.Hbonds>
donor molecule, donor type, donor heavy atom, donor atom, acceptor molecule, acceptor atom, score
      L1  H    10    31       P1  8028  0.57
      L1  H    17    41       P1  7949  0.01
      P1  H 10752 10765       L1    17  0.33

> <Gold.Chemscore.Hbond.Weighted>
-7.4435

> <Gold.Chemscore.Metal.Weighted>
-0.0000

> <Gold.Chemscore.Lipo.Weighted>
-16.4525

> <Gold.Chemscore.Internal_Hbond.Weighted>
0.0000

> <Gold.Chemscore.DEClash.Weighted>
0.1349

> <Gold.Chemscore.DEInternal.Weighted>
0.5176

> <Gold.Chemscore.Rot.Weighted>
6.8383

> <Gold.Chemscore.Internal.Correction.Weighted>
   9.000000E+99

> <Gold.Protein.RotatedTorsions>
[ 6907 6896 6895 6894 ] final  -79.95 input  -60.11 | X-H torsion
[ 7974 7965 7964 7962 ] final -103.59 input  175.53 | X-H torsion
[ 8008 7997 7996 7995 ] final   46.42 input   59.86 | X-H torsion
[ 10167 10162 10161 10158 ] final -109.36 input  -65.29 | X-H torsion
[ 10718 10713 10712 10709 ] final  156.59 input   66.30 | X-H torsion
[ 10763 10752 10751 10750 ] final  134.86 input  -60.55 | X-H torsion
[ 11005 11000 10999 10996 ] final  101.76 input  -57.11 | X-H torsion

> <Gold.Protein.ActiveResidues>
 VAL166  LYS551  ARG553  GLY616  TRP617  ASP618  TYR619  PRO620  LYS621  CYS622 
 ASP623  PHE694  ASN695  SER759  ASP760  ASP761  ALA762  ILE779  LEU786  VAL792 
 PHE793  MET794  SER795  GLU796  ALA797  LYS798  CYS799  TRP800  GLU811  SER814 

> <Gold.Protein.RotatedAtoms>
  150.6939  134.4044  159.5133 H   0  0  0  0  0  0  0  0  0  0  0  0  # atno 6907 bound_to 6896
  152.1812  134.8749  160.0535 H   0  0  0  0  0  0  0  0  0  0  0  0  # atno 6908 bound_to 6896
  151.9739  133.3700  159.4118 H   0  0  0  0  0  0  0  0  0  0  0  0  # atno 6909 bound_to 6896
  145.2539  140.9247  143.3079 H   0  0  0  0  0  0  0  0  0  0  0  0  # atno 7974 bound_to 7965
  155.3522  140.3414  155.4239 H   0  0  0  0  0  0  0  0  0  0  0  0  # atno 8008 bound_to 7997
  156.1758  140.1647  156.8401 H   0  0  0  0  0  0  0  0  0  0  0  0  # atno 8009 bound_to 7997
  154.5280  140.0751  156.8276 H   0  0  0  0  0  0  0  0  0  0  0  0  # atno 8010 bound_to 7997
  140.1562  143.4158  152.1459 H   0  0  0  0  0  0  0  0  0  0  0  0  # atno 10167 bound_to 10162
  157.2029  131.0680  151.2014 H   0  0  0  0  0  0  0  0  0  0  0  0  # atno 10718 bound_to 10713
  153.8305  135.3104  155.3418 H   0  0  0  0  0  0  0  0  0  0  0  0  # atno 10763 bound_to 10752
  154.7975  135.4746  154.0199 H   0  0  0  0  0  0  0  0  0  0  0  0  # atno 10764 bound_to 10752
  153.1637  135.6865  153.8796 H   0  0  0  0  0  0  0  0  0  0  0  0  # atno 10765 bound_to 10752
  139.8774  134.9196  156.4956 H   0  0  0  0  0  0  0  0  0  0  0  0  # atno 11005 bound_to 11000
  144.9478  139.4116  143.6417 LP  0  0  0  0  0  0  0  0  0  0  0  0  # atno 17320 bound_to 7965
  146.3294  139.8470  142.8880 LP  0  0  0  0  0  0  0  0  0  0  0  0  # atno 17321 bound_to 7965
  139.5402  144.7249  151.4758 LP  0  0  0  0  0  0  0  0  0  0  0  0  # atno 17342 bound_to 10162
  140.6672  143.8373  150.6955 LP  0  0  0  0  0  0  0  0  0  0  0  0  # atno 17343 bound_to 10162
  157.3749  130.7200  149.6590 LP  0  0  0  0  0  0  0  0  0  0  0  0  # atno 17370 bound_to 10713
  155.9698  130.4188  150.4347 LP  0  0  0  0  0  0  0  0  0  0  0  0  # atno 17371 bound_to 10713
  140.8627  133.8047  155.9282 LP  0  0  0  0  0  0  0  0  0  0  0  0  # atno 17394 bound_to 11000
  140.9033  134.2351  157.5029 LP  0  0  0  0  0  0  0  0  0  0  0  0  # atno 17395 bound_to 11000

$$$$
