AV-unprocessed.smi:196|AV-procd|sdf|1541|dock3
  -GOLD-   2262019403D 1   1.00000     0.00000
 Structure written by MMmdl.
 47 50  0  0  0  0  0  0  0  0  1 V2000
  150.2260  138.2746  154.0880 C   0  0  0  0  0  0  0  0  0  0  0  0
  149.8275  139.2499  155.2078 C   0  0  1  0  0  0  0  0  0  0  0  0
  150.9484  139.5641  156.0216 O   0  0  0  0  0  0  0  0  0  0  0  0
  150.6130  140.7276  156.7556 C   0  0  0  0  0  0  0  0  0  0  0  0
  149.9603  141.6133  155.7012 C   0  0  0  0  0  0  0  0  0  0  0  0
  149.2455  140.6227  154.7767 C   0  0  1  0  0  0  0  0  0  0  0  0
  149.5889  140.9436  153.4385 O   0  0  0  0  0  0  0  0  0  0  0  0
  147.7050  140.7049  154.9149 C   0  0  0  0  0  0  0  0  0  0  0  0
  146.9995  139.6655  154.1802 N   0  0  0  0  0  0  0  0  0  0  0  0
  147.0747  139.4146  152.8292 C   0  0  0  0  0  0  0  0  0  0  0  0
  146.3451  138.4192  152.4068 N   0  0  0  0  0  0  0  0  0  0  0  0
  145.7122  137.9472  153.5514 C   0  0  0  0  0  0  0  0  0  0  0  0
  144.7851  136.8972  153.8155 C   0  0  0  0  0  0  0  0  0  0  0  0
  144.3125  136.0568  152.8557 N   0  0  0  0  0  0  0  0  0  0  0  0
  145.1804  135.6875  151.7426 C   0  0  0  0  0  0  0  0  0  0  0  0
  144.8073  134.2484  151.3868 C   0  0  1  0  0  0  0  0  0  0  0  0
  145.5824  133.4063  152.0725 F   0  0  0  0  0  0  0  0  0  0  0  0
  143.3679  134.1268  151.8772 C   0  0  0  0  0  0  0  0  0  0  0  0
  143.3376  134.9989  153.1427 C   0  0  2  0  0  0  0  0  0  0  0  0
  141.9250  135.5435  153.4097 C   0  0  0  0  0  0  0  0  0  0  0  0
  141.7665  136.8666  153.3314 N   0  0  0  0  0  0  0  0  0  0  0  0
  140.9960  134.7890  153.6938 O   0  0  0  0  0  0  0  0  0  0  0  0
  144.3603  136.7530  155.0992 N   0  0  0  0  0  0  0  0  0  0  0  0
  144.8117  137.5642  156.0595 C   0  0  0  0  0  0  0  0  0  0  0  0
  145.6773  138.5735  155.9590 N   0  0  0  0  0  0  0  0  0  0  0  0
  146.1051  138.7312  154.6740 C   0  0  0  0  0  0  0  0  0  0  0  0
  144.9282  134.0196  150.3277 H   0  0  0  0  0  0  0  0  0  0  0  0
  143.6850  134.4097  153.9937 H   0  0  0  0  0  0  0  0  0  0  0  0
  149.3745  138.0399  153.4490 H   0  0  0  0  0  0  0  0  0  0  0  0
  150.5928  137.3373  154.5063 H   0  0  0  0  0  0  0  0  0  0  0  0
  151.0174  138.6852  153.4606 H   0  0  0  0  0  0  0  0  0  0  0  0
  149.1166  138.7470  155.8646 H   0  0  0  0  0  0  0  0  0  0  0  0
  149.9066  140.4746  157.5479 H   0  0  0  0  0  0  0  0  0  0  0  0
  151.4916  141.1877  157.2083 H   0  0  0  0  0  0  0  0  0  0  0  0
  149.2946  142.3562  156.1423 H   0  0  0  0  0  0  0  0  0  0  0  0
  150.7425  142.1554  155.1666 H   0  0  0  0  0  0  0  0  0  0  0  0
  149.3573  140.2128  152.8859 H   0  0  0  0  0  0  0  0  0  0  0  0
  147.4208  140.6334  155.9655 H   0  0  0  0  0  0  0  0  0  0  0  0
  147.3420  141.6739  154.5691 H   0  0  0  0  0  0  0  0  0  0  0  0
  147.6962  139.9935  152.1617 H   0  0  0  0  0  0  0  0  0  0  0  0
  144.9676  136.3530  150.9052 H   0  0  0  0  0  0  0  0  0  0  0  0
  146.2418  135.7730  151.9817 H   0  0  0  0  0  0  0  0  0  0  0  0
  142.6957  134.5232  151.1138 H   0  0  0  0  0  0  0  0  0  0  0  0
  143.0770  133.0938  152.0706 H   0  0  0  0  0  0  0  0  0  0  0  0
  140.8606  137.2776  153.5041 H   0  0  0  0  0  0  0  0  0  0  0  0
  142.5574  137.4523  153.1055 H   0  0  0  0  0  0  0  0  0  0  0  0
  144.4243  137.3769  157.0499 H   0  0  0  0  0  0  0  0  0  0  0  0
  1  2  1  0  0  0  0
  1 29  1  0  0  0  0
  1 30  1  0  0  0  0
  1 31  1  0  0  0  0
  2  6  1  0  0  0  0
  2  3  1  0  0  0  0
  2 32  1  0  0  0  0
  3  4  1  0  0  0  0
  4  5  1  0  0  0  0
  4 33  1  0  0  0  0
  4 34  1  0  0  0  0
  5  6  1  0  0  0  0
  5 35  1  0  0  0  0
  5 36  1  0  0  0  0
  6  7  1  0  0  0  0
  6  8  1  0  0  0  0
  7 37  1  0  0  0  0
  8  9  1  0  0  0  0
  8 38  1  0  0  0  0
  8 39  1  0  0  0  0
  9 26  1  0  0  0  0
  9 10  1  0  0  0  0
 10 11  2  0  0  0  0
 10 40  1  0  0  0  0
 11 12  1  0  0  0  0
 12 26  2  0  0  0  0
 12 13  1  0  0  0  0
 13 14  1  0  0  0  0
 13 23  2  0  0  0  0
 14 19  1  0  0  0  0
 14 15  1  0  0  0  0
 15 16  1  0  0  0  0
 15 41  1  0  0  0  0
 15 42  1  0  0  0  0
 16 27  1  0  0  0  0
 16 17  1  0  0  0  0
 16 18  1  0  0  0  0
 18 19  1  0  0  0  0
 18 43  1  0  0  0  0
 18 44  1  0  0  0  0
 19 28  1  0  0  0  0
 19 20  1  0  0  0  0
 20 21  1  0  0  0  0
 20 22  2  0  0  0  0
 21 45  1  0  0  0  0
 21 46  1  0  0  0  0
 23 24  1  0  0  0  0
 24 25  2  0  0  0  0
 24 47  1  0  0  0  0
 25 26  1  0  0  0  0
M  END
> <s_m_source_file>
AV-unprocessed.smi

> <i_m_source_file_index>
196

> <i_lp_mmshare_version>
43012

> <i_f3d_flags>
0

> <s_epik_input>
W0NIMl0xW0NIMl1PW0NAQEhdKFtDSDNdKVtDQEBdMShbT0hdKVtDSDJdbihbY0hdbjIpYyhjMjMpbltjSF1uYzNONFtDSDJdW0NASF0oRilbQ0gyXVtDQEhdNEMoPU8pW05IMl0=

> <s_epik_cmdline>
J2VwaWtfcHl0aG9uJywgJy1waCcsICc3LjAnLCAnLXRuJywgJzgnLCAnLW1hJywgJzIwMCcsICctbWV0YWxfYmluZGluZycsICctaW1hZScsICc8aW5maWxlLm1hZT4nLCAnLW9tYWUnLCAnPG91dGZpbGUubWFlPic=

> <r_lp_tautomer_probability>
1

> <r_epik_Ionization_Penalty>
0.000857933

> <r_epik_Ionization_Penalty_Charging>
0

> <r_epik_Ionization_Penalty_Neutral>
0.000857933

> <r_epik_State_Penalty>
0.000462053

> <r_epik_Charging_Adjusted_Penalty>
0.000462053

> <i_epik_Tot_Q>
0

> <i_epik_Tot_abs_Q>
0

> <r_epik_Metal_State_Penalty>
-0

> <b_epik_Metal_Only>
0

> <s_lp_Force_Field>
OPLS_2005

> <r_lp_Energy>
42.8122

> <b_lp_Chiralities_Consistent>
1

> <s_lp_Variant>
AV-unprocessed.smi:196-14

> <Gold.Version>
5.8.1

> <Gold.Id.Protein>
6NUR|6NUR_protein|mol2

> <Gold.PLP.Fitness>
47.4772

> <Gold.PLP.PLP>
-36.5140

> <Gold.PLP.part.hbond>
-3.9974

> <Gold.PLP.part.metal>
0.0000

> <Gold.PLP.part.buried>
-5.6959

> <Gold.PLP.part.nonpolar>
-27.8641

> <Gold.PLP.part.repulsive>
0.5401

> <Gold.PLP.ligand.clash>
0.0000

> <Gold.PLP.ligand.torsion>
0.2917

> <Gold.PLP.Chemscore.Hbond>
2.7544

> <Gold.PLP.Chemscore.CHOScore>
1.0000

> <Gold.PLP.Chemscore.Metal>
0.0000

> <Gold.Chemscore.Hbonds>
donor molecule, donor type, donor heavy atom, donor atom, acceptor molecule, acceptor atom, score
      L1  H     7    37       P1  7957  0.56
      P1  H  7989  7998       L1     7  0.26
      P1  H  8011  8017       L1     7  1.00
      P1  H 11000 11005       L1    22  0.60
      L1  C    10    40       P1  7957  1.00

> <Gold.PLP.Chemscore.Internal.Correction>
0.2835

> <Gold.Rescore>
     Score         DG    S(hbond)    S(metal)    S(lipo)     H(rot)  DE(clash)    DE(int)     intcor
     12.71     -14.06       2.42        0.00      61.13       2.60       0.13       1.22       ----

> <Gold.Chemscore.Fitness>
12.7067

> <Gold.Chemscore.DG>
-14.0572

> <Gold.Chemscore.ZeroCoef>
-5.4800

> <Gold.Chemscore.Hbond>
2.4169

> <Gold.Chemscore.Metal>
0.0000

> <Gold.Chemscore.Lipo>
61.1317

> <Gold.Chemscore.Internal_Hbond>
0.0000

> <Gold.Chemscore.DEClash>
0.1303

> <Gold.Chemscore.DEInternal>
1.2202

> <Gold.Chemscore.Rot>
2.5968

> <Gold.Chemscore.Internal.Correction>
   9.000000E+99

> <Gold.Chemscore.Hbonds>
donor molecule, donor type, donor heavy atom, donor atom, acceptor molecule, acceptor atom, score
      L1  H     7    37       P1  7957  0.56
      P1  H  7989  7998       L1     7  0.04
      P1  H  8011  8017       L1     7  0.59
      P1  H 11000 11005       L1    22  0.60

> <Gold.Chemscore.Hbond.Weighted>
-8.0725

> <Gold.Chemscore.Metal.Weighted>
-0.0000

> <Gold.Chemscore.Lipo.Weighted>
-7.1524

> <Gold.Chemscore.Internal_Hbond.Weighted>
0.0000

> <Gold.Chemscore.DEClash.Weighted>
0.1303

> <Gold.Chemscore.DEInternal.Weighted>
1.2202

> <Gold.Chemscore.Rot.Weighted>
6.6477

> <Gold.Chemscore.Internal.Correction.Weighted>
   9.000000E+99

> <Gold.Protein.RotatedTorsions>
[ 6907 6896 6895 6894 ] final -178.55 input  -60.11 | X-H torsion
[ 7974 7965 7964 7962 ] final -173.30 input  175.53 | X-H torsion
[ 8008 7997 7996 7995 ] final -154.97 input   59.86 | X-H torsion
[ 10167 10162 10161 10158 ] final  110.50 input  -65.29 | X-H torsion
[ 10718 10713 10712 10709 ] final  -93.19 input   66.30 | X-H torsion
[ 10763 10752 10751 10750 ] final   86.55 input  -60.55 | X-H torsion
[ 11005 11000 10999 10996 ] final   11.49 input  -57.11 | X-H torsion

> <Gold.Protein.ActiveResidues>
 VAL166  LYS551  ARG553  GLY616  TRP617  ASP618  TYR619  PRO620  LYS621  CYS622 
 ASP623  PHE694  ASN695  SER759  ASP760  ASP761  ALA762  ILE779  LEU786  VAL792 
 PHE793  MET794  SER795  GLU796  ALA797  LYS798  CYS799  TRP800  GLU811  SER814 

> <Gold.Protein.RotatedAtoms>
  151.6390  133.3327  159.3125 H   0  0  0  0  0  0  0  0  0  0  0  0  # atno 6907 bound_to 6896
  150.8018  134.7120  159.6619 H   0  0  0  0  0  0  0  0  0  0  0  0  # atno 6908 bound_to 6896
  152.4110  134.6128  160.0081 H   0  0  0  0  0  0  0  0  0  0  0  0  # atno 6909 bound_to 6896
  144.7139  140.1643  143.6373 H   0  0  0  0  0  0  0  0  0  0  0  0  # atno 7974 bound_to 7965
  155.6946  140.0759  157.2434 H   0  0  0  0  0  0  0  0  0  0  0  0  # atno 8008 bound_to 7997
  154.4083  140.1658  156.2177 H   0  0  0  0  0  0  0  0  0  0  0  0  # atno 8009 bound_to 7997
  155.9421  140.3383  155.6339 H   0  0  0  0  0  0  0  0  0  0  0  0  # atno 8010 bound_to 7997
  139.6683  144.7126  151.1735 H   0  0  0  0  0  0  0  0  0  0  0  0  # atno 10167 bound_to 10162
  156.0010  130.5017  150.5738 H   0  0  0  0  0  0  0  0  0  0  0  0  # atno 10718 bound_to 10713
  153.1581  135.4576  154.9734 H   0  0  0  0  0  0  0  0  0  0  0  0  # atno 10763 bound_to 10752
  154.7877  135.3209  154.7851 H   0  0  0  0  0  0  0  0  0  0  0  0  # atno 10764 bound_to 10752
  153.8345  135.6935  153.4865 H   0  0  0  0  0  0  0  0  0  0  0  0  # atno 10765 bound_to 10752
  140.5026  134.0731  155.7797 H   0  0  0  0  0  0  0  0  0  0  0  0  # atno 11005 bound_to 11000
  145.9002  139.2426  143.1498 LP  0  0  0  0  0  0  0  0  0  0  0  0  # atno 17320 bound_to 7965
  145.9818  140.8676  143.0110 LP  0  0  0  0  0  0  0  0  0  0  0  0  # atno 17321 bound_to 7965
  140.7608  143.5884  150.8822 LP  0  0  0  0  0  0  0  0  0  0  0  0  # atno 17342 bound_to 10162
  139.9547  143.6232  152.3019 LP  0  0  0  0  0  0  0  0  0  0  0  0  # atno 17343 bound_to 10162
  157.3629  131.0753  151.1621 LP  0  0  0  0  0  0  0  0  0  0  0  0  # atno 17370 bound_to 10713
  157.2400  130.6565  149.5886 LP  0  0  0  0  0  0  0  0  0  0  0  0  # atno 17371 bound_to 10713
  141.1428  133.9109  157.2287 LP  0  0  0  0  0  0  0  0  0  0  0  0  # atno 17394 bound_to 11000
  139.9705  135.0130  156.9498 LP  0  0  0  0  0  0  0  0  0  0  0  0  # atno 17395 bound_to 11000

$$$$
