AV-unprocessed.smi:897|AV-procd|sdf|4080|dock6
  -GOLD-   22720 1563D 1   1.00000     0.00000
 Structure written by MMmdl.
 35 37  0  0  0  0  0  0  0  0  1 V2000
  151.9086  144.6278  158.7969 C   0  0  0  0  0  0  0  0  0  0  0  0
  152.2972  143.1911  159.0758 C   0  0  0  0  0  0  0  0  0  0  0  0
  153.1399  142.8647  160.1544 C   0  0  0  0  0  0  0  0  0  0  0  0
  153.4694  141.5113  160.3700 C   0  0  0  0  0  0  0  0  0  0  0  0
  154.3824  141.1475  161.5314 C   0  0  0  0  0  0  0  0  0  0  0  0
  152.9361  140.5317  159.4921 C   0  0  0  0  0  0  0  0  0  0  0  0
  153.2474  139.1164  159.6837 C   0  0  0  0  0  0  0  0  0  0  0  0
  153.4934  137.9961  159.8359 N   0  0  0  0  0  0  0  0  0  0  0  0
  152.0915  140.9629  158.4318 C   0  0  0  0  0  0  0  0  0  0  0  0
  151.5414  140.0302  157.5328 N   0  0  0  0  0  0  0  0  0  0  0  0
  151.5340  140.2766  156.0938 C   0  0  1  0  0  0  0  0  0  0  0  0
  152.2197  139.1659  155.2947 C   0  0  0  0  0  0  0  0  0  0  0  0
  151.1322  138.7902  154.2783 C   0  0  1  0  0  0  0  0  0  0  0  0
  150.0081  137.9754  154.9308 C   0  0  0  0  0  0  0  0  0  0  0  0
  149.2929  139.0412  155.7587 C   0  0  0  0  0  0  0  0  0  0  0  0
  150.1306  140.2954  155.4549 C   0  0  2  0  0  0  0  0  0  0  0  0
  150.4799  140.0372  154.1053 O   0  0  0  0  0  0  0  0  0  0  0  0
  151.7874  142.2680  158.2364 N   0  0  0  0  0  0  0  0  0  0  0  0
  152.4683  145.3185  159.4282 H   0  0  0  0  0  0  0  0  0  0  0  0
  150.8455  144.7753  158.9881 H   0  0  0  0  0  0  0  0  0  0  0  0
  152.1098  144.8816  157.7556 H   0  0  0  0  0  0  0  0  0  0  0  0
  153.5255  143.6381  160.8028 H   0  0  0  0  0  0  0  0  0  0  0  0
  153.8734  140.4754  162.2231 H   0  0  0  0  0  0  0  0  0  0  0  0
  154.6873  142.0330  162.0898 H   0  0  0  0  0  0  0  0  0  0  0  0
  155.2844  140.6542  161.1683 H   0  0  0  0  0  0  0  0  0  0  0  0
  150.9004  139.3378  157.8927 H   0  0  0  0  0  0  0  0  0  0  0  0
  152.0443  141.2180  155.8843 H   0  0  0  0  0  0  0  0  0  0  0  0
  153.1051  139.5559  154.7915 H   0  0  0  0  0  0  0  0  0  0  0  0
  152.5249  138.3108  155.8997 H   0  0  0  0  0  0  0  0  0  0  0  0
  151.5186  138.3517  153.3579 H   0  0  0  0  0  0  0  0  0  0  0  0
  149.3369  137.5642  154.1757 H   0  0  0  0  0  0  0  0  0  0  0  0
  150.3882  137.1518  155.5361 H   0  0  0  0  0  0  0  0  0  0  0  0
  148.2696  139.1708  155.4051 H   0  0  0  0  0  0  0  0  0  0  0  0
  149.2515  138.7995  156.8210 H   0  0  0  0  0  0  0  0  0  0  0  0
  149.5896  141.2307  155.6006 H   0  0  0  0  0  0  0  0  0  0  0  0
  1  2  1  0  0  0  0
  1 19  1  0  0  0  0
  1 20  1  0  0  0  0
  1 21  1  0  0  0  0
  2 18  1  0  0  0  0
  2  3  2  0  0  0  0
  3  4  1  0  0  0  0
  3 22  1  0  0  0  0
  4  5  1  0  0  0  0
  4  6  2  0  0  0  0
  5 23  1  0  0  0  0
  5 24  1  0  0  0  0
  5 25  1  0  0  0  0
  6  7  1  0  0  0  0
  6  9  1  0  0  0  0
  7  8  3  0  0  0  0
  9 10  1  0  0  0  0
  9 18  2  0  0  0  0
 10 11  1  0  0  0  0
 10 26  1  0  0  0  0
 11 16  1  0  0  0  0
 11 12  1  0  0  0  0
 11 27  1  0  0  0  0
 12 13  1  0  0  0  0
 12 28  1  0  0  0  0
 12 29  1  0  0  0  0
 13 17  1  0  0  0  0
 13 14  1  0  0  0  0
 13 30  1  0  0  0  0
 14 15  1  0  0  0  0
 14 31  1  0  0  0  0
 14 32  1  0  0  0  0
 15 16  1  0  0  0  0
 15 33  1  0  0  0  0
 15 34  1  0  0  0  0
 16 17  1  0  0  0  0
 16 35  1  0  0  0  0
M  END
> <s_m_source_file>
AV-unprocessed.smi

> <i_m_source_file_index>
897

> <i_lp_mmshare_version>
43012

> <i_f3d_flags>
0

> <s_epik_input>
W0NIM11jMVtjSF1jKFtDSDNdKWMoQyNOKWMobjEpW05IXVtDQEhdKFtDSDJdW0NAQEhdMjMpW0NAQEhdKE8zKVtDSDJdW0NIMl0y

> <s_epik_cmdline>
J2VwaWtfcHl0aG9uJywgJy1waCcsICc3LjAnLCAnLXRuJywgJzgnLCAnLW1hJywgJzIwMCcsICctbWV0YWxfYmluZGluZycsICctaW1hZScsICc8aW5maWxlLm1hZT4nLCAnLW9tYWUnLCAnPG91dGZpbGUubWFlPic=

> <r_lp_tautomer_probability>
1

> <r_epik_Ionization_Penalty>
0.000502654

> <r_epik_Ionization_Penalty_Charging>
0

> <r_epik_Ionization_Penalty_Neutral>
0.000502654

> <r_epik_State_Penalty>
-0

> <r_epik_Charging_Adjusted_Penalty>
0

> <i_epik_Tot_Q>
0

> <i_epik_Tot_abs_Q>
0

> <r_epik_Metal_State_Penalty>
-0

> <b_epik_Metal_Only>
0

> <s_lp_Force_Field>
OPLS_2005

> <r_lp_Energy>
43.9226

> <b_lp_Chiralities_Consistent>
1

> <s_lp_Variant>
AV-unprocessed.smi:897-2

> <Gold.Version>
5.8.1

> <Gold.Id.Protein>
6NUR|6NUR_protein|mol2

> <Gold.PLP.Fitness>
41.9900

> <Gold.PLP.PLP>
-39.7271

> <Gold.PLP.part.hbond>
-0.9032

> <Gold.PLP.part.metal>
0.0000

> <Gold.PLP.part.buried>
-4.6955

> <Gold.PLP.part.nonpolar>
-34.5336

> <Gold.PLP.part.repulsive>
0.7103

> <Gold.PLP.ligand.clash>
0.0000

> <Gold.PLP.ligand.torsion>
0.3736

> <Gold.PLP.Chemscore.Hbond>
1.0000

> <Gold.PLP.Chemscore.CHOScore>
0.0000

> <Gold.PLP.Chemscore.Metal>
0.0000

> <Gold.Chemscore.Hbonds>
donor molecule, donor type, donor heavy atom, donor atom, acceptor molecule, acceptor atom, score
      P1  H  7989  7998       L1    17  1.00

> <Gold.PLP.Chemscore.Internal.Correction>
0.0101

> <Gold.Rescore>
     Score         DG    S(hbond)    S(metal)    S(lipo)     H(rot)  DE(clash)    DE(int)     intcor
     17.14     -17.52       0.87        0.00      99.78       1.00       0.01       0.37       ----

> <Gold.Chemscore.Fitness>
17.1375

> <Gold.Chemscore.DG>
-17.5166

> <Gold.Chemscore.ZeroCoef>
-5.4800

> <Gold.Chemscore.Hbond>
0.8750

> <Gold.Chemscore.Metal>
0.0000

> <Gold.Chemscore.Lipo>
99.7791

> <Gold.Chemscore.Internal_Hbond>
0.0000

> <Gold.Chemscore.DEClash>
0.0075

> <Gold.Chemscore.DEInternal>
0.3716

> <Gold.Chemscore.Rot>
1.0000

> <Gold.Chemscore.Internal.Correction>
   9.000000E+99

> <Gold.Chemscore.Hbonds>
donor molecule, donor type, donor heavy atom, donor atom, acceptor molecule, acceptor atom, score
      P1  H  7989  7998       L1    17  0.27

> <Gold.Chemscore.Hbond.Weighted>
-2.9224

> <Gold.Chemscore.Metal.Weighted>
-0.0000

> <Gold.Chemscore.Lipo.Weighted>
-11.6742

> <Gold.Chemscore.Internal_Hbond.Weighted>
0.0000

> <Gold.Chemscore.DEClash.Weighted>
0.0075

> <Gold.Chemscore.DEInternal.Weighted>
0.3716

> <Gold.Chemscore.Rot.Weighted>
2.5600

> <Gold.Chemscore.Internal.Correction.Weighted>
   9.000000E+99

> <Gold.Protein.RotatedTorsions>
[ 6907 6896 6895 6894 ] final  -29.50 input  -60.11 | X-H torsion
[ 7974 7965 7964 7962 ] final -135.97 input  175.53 | X-H torsion
[ 8008 7997 7996 7995 ] final  143.65 input   59.86 | X-H torsion
[ 10167 10162 10161 10158 ] final  -30.32 input  -65.29 | X-H torsion
[ 10718 10713 10712 10709 ] final    7.33 input   66.30 | X-H torsion
[ 10763 10752 10751 10750 ] final  -27.68 input  -60.55 | X-H torsion
[ 11005 11000 10999 10996 ] final   91.98 input  -57.11 | X-H torsion

> <Gold.Protein.ActiveResidues>
 VAL166  LYS551  ARG553  GLY616  TRP617  ASP618  TYR619  PRO620  LYS621  CYS622 
 ASP623  PHE694  ASN695  SER759  ASP760  ASP761  ALA762  ILE779  LEU786  VAL792 
 PHE793  MET794  SER795  GLU796  ALA797  LYS798  CYS799  TRP800  GLU811  SER814 

> <Gold.Protein.RotatedAtoms>
  151.1184  135.0065  159.8526 H   0  0  0  0  0  0  0  0  0  0  0  0  # atno 6907 bound_to 6896
  152.5446  134.1752  159.8623 H   0  0  0  0  0  0  0  0  0  0  0  0  # atno 6908 bound_to 6896
  151.1808  133.4681  159.2627 H   0  0  0  0  0  0  0  0  0  0  0  0  # atno 6909 bound_to 6896
  144.8967  140.6716  143.5111 H   0  0  0  0  0  0  0  0  0  0  0  0  # atno 7974 bound_to 7965
  156.2925  140.2257  156.4925 H   0  0  0  0  0  0  0  0  0  0  0  0  # atno 8008 bound_to 7997
  154.7759  140.0463  157.1110 H   0  0  0  0  0  0  0  0  0  0  0  0  # atno 8009 bound_to 7997
  154.9817  140.3079  155.4947 H   0  0  0  0  0  0  0  0  0  0  0  0  # atno 8010 bound_to 7997
  140.7251  143.3858  151.1517 H   0  0  0  0  0  0  0  0  0  0  0  0  # atno 10167 bound_to 10162
  156.9353  130.5841  149.5650 H   0  0  0  0  0  0  0  0  0  0  0  0  # atno 10718 bound_to 10713
  153.7361  135.6935  153.4978 H   0  0  0  0  0  0  0  0  0  0  0  0  # atno 10763 bound_to 10752
  153.2102  135.4405  155.0369 H   0  0  0  0  0  0  0  0  0  0  0  0  # atno 10764 bound_to 10752
  154.8236  135.3435  154.6889 H   0  0  0  0  0  0  0  0  0  0  0  0  # atno 10765 bound_to 10752
  139.8830  134.8706  156.3506 H   0  0  0  0  0  0  0  0  0  0  0  0  # atno 11005 bound_to 11000
  145.3687  139.1664  143.4343 LP  0  0  0  0  0  0  0  0  0  0  0  0  # atno 17320 bound_to 7965
  146.3085  140.3757  142.8679 LP  0  0  0  0  0  0  0  0  0  0  0  0  # atno 17321 bound_to 7965
  139.7455  143.8858  152.3062 LP  0  0  0  0  0  0  0  0  0  0  0  0  # atno 17342 bound_to 10162
  139.8694  144.7076  150.9005 LP  0  0  0  0  0  0  0  0  0  0  0  0  # atno 17343 bound_to 10162
  156.0429  130.5509  150.8812 LP  0  0  0  0  0  0  0  0  0  0  0  0  # atno 17370 bound_to 10713
  157.5820  131.0946  150.9255 LP  0  0  0  0  0  0  0  0  0  0  0  0  # atno 17371 bound_to 10713
  140.9597  133.7397  156.0384 LP  0  0  0  0  0  0  0  0  0  0  0  0  # atno 17394 bound_to 11000
  140.8005  134.3514  157.5440 LP  0  0  0  0  0  0  0  0  0  0  0  0  # atno 17395 bound_to 11000

$$$$
