AV-unprocessed.smi:2297|AV-procd|sdf|9222|dock1
  -GOLD-   2272012443D 1   1.00000     0.00000
 Structure written by MMmdl.
 44 45  0  0  0  0  0  0  0  0  1 V2000
  151.1620  145.3880  159.5813 C   0  0  0  0  0  0  0  0  0  0  0  0
  151.8215  144.0520  159.8551 C   0  0  0  0  0  0  0  0  0  0  0  0
  152.4659  143.8147  161.0857 C   0  0  0  0  0  0  0  0  0  0  0  0
  153.0779  142.5707  161.3337 C   0  0  0  0  0  0  0  0  0  0  0  0
  153.7702  142.3231  162.6582 C   0  0  0  0  0  0  0  0  0  0  0  0
  153.0424  141.5646  160.3469 C   0  0  0  0  0  0  0  0  0  0  0  0
  152.4022  141.7857  159.1106 C   0  0  0  0  0  0  0  0  0  0  0  0
  152.4166  140.7461  158.2059 O   0  0  0  0  0  0  0  0  0  0  0  0
  151.5687  140.8309  157.0664 C   0  0  0  0  0  0  0  0  0  0  0  0
  151.4935  139.4662  156.3608 C   0  0  2  0  0  0  0  0  0  0  0  0
  152.8165  139.0284  156.1236 O   0  0  0  0  0  0  0  0  0  0  0  0
  150.6941  139.5118  155.0390 C   0  0  0  0  0  0  0  0  0  0  0  0
  149.2529  139.7090  155.2664 N   0  0  0  0  0  0  0  0  0  0  0  0
  148.6268  138.7911  156.1252 C   0  0  0  0  0  0  0  0  0  0  0  0
  147.3655  138.8685  156.3988 N   0  0  0  0  0  0  0  0  0  0  0  0
  146.5898  139.8835  155.8310 C   0  0  0  0  0  0  0  0  0  0  0  0
  145.1198  139.8765  156.2108 C   0  0  0  0  0  0  0  0  0  0  0  0
  147.1367  140.8065  154.9934 C   0  0  0  0  0  0  0  0  0  0  0  0
  146.3409  141.9296  154.3398 C   0  0  0  0  0  0  0  0  0  0  0  0
  148.5732  140.7372  154.6812 C   0  0  0  0  0  0  0  0  0  0  0  0
  149.1371  141.5491  153.9449 O   0  0  0  0  0  0  0  0  0  0  0  0
  151.7909  143.0424  158.8719 C   0  0  0  0  0  0  0  0  0  0  0  0
  151.1744  146.0275  160.4645 H   0  0  0  0  0  0  0  0  0  0  0  0
  150.1236  145.2436  159.2818 H   0  0  0  0  0  0  0  0  0  0  0  0
  151.6829  145.9071  158.7766 H   0  0  0  0  0  0  0  0  0  0  0  0
  152.4925  144.5859  161.8419 H   0  0  0  0  0  0  0  0  0  0  0  0
  154.1816  141.3147  162.7108 H   0  0  0  0  0  0  0  0  0  0  0  0
  153.0668  142.4471  163.4818 H   0  0  0  0  0  0  0  0  0  0  0  0
  154.5874  143.0317  162.7948 H   0  0  0  0  0  0  0  0  0  0  0  0
  153.5105  140.6093  160.5353 H   0  0  0  0  0  0  0  0  0  0  0  0
  150.5695  141.1730  157.3426 H   0  0  0  0  0  0  0  0  0  0  0  0
  151.9861  141.5586  156.3687 H   0  0  0  0  0  0  0  0  0  0  0  0
  151.0393  138.7598  157.0566 H   0  0  0  0  0  0  0  0  0  0  0  0
  152.8212  138.4895  155.3475 H   0  0  0  0  0  0  0  0  0  0  0  0
  151.0593  140.3375  154.4253 H   0  0  0  0  0  0  0  0  0  0  0  0
  150.8983  138.6232  154.4375 H   0  0  0  0  0  0  0  0  0  0  0  0
  149.2758  138.0191  156.5424 H   0  0  0  0  0  0  0  0  0  0  0  0
  144.4983  139.7363  155.3261 H   0  0  0  0  0  0  0  0  0  0  0  0
  144.8433  140.8178  156.6863 H   0  0  0  0  0  0  0  0  0  0  0  0
  144.8933  139.0709  156.9102 H   0  0  0  0  0  0  0  0  0  0  0  0
  146.7552  142.8985  154.6209 H   0  0  0  0  0  0  0  0  0  0  0  0
  145.2887  141.9300  154.6191 H   0  0  0  0  0  0  0  0  0  0  0  0
  146.3917  141.8424  153.2539 H   0  0  0  0  0  0  0  0  0  0  0  0
  151.2909  143.2556  157.9393 H   0  0  0  0  0  0  0  0  0  0  0  0
  1  2  1  0  0  0  0
  1 23  1  0  0  0  0
  1 24  1  0  0  0  0
  1 25  1  0  0  0  0
  2 22  1  0  0  0  0
  2  3  2  0  0  0  0
  3  4  1  0  0  0  0
  3 26  1  0  0  0  0
  4  5  1  0  0  0  0
  4  6  2  0  0  0  0
  5 27  1  0  0  0  0
  5 28  1  0  0  0  0
  5 29  1  0  0  0  0
  6  7  1  0  0  0  0
  6 30  1  0  0  0  0
  7  8  1  0  0  0  0
  7 22  2  0  0  0  0
  8  9  1  0  0  0  0
  9 10  1  0  0  0  0
  9 31  1  0  0  0  0
  9 32  1  0  0  0  0
 10 11  1  0  0  0  0
 10 12  1  0  0  0  0
 10 33  1  0  0  0  0
 11 34  1  0  0  0  0
 12 13  1  0  0  0  0
 12 35  1  0  0  0  0
 12 36  1  0  0  0  0
 13 20  1  0  0  0  0
 13 14  1  0  0  0  0
 14 15  2  0  0  0  0
 14 37  1  0  0  0  0
 15 16  1  0  0  0  0
 16 17  1  0  0  0  0
 16 18  2  0  0  0  0
 17 38  1  0  0  0  0
 17 39  1  0  0  0  0
 17 40  1  0  0  0  0
 18 19  1  0  0  0  0
 18 20  1  0  0  0  0
 19 41  1  0  0  0  0
 19 42  1  0  0  0  0
 19 43  1  0  0  0  0
 20 21  2  0  0  0  0
 22 44  1  0  0  0  0
M  END
> <s_m_source_file>
AV-unprocessed.smi

> <i_m_source_file_index>
2297

> <i_lp_mmshare_version>
43012

> <i_f3d_flags>
0

> <s_epik_input>
W0NIM11jMVtjSF1jKFtDSDNdKVtjSF1jKFtjSF0xKU9bQ0gyXVtDQEhdKFtPSF0pW0NIMl1uMltjSF1uYyhbQ0gzXSljKFtDSDNdKWMyPU8=

> <s_epik_cmdline>
J2VwaWtfcHl0aG9uJywgJy1waCcsICc3LjAnLCAnLXRuJywgJzgnLCAnLW1hJywgJzIwMCcsICctbWV0YWxfYmluZGluZycsICctaW1hZScsICc8aW5maWxlLm1hZT4nLCAnLW9tYWUnLCAnPG91dGZpbGUubWFlPic=

> <r_lp_tautomer_probability>
1

> <r_epik_Ionization_Penalty>
3.72236e-05

> <r_epik_Ionization_Penalty_Charging>
8.38864e-08

> <r_epik_Ionization_Penalty_Neutral>
3.71397e-05

> <r_epik_State_Penalty>
-0

> <r_epik_Charging_Adjusted_Penalty>
8.38864e-08

> <i_epik_Tot_Q>
0

> <i_epik_Tot_abs_Q>
0

> <r_epik_Metal_State_Penalty>
-0

> <b_epik_Metal_Only>
0

> <s_lp_Force_Field>
OPLS_2005

> <r_lp_Energy>
24.6499

> <b_lp_Chiralities_Consistent>
1

> <s_lp_Variant>
AV-unprocessed.smi:2297-1

> <Gold.Version>
5.8.1

> <Gold.Id.Protein>
6NUR|6NUR_protein|mol2

> <Gold.PLP.Fitness>
51.4422

> <Gold.PLP.PLP>
-46.8533

> <Gold.PLP.part.hbond>
-2.8454

> <Gold.PLP.part.metal>
0.0000

> <Gold.PLP.part.buried>
-2.9070

> <Gold.PLP.part.nonpolar>
-39.3165

> <Gold.PLP.part.repulsive>
0.2849

> <Gold.PLP.ligand.clash>
0.0000

> <Gold.PLP.ligand.torsion>
0.2730

> <Gold.PLP.Chemscore.Hbond>
1.6400

> <Gold.PLP.Chemscore.CHOScore>
0.0000

> <Gold.PLP.Chemscore.Metal>
0.0000

> <Gold.Chemscore.Hbonds>
donor molecule, donor type, donor heavy atom, donor atom, acceptor molecule, acceptor atom, score
      P1  H  7997  8008       L1    11  1.00
      P1  H  8011  8017       L1    21  0.67

> <Gold.PLP.Chemscore.Internal.Correction>
0.2149

> <Gold.Rescore>
     Score         DG    S(hbond)    S(metal)    S(lipo)     H(rot)  DE(clash)    DE(int)     intcor
     18.99     -19.53       1.77        0.00     120.45       2.32       0.27       0.26       ----

> <Gold.Chemscore.Fitness>
18.9927

> <Gold.Chemscore.DG>
-19.5286

> <Gold.Chemscore.ZeroCoef>
-5.4800

> <Gold.Chemscore.Hbond>
1.7679

> <Gold.Chemscore.Metal>
0.0000

> <Gold.Chemscore.Lipo>
120.4479

> <Gold.Chemscore.Internal_Hbond>
0.0000

> <Gold.Chemscore.DEClash>
0.2743

> <Gold.Chemscore.DEInternal>
0.2616

> <Gold.Chemscore.Rot>
2.3236

> <Gold.Chemscore.Internal.Correction>
   9.000000E+99

> <Gold.Chemscore.Hbonds>
donor molecule, donor type, donor heavy atom, donor atom, acceptor molecule, acceptor atom, score
      P1  H  7997  8008       L1    11  0.90
      P1  H  8011  8017       L1    21  0.67

> <Gold.Chemscore.Hbond.Weighted>
-5.9046

> <Gold.Chemscore.Metal.Weighted>
-0.0000

> <Gold.Chemscore.Lipo.Weighted>
-14.0924

> <Gold.Chemscore.Internal_Hbond.Weighted>
0.0000

> <Gold.Chemscore.DEClash.Weighted>
0.2743

> <Gold.Chemscore.DEInternal.Weighted>
0.2616

> <Gold.Chemscore.Rot.Weighted>
5.9484

> <Gold.Chemscore.Internal.Correction.Weighted>
   9.000000E+99

> <Gold.Protein.RotatedTorsions>
[ 6907 6896 6895 6894 ] final  167.69 input  -60.11 | X-H torsion
[ 7974 7965 7964 7962 ] final  156.48 input  175.53 | X-H torsion
[ 8008 7997 7996 7995 ] final  -45.35 input   59.86 | X-H torsion
[ 10167 10162 10161 10158 ] final  146.17 input  -65.29 | X-H torsion
[ 10718 10713 10712 10709 ] final  -74.87 input   66.30 | X-H torsion
[ 10763 10752 10751 10750 ] final   98.12 input  -60.55 | X-H torsion
[ 11005 11000 10999 10996 ] final  -17.32 input  -57.11 | X-H torsion

> <Gold.Protein.ActiveResidues>
 VAL166  LYS551  ARG553  GLY616  TRP617  ASP618  TYR619  PRO620  LYS621  CYS622 
 ASP623  PHE694  ASN695  SER759  ASP760  ASP761  ALA762  ILE779  LEU786  VAL792 
 PHE793  MET794  SER795  GLU796  ALA797  LYS798  CYS799  TRP800  GLU811  SER814 

> <Gold.Protein.RotatedAtoms>
  151.8594  133.3454  159.3698 H   0  0  0  0  0  0  0  0  0  0  0  0  # atno 6907 bound_to 6896
  150.7183  134.5221  159.5668 H   0  0  0  0  0  0  0  0  0  0  0  0  # atno 6908 bound_to 6896
  152.2731  134.7911  160.0461 H   0  0  0  0  0  0  0  0  0  0  0  0  # atno 6909 bound_to 6896
  144.7960  139.7210  143.6201 H   0  0  0  0  0  0  0  0  0  0  0  0  # atno 7974 bound_to 7965
  154.4000  140.1399  156.3832 H   0  0  0  0  0  0  0  0  0  0  0  0  # atno 8008 bound_to 7997
  155.7984  140.3476  155.5368 H   0  0  0  0  0  0  0  0  0  0  0  0  # atno 8009 bound_to 7997
  155.8509  140.0941  157.1666 H   0  0  0  0  0  0  0  0  0  0  0  0  # atno 8010 bound_to 7997
  139.4912  144.5849  151.6798 H   0  0  0  0  0  0  0  0  0  0  0  0  # atno 10167 bound_to 10162
  156.0227  130.4427  150.2958 H   0  0  0  0  0  0  0  0  0  0  0  0  # atno 10718 bound_to 10713
  153.2851  135.4159  155.1115 H   0  0  0  0  0  0  0  0  0  0  0  0  # atno 10763 bound_to 10752
  154.8502  135.3505  154.6058 H   0  0  0  0  0  0  0  0  0  0  0  0  # atno 10764 bound_to 10752
  153.6479  135.7054  153.5277 H   0  0  0  0  0  0  0  0  0  0  0  0  # atno 10765 bound_to 10752
  140.8157  133.8107  155.9608 H   0  0  0  0  0  0  0  0  0  0  0  0  # atno 11005 bound_to 11000
  146.2228  139.5668  142.9607 LP  0  0  0  0  0  0  0  0  0  0  0  0  # atno 17320 bound_to 7965
  145.5672  141.0398  143.2194 LP  0  0  0  0  0  0  0  0  0  0  0  0  # atno 17321 bound_to 7965
  140.5463  144.0498  150.6108 LP  0  0  0  0  0  0  0  0  0  0  0  0  # atno 17342 bound_to 10162
  140.3537  143.2948  152.0459 LP  0  0  0  0  0  0  0  0  0  0  0  0  # atno 17343 bound_to 10162
  157.1061  131.0209  151.3066 LP  0  0  0  0  0  0  0  0  0  0  0  0  # atno 17370 bound_to 10713
  157.4742  130.7726  149.7352 LP  0  0  0  0  0  0  0  0  0  0  0  0  # atno 17371 bound_to 10713
  140.9152  134.2211  157.4961 LP  0  0  0  0  0  0  0  0  0  0  0  0  # atno 17394 bound_to 11000
  139.8711  134.9768  156.4934 LP  0  0  0  0  0  0  0  0  0  0  0  0  # atno 17395 bound_to 11000

$$$$
