AV-unprocessed.smi:2768|AV-procd|sdf|10649|dock6
  -GOLD-   2272015103D 1   1.00000     0.00000
 Structure written by MMmdl.
 35 36  0  0  0  0  0  0  0  0  1 V2000
  149.8403  140.0654  158.1235 O   0  0  0  0  0  0  0  0  0  0  0  0
  150.7755  140.4572  157.4242 C   0  0  0  0  0  0  0  0  0  0  0  0
  151.5580  141.4955  157.7620 N   0  0  0  0  0  0  0  0  0  0  0  0
  151.3890  142.3350  158.9455 C   0  0  1  0  0  0  0  0  0  0  0  0
  152.6455  142.2695  159.8352 C   0  0  0  0  0  0  0  0  0  0  0  0
  152.4891  143.1523  161.0839 C   0  0  0  0  0  0  0  0  0  0  0  0
  152.1631  144.6051  160.7039 C   0  0  0  0  0  0  0  0  0  0  0  0
  150.9146  144.6865  159.8066 C   0  0  0  0  0  0  0  0  0  0  0  0
  151.0351  143.7920  158.5576 C   0  0  1  0  0  0  0  0  0  0  0  0
  152.0147  144.3364  157.6917 O   0  0  0  0  0  0  0  0  0  0  0  0
  151.0804  139.7762  156.0821 C   0  0  0  0  0  0  0  0  0  0  0  0
  152.1847  140.3208  155.5655 F   0  0  0  0  0  0  0  0  0  0  0  0
  151.3218  138.4795  156.2896 F   0  0  0  0  0  0  0  0  0  0  0  0
  149.8983  139.9409  155.1300 C   0  0  0  0  0  0  0  0  0  0  0  0
  149.3767  141.2196  154.8267 C   0  0  0  0  0  0  0  0  0  0  0  0
  148.2734  141.3098  153.9564 C   0  0  0  0  0  0  0  0  0  0  0  0
  147.7301  140.1257  153.4233 C   0  0  0  0  0  0  0  0  0  0  0  0
  148.3166  138.8979  153.7865 C   0  0  0  0  0  0  0  0  0  0  0  0
  149.3737  138.8007  154.6206 N   0  0  0  0  0  0  0  0  0  0  0  0
  150.5609  141.9315  159.5318 H   0  0  0  0  0  0  0  0  0  0  0  0
  150.0858  143.8085  158.0209 H   0  0  0  0  0  0  0  0  0  0  0  0
  152.3067  141.7462  157.1325 H   0  0  0  0  0  0  0  0  0  0  0  0
  152.8343  141.2391  160.1387 H   0  0  0  0  0  0  0  0  0  0  0  0
  153.5222  142.5899  159.2704 H   0  0  0  0  0  0  0  0  0  0  0  0
  151.6949  142.7532  161.7163 H   0  0  0  0  0  0  0  0  0  0  0  0
  153.4026  143.1200  161.6786 H   0  0  0  0  0  0  0  0  0  0  0  0
  152.0096  145.1981  161.6059 H   0  0  0  0  0  0  0  0  0  0  0  0
  153.0166  145.0471  160.1885 H   0  0  0  0  0  0  0  0  0  0  0  0
  150.0429  144.3755  160.3836 H   0  0  0  0  0  0  0  0  0  0  0  0
  150.7303  145.7208  159.5138 H   0  0  0  0  0  0  0  0  0  0  0  0
  151.6452  145.0923  157.2615 H   0  0  0  0  0  0  0  0  0  0  0  0
  149.8053  142.1152  155.2518 H   0  0  0  0  0  0  0  0  0  0  0  0
  147.8501  142.2705  153.7036 H   0  0  0  0  0  0  0  0  0  0  0  0
  146.8840  140.1572  152.7528 H   0  0  0  0  0  0  0  0  0  0  0  0
  147.9259  137.9690  153.3979 H   0  0  0  0  0  0  0  0  0  0  0  0
  1  2  2  0  0  0  0
  2  3  1  0  0  0  0
  2 11  1  0  0  0  0
  3  4  1  0  0  0  0
  3 22  1  0  0  0  0
  4 20  1  0  0  0  0
  4  9  1  0  0  0  0
  4  5  1  0  0  0  0
  5  6  1  0  0  0  0
  5 23  1  0  0  0  0
  5 24  1  0  0  0  0
  6  7  1  0  0  0  0
  6 25  1  0  0  0  0
  6 26  1  0  0  0  0
  7  8  1  0  0  0  0
  7 27  1  0  0  0  0
  7 28  1  0  0  0  0
  8  9  1  0  0  0  0
  8 29  1  0  0  0  0
  8 30  1  0  0  0  0
  9 21  1  0  0  0  0
  9 10  1  0  0  0  0
 10 31  1  0  0  0  0
 11 12  1  0  0  0  0
 11 13  1  0  0  0  0
 11 14  1  0  0  0  0
 14 19  1  0  0  0  0
 14 15  2  0  0  0  0
 15 16  1  0  0  0  0
 15 32  1  0  0  0  0
 16 17  2  0  0  0  0
 16 33  1  0  0  0  0
 17 18  1  0  0  0  0
 17 34  1  0  0  0  0
 18 19  2  0  0  0  0
 18 35  1  0  0  0  0
M  END
> <s_m_source_file>
AV-unprocessed.smi

> <i_m_source_file_index>
2768

> <i_lp_mmshare_version>
43012

> <i_f3d_flags>
0

> <s_epik_input>
bjFbY0hdW2NIXVtjSF1bY0hdYzFDKEYpKEYpQyg9TylbTkhdW0NAQEhdMltDSDJdW0NIMl1bQ0gyXVtDSDJdW0NASF0yW09IXQ==

> <s_epik_cmdline>
J2VwaWtfcHl0aG9uJywgJy1waCcsICc3LjAnLCAnLXRuJywgJzgnLCAnLW1hJywgJzIwMCcsICctbWV0YWxfYmluZGluZycsICctaW1hZScsICc8aW5maWxlLm1hZT4nLCAnLW9tYWUnLCAnPG91dGZpbGUubWFlPic=

> <r_lp_tautomer_probability>
1

> <r_epik_Ionization_Penalty>
4.19456e-05

> <r_epik_Ionization_Penalty_Charging>
0

> <r_epik_Ionization_Penalty_Neutral>
4.19456e-05

> <r_epik_State_Penalty>
-0

> <r_epik_Charging_Adjusted_Penalty>
0

> <i_epik_Tot_Q>
0

> <i_epik_Tot_abs_Q>
0

> <r_epik_Metal_State_Penalty>
0.0354684

> <b_epik_Metal_Only>
0

> <s_lp_Force_Field>
OPLS_2005

> <r_lp_Energy>
19.7139

> <b_lp_Chiralities_Consistent>
1

> <s_lp_Variant>
AV-unprocessed.smi:2768-2

> <Gold.Version>
5.8.1

> <Gold.Id.Protein>
6NUR|6NUR_protein|mol2

> <Gold.PLP.Fitness>
37.6716

> <Gold.PLP.PLP>
-34.8917

> <Gold.PLP.part.hbond>
0.0000

> <Gold.PLP.part.metal>
0.0000

> <Gold.PLP.part.buried>
-1.1222

> <Gold.PLP.part.nonpolar>
-33.1367

> <Gold.PLP.part.repulsive>
0.2177

> <Gold.PLP.ligand.clash>
0.0000

> <Gold.PLP.ligand.torsion>
0.1203

> <Gold.PLP.Chemscore.Hbond>
0.0000

> <Gold.PLP.Chemscore.CHOScore>
0.9985

> <Gold.PLP.Chemscore.Metal>
0.0000

> <Gold.Chemscore.Hbonds>
donor molecule, donor type, donor heavy atom, donor atom, acceptor molecule, acceptor atom, score
      L1  C    18    35       P1  7948  1.00

> <Gold.PLP.Chemscore.Internal.Correction>
0.0251

> <Gold.Rescore>
     Score         DG    S(hbond)    S(metal)    S(lipo)     H(rot)  DE(clash)    DE(int)     intcor
     11.93     -12.32       0.00        0.00     102.16       2.00       0.35       0.04       ----

> <Gold.Chemscore.Fitness>
11.9256

> <Gold.Chemscore.DG>
-12.3205

> <Gold.Chemscore.ZeroCoef>
-5.4800

> <Gold.Chemscore.Hbond>
0.0000

> <Gold.Chemscore.Metal>
0.0000

> <Gold.Chemscore.Lipo>
102.1598

> <Gold.Chemscore.Internal_Hbond>
0.0000

> <Gold.Chemscore.DEClash>
0.3505

> <Gold.Chemscore.DEInternal>
0.0444

> <Gold.Chemscore.Rot>
1.9969

> <Gold.Chemscore.Internal.Correction>
   9.000000E+99

> <Gold.Chemscore.Hbond.Weighted>
-0.0000

> <Gold.Chemscore.Metal.Weighted>
-0.0000

> <Gold.Chemscore.Lipo.Weighted>
-11.9527

> <Gold.Chemscore.Internal_Hbond.Weighted>
0.0000

> <Gold.Chemscore.DEClash.Weighted>
0.3505

> <Gold.Chemscore.DEInternal.Weighted>
0.0444

> <Gold.Chemscore.Rot.Weighted>
5.1122

> <Gold.Chemscore.Internal.Correction.Weighted>
   9.000000E+99

> <Gold.Protein.RotatedTorsions>
[ 6907 6896 6895 6894 ] final   73.47 input  -60.11 | X-H torsion
[ 7974 7965 7964 7962 ] final    3.80 input  175.53 | X-H torsion
[ 8008 7997 7996 7995 ] final  162.98 input   59.86 | X-H torsion
[ 10167 10162 10161 10158 ] final   34.82 input  -65.29 | X-H torsion
[ 10718 10713 10712 10709 ] final  -19.07 input   66.30 | X-H torsion
[ 10763 10752 10751 10750 ] final  128.67 input  -60.55 | X-H torsion
[ 11005 11000 10999 10996 ] final  131.48 input  -57.11 | X-H torsion

> <Gold.Protein.ActiveResidues>
 VAL166  LYS551  ARG553  GLY616  TRP617  ASP618  TYR619  PRO620  LYS621  CYS622 
 ASP623  PHE694  ASN695  SER759  ASP760  ASP761  ALA762  ILE779  LEU786  VAL792 
 PHE793  MET794  SER795  GLU796  ALA797  LYS798  CYS799  TRP800  GLU811  SER814 

> <Gold.Protein.RotatedAtoms>
  152.4925  134.4417  159.9545 H   0  0  0  0  0  0  0  0  0  0  0  0  # atno 6907 bound_to 6896
  151.4402  133.3639  159.2788 H   0  0  0  0  0  0  0  0  0  0  0  0  # atno 6908 bound_to 6896
  150.9093  134.8533  159.7474 H   0  0  0  0  0  0  0  0  0  0  0  0  # atno 6909 bound_to 6896
  146.2445  140.0630  142.8367 H   0  0  0  0  0  0  0  0  0  0  0  0  # atno 7974 bound_to 7965
  156.1991  140.1736  156.7937 H   0  0  0  0  0  0  0  0  0  0  0  0  # atno 8008 bound_to 7997
  154.5568  140.0707  156.8787 H   0  0  0  0  0  0  0  0  0  0  0  0  # atno 8009 bound_to 7997
  155.2923  140.3356  155.4254 H   0  0  0  0  0  0  0  0  0  0  0  0  # atno 8010 bound_to 7997
  140.4279  144.1366  150.6155 H   0  0  0  0  0  0  0  0  0  0  0  0  # atno 10167 bound_to 10162
  156.5508  130.4701  149.6453 H   0  0  0  0  0  0  0  0  0  0  0  0  # atno 10718 bound_to 10713
  153.7292  135.3241  155.3282 H   0  0  0  0  0  0  0  0  0  0  0  0  # atno 10763 bound_to 10752
  154.8331  135.4518  154.1138 H   0  0  0  0  0  0  0  0  0  0  0  0  # atno 10764 bound_to 10752
  153.2281  135.6956  153.8002 H   0  0  0  0  0  0  0  0  0  0  0  0  # atno 10765 bound_to 10752
  139.9733  134.9571  156.9445 H   0  0  0  0  0  0  0  0  0  0  0  0  # atno 11005 bound_to 11000
  145.0883  140.9267  143.4784 LP  0  0  0  0  0  0  0  0  0  0  0  0  # atno 17320 bound_to 7965
  145.0798  139.2968  143.5789 LP  0  0  0  0  0  0  0  0  0  0  0  0  # atno 17321 bound_to 7965
  140.4460  143.2506  151.9411 LP  0  0  0  0  0  0  0  0  0  0  0  0  # atno 17342 bound_to 10162
  139.4784  144.5608  151.8241 LP  0  0  0  0  0  0  0  0  0  0  0  0  # atno 17343 bound_to 10162
  156.2886  130.7111  151.1954 LP  0  0  0  0  0  0  0  0  0  0  0  0  # atno 17370 bound_to 10713
  157.7388  131.0537  150.5273 LP  0  0  0  0  0  0  0  0  0  0  0  0  # atno 17371 bound_to 10713
  140.5247  134.0872  155.7301 LP  0  0  0  0  0  0  0  0  0  0  0  0  # atno 17394 bound_to 11000
  141.1411  133.9136  157.2322 LP  0  0  0  0  0  0  0  0  0  0  0  0  # atno 17395 bound_to 11000

$$$$
