AV-unprocessed.smi:413|AV-procd|sdf|2513|dock7
  -GOLD-   2262022463D 1   1.00000     0.00000
 Structure written by MMmdl.
 40 42  0  0  0  0  0  0  0  0  1 V2000
  153.3839  143.2178  162.3256 C   0  0  0  0  0  0  0  0  0  0  0  0
  153.2723  142.1816  161.3063 N   0  0  0  0  0  0  0  0  0  0  0  0
  153.8734  140.9685  161.3074 C   0  0  0  0  0  0  0  0  0  0  0  0
  154.6257  140.5335  162.1790 O   0  0  0  0  0  0  0  0  0  0  0  0
  153.5062  140.3186  160.1777 N   0  0  0  0  0  0  0  0  0  0  0  0
  153.9401  138.9871  159.7608 C   0  0  0  0  0  0  0  0  0  0  0  0
  153.3741  137.8886  160.6833 C   0  0  1  0  0  0  0  0  0  0  0  0
  153.3767  136.6383  160.0250 O   0  0  0  0  0  0  0  0  0  0  0  0
  154.1663  137.7339  161.9920 C   0  0  0  0  0  0  0  0  0  0  0  0
  155.1552  136.7224  161.8410 O   0  0  0  0  0  0  0  0  0  0  0  0
  155.0834  135.6097  162.6507 C   0  0  0  0  0  0  0  0  0  0  0  0
  154.5019  135.7830  163.9238 C   0  0  0  0  0  0  0  0  0  0  0  0
  154.3848  134.7003  164.8165 C   0  0  0  0  0  0  0  0  0  0  0  0
  154.8514  133.4269  164.4422 C   0  0  0  0  0  0  0  0  0  0  0  0
  154.7395  132.3843  165.2986 F   0  0  0  0  0  0  0  0  0  0  0  0
  155.4346  133.2395  163.1753 C   0  0  0  0  0  0  0  0  0  0  0  0
  155.5519  134.3228  162.2825 C   0  0  0  0  0  0  0  0  0  0  0  0
  152.6584  141.1452  159.4267 C   0  0  0  0  0  0  0  0  0  0  0  0
  152.0266  140.9428  158.1872 C   0  0  0  0  0  0  0  0  0  0  0  0
  151.2240  141.9971  157.6913 C   0  0  0  0  0  0  0  0  0  0  0  0
  151.0733  143.2032  158.4244 C   0  0  0  0  0  0  0  0  0  0  0  0
  151.7220  143.3809  159.6691 C   0  0  0  0  0  0  0  0  0  0  0  0
  152.5119  142.3171  160.1380 C   0  0  0  0  0  0  0  0  0  0  0  0
  153.9105  142.8638  163.2128 H   0  0  0  0  0  0  0  0  0  0  0  0
  152.3934  143.5514  162.6362 H   0  0  0  0  0  0  0  0  0  0  0  0
  153.9257  144.0771  161.9301 H   0  0  0  0  0  0  0  0  0  0  0  0
  153.6758  138.7982  158.7188 H   0  0  0  0  0  0  0  0  0  0  0  0
  155.0300  138.9702  159.7957 H   0  0  0  0  0  0  0  0  0  0  0  0
  152.3399  138.1175  160.9440 H   0  0  0  0  0  0  0  0  0  0  0  0
  153.3448  136.7912  159.0926 H   0  0  0  0  0  0  0  0  0  0  0  0
  154.6586  138.6820  162.2143 H   0  0  0  0  0  0  0  0  0  0  0  0
  153.4938  137.5074  162.8214 H   0  0  0  0  0  0  0  0  0  0  0  0
  154.1408  136.7574  164.2188 H   0  0  0  0  0  0  0  0  0  0  0  0
  153.9363  134.8476  165.7878 H   0  0  0  0  0  0  0  0  0  0  0  0
  155.7931  132.2625  162.8867 H   0  0  0  0  0  0  0  0  0  0  0  0
  156.0054  134.1394  161.3205 H   0  0  0  0  0  0  0  0  0  0  0  0
  152.1476  140.0237  157.6331 H   0  0  0  0  0  0  0  0  0  0  0  0
  150.7207  141.8829  156.7427 H   0  0  0  0  0  0  0  0  0  0  0  0
  150.4567  143.9960  158.0269 H   0  0  0  0  0  0  0  0  0  0  0  0
  151.6142  144.2962  160.2321 H   0  0  0  0  0  0  0  0  0  0  0  0
  1  2  1  0  0  0  0
  1 24  1  0  0  0  0
  1 25  1  0  0  0  0
  1 26  1  0  0  0  0
  2 23  1  0  0  0  0
  2  3  1  0  0  0  0
  3  4  2  0  0  0  0
  3  5  1  0  0  0  0
  5  6  1  0  0  0  0
  5 18  1  0  0  0  0
  6  7  1  0  0  0  0
  6 27  1  0  0  0  0
  6 28  1  0  0  0  0
  7  8  1  0  0  0  0
  7  9  1  0  0  0  0
  7 29  1  0  0  0  0
  8 30  1  0  0  0  0
  9 10  1  0  0  0  0
  9 31  1  0  0  0  0
  9 32  1  0  0  0  0
 10 11  1  0  0  0  0
 11 17  1  0  0  0  0
 11 12  2  0  0  0  0
 12 13  1  0  0  0  0
 12 33  1  0  0  0  0
 13 14  2  0  0  0  0
 13 34  1  0  0  0  0
 14 15  1  0  0  0  0
 14 16  1  0  0  0  0
 16 17  2  0  0  0  0
 16 35  1  0  0  0  0
 17 36  1  0  0  0  0
 18 23  2  0  0  0  0
 18 19  1  0  0  0  0
 19 20  2  0  0  0  0
 19 37  1  0  0  0  0
 20 21  1  0  0  0  0
 20 38  1  0  0  0  0
 21 22  2  0  0  0  0
 21 39  1  0  0  0  0
 22 23  1  0  0  0  0
 22 40  1  0  0  0  0
M  END
> <s_m_source_file>
AV-unprocessed.smi

> <i_m_source_file_index>
413

> <i_lp_mmshare_version>
43012

> <i_f3d_flags>
0

> <s_epik_input>
W2NIXTFbY0hdW2NIXVtjSF1jKGMxMiluKFtDSDNdKWMoPU8pbjJbQ0gyXVtDQEhdKFtPSF0pW0NIMl1PYzNbY0hdW2NIXWMoRilbY0hdW2NIXTM=

> <s_epik_cmdline>
J2VwaWtfcHl0aG9uJywgJy1waCcsICc3LjAnLCAnLXRuJywgJzgnLCAnLW1hJywgJzIwMCcsICctbWV0YWxfYmluZGluZycsICctaW1hZScsICc8aW5maWxlLm1hZT4nLCAnLW9tYWUnLCAnPG91dGZpbGUubWFlPic=

> <r_lp_tautomer_probability>
1

> <r_epik_Ionization_Penalty>
2.40172e-06

> <r_epik_Ionization_Penalty_Charging>
2.42369e-09

> <r_epik_Ionization_Penalty_Neutral>
2.3993e-06

> <r_epik_State_Penalty>
-0

> <r_epik_Charging_Adjusted_Penalty>
2.42369e-09

> <i_epik_Tot_Q>
0

> <i_epik_Tot_abs_Q>
0

> <r_epik_Metal_State_Penalty>
-0

> <b_epik_Metal_Only>
0

> <s_lp_Force_Field>
OPLS_2005

> <r_lp_Energy>
47.225

> <b_lp_Chiralities_Consistent>
1

> <s_lp_Variant>
AV-unprocessed.smi:413-2

> <Gold.Version>
5.8.1

> <Gold.Id.Protein>
6NUR|6NUR_protein|mol2

> <Gold.PLP.Fitness>
48.3282

> <Gold.PLP.PLP>
-48.1341

> <Gold.PLP.part.hbond>
-0.9926

> <Gold.PLP.part.metal>
0.0000

> <Gold.PLP.part.buried>
-5.1720

> <Gold.PLP.part.nonpolar>
-42.0956

> <Gold.PLP.part.repulsive>
0.0000

> <Gold.PLP.ligand.clash>
0.0000

> <Gold.PLP.ligand.torsion>
1.4251

> <Gold.PLP.Chemscore.Hbond>
1.0000

> <Gold.PLP.Chemscore.CHOScore>
0.0000

> <Gold.PLP.Chemscore.Metal>
0.0000

> <Gold.Chemscore.Hbonds>
donor molecule, donor type, donor heavy atom, donor atom, acceptor molecule, acceptor atom, score
      P1  H  6896  6907       L1     8  0.79

> <Gold.PLP.Chemscore.Internal.Correction>
0.0442

> <Gold.Rescore>
     Score         DG    S(hbond)    S(metal)    S(lipo)     H(rot)  DE(clash)    DE(int)     intcor
     14.03     -16.88       0.91        0.00     121.04       2.27       0.11       2.75       ----

> <Gold.Chemscore.Fitness>
14.0278

> <Gold.Chemscore.DG>
-16.8831

> <Gold.Chemscore.ZeroCoef>
-5.4800

> <Gold.Chemscore.Hbond>
0.9144

> <Gold.Chemscore.Metal>
0.0000

> <Gold.Chemscore.Lipo>
121.0413

> <Gold.Chemscore.Internal_Hbond>
0.0000

> <Gold.Chemscore.DEClash>
0.1074

> <Gold.Chemscore.DEInternal>
2.7479

> <Gold.Chemscore.Rot>
2.2706

> <Gold.Chemscore.Internal.Correction>
   9.000000E+99

> <Gold.Chemscore.Hbonds>
donor molecule, donor type, donor heavy atom, donor atom, acceptor molecule, acceptor atom, score
      P1  H  6896  6907       L1     8  0.13

> <Gold.Chemscore.Hbond.Weighted>
-3.0541

> <Gold.Chemscore.Metal.Weighted>
-0.0000

> <Gold.Chemscore.Lipo.Weighted>
-14.1618

> <Gold.Chemscore.Internal_Hbond.Weighted>
0.0000

> <Gold.Chemscore.DEClash.Weighted>
0.1074

> <Gold.Chemscore.DEInternal.Weighted>
2.7479

> <Gold.Chemscore.Rot.Weighted>
5.8128

> <Gold.Chemscore.Internal.Correction.Weighted>
   9.000000E+99

> <Gold.Protein.RotatedTorsions>
[ 6907 6896 6895 6894 ] final   33.44 input  -60.11 | X-H torsion
[ 7974 7965 7964 7962 ] final  134.79 input  175.53 | X-H torsion
[ 8008 7997 7996 7995 ] final   66.53 input   59.86 | X-H torsion
[ 10167 10162 10161 10158 ] final   12.63 input  -65.29 | X-H torsion
[ 10718 10713 10712 10709 ] final  -28.09 input   66.30 | X-H torsion
[ 10763 10752 10751 10750 ] final  -10.62 input  -60.55 | X-H torsion
[ 11005 11000 10999 10996 ] final  166.05 input  -57.11 | X-H torsion

> <Gold.Protein.ActiveResidues>
 VAL166  LYS551  ARG553  GLY616  TRP617  ASP618  TYR619  PRO620  LYS621  CYS622 
 ASP623  PHE694  ASN695  SER759  ASP760  ASP761  ALA762  ILE779  LEU786  VAL792 
 PHE793  MET794  SER795  GLU796  ALA797  LYS798  CYS799  TRP800  GLU811  SER814 

> <Gold.Protein.RotatedAtoms>
  152.0885  134.9423  160.0572 H   0  0  0  0  0  0  0  0  0  0  0  0  # atno 6907 bound_to 6896
  152.0684  133.4090  159.4456 H   0  0  0  0  0  0  0  0  0  0  0  0  # atno 6908 bound_to 6896
  150.6836  134.3040  159.4762 H   0  0  0  0  0  0  0  0  0  0  0  0  # atno 6909 bound_to 6896
  144.9728  139.4587  143.5425 H   0  0  0  0  0  0  0  0  0  0  0  0  # atno 7974 bound_to 7965
  155.6788  140.3496  155.4847 H   0  0  0  0  0  0  0  0  0  0  0  0  # atno 8008 bound_to 7997
  155.9624  140.1140  157.0906 H   0  0  0  0  0  0  0  0  0  0  0  0  # atno 8009 bound_to 7997
  154.4146  140.1173  156.5183 H   0  0  0  0  0  0  0  0  0  0  0  0  # atno 8010 bound_to 7997
  140.6055  143.8516  150.7010 H   0  0  0  0  0  0  0  0  0  0  0  0  # atno 10167 bound_to 10162
  156.4297  130.4442  149.7126 H   0  0  0  0  0  0  0  0  0  0  0  0  # atno 10718 bound_to 10713
  153.4718  135.7017  153.5989 H   0  0  0  0  0  0  0  0  0  0  0  0  # atno 10763 bound_to 10752
  153.4239  135.3818  155.2129 H   0  0  0  0  0  0  0  0  0  0  0  0  # atno 10764 bound_to 10752
  154.8725  135.3934  154.4157 H   0  0  0  0  0  0  0  0  0  0  0  0  # atno 10765 bound_to 10752
  140.2625  134.7891  157.3602 H   0  0  0  0  0  0  0  0  0  0  0  0  # atno 11005 bound_to 11000
  146.3387  139.8951  142.8803 LP  0  0  0  0  0  0  0  0  0  0  0  0  # atno 17320 bound_to 7965
  145.2534  141.0052  143.3868 LP  0  0  0  0  0  0  0  0  0  0  0  0  # atno 17321 bound_to 7965
  140.2072  143.3912  152.1746 LP  0  0  0  0  0  0  0  0  0  0  0  0  # atno 17342 bound_to 10162
  139.5322  144.7171  151.5016 LP  0  0  0  0  0  0  0  0  0  0  0  0  # atno 17343 bound_to 10162
  156.4034  130.7686  151.2695 LP  0  0  0  0  0  0  0  0  0  0  0  0  # atno 17370 bound_to 10713
  157.7508  131.0233  150.3828 LP  0  0  0  0  0  0  0  0  0  0  0  0  # atno 17371 bound_to 10713
  140.1451  134.4921  155.8002 LP  0  0  0  0  0  0  0  0  0  0  0  0  # atno 17394 bound_to 11000
  141.2188  133.6840  156.7280 LP  0  0  0  0  0  0  0  0  0  0  0  0  # atno 17395 bound_to 11000

$$$$
