AV-unprocessed.smi:663|AV-procd|sdf|3250|dock2
  -GOLD-   22720 0203D 1   1.00000     0.00000
 Structure written by MMmdl.
 29 30  0  0  0  0  0  0  0  0  2 V2000
  149.7065  138.2649  153.3078 N   0  0  0  0  0  0  0  0  0  0  0  0
  150.4298  138.5529  154.3928 C   0  0  0  0  0  0  0  0  0  0  0  0
  151.0603  139.6025  154.5015 O   0  0  0  0  0  0  0  0  0  0  0  0
  150.4580  137.5073  155.5139 C   0  0  0  0  0  0  0  0  0  0  0  0
  150.2747  138.1034  156.9292 C   0  0  1  0  0  0  0  0  0  0  0  0
  149.9956  137.0395  157.8965 N   0  0  0  0  0  0  0  0  0  0  0  0
  149.0092  137.0091  158.8056 C   0  0  0  0  0  0  0  0  0  0  0  0
  148.2197  137.9518  158.8972 O   0  0  0  0  0  0  0  0  0  0  0  0
  148.9921  135.8777  159.5466 N   0  5  0  0  0  0  0  0  0  0  0  0
  148.2353  135.8146  160.6544 C   0  0  0  0  0  0  0  0  0  0  0  0
  147.7848  136.9124  161.2831 N   0  0  0  0  0  0  0  0  0  0  0  0
  147.0219  136.6232  162.4065 N   0  0  0  0  0  0  0  0  0  0  0  0
  146.9223  135.3084  162.6010 C   0  0  0  0  0  0  0  0  0  0  0  0
  147.7575  134.3042  161.4348 S   0  0  0  0  0  0  0  0  0  0  0  0
  151.4911  138.9204  157.3239 C   0  0  0  0  0  0  0  0  0  0  0  0
  151.4544  139.8483  158.5143 C   0  0  0  0  0  0  0  0  0  0  0  0
  151.5271  140.4155  157.1140 C   0  0  0  0  0  0  0  0  0  0  0  0
  149.6396  138.9381  152.5586 H   0  0  0  0  0  0  0  0  0  0  0  0
  149.2082  137.3888  153.2522 H   0  0  0  0  0  0  0  0  0  0  0  0
  149.7014  136.7425  155.3307 H   0  0  0  0  0  0  0  0  0  0  0  0
  151.4211  136.9994  155.4543 H   0  0  0  0  0  0  0  0  0  0  0  0
  149.4331  138.7981  156.8967 H   0  0  0  0  0  0  0  0  0  0  0  0
  150.6111  136.2399  157.8715 H   0  0  0  0  0  0  0  0  0  0  0  0
  146.3573  134.9275  163.4385 H   0  0  0  0  0  0  0  0  0  0  0  0
  152.4341  138.4023  157.1580 H   0  0  0  0  0  0  0  0  0  0  0  0
  150.5119  139.9474  159.0494 H   0  0  0  0  0  0  0  0  0  0  0  0
  152.3491  139.9090  159.1306 H   0  0  0  0  0  0  0  0  0  0  0  0
  152.4704  140.8546  156.7961 H   0  0  0  0  0  0  0  0  0  0  0  0
  150.6328  140.8942  156.7199 H   0  0  0  0  0  0  0  0  0  0  0  0
  1  2  1  0  0  0  0
  1 18  1  0  0  0  0
  1 19  1  0  0  0  0
  2  3  2  0  0  0  0
  2  4  1  0  0  0  0
  4  5  1  0  0  0  0
  4 20  1  0  0  0  0
  4 21  1  0  0  0  0
  5  6  1  0  0  0  0
  5 15  1  0  0  0  0
  5 22  1  0  0  0  0
  6  7  1  0  0  0  0
  6 23  1  0  0  0  0
  7  8  2  0  0  0  0
  7  9  1  0  0  0  0
  9 10  1  0  0  0  0
 10 14  1  0  0  0  0
 10 11  2  0  0  0  0
 11 12  1  0  0  0  0
 12 13  2  0  0  0  0
 13 14  1  0  0  0  0
 13 24  1  0  0  0  0
 15 17  1  0  0  0  0
 15 16  1  0  0  0  0
 15 25  1  0  0  0  0
 16 17  1  0  0  0  0
 16 26  1  0  0  0  0
 16 27  1  0  0  0  0
 17 28  1  0  0  0  0
 17 29  1  0  0  0  0
M  CHG  1   9  -1
M  END
> <s_m_source_file>
AV-unprocessed.smi

> <i_m_source_file_index>
663

> <i_lp_mmshare_version>
43012

> <i_f3d_flags>
0

> <s_epik_input>
W05IMl1DKD1PKVtDSDJdW0NAQEhdKFtDSF0xW0NIMl1bQ0gyXTEpW05IXUMoPU8pW05IXWMybm5bY0hdczI=

> <s_epik_cmdline>
J2VwaWtfcHl0aG9uJywgJy1waCcsICc3LjAnLCAnLXRuJywgJzgnLCAnLW1hJywgJzIwMCcsICctbWV0YWxfYmluZGluZycsICctaW1hZScsICc8aW5maWxlLm1hZT4nLCAnLW9tYWUnLCAnPG91dGZpbGUubWFlPic=

> <r_lp_tautomer_probability>
1

> <r_epik_Ionization_Penalty>
4.41895

> <r_epik_Ionization_Penalty_Charging>
4.37725

> <r_epik_Ionization_Penalty_Neutral>
0.0416999

> <r_epik_State_Penalty>
4.37688

> <r_epik_Charging_Adjusted_Penalty>
8.75413

> <i_epik_Tot_Q>
-1

> <i_epik_Tot_abs_Q>
1

> <r_epik_Metal_State_Penalty>
0.761195

> <b_epik_Metal_Only>
1

> <s_lp_Force_Field>
OPLS_2005

> <r_lp_Energy>
7.27665

> <b_lp_Chiralities_Consistent>
1

> <s_lp_Variant>
AV-unprocessed.smi:663-4

> <Gold.Version>
5.8.1

> <Gold.Id.Protein>
6NUR|6NUR_protein|mol2

> <Gold.PLP.Fitness>
45.8085

> <Gold.PLP.PLP>
-27.9521

> <Gold.PLP.part.hbond>
-7.4059

> <Gold.PLP.part.metal>
0.0000

> <Gold.PLP.part.buried>
-5.2478

> <Gold.PLP.part.nonpolar>
-16.0215

> <Gold.PLP.part.repulsive>
0.2466

> <Gold.PLP.ligand.clash>
0.0000

> <Gold.PLP.ligand.torsion>
1.0826

> <Gold.PLP.Chemscore.Hbond>
6.2823

> <Gold.PLP.Chemscore.CHOScore>
0.0000

> <Gold.PLP.Chemscore.Metal>
0.0000

> <Gold.Chemscore.Hbonds>
donor molecule, donor type, donor heavy atom, donor atom, acceptor molecule, acceptor atom, score
      L1  H     1    18       P1  7957  1.00
      L1  H     1    19       P1  7948  0.59
      P1  H  6896  6907       L1     9  1.72
      P1  H  6931  6943       L1    11  1.00
      P1  H  6934  6947       L1    11  0.45
      P1  H  7989  7998       L1     3  1.00

> <Gold.PLP.Chemscore.Internal.Correction>
1.1747

> <Gold.Rescore>
     Score         DG    S(hbond)    S(metal)    S(lipo)     H(rot)  DE(clash)    DE(int)     intcor
     14.86     -17.75       4.24        0.00      38.33       2.49       0.00       2.89       ----

> <Gold.Chemscore.Fitness>
14.8573

> <Gold.Chemscore.DG>
-17.7461

> <Gold.Chemscore.ZeroCoef>
-5.4800

> <Gold.Chemscore.Hbond>
4.2354

> <Gold.Chemscore.Metal>
0.0000

> <Gold.Chemscore.Lipo>
38.3318

> <Gold.Chemscore.Internal_Hbond>
0.0000

> <Gold.Chemscore.DEClash>
0.0000

> <Gold.Chemscore.DEInternal>
2.8888

> <Gold.Chemscore.Rot>
2.4863

> <Gold.Chemscore.Internal.Correction>
   9.000000E+99

> <Gold.Chemscore.Hbonds>
donor molecule, donor type, donor heavy atom, donor atom, acceptor molecule, acceptor atom, score
      L1  H     1    18       P1  7957  0.82
      L1  H     1    19       P1  7948  0.60
      P1  H  6896  6907       L1     9  0.71
      P1  H  6931  6943       L1    11  0.43
      P1  H  6934  6947       L1    11  0.12
      P1  H  7989  7998       L1     3  1.00

> <Gold.Chemscore.Hbond.Weighted>
-14.1461

> <Gold.Chemscore.Metal.Weighted>
-0.0000

> <Gold.Chemscore.Lipo.Weighted>
-4.4848

> <Gold.Chemscore.Internal_Hbond.Weighted>
0.0000

> <Gold.Chemscore.DEClash.Weighted>
0.0000

> <Gold.Chemscore.DEInternal.Weighted>
2.8888

> <Gold.Chemscore.Rot.Weighted>
6.3648

> <Gold.Chemscore.Internal.Correction.Weighted>
   9.000000E+99

> <Gold.Protein.RotatedTorsions>
[ 6907 6896 6895 6894 ] final  -55.71 input  -60.11 | X-H torsion
[ 7974 7965 7964 7962 ] final  100.16 input  175.53 | X-H torsion
[ 8008 7997 7996 7995 ] final  134.35 input   59.86 | X-H torsion
[ 10167 10162 10161 10158 ] final  131.44 input  -65.29 | X-H torsion
[ 10718 10713 10712 10709 ] final -167.40 input   66.30 | X-H torsion
[ 10763 10752 10751 10750 ] final  -11.52 input  -60.55 | X-H torsion
[ 11005 11000 10999 10996 ] final  -98.18 input  -57.11 | X-H torsion

> <Gold.Protein.ActiveResidues>
 VAL166  LYS551  ARG553  GLY616  TRP617  ASP618  TYR619  PRO620  LYS621  CYS622 
 ASP623  PHE694  ASN695  SER759  ASP760  ASP761  ALA762  ILE779  LEU786  VAL792 
 PHE793  MET794  SER795  GLU796  ALA797  LYS798  CYS799  TRP800  GLU811  SER814 

> <Gold.Protein.RotatedAtoms>
  150.8228  134.7445  159.6787 H   0  0  0  0  0  0  0  0  0  0  0  0  # atno 6907 bound_to 6896
  152.4342  134.5715  159.9932 H   0  0  0  0  0  0  0  0  0  0  0  0  # atno 6908 bound_to 6896
  151.5895  133.3331  159.3060 H   0  0  0  0  0  0  0  0  0  0  0  0  # atno 6909 bound_to 6896
  145.3893  139.2366  143.3361 H   0  0  0  0  0  0  0  0  0  0  0  0  # atno 7974 bound_to 7965
  156.2998  140.2498  156.3402 H   0  0  0  0  0  0  0  0  0  0  0  0  # atno 8008 bound_to 7997
  154.9062  140.0404  157.1940 H   0  0  0  0  0  0  0  0  0  0  0  0  # atno 8009 bound_to 7997
  154.8451  140.2897  155.5638 H   0  0  0  0  0  0  0  0  0  0  0  0  # atno 8010 bound_to 7997
  139.5384  144.6706  151.4708 H   0  0  0  0  0  0  0  0  0  0  0  0  # atno 10167 bound_to 10162
  156.6819  130.9125  151.3058 H   0  0  0  0  0  0  0  0  0  0  0  0  # atno 10718 bound_to 10713
  153.4850  135.7017  153.5916 H   0  0  0  0  0  0  0  0  0  0  0  0  # atno 10763 bound_to 10752
  153.4113  135.3848  155.2052 H   0  0  0  0  0  0  0  0  0  0  0  0  # atno 10764 bound_to 10752
  154.8720  135.3905  154.4304 H   0  0  0  0  0  0  0  0  0  0  0  0  # atno 10765 bound_to 10752
  141.1354  133.8226  157.0805 H   0  0  0  0  0  0  0  0  0  0  0  0  # atno 11005 bound_to 11000
  146.2805  140.4573  142.8778 LP  0  0  0  0  0  0  0  0  0  0  0  0  # atno 17320 bound_to 7965
  144.8452  140.6918  143.6204 LP  0  0  0  0  0  0  0  0  0  0  0  0  # atno 17321 bound_to 7965
  140.6602  143.8515  150.6879 LP  0  0  0  0  0  0  0  0  0  0  0  0  # atno 17342 bound_to 10162
  140.1907  143.4038  152.1865 LP  0  0  0  0  0  0  0  0  0  0  0  0  # atno 17343 bound_to 10162
  157.7040  130.9365  150.0874 LP  0  0  0  0  0  0  0  0  0  0  0  0  # atno 17370 bound_to 10713
  156.1861  130.3652  149.8970 LP  0  0  0  0  0  0  0  0  0  0  0  0  # atno 17371 bound_to 10713
  140.0454  134.9833  157.1040 LP  0  0  0  0  0  0  0  0  0  0  0  0  # atno 17394 bound_to 11000
  140.4070  134.2021  155.7163 LP  0  0  0  0  0  0  0  0  0  0  0  0  # atno 17395 bound_to 11000

$$$$
