AV-unprocessed.smi:3161|AV-procd|sdf|12058|dock2
  -GOLD-   2272017483D 1   1.00000     0.00000
 Structure written by MMmdl.
 41 42  0  0  0  0  0  0  0  0  2 V2000
  148.7922  136.4204  155.3733 C   0  0  0  0  0  0  0  0  0  0  0  0
  149.3208  137.7997  155.1026 C   0  0  0  0  0  0  0  0  0  0  0  0
  150.3706  138.1767  154.2174 C   0  0  0  0  0  0  0  0  0  0  0  0
  150.5951  139.4807  154.2116 N   0  0  0  0  0  0  0  0  0  0  0  0
  149.6958  139.9812  155.0847 N   0  0  0  0  0  0  0  0  0  0  0  0
  149.6591  141.4096  155.3411 C   0  0  0  0  0  0  0  0  0  0  0  0
  149.7513  141.7595  156.8452 C   0  0  1  0  0  0  0  0  0  0  0  0
  150.7746  140.8871  157.5926 C   0  0  0  0  0  0  0  0  0  0  0  0
  150.0910  143.1863  157.0433 N   0  3  0  0  0  0  0  0  0  0  0  0
  151.5223  143.5270  156.8966 C   0  0  0  0  0  0  0  0  0  0  0  0
  152.1161  143.9889  158.2350 C   0  0  1  0  0  0  0  0  0  0  0  0
  151.2922  145.1279  158.8665 C   0  0  0  0  0  0  0  0  0  0  0  0
  151.8583  145.5048  160.2404 C   0  0  0  0  0  0  0  0  0  0  0  0
  151.9668  144.2518  161.1156 C   0  0  0  0  0  0  0  0  0  0  0  0
  152.7423  143.1494  160.3771 C   0  0  0  0  0  0  0  0  0  0  0  0
  152.1217  142.8735  159.1244 O   0  0  0  0  0  0  0  0  0  0  0  0
  148.9186  138.9883  155.6427 C   0  0  0  0  0  0  0  0  0  0  0  0
  149.0328  135.7285  154.5660 H   0  0  0  0  0  0  0  0  0  0  0  0
  147.7075  136.4184  155.4837 H   0  0  0  0  0  0  0  0  0  0  0  0
  149.2101  136.0033  156.2896 H   0  0  0  0  0  0  0  0  0  0  0  0
  150.9742  137.5441  153.5831 H   0  0  0  0  0  0  0  0  0  0  0  0
  150.4821  141.8750  154.7969 H   0  0  0  0  0  0  0  0  0  0  0  0
  148.7384  141.7983  154.9060 H   0  0  0  0  0  0  0  0  0  0  0  0
  148.7790  141.5838  157.3085 H   0  0  0  0  0  0  0  0  0  0  0  0
  150.5021  139.8318  157.5633 H   0  0  0  0  0  0  0  0  0  0  0  0
  150.8383  141.1711  158.6434 H   0  0  0  0  0  0  0  0  0  0  0  0
  151.7708  140.9856  157.1600 H   0  0  0  0  0  0  0  0  0  0  0  0
  149.5907  143.7159  156.3433 H   0  0  0  0  0  0  0  0  0  0  0  0
  152.0652  142.6502  156.5436 H   0  0  0  0  0  0  0  0  0  0  0  0
  151.6442  144.3071  156.1437 H   0  0  0  0  0  0  0  0  0  0  0  0
  153.1402  144.3304  158.0722 H   0  0  0  0  0  0  0  0  0  0  0  0
  151.2895  146.0015  158.2137 H   0  0  0  0  0  0  0  0  0  0  0  0
  150.2526  144.8153  158.9750 H   0  0  0  0  0  0  0  0  0  0  0  0
  152.8441  145.9558  160.1208 H   0  0  0  0  0  0  0  0  0  0  0  0
  151.2271  146.2522  160.7217 H   0  0  0  0  0  0  0  0  0  0  0  0
  152.4572  144.4919  162.0596 H   0  0  0  0  0  0  0  0  0  0  0  0
  150.9682  143.8904  161.3645 H   0  0  0  0  0  0  0  0  0  0  0  0
  153.7825  143.4408  160.2237 H   0  0  0  0  0  0  0  0  0  0  0  0
  152.7532  142.2368  160.9735 H   0  0  0  0  0  0  0  0  0  0  0  0
  148.1493  139.2066  156.3690 H   0  0  0  0  0  0  0  0  0  0  0  0
  149.7688  143.4791  157.9547 H   0  0  0  0  0  0  0  0  0  0  0  0
  1  2  1  0  0  0  0
  1 18  1  0  0  0  0
  1 19  1  0  0  0  0
  1 20  1  0  0  0  0
  2 17  2  0  0  0  0
  2  3  1  0  0  0  0
  3  4  2  0  0  0  0
  3 21  1  0  0  0  0
  4  5  1  0  0  0  0
  5  6  1  0  0  0  0
  5 17  1  0  0  0  0
  6  7  1  0  0  0  0
  6 22  1  0  0  0  0
  6 23  1  0  0  0  0
  7  8  1  0  0  0  0
  7  9  1  0  0  0  0
  7 24  1  0  0  0  0
  8 25  1  0  0  0  0
  8 26  1  0  0  0  0
  8 27  1  0  0  0  0
  9 10  1  0  0  0  0
  9 28  1  0  0  0  0
  9 41  1  0  0  0  0
 10 11  1  0  0  0  0
 10 29  1  0  0  0  0
 10 30  1  0  0  0  0
 11 16  1  0  0  0  0
 11 12  1  0  0  0  0
 11 31  1  0  0  0  0
 12 13  1  0  0  0  0
 12 32  1  0  0  0  0
 12 33  1  0  0  0  0
 13 14  1  0  0  0  0
 13 34  1  0  0  0  0
 13 35  1  0  0  0  0
 14 15  1  0  0  0  0
 14 36  1  0  0  0  0
 14 37  1  0  0  0  0
 15 16  1  0  0  0  0
 15 38  1  0  0  0  0
 15 39  1  0  0  0  0
 17 40  1  0  0  0  0
M  CHG  1   9   1
M  END
> <s_m_source_file>
AV-unprocessed.smi

> <i_m_source_file_index>
3161

> <i_lp_mmshare_version>
43012

> <i_f3d_flags>
0

> <s_epik_input>
W0NIM11jMVtjSF1ubihbY0hdMSlbQ0gyXVtDQEhdKFtDSDNdKVtOSF1bQ0gyXVtDQEBIXTJbQ0gyXVtDSDJdW0NIMl1bQ0gyXU8y

> <s_epik_cmdline>
J2VwaWtfcHl0aG9uJywgJy1waCcsICc3LjAnLCAnLXRuJywgJzgnLCAnLW1hJywgJzIwMCcsICctbWV0YWxfYmluZGluZycsICctaW1hZScsICc8aW5maWxlLm1hZT4nLCAnLW9tYWUnLCAnPG91dGZpbGUubWFlPic=

> <r_lp_tautomer_probability>
1

> <r_epik_Ionization_Penalty>
0.00849661

> <r_epik_Ionization_Penalty_Charging>
0.00848754

> <r_epik_Ionization_Penalty_Neutral>
9.06711e-06

> <r_epik_State_Penalty>
0.00639836

> <r_epik_Charging_Adjusted_Penalty>
0.0148859

> <i_epik_Tot_Q>
1

> <i_epik_Tot_abs_Q>
1

> <r_epik_Metal_State_Penalty>
0.00639921

> <b_epik_Metal_Only>
0

> <s_lp_Force_Field>
OPLS_2005

> <r_lp_Energy>
12.4103

> <b_lp_Chiralities_Consistent>
1

> <s_lp_Variant>
AV-unprocessed.smi:3161-4

> <Gold.Version>
5.8.1

> <Gold.Id.Protein>
6NUR|6NUR_protein|mol2

> <Gold.PLP.Fitness>
48.8926

> <Gold.PLP.PLP>
-38.3304

> <Gold.PLP.part.hbond>
-2.0000

> <Gold.PLP.part.metal>
0.0000

> <Gold.PLP.part.buried>
-5.0227

> <Gold.PLP.part.nonpolar>
-31.8612

> <Gold.PLP.part.repulsive>
0.1798

> <Gold.PLP.ligand.clash>
0.0000

> <Gold.PLP.ligand.torsion>
0.7415

> <Gold.PLP.Chemscore.Hbond>
3.0000

> <Gold.PLP.Chemscore.CHOScore>
0.9899

> <Gold.PLP.Chemscore.Metal>
0.0000

> <Gold.Chemscore.Hbonds>
donor molecule, donor type, donor heavy atom, donor atom, acceptor molecule, acceptor atom, score
      L1  H     9    28       P1  8028  1.37
      P1  H  7989  7998       L1     4  1.00
      L1  C     3    21       P1  7948  0.01
      L1  C     3    21       P1  7949  0.79

> <Gold.PLP.Chemscore.Internal.Correction>
0.0755

> <Gold.Rescore>
     Score         DG    S(hbond)    S(metal)    S(lipo)     H(rot)  DE(clash)    DE(int)     intcor
     19.22     -20.53       1.91        0.00     108.61       1.57       0.44       0.87       ----

> <Gold.Chemscore.Fitness>
19.2233

> <Gold.Chemscore.DG>
-20.5349

> <Gold.Chemscore.ZeroCoef>
-5.4800

> <Gold.Chemscore.Hbond>
1.9072

> <Gold.Chemscore.Metal>
0.0000

> <Gold.Chemscore.Lipo>
108.6117

> <Gold.Chemscore.Internal_Hbond>
0.0000

> <Gold.Chemscore.DEClash>
0.4411

> <Gold.Chemscore.DEInternal>
0.8705

> <Gold.Chemscore.Rot>
1.5714

> <Gold.Chemscore.Internal.Correction>
   9.000000E+99

> <Gold.Chemscore.Hbonds>
donor molecule, donor type, donor heavy atom, donor atom, acceptor molecule, acceptor atom, score
      L1  H     9    28       P1  8028  0.67
      P1  H  7989  7998       L1     4  0.78

> <Gold.Chemscore.Hbond.Weighted>
-6.3701

> <Gold.Chemscore.Metal.Weighted>
-0.0000

> <Gold.Chemscore.Lipo.Weighted>
-12.7076

> <Gold.Chemscore.Internal_Hbond.Weighted>
0.0000

> <Gold.Chemscore.DEClash.Weighted>
0.4411

> <Gold.Chemscore.DEInternal.Weighted>
0.8705

> <Gold.Chemscore.Rot.Weighted>
4.0228

> <Gold.Chemscore.Internal.Correction.Weighted>
   9.000000E+99

> <Gold.Protein.RotatedTorsions>
[ 6907 6896 6895 6894 ] final  166.13 input  -60.11 | X-H torsion
[ 7974 7965 7964 7962 ] final   13.46 input  175.53 | X-H torsion
[ 8008 7997 7996 7995 ] final -128.47 input   59.86 | X-H torsion
[ 10167 10162 10161 10158 ] final   61.07 input  -65.29 | X-H torsion
[ 10718 10713 10712 10709 ] final  119.86 input   66.30 | X-H torsion
[ 10763 10752 10751 10750 ] final  -50.21 input  -60.55 | X-H torsion
[ 11005 11000 10999 10996 ] final  107.26 input  -57.11 | X-H torsion

> <Gold.Protein.ActiveResidues>
 VAL166  LYS551  ARG553  GLY616  TRP617  ASP618  TYR619  PRO620  LYS621  CYS622 
 ASP623  PHE694  ASN695  SER759  ASP760  ASP761  ALA762  ILE779  LEU786  VAL792 
 PHE793  MET794  SER795  GLU796  ALA797  LYS798  CYS799  TRP800  GLU811  SER814 

> <Gold.Protein.RotatedAtoms>
  151.8837  133.3501  159.3774 H   0  0  0  0  0  0  0  0  0  0  0  0  # atno 6907 bound_to 6896
  150.7121  134.4993  159.5563 H   0  0  0  0  0  0  0  0  0  0  0  0  # atno 6908 bound_to 6896
  152.2549  134.8094  160.0491 H   0  0  0  0  0  0  0  0  0  0  0  0  # atno 6909 bound_to 6896
  146.2329  139.9185  142.8513 H   0  0  0  0  0  0  0  0  0  0  0  0  # atno 7974 bound_to 7965
  155.2632  140.0437  157.2999 H   0  0  0  0  0  0  0  0  0  0  0  0  # atno 8008 bound_to 7997
  154.5698  140.2370  155.8178 H   0  0  0  0  0  0  0  0  0  0  0  0  # atno 8009 bound_to 7997
  156.2113  140.2998  155.9748 H   0  0  0  0  0  0  0  0  0  0  0  0  # atno 8010 bound_to 7997
  140.1588  144.4391  150.6720 H   0  0  0  0  0  0  0  0  0  0  0  0  # atno 10167 bound_to 10162
  157.5932  131.1061  150.7955 H   0  0  0  0  0  0  0  0  0  0  0  0  # atno 10718 bound_to 10713
  154.1067  135.6555  153.4878 H   0  0  0  0  0  0  0  0  0  0  0  0  # atno 10763 bound_to 10752
  153.0270  135.5238  154.7232 H   0  0  0  0  0  0  0  0  0  0  0  0  # atno 10764 bound_to 10752
  154.6400  135.2987  155.0084 H   0  0  0  0  0  0  0  0  0  0  0  0  # atno 10765 bound_to 10752
  139.8825  134.9395  156.5792 H   0  0  0  0  0  0  0  0  0  0  0  0  # atno 11005 bound_to 11000
  145.2159  140.9915  143.4073 LP  0  0  0  0  0  0  0  0  0  0  0  0  # atno 17320 bound_to 7965
  144.9651  139.3939  143.6336 LP  0  0  0  0  0  0  0  0  0  0  0  0  # atno 17321 bound_to 7965
  140.6656  143.2267  151.5750 LP  0  0  0  0  0  0  0  0  0  0  0  0  # atno 17342 bound_to 10162
  139.5391  144.2698  152.1313 LP  0  0  0  0  0  0  0  0  0  0  0  0  # atno 17343 bound_to 10162
  156.8372  130.5036  149.5325 LP  0  0  0  0  0  0  0  0  0  0  0  0  # atno 17370 bound_to 10713
  156.0990  130.5954  150.9861 LP  0  0  0  0  0  0  0  0  0  0  0  0  # atno 17371 bound_to 10713
  140.8040  133.8482  155.8751 LP  0  0  0  0  0  0  0  0  0  0  0  0  # atno 17394 bound_to 11000
  140.9567  134.1709  157.4686 LP  0  0  0  0  0  0  0  0  0  0  0  0  # atno 17395 bound_to 11000

$$$$
