AV-unprocessed.smi:2456|AV-procd|sdf|9701|dock4
  -GOLD-   2272013343D 1   1.00000     0.00000
 Structure written by MMmdl.
 34 35  0  0  0  0  0  0  0  0  1 V2000
  147.1329  140.5431  153.3464 C   0  0  0  0  0  0  0  0  0  0  0  0
  147.7235  139.2691  153.9894 C   0  0  1  0  0  0  0  0  0  0  0  0
  147.4588  138.0662  153.1925 N   0  0  0  0  0  0  0  0  0  0  0  0
  146.2914  137.4204  153.0339 C   0  0  0  0  0  0  0  0  0  0  0  0
  145.2236  137.8036  153.5112 O   0  0  0  0  0  0  0  0  0  0  0  0
  146.4507  136.3183  152.2805 N   0  0  0  0  0  0  0  0  0  0  0  0
  145.4680  135.3705  151.8914 C   0  0  0  0  0  0  0  0  0  0  0  0
  145.7319  134.2349  151.2346 N   0  0  0  0  0  0  0  0  0  0  0  0
  144.5748  133.4943  150.9815 C   0  0  0  0  0  0  0  0  0  0  0  0
  143.4302  134.0857  151.4553 C   0  0  0  0  0  0  0  0  0  0  0  0
  143.7623  135.6045  152.2438 S   0  0  0  0  0  0  0  0  0  0  0  0
  149.2122  139.3838  154.3786 C   0  0  0  0  0  0  0  0  0  0  0  0
  150.0297  138.6366  153.8397 O   0  0  0  0  0  0  0  0  0  0  0  0
  149.5844  140.2881  155.3115 N   0  0  0  0  0  0  0  0  0  0  0  0
  148.7076  141.2311  156.0071 C   0  0  0  0  0  0  0  0  0  0  0  0
  149.5647  141.8685  157.1009 C   0  0  0  0  0  0  0  0  0  0  0  0
  150.9893  141.7417  156.5812 C   0  0  0  0  0  0  0  0  0  0  0  0
  150.9691  140.4597  155.7491 C   0  0  0  0  0  0  0  0  0  0  0  0
  147.2124  141.3918  154.0265 H   0  0  0  0  0  0  0  0  0  0  0  0
  146.0756  140.4107  153.1156 H   0  0  0  0  0  0  0  0  0  0  0  0
  147.6410  140.8230  152.4235 H   0  0  0  0  0  0  0  0  0  0  0  0
  147.1645  139.1303  154.9148 H   0  0  0  0  0  0  0  0  0  0  0  0
  148.2642  137.6649  152.7356 H   0  0  0  0  0  0  0  0  0  0  0  0
  147.3858  136.1310  151.9508 H   0  0  0  0  0  0  0  0  0  0  0  0
  144.6579  132.5541  150.4566 H   0  0  0  0  0  0  0  0  0  0  0  0
  142.4160  133.7207  151.3886 H   0  0  0  0  0  0  0  0  0  0  0  0
  148.3693  141.9902  155.3004 H   0  0  0  0  0  0  0  0  0  0  0  0
  147.8299  140.7498  156.4381 H   0  0  0  0  0  0  0  0  0  0  0  0
  149.2818  142.8999  157.3129 H   0  0  0  0  0  0  0  0  0  0  0  0
  149.4620  141.2972  158.0244 H   0  0  0  0  0  0  0  0  0  0  0  0
  151.2208  142.5917  155.9382 H   0  0  0  0  0  0  0  0  0  0  0  0
  151.7308  141.7154  157.3803 H   0  0  0  0  0  0  0  0  0  0  0  0
  151.2545  139.6022  156.3602 H   0  0  0  0  0  0  0  0  0  0  0  0
  151.6627  140.5231  154.9091 H   0  0  0  0  0  0  0  0  0  0  0  0
  1  2  1  0  0  0  0
  1 19  1  0  0  0  0
  1 20  1  0  0  0  0
  1 21  1  0  0  0  0
  2  3  1  0  0  0  0
  2 12  1  0  0  0  0
  2 22  1  0  0  0  0
  3  4  1  0  0  0  0
  3 23  1  0  0  0  0
  4  5  2  0  0  0  0
  4  6  1  0  0  0  0
  6  7  1  0  0  0  0
  6 24  1  0  0  0  0
  7 11  1  0  0  0  0
  7  8  2  0  0  0  0
  8  9  1  0  0  0  0
  9 10  2  0  0  0  0
  9 25  1  0  0  0  0
 10 11  1  0  0  0  0
 10 26  1  0  0  0  0
 12 13  2  0  0  0  0
 12 14  1  0  0  0  0
 14 18  1  0  0  0  0
 14 15  1  0  0  0  0
 15 16  1  0  0  0  0
 15 27  1  0  0  0  0
 15 28  1  0  0  0  0
 16 17  1  0  0  0  0
 16 29  1  0  0  0  0
 16 30  1  0  0  0  0
 17 18  1  0  0  0  0
 17 31  1  0  0  0  0
 17 32  1  0  0  0  0
 18 33  1  0  0  0  0
 18 34  1  0  0  0  0
M  END
> <s_m_source_file>
AV-unprocessed.smi

> <i_m_source_file_index>
2456

> <i_lp_mmshare_version>
43012

> <i_f3d_flags>
0

> <s_epik_input>
W0NIMl0xW0NIMl1bQ0gyXVtDSDJdTjFDKD1PKVtDQEhdKFtDSDNdKVtOSF1DKD1PKVtOSF1jMm5bY0hdW2NIXXMy

> <s_epik_cmdline>
J2VwaWtfcHl0aG9uJywgJy1waCcsICc3LjAnLCAnLXRuJywgJzgnLCAnLW1hJywgJzIwMCcsICctbWV0YWxfYmluZGluZycsICctaW1hZScsICc8aW5maWxlLm1hZT4nLCAnLW9tYWUnLCAnPG91dGZpbGUubWFlPic=

> <r_lp_tautomer_probability>
1

> <r_epik_Ionization_Penalty>
0.000150201

> <r_epik_Ionization_Penalty_Charging>
0

> <r_epik_Ionization_Penalty_Neutral>
0.000150201

> <r_epik_State_Penalty>
-0

> <r_epik_Charging_Adjusted_Penalty>
0

> <i_epik_Tot_Q>
0

> <i_epik_Tot_abs_Q>
0

> <r_epik_Metal_State_Penalty>
0.0705602

> <b_epik_Metal_Only>
0

> <s_lp_Force_Field>
OPLS_2005

> <r_lp_Energy>
30.7

> <b_lp_Chiralities_Consistent>
1

> <s_lp_Variant>
AV-unprocessed.smi:2456-2

> <Gold.Version>
5.8.1

> <Gold.Id.Protein>
6NUR|6NUR_protein|mol2

> <Gold.PLP.Fitness>
33.6533

> <Gold.PLP.PLP>
-25.9859

> <Gold.PLP.part.hbond>
-1.9404

> <Gold.PLP.part.metal>
0.0000

> <Gold.PLP.part.buried>
-2.0535

> <Gold.PLP.part.nonpolar>
-22.9825

> <Gold.PLP.part.repulsive>
1.4191

> <Gold.PLP.ligand.clash>
0.0000

> <Gold.PLP.ligand.torsion>
0.3715

> <Gold.PLP.Chemscore.Hbond>
1.9600

> <Gold.PLP.Chemscore.CHOScore>
0.7964

> <Gold.PLP.Chemscore.Metal>
0.0000

> <Gold.Chemscore.Hbonds>
donor molecule, donor type, donor heavy atom, donor atom, acceptor molecule, acceptor atom, score
      L1  H     3    23       P1  7948  0.96
      L1  H     6    24       P1  7948  1.00
      L1  C    10    26       P1 10186  0.81

> <Gold.PLP.Chemscore.Internal.Correction>
0.1413

> <Gold.Rescore>
     Score         DG    S(hbond)    S(metal)    S(lipo)     H(rot)  DE(clash)    DE(int)     intcor
     13.03     -14.78       1.97        0.00      52.66       1.34       0.12       1.63       ----

> <Gold.Chemscore.Fitness>
13.0308

> <Gold.Chemscore.DG>
-14.7848

> <Gold.Chemscore.ZeroCoef>
-5.4800

> <Gold.Chemscore.Hbond>
1.9720

> <Gold.Chemscore.Metal>
0.0000

> <Gold.Chemscore.Lipo>
52.6592

> <Gold.Chemscore.Internal_Hbond>
0.0000

> <Gold.Chemscore.DEClash>
0.1230

> <Gold.Chemscore.DEInternal>
1.6310

> <Gold.Chemscore.Rot>
1.3448

> <Gold.Chemscore.Internal.Correction>
   9.000000E+99

> <Gold.Chemscore.Hbonds>
donor molecule, donor type, donor heavy atom, donor atom, acceptor molecule, acceptor atom, score
      L1  H     3    23       P1  7948  0.92
      L1  H     6    24       P1  7948  0.95

> <Gold.Chemscore.Hbond.Weighted>
-6.5864

> <Gold.Chemscore.Metal.Weighted>
-0.0000

> <Gold.Chemscore.Lipo.Weighted>
-6.1611

> <Gold.Chemscore.Internal_Hbond.Weighted>
0.0000

> <Gold.Chemscore.DEClash.Weighted>
0.1230

> <Gold.Chemscore.DEInternal.Weighted>
1.6310

> <Gold.Chemscore.Rot.Weighted>
3.4427

> <Gold.Chemscore.Internal.Correction.Weighted>
   9.000000E+99

> <Gold.Protein.RotatedTorsions>
[ 6907 6896 6895 6894 ] final  -84.53 input  -60.11 | X-H torsion
[ 7974 7965 7964 7962 ] final   74.68 input  175.53 | X-H torsion
[ 8008 7997 7996 7995 ] final  -50.11 input   59.86 | X-H torsion
[ 10167 10162 10161 10158 ] final  -68.56 input  -65.29 | X-H torsion
[ 10718 10713 10712 10709 ] final  163.56 input   66.30 | X-H torsion
[ 10763 10752 10751 10750 ] final  -63.75 input  -60.55 | X-H torsion
[ 11005 11000 10999 10996 ] final   30.65 input  -57.11 | X-H torsion

> <Gold.Protein.ActiveResidues>
 VAL166  LYS551  ARG553  GLY616  TRP617  ASP618  TYR619  PRO620  LYS621  CYS622 
 ASP623  PHE694  ASN695  SER759  ASP760  ASP761  ALA762  ILE779  LEU786  VAL792 
 PHE793  MET794  SER795  GLU796  ALA797  LYS798  CYS799  TRP800  GLU811  SER814 

> <Gold.Protein.RotatedAtoms>
  150.6876  134.3345  159.4840 H   0  0  0  0  0  0  0  0  0  0  0  0  # atno 6907 bound_to 6896
  152.1205  134.9206  160.0572 H   0  0  0  0  0  0  0  0  0  0  0  0  # atno 6908 bound_to 6896
  152.0414  133.3944  159.4375 H   0  0  0  0  0  0  0  0  0  0  0  0  # atno 6909 bound_to 6896
  145.7252  139.2663  143.1573 H   0  0  0  0  0  0  0  0  0  0  0  0  # atno 7974 bound_to 7965
  154.4056  140.1280  156.4613 H   0  0  0  0  0  0  0  0  0  0  0  0  # atno 8008 bound_to 7997
  155.7270  140.3492  155.5022 H   0  0  0  0  0  0  0  0  0  0  0  0  # atno 8009 bound_to 7997
  155.9162  140.1044  157.1232 H   0  0  0  0  0  0  0  0  0  0  0  0  # atno 8010 bound_to 7997
  140.5498  143.2312  151.6932 H   0  0  0  0  0  0  0  0  0  0  0  0  # atno 10167 bound_to 10162
  157.1067  131.0457  151.2475 H   0  0  0  0  0  0  0  0  0  0  0  0  # atno 10718 bound_to 10713
  154.3198  135.6198  153.5502 H   0  0  0  0  0  0  0  0  0  0  0  0  # atno 10763 bound_to 10752
  152.9821  135.5721  154.5083 H   0  0  0  0  0  0  0  0  0  0  0  0  # atno 10764 bound_to 10752
  154.4749  135.2861  155.1591 H   0  0  0  0  0  0  0  0  0  0  0  0  # atno 10765 bound_to 10752
  140.2922  134.2852  155.7773 H   0  0  0  0  0  0  0  0  0  0  0  0  # atno 11005 bound_to 11000
  146.0589  140.7991  142.9744 LP  0  0  0  0  0  0  0  0  0  0  0  0  # atno 17320 bound_to 7965
  144.6906  140.3166  143.7239 LP  0  0  0  0  0  0  0  0  0  0  0  0  # atno 17321 bound_to 7965
  139.5022  144.3836  152.0351 LP  0  0  0  0  0  0  0  0  0  0  0  0  # atno 17342 bound_to 10162
  140.2952  144.3709  150.6076 LP  0  0  0  0  0  0  0  0  0  0  0  0  # atno 17343 bound_to 10162
  157.4594  130.7644  149.7222 LP  0  0  0  0  0  0  0  0  0  0  0  0  # atno 17370 bound_to 10713
  155.9860  130.3978  150.3233 LP  0  0  0  0  0  0  0  0  0  0  0  0  # atno 17371 bound_to 10713
  141.2144  133.7592  156.9641 LP  0  0  0  0  0  0  0  0  0  0  0  0  # atno 17394 bound_to 11000
  140.1185  134.9432  157.2169 LP  0  0  0  0  0  0  0  0  0  0  0  0  # atno 17395 bound_to 11000

$$$$
