AV-unprocessed.smi:2229|AV-procd|sdf|9027|dock4
  -GOLD-   2272012233D 1   1.00000     0.00000
 Structure written by MMmdl.
 44 45  0  0  0  0  0  0  0  0  1 V2000
  149.7728  140.9507  155.0745 C   0  0  0  0  0  0  0  0  0  0  0  0
  151.1760  140.5120  155.5209 C   0  0  0  0  0  0  0  0  0  0  0  0
  151.4123  139.0343  155.1627 C   0  0  0  0  0  0  0  0  0  0  0  0
  151.3836  140.7967  157.0226 C   0  0  0  0  0  0  0  0  0  0  0  0
  151.2881  142.2863  157.3970 C   0  0  0  0  0  0  0  0  0  0  0  0
  151.4978  142.5507  158.8989 C   0  0  2  0  0  0  0  0  0  0  0  0
  151.6169  144.0240  159.2931 C   0  0  0  0  0  0  0  0  0  0  0  0
  152.2413  143.9805  160.6870 C   0  0  0  0  0  0  0  0  0  0  0  0
  153.1801  142.7673  160.6772 C   0  0  0  0  0  0  0  0  0  0  0  0
  152.7821  141.9154  159.4554 C   0  0  1  0  0  0  0  0  0  0  0  0
  152.5432  140.5186  159.7949 N   0  0  0  0  0  0  0  0  0  0  0  0
  153.3800  139.4981  159.5490 C   0  0  0  0  0  0  0  0  0  0  0  0
  154.5053  139.6573  159.0787 O   0  0  0  0  0  0  0  0  0  0  0  0
  152.8872  138.0731  159.8531 C   0  0  0  0  0  0  0  0  0  0  0  0
  153.6903  137.3398  160.8389 N   0  0  0  0  0  0  0  0  0  0  0  0
  153.9411  137.8077  162.1113 C   0  0  0  0  0  0  0  0  0  0  0  0
  154.6678  136.9877  162.7912 N   0  0  0  0  0  0  0  0  0  0  0  0
  154.8783  135.9803  161.9108 N   0  0  0  0  0  0  0  0  0  0  0  0
  154.3038  136.1639  160.7213 C   0  0  0  0  0  0  0  0  0  0  0  0
  154.3289  135.4112  159.7494 O   0  0  0  0  0  0  0  0  0  0  0  0
  155.4336  135.1854  162.1931 H   0  0  0  0  0  0  0  0  0  0  0  0
  148.9974  140.3888  155.5963 H   0  0  0  0  0  0  0  0  0  0  0  0
  149.6333  140.7947  154.0044 H   0  0  0  0  0  0  0  0  0  0  0  0
  149.6077  142.0100  155.2737 H   0  0  0  0  0  0  0  0  0  0  0  0
  151.8945  141.1116  154.9604 H   0  0  0  0  0  0  0  0  0  0  0  0
  150.7550  138.3779  155.7335 H   0  0  0  0  0  0  0  0  0  0  0  0
  152.4398  138.7283  155.3566 H   0  0  0  0  0  0  0  0  0  0  0  0
  151.2219  138.8536  154.1043 H   0  0  0  0  0  0  0  0  0  0  0  0
  150.6312  140.2493  157.5913 H   0  0  0  0  0  0  0  0  0  0  0  0
  152.3487  140.3986  157.3391 H   0  0  0  0  0  0  0  0  0  0  0  0
  152.0463  142.8437  156.8474 H   0  0  0  0  0  0  0  0  0  0  0  0
  150.3254  142.6890  157.0807 H   0  0  0  0  0  0  0  0  0  0  0  0
  150.6472  142.1373  159.4451 H   0  0  0  0  0  0  0  0  0  0  0  0
  152.2847  144.5447  158.6054 H   0  0  0  0  0  0  0  0  0  0  0  0
  150.6576  144.5422  159.2856 H   0  0  0  0  0  0  0  0  0  0  0  0
  152.7590  144.9064  160.9389 H   0  0  0  0  0  0  0  0  0  0  0  0
  151.4581  143.8289  161.4307 H   0  0  0  0  0  0  0  0  0  0  0  0
  154.2188  143.0863  160.5827 H   0  0  0  0  0  0  0  0  0  0  0  0
  153.0993  142.2165  161.6155 H   0  0  0  0  0  0  0  0  0  0  0  0
  153.5713  141.9854  158.7038 H   0  0  0  0  0  0  0  0  0  0  0  0
  151.6402  140.2994  160.1896 H   0  0  0  0  0  0  0  0  0  0  0  0
  151.8618  138.1345  160.2204 H   0  0  0  0  0  0  0  0  0  0  0  0
  152.8396  137.5205  158.9137 H   0  0  0  0  0  0  0  0  0  0  0  0
  153.5321  138.7698  162.4246 H   0  0  0  0  0  0  0  0  0  0  0  0
  1  2  1  0  0  0  0
  1 22  1  0  0  0  0
  1 23  1  0  0  0  0
  1 24  1  0  0  0  0
  2  3  1  0  0  0  0
  2  4  1  0  0  0  0
  2 25  1  0  0  0  0
  3 26  1  0  0  0  0
  3 27  1  0  0  0  0
  3 28  1  0  0  0  0
  4  5  1  0  0  0  0
  4 29  1  0  0  0  0
  4 30  1  0  0  0  0
  5  6  1  0  0  0  0
  5 31  1  0  0  0  0
  5 32  1  0  0  0  0
  6 10  1  0  0  0  0
  6  7  1  0  0  0  0
  6 33  1  0  0  0  0
  7  8  1  0  0  0  0
  7 34  1  0  0  0  0
  7 35  1  0  0  0  0
  8  9  1  0  0  0  0
  8 36  1  0  0  0  0
  8 37  1  0  0  0  0
  9 10  1  0  0  0  0
  9 38  1  0  0  0  0
  9 39  1  0  0  0  0
 10 11  1  0  0  0  0
 10 40  1  0  0  0  0
 11 12  1  0  0  0  0
 11 41  1  0  0  0  0
 12 13  2  0  0  0  0
 12 14  1  0  0  0  0
 14 15  1  0  0  0  0
 14 42  1  0  0  0  0
 14 43  1  0  0  0  0
 15 19  1  0  0  0  0
 15 16  1  0  0  0  0
 16 17  2  0  0  0  0
 16 44  1  0  0  0  0
 17 18  1  0  0  0  0
 18 21  1  0  0  0  0
 18 19  1  0  0  0  0
 19 20  2  0  0  0  0
M  END
> <s_m_source_file>
AV-unprocessed.smi

> <i_m_source_file_index>
2229

> <i_lp_mmshare_version>
43012

> <i_f3d_flags>
0

> <s_epik_input>
W0NIM11bQ0hdKFtDSDNdKVtDSDJdW0NIMl1bQ0BASF0xW0NIMl1bQ0gyXVtDSDJdW0NASF0xW05IXUMoPU8pW0NIMl1uMltjSF1uW25IXWMyPU8=

> <s_epik_cmdline>
J2VwaWtfcHl0aG9uJywgJy1waCcsICc3LjAnLCAnLXRuJywgJzgnLCAnLW1hJywgJzIwMCcsICctbWV0YWxfYmluZGluZycsICctaW1hZScsICc8aW5maWxlLm1hZT4nLCAnLW9tYWUnLCAnPG91dGZpbGUubWFlPic=

> <r_lp_tautomer_probability>
1

> <r_epik_Ionization_Penalty>
4.14174e-05

> <r_epik_Ionization_Penalty_Charging>
4.13165e-05

> <r_epik_Ionization_Penalty_Neutral>
1.00911e-07

> <r_epik_State_Penalty>
-0

> <r_epik_Charging_Adjusted_Penalty>
4.13165e-05

> <i_epik_Tot_Q>
0

> <i_epik_Tot_abs_Q>
0

> <r_epik_Metal_State_Penalty>
0.0399369

> <b_epik_Metal_Only>
0

> <s_lp_Force_Field>
OPLS_2005

> <r_lp_Energy>
36.5056

> <b_lp_Chiralities_Consistent>
1

> <s_lp_Variant>
AV-unprocessed.smi:2229-1

> <Gold.Version>
5.8.1

> <Gold.Id.Protein>
6NUR|6NUR_protein|mol2

> <Gold.PLP.Fitness>
45.3002

> <Gold.PLP.PLP>
-39.8489

> <Gold.PLP.part.hbond>
-2.0000

> <Gold.PLP.part.metal>
0.0000

> <Gold.PLP.part.buried>
-3.5774

> <Gold.PLP.part.nonpolar>
-34.4235

> <Gold.PLP.part.repulsive>
0.1767

> <Gold.PLP.ligand.clash>
0.0000

> <Gold.PLP.ligand.torsion>
0.2862

> <Gold.PLP.Chemscore.Hbond>
2.0000

> <Gold.PLP.Chemscore.CHOScore>
0.0000

> <Gold.PLP.Chemscore.Metal>
0.0000

> <Gold.Chemscore.Hbonds>
donor molecule, donor type, donor heavy atom, donor atom, acceptor molecule, acceptor atom, score
      P1  H  6896  6909       L1    20  1.00
      P1  H  7997  8010       L1    13  1.00

> <Gold.PLP.Chemscore.Internal.Correction>
0.0238

> <Gold.Rescore>
     Score         DG    S(hbond)    S(metal)    S(lipo)     H(rot)  DE(clash)    DE(int)     intcor
     16.11     -16.34       1.99        0.00      93.80       2.64       0.01       0.22       ----

> <Gold.Chemscore.Fitness>
16.1054

> <Gold.Chemscore.DG>
-16.3393

> <Gold.Chemscore.ZeroCoef>
-5.4800

> <Gold.Chemscore.Hbond>
1.9866

> <Gold.Chemscore.Metal>
0.0000

> <Gold.Chemscore.Lipo>
93.7967

> <Gold.Chemscore.Internal_Hbond>
0.0000

> <Gold.Chemscore.DEClash>
0.0133

> <Gold.Chemscore.DEInternal>
0.2206

> <Gold.Chemscore.Rot>
2.6368

> <Gold.Chemscore.Internal.Correction>
   9.000000E+99

> <Gold.Chemscore.Hbonds>
donor molecule, donor type, donor heavy atom, donor atom, acceptor molecule, acceptor atom, score
      P1  H  6896  6909       L1    20  0.24
      P1  H  7997  8010       L1    13  1.00

> <Gold.Chemscore.Hbond.Weighted>
-6.6352

> <Gold.Chemscore.Metal.Weighted>
-0.0000

> <Gold.Chemscore.Lipo.Weighted>
-10.9742

> <Gold.Chemscore.Internal_Hbond.Weighted>
0.0000

> <Gold.Chemscore.DEClash.Weighted>
0.0133

> <Gold.Chemscore.DEInternal.Weighted>
0.2206

> <Gold.Chemscore.Rot.Weighted>
6.7501

> <Gold.Chemscore.Internal.Correction.Weighted>
   9.000000E+99

> <Gold.Protein.RotatedTorsions>
[ 6907 6896 6895 6894 ] final -168.37 input  -60.11 | X-H torsion
[ 7974 7965 7964 7962 ] final  -71.61 input  175.53 | X-H torsion
[ 8008 7997 7996 7995 ] final    4.89 input   59.86 | X-H torsion
[ 10167 10162 10161 10158 ] final -121.65 input  -65.29 | X-H torsion
[ 10718 10713 10712 10709 ] final -143.41 input   66.30 | X-H torsion
[ 10763 10752 10751 10750 ] final  -72.56 input  -60.55 | X-H torsion
[ 11005 11000 10999 10996 ] final  144.19 input  -57.11 | X-H torsion

> <Gold.Protein.ActiveResidues>
 VAL166  LYS551  ARG553  GLY616  TRP617  ASP618  TYR619  PRO620  LYS621  CYS622 
 ASP623  PHE694  ASN695  SER759  ASP760  ASP761  ALA762  ILE779  LEU786  VAL792 
 PHE793  MET794  SER795  GLU796  ALA797  LYS798  CYS799  TRP800  GLU811  SER814 

> <Gold.Protein.RotatedAtoms>
  151.4744  133.3561  159.2828 H   0  0  0  0  0  0  0  0  0  0  0  0  # atno 6907 bound_to 6896
  150.8939  134.8347  159.7323 H   0  0  0  0  0  0  0  0  0  0  0  0  # atno 6908 bound_to 6896
  152.4839  134.4657  159.9671 H   0  0  0  0  0  0  0  0  0  0  0  0  # atno 6909 bound_to 6896
  145.6759  140.9205  143.0858 H   0  0  0  0  0  0  0  0  0  0  0  0  # atno 7974 bound_to 7965
  154.7216  140.2713  155.6536 H   0  0  0  0  0  0  0  0  0  0  0  0  # atno 8008 bound_to 7997
  156.2825  140.2733  156.1814 H   0  0  0  0  0  0  0  0  0  0  0  0  # atno 8009 bound_to 7997
  155.0500  140.0371  157.2530 H   0  0  0  0  0  0  0  0  0  0  0  0  # atno 8010 bound_to 7997
  140.0228  143.5327  152.2213 H   0  0  0  0  0  0  0  0  0  0  0  0  # atno 10167 bound_to 10162
  156.3576  130.7721  151.1884 H   0  0  0  0  0  0  0  0  0  0  0  0  # atno 10718 bound_to 10713
  154.4473  135.5926  153.6169 H   0  0  0  0  0  0  0  0  0  0  0  0  # atno 10763 bound_to 10752
  152.9810  135.6012  154.3648 H   0  0  0  0  0  0  0  0  0  0  0  0  # atno 10764 bound_to 10752
  154.3505  135.2841  155.2353 H   0  0  0  0  0  0  0  0  0  0  0  0  # atno 10765 bound_to 10752
  140.0613  134.9203  157.1188 H   0  0  0  0  0  0  0  0  0  0  0  0  # atno 11005 bound_to 11000
  144.7042  139.8632  143.7435 LP  0  0  0  0  0  0  0  0  0  0  0  0  # atno 17320 bound_to 7965
  146.1006  139.4001  143.0349 LP  0  0  0  0  0  0  0  0  0  0  0  0  # atno 17321 bound_to 7965
  139.6128  144.7613  151.2913 LP  0  0  0  0  0  0  0  0  0  0  0  0  # atno 17342 bound_to 10162
  140.7335  143.6792  150.8015 LP  0  0  0  0  0  0  0  0  0  0  0  0  # atno 17343 bound_to 10162
  157.7469  131.0409  150.4621 LP  0  0  0  0  0  0  0  0  0  0  0  0  # atno 17370 bound_to 10713
  156.4827  130.4077  149.6452 LP  0  0  0  0  0  0  0  0  0  0  0  0  # atno 17371 bound_to 10713
  140.3766  134.2332  155.7174 LP  0  0  0  0  0  0  0  0  0  0  0  0  # atno 17394 bound_to 11000
  141.1974  133.8060  157.0629 LP  0  0  0  0  0  0  0  0  0  0  0  0  # atno 17395 bound_to 11000

$$$$
