AV-unprocessed.smi:1079|AV-procd|sdf|4705|dock5
  -GOLD-   22720 3233D 1   1.00000     0.00000
 Structure written by MMmdl.
 43 44  0  0  0  0  0  0  0  0  2 V2000
  153.3934  142.6613  161.6994 C   0  0  0  0  0  0  0  0  0  0  0  0
  154.6148  142.1003  161.2537 O   0  0  0  0  0  0  0  0  0  0  0  0
  154.9405  140.8981  161.9320 C   0  0  0  0  0  0  0  0  0  0  0  0
  155.3717  139.8265  160.9163 C   0  0  0  0  0  0  0  0  0  0  0  0
  154.2081  139.1872  160.2626 N   0  0  0  0  0  0  0  0  0  0  0  0
  153.4621  139.9151  159.2962 C   0  0  0  0  0  0  0  0  0  0  0  0
  153.8270  141.2219  159.0051 N   0  0  0  0  0  0  0  0  0  0  0  0
  152.3847  139.3423  158.6946 C   0  0  0  0  0  0  0  0  0  0  0  0
  151.6409  140.0106  157.7005 N   0  0  0  0  0  0  0  0  0  0  0  0
  150.5792  140.9248  158.1536 C   0  0  0  0  0  0  0  0  0  0  0  0
  150.9933  142.3883  158.1517 C   0  0  0  0  0  0  0  0  0  0  0  0
  150.9385  143.1403  156.9590 C   0  0  0  0  0  0  0  0  0  0  0  0
  151.3165  144.4968  156.9577 C   0  0  0  0  0  0  0  0  0  0  0  0
  151.7550  145.1068  158.1487 C   0  0  0  0  0  0  0  0  0  0  0  0
  151.8151  144.3595  159.3408 C   0  0  0  0  0  0  0  0  0  0  0  0
  151.4360  143.0031  159.3422 C   0  0  0  0  0  0  0  0  0  0  0  0
  151.8003  139.7442  156.3769 C   0  0  0  0  0  0  0  0  0  0  0  0
  152.7990  138.6675  155.9339 C   0  0  0  0  0  0  0  0  0  0  0  0
  151.1457  140.3143  155.5029 O   0  0  0  0  0  0  0  0  0  0  0  0
  152.0351  137.9577  159.0391 C   0  0  0  0  0  0  0  0  0  0  0  0
  151.0943  137.3969  158.4771 O   0  0  0  0  0  0  0  0  0  0  0  0
  152.7829  137.3331  159.9861 N   0  5  0  0  0  0  0  0  0  0  0  0
  153.8491  137.9123  160.6072 C   0  0  0  0  0  0  0  0  0  0  0  0
  154.4955  137.3166  161.4704 O   0  0  0  0  0  0  0  0  0  0  0  0
  153.1897  143.5791  161.1482 H   0  0  0  0  0  0  0  0  0  0  0  0
  153.4373  142.9080  162.7610 H   0  0  0  0  0  0  0  0  0  0  0  0
  152.5607  141.9767  161.5320 H   0  0  0  0  0  0  0  0  0  0  0  0
  155.7586  141.0875  162.6281 H   0  0  0  0  0  0  0  0  0  0  0  0
  154.0912  140.5489  162.5215 H   0  0  0  0  0  0  0  0  0  0  0  0
  156.0697  140.2534  160.1968 H   0  0  0  0  0  0  0  0  0  0  0  0
  155.9718  139.0734  161.4296 H   0  0  0  0  0  0  0  0  0  0  0  0
  154.6099  141.6620  159.4662 H   0  0  0  0  0  0  0  0  0  0  0  0
  153.4921  141.6792  158.1692 H   0  0  0  0  0  0  0  0  0  0  0  0
  149.6857  140.7868  157.5420 H   0  0  0  0  0  0  0  0  0  0  0  0
  150.2724  140.6776  159.1713 H   0  0  0  0  0  0  0  0  0  0  0  0
  150.6058  142.6783  156.0412 H   0  0  0  0  0  0  0  0  0  0  0  0
  151.2692  145.0687  156.0427 H   0  0  0  0  0  0  0  0  0  0  0  0
  152.0450  146.1471  158.1478 H   0  0  0  0  0  0  0  0  0  0  0  0
  152.1501  144.8266  160.2550 H   0  0  0  0  0  0  0  0  0  0  0  0
  151.4801  142.4377  160.2615 H   0  0  0  0  0  0  0  0  0  0  0  0
  152.6558  137.7416  156.4918 H   0  0  0  0  0  0  0  0  0  0  0  0
  153.8246  139.0085  156.0739 H   0  0  0  0  0  0  0  0  0  0  0  0
  152.6677  138.4383  154.8758 H   0  0  0  0  0  0  0  0  0  0  0  0
  1  2  1  0  0  0  0
  1 25  1  0  0  0  0
  1 26  1  0  0  0  0
  1 27  1  0  0  0  0
  2  3  1  0  0  0  0
  3  4  1  0  0  0  0
  3 28  1  0  0  0  0
  3 29  1  0  0  0  0
  4  5  1  0  0  0  0
  4 30  1  0  0  0  0
  4 31  1  0  0  0  0
  5 23  1  0  0  0  0
  5  6  1  0  0  0  0
  6  7  1  0  0  0  0
  6  8  2  0  0  0  0
  7 32  1  0  0  0  0
  7 33  1  0  0  0  0
  8  9  1  0  0  0  0
  8 20  1  0  0  0  0
  9 10  1  0  0  0  0
  9 17  1  0  0  0  0
 10 11  1  0  0  0  0
 10 34  1  0  0  0  0
 10 35  1  0  0  0  0
 11 16  1  0  0  0  0
 11 12  2  0  0  0  0
 12 13  1  0  0  0  0
 12 36  1  0  0  0  0
 13 14  2  0  0  0  0
 13 37  1  0  0  0  0
 14 15  1  0  0  0  0
 14 38  1  0  0  0  0
 15 16  2  0  0  0  0
 15 39  1  0  0  0  0
 16 40  1  0  0  0  0
 17 18  1  0  0  0  0
 17 19  2  0  0  0  0
 18 41  1  0  0  0  0
 18 42  1  0  0  0  0
 18 43  1  0  0  0  0
 20 21  2  0  0  0  0
 20 22  1  0  0  0  0
 22 23  1  0  0  0  0
 23 24  2  0  0  0  0
M  CHG  1  22  -1
M  END
> <s_m_source_file>
AV-unprocessed.smi

> <i_m_source_file_index>
1079

> <i_lp_mmshare_version>
43012

> <i_f3d_flags>
0

> <s_epik_input>
W0NIM11PW0NIMl1bQ0gyXW4xYyhbTkgyXSljKGMoPU8pW25IXWMxPU8pTihDKD1PKVtDSDNdKVtDSDJdYzJbY0hdW2NIXVtjSF1bY0hdW2NIXTI=

> <s_epik_cmdline>
J2VwaWtfcHl0aG9uJywgJy1waCcsICc3LjAnLCAnLXRuJywgJzgnLCAnLW1hJywgJzIwMCcsICctbWV0YWxfYmluZGluZycsICctaW1hZScsICc8aW5maWxlLm1hZT4nLCAnLW9tYWUnLCAnPG91dGZpbGUubWFlPic=

> <r_lp_tautomer_probability>
1

> <r_epik_Ionization_Penalty>
7.02899

> <r_epik_Ionization_Penalty_Charging>
0.353543

> <r_epik_Ionization_Penalty_Neutral>
6.67545

> <r_epik_State_Penalty>
6.67544

> <r_epik_Charging_Adjusted_Penalty>
7.02899

> <i_epik_Tot_Q>
-1

> <i_epik_Tot_abs_Q>
1

> <r_epik_Metal_State_Penalty>
2.59023

> <b_epik_Metal_Only>
1

> <s_epik_Chemistry_Notes>
This compound has an imine and may undergo hydrolysis.

> <s_lp_Force_Field>
OPLS_2005

> <r_lp_Energy>
37.6248

> <b_lp_Chiralities_Consistent>
1

> <s_lp_Variant>
AV-unprocessed.smi:1079-2

> <Gold.Version>
5.8.1

> <Gold.Id.Protein>
6NUR|6NUR_protein|mol2

> <Gold.PLP.Fitness>
51.6327

> <Gold.PLP.PLP>
-46.4262

> <Gold.PLP.part.hbond>
-3.0000

> <Gold.PLP.part.metal>
0.0000

> <Gold.PLP.part.buried>
-4.0756

> <Gold.PLP.part.nonpolar>
-37.7537

> <Gold.PLP.part.repulsive>
0.2514

> <Gold.PLP.ligand.clash>
0.0000

> <Gold.PLP.ligand.torsion>
2.6916

> <Gold.PLP.Chemscore.Hbond>
2.8130

> <Gold.PLP.Chemscore.CHOScore>
0.0000

> <Gold.PLP.Chemscore.Metal>
0.0000

> <Gold.Chemscore.Hbonds>
donor molecule, donor type, donor heavy atom, donor atom, acceptor molecule, acceptor atom, score
      P1  H  7989  7998       L1    19  0.74

> <Gold.PLP.Chemscore.Internal.Correction>
2.1505

> <Gold.Rescore>
     Score         DG    S(hbond)    S(metal)    S(lipo)     H(rot)  DE(clash)    DE(int)     intcor
     11.65     -15.77       0.91        0.00     105.21       1.98       0.39       3.74       ----

> <Gold.Chemscore.Fitness>
11.6481

> <Gold.Chemscore.DG>
-15.7687

> <Gold.Chemscore.ZeroCoef>
-5.4800

> <Gold.Chemscore.Hbond>
0.9145

> <Gold.Chemscore.Metal>
0.0000

> <Gold.Chemscore.Lipo>
105.2072

> <Gold.Chemscore.Internal_Hbond>
0.0000

> <Gold.Chemscore.DEClash>
0.3850

> <Gold.Chemscore.DEInternal>
3.7357

> <Gold.Chemscore.Rot>
1.9824

> <Gold.Chemscore.Internal.Correction>
   9.000000E+99

> <Gold.Chemscore.Hbonds>
donor molecule, donor type, donor heavy atom, donor atom, acceptor molecule, acceptor atom, score
      P1  H  6896  6908       L1    22  0.02
      P1  H  7989  7998       L1    19  0.71

> <Gold.Chemscore.Hbond.Weighted>
-3.0544

> <Gold.Chemscore.Metal.Weighted>
-0.0000

> <Gold.Chemscore.Lipo.Weighted>
-12.3092

> <Gold.Chemscore.Internal_Hbond.Weighted>
0.0000

> <Gold.Chemscore.DEClash.Weighted>
0.3850

> <Gold.Chemscore.DEInternal.Weighted>
3.7357

> <Gold.Chemscore.Rot.Weighted>
5.0749

> <Gold.Chemscore.Internal.Correction.Weighted>
   9.000000E+99

> <Gold.Protein.RotatedTorsions>
[ 6907 6896 6895 6894 ] final -115.87 input  -60.11 | X-H torsion
[ 7974 7965 7964 7962 ] final   11.88 input  175.53 | X-H torsion
[ 8008 7997 7996 7995 ] final -159.77 input   59.86 | X-H torsion
[ 10167 10162 10161 10158 ] final  -87.85 input  -65.29 | X-H torsion
[ 10718 10713 10712 10709 ] final   43.22 input   66.30 | X-H torsion
[ 10763 10752 10751 10750 ] final  -48.12 input  -60.55 | X-H torsion
[ 11005 11000 10999 10996 ] final   53.74 input  -57.11 | X-H torsion

> <Gold.Protein.ActiveResidues>
 VAL166  LYS551  ARG553  GLY616  TRP617  ASP618  TYR619  PRO620  LYS621  CYS622 
 ASP623  PHE694  ASN695  SER759  ASP760  ASP761  ALA762  ILE779  LEU786  VAL792 
 PHE793  MET794  SER795  GLU796  ALA797  LYS798  CYS799  TRP800  GLU811  SER814 

> <Gold.Protein.RotatedAtoms>
  150.8011  133.8597  159.3228 H   0  0  0  0  0  0  0  0  0  0  0  0  # atno 6907 bound_to 6896
  151.6409  135.1011  160.0150 H   0  0  0  0  0  0  0  0  0  0  0  0  # atno 6908 bound_to 6896
  152.4098  133.6907  159.6423 H   0  0  0  0  0  0  0  0  0  0  0  0  # atno 6909 bound_to 6896
  146.2362  139.9420  142.8482 H   0  0  0  0  0  0  0  0  0  0  0  0  # atno 7974 bound_to 7965
  155.7675  140.0847  157.2125 H   0  0  0  0  0  0  0  0  0  0  0  0  # atno 8008 bound_to 7997
  154.3999  140.1531  156.2960 H   0  0  0  0  0  0  0  0  0  0  0  0  # atno 8009 bound_to 7997
  155.8780  140.3422  155.5870 H   0  0  0  0  0  0  0  0  0  0  0  0  # atno 8010 bound_to 7997
  140.3805  143.2751  151.9390 H   0  0  0  0  0  0  0  0  0  0  0  0  # atno 10167 bound_to 10162
  157.4135  130.7928  149.7451 H   0  0  0  0  0  0  0  0  0  0  0  0  # atno 10718 bound_to 10713
  154.0726  135.6602  153.4826 H   0  0  0  0  0  0  0  0  0  0  0  0  # atno 10763 bound_to 10752
  153.0385  135.5161  154.7551 H   0  0  0  0  0  0  0  0  0  0  0  0  # atno 10764 bound_to 10752
  154.6622  135.3016  154.9819 H   0  0  0  0  0  0  0  0  0  0  0  0  # atno 10765 bound_to 10752
  140.0742  134.5427  155.9013 H   0  0  0  0  0  0  0  0  0  0  0  0  # atno 11005 bound_to 11000
  145.1943  140.9826  143.4192 LP  0  0  0  0  0  0  0  0  0  0  0  0  # atno 17320 bound_to 7965
  144.9829  139.3765  143.6253 LP  0  0  0  0  0  0  0  0  0  0  0  0  # atno 17321 bound_to 7965
  139.4796  144.5823  151.7911 LP  0  0  0  0  0  0  0  0  0  0  0  0  # atno 17342 bound_to 10162
  140.4943  144.1264  150.5957 LP  0  0  0  0  0  0  0  0  0  0  0  0  # atno 17343 bound_to 10162
  155.9858  130.3980  150.3244 LP  0  0  0  0  0  0  0  0  0  0  0  0  # atno 17370 bound_to 10713
  157.1385  131.0290  151.2938 LP  0  0  0  0  0  0  0  0  0  0  0  0  # atno 17371 bound_to 10713
  141.2023  133.6624  156.6001 LP  0  0  0  0  0  0  0  0  0  0  0  0  # atno 17394 bound_to 11000
  140.3581  134.7711  157.4515 LP  0  0  0  0  0  0  0  0  0  0  0  0  # atno 17395 bound_to 11000

$$$$
