AV-unprocessed.smi:2340|AV-procd|sdf|9344|dock6
  -GOLD-   2272012563D 1   1.00000     0.00000
 Structure written by MMmdl.
 40 41  0  0  0  0  0  0  0  0  1 V2000
  145.0135  135.1929  150.6778 C   0  0  0  0  0  0  0  0  0  0  0  0
  145.5761  133.9292  151.2481 C   0  0  0  0  0  0  0  0  0  0  0  0
  145.0573  132.6647  151.1249 C   0  0  0  0  0  0  0  0  0  0  0  0
  146.0272  131.4810  151.9568 S   0  0  0  0  0  0  0  0  0  0  0  0
  147.1289  132.7677  152.4415 C   0  0  0  0  0  0  0  0  0  0  0  0
  148.3410  132.5432  153.2958 C   0  0  2  0  0  0  0  0  0  0  0  0
  148.5099  131.0643  153.6720 C   0  0  0  0  0  0  0  0  0  0  0  0
  148.3748  133.4683  154.5276 C   0  0  0  0  0  0  0  0  0  0  0  0
  148.7794  134.8216  154.1649 N   0  0  0  0  0  0  0  0  0  0  0  0
  149.1249  135.7747  155.0380 C   0  0  0  0  0  0  0  0  0  0  0  0
  149.1644  135.6122  156.2577 O   0  0  0  0  0  0  0  0  0  0  0  0
  149.4195  136.9258  154.4200 N   0  0  0  0  0  0  0  0  0  0  0  0
  149.8383  138.1539  155.0874 C   0  0  2  0  0  0  0  0  0  0  0  0
  148.9800  139.3318  154.6746 C   0  0  0  0  0  0  0  0  0  0  0  0
  149.9018  140.5102  154.9656 C   0  0  0  0  0  0  0  0  0  0  0  0
  151.2244  140.0352  154.7386 O   0  0  0  0  0  0  0  0  0  0  0  0
  151.2313  138.6134  154.6358 C   0  0  1  0  0  0  0  0  0  0  0  0
  152.3876  138.0311  155.4580 C   0  0  0  0  0  0  0  0  0  0  0  0
  146.7540  133.9716  151.9993 N   0  0  0  0  0  0  0  0  0  0  0  0
  144.0590  135.0162  150.1815 H   0  0  0  0  0  0  0  0  0  0  0  0
  145.6913  135.6288  149.9436 H   0  0  0  0  0  0  0  0  0  0  0  0
  144.8459  135.9365  151.4573 H   0  0  0  0  0  0  0  0  0  0  0  0
  144.1645  132.3584  150.5999 H   0  0  0  0  0  0  0  0  0  0  0  0
  149.2065  132.8053  152.6847 H   0  0  0  0  0  0  0  0  0  0  0  0
  148.5613  130.4373  152.7812 H   0  0  0  0  0  0  0  0  0  0  0  0
  147.6779  130.7103  154.2813 H   0  0  0  0  0  0  0  0  0  0  0  0
  149.4271  130.9073  154.2402 H   0  0  0  0  0  0  0  0  0  0  0  0
  147.3861  133.4978  154.9895 H   0  0  0  0  0  0  0  0  0  0  0  0
  149.0639  133.0777  155.2775 H   0  0  0  0  0  0  0  0  0  0  0  0
  148.7771  135.0505  153.1814 H   0  0  0  0  0  0  0  0  0  0  0  0
  149.3538  136.9554  153.4132 H   0  0  0  0  0  0  0  0  0  0  0  0
  149.8007  138.0528  156.1742 H   0  0  0  0  0  0  0  0  0  0  0  0
  148.7597  139.2926  153.6063 H   0  0  0  0  0  0  0  0  0  0  0  0
  148.0353  139.3866  155.2163 H   0  0  0  0  0  0  0  0  0  0  0  0
  149.6771  141.3799  154.3475 H   0  0  0  0  0  0  0  0  0  0  0  0
  149.8169  140.8066  156.0118 H   0  0  0  0  0  0  0  0  0  0  0  0
  151.3750  138.3733  153.5809 H   0  0  0  0  0  0  0  0  0  0  0  0
  152.4251  136.9453  155.3708 H   0  0  0  0  0  0  0  0  0  0  0  0
  152.2851  138.2796  156.5146 H   0  0  0  0  0  0  0  0  0  0  0  0
  153.3447  138.4231  155.1140 H   0  0  0  0  0  0  0  0  0  0  0  0
  1  2  1  0  0  0  0
  1 20  1  0  0  0  0
  1 21  1  0  0  0  0
  1 22  1  0  0  0  0
  2 19  1  0  0  0  0
  2  3  2  0  0  0  0
  3  4  1  0  0  0  0
  3 23  1  0  0  0  0
  4  5  1  0  0  0  0
  5  6  1  0  0  0  0
  5 19  2  0  0  0  0
  6  7  1  0  0  0  0
  6  8  1  0  0  0  0
  6 24  1  0  0  0  0
  7 25  1  0  0  0  0
  7 26  1  0  0  0  0
  7 27  1  0  0  0  0
  8  9  1  0  0  0  0
  8 28  1  0  0  0  0
  8 29  1  0  0  0  0
  9 10  1  0  0  0  0
  9 30  1  0  0  0  0
 10 11  2  0  0  0  0
 10 12  1  0  0  0  0
 12 13  1  0  0  0  0
 12 31  1  0  0  0  0
 13 17  1  0  0  0  0
 13 14  1  0  0  0  0
 13 32  1  0  0  0  0
 14 15  1  0  0  0  0
 14 33  1  0  0  0  0
 14 34  1  0  0  0  0
 15 16  1  0  0  0  0
 15 35  1  0  0  0  0
 15 36  1  0  0  0  0
 16 17  1  0  0  0  0
 17 18  1  0  0  0  0
 17 37  1  0  0  0  0
 18 38  1  0  0  0  0
 18 39  1  0  0  0  0
 18 40  1  0  0  0  0
M  END
> <s_m_source_file>
AV-unprocessed.smi

> <i_m_source_file_index>
2340

> <i_lp_mmshare_version>
43012

> <i_f3d_flags>
0

> <s_epik_input>
W0NIM11jMVtjSF1zYyhuMSlbQ0BIXShbQ0gzXSlbQ0gyXVtOSF1DKD1PKVtOSF1bQ0BASF0yW0NIMl1bQ0gyXU9bQ0BIXTJbQ0gzXQ==

> <s_epik_cmdline>
J2VwaWtfcHl0aG9uJywgJy1waCcsICc3LjAnLCAnLXRuJywgJzgnLCAnLW1hJywgJzIwMCcsICctbWV0YWxfYmluZGluZycsICctaW1hZScsICc8aW5maWxlLm1hZT4nLCAnLW9tYWUnLCAnPG91dGZpbGUubWFlPic=

> <r_epik_Ionization_Penalty>
0.00156622

> <r_epik_Ionization_Penalty_Charging>
0

> <r_epik_Ionization_Penalty_Neutral>
0.00156622

> <r_epik_State_Penalty>
0.00101902

> <r_epik_Charging_Adjusted_Penalty>
0.00101902

> <i_epik_Tot_Q>
0

> <i_epik_Tot_abs_Q>
0

> <r_epik_Metal_State_Penalty>
-0

> <b_epik_Metal_Only>
0

> <s_lp_Force_Field>
OPLS_2005

> <r_lp_Energy>
4.8577

> <b_lp_Chiralities_Consistent>
1

> <s_lp_Variant>
AV-unprocessed.smi:2340-1

> <Gold.Version>
5.8.1

> <Gold.Id.Protein>
6NUR|6NUR_protein|mol2

> <Gold.PLP.Fitness>
42.5399

> <Gold.PLP.PLP>
-34.1533

> <Gold.PLP.part.hbond>
-2.9670

> <Gold.PLP.part.metal>
0.0000

> <Gold.PLP.part.buried>
-4.4166

> <Gold.PLP.part.nonpolar>
-27.8071

> <Gold.PLP.part.repulsive>
0.2941

> <Gold.PLP.ligand.clash>
0.0000

> <Gold.PLP.ligand.torsion>
0.3496

> <Gold.PLP.Chemscore.Hbond>
2.9913

> <Gold.PLP.Chemscore.CHOScore>
0.0000

> <Gold.PLP.Chemscore.Metal>
0.0000

> <Gold.Chemscore.Hbonds>
donor molecule, donor type, donor heavy atom, donor atom, acceptor molecule, acceptor atom, score
      L1  H     9    30       P1  7948  1.00
      L1  H    12    31       P1  7948  1.00
      P1  H  7989  7998       L1    16  1.00

> <Gold.PLP.Chemscore.Internal.Correction>
0.1121

> <Gold.Rescore>
     Score         DG    S(hbond)    S(metal)    S(lipo)     H(rot)  DE(clash)    DE(int)     intcor
     18.67     -19.18       2.52        0.00      78.64       1.53       0.04       0.48       ----

> <Gold.Chemscore.Fitness>
18.6708

> <Gold.Chemscore.DG>
-19.1832

> <Gold.Chemscore.ZeroCoef>
-5.4800

> <Gold.Chemscore.Hbond>
2.5225

> <Gold.Chemscore.Metal>
0.0000

> <Gold.Chemscore.Lipo>
78.6441

> <Gold.Chemscore.Internal_Hbond>
0.0000

> <Gold.Chemscore.DEClash>
0.0354

> <Gold.Chemscore.DEInternal>
0.4770

> <Gold.Chemscore.Rot>
1.5325

> <Gold.Chemscore.Internal.Correction>
   9.000000E+99

> <Gold.Chemscore.Hbonds>
donor molecule, donor type, donor heavy atom, donor atom, acceptor molecule, acceptor atom, score
      L1  H     9    30       P1  7948  0.48
      L1  H    12    31       P1  7948  0.91
      P1  H  7989  7998       L1    16  0.32

> <Gold.Chemscore.Hbond.Weighted>
-8.4251

> <Gold.Chemscore.Metal.Weighted>
-0.0000

> <Gold.Chemscore.Lipo.Weighted>
-9.2014

> <Gold.Chemscore.Internal_Hbond.Weighted>
0.0000

> <Gold.Chemscore.DEClash.Weighted>
0.0354

> <Gold.Chemscore.DEInternal.Weighted>
0.4770

> <Gold.Chemscore.Rot.Weighted>
3.9233

> <Gold.Chemscore.Internal.Correction.Weighted>
   9.000000E+99

> <Gold.Protein.RotatedTorsions>
[ 6907 6896 6895 6894 ] final  -55.22 input  -60.11 | X-H torsion
[ 7974 7965 7964 7962 ] final  -80.16 input  175.53 | X-H torsion
[ 8008 7997 7996 7995 ] final -149.28 input   59.86 | X-H torsion
[ 10167 10162 10161 10158 ] final  116.62 input  -65.29 | X-H torsion
[ 10718 10713 10712 10709 ] final  -95.08 input   66.30 | X-H torsion
[ 10763 10752 10751 10750 ] final   61.61 input  -60.55 | X-H torsion
[ 11005 11000 10999 10996 ] final -179.90 input  -57.11 | X-H torsion

> <Gold.Protein.ActiveResidues>
 VAL166  LYS551  ARG553  GLY616  TRP617  ASP618  TYR619  PRO620  LYS621  CYS622 
 ASP623  PHE694  ASN695  SER759  ASP760  ASP761  ALA762  ILE779  LEU786  VAL792 
 PHE793  MET794  SER795  GLU796  ALA797  LYS798  CYS799  TRP800  GLU811  SER814 

> <Gold.Protein.RotatedAtoms>
  150.8270  134.7505  159.6820 H   0  0  0  0  0  0  0  0  0  0  0  0  # atno 6907 bound_to 6896
  152.4379  134.5645  159.9913 H   0  0  0  0  0  0  0  0  0  0  0  0  # atno 6908 bound_to 6896
  151.5815  133.3339  159.3045 H   0  0  0  0  0  0  0  0  0  0  0  0  # atno 6909 bound_to 6896
  145.5637  140.9478  143.1433 H   0  0  0  0  0  0  0  0  0  0  0  0  # atno 7974 bound_to 7965
  155.6051  140.0666  157.2722 H   0  0  0  0  0  0  0  0  0  0  0  0  # atno 8008 bound_to 7997
  154.4268  140.1811  156.1261 H   0  0  0  0  0  0  0  0  0  0  0  0  # atno 8009 bound_to 7997
  156.0128  140.3325  155.6962 H   0  0  0  0  0  0  0  0  0  0  0  0  # atno 8010 bound_to 7997
  139.6234  144.7104  151.2585 H   0  0  0  0  0  0  0  0  0  0  0  0  # atno 10167 bound_to 10162
  156.0037  130.5094  150.6023 H   0  0  0  0  0  0  0  0  0  0  0  0  # atno 10718 bound_to 10713
  152.9956  135.5494  154.6062 H   0  0  0  0  0  0  0  0  0  0  0  0  # atno 10763 bound_to 10752
  154.5392  135.2818  155.1113 H   0  0  0  0  0  0  0  0  0  0  0  0  # atno 10764 bound_to 10752
  154.2397  135.6418  153.5255 H   0  0  0  0  0  0  0  0  0  0  0  0  # atno 10765 bound_to 10752
  140.4135  134.6670  157.4627 H   0  0  0  0  0  0  0  0  0  0  0  0  # atno 11005 bound_to 11000
  144.7471  139.7292  143.7288 LP  0  0  0  0  0  0  0  0  0  0  0  0  # atno 17320 bound_to 7965
  146.1833  139.5036  142.9852 LP  0  0  0  0  0  0  0  0  0  0  0  0  # atno 17321 bound_to 7965
  140.7396  143.6612  150.8162 LP  0  0  0  0  0  0  0  0  0  0  0  0  # atno 17342 bound_to 10162
  140.0227  143.5526  152.2794 LP  0  0  0  0  0  0  0  0  0  0  0  0  # atno 17343 bound_to 10162
  157.3870  131.0790  151.1427 LP  0  0  0  0  0  0  0  0  0  0  0  0  # atno 17370 bound_to 10713
  157.2132  130.6447  149.5782 LP  0  0  0  0  0  0  0  0  0  0  0  0  # atno 17371 bound_to 10713
  140.0250  134.6490  155.9185 LP  0  0  0  0  0  0  0  0  0  0  0  0  # atno 17394 bound_to 11000
  141.1812  133.6547  156.5027 LP  0  0  0  0  0  0  0  0  0  0  0  0  # atno 17395 bound_to 11000

$$$$
