AV-unprocessed.smi:170|AV-procd|sdf|1407|dock10
  -GOLD-   2262019163D 1   1.00000     0.00000
 Structure written by MMmdl.
 57 61  0  0  0  0  0  0  0  0  1 V2000
  151.2502  144.0464  156.6408 O   0  0  0  0  0  0  0  0  0  0  0  0
  150.9374  142.9843  157.5227 C   0  0  1  0  0  0  0  0  0  0  0  0
  151.9855  141.8596  157.4150 C   0  0  0  0  0  0  0  0  0  0  0  0
  151.3801  140.5403  157.4131 N   0  0  0  0  0  0  0  0  0  0  0  0
  150.4986  140.0359  156.4843 C   0  0  0  0  0  0  0  0  0  0  0  0
  150.0947  138.8152  156.7081 N   0  0  0  0  0  0  0  0  0  0  0  0
  150.7445  138.4524  157.8823 C   0  0  0  0  0  0  0  0  0  0  0  0
  150.7640  137.2806  158.6916 C   0  0  0  0  0  0  0  0  0  0  0  0
  150.0596  136.1534  158.4429 N   0  0  0  0  0  0  0  0  0  0  0  0
  150.0627  135.8493  157.0169 C   0  0  0  0  0  0  0  0  0  0  0  0
  149.4271  134.4760  156.7657 C   0  0  0  0  0  0  0  0  0  0  0  0
  148.1136  134.4699  157.3081 O   0  0  0  0  0  0  0  0  0  0  0  0
  148.1180  134.6755  158.7165 C   0  0  0  0  0  0  0  0  0  0  0  0
  148.7320  136.0526  159.0631 C   0  0  1  0  0  0  0  0  0  0  0  0
  148.7776  136.2879  160.5956 C   0  0  0  0  0  0  0  0  0  0  0  0
  147.4715  135.9624  161.3169 C   0  0  0  0  0  0  0  0  0  0  0  0
  147.3515  136.2069  162.8291 C   0  0  0  0  0  0  0  0  0  0  0  0
  146.4624  134.9633  162.9118 C   0  0  0  0  0  0  0  0  0  0  0  0
  147.1064  134.4980  161.6028 C   0  0  0  0  0  0  0  0  0  0  0  0
  151.5525  137.2817  159.7941 N   0  0  0  0  0  0  0  0  0  0  0  0
  152.2709  138.3664  160.1008 C   0  0  0  0  0  0  0  0  0  0  0  0
  152.3477  139.5294  159.4499 N   0  0  0  0  0  0  0  0  0  0  0  0
  151.5615  139.5258  158.3352 C   0  0  0  0  0  0  0  0  0  0  0  0
  150.7764  143.5127  158.9617 C   0  0  2  0  0  0  0  0  0  0  0  0
  150.3308  144.9780  159.1039 C   0  0  0  0  0  0  0  0  0  0  0  0
  151.3054  145.5601  160.1165 C   0  0  0  0  0  0  0  0  0  0  0  0
  151.9272  144.3271  160.7626 C   0  0  0  0  0  0  0  0  0  0  0  0
  151.9941  143.4038  159.6894 O   0  0  0  0  0  0  0  0  0  0  0  0
  150.5599  144.1122  155.9987 H   0  0  0  0  0  0  0  0  0  0  0  0
  149.9722  142.5892  157.2031 H   0  0  0  0  0  0  0  0  0  0  0  0
  152.5798  141.9712  156.5070 H   0  0  0  0  0  0  0  0  0  0  0  0
  152.6826  141.9127  158.2524 H   0  0  0  0  0  0  0  0  0  0  0  0
  150.1608  140.6066  155.6314 H   0  0  0  0  0  0  0  0  0  0  0  0
  149.5086  136.6184  156.4763 H   0  0  0  0  0  0  0  0  0  0  0  0
  151.0842  135.8579  156.6335 H   0  0  0  0  0  0  0  0  0  0  0  0
  149.3722  134.2765  155.6954 H   0  0  0  0  0  0  0  0  0  0  0  0
  150.0249  133.6791  157.2110 H   0  0  0  0  0  0  0  0  0  0  0  0
  147.0854  134.6148  159.0582 H   0  0  0  0  0  0  0  0  0  0  0  0
  148.6643  133.8686  159.2081 H   0  0  0  0  0  0  0  0  0  0  0  0
  148.0930  136.8139  158.6157 H   0  0  0  0  0  0  0  0  0  0  0  0
  149.5900  135.7012  161.0260 H   0  0  0  0  0  0  0  0  0  0  0  0
  149.0282  137.3281  160.8041 H   0  0  0  0  0  0  0  0  0  0  0  0
  146.6208  136.4301  160.8173 H   0  0  0  0  0  0  0  0  0  0  0  0
  148.3003  136.0826  163.3547 H   0  0  0  0  0  0  0  0  0  0  0  0
  146.8605  137.1413  163.1023 H   0  0  0  0  0  0  0  0  0  0  0  0
  146.6537  134.3194  163.7707 H   0  0  0  0  0  0  0  0  0  0  0  0
  145.4012  135.1935  162.8033 H   0  0  0  0  0  0  0  0  0  0  0  0
  146.4160  134.0515  160.8865 H   0  0  0  0  0  0  0  0  0  0  0  0
  147.9800  133.8648  161.7671 H   0  0  0  0  0  0  0  0  0  0  0  0
  152.8688  138.2924  160.9972 H   0  0  0  0  0  0  0  0  0  0  0  0
  150.0480  142.8867  159.4808 H   0  0  0  0  0  0  0  0  0  0  0  0
  150.3650  145.5345  158.1667 H   0  0  0  0  0  0  0  0  0  0  0  0
  149.3060  145.0252  159.4737 H   0  0  0  0  0  0  0  0  0  0  0  0
  152.0773  146.1300  159.5978 H   0  0  0  0  0  0  0  0  0  0  0  0
  150.8268  146.2204  160.8401 H   0  0  0  0  0  0  0  0  0  0  0  0
  152.9114  144.5239  161.1879 H   0  0  0  0  0  0  0  0  0  0  0  0
  151.2831  143.9298  161.5487 H   0  0  0  0  0  0  0  0  0  0  0  0
  1  2  1  0  0  0  0
  1 29  1  0  0  0  0
  2  3  1  0  0  0  0
  2 24  1  0  0  0  0
  2 30  1  0  0  0  0
  3  4  1  0  0  0  0
  3 31  1  0  0  0  0
  3 32  1  0  0  0  0
  4 23  1  0  0  0  0
  4  5  1  0  0  0  0
  5  6  2  0  0  0  0
  5 33  1  0  0  0  0
  6  7  1  0  0  0  0
  7 23  2  0  0  0  0
  7  8  1  0  0  0  0
  8  9  1  0  0  0  0
  8 20  2  0  0  0  0
  9 14  1  0  0  0  0
  9 10  1  0  0  0  0
 10 11  1  0  0  0  0
 10 34  1  0  0  0  0
 10 35  1  0  0  0  0
 11 12  1  0  0  0  0
 11 36  1  0  0  0  0
 11 37  1  0  0  0  0
 12 13  1  0  0  0  0
 13 14  1  0  0  0  0
 13 38  1  0  0  0  0
 13 39  1  0  0  0  0
 14 15  1  0  0  0  0
 14 40  1  0  0  0  0
 15 16  1  0  0  0  0
 15 41  1  0  0  0  0
 15 42  1  0  0  0  0
 16 19  1  0  0  0  0
 16 17  1  0  0  0  0
 16 43  1  0  0  0  0
 17 18  1  0  0  0  0
 17 44  1  0  0  0  0
 17 45  1  0  0  0  0
 18 19  1  0  0  0  0
 18 46  1  0  0  0  0
 18 47  1  0  0  0  0
 19 48  1  0  0  0  0
 19 49  1  0  0  0  0
 20 21  1  0  0  0  0
 21 22  2  0  0  0  0
 21 50  1  0  0  0  0
 22 23  1  0  0  0  0
 24 28  1  0  0  0  0
 24 25  1  0  0  0  0
 24 51  1  0  0  0  0
 25 26  1  0  0  0  0
 25 52  1  0  0  0  0
 25 53  1  0  0  0  0
 26 27  1  0  0  0  0
 26 54  1  0  0  0  0
 26 55  1  0  0  0  0
 27 28  1  0  0  0  0
 27 56  1  0  0  0  0
 27 57  1  0  0  0  0
M  END
> <s_m_source_file>
AV-unprocessed.smi

> <i_m_source_file_index>
170

> <i_lp_mmshare_version>
43012

> <i_f3d_flags>
0

> <s_epik_input>
TzFbQ0gyXVtDSDJdW0NIMl1bQ0BIXTFbQ0BIXShbT0hdKVtDSDJdbihbY0hdbjIpYyhjMjMpbltjSF1uYzNONFtDSDJdW0NIMl1PW0NIMl1bQ0BIXTRbQ0gyXVtDSF01W0NIMl1bQ0gyXVtDSDJdNQ==

> <s_epik_cmdline>
J2VwaWtfcHl0aG9uJywgJy1waCcsICc3LjAnLCAnLXRuJywgJzgnLCAnLW1hJywgJzIwMCcsICctbWV0YWxfYmluZGluZycsICctaW1hZScsICc8aW5maWxlLm1hZT4nLCAnLW9tYWUnLCAnPG91dGZpbGUubWFlPic=

> <r_lp_tautomer_probability>
1

> <r_epik_Ionization_Penalty>
4.98275e-05

> <r_epik_Ionization_Penalty_Charging>
0

> <r_epik_Ionization_Penalty_Neutral>
4.98275e-05

> <r_epik_State_Penalty>
-0

> <r_epik_Charging_Adjusted_Penalty>
0

> <i_epik_Tot_Q>
0

> <i_epik_Tot_abs_Q>
0

> <r_epik_Metal_State_Penalty>
-0

> <b_epik_Metal_Only>
0

> <s_lp_Force_Field>
OPLS_2005

> <r_lp_Energy>
52.7393

> <b_lp_Chiralities_Consistent>
1

> <s_lp_Variant>
AV-unprocessed.smi:170-2

> <Gold.Version>
5.8.1

> <Gold.Id.Protein>
6NUR|6NUR_protein|mol2

> <Gold.PLP.Fitness>
47.2082

> <Gold.PLP.PLP>
-45.2586

> <Gold.PLP.part.hbond>
-2.0000

> <Gold.PLP.part.metal>
0.0000

> <Gold.PLP.part.buried>
-9.5874

> <Gold.PLP.part.nonpolar>
-33.5296

> <Gold.PLP.part.repulsive>
0.0000

> <Gold.PLP.ligand.clash>
0.0000

> <Gold.PLP.ligand.torsion>
2.1568

> <Gold.PLP.Chemscore.Hbond>
2.0000

> <Gold.PLP.Chemscore.CHOScore>
0.0000

> <Gold.PLP.Chemscore.Metal>
0.0000

> <Gold.Chemscore.Hbonds>
donor molecule, donor type, donor heavy atom, donor atom, acceptor molecule, acceptor atom, score
      L1  H     1    29       P1  8028  0.91
      P1  H  6896  6907       L1     9  0.33

> <Gold.PLP.Chemscore.Internal.Correction>
0.2631

> <Gold.Rescore>
     Score         DG    S(hbond)    S(metal)    S(lipo)     H(rot)  DE(clash)    DE(int)     intcor
     14.80     -16.72       1.93        0.00      98.13       2.61       0.07       1.85       ----

> <Gold.Chemscore.Fitness>
14.8044

> <Gold.Chemscore.DG>
-16.7238

> <Gold.Chemscore.ZeroCoef>
-5.4800

> <Gold.Chemscore.Hbond>
1.9327

> <Gold.Chemscore.Metal>
0.0000

> <Gold.Chemscore.Lipo>
98.1323

> <Gold.Chemscore.Internal_Hbond>
0.0000

> <Gold.Chemscore.DEClash>
0.0673

> <Gold.Chemscore.DEInternal>
1.8521

> <Gold.Chemscore.Rot>
2.6144

> <Gold.Chemscore.Internal.Correction>
   9.000000E+99

> <Gold.Chemscore.Hbonds>
donor molecule, donor type, donor heavy atom, donor atom, acceptor molecule, acceptor atom, score
      L1  H     1    29       P1  8028  0.88

> <Gold.Chemscore.Hbond.Weighted>
-6.4553

> <Gold.Chemscore.Metal.Weighted>
-0.0000

> <Gold.Chemscore.Lipo.Weighted>
-11.4815

> <Gold.Chemscore.Internal_Hbond.Weighted>
0.0000

> <Gold.Chemscore.DEClash.Weighted>
0.0673

> <Gold.Chemscore.DEInternal.Weighted>
1.8521

> <Gold.Chemscore.Rot.Weighted>
6.6929

> <Gold.Chemscore.Internal.Correction.Weighted>
   9.000000E+99

> <Gold.Protein.RotatedTorsions>
[ 6907 6896 6895 6894 ] final  -22.67 input  -60.11 | X-H torsion
[ 7974 7965 7964 7962 ] final  -12.88 input  175.53 | X-H torsion
[ 8008 7997 7996 7995 ] final  111.58 input   59.86 | X-H torsion
[ 10167 10162 10161 10158 ] final  146.48 input  -65.29 | X-H torsion
[ 10718 10713 10712 10709 ] final  157.84 input   66.30 | X-H torsion
[ 10763 10752 10751 10750 ] final  142.81 input  -60.55 | X-H torsion
[ 11005 11000 10999 10996 ] final  131.31 input  -57.11 | X-H torsion

> <Gold.Protein.ActiveResidues>
 VAL166  LYS551  ARG553  GLY616  TRP617  ASP618  TYR619  PRO620  LYS621  CYS622 
 ASP623  PHE694  ASN695  SER759  ASP760  ASP761  ALA762  ILE779  LEU786  VAL792 
 PHE793  MET794  SER795  GLU796  ALA797  LYS798  CYS799  TRP800  GLU811  SER814 

> <Gold.Protein.RotatedAtoms>
  151.2153  135.0497  159.8927 H   0  0  0  0  0  0  0  0  0  0  0  0  # atno 6907 bound_to 6896
  152.5421  134.0700  159.8200 H   0  0  0  0  0  0  0  0  0  0  0  0  # atno 6908 bound_to 6896
  151.0859  133.5305  159.2649 H   0  0  0  0  0  0  0  0  0  0  0  0  # atno 6909 bound_to 6896
  146.2135  140.3123  142.8383 H   0  0  0  0  0  0  0  0  0  0  0  0  # atno 7974 bound_to 7965
  156.2134  140.3016  155.9783 H   0  0  0  0  0  0  0  0  0  0  0  0  # atno 8008 bound_to 7997
  155.2668  140.0432  157.3020 H   0  0  0  0  0  0  0  0  0  0  0  0  # atno 8009 bound_to 7997
  154.5732  140.2354  155.8170 H   0  0  0  0  0  0  0  0  0  0  0  0  # atno 8010 bound_to 7997
  139.4906  144.5826  151.6841 H   0  0  0  0  0  0  0  0  0  0  0  0  # atno 10167 bound_to 10162
  157.1860  131.0643  151.2105 H   0  0  0  0  0  0  0  0  0  0  0  0  # atno 10718 bound_to 10713
  153.9620  135.2959  155.3433 H   0  0  0  0  0  0  0  0  0  0  0  0  # atno 10763 bound_to 10752
  154.7369  135.5042  153.9060 H   0  0  0  0  0  0  0  0  0  0  0  0  # atno 10764 bound_to 10752
  153.0942  135.6716  153.9906 H   0  0  0  0  0  0  0  0  0  0  0  0  # atno 10765 bound_to 10752
  139.9723  134.9574  156.9420 H   0  0  0  0  0  0  0  0  0  0  0  0  # atno 11005 bound_to 11000
  144.8979  140.7606  143.5885 LP  0  0  0  0  0  0  0  0  0  0  0  0  # atno 17320 bound_to 7965
  145.3047  139.1838  143.4670 LP  0  0  0  0  0  0  0  0  0  0  0  0  # atno 17321 bound_to 7965
  140.5436  144.0540  150.6098 LP  0  0  0  0  0  0  0  0  0  0  0  0  # atno 17342 bound_to 10162
  140.3570  143.2930  152.0425 LP  0  0  0  0  0  0  0  0  0  0  0  0  # atno 17343 bound_to 10162
  157.3906  130.7280  149.6695 LP  0  0  0  0  0  0  0  0  0  0  0  0  # atno 17370 bound_to 10713
  155.9718  130.4147  150.4147 LP  0  0  0  0  0  0  0  0  0  0  0  0  # atno 17371 bound_to 10713
  140.5268  134.0853  155.7305 LP  0  0  0  0  0  0  0  0  0  0  0  0  # atno 17394 bound_to 11000
  141.1402  133.9152  157.2343 LP  0  0  0  0  0  0  0  0  0  0  0  0  # atno 17395 bound_to 11000

$$$$
