AV-unprocessed.smi:1278|AV-procd|sdf|5353|dock1
  -GOLD-   22720 4483D 1   1.00000     0.00000
 Structure written by MMmdl.
 38 39  0  0  0  0  0  0  0  0  3 V2000
  147.9495  133.3258  152.8407 C   0  0  0  0  0  0  0  0  0  0  0  0
  148.1342  133.3384  154.3686 C   0  0  2  0  0  0  0  0  0  0  0  0
  146.9650  134.0170  155.1057 C   0  0  0  0  0  0  0  0  0  0  0  0
  147.0128  135.5424  154.9392 C   0  0  0  0  0  0  0  0  0  0  0  0
  148.3839  136.1001  155.3518 C   0  0  0  0  0  0  0  0  0  0  0  0
  149.4806  135.4461  154.5927 N   0  3  1  0  0  0  0  0  0  0  0  0
  150.7994  136.0674  154.8686 C   0  0  0  0  0  0  0  0  0  0  0  0
  150.7551  137.6036  154.7658 C   0  0  0  0  0  0  0  0  0  0  0  0
  151.4974  138.2290  155.8533 N   0  0  0  0  0  0  0  0  0  0  0  0
  151.7037  139.5453  156.0022 C   0  0  0  0  0  0  0  0  0  0  0  0
  151.2436  140.3362  155.1752 O   0  0  0  0  0  0  0  0  0  0  0  0
  152.4325  139.8609  157.0958 N   0  5  0  0  0  0  0  0  0  0  0  0
  152.2722  141.0559  157.6875 C   0  0  0  0  0  0  0  0  0  0  0  0
  152.7877  141.3507  158.8862 N   0  0  0  0  0  0  0  0  0  0  0  0
  152.5024  142.6502  159.3091 C   0  0  0  0  0  0  0  0  0  0  0  0
  151.7594  143.3643  158.4069 C   0  0  0  0  0  0  0  0  0  0  0  0
  151.3939  142.4201  156.9912 S   0  0  0  0  0  0  0  0  0  0  0  0
  149.4777  133.9704  154.7889 C   0  0  0  0  0  0  0  0  0  0  0  0
  147.9469  134.3319  152.4216 H   0  0  0  0  0  0  0  0  0  0  0  0
  147.0087  132.8489  152.5644 H   0  0  0  0  0  0  0  0  0  0  0  0
  148.7523  132.7701  152.3548 H   0  0  0  0  0  0  0  0  0  0  0  0
  148.1522  132.2940  154.6833 H   0  0  0  0  0  0  0  0  0  0  0  0
  146.0093  133.6261  154.7544 H   0  0  0  0  0  0  0  0  0  0  0  0
  147.0224  133.7746  156.1678 H   0  0  0  0  0  0  0  0  0  0  0  0
  146.8020  135.8118  153.9039 H   0  0  0  0  0  0  0  0  0  0  0  0
  146.2291  136.0048  155.5398 H   0  0  0  0  0  0  0  0  0  0  0  0
  148.3979  137.1756  155.1701 H   0  0  0  0  0  0  0  0  0  0  0  0
  148.5453  135.9569  156.4216 H   0  0  0  0  0  0  0  0  0  0  0  0
  151.1164  135.8099  155.8803 H   0  0  0  0  0  0  0  0  0  0  0  0
  151.5487  135.6453  154.1971 H   0  0  0  0  0  0  0  0  0  0  0  0
  151.1517  137.9572  153.8140 H   0  0  0  0  0  0  0  0  0  0  0  0
  149.7227  137.9498  154.8191 H   0  0  0  0  0  0  0  0  0  0  0  0
  151.8865  137.6173  156.5561 H   0  0  0  0  0  0  0  0  0  0  0  0
  152.8698  142.9840  160.2682 H   0  0  0  0  0  0  0  0  0  0  0  0
  151.4078  144.3817  158.4865 H   0  0  0  0  0  0  0  0  0  0  0  0
  149.6723  133.7530  155.8404 H   0  0  0  0  0  0  0  0  0  0  0  0
  150.2854  133.5043  154.2259 H   0  0  0  0  0  0  0  0  0  0  0  0
  149.2867  135.6148  153.6160 H   0  0  0  0  0  0  0  0  0  0  0  0
  1  2  1  0  0  0  0
  1 19  1  0  0  0  0
  1 20  1  0  0  0  0
  1 21  1  0  0  0  0
  2 18  1  0  0  0  0
  2  3  1  0  0  0  0
  2 22  1  0  0  0  0
  3  4  1  0  0  0  0
  3 23  1  0  0  0  0
  3 24  1  0  0  0  0
  4  5  1  0  0  0  0
  4 25  1  0  0  0  0
  4 26  1  0  0  0  0
  5  6  1  0  0  0  0
  5 27  1  0  0  0  0
  5 28  1  0  0  0  0
  6  7  1  0  0  0  0
  6 18  1  0  0  0  0
  6 38  1  0  0  0  0
  7  8  1  0  0  0  0
  7 29  1  0  0  0  0
  7 30  1  0  0  0  0
  8  9  1  0  0  0  0
  8 31  1  0  0  0  0
  8 32  1  0  0  0  0
  9 10  1  0  0  0  0
  9 33  1  0  0  0  0
 10 11  2  0  0  0  0
 10 12  1  0  0  0  0
 12 13  1  0  0  0  0
 13 17  1  0  0  0  0
 13 14  2  0  0  0  0
 14 15  1  0  0  0  0
 15 16  2  0  0  0  0
 15 34  1  0  0  0  0
 16 17  1  0  0  0  0
 16 35  1  0  0  0  0
 18 36  1  0  0  0  0
 18 37  1  0  0  0  0
M  CHG  1   6   1
M  CHG  1  12  -1
M  END
> <s_m_source_file>
AV-unprocessed.smi

> <i_m_source_file_index>
1278

> <i_lp_mmshare_version>
43012

> <i_f3d_flags>
0

> <s_epik_input>
W0NIM11bQ0BASF0xW0NIMl1bQ0gyXVtDSDJdTihbQ0gyXTEpW0NIMl1bQ0gyXVtOSF1DKD1PKVtOSF1jMm5bY0hdW2NIXXMy

> <s_epik_cmdline>
J2VwaWtfcHl0aG9uJywgJy1waCcsICc3LjAnLCAnLXRuJywgJzgnLCAnLW1hJywgJzIwMCcsICctbWV0YWxfYmluZGluZycsICctaW1hZScsICc8aW5maWxlLm1hZT4nLCAnLW9tYWUnLCAnPG91dGZpbGUubWFlPic=

> <r_lp_tautomer_probability>
0.999

> <r_epik_Ionization_Penalty>
6.22019

> <r_epik_Ionization_Penalty_Charging>
5.38911

> <r_epik_Ionization_Penalty_Neutral>
0.831074

> <r_epik_State_Penalty>
5.38904

> <r_epik_Charging_Adjusted_Penalty>
10.7782

> <i_epik_Tot_Q>
0

> <i_epik_Tot_abs_Q>
2

> <r_epik_Metal_State_Penalty>
1.41502

> <b_epik_Metal_Only>
1

> <s_lp_Force_Field>
OPLS_2005

> <r_lp_Energy>
8.40837

> <b_lp_Chiralities_Consistent>
1

> <s_lp_Variant>
AV-unprocessed.smi:1278-7

> <Gold.Version>
5.8.1

> <Gold.Id.Protein>
6NUR|6NUR_protein|mol2

> <Gold.PLP.Fitness>
41.7385

> <Gold.PLP.PLP>
-27.7689

> <Gold.PLP.part.hbond>
-3.0000

> <Gold.PLP.part.metal>
0.0000

> <Gold.PLP.part.buried>
-1.5179

> <Gold.PLP.part.nonpolar>
-21.7805

> <Gold.PLP.part.repulsive>
0.1873

> <Gold.PLP.ligand.clash>
0.0000

> <Gold.PLP.ligand.torsion>
0.5436

> <Gold.PLP.Chemscore.Hbond>
5.0000

> <Gold.PLP.Chemscore.CHOScore>
0.0000

> <Gold.PLP.Chemscore.Metal>
0.0000

> <Gold.Chemscore.Hbonds>
donor molecule, donor type, donor heavy atom, donor atom, acceptor molecule, acceptor atom, score
      L1  H     6    38       P1  7948  2.00
      P1  H  7989  7998       L1    11  1.00
      P1  H  7997  8008       L1    12  1.76

> <Gold.PLP.Chemscore.Internal.Correction>
0.0568

> <Gold.Rescore>
     Score         DG    S(hbond)    S(metal)    S(lipo)     H(rot)  DE(clash)    DE(int)     intcor
     14.11     -16.21       2.31        0.00      60.02       1.57       0.05       2.05       ----

> <Gold.Chemscore.Fitness>
14.1068

> <Gold.Chemscore.DG>
-16.2068

> <Gold.Chemscore.ZeroCoef>
-5.4800

> <Gold.Chemscore.Hbond>
2.3105

> <Gold.Chemscore.Metal>
0.0000

> <Gold.Chemscore.Lipo>
60.0236

> <Gold.Chemscore.Internal_Hbond>
0.0000

> <Gold.Chemscore.DEClash>
0.0505

> <Gold.Chemscore.DEInternal>
2.0494

> <Gold.Chemscore.Rot>
1.5676

> <Gold.Chemscore.Internal.Correction>
   9.000000E+99

> <Gold.Chemscore.Hbonds>
donor molecule, donor type, donor heavy atom, donor atom, acceptor molecule, acceptor atom, score
      L1  H     6    38       P1  7948  0.50
      P1  H  7989  7998       L1    11  0.95
      P1  H  7997  8008       L1    12  0.08

> <Gold.Chemscore.Hbond.Weighted>
-7.7171

> <Gold.Chemscore.Metal.Weighted>
-0.0000

> <Gold.Chemscore.Lipo.Weighted>
-7.0228

> <Gold.Chemscore.Internal_Hbond.Weighted>
0.0000

> <Gold.Chemscore.DEClash.Weighted>
0.0505

> <Gold.Chemscore.DEInternal.Weighted>
2.0494

> <Gold.Chemscore.Rot.Weighted>
4.0130

> <Gold.Chemscore.Internal.Correction.Weighted>
   9.000000E+99

> <Gold.Protein.RotatedTorsions>
[ 6907 6896 6895 6894 ] final  -25.73 input  -60.11 | X-H torsion
[ 7974 7965 7964 7962 ] final  -66.17 input  175.53 | X-H torsion
[ 8008 7997 7996 7995 ] final  -45.65 input   59.86 | X-H torsion
[ 10167 10162 10161 10158 ] final  172.56 input  -65.29 | X-H torsion
[ 10718 10713 10712 10709 ] final -118.05 input   66.30 | X-H torsion
[ 10763 10752 10751 10750 ] final  115.99 input  -60.55 | X-H torsion
[ 11005 11000 10999 10996 ] final   91.11 input  -57.11 | X-H torsion

> <Gold.Protein.ActiveResidues>
 VAL166  LYS551  ARG553  GLY616  TRP617  ASP618  TYR619  PRO620  LYS621  CYS622 
 ASP623  PHE694  ASN695  SER759  ASP760  ASP761  ALA762  ILE779  LEU786  VAL792 
 PHE793  MET794  SER795  GLU796  ALA797  LYS798  CYS799  TRP800  GLU811  SER814 

> <Gold.Protein.RotatedAtoms>
  151.1710  135.0318  159.8751 H   0  0  0  0  0  0  0  0  0  0  0  0  # atno 6907 bound_to 6896
  152.5449  134.1171  159.8393 H   0  0  0  0  0  0  0  0  0  0  0  0  # atno 6908 bound_to 6896
  151.1276  133.5013  159.2632 H   0  0  0  0  0  0  0  0  0  0  0  0  # atno 6909 bound_to 6896
  145.7451  140.8935  143.0509 H   0  0  0  0  0  0  0  0  0  0  0  0  # atno 7974 bound_to 7965
  154.4002  140.1391  156.3882 H   0  0  0  0  0  0  0  0  0  0  0  0  # atno 8008 bound_to 7997
  155.7939  140.3478  155.5344 H   0  0  0  0  0  0  0  0  0  0  0  0  # atno 8009 bound_to 7997
  155.8551  140.0947  157.1640 H   0  0  0  0  0  0  0  0  0  0  0  0  # atno 8010 bound_to 7997
  139.5080  144.3360  152.0065 H   0  0  0  0  0  0  0  0  0  0  0  0  # atno 10167 bound_to 10162
  156.1078  130.6224  150.9241 H   0  0  0  0  0  0  0  0  0  0  0  0  # atno 10718 bound_to 10713
  153.5304  135.3579  155.2673 H   0  0  0  0  0  0  0  0  0  0  0  0  # atno 10763 bound_to 10752
  154.8727  135.4067  154.3158 H   0  0  0  0  0  0  0  0  0  0  0  0  # atno 10764 bound_to 10752
  153.3845  135.7069  153.6608 H   0  0  0  0  0  0  0  0  0  0  0  0  # atno 10765 bound_to 10752
  139.8844  134.8654  156.3380 H   0  0  0  0  0  0  0  0  0  0  0  0  # atno 11005 bound_to 11000
  144.6862  139.9514  143.7478 LP  0  0  0  0  0  0  0  0  0  0  0  0  # atno 17320 bound_to 7965
  146.0411  139.3422  143.0697 LP  0  0  0  0  0  0  0  0  0  0  0  0  # atno 17321 bound_to 7965
  140.2799  144.3871  150.6122 LP  0  0  0  0  0  0  0  0  0  0  0  0  # atno 17342 bound_to 10162
  140.6026  143.2167  151.7043 LP  0  0  0  0  0  0  0  0  0  0  0  0  # atno 17343 bound_to 10162
  157.6256  131.0926  150.8540 LP  0  0  0  0  0  0  0  0  0  0  0  0  # atno 17370 bound_to 10713
  156.8656  130.5128  149.5300 LP  0  0  0  0  0  0  0  0  0  0  0  0  # atno 17371 bound_to 10713
  140.9678  133.7347  156.0491 LP  0  0  0  0  0  0  0  0  0  0  0  0  # atno 17394 bound_to 11000
  140.7909  134.3618  157.5464 LP  0  0  0  0  0  0  0  0  0  0  0  0  # atno 17395 bound_to 11000

$$$$
