AV-unprocessed.smi:670|AV-procd|sdf|3271|dock7
  -GOLD-   22720 0233D 1   1.00000     0.00000
 Structure written by MMmdl.
 45 46  0  0  0  0  0  0  0  0  1 V2000
  153.6644  140.7405  160.3057 C   0  0  0  0  0  0  0  0  0  0  0  0
  153.3305  142.2358  160.1886 C   0  0  2  0  0  0  0  0  0  0  0  0
  152.5897  142.7607  161.4350 C   0  0  0  0  0  0  0  0  0  0  0  0
  152.2911  144.2644  161.3169 C   0  0  0  0  0  0  0  0  0  0  0  0
  151.5066  144.5824  160.0340 C   0  0  0  0  0  0  0  0  0  0  0  0
  152.2328  144.0528  158.7852 C   0  0  0  0  0  0  0  0  0  0  0  0
  152.5358  142.5465  158.9017 C   0  0  2  0  0  0  0  0  0  0  0  0
  151.3108  141.8293  158.9572 O   0  0  0  0  0  0  0  0  0  0  0  0
  150.6520  141.6677  157.7127 C   0  0  0  0  0  0  0  0  0  0  0  0
  149.3384  140.9080  157.9466 C   0  0  0  0  0  0  0  0  0  0  0  0
  149.5868  139.5009  158.2468 N   0  0  0  0  0  0  0  0  0  0  0  0
  148.6524  138.6194  158.6374 C   0  0  0  0  0  0  0  0  0  0  0  0
  147.4587  138.9061  158.7440 O   0  0  0  0  0  0  0  0  0  0  0  0
  149.1588  137.2038  158.9534 C   0  0  0  0  0  0  0  0  0  0  0  0
  148.2873  136.4546  159.8710 N   0  0  0  0  0  0  0  0  0  0  0  0
  148.0593  137.0950  161.0796 N   0  0  0  0  0  0  0  0  0  0  0  0
  147.3240  136.5336  161.9787 C   0  0  0  0  0  0  0  0  0  0  0  0
  147.1258  137.2020  163.1620 O   0  0  0  0  0  0  0  0  0  0  0  0
  146.7222  135.2379  161.7518 C   0  0  0  0  0  0  0  0  0  0  0  0
  146.9459  134.6236  160.5695 C   0  0  0  0  0  0  0  0  0  0  0  0
  147.7737  135.2331  159.5271 C   0  0  0  0  0  0  0  0  0  0  0  0
  147.9895  134.6968  158.4410 O   0  0  0  0  0  0  0  0  0  0  0  0
  147.8715  136.9873  163.7006 H   0  0  0  0  0  0  0  0  0  0  0  0
  152.7608  140.1334  160.3599 H   0  0  0  0  0  0  0  0  0  0  0  0
  154.2545  140.5376  161.1997 H   0  0  0  0  0  0  0  0  0  0  0  0
  154.2403  140.3987  159.4455 H   0  0  0  0  0  0  0  0  0  0  0  0
  154.2806  142.7682  160.1247 H   0  0  0  0  0  0  0  0  0  0  0  0
  151.6570  142.2113  161.5726 H   0  0  0  0  0  0  0  0  0  0  0  0
  153.1870  142.5770  162.3286 H   0  0  0  0  0  0  0  0  0  0  0  0
  151.7295  144.6005  162.1890 H   0  0  0  0  0  0  0  0  0  0  0  0
  153.2277  144.8233  161.3187 H   0  0  0  0  0  0  0  0  0  0  0  0
  150.5126  144.1373  160.0954 H   0  0  0  0  0  0  0  0  0  0  0  0
  151.3562  145.6588  159.9476 H   0  0  0  0  0  0  0  0  0  0  0  0
  151.6358  144.2530  157.8953 H   0  0  0  0  0  0  0  0  0  0  0  0
  153.1679  144.5989  158.6535 H   0  0  0  0  0  0  0  0  0  0  0  0
  153.1283  142.2256  158.0426 H   0  0  0  0  0  0  0  0  0  0  0  0
  150.4450  142.6409  157.2663 H   0  0  0  0  0  0  0  0  0  0  0  0
  151.2885  141.1150  157.0199 H   0  0  0  0  0  0  0  0  0  0  0  0
  148.7619  141.3822  158.7427 H   0  0  0  0  0  0  0  0  0  0  0  0
  148.7219  140.9587  157.0490 H   0  0  0  0  0  0  0  0  0  0  0  0
  150.5425  139.1822  158.1818 H   0  0  0  0  0  0  0  0  0  0  0  0
  149.2625  136.6609  158.0120 H   0  0  0  0  0  0  0  0  0  0  0  0
  150.1680  137.2715  159.3639 H   0  0  0  0  0  0  0  0  0  0  0  0
  146.1096  134.7797  162.5139 H   0  0  0  0  0  0  0  0  0  0  0  0
  146.5030  133.6557  160.3859 H   0  0  0  0  0  0  0  0  0  0  0  0
  1  2  1  0  0  0  0
  1 24  1  0  0  0  0
  1 25  1  0  0  0  0
  1 26  1  0  0  0  0
  2  7  1  0  0  0  0
  2  3  1  0  0  0  0
  2 27  1  0  0  0  0
  3  4  1  0  0  0  0
  3 28  1  0  0  0  0
  3 29  1  0  0  0  0
  4  5  1  0  0  0  0
  4 30  1  0  0  0  0
  4 31  1  0  0  0  0
  5  6  1  0  0  0  0
  5 32  1  0  0  0  0
  5 33  1  0  0  0  0
  6  7  1  0  0  0  0
  6 34  1  0  0  0  0
  6 35  1  0  0  0  0
  7  8  1  0  0  0  0
  7 36  1  0  0  0  0
  8  9  1  0  0  0  0
  9 10  1  0  0  0  0
  9 37  1  0  0  0  0
  9 38  1  0  0  0  0
 10 11  1  0  0  0  0
 10 39  1  0  0  0  0
 10 40  1  0  0  0  0
 11 12  1  0  0  0  0
 11 41  1  0  0  0  0
 12 13  2  0  0  0  0
 12 14  1  0  0  0  0
 14 42  1  0  0  0  0
 14 43  1  0  0  0  0
 14 15  1  0  0  0  0
 15 16  1  0  0  0  0
 15 21  1  0  0  0  0
 16 17  2  0  0  0  0
 17 18  1  0  0  0  0
 17 19  1  0  0  0  0
 18 23  1  0  0  0  0
 19 44  1  0  0  0  0
 19 20  2  0  0  0  0
 20 45  1  0  0  0  0
 20 21  1  0  0  0  0
 21 22  2  0  0  0  0
M  END
> <s_m_source_file>
AV-unprocessed.smi

> <i_m_source_file_index>
670

> <i_lp_mmshare_version>
43012

> <i_f3d_flags>
0

> <s_epik_input>
W0NIM11bQ0BASF0xW0NIMl1bQ0gyXVtDSDJdW0NIMl1bQ0BIXTFPW0NIMl1bQ0gyXVtOSF1DKD1PKVtDSDJdbjJbbkhdYyg9TylbY0hdW2NIXWMyPU8=

> <s_epik_cmdline>
J2VwaWtfcHl0aG9uJywgJy1waCcsICc3LjAnLCAnLXRuJywgJzgnLCAnLW1hJywgJzIwMCcsICctbWV0YWxfYmluZGluZycsICctaW1hZScsICc8aW5maWxlLm1hZT4nLCAnLW9tYWUnLCAnPG91dGZpbGUubWFlPic=

> <r_lp_tautomer_probability>
0.9996

> <r_epik_Ionization_Penalty>
2.12726

> <r_epik_Ionization_Penalty_Charging>
3.83395e-08

> <r_epik_Ionization_Penalty_Neutral>
2.12726

> <r_epik_State_Penalty>
1.70432

> <r_epik_Charging_Adjusted_Penalty>
1.70432

> <i_epik_Tot_Q>
0

> <i_epik_Tot_abs_Q>
0

> <r_epik_Metal_State_Penalty>
1.70432

> <b_epik_Metal_Only>
0

> <s_lp_Force_Field>
OPLS_2005

> <r_lp_Energy>
20.0493

> <b_lp_Chiralities_Consistent>
1

> <s_lp_Variant>
AV-unprocessed.smi:670-7

> <Gold.Version>
5.8.1

> <Gold.Id.Protein>
6NUR|6NUR_protein|mol2

> <Gold.PLP.Fitness>
53.4003

> <Gold.PLP.PLP>
-47.3557

> <Gold.PLP.part.hbond>
-4.9873

> <Gold.PLP.part.metal>
0.0000

> <Gold.PLP.part.buried>
-4.5957

> <Gold.PLP.part.nonpolar>
-38.4884

> <Gold.PLP.part.repulsive>
0.1525

> <Gold.PLP.ligand.clash>
0.0000

> <Gold.PLP.ligand.torsion>
0.5753

> <Gold.PLP.Chemscore.Hbond>
2.3728

> <Gold.PLP.Chemscore.CHOScore>
0.0000

> <Gold.PLP.Chemscore.Metal>
0.0000

> <Gold.Chemscore.Hbonds>
donor molecule, donor type, donor heavy atom, donor atom, acceptor molecule, acceptor atom, score
      P1  H  6931  6943       L1    16  1.00
      P1  H  6934  6947       L1    16  0.56

> <Gold.PLP.Chemscore.Internal.Correction>
0.0769

> <Gold.Rescore>
     Score         DG    S(hbond)    S(metal)    S(lipo)     H(rot)  DE(clash)    DE(int)     intcor
     15.03     -16.05       1.77        0.00     107.34       3.09       0.13       0.89       ----

> <Gold.Chemscore.Fitness>
15.0306

> <Gold.Chemscore.DG>
-16.0487

> <Gold.Chemscore.ZeroCoef>
-5.4800

> <Gold.Chemscore.Hbond>
1.7725

> <Gold.Chemscore.Metal>
0.0000

> <Gold.Chemscore.Lipo>
107.3443

> <Gold.Chemscore.Internal_Hbond>
0.0000

> <Gold.Chemscore.DEClash>
0.1300

> <Gold.Chemscore.DEInternal>
0.8880

> <Gold.Chemscore.Rot>
3.0901

> <Gold.Chemscore.Internal.Correction>
   9.000000E+99

> <Gold.Chemscore.Hbonds>
donor molecule, donor type, donor heavy atom, donor atom, acceptor molecule, acceptor atom, score
      P1  H  6931  6943       L1    16  0.58
      P1  H  6934  6947       L1    16  0.18

> <Gold.Chemscore.Hbond.Weighted>
-5.9200

> <Gold.Chemscore.Metal.Weighted>
-0.0000

> <Gold.Chemscore.Lipo.Weighted>
-12.5593

> <Gold.Chemscore.Internal_Hbond.Weighted>
0.0000

> <Gold.Chemscore.DEClash.Weighted>
0.1300

> <Gold.Chemscore.DEInternal.Weighted>
0.8880

> <Gold.Chemscore.Rot.Weighted>
7.9106

> <Gold.Chemscore.Internal.Correction.Weighted>
   9.000000E+99

> <Gold.Protein.RotatedTorsions>
[ 6907 6896 6895 6894 ] final   19.73 input  -60.11 | X-H torsion
[ 7974 7965 7964 7962 ] final   14.66 input  175.53 | X-H torsion
[ 8008 7997 7996 7995 ] final -179.43 input   59.86 | X-H torsion
[ 10167 10162 10161 10158 ] final   90.66 input  -65.29 | X-H torsion
[ 10718 10713 10712 10709 ] final    1.25 input   66.30 | X-H torsion
[ 10763 10752 10751 10750 ] final  -13.55 input  -60.55 | X-H torsion
[ 11005 11000 10999 10996 ] final   48.81 input  -57.11 | X-H torsion

> <Gold.Protein.ActiveResidues>
 VAL166  LYS551  ARG553  GLY616  TRP617  ASP618  TYR619  PRO620  LYS621  CYS622 
 ASP623  PHE694  ASN695  SER759  ASP760  ASP761  ALA762  ILE779  LEU786  VAL792 
 PHE793  MET794  SER795  GLU796  ALA797  LYS798  CYS799  TRP800  GLU811  SER814 

> <Gold.Protein.RotatedAtoms>
  151.8854  135.0437  160.0492 H   0  0  0  0  0  0  0  0  0  0  0  0  # atno 6907 bound_to 6896
  152.2479  133.5186  159.5316 H   0  0  0  0  0  0  0  0  0  0  0  0  # atno 6908 bound_to 6896
  150.7074  134.0916  159.3976 H   0  0  0  0  0  0  0  0  0  0  0  0  # atno 6909 bound_to 6896
  146.2299  139.9009  142.8539 H   0  0  0  0  0  0  0  0  0  0  0  0  # atno 7974 bound_to 7965
  156.0304  140.1281  157.0264 H   0  0  0  0  0  0  0  0  0  0  0  0  # atno 8008 bound_to 7997
  154.4347  140.1050  156.6162 H   0  0  0  0  0  0  0  0  0  0  0  0  # atno 8009 bound_to 7997
  155.5815  140.3468  155.4544 H   0  0  0  0  0  0  0  0  0  0  0  0  # atno 8010 bound_to 7997
  139.8451  144.6621  150.9236 H   0  0  0  0  0  0  0  0  0  0  0  0  # atno 10167 bound_to 10162
  156.8455  130.5535  149.5674 H   0  0  0  0  0  0  0  0  0  0  0  0  # atno 10718 bound_to 10713
  153.5149  135.7016  153.5761 H   0  0  0  0  0  0  0  0  0  0  0  0  # atno 10763 bound_to 10752
  153.3835  135.3914  155.1873 H   0  0  0  0  0  0  0  0  0  0  0  0  # atno 10764 bound_to 10752
  154.8700  135.3841  154.4633 H   0  0  0  0  0  0  0  0  0  0  0  0  # atno 10765 bound_to 10752
  140.1158  134.4894  155.8638 H   0  0  0  0  0  0  0  0  0  0  0  0  # atno 11005 bound_to 11000
  145.2324  140.9978  143.3983 LP  0  0  0  0  0  0  0  0  0  0  0  0  # atno 17320 bound_to 7965
  144.9519  139.4073  143.6398 LP  0  0  0  0  0  0  0  0  0  0  0  0  # atno 17321 bound_to 7965
  140.7794  143.3877  151.1364 LP  0  0  0  0  0  0  0  0  0  0  0  0  # atno 17342 bound_to 10162
  139.7520  143.8764  152.3079 LP  0  0  0  0  0  0  0  0  0  0  0  0  # atno 17343 bound_to 10162
  156.0857  130.5856  150.9643 LP  0  0  0  0  0  0  0  0  0  0  0  0  # atno 17370 bound_to 10713
  157.6332  131.0919  150.8400 LP  0  0  0  0  0  0  0  0  0  0  0  0  # atno 17371 bound_to 10713
  141.2141  133.6743  156.6794 LP  0  0  0  0  0  0  0  0  0  0  0  0  # atno 17394 bound_to 11000
  140.3030  134.8148  157.4113 LP  0  0  0  0  0  0  0  0  0  0  0  0  # atno 17395 bound_to 11000

$$$$
