AV-unprocessed.smi:535|AV-procd|sdf|2860|dock6
  -GOLD-   2262023353D 1   1.00000     0.00000
 Structure written by MMmdl.
 45 47  0  0  0  0  0  0  0  0  2 V2000
  149.9770  139.6796  155.2218 C   0  0  0  0  0  0  0  0  0  0  0  0
  150.8701  140.7745  155.3228 O   0  0  0  0  0  0  0  0  0  0  0  0
  151.9123  140.5369  156.2533 C   0  0  0  0  0  0  0  0  0  0  0  0
  151.3398  140.6153  157.6728 C   0  0  0  0  0  0  0  0  0  0  0  0
  152.2197  139.9607  158.6386 N   0  0  0  0  0  0  0  0  0  0  0  0
  152.9547  140.5324  159.6326 C   0  0  0  0  0  0  0  0  0  0  0  0
  152.9441  141.9072  159.8812 N   0  0  0  0  0  0  0  0  0  0  0  0
  153.2495  142.5641  161.1519 C   0  0  0  0  0  0  0  0  0  0  0  0
  152.1524  143.5689  161.5445 C   0  0  0  0  0  0  0  0  0  0  0  0
  151.9779  144.6255  160.4454 C   0  0  0  0  0  0  0  0  0  0  0  0
  151.7671  143.9467  159.0805 C   0  0  1  0  0  0  0  0  0  0  0  0
  151.6824  144.9772  157.9466 C   0  0  0  0  0  0  0  0  0  0  0  0
  152.8853  142.9152  158.8235 C   0  0  0  0  0  0  0  0  0  0  0  0
  153.7264  139.6815  160.3116 N   0  0  0  0  0  0  0  0  0  0  0  0
  153.4498  138.4622  159.7141 C   0  0  0  0  0  0  0  0  0  0  0  0
  152.5598  138.6039  158.6952 C   0  0  0  0  0  0  0  0  0  0  0  0
  152.1143  137.4841  157.8345 C   0  0  0  0  0  0  0  0  0  0  0  0
  151.3381  137.6684  156.8995 O   0  0  0  0  0  0  0  0  0  0  0  0
  152.6718  136.2894  158.2093 N   0  5  0  0  0  0  0  0  0  0  0  0
  153.5669  136.1004  159.2399 C   0  0  0  0  0  0  0  0  0  0  0  0
  154.0241  134.9886  159.5082 O   0  0  0  0  0  0  0  0  0  0  0  0
  153.9702  137.1696  159.9954 N   0  0  0  0  0  0  0  0  0  0  0  0
  154.9287  137.0004  161.0914 C   0  0  0  0  0  0  0  0  0  0  0  0
  149.1979  139.9079  154.4947 H   0  0  0  0  0  0  0  0  0  0  0  0
  149.4954  139.4741  156.1788 H   0  0  0  0  0  0  0  0  0  0  0  0
  150.4941  138.7787  154.8890 H   0  0  0  0  0  0  0  0  0  0  0  0
  152.3568  139.5553  156.0803 H   0  0  0  0  0  0  0  0  0  0  0  0
  152.6984  141.2832  156.1260 H   0  0  0  0  0  0  0  0  0  0  0  0
  151.1834  141.6515  157.9520 H   0  0  0  0  0  0  0  0  0  0  0  0
  150.3470  140.1727  157.7145 H   0  0  0  0  0  0  0  0  0  0  0  0
  153.4007  141.8246  161.9375 H   0  0  0  0  0  0  0  0  0  0  0  0
  154.2038  143.0834  161.0551 H   0  0  0  0  0  0  0  0  0  0  0  0
  151.2076  143.0486  161.7049 H   0  0  0  0  0  0  0  0  0  0  0  0
  152.4060  144.0510  162.4887 H   0  0  0  0  0  0  0  0  0  0  0  0
  151.1364  145.2773  160.6823 H   0  0  0  0  0  0  0  0  0  0  0  0
  152.8647  145.2594  160.4093 H   0  0  0  0  0  0  0  0  0  0  0  0
  150.8168  143.4113  159.1118 H   0  0  0  0  0  0  0  0  0  0  0  0
  152.6096  145.5439  157.8562 H   0  0  0  0  0  0  0  0  0  0  0  0
  150.8736  145.6874  158.1207 H   0  0  0  0  0  0  0  0  0  0  0  0
  151.4944  144.4915  156.9889 H   0  0  0  0  0  0  0  0  0  0  0  0
  153.8535  143.4116  158.7428 H   0  0  0  0  0  0  0  0  0  0  0  0
  152.7102  142.4217  157.8665 H   0  0  0  0  0  0  0  0  0  0  0  0
  154.5493  136.2887  161.8257 H   0  0  0  0  0  0  0  0  0  0  0  0
  155.1339  137.9314  161.6193 H   0  0  0  0  0  0  0  0  0  0  0  0
  155.8794  136.6243  160.7107 H   0  0  0  0  0  0  0  0  0  0  0  0
  1  2  1  0  0  0  0
  1 24  1  0  0  0  0
  1 25  1  0  0  0  0
  1 26  1  0  0  0  0
  2  3  1  0  0  0  0
  3  4  1  0  0  0  0
  3 27  1  0  0  0  0
  3 28  1  0  0  0  0
  4  5  1  0  0  0  0
  4 29  1  0  0  0  0
  4 30  1  0  0  0  0
  5 16  1  0  0  0  0
  5  6  1  0  0  0  0
  6  7  1  0  0  0  0
  6 14  2  0  0  0  0
  7 13  1  0  0  0  0
  7  8  1  0  0  0  0
  8  9  1  0  0  0  0
  8 31  1  0  0  0  0
  8 32  1  0  0  0  0
  9 10  1  0  0  0  0
  9 33  1  0  0  0  0
  9 34  1  0  0  0  0
 10 11  1  0  0  0  0
 10 35  1  0  0  0  0
 10 36  1  0  0  0  0
 11 12  1  0  0  0  0
 11 13  1  0  0  0  0
 11 37  1  0  0  0  0
 12 38  1  0  0  0  0
 12 39  1  0  0  0  0
 12 40  1  0  0  0  0
 13 41  1  0  0  0  0
 13 42  1  0  0  0  0
 14 15  1  0  0  0  0
 15 22  1  0  0  0  0
 15 16  2  0  0  0  0
 16 17  1  0  0  0  0
 17 18  2  0  0  0  0
 17 19  1  0  0  0  0
 19 20  1  0  0  0  0
 20 21  2  0  0  0  0
 20 22  1  0  0  0  0
 22 23  1  0  0  0  0
 23 43  1  0  0  0  0
 23 44  1  0  0  0  0
 23 45  1  0  0  0  0
M  CHG  1  19  -1
M  END
> <s_m_source_file>
AV-unprocessed.smi

> <i_m_source_file_index>
535

> <i_lp_mmshare_version>
43012

> <i_f3d_flags>
0

> <s_epik_input>
W0NIM11uMWMoPU8pW25IXWMoPU8pYyhjMTIpbihbQ0gyXVtDSDJdT1tDSDNdKWMobjIpTjNbQ0gyXVtDSDJdW0NIMl1bQ0BASF0oW0NIM10pW0NIMl0z

> <s_epik_cmdline>
J2VwaWtfcHl0aG9uJywgJy1waCcsICc3LjAnLCAnLXRuJywgJzgnLCAnLW1hJywgJzIwMCcsICctbWV0YWxfYmluZGluZycsICctaW1hZScsICc8aW5maWxlLm1hZT4nLCAnLW9tYWUnLCAnPG91dGZpbGUubWFlPic=

> <r_lp_tautomer_probability>
1

> <r_epik_Ionization_Penalty>
5.11375

> <r_epik_Ionization_Penalty_Charging>
0.0788329

> <r_epik_Ionization_Penalty_Neutral>
5.03492

> <r_epik_State_Penalty>
5.02848

> <r_epik_Charging_Adjusted_Penalty>
5.10731

> <i_epik_Tot_Q>
-1

> <i_epik_Tot_abs_Q>
1

> <r_epik_Metal_State_Penalty>
1.14014

> <b_epik_Metal_Only>
1

> <s_lp_Force_Field>
OPLS_2005

> <r_lp_Energy>
43.1913

> <b_lp_Chiralities_Consistent>
1

> <s_lp_Variant>
AV-unprocessed.smi:535-3

> <Gold.Version>
5.8.1

> <Gold.Id.Protein>
6NUR|6NUR_protein|mol2

> <Gold.PLP.Fitness>
46.3402

> <Gold.PLP.PLP>
-41.6018

> <Gold.PLP.part.hbond>
-3.0000

> <Gold.PLP.part.metal>
0.0000

> <Gold.PLP.part.buried>
-4.0075

> <Gold.PLP.part.nonpolar>
-34.6255

> <Gold.PLP.part.repulsive>
0.0554

> <Gold.PLP.ligand.clash>
0.0000

> <Gold.PLP.ligand.torsion>
0.6150

> <Gold.PLP.Chemscore.Hbond>
1.8268

> <Gold.PLP.Chemscore.CHOScore>
0.0000

> <Gold.PLP.Chemscore.Metal>
0.0000

> <Gold.Chemscore.Hbonds>
donor molecule, donor type, donor heavy atom, donor atom, acceptor molecule, acceptor atom, score
      P1  H  6896  6909       L1    21  1.00
      P1  H  7989  7998       L1     2  0.83

> <Gold.PLP.Chemscore.Internal.Correction>
0.4881

> <Gold.Rescore>
     Score         DG    S(hbond)    S(metal)    S(lipo)     H(rot)  DE(clash)    DE(int)     intcor
     13.75     -15.79       0.78        0.00      97.21       1.44       0.37       1.68       ----

> <Gold.Chemscore.Fitness>
13.7474

> <Gold.Chemscore.DG>
-15.7933

> <Gold.Chemscore.ZeroCoef>
-5.4800

> <Gold.Chemscore.Hbond>
0.7841

> <Gold.Chemscore.Metal>
0.0000

> <Gold.Chemscore.Lipo>
97.2122

> <Gold.Chemscore.Internal_Hbond>
0.0000

> <Gold.Chemscore.DEClash>
0.3655

> <Gold.Chemscore.DEInternal>
1.6804

> <Gold.Chemscore.Rot>
1.4372

> <Gold.Chemscore.Internal.Correction>
   9.000000E+99

> <Gold.Chemscore.Hbonds>
donor molecule, donor type, donor heavy atom, donor atom, acceptor molecule, acceptor atom, score
      P1  H  6896  6909       L1    21  0.24
      P1  H  7989  7998       L1     2  0.22

> <Gold.Chemscore.Hbond.Weighted>
-2.6188

> <Gold.Chemscore.Metal.Weighted>
-0.0000

> <Gold.Chemscore.Lipo.Weighted>
-11.3738

> <Gold.Chemscore.Internal_Hbond.Weighted>
0.0000

> <Gold.Chemscore.DEClash.Weighted>
0.3655

> <Gold.Chemscore.DEInternal.Weighted>
1.6804

> <Gold.Chemscore.Rot.Weighted>
3.6793

> <Gold.Chemscore.Internal.Correction.Weighted>
   9.000000E+99

> <Gold.Protein.RotatedTorsions>
[ 6907 6896 6895 6894 ] final -145.59 input  -60.11 | X-H torsion
[ 7974 7965 7964 7962 ] final  102.65 input  175.53 | X-H torsion
[ 8008 7997 7996 7995 ] final -128.90 input   59.86 | X-H torsion
[ 10167 10162 10161 10158 ] final -177.17 input  -65.29 | X-H torsion
[ 10718 10713 10712 10709 ] final   89.34 input   66.30 | X-H torsion
[ 10763 10752 10751 10750 ] final   58.10 input  -60.55 | X-H torsion
[ 11005 11000 10999 10996 ] final   56.57 input  -57.11 | X-H torsion

> <Gold.Protein.ActiveResidues>
 VAL166  LYS551  ARG553  GLY616  TRP617  ASP618  TYR619  PRO620  LYS621  CYS622 
 ASP623  PHE694  ASN695  SER759  ASP760  ASP761  ALA762  ILE779  LEU786  VAL792 
 PHE793  MET794  SER795  GLU796  ALA797  LYS798  CYS799  TRP800  GLU811  SER814 

> <Gold.Protein.RotatedAtoms>
  151.1299  133.5044  159.2599 H   0  0  0  0  0  0  0  0  0  0  0  0  # atno 6907 bound_to 6896
  151.1769  135.0343  159.8785 H   0  0  0  0  0  0  0  0  0  0  0  0  # atno 6908 bound_to 6896
  152.5459  134.1156  159.8430 H   0  0  0  0  0  0  0  0  0  0  0  0  # atno 6909 bound_to 6896
  145.3563  139.2428  143.3531 H   0  0  0  0  0  0  0  0  0  0  0  0  # atno 7974 bound_to 7965
  155.2703  140.0439  157.3006 H   0  0  0  0  0  0  0  0  0  0  0  0  # atno 8008 bound_to 7997
  154.5657  140.2359  155.8236 H   0  0  0  0  0  0  0  0  0  0  0  0  # atno 8009 bound_to 7997
  156.2083  140.3006  155.9683 H   0  0  0  0  0  0  0  0  0  0  0  0  # atno 8010 bound_to 7997
  139.5493  144.2151  152.1047 H   0  0  0  0  0  0  0  0  0  0  0  0  # atno 10167 bound_to 10162
  157.6954  131.0329  150.3411 H   0  0  0  0  0  0  0  0  0  0  0  0  # atno 10718 bound_to 10713
  152.9863  135.5618  154.5498 H   0  0  0  0  0  0  0  0  0  0  0  0  # atno 10763 bound_to 10752
  154.4937  135.2794  155.1478 H   0  0  0  0  0  0  0  0  0  0  0  0  # atno 10764 bound_to 10752
  154.2937  135.6321  153.5449 H   0  0  0  0  0  0  0  0  0  0  0  0  # atno 10765 bound_to 10752
  140.0519  134.5725  155.9254 H   0  0  0  0  0  0  0  0  0  0  0  0  # atno 11005 bound_to 11000
  146.2946  140.4189  142.8726 LP  0  0  0  0  0  0  0  0  0  0  0  0  # atno 17320 bound_to 7965
  144.8679  140.7232  143.6065 LP  0  0  0  0  0  0  0  0  0  0  0  0  # atno 17321 bound_to 7965
  140.1644  144.4995  150.6614 LP  0  0  0  0  0  0  0  0  0  0  0  0  # atno 17342 bound_to 10162
  140.6751  143.2302  151.5527 LP  0  0  0  0  0  0  0  0  0  0  0  0  # atno 17343 bound_to 10162
  156.3871  130.3891  149.7057 LP  0  0  0  0  0  0  0  0  0  0  0  0  # atno 17370 bound_to 10713
  156.4420  130.7865  151.2886 LP  0  0  0  0  0  0  0  0  0  0  0  0  # atno 17371 bound_to 10713
  141.1934  133.6579  156.5546 LP  0  0  0  0  0  0  0  0  0  0  0  0  # atno 17394 bound_to 11000
  140.3905  134.7445  157.4718 LP  0  0  0  0  0  0  0  0  0  0  0  0  # atno 17395 bound_to 11000

$$$$
