AV-unprocessed.smi:1560|AV-procd|sdf|6281|dock1
  -GOLD-   22720 6473D 1   1.00000     0.00000
 Structure written by MMmdl.
 47 48  0  0  0  0  0  0  0  0  3 V2000
  142.1431  136.2242  153.5413 C   0  0  0  0  0  0  0  0  0  0  0  0
  142.5906  135.1721  154.5720 C   0  0  0  0  0  0  0  0  0  0  0  0
  144.0878  134.7416  154.4911 C   0  0  1  0  0  0  0  0  0  0  0  0
  144.9195  136.0198  154.2046 C   0  0  0  0  0  0  0  0  0  0  0  0
  144.5433  134.1433  155.8585 C   0  0  0  0  0  0  0  0  0  0  0  0
  144.2480  135.0030  157.0044 N   0  0  0  0  0  0  0  0  0  0  0  0
  144.3621  134.6520  158.2948 C   0  0  0  0  0  0  0  0  0  0  0  0
  144.7006  133.5259  158.6615 O   0  0  0  0  0  0  0  0  0  0  0  0
  144.0012  135.7302  159.3246 C   0  0  0  0  0  0  0  0  0  0  0  0
  145.1492  136.1211  160.1581 N   0  0  0  0  0  0  0  0  0  0  0  0
  145.6548  135.1730  161.0654 C   0  0  0  0  0  0  0  0  0  0  0  0
  146.7070  135.4429  161.8616 C   0  0  0  0  0  0  0  0  0  0  0  0
  147.3248  136.7599  161.7668 C   0  0  0  0  0  0  0  0  0  0  0  0
  148.2836  137.0249  162.4891 O   0  0  0  0  0  0  0  0  0  0  0  0
  146.8001  137.6439  160.8683 N   0  5  0  0  0  0  0  0  0  0  0  0
  145.7317  137.3544  160.0623 C   0  0  0  0  0  0  0  0  0  0  0  0
  145.2762  138.1653  159.2545 O   0  0  0  0  0  0  0  0  0  0  0  0
  144.2722  133.7351  153.3818 N   0  3  0  0  0  0  0  0  0  0  0  0
  143.6343  134.0695  152.0769 C   0  0  0  0  0  0  0  0  0  0  0  0
  143.7311  132.8777  151.1086 C   0  0  0  0  0  0  0  0  0  0  0  0
  145.0911  132.5072  150.9310 O   0  0  0  0  0  0  0  0  0  0  0  0
  145.6898  132.1016  152.1537 C   0  0  0  0  0  0  0  0  0  0  0  0
  145.6705  133.2748  153.1464 C   0  0  0  0  0  0  0  0  0  0  0  0
  141.0887  136.4646  153.6788 H   0  0  0  0  0  0  0  0  0  0  0  0
  142.2620  135.8693  152.5177 H   0  0  0  0  0  0  0  0  0  0  0  0
  142.7011  137.1546  153.6430 H   0  0  0  0  0  0  0  0  0  0  0  0
  142.3800  135.5796  155.5611 H   0  0  0  0  0  0  0  0  0  0  0  0
  141.9393  134.3019  154.4951 H   0  0  0  0  0  0  0  0  0  0  0  0
  144.6341  136.8423  154.8615 H   0  0  0  0  0  0  0  0  0  0  0  0
  144.7893  136.3680  153.1797 H   0  0  0  0  0  0  0  0  0  0  0  0
  145.9858  135.8591  154.3649 H   0  0  0  0  0  0  0  0  0  0  0  0
  144.1030  133.1600  156.0240 H   0  0  0  0  0  0  0  0  0  0  0  0
  145.6216  133.9868  155.8630 H   0  0  0  0  0  0  0  0  0  0  0  0
  143.9599  135.9493  156.8013 H   0  0  0  0  0  0  0  0  0  0  0  0
  143.5867  136.6064  158.8219 H   0  0  0  0  0  0  0  0  0  0  0  0
  143.1909  135.3469  159.9460 H   0  0  0  0  0  0  0  0  0  0  0  0
  145.1449  134.2209  161.0686 H   0  0  0  0  0  0  0  0  0  0  0  0
  147.0861  134.7026  162.5508 H   0  0  0  0  0  0  0  0  0  0  0  0
  142.5793  134.3106  152.1932 H   0  0  0  0  0  0  0  0  0  0  0  0
  144.1173  134.9406  151.6336 H   0  0  0  0  0  0  0  0  0  0  0  0
  143.1557  132.0276  151.4791 H   0  0  0  0  0  0  0  0  0  0  0  0
  143.3107  133.1470  150.1394 H   0  0  0  0  0  0  0  0  0  0  0  0
  145.1698  131.2338  152.5629 H   0  0  0  0  0  0  0  0  0  0  0  0
  146.7170  131.7937  151.9568 H   0  0  0  0  0  0  0  0  0  0  0  0
  146.2758  134.0872  152.7438 H   0  0  0  0  0  0  0  0  0  0  0  0
  146.1464  132.9458  154.0681 H   0  0  0  0  0  0  0  0  0  0  0  0
  143.7783  132.9163  153.7073 H   0  0  0  0  0  0  0  0  0  0  0  0
  1  2  1  0  0  0  0
  1 24  1  0  0  0  0
  1 25  1  0  0  0  0
  1 26  1  0  0  0  0
  2  3  1  0  0  0  0
  2 27  1  0  0  0  0
  2 28  1  0  0  0  0
  3  4  1  0  0  0  0
  3  5  1  0  0  0  0
  3 18  1  0  0  0  0
  4 29  1  0  0  0  0
  4 30  1  0  0  0  0
  4 31  1  0  0  0  0
  5  6  1  0  0  0  0
  5 32  1  0  0  0  0
  5 33  1  0  0  0  0
  6  7  1  0  0  0  0
  6 34  1  0  0  0  0
  7  8  2  0  0  0  0
  7  9  1  0  0  0  0
  9 10  1  0  0  0  0
  9 35  1  0  0  0  0
  9 36  1  0  0  0  0
 10 16  1  0  0  0  0
 10 11  1  0  0  0  0
 11 12  2  0  0  0  0
 11 37  1  0  0  0  0
 12 13  1  0  0  0  0
 12 38  1  0  0  0  0
 13 14  2  0  0  0  0
 13 15  1  0  0  0  0
 15 16  1  0  0  0  0
 16 17  2  0  0  0  0
 18 23  1  0  0  0  0
 18 19  1  0  0  0  0
 18 47  1  0  0  0  0
 19 20  1  0  0  0  0
 19 39  1  0  0  0  0
 19 40  1  0  0  0  0
 20 21  1  0  0  0  0
 20 41  1  0  0  0  0
 20 42  1  0  0  0  0
 21 22  1  0  0  0  0
 22 23  1  0  0  0  0
 22 43  1  0  0  0  0
 22 44  1  0  0  0  0
 23 45  1  0  0  0  0
 23 46  1  0  0  0  0
M  CHG  1  15  -1
M  CHG  1  18   1
M  END
> <s_m_source_file>
AV-unprocessed.smi

> <i_m_source_file_index>
1560

> <i_lp_mmshare_version>
43012

> <i_f3d_flags>
0

> <s_epik_input>
W0NIMl0xW0NIMl1PW0NIMl1bQ0gyXU4xW0NAQF0oW0NIM10pKFtDSDJdW0NIM10pW0NIMl1bTkhdQyg9TylbQ0gyXW4yW2NIXVtjSF1jKD1PKVtuSF1jMj1P

> <s_epik_cmdline>
J2VwaWtfcHl0aG9uJywgJy1waCcsICc3LjAnLCAnLXRuJywgJzgnLCAnLW1hJywgJzIwMCcsICctbWV0YWxfYmluZGluZycsICctaW1hZScsICc8aW5maWxlLm1hZT4nLCAnLW9tYWUnLCAnPG91dGZpbGUubWFlPic=

> <r_lp_tautomer_probability>
0.999537

> <r_epik_Ionization_Penalty>
3.51944

> <r_epik_Ionization_Penalty_Charging>
0.588852

> <r_epik_Ionization_Penalty_Neutral>
2.93059

> <r_epik_State_Penalty>
3.4987

> <r_epik_Charging_Adjusted_Penalty>
4.08755

> <i_epik_Tot_Q>
0

> <i_epik_Tot_abs_Q>
2

> <r_epik_Metal_State_Penalty>
1.01204

> <b_epik_Metal_Only>
1

> <s_lp_Force_Field>
OPLS_2005

> <r_lp_Energy>
37.4968

> <b_lp_Chiralities_Consistent>
1

> <s_lp_Variant>
AV-unprocessed.smi:1560-7

> <Gold.Version>
5.8.1

> <Gold.Id.Protein>
6NUR|6NUR_protein|mol2

> <Gold.PLP.Fitness>
36.9455

> <Gold.PLP.PLP>
-22.6709

> <Gold.PLP.part.hbond>
-3.9567

> <Gold.PLP.part.metal>
0.0000

> <Gold.PLP.part.buried>
-4.3160

> <Gold.PLP.part.nonpolar>
-15.2829

> <Gold.PLP.part.repulsive>
0.1287

> <Gold.PLP.ligand.clash>
0.0000

> <Gold.PLP.ligand.torsion>
0.5755

> <Gold.PLP.Chemscore.Hbond>
5.0000

> <Gold.PLP.Chemscore.CHOScore>
0.0000

> <Gold.PLP.Chemscore.Metal>
0.0000

> <Gold.Chemscore.Hbonds>
donor molecule, donor type, donor heavy atom, donor atom, acceptor molecule, acceptor atom, score
      L1  H    18    47       P1 10957  2.00
      P1  H  6931  6943       L1    14  1.00
      P1  H  6934  6947       L1    15  1.50

> <Gold.PLP.Chemscore.Internal.Correction>
0.4256

> <Gold.Rescore>
     Score         DG    S(hbond)    S(metal)    S(lipo)     H(rot)  DE(clash)    DE(int)     intcor
     12.73     -13.79       2.70        0.00      48.63       2.50       0.05       1.02       ----

> <Gold.Chemscore.Fitness>
12.7320

> <Gold.Chemscore.DG>
-13.7947

> <Gold.Chemscore.ZeroCoef>
-5.4800

> <Gold.Chemscore.Hbond>
2.7002

> <Gold.Chemscore.Metal>
0.0000

> <Gold.Chemscore.Lipo>
48.6251

> <Gold.Chemscore.Internal_Hbond>
0.0000

> <Gold.Chemscore.DEClash>
0.0456

> <Gold.Chemscore.DEInternal>
1.0171

> <Gold.Chemscore.Rot>
2.4973

> <Gold.Chemscore.Internal.Correction>
   9.000000E+99

> <Gold.Chemscore.Hbonds>
donor molecule, donor type, donor heavy atom, donor atom, acceptor molecule, acceptor atom, score
      L1  H    18    47       P1 10957  0.88
      P1  H  6931  6943       L1    14  0.71
      P1  H  6934  6947       L1    15  0.66

> <Gold.Chemscore.Hbond.Weighted>
-9.0186

> <Gold.Chemscore.Metal.Weighted>
-0.0000

> <Gold.Chemscore.Lipo.Weighted>
-5.6891

> <Gold.Chemscore.Internal_Hbond.Weighted>
0.0000

> <Gold.Chemscore.DEClash.Weighted>
0.0456

> <Gold.Chemscore.DEInternal.Weighted>
1.0171

> <Gold.Chemscore.Rot.Weighted>
6.3930

> <Gold.Chemscore.Internal.Correction.Weighted>
   9.000000E+99

> <Gold.Protein.RotatedTorsions>
[ 6907 6896 6895 6894 ] final  -50.44 input  -60.11 | X-H torsion
[ 7974 7965 7964 7962 ] final   48.83 input  175.53 | X-H torsion
[ 8008 7997 7996 7995 ] final   50.68 input   59.86 | X-H torsion
[ 10167 10162 10161 10158 ] final   56.10 input  -65.29 | X-H torsion
[ 10718 10713 10712 10709 ] final   87.15 input   66.30 | X-H torsion
[ 10763 10752 10751 10750 ] final   29.63 input  -60.55 | X-H torsion
[ 11005 11000 10999 10996 ] final -109.74 input  -57.11 | X-H torsion

> <Gold.Protein.ActiveResidues>
 VAL166  LYS551  ARG553  GLY616  TRP617  ASP618  TYR619  PRO620  LYS621  CYS622 
 ASP623  PHE694  ASN695  SER759  ASP760  ASP761  ALA762  ILE779  LEU786  VAL792 
 PHE793  MET794  SER795  GLU796  ALA797  LYS798  CYS799  TRP800  GLU811  SER814 

> <Gold.Protein.RotatedAtoms>
  150.8707  134.8080  159.7152 H   0  0  0  0  0  0  0  0  0  0  0  0  # atno 6907 bound_to 6896
  152.4712  134.4951  159.9717 H   0  0  0  0  0  0  0  0  0  0  0  0  # atno 6908 bound_to 6896
  151.5040  133.3460  159.2909 H   0  0  0  0  0  0  0  0  0  0  0  0  # atno 6909 bound_to 6896
  146.0167  139.4604  142.9922 H   0  0  0  0  0  0  0  0  0  0  0  0  # atno 7974 bound_to 7965
  155.4228  140.3447  155.4273 H   0  0  0  0  0  0  0  0  0  0  0  0  # atno 8008 bound_to 7997
  156.1383  140.1534  156.8991 H   0  0  0  0  0  0  0  0  0  0  0  0  # atno 8009 bound_to 7997
  154.4950  140.0830  156.7657 H   0  0  0  0  0  0  0  0  0  0  0  0  # atno 8010 bound_to 7997
  140.2124  144.3875  150.6483 H   0  0  0  0  0  0  0  0  0  0  0  0  # atno 10167 bound_to 10162
  157.6937  131.0244  150.3080 H   0  0  0  0  0  0  0  0  0  0  0  0  # atno 10718 bound_to 10713
  153.0419  135.6484  154.0920 H   0  0  0  0  0  0  0  0  0  0  0  0  # atno 10763 bound_to 10752
  154.0625  135.2887  155.3324 H   0  0  0  0  0  0  0  0  0  0  0  0  # atno 10764 bound_to 10752
  154.6648  135.5378  153.8128 H   0  0  0  0  0  0  0  0  0  0  0  0  # atno 10765 bound_to 10752
  141.0831  133.9186  157.2246 H   0  0  0  0  0  0  0  0  0  0  0  0  # atno 11005 bound_to 11000
  145.7257  141.0060  143.1378 LP  0  0  0  0  0  0  0  0  0  0  0  0  # atno 17320 bound_to 7965
  144.6974  139.8924  143.7454 LP  0  0  0  0  0  0  0  0  0  0  0  0  # atno 17321 bound_to 7965
  140.6314  143.2188  151.6487 LP  0  0  0  0  0  0  0  0  0  0  0  0  # atno 17342 bound_to 10162
  139.5175  144.3313  152.0823 LP  0  0  0  0  0  0  0  0  0  0  0  0  # atno 17343 bound_to 10162
  156.3585  130.3843  149.7270 LP  0  0  0  0  0  0  0  0  0  0  0  0  # atno 17370 bound_to 10713
  156.4724  130.8003  151.3020 LP  0  0  0  0  0  0  0  0  0  0  0  0  # atno 17371 bound_to 10713
  139.9646  135.0145  156.9353 LP  0  0  0  0  0  0  0  0  0  0  0  0  # atno 17394 bound_to 11000
  140.5424  134.0706  155.7345 LP  0  0  0  0  0  0  0  0  0  0  0  0  # atno 17395 bound_to 11000

$$$$
