AV-unprocessed.smi:2825|AV-procd|sdf|10890|dock6
  -GOLD-   2272015333D 1   1.00000     0.00000
 Structure written by MMmdl.
 49 50  0  0  0  0  0  0  0  0  2 V2000
  151.4322  132.0770  156.6612 C   0  0  0  0  0  0  0  0  0  0  0  0
  150.0289  132.5368  156.2537 C   0  0  0  0  0  0  0  0  0  0  0  0
  150.0258  133.9471  155.6453 C   0  0  0  0  0  0  0  0  0  0  0  0
  150.6845  135.2074  156.8249 S   0  0  0  0  0  0  0  0  0  0  0  0
  149.7695  135.2769  157.9745 O   0  0  0  0  0  0  0  0  0  0  0  0
  152.1197  134.9663  157.0429 O   0  0  0  0  0  0  0  0  0  0  0  0
  150.5242  136.7014  155.9505 N   0  0  0  0  0  0  0  0  0  0  0  0
  149.1859  137.1419  155.5322 C   0  0  0  0  0  0  0  0  0  0  0  0
  151.6821  137.2566  155.2150 C   0  0  0  0  0  0  0  0  0  0  0  0
  151.7952  138.8001  155.2511 C   0  0  2  0  0  0  0  0  0  0  0  0
  153.0828  139.1961  154.8255 O   0  0  0  0  0  0  0  0  0  0  0  0
  151.5857  139.3371  156.6811 C   0  0  0  0  0  0  0  0  0  0  0  0
  151.1641  140.7443  156.7055 N   0  0  0  0  0  0  0  0  0  0  0  0
  150.3811  141.4416  155.8380 C   0  0  0  0  0  0  0  0  0  0  0  0
  150.2863  142.7172  156.3061 N   0  3  0  0  0  0  0  0  0  0  0  0
  151.0197  142.8356  157.4887 C   0  0  0  0  0  0  0  0  0  0  0  0
  151.2264  143.9236  158.3287 C   0  0  0  0  0  0  0  0  0  0  0  0
  152.0342  143.7136  159.4693 C   0  0  0  0  0  0  0  0  0  0  0  0
  152.2812  144.8824  160.4080 C   0  0  0  0  0  0  0  0  0  0  0  0
  152.6055  142.4420  159.7357 C   0  0  0  0  0  0  0  0  0  0  0  0
  153.4732  142.2272  160.9643 C   0  0  0  0  0  0  0  0  0  0  0  0
  152.3821  141.3476  158.8699 C   0  0  0  0  0  0  0  0  0  0  0  0
  151.5849  141.5726  157.7506 C   0  0  0  0  0  0  0  0  0  0  0  0
  151.4029  131.0756  157.0915 H   0  0  0  0  0  0  0  0  0  0  0  0
  151.8657  132.7466  157.4047 H   0  0  0  0  0  0  0  0  0  0  0  0
  152.1023  132.0502  155.8013 H   0  0  0  0  0  0  0  0  0  0  0  0
  149.6128  131.8285  155.5366 H   0  0  0  0  0  0  0  0  0  0  0  0
  149.3759  132.5081  157.1257 H   0  0  0  0  0  0  0  0  0  0  0  0
  150.6019  133.9959  154.7222 H   0  0  0  0  0  0  0  0  0  0  0  0
  149.0037  134.2334  155.3971 H   0  0  0  0  0  0  0  0  0  0  0  0
  148.8356  136.5477  154.6882 H   0  0  0  0  0  0  0  0  0  0  0  0
  149.1967  138.1946  155.2489 H   0  0  0  0  0  0  0  0  0  0  0  0
  148.4740  137.0300  156.3496 H   0  0  0  0  0  0  0  0  0  0  0  0
  152.5756  136.8316  155.6736 H   0  0  0  0  0  0  0  0  0  0  0  0
  151.6845  136.8997  154.1850 H   0  0  0  0  0  0  0  0  0  0  0  0
  151.0569  139.2703  154.6032 H   0  0  0  0  0  0  0  0  0  0  0  0
  153.5595  138.4262  154.5552 H   0  0  0  0  0  0  0  0  0  0  0  0
  150.8391  138.7482  157.2153 H   0  0  0  0  0  0  0  0  0  0  0  0
  152.5088  139.2591  157.2577 H   0  0  0  0  0  0  0  0  0  0  0  0
  149.9163  141.0531  154.9433 H   0  0  0  0  0  0  0  0  0  0  0  0
  150.7885  144.8889  158.1197 H   0  0  0  0  0  0  0  0  0  0  0  0
  153.3395  145.1435  160.4207 H   0  0  0  0  0  0  0  0  0  0  0  0
  151.9736  144.6326  161.4234 H   0  0  0  0  0  0  0  0  0  0  0  0
  151.7223  145.7668  160.1002 H   0  0  0  0  0  0  0  0  0  0  0  0
  153.8770  141.2147  160.9948 H   0  0  0  0  0  0  0  0  0  0  0  0
  152.8921  142.3824  161.8736 H   0  0  0  0  0  0  0  0  0  0  0  0
  154.3148  142.9203  160.9670 H   0  0  0  0  0  0  0  0  0  0  0  0
  152.8142  140.3789  159.0735 H   0  0  0  0  0  0  0  0  0  0  0  0
  149.7586  143.4507  155.8503 H   0  0  0  0  0  0  0  0  0  0  0  0
  1  2  1  0  0  0  0
  1 24  1  0  0  0  0
  1 25  1  0  0  0  0
  1 26  1  0  0  0  0
  2  3  1  0  0  0  0
  2 27  1  0  0  0  0
  2 28  1  0  0  0  0
  3  4  1  0  0  0  0
  3 29  1  0  0  0  0
  3 30  1  0  0  0  0
  4  5  2  0  0  0  0
  4  6  2  0  0  0  0
  4  7  1  0  0  0  0
  7  8  1  0  0  0  0
  7  9  1  0  0  0  0
  8 31  1  0  0  0  0
  8 32  1  0  0  0  0
  8 33  1  0  0  0  0
  9 10  1  0  0  0  0
  9 34  1  0  0  0  0
  9 35  1  0  0  0  0
 10 11  1  0  0  0  0
 10 12  1  0  0  0  0
 10 36  1  0  0  0  0
 11 37  1  0  0  0  0
 12 13  1  0  0  0  0
 12 38  1  0  0  0  0
 12 39  1  0  0  0  0
 13 23  1  0  0  0  0
 13 14  1  0  0  0  0
 14 15  2  0  0  0  0
 14 40  1  0  0  0  0
 15 16  1  0  0  0  0
 15 49  1  0  0  0  0
 16 23  2  0  0  0  0
 16 17  1  0  0  0  0
 17 18  2  0  0  0  0
 17 41  1  0  0  0  0
 18 19  1  0  0  0  0
 18 20  1  0  0  0  0
 19 42  1  0  0  0  0
 19 43  1  0  0  0  0
 19 44  1  0  0  0  0
 20 21  1  0  0  0  0
 20 22  2  0  0  0  0
 21 45  1  0  0  0  0
 21 46  1  0  0  0  0
 21 47  1  0  0  0  0
 22 23  1  0  0  0  0
 22 48  1  0  0  0  0
M  CHG  1  15   1
M  END
> <s_m_source_file>
AV-unprocessed.smi

> <i_m_source_file_index>
2825

> <i_lp_mmshare_version>
43012

> <i_f3d_flags>
0

> <s_epik_input>
W0NIM11bQ0gyXVtDSDJdUyg9TykoPU8pTihbQ0gzXSlbQ0gyXVtDQEhdKFtPSF0pW0NIMl1uKFtjSF1uMSljKGMxMilbY0hdYyhbQ0gzXSljKFtjSF0yKVtDSDNd

> <s_epik_cmdline>
J2VwaWtfcHl0aG9uJywgJy1waCcsICc3LjAnLCAnLXRuJywgJzgnLCAnLW1hJywgJzIwMCcsICctbWV0YWxfYmluZGluZycsICctaW1hZScsICc8aW5maWxlLm1hZT4nLCAnLW9tYWUnLCAnPG91dGZpbGUubWFlPic=

> <r_epik_Ionization_Penalty>
1.0773

> <r_epik_Ionization_Penalty_Charging>
1.0773

> <r_epik_Ionization_Penalty_Neutral>
1.44651e-06

> <r_epik_State_Penalty>
1.13242

> <r_epik_Charging_Adjusted_Penalty>
2.20972

> <i_epik_Tot_Q>
1

> <i_epik_Tot_abs_Q>
1

> <r_epik_Metal_State_Penalty>
5.13045

> <b_epik_Metal_Only>
0

> <s_lp_Force_Field>
OPLS_2005

> <r_lp_Energy>
13.8299

> <b_lp_Chiralities_Consistent>
1

> <s_lp_Variant>
AV-unprocessed.smi:2825-3

> <Gold.Version>
5.8.1

> <Gold.Id.Protein>
6NUR|6NUR_protein|mol2

> <Gold.PLP.Fitness>
62.3147

> <Gold.PLP.PLP>
-49.3954

> <Gold.PLP.part.hbond>
-4.8593

> <Gold.PLP.part.metal>
0.0000

> <Gold.PLP.part.buried>
-6.1548

> <Gold.PLP.part.nonpolar>
-39.8765

> <Gold.PLP.part.repulsive>
0.1013

> <Gold.PLP.ligand.clash>
0.0000

> <Gold.PLP.ligand.torsion>
1.9259

> <Gold.PLP.Chemscore.Hbond>
4.7690

> <Gold.PLP.Chemscore.CHOScore>
0.0000

> <Gold.PLP.Chemscore.Metal>
0.0000

> <Gold.Chemscore.Hbonds>
donor molecule, donor type, donor heavy atom, donor atom, acceptor molecule, acceptor atom, score
      L1  H    15    49       P1  8028  2.00
      P1  H  6896  6907       L1     5  0.96
      P1  H  7997  8009       L1    11  0.98
      P1  H 10752 10765       L1     6  0.52

> <Gold.PLP.Chemscore.Internal.Correction>
2.4640

> <Gold.Rescore>
     Score         DG    S(hbond)    S(metal)    S(lipo)     H(rot)  DE(clash)    DE(int)     intcor
     18.54     -21.85       2.78        0.00     115.40       2.51       0.54       2.77       ----

> <Gold.Chemscore.Fitness>
18.5388

> <Gold.Chemscore.DG>
-21.8534

> <Gold.Chemscore.ZeroCoef>
-5.4800

> <Gold.Chemscore.Hbond>
2.7839

> <Gold.Chemscore.Metal>
0.0000

> <Gold.Chemscore.Lipo>
115.4039

> <Gold.Chemscore.Internal_Hbond>
0.0000

> <Gold.Chemscore.DEClash>
0.5402

> <Gold.Chemscore.DEInternal>
2.7745

> <Gold.Chemscore.Rot>
2.5106

> <Gold.Chemscore.Internal.Correction>
   9.000000E+99

> <Gold.Chemscore.Hbonds>
donor molecule, donor type, donor heavy atom, donor atom, acceptor molecule, acceptor atom, score
      L1  H    15    49       P1  8028  0.95
      P1  H  6896  6907       L1     5  0.50
      P1  H  7997  8009       L1    11  0.36
      P1  H 10752 10765       L1     6  0.44

> <Gold.Chemscore.Hbond.Weighted>
-9.2982

> <Gold.Chemscore.Metal.Weighted>
-0.0000

> <Gold.Chemscore.Lipo.Weighted>
-13.5023

> <Gold.Chemscore.Internal_Hbond.Weighted>
0.0000

> <Gold.Chemscore.DEClash.Weighted>
0.5402

> <Gold.Chemscore.DEInternal.Weighted>
2.7745

> <Gold.Chemscore.Rot.Weighted>
6.4271

> <Gold.Chemscore.Internal.Correction.Weighted>
   9.000000E+99

> <Gold.Protein.RotatedTorsions>
[ 6907 6896 6895 6894 ] final  -87.28 input  -60.11 | X-H torsion
[ 7974 7965 7964 7962 ] final   22.46 input  175.53 | X-H torsion
[ 8008 7997 7996 7995 ] final -148.08 input   59.86 | X-H torsion
[ 10167 10162 10161 10158 ] final  -44.74 input  -65.29 | X-H torsion
[ 10718 10713 10712 10709 ] final -171.85 input   66.30 | X-H torsion
[ 10763 10752 10751 10750 ] final -133.30 input  -60.55 | X-H torsion
[ 11005 11000 10999 10996 ] final  124.67 input  -57.11 | X-H torsion

> <Gold.Protein.ActiveResidues>
 VAL166  LYS551  ARG553  GLY616  TRP617  ASP618  TYR619  PRO620  LYS621  CYS622 
 ASP623  PHE694  ASN695  SER759  ASP760  ASP761  ALA762  ILE779  LEU786  VAL792 
 PHE793  MET794  SER795  GLU796  ALA797  LYS798  CYS799  TRP800  GLU811  SER814 

> <Gold.Protein.RotatedAtoms>
  150.6866  134.2921  159.4670 H   0  0  0  0  0  0  0  0  0  0  0  0  # atno 6907 bound_to 6896
  152.0825  134.9459  160.0582 H   0  0  0  0  0  0  0  0  0  0  0  0  # atno 6908 bound_to 6896
  152.0806  133.4116  159.4536 H   0  0  0  0  0  0  0  0  0  0  0  0  # atno 6909 bound_to 6896
  146.2028  139.7882  142.8749 H   0  0  0  0  0  0  0  0  0  0  0  0  # atno 7974 bound_to 7965
  155.5858  140.0648  157.2771 H   0  0  0  0  0  0  0  0  0  0  0  0  # atno 8008 bound_to 7997
  154.4319  140.1844  156.1070 H   0  0  0  0  0  0  0  0  0  0  0  0  # atno 8009 bound_to 7997
  156.0270  140.3310  155.7103 H   0  0  0  0  0  0  0  0  0  0  0  0  # atno 8010 bound_to 7997
  140.6885  143.2915  151.3539 H   0  0  0  0  0  0  0  0  0  0  0  0  # atno 10167 bound_to 10162
  156.7469  130.9363  151.3113 H   0  0  0  0  0  0  0  0  0  0  0  0  # atno 10718 bound_to 10713
  154.8734  135.3770  154.4550 H   0  0  0  0  0  0  0  0  0  0  0  0  # atno 10763 bound_to 10752
  153.5223  135.7029  153.5730 H   0  0  0  0  0  0  0  0  0  0  0  0  # atno 10764 bound_to 10752
  153.3972  135.3957  155.1928 H   0  0  0  0  0  0  0  0  0  0  0  0  # atno 10765 bound_to 10752
  139.9369  134.9639  156.8443 H   0  0  0  0  0  0  0  0  0  0  0  0  # atno 11005 bound_to 11000
  145.3426  141.0291  143.3384 LP  0  0  0  0  0  0  0  0  0  0  0  0  # atno 17320 bound_to 7965
  144.8721  139.5023  143.6762 LP  0  0  0  0  0  0  0  0  0  0  0  0  # atno 17321 bound_to 7965
  139.6265  144.0803  152.2439 LP  0  0  0  0  0  0  0  0  0  0  0  0  # atno 17342 bound_to 10162
  140.0265  144.6114  150.7523 LP  0  0  0  0  0  0  0  0  0  0  0  0  # atno 17343 bound_to 10162
  157.6794  130.9125  150.0230 LP  0  0  0  0  0  0  0  0  0  0  0  0  # atno 17370 bound_to 10713
  156.1427  130.3642  149.9557 LP  0  0  0  0  0  0  0  0  0  0  0  0  # atno 17371 bound_to 10713
  140.6051  134.0135  155.7553 LP  0  0  0  0  0  0  0  0  0  0  0  0  # atno 17394 bound_to 11000
  141.0987  133.9802  157.3116 LP  0  0  0  0  0  0  0  0  0  0  0  0  # atno 17395 bound_to 11000

$$$$
