AV-unprocessed.smi:2736|AV-procd|sdf|10545|dock4
  -GOLD-   2272014593D 1   1.00000     0.00000
 Structure written by MMmdl.
 38 40  0  0  0  0  0  0  0  0  1 V2000
  154.6000  139.7619  160.1447 C   0  0  0  0  0  0  0  0  0  0  0  0
  153.6582  140.8953  160.0833 N   0  0  0  0  0  0  0  0  0  0  0  0
  152.8218  140.9846  159.0017 C   0  0  0  0  0  0  0  0  0  0  0  0
  152.7910  140.1859  158.0654 O   0  0  0  0  0  0  0  0  0  0  0  0
  151.9282  142.1445  159.0377 C   0  0  0  0  0  0  0  0  0  0  0  0
  151.9270  143.0441  160.0505 C   0  0  0  0  0  0  0  0  0  0  0  0
  150.9830  144.0429  159.8400 N   0  0  0  0  0  0  0  0  0  0  0  0
  150.4516  143.6799  158.6715 C   0  0  0  0  0  0  0  0  0  0  0  0
  150.9625  142.5582  158.1227 N   0  0  0  0  0  0  0  0  0  0  0  0
  150.5643  141.9550  156.8592 C   0  0  0  0  0  0  0  0  0  0  0  0
  149.2824  141.1048  156.9772 C   0  0  2  0  0  0  0  0  0  0  0  0
  149.6287  139.7504  157.2019 O   0  0  0  0  0  0  0  0  0  0  0  0
  148.3946  141.2758  155.7467 C   0  0  0  0  0  0  0  0  0  0  0  0
  147.2541  142.1081  155.8289 C   0  0  0  0  0  0  0  0  0  0  0  0
  146.4088  142.2831  154.7173 C   0  0  0  0  0  0  0  0  0  0  0  0
  146.6932  141.6234  153.5086 C   0  0  0  0  0  0  0  0  0  0  0  0
  147.8200  140.7861  153.4167 C   0  0  0  0  0  0  0  0  0  0  0  0
  148.6696  140.6055  154.5269 C   0  0  0  0  0  0  0  0  0  0  0  0
  150.0285  139.5513  154.3505 Cl  0  0  0  0  0  0  0  0  0  0  0  0
  152.8336  142.8600  161.1238 N   0  0  0  0  0  0  0  0  0  0  0  0
  152.8077  143.8555  162.1994 C   0  0  0  0  0  0  0  0  0  0  0  0
  153.6970  141.7909  161.1393 C   0  0  0  0  0  0  0  0  0  0  0  0
  154.4883  141.6339  162.0732 O   0  0  0  0  0  0  0  0  0  0  0  0
  154.5359  139.0651  159.3083 H   0  0  0  0  0  0  0  0  0  0  0  0
  154.4308  139.1744  161.0485 H   0  0  0  0  0  0  0  0  0  0  0  0
  155.6289  140.1244  160.1679 H   0  0  0  0  0  0  0  0  0  0  0  0
  149.6680  144.2518  158.1964 H   0  0  0  0  0  0  0  0  0  0  0  0
  150.4342  142.7453  156.1199 H   0  0  0  0  0  0  0  0  0  0  0  0
  151.3904  141.3394  156.4999 H   0  0  0  0  0  0  0  0  0  0  0  0
  148.7369  141.4101  157.8688 H   0  0  0  0  0  0  0  0  0  0  0  0
  150.2671  139.7166  157.8980 H   0  0  0  0  0  0  0  0  0  0  0  0
  147.0183  142.6171  156.7522 H   0  0  0  0  0  0  0  0  0  0  0  0
  145.5413  142.9222  154.7933 H   0  0  0  0  0  0  0  0  0  0  0  0
  146.0462  141.7560  152.6541 H   0  0  0  0  0  0  0  0  0  0  0  0
  148.0320  140.2768  152.4881 H   0  0  0  0  0  0  0  0  0  0  0  0
  153.5119  143.6641  163.0094 H   0  0  0  0  0  0  0  0  0  0  0  0
  151.8116  143.8980  162.6409 H   0  0  0  0  0  0  0  0  0  0  0  0
  153.0370  144.8428  161.7974 H   0  0  0  0  0  0  0  0  0  0  0  0
  1  2  1  0  0  0  0
  1 24  1  0  0  0  0
  1 25  1  0  0  0  0
  1 26  1  0  0  0  0
  2 22  1  0  0  0  0
  2  3  1  0  0  0  0
  3  4  2  0  0  0  0
  3  5  1  0  0  0  0
  5  9  1  0  0  0  0
  5  6  2  0  0  0  0
  6  7  1  0  0  0  0
  6 20  1  0  0  0  0
  7  8  2  0  0  0  0
  8  9  1  0  0  0  0
  8 27  1  0  0  0  0
  9 10  1  0  0  0  0
 10 11  1  0  0  0  0
 10 28  1  0  0  0  0
 10 29  1  0  0  0  0
 11 12  1  0  0  0  0
 11 13  1  0  0  0  0
 11 30  1  0  0  0  0
 12 31  1  0  0  0  0
 13 18  1  0  0  0  0
 13 14  2  0  0  0  0
 14 15  1  0  0  0  0
 14 32  1  0  0  0  0
 15 16  2  0  0  0  0
 15 33  1  0  0  0  0
 16 17  1  0  0  0  0
 16 34  1  0  0  0  0
 17 18  2  0  0  0  0
 17 35  1  0  0  0  0
 18 19  1  0  0  0  0
 20 21  1  0  0  0  0
 20 22  1  0  0  0  0
 21 36  1  0  0  0  0
 21 37  1  0  0  0  0
 21 38  1  0  0  0  0
 22 23  2  0  0  0  0
M  END
> <s_m_source_file>
AV-unprocessed.smi

> <i_m_source_file_index>
2736

> <i_lp_mmshare_version>
43012

> <i_f3d_flags>
0

> <s_epik_input>
Tz1jMW4oW0NIM10pYyg9TyluKFtDSDNdKWMoYzEyKW5bY0hdbjJbQ0gyXVtDQEhdKFtPSF0pYzNbY0hdW2NIXVtjSF1bY0hdYzNDbA==

> <s_epik_cmdline>
J2VwaWtfcHl0aG9uJywgJy1waCcsICc3LjAnLCAnLXRuJywgJzgnLCAnLW1hJywgJzIwMCcsICctbWV0YWxfYmluZGluZycsICctaW1hZScsICc8aW5maWxlLm1hZT4nLCAnLW9tYWUnLCAnPG91dGZpbGUubWFlPic=

> <r_lp_tautomer_probability>
1

> <r_epik_Ionization_Penalty>
1.63404e-06

> <r_epik_Ionization_Penalty_Charging>
3.74189e-09

> <r_epik_Ionization_Penalty_Neutral>
1.63029e-06

> <r_epik_State_Penalty>
-0

> <r_epik_Charging_Adjusted_Penalty>
3.74189e-09

> <i_epik_Tot_Q>
0

> <i_epik_Tot_abs_Q>
0

> <r_epik_Metal_State_Penalty>
-0

> <b_epik_Metal_Only>
0

> <s_lp_Force_Field>
OPLS_2005

> <r_lp_Energy>
36.4155

> <b_lp_Chiralities_Consistent>
1

> <s_lp_Variant>
AV-unprocessed.smi:2736-1

> <Gold.Version>
5.8.1

> <Gold.Id.Protein>
6NUR|6NUR_protein|mol2

> <Gold.PLP.Fitness>
49.5336

> <Gold.PLP.PLP>
-45.8577

> <Gold.PLP.part.hbond>
-2.0000

> <Gold.PLP.part.metal>
0.0000

> <Gold.PLP.part.buried>
-1.0897

> <Gold.PLP.part.nonpolar>
-41.4332

> <Gold.PLP.part.repulsive>
0.0922

> <Gold.PLP.ligand.clash>
0.0000

> <Gold.PLP.ligand.torsion>
1.2226

> <Gold.PLP.Chemscore.Hbond>
0.9672

> <Gold.PLP.Chemscore.CHOScore>
1.0676

> <Gold.PLP.Chemscore.Metal>
0.0000

> <Gold.Chemscore.Hbonds>
donor molecule, donor type, donor heavy atom, donor atom, acceptor molecule, acceptor atom, score
      P1  H  7997  8010       L1     4  0.86
      L1  C     8    27       P1  8028  0.41
      L1  C     8    27       P1  8029  0.58

> <Gold.PLP.Chemscore.Internal.Correction>
0.0166

> <Gold.Rescore>
     Score         DG    S(hbond)    S(metal)    S(lipo)     H(rot)  DE(clash)    DE(int)     intcor
      8.21     -12.54       0.84        0.00      83.25       2.15       1.63       2.70       ----

> <Gold.Chemscore.Fitness>
8.2105

> <Gold.Chemscore.DG>
-12.5435

> <Gold.Chemscore.ZeroCoef>
-5.4800

> <Gold.Chemscore.Hbond>
0.8445

> <Gold.Chemscore.Metal>
0.0000

> <Gold.Chemscore.Lipo>
83.2501

> <Gold.Chemscore.Internal_Hbond>
0.0000

> <Gold.Chemscore.DEClash>
1.6347

> <Gold.Chemscore.DEInternal>
2.6983

> <Gold.Chemscore.Rot>
2.1474

> <Gold.Chemscore.Internal.Correction>
   9.000000E+99

> <Gold.Chemscore.Hbonds>
donor molecule, donor type, donor heavy atom, donor atom, acceptor molecule, acceptor atom, score
      P1  H  7997  8010       L1     4  0.70

> <Gold.Chemscore.Hbond.Weighted>
-2.8206

> <Gold.Chemscore.Metal.Weighted>
-0.0000

> <Gold.Chemscore.Lipo.Weighted>
-9.7403

> <Gold.Chemscore.Internal_Hbond.Weighted>
0.0000

> <Gold.Chemscore.DEClash.Weighted>
1.6347

> <Gold.Chemscore.DEInternal.Weighted>
2.6983

> <Gold.Chemscore.Rot.Weighted>
5.4974

> <Gold.Chemscore.Internal.Correction.Weighted>
   9.000000E+99

> <Gold.Protein.RotatedTorsions>
[ 6907 6896 6895 6894 ] final  -27.98 input  -60.11 | X-H torsion
[ 7974 7965 7964 7962 ] final  155.57 input  175.53 | X-H torsion
[ 8008 7997 7996 7995 ] final   35.94 input   59.86 | X-H torsion
[ 10167 10162 10161 10158 ] final   68.98 input  -65.29 | X-H torsion
[ 10718 10713 10712 10709 ] final  -84.61 input   66.30 | X-H torsion
[ 10763 10752 10751 10750 ] final   59.22 input  -60.55 | X-H torsion
[ 11005 11000 10999 10996 ] final  127.38 input  -57.11 | X-H torsion

> <Gold.Protein.ActiveResidues>
 VAL166  LYS551  ARG553  GLY616  TRP617  ASP618  TYR619  PRO620  LYS621  CYS622 
 ASP623  PHE694  ASN695  SER759  ASP760  ASP761  ALA762  ILE779  LEU786  VAL792 
 PHE793  MET794  SER795  GLU796  ALA797  LYS798  CYS799  TRP800  GLU811  SER814 

> <Gold.Protein.RotatedAtoms>
  151.1394  135.0171  159.8618 H   0  0  0  0  0  0  0  0  0  0  0  0  # atno 6907 bound_to 6896
  152.5452  134.1517  159.8531 H   0  0  0  0  0  0  0  0  0  0  0  0  # atno 6908 bound_to 6896
  151.1591  133.4811  159.2627 H   0  0  0  0  0  0  0  0  0  0  0  0  # atno 6909 bound_to 6896
  144.8016  139.7086  143.6179 H   0  0  0  0  0  0  0  0  0  0  0  0  # atno 7974 bound_to 7965
  155.1793  140.3298  155.4378 H   0  0  0  0  0  0  0  0  0  0  0  0  # atno 8008 bound_to 7997
  156.2482  140.1929  156.6842 H   0  0  0  0  0  0  0  0  0  0  0  0  # atno 8009 bound_to 7997
  154.6282  140.0586  156.9686 H   0  0  0  0  0  0  0  0  0  0  0  0  # atno 8010 bound_to 7997
  140.0728  144.5138  150.7215 H   0  0  0  0  0  0  0  0  0  0  0  0  # atno 10167 bound_to 10162
  156.0004  130.4703  150.4436 H   0  0  0  0  0  0  0  0  0  0  0  0  # atno 10718 bound_to 10713
  152.9889  135.5579  154.5679 H   0  0  0  0  0  0  0  0  0  0  0  0  # atno 10763 bound_to 10752
  154.5085  135.2801  155.1364 H   0  0  0  0  0  0  0  0  0  0  0  0  # atno 10764 bound_to 10752
  154.2766  135.6353  153.5383 H   0  0  0  0  0  0  0  0  0  0  0  0  # atno 10765 bound_to 10752
  139.9505  134.9623  156.8847 H   0  0  0  0  0  0  0  0  0  0  0  0  # atno 11005 bound_to 11000
  146.2299  139.5793  142.9562 LP  0  0  0  0  0  0  0  0  0  0  0  0  # atno 17320 bound_to 7965
  145.5538  141.0411  143.2263 LP  0  0  0  0  0  0  0  0  0  0  0  0  # atno 17321 bound_to 7965
  140.7117  143.2510  151.4561 LP  0  0  0  0  0  0  0  0  0  0  0  0  # atno 17342 bound_to 10162
  139.5826  144.1676  152.1987 LP  0  0  0  0  0  0  0  0  0  0  0  0  # atno 17343 bound_to 10162
  157.2475  131.0539  151.2399 LP  0  0  0  0  0  0  0  0  0  0  0  0  # atno 17370 bound_to 10713
  157.3561  130.7107  149.6471 LP  0  0  0  0  0  0  0  0  0  0  0  0  # atno 17371 bound_to 10713
  140.5731  134.0424  155.7437 LP  0  0  0  0  0  0  0  0  0  0  0  0  # atno 17394 bound_to 11000
  141.1166  133.9530  157.2810 LP  0  0  0  0  0  0  0  0  0  0  0  0  # atno 17395 bound_to 11000

$$$$
