AV-unprocessed.smi:99|AV-procd|sdf|865|dock4
  -GOLD-   2262017313D 1   1.00000     0.00000
 Structure written by MMmdl.
 53 56  0  0  0  0  0  0  0  0  1 V2000
  150.2025  136.6568  159.6099 O   0  0  0  0  0  0  0  0  0  0  0  0
  149.0238  136.9880  159.4704 C   0  0  0  0  0  0  0  0  0  0  0  0
  148.5685  137.7120  158.4298 O   0  0  0  0  0  0  0  0  0  0  0  0
  149.4712  138.3677  157.5534 C   0  0  0  0  0  0  0  0  0  0  0  0
  148.8030  139.6388  157.0142 C   0  0  2  0  0  0  0  0  0  0  0  0
  147.8096  139.2961  156.0524 O   0  0  0  0  0  0  0  0  0  0  0  0
  147.6215  140.3555  155.1545 C   0  0  1  0  0  0  0  0  0  0  0  0
  146.2232  140.9163  155.3216 N   0  0  0  0  0  0  0  0  0  0  0  0
  145.3320  140.4195  156.2649 C   0  0  0  0  0  0  0  0  0  0  0  0
  144.0829  140.9153  156.4320 C   0  0  0  0  0  0  0  0  0  0  0  0
  143.6086  142.0234  155.6091 C   0  0  0  0  0  0  0  0  0  0  0  0
  142.4942  142.5361  155.6846 O   0  0  0  0  0  0  0  0  0  0  0  0
  144.5407  142.4978  154.6819 N   0  0  0  0  0  0  0  0  0  0  0  0
  145.8315  141.9980  154.5034 C   0  0  0  0  0  0  0  0  0  0  0  0
  146.5786  142.5014  153.6651 O   0  0  0  0  0  0  0  0  0  0  0  0
  148.7308  141.3990  155.4273 C   0  0  1  0  0  0  0  0  0  0  0  0
  148.2731  142.5058  156.1913 O   0  0  0  0  0  0  0  0  0  0  0  0
  149.7241  140.5556  156.2106 C   0  0  1  0  0  0  0  0  0  0  0  0
  150.6063  141.3553  156.9947 O   0  0  0  0  0  0  0  0  0  0  0  0
  151.7969  140.8769  157.4198 C   0  0  0  0  0  0  0  0  0  0  0  0
  152.4280  139.9914  156.8399 O   0  0  0  0  0  0  0  0  0  0  0  0
  152.2491  141.5045  158.6937 C   0  0  0  0  0  0  0  0  0  0  0  0
  151.6564  142.7173  159.1159 C   0  0  0  0  0  0  0  0  0  0  0  0
  152.0809  143.3481  160.3012 C   0  0  0  0  0  0  0  0  0  0  0  0
  153.1010  142.7722  161.0801 C   0  0  0  0  0  0  0  0  0  0  0  0
  153.6962  141.5644  160.6725 C   0  0  0  0  0  0  0  0  0  0  0  0
  153.2744  140.9327  159.4863 C   0  0  0  0  0  0  0  0  0  0  0  0
  147.9512  136.6562  160.4525 C   0  0  0  0  0  0  0  0  0  0  0  0
  146.6007  136.9070  160.1161 C   0  0  0  0  0  0  0  0  0  0  0  0
  145.5656  136.5808  161.0138 C   0  0  0  0  0  0  0  0  0  0  0  0
  145.8682  136.0013  162.2597 C   0  0  0  0  0  0  0  0  0  0  0  0
  147.2080  135.7513  162.6084 C   0  0  0  0  0  0  0  0  0  0  0  0
  148.2443  136.0775  161.7123 C   0  0  0  0  0  0  0  0  0  0  0  0
  144.2576  143.2696  154.0956 H   0  0  0  0  0  0  0  0  0  0  0  0
  150.4031  138.6252  158.0592 H   0  0  0  0  0  0  0  0  0  0  0  0
  149.7171  137.6918  156.7340 H   0  0  0  0  0  0  0  0  0  0  0  0
  148.3253  140.1915  157.8250 H   0  0  0  0  0  0  0  0  0  0  0  0
  147.6636  139.9330  154.1486 H   0  0  0  0  0  0  0  0  0  0  0  0
  145.6282  139.6052  156.9084 H   0  0  0  0  0  0  0  0  0  0  0  0
  143.4301  140.4906  157.1809 H   0  0  0  0  0  0  0  0  0  0  0  0
  149.1478  141.7606  154.4869 H   0  0  0  0  0  0  0  0  0  0  0  0
  148.7734  143.2679  155.9426 H   0  0  0  0  0  0  0  0  0  0  0  0
  150.2749  139.9485  155.4905 H   0  0  0  0  0  0  0  0  0  0  0  0
  150.8777  143.1832  158.5295 H   0  0  0  0  0  0  0  0  0  0  0  0
  151.6251  144.2772  160.6104 H   0  0  0  0  0  0  0  0  0  0  0  0
  153.4271  143.2568  161.9886 H   0  0  0  0  0  0  0  0  0  0  0  0
  154.4796  141.1213  161.2694 H   0  0  0  0  0  0  0  0  0  0  0  0
  153.7544  140.0084  159.2004 H   0  0  0  0  0  0  0  0  0  0  0  0
  146.3433  137.3451  159.1624 H   0  0  0  0  0  0  0  0  0  0  0  0
  144.5375  136.7732  160.7443 H   0  0  0  0  0  0  0  0  0  0  0  0
  145.0739  135.7485  162.9465 H   0  0  0  0  0  0  0  0  0  0  0  0
  147.4423  135.3032  163.5628 H   0  0  0  0  0  0  0  0  0  0  0  0
  149.2609  135.8648  162.0089 H   0  0  0  0  0  0  0  0  0  0  0  0
  1  2  2  0  0  0  0
  2  3  1  0  0  0  0
  2 28  1  0  0  0  0
  3  4  1  0  0  0  0
  4  5  1  0  0  0  0
  4 35  1  0  0  0  0
  4 36  1  0  0  0  0
  5 18  1  0  0  0  0
  5  6  1  0  0  0  0
  5 37  1  0  0  0  0
  6  7  1  0  0  0  0
  7  8  1  0  0  0  0
  7 16  1  0  0  0  0
  7 38  1  0  0  0  0
  8 14  1  0  0  0  0
  8  9  1  0  0  0  0
  9 10  2  0  0  0  0
  9 39  1  0  0  0  0
 10 11  1  0  0  0  0
 10 40  1  0  0  0  0
 11 12  2  0  0  0  0
 11 13  1  0  0  0  0
 13 34  1  0  0  0  0
 13 14  1  0  0  0  0
 14 15  2  0  0  0  0
 16 17  1  0  0  0  0
 16 18  1  0  0  0  0
 16 41  1  0  0  0  0
 17 42  1  0  0  0  0
 18 19  1  0  0  0  0
 18 43  1  0  0  0  0
 19 20  1  0  0  0  0
 20 21  2  0  0  0  0
 20 22  1  0  0  0  0
 22 27  1  0  0  0  0
 22 23  2  0  0  0  0
 23 24  1  0  0  0  0
 23 44  1  0  0  0  0
 24 25  2  0  0  0  0
 24 45  1  0  0  0  0
 25 26  1  0  0  0  0
 25 46  1  0  0  0  0
 26 27  2  0  0  0  0
 26 47  1  0  0  0  0
 27 48  1  0  0  0  0
 28 33  1  0  0  0  0
 28 29  2  0  0  0  0
 29 30  1  0  0  0  0
 29 49  1  0  0  0  0
 30 31  2  0  0  0  0
 30 50  1  0  0  0  0
 31 32  1  0  0  0  0
 31 51  1  0  0  0  0
 32 33  2  0  0  0  0
 32 52  1  0  0  0  0
 33 53  1  0  0  0  0
M  END
> <s_m_source_file>
AV-unprocessed.smi

> <i_m_source_file_index>
99

> <i_lp_mmshare_version>
43012

> <i_f3d_flags>
0

> <s_epik_input>
W2NIXTFbY0hdW2NIXVtjSF1bY0hdYzFDKD1PKU9bQ0gyXVtDQEBIXTJPW0NAQEhdKG4zW2NIXVtjSF1jKD1PKVtuSF1jMz1PKVtDQEBIXShbT0hdKVtDQEhdMk9DKD1PKWM0W2NIXVtjSF1bY0hdW2NIXVtjSF00

> <s_epik_cmdline>
J2VwaWtfcHl0aG9uJywgJy1waCcsICc3LjAnLCAnLXRuJywgJzgnLCAnLW1hJywgJzIwMCcsICctbWV0YWxfYmluZGluZycsICctaW1hZScsICc8aW5maWxlLm1hZT4nLCAnLW9tYWUnLCAnPG91dGZpbGUubWFlPic=

> <r_lp_tautomer_probability>
1

> <r_epik_Ionization_Penalty>
0.00454555

> <r_epik_Ionization_Penalty_Charging>
0.0045191

> <r_epik_Ionization_Penalty_Neutral>
2.64449e-05

> <r_epik_State_Penalty>
-0

> <r_epik_Charging_Adjusted_Penalty>
0.0045191

> <i_epik_Tot_Q>
0

> <i_epik_Tot_abs_Q>
0

> <r_epik_Metal_State_Penalty>
1.27877

> <b_epik_Metal_Only>
0

> <s_epik_Chemistry_Notes>
This compound has an ester and may undergo hydrolysis at high or low pH. This compound contains an acetal/aminal-like group ( X-CH(R)-Y where X, Y are N, S, or O) that may be acid/base labile, releasing an aldehyde.

> <s_lp_Force_Field>
OPLS_2005

> <r_lp_Energy>
44.6164

> <b_lp_Chiralities_Consistent>
1

> <s_lp_Variant>
AV-unprocessed.smi:99-1

> <Gold.Version>
5.8.1

> <Gold.Id.Protein>
6NUR|6NUR_protein|mol2

> <Gold.PLP.Fitness>
51.5466

> <Gold.PLP.PLP>
-44.7127

> <Gold.PLP.part.hbond>
-3.2139

> <Gold.PLP.part.metal>
0.0000

> <Gold.PLP.part.buried>
-7.0363

> <Gold.PLP.part.nonpolar>
-35.5830

> <Gold.PLP.part.repulsive>
0.3550

> <Gold.PLP.ligand.clash>
0.0000

> <Gold.PLP.ligand.torsion>
1.1745

> <Gold.PLP.Chemscore.Hbond>
2.9672

> <Gold.PLP.Chemscore.CHOScore>
0.0000

> <Gold.PLP.Chemscore.Metal>
0.0000

> <Gold.Chemscore.Hbonds>
donor molecule, donor type, donor heavy atom, donor atom, acceptor molecule, acceptor atom, score
      L1  H    17    42       P1  8028  0.88
      P1  H  6896  6907       L1     1  0.99
      P1  H  7997  8010       L1    21  1.00

> <Gold.PLP.Chemscore.Internal.Correction>
0.2812

> <Gold.Rescore>
     Score         DG    S(hbond)    S(metal)    S(lipo)     H(rot)  DE(clash)    DE(int)     intcor
     17.36     -19.61       2.81        0.00     110.51       3.19       1.09       1.16       ----

> <Gold.Chemscore.Fitness>
17.3618

> <Gold.Chemscore.DG>
-19.6140

> <Gold.Chemscore.ZeroCoef>
-5.4800

> <Gold.Chemscore.Hbond>
2.8057

> <Gold.Chemscore.Metal>
0.0000

> <Gold.Chemscore.Lipo>
110.5141

> <Gold.Chemscore.Internal_Hbond>
0.0000

> <Gold.Chemscore.DEClash>
1.0926

> <Gold.Chemscore.DEInternal>
1.1597

> <Gold.Chemscore.Rot>
3.1903

> <Gold.Chemscore.Internal.Correction>
   9.000000E+99

> <Gold.Chemscore.Hbonds>
donor molecule, donor type, donor heavy atom, donor atom, acceptor molecule, acceptor atom, score
      L1  H    17    42       P1  8028  0.80
      P1  H  6896  6907       L1     1  0.93
      P1  H  7997  8010       L1    21  0.98

> <Gold.Chemscore.Hbond.Weighted>
-9.3710

> <Gold.Chemscore.Metal.Weighted>
-0.0000

> <Gold.Chemscore.Lipo.Weighted>
-12.9301

> <Gold.Chemscore.Internal_Hbond.Weighted>
0.0000

> <Gold.Chemscore.DEClash.Weighted>
1.0926

> <Gold.Chemscore.DEInternal.Weighted>
1.1597

> <Gold.Chemscore.Rot.Weighted>
8.1671

> <Gold.Chemscore.Internal.Correction.Weighted>
   9.000000E+99

> <Gold.Protein.RotatedTorsions>
[ 6907 6896 6895 6894 ] final  -54.08 input  -60.11 | X-H torsion
[ 7974 7965 7964 7962 ] final  116.11 input  175.53 | X-H torsion
[ 8008 7997 7996 7995 ] final   67.82 input   59.86 | X-H torsion
[ 10167 10162 10161 10158 ] final   81.98 input  -65.29 | X-H torsion
[ 10718 10713 10712 10709 ] final  131.10 input   66.30 | X-H torsion
[ 10763 10752 10751 10750 ] final   20.02 input  -60.55 | X-H torsion
[ 11005 11000 10999 10996 ] final  -66.68 input  -57.11 | X-H torsion

> <Gold.Protein.ActiveResidues>
 VAL166  LYS551  ARG553  GLY616  TRP617  ASP618  TYR619  PRO620  LYS621  CYS622 
 ASP623  PHE694  ASN695  SER759  ASP760  ASP761  ALA762  ILE779  LEU786  VAL792 
 PHE793  MET794  SER795  GLU796  ALA797  LYS798  CYS799  TRP800  GLU811  SER814 

> <Gold.Protein.RotatedAtoms>
  150.8370  134.7646  159.6900 H   0  0  0  0  0  0  0  0  0  0  0  0  # atno 6907 bound_to 6896
  152.4464  134.5481  159.9868 H   0  0  0  0  0  0  0  0  0  0  0  0  # atno 6908 bound_to 6896
  151.5630  133.3363  159.3010 H   0  0  0  0  0  0  0  0  0  0  0  0  # atno 6909 bound_to 6896
  145.1836  139.3037  143.4405 H   0  0  0  0  0  0  0  0  0  0  0  0  # atno 7974 bound_to 7965
  155.6988  140.3495  155.4924 H   0  0  0  0  0  0  0  0  0  0  0  0  # atno 8008 bound_to 7997
  155.9459  140.1110  157.1039 H   0  0  0  0  0  0  0  0  0  0  0  0  # atno 8009 bound_to 7997
  154.4112  140.1203  156.4975 H   0  0  0  0  0  0  0  0  0  0  0  0  # atno 8010 bound_to 7997
  139.9336  144.6136  150.8321 H   0  0  0  0  0  0  0  0  0  0  0  0  # atno 10167 bound_to 10162
  157.4999  131.1094  150.9441 H   0  0  0  0  0  0  0  0  0  0  0  0  # atno 10718 bound_to 10713
  153.1113  135.6697  153.9496 H   0  0  0  0  0  0  0  0  0  0  0  0  # atno 10763 bound_to 10752
  153.9039  135.3033  155.3450 H   0  0  0  0  0  0  0  0  0  0  0  0  # atno 10764 bound_to 10752
  154.7532  135.5024  153.9404 H   0  0  0  0  0  0  0  0  0  0  0  0  # atno 10765 bound_to 10752
  141.1488  133.6704  156.6177 H   0  0  0  0  0  0  0  0  0  0  0  0  # atno 11005 bound_to 11000
  146.3449  140.2024  142.8589 LP  0  0  0  0  0  0  0  0  0  0  0  0  # atno 17320 bound_to 7965
  145.0111  140.8715  143.5223 LP  0  0  0  0  0  0  0  0  0  0  0  0  # atno 17321 bound_to 7965
  140.7631  143.3214  151.2614 LP  0  0  0  0  0  0  0  0  0  0  0  0  # atno 17342 bound_to 10162
  139.6762  143.9933  152.2782 LP  0  0  0  0  0  0  0  0  0  0  0  0  # atno 17343 bound_to 10162
  157.0115  130.5638  149.5321 LP  0  0  0  0  0  0  0  0  0  0  0  0  # atno 17370 bound_to 10713
  156.0223  130.5318  150.8310 LP  0  0  0  0  0  0  0  0  0  0  0  0  # atno 17371 bound_to 10713
  140.3565  134.7724  157.4504 LP  0  0  0  0  0  0  0  0  0  0  0  0  # atno 17394 bound_to 11000
  140.0819  134.5719  155.8532 LP  0  0  0  0  0  0  0  0  0  0  0  0  # atno 17395 bound_to 11000

$$$$
