AV-unprocessed.smi:83|AV-procd|sdf|800|dock8
  -GOLD-   2262017183D 1   1.00000     0.00000
 Structure written by MMmdl.
 56 59  0  0  0  0  0  0  0  0  1 V2000
  143.2862  137.1063  161.9525 C   0  0  0  0  0  0  0  0  0  0  0  0
  144.7383  137.5687  162.0863 C   0  0  0  0  0  0  0  0  0  0  0  0
  144.9837  138.7746  162.0686 O   0  0  0  0  0  0  0  0  0  0  0  0
  145.7026  136.6353  162.2184 N   0  0  0  0  0  0  0  0  0  0  0  0
  145.4448  135.1981  162.2452 C   0  0  0  0  0  0  0  0  0  0  0  0
  146.8085  134.5429  162.4839 C   0  0  0  0  0  0  0  0  0  0  0  0
  147.8185  135.5580  161.9496 C   0  0  1  0  0  0  0  0  0  0  0  0
  148.0469  135.3360  160.4342 C   0  0  0  0  0  0  0  0  0  0  0  0
  147.8785  136.5401  159.6187 N   0  0  0  0  0  0  0  0  0  0  0  0
  146.5868  136.7178  158.9574 C   0  0  0  0  0  0  0  0  0  0  0  0
  148.9548  137.2486  159.1617 C   0  0  0  0  0  0  0  0  0  0  0  0
  150.1974  136.8356  159.5351 N   0  0  0  0  0  0  0  0  0  0  0  0
  151.2899  137.5047  159.1609 C   0  0  0  0  0  0  0  0  0  0  0  0
  151.3760  138.6080  158.4199 N   0  0  0  0  0  0  0  0  0  0  0  0
  150.1432  139.0297  158.0227 C   0  0  0  0  0  0  0  0  0  0  0  0
  148.8934  138.4146  158.3328 C   0  0  0  0  0  0  0  0  0  0  0  0
  147.8716  139.1389  157.7248 N   0  0  0  0  0  0  0  0  0  0  0  0
  148.4725  140.1243  157.1193 C   0  0  0  0  0  0  0  0  0  0  0  0
  149.8395  140.1354  157.2483 N   0  0  0  0  0  0  0  0  0  0  0  0
  150.7533  141.1126  156.6836 C   0  0  0  0  0  0  0  0  0  0  0  0
  150.5878  142.5069  157.3175 C   0  0  2  0  0  0  0  0  0  0  0  0
  151.1056  143.5086  156.4626 O   0  0  0  0  0  0  0  0  0  0  0  0
  151.2224  142.6031  158.7202 C   0  0  2  0  0  0  0  0  0  0  0  0
  151.4379  144.0124  159.2794 C   0  0  0  0  0  0  0  0  0  0  0  0
  152.5367  143.7640  160.2883 C   0  0  0  0  0  0  0  0  0  0  0  0
  153.3927  142.7267  159.5658 C   0  0  0  0  0  0  0  0  0  0  0  0
  152.4894  141.9518  158.7822 O   0  0  0  0  0  0  0  0  0  0  0  0
  147.1384  136.8895  162.3060 C   0  0  0  0  0  0  0  0  0  0  0  0
  143.1815  136.3866  161.1404 H   0  0  0  0  0  0  0  0  0  0  0  0
  142.6316  137.9518  161.7388 H   0  0  0  0  0  0  0  0  0  0  0  0
  142.9428  136.6428  162.8770 H   0  0  0  0  0  0  0  0  0  0  0  0
  144.7287  134.9276  163.0226 H   0  0  0  0  0  0  0  0  0  0  0  0
  145.0340  134.8905  161.2822 H   0  0  0  0  0  0  0  0  0  0  0  0
  146.9623  134.4096  163.5556 H   0  0  0  0  0  0  0  0  0  0  0  0
  146.8917  133.5604  162.0180 H   0  0  0  0  0  0  0  0  0  0  0  0
  148.7712  135.4609  162.4716 H   0  0  0  0  0  0  0  0  0  0  0  0
  149.0759  135.0036  160.2934 H   0  0  0  0  0  0  0  0  0  0  0  0
  147.4565  134.5016  160.0716 H   0  0  0  0  0  0  0  0  0  0  0  0
  146.3023  137.7703  158.9366 H   0  0  0  0  0  0  0  0  0  0  0  0
  145.8001  136.1751  159.4820 H   0  0  0  0  0  0  0  0  0  0  0  0
  146.6234  136.3454  157.9330 H   0  0  0  0  0  0  0  0  0  0  0  0
  152.2290  137.1009  159.5100 H   0  0  0  0  0  0  0  0  0  0  0  0
  147.9314  140.8739  156.5604 H   0  0  0  0  0  0  0  0  0  0  0  0
  151.7712  140.7504  156.8330 H   0  0  0  0  0  0  0  0  0  0  0  0
  150.5955  141.1572  155.6053 H   0  0  0  0  0  0  0  0  0  0  0  0
  149.5217  142.7129  157.4216 H   0  0  0  0  0  0  0  0  0  0  0  0
  150.3936  144.0660  156.1881 H   0  0  0  0  0  0  0  0  0  0  0  0
  150.5816  142.0648  159.4206 H   0  0  0  0  0  0  0  0  0  0  0  0
  151.7973  144.7003  158.5135 H   0  0  0  0  0  0  0  0  0  0  0  0
  150.5366  144.4366  159.7224 H   0  0  0  0  0  0  0  0  0  0  0  0
  153.0907  144.6651  160.5523 H   0  0  0  0  0  0  0  0  0  0  0  0
  152.1189  143.3376  161.2012 H   0  0  0  0  0  0  0  0  0  0  0  0
  154.0973  143.2185  158.8943 H   0  0  0  0  0  0  0  0  0  0  0  0
  153.9615  142.1016  160.2545 H   0  0  0  0  0  0  0  0  0  0  0  0
  147.4695  137.7178  161.6846 H   0  0  0  0  0  0  0  0  0  0  0  0
  147.3694  137.1586  163.3377 H   0  0  0  0  0  0  0  0  0  0  0  0
  1  2  1  0  0  0  0
  1 29  1  0  0  0  0
  1 30  1  0  0  0  0
  1 31  1  0  0  0  0
  2  3  2  0  0  0  0
  2  4  1  0  0  0  0
  4 28  1  0  0  0  0
  4  5  1  0  0  0  0
  5  6  1  0  0  0  0
  5 32  1  0  0  0  0
  5 33  1  0  0  0  0
  6  7  1  0  0  0  0
  6 34  1  0  0  0  0
  6 35  1  0  0  0  0
  7  8  1  0  0  0  0
  7 28  1  0  0  0  0
  7 36  1  0  0  0  0
  8  9  1  0  0  0  0
  8 37  1  0  0  0  0
  8 38  1  0  0  0  0
  9 10  1  0  0  0  0
  9 11  1  0  0  0  0
 10 39  1  0  0  0  0
 10 40  1  0  0  0  0
 10 41  1  0  0  0  0
 11 16  1  0  0  0  0
 11 12  2  0  0  0  0
 12 13  1  0  0  0  0
 13 14  2  0  0  0  0
 13 42  1  0  0  0  0
 14 15  1  0  0  0  0
 15 19  1  0  0  0  0
 15 16  2  0  0  0  0
 16 17  1  0  0  0  0
 17 18  2  0  0  0  0
 18 19  1  0  0  0  0
 18 43  1  0  0  0  0
 19 20  1  0  0  0  0
 20 21  1  0  0  0  0
 20 44  1  0  0  0  0
 20 45  1  0  0  0  0
 21 22  1  0  0  0  0
 21 23  1  0  0  0  0
 21 46  1  0  0  0  0
 22 47  1  0  0  0  0
 23 27  1  0  0  0  0
 23 24  1  0  0  0  0
 23 48  1  0  0  0  0
 24 25  1  0  0  0  0
 24 49  1  0  0  0  0
 24 50  1  0  0  0  0
 25 26  1  0  0  0  0
 25 51  1  0  0  0  0
 25 52  1  0  0  0  0
 26 27  1  0  0  0  0
 26 53  1  0  0  0  0
 26 54  1  0  0  0  0
 28 55  1  0  0  0  0
 28 56  1  0  0  0  0
M  END
> <s_m_source_file>
AV-unprocessed.smi

> <i_m_source_file_index>
83

> <i_lp_mmshare_version>
43012

> <i_f3d_flags>
0

> <s_epik_input>
W0NIM11DKD1PKU4xW0NIMl1bQ0gyXVtDQEhdKFtDSDJdMSlbQ0gyXU4oW0NIM10pYyhuW2NIXW4yKWMoYzIzKW5bY0hdbjNbQ0gyXVtDQEhdKFtPSF0pW0NAQEhdNFtDSDJdW0NIMl1bQ0gyXU80

> <s_epik_cmdline>
J2VwaWtfcHl0aG9uJywgJy1waCcsICc3LjAnLCAnLXRuJywgJzgnLCAnLW1hJywgJzIwMCcsICctbWV0YWxfYmluZGluZycsICctaW1hZScsICc8aW5maWxlLm1hZT4nLCAnLW9tYWUnLCAnPG91dGZpbGUubWFlPic=

> <r_lp_tautomer_probability>
1

> <r_epik_Ionization_Penalty>
0.00109752

> <r_epik_Ionization_Penalty_Charging>
0

> <r_epik_Ionization_Penalty_Neutral>
0.00109752

> <r_epik_State_Penalty>
0.000634803

> <r_epik_Charging_Adjusted_Penalty>
0.000634803

> <i_epik_Tot_Q>
0

> <i_epik_Tot_abs_Q>
0

> <r_epik_Metal_State_Penalty>
-0

> <b_epik_Metal_Only>
0

> <s_lp_Force_Field>
OPLS_2005

> <r_lp_Energy>
57.114

> <b_lp_Chiralities_Consistent>
1

> <s_lp_Variant>
AV-unprocessed.smi:83-1

> <Gold.Version>
5.8.1

> <Gold.Id.Protein>
6NUR|6NUR_protein|mol2

> <Gold.PLP.Fitness>
53.0594

> <Gold.PLP.PLP>
-49.7136

> <Gold.PLP.part.hbond>
-4.6078

> <Gold.PLP.part.metal>
0.0000

> <Gold.PLP.part.buried>
-6.4310

> <Gold.PLP.part.nonpolar>
-38.4394

> <Gold.PLP.part.repulsive>
0.0000

> <Gold.PLP.ligand.clash>
0.0000

> <Gold.PLP.ligand.torsion>
1.6110

> <Gold.PLP.Chemscore.Hbond>
2.0541

> <Gold.PLP.Chemscore.CHOScore>
0.0000

> <Gold.PLP.Chemscore.Metal>
0.0000

> <Gold.Chemscore.Hbonds>
donor molecule, donor type, donor heavy atom, donor atom, acceptor molecule, acceptor atom, score
      L1  H    22    47       P1  8028  1.00
      P1  H  6896  6908       L1    12  0.95

> <Gold.PLP.Chemscore.Internal.Correction>
0.4057

> <Gold.Rescore>
     Score         DG    S(hbond)    S(metal)    S(lipo)     H(rot)  DE(clash)    DE(int)     intcor
     14.55     -17.45       1.83        0.00     107.39       2.62       0.25       2.64       ----

> <Gold.Chemscore.Fitness>
14.5520

> <Gold.Chemscore.DG>
-17.4466

> <Gold.Chemscore.ZeroCoef>
-5.4800

> <Gold.Chemscore.Hbond>
1.8254

> <Gold.Chemscore.Metal>
0.0000

> <Gold.Chemscore.Lipo>
107.3887

> <Gold.Chemscore.Internal_Hbond>
0.0000

> <Gold.Chemscore.DEClash>
0.2508

> <Gold.Chemscore.DEInternal>
2.6437

> <Gold.Chemscore.Rot>
2.6152

> <Gold.Chemscore.Internal.Correction>
   9.000000E+99

> <Gold.Chemscore.Hbonds>
donor molecule, donor type, donor heavy atom, donor atom, acceptor molecule, acceptor atom, score
      L1  H    22    47       P1  8028  1.00
      P1  H  6896  6908       L1    12  0.21
      P1  H  6934  6947       L1     3  0.01

> <Gold.Chemscore.Hbond.Weighted>
-6.0970

> <Gold.Chemscore.Metal.Weighted>
-0.0000

> <Gold.Chemscore.Lipo.Weighted>
-12.5645

> <Gold.Chemscore.Internal_Hbond.Weighted>
0.0000

> <Gold.Chemscore.DEClash.Weighted>
0.2508

> <Gold.Chemscore.DEInternal.Weighted>
2.6437

> <Gold.Chemscore.Rot.Weighted>
6.6949

> <Gold.Chemscore.Internal.Correction.Weighted>
   9.000000E+99

> <Gold.Protein.RotatedTorsions>
[ 6907 6896 6895 6894 ] final -156.32 input  -60.11 | X-H torsion
[ 7974 7965 7964 7962 ] final  160.57 input  175.53 | X-H torsion
[ 8008 7997 7996 7995 ] final -129.38 input   59.86 | X-H torsion
[ 10167 10162 10161 10158 ] final   14.51 input  -65.29 | X-H torsion
[ 10718 10713 10712 10709 ] final  123.33 input   66.30 | X-H torsion
[ 10763 10752 10751 10750 ] final -154.40 input  -60.55 | X-H torsion
[ 11005 11000 10999 10996 ] final -133.97 input  -57.11 | X-H torsion

> <Gold.Protein.ActiveResidues>
 VAL166  LYS551  ARG553  GLY616  TRP617  ASP618  TYR619  PRO620  LYS621  CYS622 
 ASP623  PHE694  ASN695  SER759  ASP760  ASP761  ALA762  ILE779  LEU786  VAL792 
 PHE793  MET794  SER795  GLU796  ALA797  LYS798  CYS799  TRP800  GLU811  SER814 

> <Gold.Protein.RotatedAtoms>
  151.2858  133.4188  159.2629 H   0  0  0  0  0  0  0  0  0  0  0  0  # atno 6907 bound_to 6896
  151.0321  134.9547  159.8126 H   0  0  0  0  0  0  0  0  0  0  0  0  # atno 6908 bound_to 6896
  152.5348  134.2819  159.9063 H   0  0  0  0  0  0  0  0  0  0  0  0  # atno 6909 bound_to 6896
  144.7730  139.7776  143.6289 H   0  0  0  0  0  0  0  0  0  0  0  0  # atno 7974 bound_to 7965
  155.2783  140.0443  157.3013 H   0  0  0  0  0  0  0  0  0  0  0  0  # atno 8008 bound_to 7997
  154.5612  140.2346  155.8301 H   0  0  0  0  0  0  0  0  0  0  0  0  # atno 8009 bound_to 7997
  156.2048  140.3015  155.9612 H   0  0  0  0  0  0  0  0  0  0  0  0  # atno 8010 bound_to 7997
  140.5931  143.8756  150.6892 H   0  0  0  0  0  0  0  0  0  0  0  0  # atno 10167 bound_to 10162
  157.5673  131.1085  150.8431 H   0  0  0  0  0  0  0  0  0  0  0  0  # atno 10718 bound_to 10713
  154.7861  135.3191  154.7882 H   0  0  0  0  0  0  0  0  0  0  0  0  # atno 10763 bound_to 10752
  153.8582  135.6856  153.4790 H   0  0  0  0  0  0  0  0  0  0  0  0  # atno 10764 bound_to 10752
  153.1514  135.4698  154.9580 H   0  0  0  0  0  0  0  0  0  0  0  0  # atno 10765 bound_to 10752
  140.9033  134.1663  157.4444 H   0  0  0  0  0  0  0  0  0  0  0  0  # atno 11005 bound_to 11000
  146.1890  139.5120  142.9817 LP  0  0  0  0  0  0  0  0  0  0  0  0  # atno 17320 bound_to 7965
  145.6268  141.0312  143.1885 LP  0  0  0  0  0  0  0  0  0  0  0  0  # atno 17321 bound_to 7965
  140.2284  143.3754  152.1586 LP  0  0  0  0  0  0  0  0  0  0  0  0  # atno 17342 bound_to 10162
  139.5240  144.7078  151.5299 LP  0  0  0  0  0  0  0  0  0  0  0  0  # atno 17343 bound_to 10162
  156.8912  130.5213  149.5286 LP  0  0  0  0  0  0  0  0  0  0  0  0  # atno 17370 bound_to 10713
  156.0721  130.5751  150.9403 LP  0  0  0  0  0  0  0  0  0  0  0  0  # atno 17371 bound_to 10713
  139.8745  134.9907  156.5513 LP  0  0  0  0  0  0  0  0  0  0  0  0  # atno 17394 bound_to 11000
  140.8203  133.8359  155.8889 LP  0  0  0  0  0  0  0  0  0  0  0  0  # atno 17395 bound_to 11000

$$$$
