AV-unprocessed.smi:1787|AV-procd|sdf|7206|dock7
  -GOLD-   22720 8443D 1   1.00000     0.00000
 Structure written by MMmdl.
 44 46  0  0  0  0  0  0  0  0  1 V2000
  151.3603  141.3898  156.7477 O   0  0  0  0  0  0  0  0  0  0  0  0
  150.5403  142.2831  156.5387 C   0  0  0  0  0  0  0  0  0  0  0  0
  149.6887  142.2733  155.5060 N   0  0  0  0  0  0  0  0  0  0  0  0
  149.6062  141.2167  154.5017 C   0  0  0  0  0  0  0  0  0  0  0  0
  149.3195  139.8211  155.1436 C   0  0  1  0  0  0  0  0  0  0  0  0
  150.5933  139.1924  155.6119 N   0  0  0  0  0  0  0  0  0  0  0  0
  150.4837  137.8242  156.1394 C   0  0  0  0  0  0  0  0  0  0  0  0
  151.8255  137.2906  156.6701 C   0  0  0  0  0  0  0  0  0  0  0  0
  152.8065  137.3487  155.6437 O   0  0  0  0  0  0  0  0  0  0  0  0
  152.9993  138.6715  155.1622 C   0  0  0  0  0  0  0  0  0  0  0  0
  151.6721  139.2222  154.6144 C   0  0  0  0  0  0  0  0  0  0  0  0
  148.2802  140.0343  156.2826 C   0  0  0  0  0  0  0  0  0  0  0  0
  146.9137  140.3600  155.6690 C   0  0  0  0  0  0  0  0  0  0  0  0
  146.8071  139.4855  154.0900 S   0  0  0  0  0  0  0  0  0  0  0  0
  148.5439  138.9620  154.1127 C   0  0  0  0  0  0  0  0  0  0  0  0
  150.3805  143.3901  157.2842 N   0  0  0  0  0  0  0  0  0  0  0  0
  151.0792  143.7893  158.4566 C   0  0  0  0  0  0  0  0  0  0  0  0
  150.9477  145.1309  158.8714 C   0  0  0  0  0  0  0  0  0  0  0  0
  151.6132  145.5597  160.0354 C   0  0  0  0  0  0  0  0  0  0  0  0
  152.3851  144.6226  160.7482 C   0  0  0  0  0  0  0  0  0  0  0  0
  152.5137  143.3327  160.3736 N   0  0  0  0  0  0  0  0  0  0  0  0
  151.8727  142.9279  159.2556 C   0  0  0  0  0  0  0  0  0  0  0  0
  149.0465  143.0457  155.4040 H   0  0  0  0  0  0  0  0  0  0  0  0
  148.8407  141.4818  153.7727 H   0  0  0  0  0  0  0  0  0  0  0  0
  150.5310  141.2101  153.9256 H   0  0  0  0  0  0  0  0  0  0  0  0
  149.7848  137.7789  156.9709 H   0  0  0  0  0  0  0  0  0  0  0  0
  150.1167  137.1437  155.3720 H   0  0  0  0  0  0  0  0  0  0  0  0
  152.1565  137.8688  157.5343 H   0  0  0  0  0  0  0  0  0  0  0  0
  151.7172  136.2572  156.9998 H   0  0  0  0  0  0  0  0  0  0  0  0
  153.3807  139.3075  155.9626 H   0  0  0  0  0  0  0  0  0  0  0  0
  153.7552  138.6573  154.3768 H   0  0  0  0  0  0  0  0  0  0  0  0
  151.3840  138.6431  153.7361 H   0  0  0  0  0  0  0  0  0  0  0  0
  151.8629  140.2371  154.2725 H   0  0  0  0  0  0  0  0  0  0  0  0
  148.1237  139.1207  156.8513 H   0  0  0  0  0  0  0  0  0  0  0  0
  148.5889  140.7945  157.0008 H   0  0  0  0  0  0  0  0  0  0  0  0
  146.0952  140.0670  156.3268 H   0  0  0  0  0  0  0  0  0  0  0  0
  146.8143  141.4301  155.4872 H   0  0  0  0  0  0  0  0  0  0  0  0
  148.9697  139.0247  153.1107 H   0  0  0  0  0  0  0  0  0  0  0  0
  148.5412  137.9093  154.3897 H   0  0  0  0  0  0  0  0  0  0  0  0
  149.7001  144.0539  156.9439 H   0  0  0  0  0  0  0  0  0  0  0  0
  150.3457  145.8265  158.3050 H   0  0  0  0  0  0  0  0  0  0  0  0
  151.5330  146.5818  160.3745 H   0  0  0  0  0  0  0  0  0  0  0  0
  152.9088  144.9156  161.6461 H   0  0  0  0  0  0  0  0  0  0  0  0
  151.9988  141.8819  159.0263 H   0  0  0  0  0  0  0  0  0  0  0  0
  1  2  2  0  0  0  0
  2  3  1  0  0  0  0
  2 16  1  0  0  0  0
  3  4  1  0  0  0  0
  3 23  1  0  0  0  0
  4  5  1  0  0  0  0
  4 24  1  0  0  0  0
  4 25  1  0  0  0  0
  5 15  1  0  0  0  0
  5  6  1  0  0  0  0
  5 12  1  0  0  0  0
  6 11  1  0  0  0  0
  6  7  1  0  0  0  0
  7  8  1  0  0  0  0
  7 26  1  0  0  0  0
  7 27  1  0  0  0  0
  8  9  1  0  0  0  0
  8 28  1  0  0  0  0
  8 29  1  0  0  0  0
  9 10  1  0  0  0  0
 10 11  1  0  0  0  0
 10 30  1  0  0  0  0
 10 31  1  0  0  0  0
 11 32  1  0  0  0  0
 11 33  1  0  0  0  0
 12 13  1  0  0  0  0
 12 34  1  0  0  0  0
 12 35  1  0  0  0  0
 13 14  1  0  0  0  0
 13 36  1  0  0  0  0
 13 37  1  0  0  0  0
 14 15  1  0  0  0  0
 15 38  1  0  0  0  0
 15 39  1  0  0  0  0
 16 17  1  0  0  0  0
 16 40  1  0  0  0  0
 17 22  1  0  0  0  0
 17 18  2  0  0  0  0
 18 19  1  0  0  0  0
 18 41  1  0  0  0  0
 19 20  2  0  0  0  0
 19 42  1  0  0  0  0
 20 21  1  0  0  0  0
 20 43  1  0  0  0  0
 21 22  2  0  0  0  0
 22 44  1  0  0  0  0
M  END
> <s_m_source_file>
AV-unprocessed.smi

> <i_m_source_file_index>
1787

> <i_lp_mmshare_version>
43012

> <i_f3d_flags>
0

> <s_epik_input>
W2NIXTFuW2NIXVtjSF1bY0hdYzFbTkhdQyg9TylbTkhdW0NIMl1bQ0BdMihbQ0gyXVtDSDJdU1tDSDJdMilOM1tDSDJdW0NIMl1PW0NIMl1bQ0gyXTM=

> <s_epik_cmdline>
J2VwaWtfcHl0aG9uJywgJy1waCcsICc3LjAnLCAnLXRuJywgJzgnLCAnLW1hJywgJzIwMCcsICctbWV0YWxfYmluZGluZycsICctaW1hZScsICc8aW5maWxlLm1hZT4nLCAnLW9tYWUnLCAnPG91dGZpbGUubWFlPic=

> <r_epik_Ionization_Penalty>
0.024212

> <r_epik_Ionization_Penalty_Charging>
0

> <r_epik_Ionization_Penalty_Neutral>
0.024212

> <r_epik_State_Penalty>
0.0155843

> <r_epik_Charging_Adjusted_Penalty>
0.0155843

> <i_epik_Tot_Q>
0

> <i_epik_Tot_abs_Q>
0

> <r_epik_Metal_State_Penalty>
0.01557

> <b_epik_Metal_Only>
0

> <s_lp_Force_Field>
OPLS_2005

> <r_lp_Energy>
57.3635

> <b_lp_Chiralities_Consistent>
1

> <s_lp_Variant>
AV-unprocessed.smi:1787-1

> <Gold.Version>
5.8.1

> <Gold.Id.Protein>
6NUR|6NUR_protein|mol2

> <Gold.PLP.Fitness>
43.7870

> <Gold.PLP.PLP>
-36.1195

> <Gold.PLP.part.hbond>
-3.0000

> <Gold.PLP.part.metal>
0.0000

> <Gold.PLP.part.buried>
-4.5699

> <Gold.PLP.part.nonpolar>
-29.3449

> <Gold.PLP.part.repulsive>
0.2721

> <Gold.PLP.ligand.clash>
0.0000

> <Gold.PLP.ligand.torsion>
0.5902

> <Gold.PLP.Chemscore.Hbond>
2.9280

> <Gold.PLP.Chemscore.CHOScore>
0.0000

> <Gold.PLP.Chemscore.Metal>
0.0000

> <Gold.Chemscore.Hbonds>
donor molecule, donor type, donor heavy atom, donor atom, acceptor molecule, acceptor atom, score
      L1  H     3    23       P1  8028  0.88
      L1  H    16    40       P1  8028  1.00
      P1  H 10752 10765       L1     9  0.54

> <Gold.PLP.Chemscore.Internal.Correction>
0.0640

> <Gold.Rescore>
     Score         DG    S(hbond)    S(metal)    S(lipo)     H(rot)  DE(clash)    DE(int)     intcor
     18.95     -22.81       2.62        0.00     104.95       1.44       0.64       3.22       ----

> <Gold.Chemscore.Fitness>
18.9483

> <Gold.Chemscore.DG>
-22.8060

> <Gold.Chemscore.ZeroCoef>
-5.4800

> <Gold.Chemscore.Hbond>
2.6183

> <Gold.Chemscore.Metal>
0.0000

> <Gold.Chemscore.Lipo>
104.9480

> <Gold.Chemscore.Internal_Hbond>
0.0000

> <Gold.Chemscore.DEClash>
0.6416

> <Gold.Chemscore.DEInternal>
3.2160

> <Gold.Chemscore.Rot>
1.4445

> <Gold.Chemscore.Internal.Correction>
   9.000000E+99

> <Gold.Chemscore.Hbonds>
donor molecule, donor type, donor heavy atom, donor atom, acceptor molecule, acceptor atom, score
      L1  H     3    23       P1  8028  0.86
      L1  H    16    40       P1  8028  0.77
      P1  H 10752 10765       L1     9  0.37

> <Gold.Chemscore.Hbond.Weighted>
-8.7450

> <Gold.Chemscore.Metal.Weighted>
-0.0000

> <Gold.Chemscore.Lipo.Weighted>
-12.2789

> <Gold.Chemscore.Internal_Hbond.Weighted>
0.0000

> <Gold.Chemscore.DEClash.Weighted>
0.6416

> <Gold.Chemscore.DEInternal.Weighted>
3.2160

> <Gold.Chemscore.Rot.Weighted>
3.6980

> <Gold.Chemscore.Internal.Correction.Weighted>
   9.000000E+99

> <Gold.Protein.RotatedTorsions>
[ 6907 6896 6895 6894 ] final -176.87 input  -60.11 | X-H torsion
[ 7974 7965 7964 7962 ] final   61.36 input  175.53 | X-H torsion
[ 8008 7997 7996 7995 ] final -170.18 input   59.86 | X-H torsion
[ 10167 10162 10161 10158 ] final  158.53 input  -65.29 | X-H torsion
[ 10718 10713 10712 10709 ] final  165.11 input   66.30 | X-H torsion
[ 10763 10752 10751 10750 ] final -151.24 input  -60.55 | X-H torsion
[ 11005 11000 10999 10996 ] final  -25.87 input  -57.11 | X-H torsion

> <Gold.Protein.ActiveResidues>
 VAL166  LYS551  ARG553  GLY616  TRP617  ASP618  TYR619  PRO620  LYS621  CYS622 
 ASP623  PHE694  ASN695  SER759  ASP760  ASP761  ALA762  ILE779  LEU786  VAL792 
 PHE793  MET794  SER795  GLU796  ALA797  LYS798  CYS799  TRP800  GLU811  SER814 

> <Gold.Protein.RotatedAtoms>
  151.6118  133.3346  159.3068 H   0  0  0  0  0  0  0  0  0  0  0  0  # atno 6907 bound_to 6896
  150.8152  134.7334  159.6735 H   0  0  0  0  0  0  0  0  0  0  0  0  # atno 6908 bound_to 6896
  152.4248  134.5893  160.0021 H   0  0  0  0  0  0  0  0  0  0  0  0  # atno 6909 bound_to 6896
  145.8856  139.3474  143.0680 H   0  0  0  0  0  0  0  0  0  0  0  0  # atno 7974 bound_to 7965
  155.9149  140.1064  157.1251 H   0  0  0  0  0  0  0  0  0  0  0  0  # atno 8008 bound_to 7997
  154.4045  140.1267  156.4670 H   0  0  0  0  0  0  0  0  0  0  0  0  # atno 8009 bound_to 7997
  155.7266  140.3469  155.5042 H   0  0  0  0  0  0  0  0  0  0  0  0  # atno 8010 bound_to 7997
  139.4827  144.4815  151.8437 H   0  0  0  0  0  0  0  0  0  0  0  0  # atno 10167 bound_to 10162
  157.0849  131.0402  151.2560 H   0  0  0  0  0  0  0  0  0  0  0  0  # atno 10718 bound_to 10713
  154.8070  135.3265  154.7406 H   0  0  0  0  0  0  0  0  0  0  0  0  # atno 10763 bound_to 10752
  153.8062  135.6899  153.4852 H   0  0  0  0  0  0  0  0  0  0  0  0  # atno 10764 bound_to 10752
  153.1822  135.4582  154.9987 H   0  0  0  0  0  0  0  0  0  0  0  0  # atno 10765 bound_to 10752
  140.8977  133.7545  156.0503 H   0  0  0  0  0  0  0  0  0  0  0  0  # atno 11005 bound_to 11000
  145.8970  140.9267  143.0522 LP  0  0  0  0  0  0  0  0  0  0  0  0  # atno 17320 bound_to 7965
  144.6728  140.0982  143.7462 LP  0  0  0  0  0  0  0  0  0  0  0  0  # atno 17321 bound_to 7965
  140.4292  144.2139  150.5887 LP  0  0  0  0  0  0  0  0  0  0  0  0  # atno 17342 bound_to 10162
  140.4797  143.2383  151.8973 LP  0  0  0  0  0  0  0  0  0  0  0  0  # atno 17343 bound_to 10162
  157.4770  130.7742  149.7377 LP  0  0  0  0  0  0  0  0  0  0  0  0  # atno 17370 bound_to 10713
  155.9913  130.3938  150.2988 LP  0  0  0  0  0  0  0  0  0  0  0  0  # atno 17371 bound_to 10713
  140.8268  134.3225  157.5363 LP  0  0  0  0  0  0  0  0  0  0  0  0  # atno 17394 bound_to 11000
  139.8738  134.9341  156.3597 LP  0  0  0  0  0  0  0  0  0  0  0  0  # atno 17395 bound_to 11000

$$$$
