AV-unprocessed.smi:2451|AV-procd|sdf|9673|dock9
  -GOLD-   2272013313D 1   1.00000     0.00000
 Structure written by MMmdl.
 38 39  0  0  0  0  0  0  0  0  1 V2000
  152.4414  143.2902  161.6848 C   0  0  0  0  0  0  0  0  0  0  0  0
  152.8732  143.8158  160.3000 C   0  0  2  0  0  0  0  0  0  0  0  0
  152.0211  145.0249  159.8643 C   0  0  0  0  0  0  0  0  0  0  0  0
  150.5932  144.6155  159.4715 C   0  0  0  0  0  0  0  0  0  0  0  0
  150.6107  143.5528  158.3646 C   0  0  0  0  0  0  0  0  0  0  0  0
  151.4617  142.3288  158.7537 C   0  0  1  0  0  0  0  0  0  0  0  0
  151.5197  141.4168  157.6072 N   0  0  0  0  0  0  0  0  0  0  0  0
  150.0530  140.7225  157.0240 S   0  0  0  0  0  0  0  0  0  0  0  0
  150.2316  139.2623  156.9967 O   0  0  0  0  0  0  0  0  0  0  0  0
  148.9473  141.3126  157.7937 O   0  0  0  0  0  0  0  0  0  0  0  0
  149.9829  141.3383  155.2894 C   0  0  0  0  0  0  0  0  0  0  0  0
  148.7937  140.7433  154.5914 C   0  0  0  0  0  0  0  0  0  0  0  0
  147.6679  141.4133  154.0372 C   0  0  0  0  0  0  0  0  0  0  0  0
  146.9061  140.3967  153.5378 C   0  0  0  0  0  0  0  0  0  0  0  0
  147.5034  139.1996  153.7657 O   0  0  0  0  0  0  0  0  0  0  0  0
  148.7075  139.4311  154.4404 N   0  0  0  0  0  0  0  0  0  0  0  0
  152.8937  142.7341  159.1859 C   0  0  2  0  0  0  0  0  0  0  0  0
  153.7609  141.5197  159.5738 C   0  0  0  0  0  0  0  0  0  0  0  0
  151.4523  142.8338  161.6622 H   0  0  0  0  0  0  0  0  0  0  0  0
  152.4118  144.0991  162.4151 H   0  0  0  0  0  0  0  0  0  0  0  0
  153.1397  142.5463  162.0675 H   0  0  0  0  0  0  0  0  0  0  0  0
  153.8951  144.1788  160.4188 H   0  0  0  0  0  0  0  0  0  0  0  0
  151.9901  145.7713  160.6589 H   0  0  0  0  0  0  0  0  0  0  0  0
  152.4980  145.5121  159.0129 H   0  0  0  0  0  0  0  0  0  0  0  0
  150.0583  144.2343  160.3419 H   0  0  0  0  0  0  0  0  0  0  0  0
  150.0385  145.4910  159.1331 H   0  0  0  0  0  0  0  0  0  0  0  0
  149.5899  143.2425  158.1375 H   0  0  0  0  0  0  0  0  0  0  0  0
  151.0060  144.0000  157.4511 H   0  0  0  0  0  0  0  0  0  0  0  0
  150.9740  141.8179  159.5847 H   0  0  0  0  0  0  0  0  0  0  0  0
  152.0722  141.8124  156.8469 H   0  0  0  0  0  0  0  0  0  0  0  0
  149.9341  142.4273  155.3101 H   0  0  0  0  0  0  0  0  0  0  0  0
  150.9083  141.0553  154.7881 H   0  0  0  0  0  0  0  0  0  0  0  0
  147.4564  142.4718  154.0071 H   0  0  0  0  0  0  0  0  0  0  0  0
  145.9594  140.3642  153.0189 H   0  0  0  0  0  0  0  0  0  0  0  0
  153.3732  143.1927  158.3193 H   0  0  0  0  0  0  0  0  0  0  0  0
  153.2937  140.9258  160.3595 H   0  0  0  0  0  0  0  0  0  0  0  0
  154.7426  141.8343  159.9284 H   0  0  0  0  0  0  0  0  0  0  0  0
  153.9231  140.8582  158.7225 H   0  0  0  0  0  0  0  0  0  0  0  0
  1  2  1  0  0  0  0
  1 19  1  0  0  0  0
  1 20  1  0  0  0  0
  1 21  1  0  0  0  0
  2 17  1  0  0  0  0
  2  3  1  0  0  0  0
  2 22  1  0  0  0  0
  3  4  1  0  0  0  0
  3 23  1  0  0  0  0
  3 24  1  0  0  0  0
  4  5  1  0  0  0  0
  4 25  1  0  0  0  0
  4 26  1  0  0  0  0
  5  6  1  0  0  0  0
  5 27  1  0  0  0  0
  5 28  1  0  0  0  0
  6  7  1  0  0  0  0
  6 17  1  0  0  0  0
  6 29  1  0  0  0  0
  7  8  1  0  0  0  0
  7 30  1  0  0  0  0
  8  9  2  0  0  0  0
  8 10  2  0  0  0  0
  8 11  1  0  0  0  0
 11 12  1  0  0  0  0
 11 31  1  0  0  0  0
 11 32  1  0  0  0  0
 12 16  2  0  0  0  0
 12 13  1  0  0  0  0
 13 14  2  0  0  0  0
 13 33  1  0  0  0  0
 14 15  1  0  0  0  0
 14 34  1  0  0  0  0
 15 16  1  0  0  0  0
 17 18  1  0  0  0  0
 17 35  1  0  0  0  0
 18 36  1  0  0  0  0
 18 37  1  0  0  0  0
 18 38  1  0  0  0  0
M  END
> <s_m_source_file>
AV-unprocessed.smi

> <i_m_source_file_index>
2451

> <i_lp_mmshare_version>
43012

> <i_f3d_flags>
0

> <s_epik_input>
W0NIM11bQ0BASF0xW0NIMl1bQ0gyXVtDSDJdW0NASF0oW0NASF0xW0NIM10pW05IXVMoPU8pKD1PKVtDSDJdYzJbY0hdW2NIXW9uMg==

> <s_epik_cmdline>
J2VwaWtfcHl0aG9uJywgJy1waCcsICc3LjAnLCAnLXRuJywgJzgnLCAnLW1hJywgJzIwMCcsICctbWV0YWxfYmluZGluZycsICctaW1hZScsICc8aW5maWxlLm1hZT4nLCAnLW9tYWUnLCAnPG91dGZpbGUubWFlPic=

> <r_lp_tautomer_probability>
1

> <r_epik_Ionization_Penalty>
8.73668e-05

> <r_epik_Ionization_Penalty_Charging>
0

> <r_epik_Ionization_Penalty_Neutral>
8.73668e-05

> <r_epik_State_Penalty>
-0

> <r_epik_Charging_Adjusted_Penalty>
0

> <i_epik_Tot_Q>
0

> <i_epik_Tot_abs_Q>
0

> <r_epik_Metal_State_Penalty>
0.0716439

> <b_epik_Metal_Only>
0

> <s_lp_Force_Field>
OPLS_2005

> <r_lp_Energy>
8.38809

> <b_lp_Chiralities_Consistent>
1

> <s_lp_Variant>
AV-unprocessed.smi:2451-5

> <Gold.Version>
5.8.1

> <Gold.Id.Protein>
6NUR|6NUR_protein|mol2

> <Gold.PLP.Fitness>
41.1542

> <Gold.PLP.PLP>
-38.2132

> <Gold.PLP.part.hbond>
0.0000

> <Gold.PLP.part.metal>
0.0000

> <Gold.PLP.part.buried>
-4.7437

> <Gold.PLP.part.nonpolar>
-32.5827

> <Gold.PLP.part.repulsive>
0.4209

> <Gold.PLP.ligand.clash>
0.0000

> <Gold.PLP.ligand.torsion>
0.0974

> <Gold.PLP.Chemscore.Hbond>
0.0000

> <Gold.PLP.Chemscore.CHOScore>
1.0000

> <Gold.PLP.Chemscore.Metal>
0.0000

> <Gold.Chemscore.Hbonds>
donor molecule, donor type, donor heavy atom, donor atom, acceptor molecule, acceptor atom, score
      L1  C    14    34       P1 10175  1.00

> <Gold.PLP.Chemscore.Internal.Correction>
0.1359

> <Gold.Rescore>
     Score         DG    S(hbond)    S(metal)    S(lipo)     H(rot)  DE(clash)    DE(int)     intcor
     13.58     -15.14       0.00        0.00     118.88       1.66       0.15       1.41       ----

> <Gold.Chemscore.Fitness>
13.5778

> <Gold.Chemscore.DG>
-15.1427

> <Gold.Chemscore.ZeroCoef>
-5.4800

> <Gold.Chemscore.Hbond>
0.0000

> <Gold.Chemscore.Metal>
0.0000

> <Gold.Chemscore.Lipo>
118.8829

> <Gold.Chemscore.Internal_Hbond>
0.0000

> <Gold.Chemscore.DEClash>
0.1503

> <Gold.Chemscore.DEInternal>
1.4146

> <Gold.Chemscore.Rot>
1.6588

> <Gold.Chemscore.Internal.Correction>
   9.000000E+99

> <Gold.Chemscore.Hbond.Weighted>
-0.0000

> <Gold.Chemscore.Metal.Weighted>
-0.0000

> <Gold.Chemscore.Lipo.Weighted>
-13.9093

> <Gold.Chemscore.Internal_Hbond.Weighted>
0.0000

> <Gold.Chemscore.DEClash.Weighted>
0.1503

> <Gold.Chemscore.DEInternal.Weighted>
1.4146

> <Gold.Chemscore.Rot.Weighted>
4.2466

> <Gold.Chemscore.Internal.Correction.Weighted>
   9.000000E+99

> <Gold.Protein.RotatedTorsions>
[ 6907 6896 6895 6894 ] final   15.32 input  -60.11 | X-H torsion
[ 7974 7965 7964 7962 ] final  -45.09 input  175.53 | X-H torsion
[ 8008 7997 7996 7995 ] final  125.42 input   59.86 | X-H torsion
[ 10167 10162 10161 10158 ] final  178.25 input  -65.29 | X-H torsion
[ 10718 10713 10712 10709 ] final  -60.92 input   66.30 | X-H torsion
[ 10763 10752 10751 10750 ] final -106.30 input  -60.55 | X-H torsion
[ 11005 11000 10999 10996 ] final  -36.80 input  -57.11 | X-H torsion

> <Gold.Protein.ActiveResidues>
 VAL166  LYS551  ARG553  GLY616  TRP617  ASP618  TYR619  PRO620  LYS621  CYS622 
 ASP623  PHE694  ASN695  SER759  ASP760  ASP761  ALA762  ILE779  LEU786  VAL792 
 PHE793  MET794  SER795  GLU796  ALA797  LYS798  CYS799  TRP800  GLU811  SER814 

> <Gold.Protein.RotatedAtoms>
  151.8163  135.0665  160.0419 H   0  0  0  0  0  0  0  0  0  0  0  0  # atno 6907 bound_to 6896
  152.2984  133.5626  159.5611 H   0  0  0  0  0  0  0  0  0  0  0  0  # atno 6908 bound_to 6896
  150.7262  134.0243  159.3754 H   0  0  0  0  0  0  0  0  0  0  0  0  # atno 6909 bound_to 6896
  145.9855  140.7237  142.9342 H   0  0  0  0  0  0  0  0  0  0  0  0  # atno 7974 bound_to 7965
  156.2833  140.2717  156.1946 H   0  0  0  0  0  0  0  0  0  0  0  0  # atno 8008 bound_to 7997
  155.0423  140.0386  157.2532 H   0  0  0  0  0  0  0  0  0  0  0  0  # atno 8009 bound_to 7997
  154.7263  140.2698  155.6501 H   0  0  0  0  0  0  0  0  0  0  0  0  # atno 8010 bound_to 7997
  139.5286  144.2702  152.0634 H   0  0  0  0  0  0  0  0  0  0  0  0  # atno 10167 bound_to 10162
  156.0957  130.4193  150.0922 H   0  0  0  0  0  0  0  0  0  0  0  0  # atno 10718 bound_to 10713
  154.8003  135.4717  154.0260 H   0  0  0  0  0  0  0  0  0  0  0  0  # atno 10763 bound_to 10752
  153.1771  135.6834  153.8535 H   0  0  0  0  0  0  0  0  0  0  0  0  # atno 10764 bound_to 10752
  153.8098  135.3218  155.3377 H   0  0  0  0  0  0  0  0  0  0  0  0  # atno 10765 bound_to 10752
  140.9903  133.7009  156.1837 H   0  0  0  0  0  0  0  0  0  0  0  0  # atno 11005 bound_to 11000
  144.6873  140.2981  143.7267 LP  0  0  0  0  0  0  0  0  0  0  0  0  # atno 17320 bound_to 7965
  145.7706  139.1856  143.2214 LP  0  0  0  0  0  0  0  0  0  0  0  0  # atno 17321 bound_to 7965
  140.2162  144.4513  150.6363 LP  0  0  0  0  0  0  0  0  0  0  0  0  # atno 17342 bound_to 10162
  140.6448  143.2211  151.6209 LP  0  0  0  0  0  0  0  0  0  0  0  0  # atno 17343 bound_to 10162
  156.8921  130.9592  151.3587 LP  0  0  0  0  0  0  0  0  0  0  0  0  # atno 17370 bound_to 10713
  157.6117  130.8588  149.8962 LP  0  0  0  0  0  0  0  0  0  0  0  0  # atno 17371 bound_to 10713
  140.7051  134.4522  157.5584 LP  0  0  0  0  0  0  0  0  0  0  0  0  # atno 17394 bound_to 11000
  139.8989  134.8603  156.1982 LP  0  0  0  0  0  0  0  0  0  0  0  0  # atno 17395 bound_to 11000

$$$$
