AV-unprocessed.smi:2012|AV-procd|sdf|8155|dock10
  -GOLD-   2272010393D 1   1.00000     0.00000
 Structure written by MMmdl.
 50 51  0  0  0  0  0  0  0  0  1 V2000
  145.8549  136.3260  152.2624 C   0  0  0  0  0  0  0  0  0  0  0  0
  146.2937  135.7589  153.6075 C   0  0  0  0  0  0  0  0  0  0  0  0
  145.4736  135.6183  154.5142 O   0  0  0  0  0  0  0  0  0  0  0  0
  147.5935  135.4405  153.7231 N   0  0  0  0  0  0  0  0  0  0  0  0
  148.2385  134.9246  154.9329 C   0  0  2  0  0  0  0  0  0  0  0  0
  149.4245  135.8486  155.2655 C   0  0  0  0  0  0  0  0  0  0  0  0
  150.1553  135.6078  156.2278 O   0  0  0  0  0  0  0  0  0  0  0  0
  149.6097  136.8954  154.4467 N   0  0  0  0  0  0  0  0  0  0  0  0
  150.7279  137.8312  154.5260 C   0  0  0  0  0  0  0  0  0  0  0  0
  150.3558  139.2404  154.9773 C   0  0  0  0  0  0  0  0  0  0  0  0
  149.2896  139.9121  154.3486 C   0  0  0  0  0  0  0  0  0  0  0  0
  148.9553  141.2059  154.7909 C   0  0  0  0  0  0  0  0  0  0  0  0
  149.6058  141.8389  155.7895 N   0  0  0  0  0  0  0  0  0  0  0  0
  150.6419  141.2102  156.3976 C   0  0  0  0  0  0  0  0  0  0  0  0
  151.3066  141.8752  157.4511 N   0  0  0  0  0  0  0  0  0  0  0  0
  151.5345  141.1488  158.6984 C   0  0  0  0  0  0  0  0  0  0  0  0
  152.5582  141.8959  159.5707 C   0  0  0  0  0  0  0  0  0  0  0  0
  152.1288  143.2375  159.7787 O   0  0  0  0  0  0  0  0  0  0  0  0
  152.0196  143.9557  158.5539 C   0  0  0  0  0  0  0  0  0  0  0  0
  150.9725  143.2836  157.6500 C   0  0  0  0  0  0  0  0  0  0  0  0
  151.0470  139.9112  156.0117 C   0  0  0  0  0  0  0  0  0  0  0  0
  148.7424  133.4763  154.6626 C   0  0  0  0  0  0  0  0  0  0  0  0
  149.8035  133.4390  153.5454 C   0  0  0  0  0  0  0  0  0  0  0  0
  147.6014  132.5004  154.3070 C   0  0  0  0  0  0  0  0  0  0  0  0
  146.2882  137.3145  152.1096 H   0  0  0  0  0  0  0  0  0  0  0  0
  144.7692  136.4184  152.2163 H   0  0  0  0  0  0  0  0  0  0  0  0
  146.1767  135.6760  151.4482 H   0  0  0  0  0  0  0  0  0  0  0  0
  148.1911  135.5953  152.9240 H   0  0  0  0  0  0  0  0  0  0  0  0
  147.5256  134.9130  155.7603 H   0  0  0  0  0  0  0  0  0  0  0  0
  148.9629  137.0203  153.6814 H   0  0  0  0  0  0  0  0  0  0  0  0
  151.4544  137.4283  155.2317 H   0  0  0  0  0  0  0  0  0  0  0  0
  151.2320  137.8823  153.5594 H   0  0  0  0  0  0  0  0  0  0  0  0
  148.7329  139.4452  153.5495 H   0  0  0  0  0  0  0  0  0  0  0  0
  148.1395  141.7457  154.3330 H   0  0  0  0  0  0  0  0  0  0  0  0
  150.5891  141.0457  159.2331 H   0  0  0  0  0  0  0  0  0  0  0  0
  151.9051  140.1440  158.4917 H   0  0  0  0  0  0  0  0  0  0  0  0
  152.6593  141.4013  160.5369 H   0  0  0  0  0  0  0  0  0  0  0  0
  153.5447  141.8880  159.1042 H   0  0  0  0  0  0  0  0  0  0  0  0
  151.7249  144.9825  158.7697 H   0  0  0  0  0  0  0  0  0  0  0  0
  152.9900  144.0012  158.0563 H   0  0  0  0  0  0  0  0  0  0  0  0
  150.9161  143.8310  156.7112 H   0  0  0  0  0  0  0  0  0  0  0  0
  149.9863  143.3478  158.1115 H   0  0  0  0  0  0  0  0  0  0  0  0
  151.8621  139.4248  156.5225 H   0  0  0  0  0  0  0  0  0  0  0  0
  149.2207  133.0986  155.5683 H   0  0  0  0  0  0  0  0  0  0  0  0
  149.4053  133.8336  152.6102 H   0  0  0  0  0  0  0  0  0  0  0  0
  150.1395  132.4189  153.3570 H   0  0  0  0  0  0  0  0  0  0  0  0
  150.6884  134.0214  153.8024 H   0  0  0  0  0  0  0  0  0  0  0  0
  147.0495  132.8422  153.4308 H   0  0  0  0  0  0  0  0  0  0  0  0
  146.8897  132.3827  155.1242 H   0  0  0  0  0  0  0  0  0  0  0  0
  147.9912  131.5066  154.0848 H   0  0  0  0  0  0  0  0  0  0  0  0
  1  2  1  0  0  0  0
  1 25  1  0  0  0  0
  1 26  1  0  0  0  0
  1 27  1  0  0  0  0
  2  3  2  0  0  0  0
  2  4  1  0  0  0  0
  4  5  1  0  0  0  0
  4 28  1  0  0  0  0
  5  6  1  0  0  0  0
  5 22  1  0  0  0  0
  5 29  1  0  0  0  0
  6  7  2  0  0  0  0
  6  8  1  0  0  0  0
  8  9  1  0  0  0  0
  8 30  1  0  0  0  0
  9 10  1  0  0  0  0
  9 31  1  0  0  0  0
  9 32  1  0  0  0  0
 10 21  1  0  0  0  0
 10 11  2  0  0  0  0
 11 12  1  0  0  0  0
 11 33  1  0  0  0  0
 12 13  2  0  0  0  0
 12 34  1  0  0  0  0
 13 14  1  0  0  0  0
 14 15  1  0  0  0  0
 14 21  2  0  0  0  0
 15 20  1  0  0  0  0
 15 16  1  0  0  0  0
 16 17  1  0  0  0  0
 16 35  1  0  0  0  0
 16 36  1  0  0  0  0
 17 18  1  0  0  0  0
 17 37  1  0  0  0  0
 17 38  1  0  0  0  0
 18 19  1  0  0  0  0
 19 20  1  0  0  0  0
 19 39  1  0  0  0  0
 19 40  1  0  0  0  0
 20 41  1  0  0  0  0
 20 42  1  0  0  0  0
 21 43  1  0  0  0  0
 22 23  1  0  0  0  0
 22 24  1  0  0  0  0
 22 44  1  0  0  0  0
 23 45  1  0  0  0  0
 23 46  1  0  0  0  0
 23 47  1  0  0  0  0
 24 48  1  0  0  0  0
 24 49  1  0  0  0  0
 24 50  1  0  0  0  0
M  END
> <s_m_source_file>
AV-unprocessed.smi

> <i_m_source_file_index>
2012

> <i_lp_mmshare_version>
43012

> <i_f3d_flags>
0

> <s_epik_input>
W0NIM11DKD1PKVtOSF1bQ0BASF0oW0NIXShbQ0gzXSlbQ0gzXSlDKD1PKVtOSF1bQ0gyXWMxW2NIXVtjSF1uYyhbY0hdMSlOMltDSDJdW0NIMl1PW0NIMl1bQ0gyXTI=

> <s_epik_cmdline>
J2VwaWtfcHl0aG9uJywgJy1waCcsICc3LjAnLCAnLXRuJywgJzgnLCAnLW1hJywgJzIwMCcsICctbWV0YWxfYmluZGluZycsICctaW1hZScsICc8aW5maWxlLm1hZT4nLCAnLW9tYWUnLCAnPG91dGZpbGUubWFlPic=

> <r_lp_tautomer_probability>
1

> <r_epik_Ionization_Penalty>
0.00518786

> <r_epik_Ionization_Penalty_Charging>
0

> <r_epik_Ionization_Penalty_Neutral>
0.00518786

> <r_epik_State_Penalty>
0.00378052

> <r_epik_Charging_Adjusted_Penalty>
0.00378052

> <i_epik_Tot_Q>
0

> <i_epik_Tot_abs_Q>
0

> <r_epik_Metal_State_Penalty>
-0

> <b_epik_Metal_Only>
0

> <s_lp_Force_Field>
OPLS_2005

> <r_lp_Energy>
14.5368

> <b_lp_Chiralities_Consistent>
1

> <s_lp_Variant>
AV-unprocessed.smi:2012-1

> <Gold.Version>
5.8.1

> <Gold.Id.Protein>
6NUR|6NUR_protein|mol2

> <Gold.PLP.Fitness>
43.2249

> <Gold.PLP.PLP>
-38.5988

> <Gold.PLP.part.hbond>
-1.9986

> <Gold.PLP.part.metal>
0.0000

> <Gold.PLP.part.buried>
-3.4532

> <Gold.PLP.part.nonpolar>
-34.0377

> <Gold.PLP.part.repulsive>
0.4223

> <Gold.PLP.ligand.clash>
0.0000

> <Gold.PLP.ligand.torsion>
0.3711

> <Gold.PLP.Chemscore.Hbond>
1.6240

> <Gold.PLP.Chemscore.CHOScore>
0.0000

> <Gold.PLP.Chemscore.Metal>
0.0000

> <Gold.Chemscore.Hbonds>
donor molecule, donor type, donor heavy atom, donor atom, acceptor molecule, acceptor atom, score
      L1  H     4    28       P1  7948  0.78
      L1  H     8    30       P1  7948  0.59

> <Gold.PLP.Chemscore.Internal.Correction>
0.4963

> <Gold.Rescore>
     Score         DG    S(hbond)    S(metal)    S(lipo)     H(rot)  DE(clash)    DE(int)     intcor
     16.44     -16.97       1.73        0.00      96.43       2.18       0.05       0.48       ----

> <Gold.Chemscore.Fitness>
16.4381

> <Gold.Chemscore.DG>
-16.9680

> <Gold.Chemscore.ZeroCoef>
-5.4800

> <Gold.Chemscore.Hbond>
1.7334

> <Gold.Chemscore.Metal>
0.0000

> <Gold.Chemscore.Lipo>
96.4327

> <Gold.Chemscore.Internal_Hbond>
0.0000

> <Gold.Chemscore.DEClash>
0.0538

> <Gold.Chemscore.DEInternal>
0.4762

> <Gold.Chemscore.Rot>
2.1813

> <Gold.Chemscore.Internal.Correction>
   9.000000E+99

> <Gold.Chemscore.Hbonds>
donor molecule, donor type, donor heavy atom, donor atom, acceptor molecule, acceptor atom, score
      L1  H     4    28       P1  7948  0.77
      L1  H     8    30       P1  7948  0.59

> <Gold.Chemscore.Hbond.Weighted>
-5.7896

> <Gold.Chemscore.Metal.Weighted>
-0.0000

> <Gold.Chemscore.Lipo.Weighted>
-11.2826

> <Gold.Chemscore.Internal_Hbond.Weighted>
0.0000

> <Gold.Chemscore.DEClash.Weighted>
0.0538

> <Gold.Chemscore.DEInternal.Weighted>
0.4762

> <Gold.Chemscore.Rot.Weighted>
5.5842

> <Gold.Chemscore.Internal.Correction.Weighted>
   9.000000E+99

> <Gold.Protein.RotatedTorsions>
[ 6907 6896 6895 6894 ] final   65.35 input  -60.11 | X-H torsion
[ 7974 7965 7964 7962 ] final   -1.38 input  175.53 | X-H torsion
[ 8008 7997 7996 7995 ] final  151.09 input   59.86 | X-H torsion
[ 10167 10162 10161 10158 ] final  159.33 input  -65.29 | X-H torsion
[ 10718 10713 10712 10709 ] final  101.33 input   66.30 | X-H torsion
[ 10763 10752 10751 10750 ] final  165.43 input  -60.55 | X-H torsion
[ 11005 11000 10999 10996 ] final -135.00 input  -57.11 | X-H torsion

> <Gold.Protein.ActiveResidues>
 VAL166  LYS551  ARG553  GLY616  TRP617  ASP618  TYR619  PRO620  LYS621  CYS622 
 ASP623  PHE694  ASN695  SER759  ASP760  ASP761  ALA762  ILE779  LEU786  VAL792 
 PHE793  MET794  SER795  GLU796  ALA797  LYS798  CYS799  TRP800  GLU811  SER814 

> <Gold.Protein.RotatedAtoms>
  152.4401  134.5608  159.9893 H   0  0  0  0  0  0  0  0  0  0  0  0  # atno 6907 bound_to 6896
  151.5708  133.3384  159.2997 H   0  0  0  0  0  0  0  0  0  0  0  0  # atno 6908 bound_to 6896
  150.8305  134.7590  159.6914 H   0  0  0  0  0  0  0  0  0  0  0  0  # atno 6909 bound_to 6896
  146.2417  140.1412  142.8335 H   0  0  0  0  0  0  0  0  0  0  0  0  # atno 7974 bound_to 7965
  156.2688  140.2057  156.6121 H   0  0  0  0  0  0  0  0  0  0  0  0  # atno 8008 bound_to 7997
  154.6823  140.0538  157.0302 H   0  0  0  0  0  0  0  0  0  0  0  0  # atno 8009 bound_to 7997
  155.0983  140.3203  155.4557 H   0  0  0  0  0  0  0  0  0  0  0  0  # atno 8010 bound_to 7997
  139.4832  144.4740  151.8537 H   0  0  0  0  0  0  0  0  0  0  0  0  # atno 10167 bound_to 10162
  157.6832  131.0723  150.5236 H   0  0  0  0  0  0  0  0  0  0  0  0  # atno 10718 bound_to 10713
  154.3239  135.2755  155.2505 H   0  0  0  0  0  0  0  0  0  0  0  0  # atno 10763 bound_to 10752
  154.4847  135.5849  153.6418 H   0  0  0  0  0  0  0  0  0  0  0  0  # atno 10764 bound_to 10752
  152.9873  135.6120  154.3426 H   0  0  0  0  0  0  0  0  0  0  0  0  # atno 10765 bound_to 10752
  140.8939  134.1777  157.4508 H   0  0  0  0  0  0  0  0  0  0  0  0  # atno 11005 bound_to 11000
  145.0245  140.8821  143.5147 LP  0  0  0  0  0  0  0  0  0  0  0  0  # atno 17320 bound_to 7965
  145.1466  139.2540  143.5462 LP  0  0  0  0  0  0  0  0  0  0  0  0  # atno 17321 bound_to 7965
  140.4211  144.2242  150.5887 LP  0  0  0  0  0  0  0  0  0  0  0  0  # atno 17342 bound_to 10162
  140.4873  143.2359  151.8870 LP  0  0  0  0  0  0  0  0  0  0  0  0  # atno 17343 bound_to 10162
  156.5548  130.4241  149.6090 LP  0  0  0  0  0  0  0  0  0  0  0  0  # atno 17370 bound_to 10713
  156.2871  130.7103  151.1943 LP  0  0  0  0  0  0  0  0  0  0  0  0  # atno 17371 bound_to 10713
  139.8733  134.9870  156.5349 LP  0  0  0  0  0  0  0  0  0  0  0  0  # atno 17394 bound_to 11000
  140.8313  133.8276  155.8987 LP  0  0  0  0  0  0  0  0  0  0  0  0  # atno 17395 bound_to 11000

$$$$
