AV-unprocessed.smi:153|AV-procd|sdf|1252|dock3
  -GOLD-   2262018483D 1   1.00000     0.00000
 Structure written by MMmdl.
 60 63  0  0  0  0  0  0  0  0  2 V2000
  147.9600  135.2810  162.4840 C   0  0  0  0  0  0  0  0  0  0  0  0
  146.7171  134.8013  161.7140 C   0  0  2  0  0  0  0  0  0  0  0  0
  145.9689  133.8870  162.5131 O   0  0  0  0  0  0  0  0  0  0  0  0
  145.9272  132.6170  161.8811 C   0  0  0  0  0  0  0  0  0  0  0  0
  145.9832  132.9464  160.3955 C   0  0  0  0  0  0  0  0  0  0  0  0
  146.9685  134.1054  160.3506 C   0  0  2  0  0  0  0  0  0  0  0  0
  148.2791  133.5639  160.2955 O   0  0  0  0  0  0  0  0  0  0  0  0
  146.7572  135.0162  159.1158 C   0  0  0  0  0  0  0  0  0  0  0  0
  147.8350  135.9713  158.9141 N   0  0  0  0  0  0  0  0  0  0  0  0
  148.4938  136.6874  159.8871 C   0  0  0  0  0  0  0  0  0  0  0  0
  149.4584  137.4517  159.4555 N   0  0  0  0  0  0  0  0  0  0  0  0
  149.4491  137.2734  158.0764 C   0  0  0  0  0  0  0  0  0  0  0  0
  150.2441  137.7641  156.9981 C   0  0  0  0  0  0  0  0  0  0  0  0
  151.3105  138.5917  157.1372 N   0  0  0  0  0  0  0  0  0  0  0  0
  151.8288  139.2773  155.9603 C   0  0  0  0  0  0  0  0  0  0  0  0
  151.5609  139.1697  158.4591 C   0  0  0  0  0  0  0  0  0  0  0  0
  152.8934  139.9474  158.5459 C   0  0  2  0  0  0  0  0  0  0  0  0
  153.9268  139.0337  158.2378 O   0  0  0  0  0  0  0  0  0  0  0  0
  153.1739  140.5364  159.9490 C   0  0  0  0  0  0  0  0  0  0  0  0
  152.4434  141.8005  160.2215 N   0  3  0  0  0  0  0  0  0  0  0  0
  152.9035  142.4975  161.4508 C   0  0  0  0  0  0  0  0  0  0  0  0
  152.1255  143.8077  161.6606 C   0  0  0  0  0  0  0  0  0  0  0  0
  152.2577  144.6341  160.5121 O   0  0  0  0  0  0  0  0  0  0  0  0
  151.7152  144.0154  159.3532 C   0  0  0  0  0  0  0  0  0  0  0  0
  152.4859  142.7186  159.0572 C   0  0  0  0  0  0  0  0  0  0  0  0
  149.9427  137.3239  155.7491 N   0  0  0  0  0  0  0  0  0  0  0  0
  148.9322  136.4720  155.5566 C   0  0  0  0  0  0  0  0  0  0  0  0
  148.1201  135.9250  156.4618 N   0  0  0  0  0  0  0  0  0  0  0  0
  148.4233  136.3514  157.7208 C   0  0  0  0  0  0  0  0  0  0  0  0
  148.5707  135.9423  161.8703 H   0  0  0  0  0  0  0  0  0  0  0  0
  148.5842  134.4441  162.7983 H   0  0  0  0  0  0  0  0  0  0  0  0
  147.6734  135.8299  163.3812 H   0  0  0  0  0  0  0  0  0  0  0  0
  146.0576  135.6560  161.5618 H   0  0  0  0  0  0  0  0  0  0  0  0
  146.7995  132.0357  162.1829 H   0  0  0  0  0  0  0  0  0  0  0  0
  145.0318  132.0602  162.1575 H   0  0  0  0  0  0  0  0  0  0  0  0
  146.2751  132.0956  159.7784 H   0  0  0  0  0  0  0  0  0  0  0  0
  144.9960  133.2734  160.0660 H   0  0  0  0  0  0  0  0  0  0  0  0
  148.2758  132.7230  160.7269 H   0  0  0  0  0  0  0  0  0  0  0  0
  146.6530  134.4150  158.2115 H   0  0  0  0  0  0  0  0  0  0  0  0
  145.8272  135.5772  159.2173 H   0  0  0  0  0  0  0  0  0  0  0  0
  148.2492  136.6088  160.9363 H   0  0  0  0  0  0  0  0  0  0  0  0
  151.8266  138.6188  155.0910 H   0  0  0  0  0  0  0  0  0  0  0  0
  152.8572  139.5969  156.1311 H   0  0  0  0  0  0  0  0  0  0  0  0
  151.2345  140.1615  155.7297 H   0  0  0  0  0  0  0  0  0  0  0  0
  150.7323  139.8008  158.7823 H   0  0  0  0  0  0  0  0  0  0  0  0
  151.5856  138.3396  159.1665 H   0  0  0  0  0  0  0  0  0  0  0  0
  152.8969  140.7196  157.7786 H   0  0  0  0  0  0  0  0  0  0  0  0
  153.6122  138.1544  158.3794 H   0  0  0  0  0  0  0  0  0  0  0  0
  152.9042  139.8358  160.7362 H   0  0  0  0  0  0  0  0  0  0  0  0
  154.2484  140.6988  160.0508 H   0  0  0  0  0  0  0  0  0  0  0  0
  152.7689  141.8644  162.3264 H   0  0  0  0  0  0  0  0  0  0  0  0
  153.9704  142.7097  161.3776 H   0  0  0  0  0  0  0  0  0  0  0  0
  151.0716  143.6075  161.8613 H   0  0  0  0  0  0  0  0  0  0  0  0
  152.5177  144.3420  162.5261 H   0  0  0  0  0  0  0  0  0  0  0  0
  150.6516  143.8158  159.4939 H   0  0  0  0  0  0  0  0  0  0  0  0
  151.8015  144.7036  158.5122 H   0  0  0  0  0  0  0  0  0  0  0  0
  153.5233  142.9515  158.8120 H   0  0  0  0  0  0  0  0  0  0  0  0
  152.0543  142.2278  158.1840 H   0  0  0  0  0  0  0  0  0  0  0  0
  148.7557  136.1794  154.5320 H   0  0  0  0  0  0  0  0  0  0  0  0
  151.4726  141.5576  160.3585 H   0  0  0  0  0  0  0  0  0  0  0  0
  1  2  1  0  0  0  0
  1 30  1  0  0  0  0
  1 31  1  0  0  0  0
  1 32  1  0  0  0  0
  2  6  1  0  0  0  0
  2  3  1  0  0  0  0
  2 33  1  0  0  0  0
  3  4  1  0  0  0  0
  4  5  1  0  0  0  0
  4 34  1  0  0  0  0
  4 35  1  0  0  0  0
  5  6  1  0  0  0  0
  5 36  1  0  0  0  0
  5 37  1  0  0  0  0
  6  7  1  0  0  0  0
  6  8  1  0  0  0  0
  7 38  1  0  0  0  0
  8  9  1  0  0  0  0
  8 39  1  0  0  0  0
  8 40  1  0  0  0  0
  9 29  1  0  0  0  0
  9 10  1  0  0  0  0
 10 11  2  0  0  0  0
 10 41  1  0  0  0  0
 11 12  1  0  0  0  0
 12 29  2  0  0  0  0
 12 13  1  0  0  0  0
 13 14  1  0  0  0  0
 13 26  2  0  0  0  0
 14 15  1  0  0  0  0
 14 16  1  0  0  0  0
 15 42  1  0  0  0  0
 15 43  1  0  0  0  0
 15 44  1  0  0  0  0
 16 17  1  0  0  0  0
 16 45  1  0  0  0  0
 16 46  1  0  0  0  0
 17 18  1  0  0  0  0
 17 19  1  0  0  0  0
 17 47  1  0  0  0  0
 18 48  1  0  0  0  0
 19 20  1  0  0  0  0
 19 49  1  0  0  0  0
 19 50  1  0  0  0  0
 20 25  1  0  0  0  0
 20 21  1  0  0  0  0
 20 60  1  0  0  0  0
 21 22  1  0  0  0  0
 21 51  1  0  0  0  0
 21 52  1  0  0  0  0
 22 23  1  0  0  0  0
 22 53  1  0  0  0  0
 22 54  1  0  0  0  0
 23 24  1  0  0  0  0
 24 25  1  0  0  0  0
 24 55  1  0  0  0  0
 24 56  1  0  0  0  0
 25 57  1  0  0  0  0
 25 58  1  0  0  0  0
 26 27  1  0  0  0  0
 27 28  2  0  0  0  0
 27 59  1  0  0  0  0
 28 29  1  0  0  0  0
M  CHG  1  20   1
M  END
> <s_m_source_file>
AV-unprocessed.smi

> <i_m_source_file_index>
153

> <i_lp_mmshare_version>
43012

> <i_f3d_flags>
0

> <s_epik_input>
W0NIMl0xW0NIMl1PW0NAQEhdKFtDSDNdKVtDQEBdMShbT0hdKVtDSDJdbihbY0hdbjIpYyhjMjMpbltjSF1uYzNOKFtDSDNdKVtDSDJdW0NASF0oW09IXSlbQ0gyXU40W0NIMl1bQ0gyXU9bQ0gyXVtDSDJdNA==

> <s_epik_cmdline>
J2VwaWtfcHl0aG9uJywgJy1waCcsICc3LjAnLCAnLXRuJywgJzgnLCAnLW1hJywgJzIwMCcsICctbWV0YWxfYmluZGluZycsICctaW1hZScsICc8aW5maWxlLm1hZT4nLCAnLW9tYWUnLCAnPG91dGZpbGUubWFlPic=

> <r_lp_tautomer_probability>
1

> <r_epik_Ionization_Penalty>
0.403509

> <r_epik_Ionization_Penalty_Charging>
0.40072

> <r_epik_Ionization_Penalty_Neutral>
0.00278876

> <r_epik_State_Penalty>
0.400058

> <r_epik_Charging_Adjusted_Penalty>
0.800778

> <i_epik_Tot_Q>
1

> <i_epik_Tot_abs_Q>
1

> <r_epik_Metal_State_Penalty>
0.400321

> <b_epik_Metal_Only>
0

> <s_lp_Force_Field>
OPLS_2005

> <r_lp_Energy>
42.6993

> <b_lp_Chiralities_Consistent>
1

> <s_lp_Variant>
AV-unprocessed.smi:153-3

> <Gold.Version>
5.8.1

> <Gold.Id.Protein>
6NUR|6NUR_protein|mol2

> <Gold.PLP.Fitness>
45.5903

> <Gold.PLP.PLP>
-42.1907

> <Gold.PLP.part.hbond>
-2.0000

> <Gold.PLP.part.metal>
0.0000

> <Gold.PLP.part.buried>
-5.6635

> <Gold.PLP.part.nonpolar>
-33.7784

> <Gold.PLP.part.repulsive>
0.2826

> <Gold.PLP.ligand.clash>
0.0000

> <Gold.PLP.ligand.torsion>
0.9432

> <Gold.PLP.Chemscore.Hbond>
0.9920

> <Gold.PLP.Chemscore.CHOScore>
0.5777

> <Gold.PLP.Chemscore.Metal>
0.0000

> <Gold.Chemscore.Hbonds>
donor molecule, donor type, donor heavy atom, donor atom, acceptor molecule, acceptor atom, score
      P1  H  7997  8009       L1    18  0.98
      L1  C    27    59       P1  7948  0.67

> <Gold.PLP.Chemscore.Internal.Correction>
0.5770

> <Gold.Rescore>
     Score         DG    S(hbond)    S(metal)    S(lipo)     H(rot)  DE(clash)    DE(int)     intcor
      9.52     -11.71       0.83        0.00     108.66       3.62       0.10       2.09       ----

> <Gold.Chemscore.Fitness>
9.5153

> <Gold.Chemscore.DG>
-11.7094

> <Gold.Chemscore.ZeroCoef>
-5.4800

> <Gold.Chemscore.Hbond>
0.8319

> <Gold.Chemscore.Metal>
0.0000

> <Gold.Chemscore.Lipo>
108.6622

> <Gold.Chemscore.Internal_Hbond>
0.0000

> <Gold.Chemscore.DEClash>
0.0998

> <Gold.Chemscore.DEInternal>
2.0943

> <Gold.Chemscore.Rot>
3.6182

> <Gold.Chemscore.Internal.Correction>
   9.000000E+99

> <Gold.Chemscore.Hbonds>
donor molecule, donor type, donor heavy atom, donor atom, acceptor molecule, acceptor atom, score
      P1  H  7997  8009       L1    18  0.37

> <Gold.Chemscore.Hbond.Weighted>
-2.7784

> <Gold.Chemscore.Metal.Weighted>
-0.0000

> <Gold.Chemscore.Lipo.Weighted>
-12.7135

> <Gold.Chemscore.Internal_Hbond.Weighted>
0.0000

> <Gold.Chemscore.DEClash.Weighted>
0.0998

> <Gold.Chemscore.DEInternal.Weighted>
2.0943

> <Gold.Chemscore.Rot.Weighted>
9.2625

> <Gold.Chemscore.Internal.Correction.Weighted>
   9.000000E+99

> <Gold.Protein.RotatedTorsions>
[ 6907 6896 6895 6894 ] final -179.15 input  -60.11 | X-H torsion
[ 7974 7965 7964 7962 ] final  158.67 input  175.53 | X-H torsion
[ 8008 7997 7996 7995 ] final  121.35 input   59.86 | X-H torsion
[ 10167 10162 10161 10158 ] final   23.46 input  -65.29 | X-H torsion
[ 10718 10713 10712 10709 ] final  133.97 input   66.30 | X-H torsion
[ 10763 10752 10751 10750 ] final -106.60 input  -60.55 | X-H torsion
[ 11005 11000 10999 10996 ] final   -5.39 input  -57.11 | X-H torsion

> <Gold.Protein.ActiveResidues>
 VAL166  LYS551  ARG553  GLY616  TRP617  ASP618  TYR619  PRO620  LYS621  CYS622 
 ASP623  PHE694  ASN695  SER759  ASP760  ASP761  ALA762  ILE779  LEU786  VAL792 
 PHE793  MET794  SER795  GLU796  ALA797  LYS798  CYS799  TRP800  GLU811  SER814 

> <Gold.Protein.RotatedAtoms>
  151.6487  133.3322  159.3146 H   0  0  0  0  0  0  0  0  0  0  0  0  # atno 6907 bound_to 6896
  150.7971  134.7042  159.6577 H   0  0  0  0  0  0  0  0  0  0  0  0  # atno 6908 bound_to 6896
  152.4059  134.6211  160.0102 H   0  0  0  0  0  0  0  0  0  0  0  0  # atno 6909 bound_to 6896
  144.7833  139.7510  143.6251 H   0  0  0  0  0  0  0  0  0  0  0  0  # atno 7974 bound_to 7965
  156.2682  140.2810  156.1294 H   0  0  0  0  0  0  0  0  0  0  0  0  # atno 8008 bound_to 7997
  155.1070  140.0390  157.2731 H   0  0  0  0  0  0  0  0  0  0  0  0  # atno 8009 bound_to 7997
  154.6771  140.2600  155.6952 H   0  0  0  0  0  0  0  0  0  0  0  0  # atno 8010 bound_to 7997
  140.5267  143.9911  150.6444 H   0  0  0  0  0  0  0  0  0  0  0  0  # atno 10167 bound_to 10162
  157.4720  131.1080  150.9791 H   0  0  0  0  0  0  0  0  0  0  0  0  # atno 10718 bound_to 10713
  154.8023  135.4706  154.0305 H   0  0  0  0  0  0  0  0  0  0  0  0  # atno 10763 bound_to 10752
  153.1801  135.6839  153.8496 H   0  0  0  0  0  0  0  0  0  0  0  0  # atno 10764 bound_to 10752
  153.8049  135.3225  155.3372 H   0  0  0  0  0  0  0  0  0  0  0  0  # atno 10765 bound_to 10752
  140.6906  133.9074  155.8616 H   0  0  0  0  0  0  0  0  0  0  0  0  # atno 11005 bound_to 11000
  146.2052  139.5371  142.9717 LP  0  0  0  0  0  0  0  0  0  0  0  0  # atno 17320 bound_to 7965
  145.5991  141.0358  143.2028 LP  0  0  0  0  0  0  0  0  0  0  0  0  # atno 17321 bound_to 7965
  140.3275  143.3098  152.0721 LP  0  0  0  0  0  0  0  0  0  0  0  0  # atno 17342 bound_to 10162
  139.4940  144.6532  151.6630 LP  0  0  0  0  0  0  0  0  0  0  0  0  # atno 17343 bound_to 10162
  157.0553  130.5803  149.5377 LP  0  0  0  0  0  0  0  0  0  0  0  0  # atno 17370 bound_to 10713
  156.0078  130.5166  150.7888 LP  0  0  0  0  0  0  0  0  0  0  0  0  # atno 17371 bound_to 10713
  141.0244  134.0844  157.4085 LP  0  0  0  0  0  0  0  0  0  0  0  0  # atno 17394 bound_to 11000
  139.8924  135.0125  156.6846 LP  0  0  0  0  0  0  0  0  0  0  0  0  # atno 17395 bound_to 11000

$$$$
