AV-unprocessed.smi:829|AV-procd|sdf|3868|dock7
  -GOLD-   22720 1323D 1   1.00000     0.00000
 Structure written by MMmdl.
 50 52  0  0  0  0  0  0  0  0  3 V2000
  150.5781  136.6457  156.0416 O   0  0  0  0  0  0  0  0  0  0  0  0
  150.1112  136.6081  154.9035 C   0  0  0  0  0  0  0  0  0  0  0  0
  149.9460  135.4953  154.1675 N   0  0  0  0  0  0  0  0  0  0  0  0
  150.2645  134.1530  154.5112 C   0  0  0  0  0  0  0  0  0  0  0  0
  151.0103  133.9397  155.6919 C   0  0  0  0  0  0  0  0  0  0  0  0
  151.3597  132.6262  156.0663 C   0  0  0  0  0  0  0  0  0  0  0  0
  150.9895  131.5849  155.2907 N   0  3  0  0  0  0  0  0  0  0  0  0
  150.2900  131.7398  154.1462 C   0  0  0  0  0  0  0  0  0  0  0  0
  149.9117  133.0296  153.7206 C   0  0  0  0  0  0  0  0  0  0  0  0
  149.7178  137.7002  154.2318 N   0  0  0  0  0  0  0  0  0  0  0  0
  149.8058  139.0690  154.7326 C   0  0  2  0  0  0  0  0  0  0  0  0
  151.2089  139.3647  155.2935 C   0  0  0  0  0  0  0  0  0  0  0  0
  151.2761  140.7721  155.9110 C   0  0  0  0  0  0  0  0  0  0  0  0
  150.2401  140.9491  156.9614 N   0  3  1  0  0  0  0  0  0  0  0  0
  150.3587  142.2438  157.6811 C   0  0  0  0  0  0  0  0  0  0  0  0
  151.7348  142.4028  158.3550 C   0  0  0  0  0  0  0  0  0  0  0  0
  152.1253  141.2756  159.3159 C   0  0  0  0  0  0  0  0  0  0  0  0
  153.2246  141.8707  160.2013 C   0  0  0  0  0  0  0  0  0  0  0  0
  153.0217  143.3928  160.1713 C   0  0  0  0  0  0  0  0  0  0  0  0
  151.8307  143.6482  159.2409 C   0  0  0  0  0  0  0  0  0  0  0  0
  148.8747  140.7052  156.4270 C   0  0  0  0  0  0  0  0  0  0  0  0
  148.7565  139.2924  155.8328 C   0  0  0  0  0  0  0  0  0  0  0  0
  149.6225  135.6345  153.2213 H   0  0  0  0  0  0  0  0  0  0  0  0
  151.3084  134.7728  156.3122 H   0  0  0  0  0  0  0  0  0  0  0  0
  151.9218  132.3796  156.9554 H   0  0  0  0  0  0  0  0  0  0  0  0
  150.0600  130.8338  153.6045 H   0  0  0  0  0  0  0  0  0  0  0  0
  149.3701  133.1309  152.7926 H   0  0  0  0  0  0  0  0  0  0  0  0
  149.3474  137.5794  153.3003 H   0  0  0  0  0  0  0  0  0  0  0  0
  149.5956  139.7624  153.9156 H   0  0  0  0  0  0  0  0  0  0  0  0
  151.4696  138.6238  156.0511 H   0  0  0  0  0  0  0  0  0  0  0  0
  151.9577  139.2765  154.5052 H   0  0  0  0  0  0  0  0  0  0  0  0
  152.2663  140.9236  156.3426 H   0  0  0  0  0  0  0  0  0  0  0  0
  151.1457  141.5305  155.1371 H   0  0  0  0  0  0  0  0  0  0  0  0
  150.2411  143.0664  156.9741 H   0  0  0  0  0  0  0  0  0  0  0  0
  149.5498  142.3625  158.4039 H   0  0  0  0  0  0  0  0  0  0  0  0
  152.5028  142.4820  157.5833 H   0  0  0  0  0  0  0  0  0  0  0  0
  151.2708  141.0026  159.9367 H   0  0  0  0  0  0  0  0  0  0  0  0
  152.4596  140.3771  158.7963 H   0  0  0  0  0  0  0  0  0  0  0  0
  153.1820  141.4711  161.2150 H   0  0  0  0  0  0  0  0  0  0  0  0
  154.2063  141.6239  159.7954 H   0  0  0  0  0  0  0  0  0  0  0  0
  152.8402  143.7988  161.1669 H   0  0  0  0  0  0  0  0  0  0  0  0
  153.9176  143.8768  159.7806 H   0  0  0  0  0  0  0  0  0  0  0  0
  151.9459  144.5650  158.6619 H   0  0  0  0  0  0  0  0  0  0  0  0
  150.9228  143.7493  159.8378 H   0  0  0  0  0  0  0  0  0  0  0  0
  148.1343  140.8243  157.2171 H   0  0  0  0  0  0  0  0  0  0  0  0
  148.6425  141.4510  155.6649 H   0  0  0  0  0  0  0  0  0  0  0  0
  147.7537  139.1462  155.4292 H   0  0  0  0  0  0  0  0  0  0  0  0
  148.8824  138.5540  156.6262 H   0  0  0  0  0  0  0  0  0  0  0  0
  150.4182  140.2310  157.6490 H   0  0  0  0  0  0  0  0  0  0  0  0
  151.2534  130.6422  155.5786 H   0  0  0  0  0  0  0  0  0  0  0  0
  1  2  2  0  0  0  0
  2  3  1  0  0  0  0
  2 10  1  0  0  0  0
  3  4  1  0  0  0  0
  3 23  1  0  0  0  0
  4  9  1  0  0  0  0
  4  5  2  0  0  0  0
  5  6  1  0  0  0  0
  5 24  1  0  0  0  0
  6  7  2  0  0  0  0
  6 25  1  0  0  0  0
  7  8  1  0  0  0  0
  7 50  1  0  0  0  0
  8  9  2  0  0  0  0
  8 26  1  0  0  0  0
  9 27  1  0  0  0  0
 10 11  1  0  0  0  0
 10 28  1  0  0  0  0
 11 22  1  0  0  0  0
 11 12  1  0  0  0  0
 11 29  1  0  0  0  0
 12 13  1  0  0  0  0
 12 30  1  0  0  0  0
 12 31  1  0  0  0  0
 13 14  1  0  0  0  0
 13 32  1  0  0  0  0
 13 33  1  0  0  0  0
 14 15  1  0  0  0  0
 14 21  1  0  0  0  0
 14 49  1  0  0  0  0
 15 16  1  0  0  0  0
 15 34  1  0  0  0  0
 15 35  1  0  0  0  0
 16 20  1  0  0  0  0
 16 17  1  0  0  0  0
 16 36  1  0  0  0  0
 17 18  1  0  0  0  0
 17 37  1  0  0  0  0
 17 38  1  0  0  0  0
 18 19  1  0  0  0  0
 18 39  1  0  0  0  0
 18 40  1  0  0  0  0
 19 20  1  0  0  0  0
 19 41  1  0  0  0  0
 19 42  1  0  0  0  0
 20 43  1  0  0  0  0
 20 44  1  0  0  0  0
 21 22  1  0  0  0  0
 21 45  1  0  0  0  0
 21 46  1  0  0  0  0
 22 47  1  0  0  0  0
 22 48  1  0  0  0  0
M  CHG  1   7   1
M  CHG  1  14   1
M  END
> <s_m_source_file>
AV-unprocessed.smi

> <i_m_source_file_index>
829

> <i_lp_mmshare_version>
43012

> <i_f3d_flags>
0

> <s_epik_input>
W2NIXTFbY0hdbltjSF1bY0hdYzFbTkhdQyg9TylbTkhdW0NIXTJbQ0gyXVtDSDJdTihbQ0gyXVtDSDJdMilbQ0gyXVtDSF0zW0NIMl1bQ0gyXVtDSDJdW0NIMl0z

> <s_epik_cmdline>
J2VwaWtfcHl0aG9uJywgJy1waCcsICc3LjAnLCAnLXRuJywgJzgnLCAnLW1hJywgJzIwMCcsICctbWV0YWxfYmluZGluZycsICctaW1hZScsICc8aW5maWxlLm1hZT4nLCAnLW9tYWUnLCAnPG91dGZpbGUubWFlPic=

> <r_epik_Ionization_Penalty>
1.10644

> <r_epik_Ionization_Penalty_Charging>
1.10642

> <r_epik_Ionization_Penalty_Neutral>
1.84455e-05

> <r_epik_State_Penalty>
1.14949

> <r_epik_Charging_Adjusted_Penalty>
2.25592

> <i_epik_Tot_Q>
2

> <i_epik_Tot_abs_Q>
2

> <r_epik_Metal_State_Penalty>
1.23448

> <b_epik_Metal_Only>
0

> <s_lp_Force_Field>
OPLS_2005

> <r_lp_Energy>
49.76

> <b_lp_Chiralities_Consistent>
1

> <s_lp_Variant>
AV-unprocessed.smi:829-3

> <Gold.Version>
5.8.1

> <Gold.Id.Protein>
6NUR|6NUR_protein|mol2

> <Gold.PLP.Fitness>
46.7424

> <Gold.PLP.PLP>
-41.2983

> <Gold.PLP.part.hbond>
-2.2853

> <Gold.PLP.part.metal>
0.0000

> <Gold.PLP.part.buried>
-4.8433

> <Gold.PLP.part.nonpolar>
-34.0991

> <Gold.PLP.part.repulsive>
0.1083

> <Gold.PLP.ligand.clash>
0.0000

> <Gold.PLP.ligand.torsion>
0.1639

> <Gold.PLP.Chemscore.Hbond>
1.9120

> <Gold.PLP.Chemscore.CHOScore>
0.0000

> <Gold.PLP.Chemscore.Metal>
0.0000

> <Gold.Chemscore.Hbonds>
donor molecule, donor type, donor heavy atom, donor atom, acceptor molecule, acceptor atom, score
      L1  H     3    23       P1  7948  0.55
      L1  H    10    28       P1  7948  0.90

> <Gold.PLP.Chemscore.Internal.Correction>
0.0358

> <Gold.Rescore>
     Score         DG    S(hbond)    S(metal)    S(lipo)     H(rot)  DE(clash)    DE(int)     intcor
     17.45     -20.51       1.64        0.00     111.58       1.37       0.31       2.75       ----

> <Gold.Chemscore.Fitness>
17.4502

> <Gold.Chemscore.DG>
-20.5091

> <Gold.Chemscore.ZeroCoef>
-5.4800

> <Gold.Chemscore.Hbond>
1.6418

> <Gold.Chemscore.Metal>
0.0000

> <Gold.Chemscore.Lipo>
111.5756

> <Gold.Chemscore.Internal_Hbond>
0.0000

> <Gold.Chemscore.DEClash>
0.3085

> <Gold.Chemscore.DEInternal>
2.7503

> <Gold.Chemscore.Rot>
1.3707

> <Gold.Chemscore.Internal.Correction>
   9.000000E+99

> <Gold.Chemscore.Hbonds>
donor molecule, donor type, donor heavy atom, donor atom, acceptor molecule, acceptor atom, score
      L1  H     3    23       P1  7948  0.03
      L1  H    10    28       P1  7948  0.82

> <Gold.Chemscore.Hbond.Weighted>
-5.4837

> <Gold.Chemscore.Metal.Weighted>
-0.0000

> <Gold.Chemscore.Lipo.Weighted>
-13.0543

> <Gold.Chemscore.Internal_Hbond.Weighted>
0.0000

> <Gold.Chemscore.DEClash.Weighted>
0.3085

> <Gold.Chemscore.DEInternal.Weighted>
2.7503

> <Gold.Chemscore.Rot.Weighted>
3.5089

> <Gold.Chemscore.Internal.Correction.Weighted>
   9.000000E+99

> <Gold.Protein.RotatedTorsions>
[ 6907 6896 6895 6894 ] final -160.37 input  -60.11 | X-H torsion
[ 7974 7965 7964 7962 ] final  104.67 input  175.53 | X-H torsion
[ 8008 7997 7996 7995 ] final   30.36 input   59.86 | X-H torsion
[ 10167 10162 10161 10158 ] final   57.13 input  -65.29 | X-H torsion
[ 10718 10713 10712 10709 ] final   10.35 input   66.30 | X-H torsion
[ 10763 10752 10751 10750 ] final -160.35 input  -60.55 | X-H torsion
[ 11005 11000 10999 10996 ] final -161.15 input  -57.11 | X-H torsion

> <Gold.Protein.ActiveResidues>
 VAL166  LYS551  ARG553  GLY616  TRP617  ASP618  TYR619  PRO620  LYS621  CYS622 
 ASP623  PHE694  ASN695  SER759  ASP760  ASP761  ALA762  ILE779  LEU786  VAL792 
 PHE793  MET794  SER795  GLU796  ALA797  LYS798  CYS799  TRP800  GLU811  SER814 

> <Gold.Protein.RotatedAtoms>
  151.3480  133.3936  159.2677 H   0  0  0  0  0  0  0  0  0  0  0  0  # atno 6907 bound_to 6896
  150.9824  134.9177  159.7862 H   0  0  0  0  0  0  0  0  0  0  0  0  # atno 6908 bound_to 6896
  152.5221  134.3444  159.9281 H   0  0  0  0  0  0  0  0  0  0  0  0  # atno 6909 bound_to 6896
  145.3297  139.2490  143.3667 H   0  0  0  0  0  0  0  0  0  0  0  0  # atno 7974 bound_to 7965
  155.0892  140.3218  155.4579 H   0  0  0  0  0  0  0  0  0  0  0  0  # atno 8008 bound_to 7997
  156.2747  140.2081  156.5965 H   0  0  0  0  0  0  0  0  0  0  0  0  # atno 8009 bound_to 7997
  154.6917  140.0516  157.0357 H   0  0  0  0  0  0  0  0  0  0  0  0  # atno 8010 bound_to 7997
  140.2013  144.3985  150.6528 H   0  0  0  0  0  0  0  0  0  0  0  0  # atno 10167 bound_to 10162
  156.9797  130.6001  149.5675 H   0  0  0  0  0  0  0  0  0  0  0  0  # atno 10718 bound_to 10713
  154.7398  135.3066  154.8748 H   0  0  0  0  0  0  0  0  0  0  0  0  # atno 10763 bound_to 10752
  153.9566  135.6758  153.4749 H   0  0  0  0  0  0  0  0  0  0  0  0  # atno 10764 bound_to 10752
  153.0998  135.4918  154.8769 H   0  0  0  0  0  0  0  0  0  0  0  0  # atno 10765 bound_to 10752
  140.6236  134.4724  157.5225 H   0  0  0  0  0  0  0  0  0  0  0  0  # atno 11005 bound_to 11000
  146.3050  140.3872  142.8690 LP  0  0  0  0  0  0  0  0  0  0  0  0  # atno 17320 bound_to 7965
  144.8874  140.7479  143.5948 LP  0  0  0  0  0  0  0  0  0  0  0  0  # atno 17321 bound_to 7965
  140.6388  143.2200  151.6335 LP  0  0  0  0  0  0  0  0  0  0  0  0  # atno 17342 bound_to 10162
  139.5216  144.3187  152.0929 LP  0  0  0  0  0  0  0  0  0  0  0  0  # atno 17343 bound_to 10162
  156.0249  130.5343  150.8379 LP  0  0  0  0  0  0  0  0  0  0  0  0  # atno 17370 bound_to 10713
  157.5535  131.0944  150.9662 LP  0  0  0  0  0  0  0  0  0  0  0  0  # atno 17371 bound_to 10713
  139.9143  134.8278  156.1418 LP  0  0  0  0  0  0  0  0  0  0  0  0  # atno 17394 bound_to 11000
  141.0725  133.6790  156.2169 LP  0  0  0  0  0  0  0  0  0  0  0  0  # atno 17395 bound_to 11000

$$$$
