AV-unprocessed.smi:1056|AV-procd|sdf|4636|dock8
  -GOLD-   22720 3143D 1   1.00000     0.00000
 Structure written by MMmdl.
 46 48  0  0  0  0  0  0  0  0  3 V2000
  151.8177  144.5321  160.5174 C   0  0  0  0  0  0  0  0  0  0  0  0
  151.7295  143.4578  159.4467 C   0  0  0  0  0  0  0  0  0  0  0  0
  150.9006  143.6881  158.3258 C   0  0  0  0  0  0  0  0  0  0  0  0
  150.8419  142.6868  157.3638 C   0  0  0  0  0  0  0  0  0  0  0  0
  150.1298  142.6131  156.1651 N   0  3  0  0  0  0  0  0  0  0  0  0
  150.3933  141.4266  155.5517 C   0  0  0  0  0  0  0  0  0  0  0  0
  151.2614  140.7381  156.3421 N   0  0  0  0  0  0  0  0  0  0  0  0
  151.8615  139.4104  156.1408 C   0  0  0  0  0  0  0  0  0  0  0  0
  150.8108  138.2895  156.0107 C   0  0  2  0  0  0  0  0  0  0  0  0
  151.1430  137.2215  156.8773 O   0  0  0  0  0  0  0  0  0  0  0  0
  150.7285  137.7479  154.5699 C   0  0  0  0  0  0  0  0  0  0  0  0
  149.7457  136.6428  154.4334 N   0  3  1  0  0  0  0  0  0  0  0  0
  150.3133  135.3045  154.7244 C   0  0  0  0  0  0  0  0  0  0  0  0
  149.3006  134.2068  154.3541 C   0  0  0  0  0  0  0  0  0  0  0  0
  147.9389  134.5184  154.7825 N   0  0  0  0  0  0  0  0  0  0  0  0
  147.5033  135.7267  155.1749 C   0  0  0  0  0  0  0  0  0  0  0  0
  146.3376  135.9160  155.5123 O   0  0  0  0  0  0  0  0  0  0  0  0
  148.5012  136.8947  155.2041 C   0  0  0  0  0  0  0  0  0  0  0  0
  151.5710  141.4874  157.4850 C   0  0  0  0  0  0  0  0  0  0  0  0
  152.3910  141.2446  158.5852 C   0  0  0  0  0  0  0  0  0  0  0  0
  152.4655  142.2515  159.5741 C   0  0  0  0  0  0  0  0  0  0  0  0
  153.3540  142.0144  160.7834 C   0  0  0  0  0  0  0  0  0  0  0  0
  151.1656  145.3760  160.2911 H   0  0  0  0  0  0  0  0  0  0  0  0
  152.8373  144.9102  160.5963 H   0  0  0  0  0  0  0  0  0  0  0  0
  151.5196  144.1332  161.4873 H   0  0  0  0  0  0  0  0  0  0  0  0
  150.3375  144.6041  158.2217 H   0  0  0  0  0  0  0  0  0  0  0  0
  149.9858  141.0937  154.6079 H   0  0  0  0  0  0  0  0  0  0  0  0
  152.4568  139.4656  155.2287 H   0  0  0  0  0  0  0  0  0  0  0  0
  152.5646  139.2038  156.9477 H   0  0  0  0  0  0  0  0  0  0  0  0
  149.8448  138.6859  156.3226 H   0  0  0  0  0  0  0  0  0  0  0  0
  151.9769  136.8629  156.6135 H   0  0  0  0  0  0  0  0  0  0  0  0
  150.4679  138.5457  153.8726 H   0  0  0  0  0  0  0  0  0  0  0  0
  151.7198  137.4000  154.2737 H   0  0  0  0  0  0  0  0  0  0  0  0
  151.2413  135.1409  154.1777 H   0  0  0  0  0  0  0  0  0  0  0  0
  150.5582  135.2445  155.7863 H   0  0  0  0  0  0  0  0  0  0  0  0
  149.2827  134.0755  153.2717 H   0  0  0  0  0  0  0  0  0  0  0  0
  149.6044  133.2505  154.7808 H   0  0  0  0  0  0  0  0  0  0  0  0
  147.2731  133.7584  154.7747 H   0  0  0  0  0  0  0  0  0  0  0  0
  148.7540  137.0954  156.2463 H   0  0  0  0  0  0  0  0  0  0  0  0
  148.0102  137.7877  154.8151 H   0  0  0  0  0  0  0  0  0  0  0  0
  152.9508  140.3275  158.6890 H   0  0  0  0  0  0  0  0  0  0  0  0
  153.8804  141.0621  160.7124 H   0  0  0  0  0  0  0  0  0  0  0  0
  152.7593  141.9998  161.6968 H   0  0  0  0  0  0  0  0  0  0  0  0
  154.1031  142.8018  160.8698 H   0  0  0  0  0  0  0  0  0  0  0  0
  149.4679  136.6304  153.4621 H   0  0  0  0  0  0  0  0  0  0  0  0
  149.5101  143.3204  155.7905 H   0  0  0  0  0  0  0  0  0  0  0  0
  1  2  1  0  0  0  0
  1 23  1  0  0  0  0
  1 24  1  0  0  0  0
  1 25  1  0  0  0  0
  2 21  1  0  0  0  0
  2  3  2  0  0  0  0
  3  4  1  0  0  0  0
  3 26  1  0  0  0  0
  4 19  2  0  0  0  0
  4  5  1  0  0  0  0
  5  6  2  0  0  0  0
  5 46  1  0  0  0  0
  6  7  1  0  0  0  0
  6 27  1  0  0  0  0
  7  8  1  0  0  0  0
  7 19  1  0  0  0  0
  8  9  1  0  0  0  0
  8 28  1  0  0  0  0
  8 29  1  0  0  0  0
  9 10  1  0  0  0  0
  9 11  1  0  0  0  0
  9 30  1  0  0  0  0
 10 31  1  0  0  0  0
 11 12  1  0  0  0  0
 11 32  1  0  0  0  0
 11 33  1  0  0  0  0
 12 18  1  0  0  0  0
 12 13  1  0  0  0  0
 12 45  1  0  0  0  0
 13 14  1  0  0  0  0
 13 34  1  0  0  0  0
 13 35  1  0  0  0  0
 14 15  1  0  0  0  0
 14 36  1  0  0  0  0
 14 37  1  0  0  0  0
 15 16  1  0  0  0  0
 15 38  1  0  0  0  0
 16 17  2  0  0  0  0
 16 18  1  0  0  0  0
 18 39  1  0  0  0  0
 18 40  1  0  0  0  0
 19 20  1  0  0  0  0
 20 21  2  0  0  0  0
 20 41  1  0  0  0  0
 21 22  1  0  0  0  0
 22 42  1  0  0  0  0
 22 43  1  0  0  0  0
 22 44  1  0  0  0  0
M  CHG  1   5   1
M  CHG  1  12   1
M  END
> <s_m_source_file>
AV-unprocessed.smi

> <i_m_source_file_index>
1056

> <i_lp_mmshare_version>
43012

> <i_f3d_flags>
0

> <s_epik_input>
W0NIM11jKFtjSF0xKWMoW0NIM10pW2NIXWMoYzEyKW4oW2NIXW4yKVtDSDJdW0NASF0oW09IXSlbQ0gyXU4zW0NIMl1bQ0gyXVtOSF1DKD1PKVtDSDJdMw==

> <s_epik_cmdline>
J2VwaWtfcHl0aG9uJywgJy1waCcsICc3LjAnLCAnLXRuJywgJzgnLCAnLW1hJywgJzIwMCcsICctbWV0YWxfYmluZGluZycsICctaW1hZScsICc8aW5maWxlLm1hZT4nLCAnLW9tYWUnLCAnPG91dGZpbGUubWFlPic=

> <r_epik_Ionization_Penalty>
1.262

> <r_epik_Ionization_Penalty_Charging>
1.26188

> <r_epik_Ionization_Penalty_Neutral>
0.000125436

> <r_epik_State_Penalty>
1.3387

> <r_epik_Charging_Adjusted_Penalty>
2.60058

> <i_epik_Tot_Q>
2

> <i_epik_Tot_abs_Q>
2

> <r_epik_Metal_State_Penalty>
1.58938

> <b_epik_Metal_Only>
0

> <s_lp_Force_Field>
OPLS_2005

> <r_lp_Energy>
35.3013

> <b_lp_Chiralities_Consistent>
1

> <s_lp_Variant>
AV-unprocessed.smi:1056-7

> <Gold.Version>
5.8.1

> <Gold.Id.Protein>
6NUR|6NUR_protein|mol2

> <Gold.PLP.Fitness>
52.1002

> <Gold.PLP.PLP>
-41.9484

> <Gold.PLP.part.hbond>
-2.0010

> <Gold.PLP.part.metal>
0.0000

> <Gold.PLP.part.buried>
-4.6379

> <Gold.PLP.part.nonpolar>
-34.7211

> <Gold.PLP.part.repulsive>
0.1626

> <Gold.PLP.ligand.clash>
0.0108

> <Gold.PLP.ligand.torsion>
0.9436

> <Gold.PLP.Chemscore.Hbond>
4.0000

> <Gold.PLP.Chemscore.CHOScore>
0.0000

> <Gold.PLP.Chemscore.Metal>
0.0000

> <Gold.Chemscore.Hbonds>
donor molecule, donor type, donor heavy atom, donor atom, acceptor molecule, acceptor atom, score
      L1  H     5    46       P1  8028  2.00
      L1  H    12    45       P1  7948  2.00

> <Gold.PLP.Chemscore.Internal.Correction>
0.0498

> <Gold.Rescore>
     Score         DG    S(hbond)    S(metal)    S(lipo)     H(rot)  DE(clash)    DE(int)     intcor
     17.57     -18.63       1.95        0.00     109.97       2.44       0.02       1.05       ----

> <Gold.Chemscore.Fitness>
17.5701

> <Gold.Chemscore.DG>
-18.6337

> <Gold.Chemscore.ZeroCoef>
-5.4800

> <Gold.Chemscore.Hbond>
1.9528

> <Gold.Chemscore.Metal>
0.0000

> <Gold.Chemscore.Lipo>
109.9717

> <Gold.Chemscore.Internal_Hbond>
0.0000

> <Gold.Chemscore.DEClash>
0.0162

> <Gold.Chemscore.DEInternal>
1.0474

> <Gold.Chemscore.Rot>
2.4357

> <Gold.Chemscore.Internal.Correction>
   9.000000E+99

> <Gold.Chemscore.Hbonds>
donor molecule, donor type, donor heavy atom, donor atom, acceptor molecule, acceptor atom, score
      L1  H     5    46       P1  8028  0.92
      L1  H    12    45       P1  7948  0.78

> <Gold.Chemscore.Hbond.Weighted>
-6.5224

> <Gold.Chemscore.Metal.Weighted>
-0.0000

> <Gold.Chemscore.Lipo.Weighted>
-12.8667

> <Gold.Chemscore.Internal_Hbond.Weighted>
0.0000

> <Gold.Chemscore.DEClash.Weighted>
0.0162

> <Gold.Chemscore.DEInternal.Weighted>
1.0474

> <Gold.Chemscore.Rot.Weighted>
6.2353

> <Gold.Chemscore.Internal.Correction.Weighted>
   9.000000E+99

> <Gold.Protein.RotatedTorsions>
[ 6907 6896 6895 6894 ] final   32.34 input  -60.11 | X-H torsion
[ 7974 7965 7964 7962 ] final  -53.46 input  175.53 | X-H torsion
[ 8008 7997 7996 7995 ] final  119.92 input   59.86 | X-H torsion
[ 10167 10162 10161 10158 ] final -108.89 input  -65.29 | X-H torsion
[ 10718 10713 10712 10709 ] final  132.31 input   66.30 | X-H torsion
[ 10763 10752 10751 10750 ] final   45.84 input  -60.55 | X-H torsion
[ 11005 11000 10999 10996 ] final -106.92 input  -57.11 | X-H torsion

> <Gold.Protein.ActiveResidues>
 VAL166  LYS551  ARG553  GLY616  TRP617  ASP618  TYR619  PRO620  LYS621  CYS622 
 ASP623  PHE694  ASN695  SER759  ASP760  ASP761  ALA762  ILE779  LEU786  VAL792 
 PHE793  MET794  SER795  GLU796  ALA797  LYS798  CYS799  TRP800  GLU811  SER814 

> <Gold.Protein.RotatedAtoms>
  152.0730  134.9521  160.0574 H   0  0  0  0  0  0  0  0  0  0  0  0  # atno 6907 bound_to 6896
  152.0839  133.4162  159.4522 H   0  0  0  0  0  0  0  0  0  0  0  0  # atno 6908 bound_to 6896
  150.6836  134.2869  159.4694 H   0  0  0  0  0  0  0  0  0  0  0  0  # atno 6909 bound_to 6896
  145.8965  140.8028  142.9765 H   0  0  0  0  0  0  0  0  0  0  0  0  # atno 7974 bound_to 7965
  156.2619  140.2842  156.1068 H   0  0  0  0  0  0  0  0  0  0  0  0  # atno 8008 bound_to 7997
  155.1300  140.0393  157.2790 H   0  0  0  0  0  0  0  0  0  0  0  0  # atno 8009 bound_to 7997
  154.6607  140.2565  155.7119 H   0  0  0  0  0  0  0  0  0  0  0  0  # atno 8010 bound_to 7997
  140.1612  143.4118  152.1424 H   0  0  0  0  0  0  0  0  0  0  0  0  # atno 10167 bound_to 10162
  157.4883  131.1089  150.9590 H   0  0  0  0  0  0  0  0  0  0  0  0  # atno 10718 bound_to 10713
  152.9819  135.6027  154.3501 H   0  0  0  0  0  0  0  0  0  0  0  0  # atno 10763 bound_to 10752
  154.3191  135.2770  155.2530 H   0  0  0  0  0  0  0  0  0  0  0  0  # atno 10764 bound_to 10752
  154.4704  135.5943  153.6374 H   0  0  0  0  0  0  0  0  0  0  0  0  # atno 10765 bound_to 10752
  141.0980  133.8935  157.1913 H   0  0  0  0  0  0  0  0  0  0  0  0  # atno 11005 bound_to 11000
  144.6733  140.1611  143.7422 LP  0  0  0  0  0  0  0  0  0  0  0  0  # atno 17320 bound_to 7965
  145.8844  139.2340  143.1586 LP  0  0  0  0  0  0  0  0  0  0  0  0  # atno 17321 bound_to 7965
  139.5380  144.7229  151.4828 LP  0  0  0  0  0  0  0  0  0  0  0  0  # atno 17342 bound_to 10162
  140.6641  143.8435  150.6922 LP  0  0  0  0  0  0  0  0  0  0  0  0  # atno 17343 bound_to 10162
  157.0300  130.5708  149.5342 LP  0  0  0  0  0  0  0  0  0  0  0  0  # atno 17370 bound_to 10713
  156.0159  130.5253  150.8133 LP  0  0  0  0  0  0  0  0  0  0  0  0  # atno 17371 bound_to 10713
  139.9823  135.0094  156.9779 LP  0  0  0  0  0  0  0  0  0  0  0  0  # atno 17394 bound_to 11000
  140.5091  134.1020  155.7266 LP  0  0  0  0  0  0  0  0  0  0  0  0  # atno 17395 bound_to 11000

$$$$
