AV-unprocessed.smi:652|AV-procd|sdf|3201|dock3
  -GOLD-   22720 0133D 1   1.00000     0.00000
 Structure written by MMmdl.
 49 50  0  0  0  0  0  0  0  0  3 V2000
  147.1580  134.6313  162.2567 C   0  0  0  0  0  0  0  0  0  0  0  0
  147.7941  135.9981  161.9702 C   0  0  0  0  0  0  0  0  0  0  0  0
  147.0989  137.1213  162.7562 C   0  0  0  0  0  0  0  0  0  0  0  0
  147.7418  136.2663  160.5355 N   0  0  0  0  0  0  0  0  0  0  0  0
  148.7285  136.8155  159.8100 C   0  0  0  0  0  0  0  0  0  0  0  0
  149.8068  137.1648  160.2912 O   0  0  0  0  0  0  0  0  0  0  0  0
  148.4391  137.0029  158.3169 C   0  0  0  0  0  0  0  0  0  0  0  0
  149.6993  137.3240  157.4856 C   0  0  0  0  0  0  0  0  0  0  0  0
  149.5290  138.5243  156.6287 N   0  3  2  0  0  0  0  0  0  0  0  0
  149.6576  138.2052  155.1872 C   0  0  0  0  0  0  0  0  0  0  0  0
  149.4329  139.4634  154.3340 C   0  0  0  0  0  0  0  0  0  0  0  0
  150.3532  140.4736  154.7278 O   0  0  0  0  0  0  0  0  0  0  0  0
  150.1784  140.8690  156.0836 C   0  0  2  0  0  0  0  0  0  0  0  0
  151.1559  142.0243  156.3543 C   0  0  0  0  0  0  0  0  0  0  0  0
  150.4921  143.1818  156.9363 N   0  0  0  0  0  0  0  0  0  0  0  0
  151.0227  143.8191  158.0657 C   0  0  0  0  0  0  0  0  0  0  0  0
  152.2086  143.4146  158.7219 C   0  0  0  0  0  0  0  0  0  0  0  0
  152.6298  144.1444  159.8464 C   0  0  0  0  0  0  0  0  0  0  0  0
  151.8404  145.2365  160.2477 C   0  0  0  0  0  0  0  0  0  0  0  0
  150.7094  145.6072  159.6069 N   0  0  0  0  0  0  0  0  0  0  0  0
  150.3325  144.8889  158.5344 N   0  3  0  0  0  0  0  0  0  0  0  0
  150.4311  139.6462  156.9919 C   0  0  0  0  0  0  0  0  0  0  0  0
  147.2121  134.3895  163.3185 H   0  0  0  0  0  0  0  0  0  0  0  0
  147.6698  133.8368  161.7128 H   0  0  0  0  0  0  0  0  0  0  0  0
  146.1074  134.6123  161.9652 H   0  0  0  0  0  0  0  0  0  0  0  0
  148.8388  135.9498  162.2830 H   0  0  0  0  0  0  0  0  0  0  0  0
  147.1328  136.9263  163.8284 H   0  0  0  0  0  0  0  0  0  0  0  0
  146.0513  137.2179  162.4694 H   0  0  0  0  0  0  0  0  0  0  0  0
  147.5814  138.0840  162.5849 H   0  0  0  0  0  0  0  0  0  0  0  0
  146.8878  136.0120  160.0603 H   0  0  0  0  0  0  0  0  0  0  0  0
  147.9772  136.0892  157.9397 H   0  0  0  0  0  0  0  0  0  0  0  0
  147.6988  137.7967  158.2184 H   0  0  0  0  0  0  0  0  0  0  0  0
  150.5690  137.4536  158.1322 H   0  0  0  0  0  0  0  0  0  0  0  0
  149.9164  136.4705  156.8405 H   0  0  0  0  0  0  0  0  0  0  0  0
  150.6487  137.7930  154.9906 H   0  0  0  0  0  0  0  0  0  0  0  0
  148.9314  137.4406  154.9091 H   0  0  0  0  0  0  0  0  0  0  0  0
  149.5895  139.2347  153.2797 H   0  0  0  0  0  0  0  0  0  0  0  0
  148.4083  139.8257  154.4326 H   0  0  0  0  0  0  0  0  0  0  0  0
  149.1561  141.2293  156.2155 H   0  0  0  0  0  0  0  0  0  0  0  0
  151.9577  141.6878  157.0128 H   0  0  0  0  0  0  0  0  0  0  0  0
  151.6186  142.3316  155.4155 H   0  0  0  0  0  0  0  0  0  0  0  0
  149.6550  143.5404  156.5002 H   0  0  0  0  0  0  0  0  0  0  0  0
  152.7904  142.5700  158.3839 H   0  0  0  0  0  0  0  0  0  0  0  0
  153.5277  143.8776  160.3840 H   0  0  0  0  0  0  0  0  0  0  0  0
  152.1218  145.8299  161.1053 H   0  0  0  0  0  0  0  0  0  0  0  0
  150.2731  139.9298  158.0318 H   0  0  0  0  0  0  0  0  0  0  0  0
  151.4689  139.3203  156.9038 H   0  0  0  0  0  0  0  0  0  0  0  0
  148.5811  138.8461  156.7642 H   0  0  0  0  0  0  0  0  0  0  0  0
  149.4802  145.1645  158.0461 H   0  0  0  0  0  0  0  0  0  0  0  0
  1  2  1  0  0  0  0
  1 23  1  0  0  0  0
  1 24  1  0  0  0  0
  1 25  1  0  0  0  0
  2  3  1  0  0  0  0
  2  4  1  0  0  0  0
  2 26  1  0  0  0  0
  3 27  1  0  0  0  0
  3 28  1  0  0  0  0
  3 29  1  0  0  0  0
  4  5  1  0  0  0  0
  4 30  1  0  0  0  0
  5  6  2  0  0  0  0
  5  7  1  0  0  0  0
  7  8  1  0  0  0  0
  7 31  1  0  0  0  0
  7 32  1  0  0  0  0
  8  9  1  0  0  0  0
  8 33  1  0  0  0  0
  8 34  1  0  0  0  0
  9 22  1  0  0  0  0
  9 10  1  0  0  0  0
  9 48  1  0  0  0  0
 10 11  1  0  0  0  0
 10 35  1  0  0  0  0
 10 36  1  0  0  0  0
 11 12  1  0  0  0  0
 11 37  1  0  0  0  0
 11 38  1  0  0  0  0
 12 13  1  0  0  0  0
 13 14  1  0  0  0  0
 13 22  1  0  0  0  0
 13 39  1  0  0  0  0
 14 15  1  0  0  0  0
 14 40  1  0  0  0  0
 14 41  1  0  0  0  0
 15 16  1  0  0  0  0
 15 42  1  0  0  0  0
 16 21  1  0  0  0  0
 16 17  2  0  0  0  0
 17 18  1  0  0  0  0
 17 43  1  0  0  0  0
 18 19  2  0  0  0  0
 18 44  1  0  0  0  0
 19 20  1  0  0  0  0
 19 45  1  0  0  0  0
 20 21  2  0  0  0  0
 21 49  1  0  0  0  0
 22 46  1  0  0  0  0
 22 47  1  0  0  0  0
M  CHG  1   9   1
M  CHG  1  21   1
M  END
> <s_m_source_file>
AV-unprocessed.smi

> <i_m_source_file_index>
652

> <i_lp_mmshare_version>
43012

> <i_f3d_flags>
0

> <s_epik_input>
W0NIM11bQ0hdKFtDSDNdKVtOSF1DKD1PKVtDSDJdW0NIMl1OMVtDSDJdW0NIMl1PW0NASF0oW0NIMl0xKVtDSDJdW05IXWMyW2NIXVtjSF1bY0hdbm4y

> <s_epik_cmdline>
J2VwaWtfcHl0aG9uJywgJy1waCcsICc3LjAnLCAnLXRuJywgJzgnLCAnLW1hJywgJzIwMCcsICctbWV0YWxfYmluZGluZycsICctaW1hZScsICc8aW5maWxlLm1hZT4nLCAnLW9tYWUnLCAnPG91dGZpbGUubWFlPic=

> <r_lp_tautomer_probability>
0.966961

> <r_epik_Ionization_Penalty>
2.79885

> <r_epik_Ionization_Penalty_Charging>
2.79884

> <r_epik_Ionization_Penalty_Neutral>
3.2567e-06

> <r_epik_State_Penalty>
2.43203

> <r_epik_Charging_Adjusted_Penalty>
5.23087

> <i_epik_Tot_Q>
2

> <i_epik_Tot_abs_Q>
2

> <r_epik_Metal_State_Penalty>
2.43963

> <b_epik_Metal_Only>
0

> <s_lp_Force_Field>
OPLS_2005

> <r_lp_Energy>
30.0621

> <b_lp_Chiralities_Consistent>
1

> <s_lp_Variant>
AV-unprocessed.smi:652-10

> <Gold.Version>
5.8.1

> <Gold.Id.Protein>
6NUR|6NUR_protein|mol2

> <Gold.PLP.Fitness>
53.7028

> <Gold.PLP.PLP>
-42.2146

> <Gold.PLP.part.hbond>
-5.8771

> <Gold.PLP.part.metal>
0.0000

> <Gold.PLP.part.buried>
-5.8636

> <Gold.PLP.part.nonpolar>
-31.7610

> <Gold.PLP.part.repulsive>
0.6651

> <Gold.PLP.ligand.clash>
0.0000

> <Gold.PLP.ligand.torsion>
2.3286

> <Gold.PLP.Chemscore.Hbond>
5.3520

> <Gold.PLP.Chemscore.CHOScore>
0.0000

> <Gold.PLP.Chemscore.Metal>
0.0000

> <Gold.Chemscore.Hbonds>
donor molecule, donor type, donor heavy atom, donor atom, acceptor molecule, acceptor atom, score
      L1  H    15    42       P1  8028  1.98
      L1  H    21    49       P1  8029  2.00
      P1  H  6931  6943       L1     6  0.29
      P1  H  7989  7998       L1    12  0.99

> <Gold.PLP.Chemscore.Internal.Correction>
0.0893

> <Gold.Rescore>
     Score         DG    S(hbond)    S(metal)    S(lipo)     H(rot)  DE(clash)    DE(int)     intcor
     17.24     -19.53       2.74        0.00      92.89       2.33       0.02       2.27       ----

> <Gold.Chemscore.Fitness>
17.2369

> <Gold.Chemscore.DG>
-19.5289

> <Gold.Chemscore.ZeroCoef>
-5.4800

> <Gold.Chemscore.Hbond>
2.7403

> <Gold.Chemscore.Metal>
0.0000

> <Gold.Chemscore.Lipo>
92.8855

> <Gold.Chemscore.Internal_Hbond>
0.0000

> <Gold.Chemscore.DEClash>
0.0174

> <Gold.Chemscore.DEInternal>
2.2746

> <Gold.Chemscore.Rot>
2.3326

> <Gold.Chemscore.Internal.Correction>
   9.000000E+99

> <Gold.Chemscore.Hbonds>
donor molecule, donor type, donor heavy atom, donor atom, acceptor molecule, acceptor atom, score
      L1  H    15    42       P1  8028  0.93
      L1  H    21    49       P1  8029  0.25
      P1  H  6931  6943       L1     6  0.06
      P1  H  7989  7998       L1    12  0.86

> <Gold.Chemscore.Hbond.Weighted>
-9.1526

> <Gold.Chemscore.Metal.Weighted>
-0.0000

> <Gold.Chemscore.Lipo.Weighted>
-10.8676

> <Gold.Chemscore.Internal_Hbond.Weighted>
0.0000

> <Gold.Chemscore.DEClash.Weighted>
0.0174

> <Gold.Chemscore.DEInternal.Weighted>
2.2746

> <Gold.Chemscore.Rot.Weighted>
5.9714

> <Gold.Chemscore.Internal.Correction.Weighted>
   9.000000E+99

> <Gold.Protein.RotatedTorsions>
[ 6907 6896 6895 6894 ] final  -82.89 input  -60.11 | X-H torsion
[ 7974 7965 7964 7962 ] final   50.02 input  175.53 | X-H torsion
[ 8008 7997 7996 7995 ] final  143.09 input   59.86 | X-H torsion
[ 10167 10162 10161 10158 ] final   15.74 input  -65.29 | X-H torsion
[ 10718 10713 10712 10709 ] final   76.03 input   66.30 | X-H torsion
[ 10763 10752 10751 10750 ] final -169.72 input  -60.55 | X-H torsion
[ 11005 11000 10999 10996 ] final  153.78 input  -57.11 | X-H torsion

> <Gold.Protein.ActiveResidues>
 VAL166  LYS551  ARG553  GLY616  TRP617  ASP618  TYR619  PRO620  LYS621  CYS622 
 ASP623  PHE694  ASN695  SER759  ASP760  ASP761  ALA762  ILE779  LEU786  VAL792 
 PHE793  MET794  SER795  GLU796  ALA797  LYS798  CYS799  TRP800  GLU811  SER814 

> <Gold.Protein.RotatedAtoms>
  150.6892  134.3595  159.4944 H   0  0  0  0  0  0  0  0  0  0  0  0  # atno 6907 bound_to 6896
  152.1426  134.9048  160.0562 H   0  0  0  0  0  0  0  0  0  0  0  0  # atno 6908 bound_to 6896
  152.0176  133.3851  159.4282 H   0  0  0  0  0  0  0  0  0  0  0  0  # atno 6909 bound_to 6896
  146.0053  139.4483  142.9990 H   0  0  0  0  0  0  0  0  0  0  0  0  # atno 7974 bound_to 7965
  156.2937  140.2271  156.4834 H   0  0  0  0  0  0  0  0  0  0  0  0  # atno 8008 bound_to 7997
  154.7833  140.0459  157.1165 H   0  0  0  0  0  0  0  0  0  0  0  0  # atno 8009 bound_to 7997
  154.9732  140.3069  155.4982 H   0  0  0  0  0  0  0  0  0  0  0  0  # atno 8010 bound_to 7997
  140.5846  143.8914  150.6819 H   0  0  0  0  0  0  0  0  0  0  0  0  # atno 10167 bound_to 10162
  157.6657  130.9755  150.1438 H   0  0  0  0  0  0  0  0  0  0  0  0  # atno 10718 bound_to 10713
  154.6493  135.2909  155.0007 H   0  0  0  0  0  0  0  0  0  0  0  0  # atno 10763 bound_to 10752
  154.1106  135.6563  153.4888 H   0  0  0  0  0  0  0  0  0  0  0  0  # atno 10764 bound_to 10752
  153.0367  135.5264  154.7393 H   0  0  0  0  0  0  0  0  0  0  0  0  # atno 10765 bound_to 10752
  140.1429  134.8727  157.2354 H   0  0  0  0  0  0  0  0  0  0  0  0  # atno 11005 bound_to 11000
  145.7426  141.0002  143.1293 LP  0  0  0  0  0  0  0  0  0  0  0  0  # atno 17320 bound_to 7965
  144.6933  139.9117  143.7464 LP  0  0  0  0  0  0  0  0  0  0  0  0  # atno 17321 bound_to 7965
  140.2422  143.3655  152.1477 LP  0  0  0  0  0  0  0  0  0  0  0  0  # atno 17342 bound_to 10162
  139.5190  144.7013  151.5484 LP  0  0  0  0  0  0  0  0  0  0  0  0  # atno 17343 bound_to 10162
  156.2254  130.3677  149.8506 LP  0  0  0  0  0  0  0  0  0  0  0  0  # atno 17370 bound_to 10713
  156.6348  130.8680  151.3502 LP  0  0  0  0  0  0  0  0  0  0  0  0  # atno 17371 bound_to 10713
  140.2700  134.3471  155.7377 LP  0  0  0  0  0  0  0  0  0  0  0  0  # atno 17394 bound_to 11000
  141.2188  133.7418  156.9208 LP  0  0  0  0  0  0  0  0  0  0  0  0  # atno 17395 bound_to 11000

$$$$
