AV-unprocessed.smi:153|AV-procd|sdf|1255|dock6
  -GOLD-   2262018493D 1   1.00000     0.00000
 Structure written by MMmdl.
 60 63  0  0  0  0  0  0  0  0  2 V2000
  151.2359  138.5790  156.8118 C   0  0  0  0  0  0  0  0  0  0  0  0
  150.4086  139.8556  157.0351 C   0  0  1  0  0  0  0  0  0  0  0  0
  151.0844  140.6541  158.0043 O   0  0  0  0  0  0  0  0  0  0  0  0
  150.8952  142.0230  157.6928 C   0  0  0  0  0  0  0  0  0  0  0  0
  150.9769  142.0261  156.1757 C   0  0  0  0  0  0  0  0  0  0  0  0
  150.1949  140.7689  155.7956 C   0  0  1  0  0  0  0  0  0  0  0  0
  150.7649  140.2300  154.6151 O   0  0  0  0  0  0  0  0  0  0  0  0
  148.6834  141.0187  155.5418 C   0  0  0  0  0  0  0  0  0  0  0  0
  147.9579  139.8607  155.0392 N   0  0  0  0  0  0  0  0  0  0  0  0
  148.0212  139.3434  153.7667 C   0  0  0  0  0  0  0  0  0  0  0  0
  147.2838  138.2881  153.5608 N   0  0  0  0  0  0  0  0  0  0  0  0
  146.6388  138.0677  154.7739 C   0  0  0  0  0  0  0  0  0  0  0  0
  145.7102  137.0943  155.2585 C   0  0  0  0  0  0  0  0  0  0  0  0
  145.2056  136.0559  154.5329 N   0  0  0  0  0  0  0  0  0  0  0  0
  143.8681  135.5513  154.8201 C   0  0  0  0  0  0  0  0  0  0  0  0
  145.7905  135.7482  153.2256 C   0  0  0  0  0  0  0  0  0  0  0  0
  144.8046  135.9891  152.0638 C   0  0  1  0  0  0  0  0  0  0  0  0
  144.4324  137.3537  152.0691 O   0  0  0  0  0  0  0  0  0  0  0  0
  145.4579  135.6926  150.6989 C   0  0  0  0  0  0  0  0  0  0  0  0
  145.3208  134.2703  150.2921 N   0  3  0  0  0  0  0  0  0  0  0  0
  146.0333  133.3480  151.2082 C   0  0  0  0  0  0  0  0  0  0  0  0
  145.9195  131.8980  150.7081 C   0  0  0  0  0  0  0  0  0  0  0  0
  144.5480  131.5430  150.5840 O   0  0  0  0  0  0  0  0  0  0  0  0
  143.8693  132.3651  149.6430 C   0  0  0  0  0  0  0  0  0  0  0  0
  143.9152  133.8309  150.1071 C   0  0  0  0  0  0  0  0  0  0  0  0
  145.3106  137.2201  156.5523 N   0  0  0  0  0  0  0  0  0  0  0  0
  145.7696  138.2115  157.3195 C   0  0  0  0  0  0  0  0  0  0  0  0
  146.6338  139.1749  157.0040 N   0  0  0  0  0  0  0  0  0  0  0  0
  147.0504  139.0605  155.7117 C   0  0  0  0  0  0  0  0  0  0  0  0
  150.7547  137.9165  156.0919 H   0  0  0  0  0  0  0  0  0  0  0  0
  151.3500  138.0244  157.7434 H   0  0  0  0  0  0  0  0  0  0  0  0
  152.2353  138.8128  156.4433 H   0  0  0  0  0  0  0  0  0  0  0  0
  149.4443  139.5727  157.4603 H   0  0  0  0  0  0  0  0  0  0  0  0
  149.9136  142.3520  158.0368 H   0  0  0  0  0  0  0  0  0  0  0  0
  151.6557  142.6503  158.1580 H   0  0  0  0  0  0  0  0  0  0  0  0
  150.6083  142.9496  155.7322 H   0  0  0  0  0  0  0  0  0  0  0  0
  152.0248  141.9261  155.8868 H   0  0  0  0  0  0  0  0  0  0  0  0
  150.1959  139.5493  154.2899 H   0  0  0  0  0  0  0  0  0  0  0  0
  148.1990  141.3521  156.4607 H   0  0  0  0  0  0  0  0  0  0  0  0
  148.5535  141.8287  154.8228 H   0  0  0  0  0  0  0  0  0  0  0  0
  148.6474  139.7671  152.9947 H   0  0  0  0  0  0  0  0  0  0  0  0
  143.7407  135.3715  155.8880 H   0  0  0  0  0  0  0  0  0  0  0  0
  143.6925  134.6047  154.3088 H   0  0  0  0  0  0  0  0  0  0  0  0
  143.1074  136.2576  154.4865 H   0  0  0  0  0  0  0  0  0  0  0  0
  146.7345  136.2688  153.0600 H   0  0  0  0  0  0  0  0  0  0  0  0
  146.0572  134.6911  153.2460 H   0  0  0  0  0  0  0  0  0  0  0  0
  143.9178  135.3713  152.2011 H   0  0  0  0  0  0  0  0  0  0  0  0
  144.5485  137.6998  151.1967 H   0  0  0  0  0  0  0  0  0  0  0  0
  144.9936  136.3331  149.9466 H   0  0  0  0  0  0  0  0  0  0  0  0
  146.5159  135.9596  150.7139 H   0  0  0  0  0  0  0  0  0  0  0  0
  147.0850  133.6291  151.2749 H   0  0  0  0  0  0  0  0  0  0  0  0
  145.6134  133.4319  152.2120 H   0  0  0  0  0  0  0  0  0  0  0  0
  146.4291  131.7734  149.7514 H   0  0  0  0  0  0  0  0  0  0  0  0
  146.3975  131.2187  151.4142 H   0  0  0  0  0  0  0  0  0  0  0  0
  144.3184  132.2552  148.6544 H   0  0  0  0  0  0  0  0  0  0  0  0
  142.8354  132.0292  149.5614 H   0  0  0  0  0  0  0  0  0  0  0  0
  143.3694  133.9405  151.0457 H   0  0  0  0  0  0  0  0  0  0  0  0
  143.4107  134.4540  149.3698 H   0  0  0  0  0  0  0  0  0  0  0  0
  145.3940  138.2330  158.3320 H   0  0  0  0  0  0  0  0  0  0  0  0
  145.7788  134.1885  149.3952 H   0  0  0  0  0  0  0  0  0  0  0  0
  1  2  1  0  0  0  0
  1 30  1  0  0  0  0
  1 31  1  0  0  0  0
  1 32  1  0  0  0  0
  2  6  1  0  0  0  0
  2  3  1  0  0  0  0
  2 33  1  0  0  0  0
  3  4  1  0  0  0  0
  4  5  1  0  0  0  0
  4 34  1  0  0  0  0
  4 35  1  0  0  0  0
  5  6  1  0  0  0  0
  5 36  1  0  0  0  0
  5 37  1  0  0  0  0
  6  7  1  0  0  0  0
  6  8  1  0  0  0  0
  7 38  1  0  0  0  0
  8  9  1  0  0  0  0
  8 39  1  0  0  0  0
  8 40  1  0  0  0  0
  9 29  1  0  0  0  0
  9 10  1  0  0  0  0
 10 11  2  0  0  0  0
 10 41  1  0  0  0  0
 11 12  1  0  0  0  0
 12 29  2  0  0  0  0
 12 13  1  0  0  0  0
 13 14  1  0  0  0  0
 13 26  2  0  0  0  0
 14 15  1  0  0  0  0
 14 16  1  0  0  0  0
 15 42  1  0  0  0  0
 15 43  1  0  0  0  0
 15 44  1  0  0  0  0
 16 17  1  0  0  0  0
 16 45  1  0  0  0  0
 16 46  1  0  0  0  0
 17 18  1  0  0  0  0
 17 19  1  0  0  0  0
 17 47  1  0  0  0  0
 18 48  1  0  0  0  0
 19 20  1  0  0  0  0
 19 49  1  0  0  0  0
 19 50  1  0  0  0  0
 20 25  1  0  0  0  0
 20 21  1  0  0  0  0
 20 60  1  0  0  0  0
 21 22  1  0  0  0  0
 21 51  1  0  0  0  0
 21 52  1  0  0  0  0
 22 23  1  0  0  0  0
 22 53  1  0  0  0  0
 22 54  1  0  0  0  0
 23 24  1  0  0  0  0
 24 25  1  0  0  0  0
 24 55  1  0  0  0  0
 24 56  1  0  0  0  0
 25 57  1  0  0  0  0
 25 58  1  0  0  0  0
 26 27  1  0  0  0  0
 27 28  2  0  0  0  0
 27 59  1  0  0  0  0
 28 29  1  0  0  0  0
M  CHG  1  20   1
M  END
> <s_m_source_file>
AV-unprocessed.smi

> <i_m_source_file_index>
153

> <i_lp_mmshare_version>
43012

> <i_f3d_flags>
0

> <s_epik_input>
W0NIMl0xW0NIMl1PW0NAQEhdKFtDSDNdKVtDQEBdMShbT0hdKVtDSDJdbihbY0hdbjIpYyhjMjMpbltjSF1uYzNOKFtDSDNdKVtDSDJdW0NASF0oW09IXSlbQ0gyXU40W0NIMl1bQ0gyXU9bQ0gyXVtDSDJdNA==

> <s_epik_cmdline>
J2VwaWtfcHl0aG9uJywgJy1waCcsICc3LjAnLCAnLXRuJywgJzgnLCAnLW1hJywgJzIwMCcsICctbWV0YWxfYmluZGluZycsICctaW1hZScsICc8aW5maWxlLm1hZT4nLCAnLW9tYWUnLCAnPG91dGZpbGUubWFlPic=

> <r_lp_tautomer_probability>
1

> <r_epik_Ionization_Penalty>
0.403509

> <r_epik_Ionization_Penalty_Charging>
0.40072

> <r_epik_Ionization_Penalty_Neutral>
0.00278876

> <r_epik_State_Penalty>
0.400058

> <r_epik_Charging_Adjusted_Penalty>
0.800778

> <i_epik_Tot_Q>
1

> <i_epik_Tot_abs_Q>
1

> <r_epik_Metal_State_Penalty>
0.400321

> <b_epik_Metal_Only>
0

> <s_lp_Force_Field>
OPLS_2005

> <r_lp_Energy>
46.896

> <b_lp_Chiralities_Consistent>
1

> <s_lp_Variant>
AV-unprocessed.smi:153-6

> <Gold.Version>
5.8.1

> <Gold.Id.Protein>
6NUR|6NUR_protein|mol2

> <Gold.PLP.Fitness>
44.0485

> <Gold.PLP.PLP>
-33.3016

> <Gold.PLP.part.hbond>
-3.5030

> <Gold.PLP.part.metal>
0.0000

> <Gold.PLP.part.buried>
-5.9662

> <Gold.PLP.part.nonpolar>
-24.1993

> <Gold.PLP.part.repulsive>
0.3984

> <Gold.PLP.ligand.clash>
0.0000

> <Gold.PLP.ligand.torsion>
0.8628

> <Gold.PLP.Chemscore.Hbond>
3.0000

> <Gold.PLP.Chemscore.CHOScore>
1.0000

> <Gold.PLP.Chemscore.Metal>
0.0000

> <Gold.Chemscore.Hbonds>
donor molecule, donor type, donor heavy atom, donor atom, acceptor molecule, acceptor atom, score
      L1  H    18    48       P1 10171  0.98
      L1  H    20    60       P1  7921  1.00
      P1  H  7989  7998       L1     7  1.00
      L1  C    10    41       P1  7957  1.00

> <Gold.PLP.Chemscore.Internal.Correction>
0.4726

> <Gold.Rescore>
     Score         DG    S(hbond)    S(metal)    S(lipo)     H(rot)  DE(clash)    DE(int)     intcor
     12.50     -16.33       2.89        0.00      89.34       3.62       0.58       3.25       ----

> <Gold.Chemscore.Fitness>
12.5002

> <Gold.Chemscore.DG>
-16.3321

> <Gold.Chemscore.ZeroCoef>
-5.4800

> <Gold.Chemscore.Hbond>
2.8927

> <Gold.Chemscore.Metal>
0.0000

> <Gold.Chemscore.Lipo>
89.3426

> <Gold.Chemscore.Internal_Hbond>
0.0000

> <Gold.Chemscore.DEClash>
0.5815

> <Gold.Chemscore.DEInternal>
3.2504

> <Gold.Chemscore.Rot>
3.6182

> <Gold.Chemscore.Internal.Correction>
   9.000000E+99

> <Gold.Chemscore.Hbonds>
donor molecule, donor type, donor heavy atom, donor atom, acceptor molecule, acceptor atom, score
      L1  H    18    48       P1 10171  0.92
      L1  H    20    60       P1  7921  0.53
      P1  H  7989  7998       L1     7  0.81

> <Gold.Chemscore.Hbond.Weighted>
-9.6615

> <Gold.Chemscore.Metal.Weighted>
-0.0000

> <Gold.Chemscore.Lipo.Weighted>
-10.4531

> <Gold.Chemscore.Internal_Hbond.Weighted>
0.0000

> <Gold.Chemscore.DEClash.Weighted>
0.5815

> <Gold.Chemscore.DEInternal.Weighted>
3.2504

> <Gold.Chemscore.Rot.Weighted>
9.2625

> <Gold.Chemscore.Internal.Correction.Weighted>
   9.000000E+99

> <Gold.Protein.RotatedTorsions>
[ 6907 6896 6895 6894 ] final   61.74 input  -60.11 | X-H torsion
[ 7974 7965 7964 7962 ] final  138.01 input  175.53 | X-H torsion
[ 8008 7997 7996 7995 ] final  -59.27 input   59.86 | X-H torsion
[ 10167 10162 10161 10158 ] final  111.05 input  -65.29 | X-H torsion
[ 10718 10713 10712 10709 ] final   73.18 input   66.30 | X-H torsion
[ 10763 10752 10751 10750 ] final  145.83 input  -60.55 | X-H torsion
[ 11005 11000 10999 10996 ] final  -49.41 input  -57.11 | X-H torsion

> <Gold.Protein.ActiveResidues>
 VAL166  LYS551  ARG553  GLY616  TRP617  ASP618  TYR619  PRO620  LYS621  CYS622 
 ASP623  PHE694  ASN695  SER759  ASP760  ASP761  ALA762  ILE779  LEU786  VAL792 
 PHE793  MET794  SER795  GLU796  ALA797  LYS798  CYS799  TRP800  GLU811  SER814 

> <Gold.Protein.RotatedAtoms>
  152.4114  134.6118  160.0027 H   0  0  0  0  0  0  0  0  0  0  0  0  # atno 6907 bound_to 6896
  151.6294  133.3327  159.3113 H   0  0  0  0  0  0  0  0  0  0  0  0  # atno 6908 bound_to 6896
  150.8004  134.7135  159.6662 H   0  0  0  0  0  0  0  0  0  0  0  0  # atno 6909 bound_to 6896
  144.9413  139.4927  143.5570 H   0  0  0  0  0  0  0  0  0  0  0  0  # atno 7974 bound_to 7965
  154.4345  140.1065  156.6088 H   0  0  0  0  0  0  0  0  0  0  0  0  # atno 8008 bound_to 7997
  155.5831  140.3491  155.4527 H   0  0  0  0  0  0  0  0  0  0  0  0  # atno 8009 bound_to 7997
  156.0303  140.1259  157.0254 H   0  0  0  0  0  0  0  0  0  0  0  0  # atno 8010 bound_to 7997
  139.6641  144.7128  151.1810 H   0  0  0  0  0  0  0  0  0  0  0  0  # atno 10167 bound_to 10162
  157.6536  130.9616  150.1033 H   0  0  0  0  0  0  0  0  0  0  0  0  # atno 10718 bound_to 10713
  154.0119  135.2913  155.3391 H   0  0  0  0  0  0  0  0  0  0  0  0  # atno 10763 bound_to 10752
  154.7098  135.5154  153.8652 H   0  0  0  0  0  0  0  0  0  0  0  0  # atno 10764 bound_to 10752
  153.0719  135.6650  154.0350 H   0  0  0  0  0  0  0  0  0  0  0  0  # atno 10765 bound_to 10752
  141.0757  133.6666  156.3582 H   0  0  0  0  0  0  0  0  0  0  0  0  # atno 11005 bound_to 11000
  146.3287  139.8434  142.8886 LP  0  0  0  0  0  0  0  0  0  0  0  0  # atno 17320 bound_to 7965
  145.2987  141.0188  143.3621 LP  0  0  0  0  0  0  0  0  0  0  0  0  # atno 17321 bound_to 7965
  140.7592  143.5947  150.8760 LP  0  0  0  0  0  0  0  0  0  0  0  0  # atno 17342 bound_to 10162
  139.9607  143.6167  152.3003 LP  0  0  0  0  0  0  0  0  0  0  0  0  # atno 17343 bound_to 10162
  156.1949  130.3657  149.8861 LP  0  0  0  0  0  0  0  0  0  0  0  0  # atno 17370 bound_to 10713
  156.6780  130.8847  151.3572 LP  0  0  0  0  0  0  0  0  0  0  0  0  # atno 17371 bound_to 10713
  140.5577  134.5965  157.5425 LP  0  0  0  0  0  0  0  0  0  0  0  0  # atno 17394 bound_to 11000
  139.9570  134.7518  156.0320 LP  0  0  0  0  0  0  0  0  0  0  0  0  # atno 17395 bound_to 11000

$$$$
