AV-unprocessed.smi:3104|AV-procd|sdf|11818|dock3
  -GOLD-   2272017193D 1   1.00000     0.00000
 Structure written by MMmdl.
 37 38  0  0  0  0  0  0  0  0  2 V2000
  151.9153  145.4272  159.4772 C   0  0  0  0  0  0  0  0  0  0  0  0
  151.8282  144.0727  158.8357 C   0  0  0  0  0  0  0  0  0  0  0  0
  152.3287  142.8356  159.3312 C   0  0  0  0  0  0  0  0  0  0  0  0
  152.0845  141.8204  158.5189 N   0  0  0  0  0  0  0  0  0  0  0  0
  151.4187  142.3679  157.4796 N   0  0  0  0  0  0  0  0  0  0  0  0
  150.9911  141.5243  156.3705 C   0  0  1  0  0  0  0  0  0  0  0  0
  151.7117  140.1656  156.4421 C   0  0  0  0  0  0  0  0  0  0  0  0
  149.4460  141.3912  156.3095 C   0  0  1  0  0  0  0  0  0  0  0  0
  148.7526  141.7539  157.6353 C   0  0  0  0  0  0  0  0  0  0  0  0
  148.8971  142.2488  155.2353 N   0  3  0  0  0  0  0  0  0  0  0  0
  147.4790  142.0012  154.9076 C   0  0  0  0  0  0  0  0  0  0  0  0
  147.2337  140.5341  154.6252 C   0  0  0  0  0  0  0  0  0  0  0  0
  148.3206  139.6913  153.9990 C   0  0  0  0  0  0  0  0  0  0  0  0
  147.0825  140.0318  153.2074 C   0  0  0  0  0  0  0  0  0  0  0  0
  151.2538  143.7286  157.6453 C   0  0  0  0  0  0  0  0  0  0  0  0
  152.4260  145.3883  160.4397 H   0  0  0  0  0  0  0  0  0  0  0  0
  150.9269  145.8513  159.6555 H   0  0  0  0  0  0  0  0  0  0  0  0
  152.4616  146.1340  158.8526 H   0  0  0  0  0  0  0  0  0  0  0  0
  152.8599  142.6466  160.2526 H   0  0  0  0  0  0  0  0  0  0  0  0
  151.3180  142.0133  155.4504 H   0  0  0  0  0  0  0  0  0  0  0  0
  151.5281  139.5670  155.5499 H   0  0  0  0  0  0  0  0  0  0  0  0
  151.3864  139.5844  157.3054 H   0  0  0  0  0  0  0  0  0  0  0  0
  152.7912  140.3000  156.5203 H   0  0  0  0  0  0  0  0  0  0  0  0
  149.1965  140.3499  156.0973 H   0  0  0  0  0  0  0  0  0  0  0  0
  149.0393  141.0789  158.4420 H   0  0  0  0  0  0  0  0  0  0  0  0
  147.6681  141.6908  157.5391 H   0  0  0  0  0  0  0  0  0  0  0  0
  149.0002  142.7693  157.9472 H   0  0  0  0  0  0  0  0  0  0  0  0
  148.9872  143.2132  155.5222 H   0  0  0  0  0  0  0  0  0  0  0  0
  146.8373  142.3287  155.7264 H   0  0  0  0  0  0  0  0  0  0  0  0
  147.2067  142.5821  154.0256 H   0  0  0  0  0  0  0  0  0  0  0  0
  146.6395  140.0307  155.3859 H   0  0  0  0  0  0  0  0  0  0  0  0
  149.2484  140.1861  153.7179 H   0  0  0  0  0  0  0  0  0  0  0  0
  148.4266  138.6661  154.3482 H   0  0  0  0  0  0  0  0  0  0  0  0
  146.3639  139.2340  153.0305 H   0  0  0  0  0  0  0  0  0  0  0  0
  147.1870  140.7519  152.3981 H   0  0  0  0  0  0  0  0  0  0  0  0
  150.7459  144.3349  156.9098 H   0  0  0  0  0  0  0  0  0  0  0  0
  149.4528  142.1102  154.4032 H   0  0  0  0  0  0  0  0  0  0  0  0
  1  2  1  0  0  0  0
  1 16  1  0  0  0  0
  1 17  1  0  0  0  0
  1 18  1  0  0  0  0
  2 15  2  0  0  0  0
  2  3  1  0  0  0  0
  3  4  2  0  0  0  0
  3 19  1  0  0  0  0
  4  5  1  0  0  0  0
  5  6  1  0  0  0  0
  5 15  1  0  0  0  0
  6  7  1  0  0  0  0
  6  8  1  0  0  0  0
  6 20  1  0  0  0  0
  7 21  1  0  0  0  0
  7 22  1  0  0  0  0
  7 23  1  0  0  0  0
  8  9  1  0  0  0  0
  8 10  1  0  0  0  0
  8 24  1  0  0  0  0
  9 25  1  0  0  0  0
  9 26  1  0  0  0  0
  9 27  1  0  0  0  0
 10 11  1  0  0  0  0
 10 28  1  0  0  0  0
 10 37  1  0  0  0  0
 11 12  1  0  0  0  0
 11 29  1  0  0  0  0
 11 30  1  0  0  0  0
 12 14  1  0  0  0  0
 12 13  1  0  0  0  0
 12 31  1  0  0  0  0
 13 14  1  0  0  0  0
 13 32  1  0  0  0  0
 13 33  1  0  0  0  0
 14 34  1  0  0  0  0
 14 35  1  0  0  0  0
 15 36  1  0  0  0  0
M  CHG  1  10   1
M  END
> <s_m_source_file>
AV-unprocessed.smi

> <i_m_source_file_index>
3104

> <i_lp_mmshare_version>
43012

> <i_f3d_flags>
0

> <s_epik_input>
W0NIM11jMVtjSF1ubihbY0hdMSlbQ0BIXShbQ0gzXSlbQ0BIXShbQ0gzXSlbTkhdW0NIMl1bQ0hdMltDSDJdW0NIMl0y

> <s_epik_cmdline>
J2VwaWtfcHl0aG9uJywgJy1waCcsICc3LjAnLCAnLXRuJywgJzgnLCAnLW1hJywgJzIwMCcsICctbWV0YWxfYmluZGluZycsICctaW1hZScsICc8aW5maWxlLm1hZT4nLCAnLW9tYWUnLCAnPG91dGZpbGUubWFlPic=

> <r_lp_tautomer_probability>
1

> <r_epik_Ionization_Penalty>
0.00120445

> <r_epik_Ionization_Penalty_Charging>
0.00118273

> <r_epik_Ionization_Penalty_Neutral>
2.17265e-05

> <r_epik_State_Penalty>
-0

> <r_epik_Charging_Adjusted_Penalty>
0.00118273

> <i_epik_Tot_Q>
1

> <i_epik_Tot_abs_Q>
1

> <r_epik_Metal_State_Penalty>
-0

> <b_epik_Metal_Only>
0

> <s_lp_Force_Field>
OPLS_2005

> <r_lp_Energy>
22.3414

> <b_lp_Chiralities_Consistent>
1

> <s_lp_Variant>
AV-unprocessed.smi:3104-4

> <Gold.Version>
5.8.1

> <Gold.Id.Protein>
6NUR|6NUR_protein|mol2

> <Gold.PLP.Fitness>
39.1046

> <Gold.PLP.PLP>
-33.5557

> <Gold.PLP.part.hbond>
-0.9338

> <Gold.PLP.part.metal>
0.0000

> <Gold.PLP.part.buried>
-2.4784

> <Gold.PLP.part.nonpolar>
-30.5374

> <Gold.PLP.part.repulsive>
0.1809

> <Gold.PLP.ligand.clash>
0.0000

> <Gold.PLP.ligand.torsion>
2.0329

> <Gold.PLP.Chemscore.Hbond>
1.9825

> <Gold.PLP.Chemscore.CHOScore>
1.0000

> <Gold.PLP.Chemscore.Metal>
0.0000

> <Gold.Chemscore.Hbonds>
donor molecule, donor type, donor heavy atom, donor atom, acceptor molecule, acceptor atom, score
      L1  H    10    28       P1  8028  1.92
      L1  C    15    36       P1  8028  1.00

> <Gold.PLP.Chemscore.Internal.Correction>
0.6673

> <Gold.Rescore>
     Score         DG    S(hbond)    S(metal)    S(lipo)     H(rot)  DE(clash)    DE(int)     intcor
     14.00     -15.84       0.97        0.00      93.47       1.49       0.09       1.75       ----

> <Gold.Chemscore.Fitness>
13.9999

> <Gold.Chemscore.DG>
-15.8398

> <Gold.Chemscore.ZeroCoef>
-5.4800

> <Gold.Chemscore.Hbond>
0.9713

> <Gold.Chemscore.Metal>
0.0000

> <Gold.Chemscore.Lipo>
93.4708

> <Gold.Chemscore.Internal_Hbond>
0.0000

> <Gold.Chemscore.DEClash>
0.0867

> <Gold.Chemscore.DEInternal>
1.7532

> <Gold.Chemscore.Rot>
1.4923

> <Gold.Chemscore.Internal.Correction>
   9.000000E+99

> <Gold.Chemscore.Hbonds>
donor molecule, donor type, donor heavy atom, donor atom, acceptor molecule, acceptor atom, score
      L1  H    10    28       P1  8028  0.90

> <Gold.Chemscore.Hbond.Weighted>
-3.2440

> <Gold.Chemscore.Metal.Weighted>
-0.0000

> <Gold.Chemscore.Lipo.Weighted>
-10.9361

> <Gold.Chemscore.Internal_Hbond.Weighted>
0.0000

> <Gold.Chemscore.DEClash.Weighted>
0.0867

> <Gold.Chemscore.DEInternal.Weighted>
1.7532

> <Gold.Chemscore.Rot.Weighted>
3.8204

> <Gold.Chemscore.Internal.Correction.Weighted>
   9.000000E+99

> <Gold.Protein.RotatedTorsions>
[ 6907 6896 6895 6894 ] final  -57.88 input  -60.11 | X-H torsion
[ 7974 7965 7964 7962 ] final  100.05 input  175.53 | X-H torsion
[ 8008 7997 7996 7995 ] final  -62.02 input   59.86 | X-H torsion
[ 10167 10162 10161 10158 ] final  162.72 input  -65.29 | X-H torsion
[ 10718 10713 10712 10709 ] final  148.03 input   66.30 | X-H torsion
[ 10763 10752 10751 10750 ] final  179.75 input  -60.55 | X-H torsion
[ 11005 11000 10999 10996 ] final -159.34 input  -57.11 | X-H torsion

> <Gold.Protein.ActiveResidues>
 VAL166  LYS551  ARG553  GLY616  TRP617  ASP618  TYR619  PRO620  LYS621  CYS622 
 ASP623  PHE694  ASN695  SER759  ASP760  ASP761  ALA762  ILE779  LEU786  VAL792 
 PHE793  MET794  SER795  GLU796  ALA797  LYS798  CYS799  TRP800  GLU811  SER814 

> <Gold.Protein.RotatedAtoms>
  150.8051  134.7170  159.6636 H   0  0  0  0  0  0  0  0  0  0  0  0  # atno 6907 bound_to 6896
  152.4170  134.6021  160.0012 H   0  0  0  0  0  0  0  0  0  0  0  0  # atno 6908 bound_to 6896
  151.6247  133.3299  159.3132 H   0  0  0  0  0  0  0  0  0  0  0  0  # atno 6909 bound_to 6896
  145.3908  139.2363  143.3353 H   0  0  0  0  0  0  0  0  0  0  0  0  # atno 7974 bound_to 7965
  154.4478  140.1005  156.6522 H   0  0  0  0  0  0  0  0  0  0  0  0  # atno 8008 bound_to 7997
  155.5385  140.3483  155.4423 H   0  0  0  0  0  0  0  0  0  0  0  0  # atno 8009 bound_to 7997
  156.0614  140.1327  156.9926 H   0  0  0  0  0  0  0  0  0  0  0  0  # atno 8010 bound_to 7997
  139.4864  144.4409  151.8953 H   0  0  0  0  0  0  0  0  0  0  0  0  # atno 10167 bound_to 10162
  157.3136  131.0892  151.1296 H   0  0  0  0  0  0  0  0  0  0  0  0  # atno 10718 bound_to 10713
  154.5246  135.2796  155.1233 H   0  0  0  0  0  0  0  0  0  0  0  0  # atno 10763 bound_to 10752
  154.2777  135.6291  153.5338 H   0  0  0  0  0  0  0  0  0  0  0  0  # atno 10764 bound_to 10752
  152.9944  135.5643  154.5744 H   0  0  0  0  0  0  0  0  0  0  0  0  # atno 10765 bound_to 10752
  140.6436  134.4525  157.5234 H   0  0  0  0  0  0  0  0  0  0  0  0  # atno 11005 bound_to 11000
  146.2798  140.4590  142.8781 LP  0  0  0  0  0  0  0  0  0  0  0  0  # atno 17320 bound_to 7965
  144.8442  140.6903  143.6210 LP  0  0  0  0  0  0  0  0  0  0  0  0  # atno 17321 bound_to 7965
  140.3860  144.2675  150.5904 LP  0  0  0  0  0  0  0  0  0  0  0  0  # atno 17342 bound_to 10162
  140.5189  143.2271  151.8419 LP  0  0  0  0  0  0  0  0  0  0  0  0  # atno 17343 bound_to 10162
  157.2609  130.6658  149.5974 LP  0  0  0  0  0  0  0  0  0  0  0  0  # atno 17370 bound_to 10713
  155.9680  130.4509  150.5715 LP  0  0  0  0  0  0  0  0  0  0  0  0  # atno 17371 bound_to 10713
  139.9071  134.8425  156.1666 LP  0  0  0  0  0  0  0  0  0  0  0  0  # atno 17394 bound_to 11000
  141.0588  133.6852  156.1913 LP  0  0  0  0  0  0  0  0  0  0  0  0  # atno 17395 bound_to 11000

$$$$
