AV-unprocessed.smi:94|AV-procd|sdf|854|dock10
  -GOLD-   2262017303D 1   1.00000     0.00000
 Structure written by MMmdl.
 53 55  0  0  0  0  0  0  0  0  1 V2000
  153.9759  142.3798  163.5718 C   0  0  0  0  0  0  0  0  0  0  0  0
  154.1220  141.7150  162.3256 O   0  0  0  0  0  0  0  0  0  0  0  0
  153.5148  142.2605  161.2121 C   0  0  0  0  0  0  0  0  0  0  0  0
  152.8693  143.5237  161.2214 C   0  0  0  0  0  0  0  0  0  0  0  0
  152.2528  144.0257  160.0609 C   0  0  0  0  0  0  0  0  0  0  0  0
  152.2646  143.2724  158.8732 C   0  0  0  0  0  0  0  0  0  0  0  0
  151.5941  143.8033  157.6229 C   0  0  0  0  0  0  0  0  0  0  0  0
  152.9063  142.0200  158.8513 C   0  0  0  0  0  0  0  0  0  0  0  0
  153.5409  141.5099  160.0087 C   0  0  0  0  0  0  0  0  0  0  0  0
  154.2222  140.1406  159.9717 C   0  0  1  0  0  0  0  0  0  0  0  0
  153.6444  139.2141  161.0545 C   0  0  0  0  0  0  0  0  0  0  0  0
  154.1276  139.5053  158.6573 N   0  0  0  0  0  0  0  0  0  0  0  0
  153.0043  139.0428  158.0870 C   0  0  0  0  0  0  0  0  0  0  0  0
  151.8958  139.1174  158.6192 O   0  0  0  0  0  0  0  0  0  0  0  0
  153.1774  138.3863  156.7089 C   0  0  0  0  0  0  0  0  0  0  0  0
  151.9057  138.2195  155.9718 N   0  0  0  0  0  0  0  0  0  0  0  0
  151.3386  136.9234  155.8893 C   0  0  0  0  0  0  0  0  0  0  0  0
  151.8809  135.9540  156.4222 O   0  0  0  0  0  0  0  0  0  0  0  0
  150.0946  136.8264  155.1340 C   0  0  0  0  0  0  0  0  0  0  0  0
  149.4890  135.6345  154.9985 F   0  0  0  0  0  0  0  0  0  0  0  0
  149.5421  137.9164  154.5636 C   0  0  0  0  0  0  0  0  0  0  0  0
  150.1051  139.1758  154.6547 N   0  0  0  0  0  0  0  0  0  0  0  0
  149.4618  140.3670  153.9820 C   0  0  1  0  0  0  0  0  0  0  0  0
  148.2815  139.9131  153.1147 C   0  0  0  0  0  0  0  0  0  0  0  0
  147.1016  140.1650  154.0293 C   0  0  0  0  0  0  0  0  0  0  0  0
  147.5614  141.4041  154.7874 C   0  0  0  0  0  0  0  0  0  0  0  0
  148.9635  141.2276  154.9659 O   0  0  0  0  0  0  0  0  0  0  0  0
  151.3192  139.3503  155.3542 C   0  0  0  0  0  0  0  0  0  0  0  0
  151.8588  140.4572  155.4145 O   0  0  0  0  0  0  0  0  0  0  0  0
  154.5090  141.8215  164.3411 H   0  0  0  0  0  0  0  0  0  0  0  0
  152.9293  142.4378  163.8737 H   0  0  0  0  0  0  0  0  0  0  0  0
  154.4011  143.3839  163.5405 H   0  0  0  0  0  0  0  0  0  0  0  0
  152.8289  144.1319  162.1120 H   0  0  0  0  0  0  0  0  0  0  0  0
  151.7659  144.9898  160.0891 H   0  0  0  0  0  0  0  0  0  0  0  0
  151.0820  143.0006  157.0915 H   0  0  0  0  0  0  0  0  0  0  0  0
  152.3367  144.2394  156.9546 H   0  0  0  0  0  0  0  0  0  0  0  0
  150.8577  144.5698  157.8660 H   0  0  0  0  0  0  0  0  0  0  0  0
  152.9002  141.4487  157.9347 H   0  0  0  0  0  0  0  0  0  0  0  0
  155.2831  140.2910  160.1778 H   0  0  0  0  0  0  0  0  0  0  0  0
  153.7592  139.6529  162.0462 H   0  0  0  0  0  0  0  0  0  0  0  0
  154.1500  138.2483  161.0654 H   0  0  0  0  0  0  0  0  0  0  0  0
  152.5815  139.0316  160.8931 H   0  0  0  0  0  0  0  0  0  0  0  0
  154.9919  139.3977  158.1465 H   0  0  0  0  0  0  0  0  0  0  0  0
  153.8864  138.9728  156.1217 H   0  0  0  0  0  0  0  0  0  0  0  0
  153.6818  137.4294  156.8505 H   0  0  0  0  0  0  0  0  0  0  0  0
  148.6236  137.7863  154.0108 H   0  0  0  0  0  0  0  0  0  0  0  0
  150.2496  140.8744  153.4232 H   0  0  0  0  0  0  0  0  0  0  0  0
  148.2278  140.5576  152.2365 H   0  0  0  0  0  0  0  0  0  0  0  0
  148.3793  138.8769  152.7878 H   0  0  0  0  0  0  0  0  0  0  0  0
  146.1660  140.3175  153.4908 H   0  0  0  0  0  0  0  0  0  0  0  0
  146.9689  139.3275  154.7154 H   0  0  0  0  0  0  0  0  0  0  0  0
  147.3934  142.3001  154.1884 H   0  0  0  0  0  0  0  0  0  0  0  0
  147.0485  141.5300  155.7410 H   0  0  0  0  0  0  0  0  0  0  0  0
  1  2  1  0  0  0  0
  1 30  1  0  0  0  0
  1 31  1  0  0  0  0
  1 32  1  0  0  0  0
  2  3  1  0  0  0  0
  3  9  1  0  0  0  0
  3  4  2  0  0  0  0
  4  5  1  0  0  0  0
  4 33  1  0  0  0  0
  5  6  2  0  0  0  0
  5 34  1  0  0  0  0
  6  7  1  0  0  0  0
  6  8  1  0  0  0  0
  7 35  1  0  0  0  0
  7 36  1  0  0  0  0
  7 37  1  0  0  0  0
  8  9  2  0  0  0  0
  8 38  1  0  0  0  0
  9 10  1  0  0  0  0
 10 11  1  0  0  0  0
 10 12  1  0  0  0  0
 10 39  1  0  0  0  0
 11 40  1  0  0  0  0
 11 41  1  0  0  0  0
 11 42  1  0  0  0  0
 12 13  1  0  0  0  0
 12 43  1  0  0  0  0
 13 14  2  0  0  0  0
 13 15  1  0  0  0  0
 15 16  1  0  0  0  0
 15 44  1  0  0  0  0
 15 45  1  0  0  0  0
 16 28  1  0  0  0  0
 16 17  1  0  0  0  0
 17 18  2  0  0  0  0
 17 19  1  0  0  0  0
 19 20  1  0  0  0  0
 19 21  2  0  0  0  0
 21 22  1  0  0  0  0
 21 46  1  0  0  0  0
 22 23  1  0  0  0  0
 22 28  1  0  0  0  0
 23 27  1  0  0  0  0
 23 24  1  0  0  0  0
 23 47  1  0  0  0  0
 24 25  1  0  0  0  0
 24 48  1  0  0  0  0
 24 49  1  0  0  0  0
 25 26  1  0  0  0  0
 25 50  1  0  0  0  0
 25 51  1  0  0  0  0
 26 27  1  0  0  0  0
 26 52  1  0  0  0  0
 26 53  1  0  0  0  0
 28 29  2  0  0  0  0
M  END
> <s_m_source_file>
AV-unprocessed.smi

> <i_m_source_file_index>
94

> <i_lp_mmshare_version>
43012

> <i_f3d_flags>
0

> <s_epik_input>
W0NIM11PYzFbY0hdW2NIXWMoW0NIM10pW2NIXWMxW0NASF0oW0NIM10pW05IXUMoPU8pW0NIMl1uMmMoPU8pYyhGKVtjSF1uKGMyPU8pW0NAQEhdM1tDSDJdW0NIMl1bQ0gyXU8z

> <s_epik_cmdline>
J2VwaWtfcHl0aG9uJywgJy1waCcsICc3LjAnLCAnLXRuJywgJzgnLCAnLW1hJywgJzIwMCcsICctbWV0YWxfYmluZGluZycsICctaW1hZScsICc8aW5maWxlLm1hZT4nLCAnLW9tYWUnLCAnPG91dGZpbGUubWFlPic=

> <r_lp_tautomer_probability>
1

> <r_epik_Ionization_Penalty>
3.37009e-08

> <r_epik_Ionization_Penalty_Charging>
3.59856e-09

> <r_epik_Ionization_Penalty_Neutral>
3.01024e-08

> <r_epik_State_Penalty>
-0

> <r_epik_Charging_Adjusted_Penalty>
3.59856e-09

> <i_epik_Tot_Q>
0

> <i_epik_Tot_abs_Q>
0

> <r_epik_Metal_State_Penalty>
-0

> <b_epik_Metal_Only>
0

> <s_epik_Chemistry_Notes>
This compound contains an acetal/aminal-like group ( X-CH(R)-Y where X, Y are N, S, or O) that may be acid/base labile, releasing an aldehyde.

> <s_lp_Force_Field>
OPLS_2005

> <r_lp_Energy>
32.8189

> <b_lp_Chiralities_Consistent>
1

> <s_lp_Variant>
AV-unprocessed.smi:94-4

> <Gold.Version>
5.8.1

> <Gold.Id.Protein>
6NUR|6NUR_protein|mol2

> <Gold.PLP.Fitness>
50.6424

> <Gold.PLP.PLP>
-45.6516

> <Gold.PLP.part.hbond>
-3.0000

> <Gold.PLP.part.metal>
0.0000

> <Gold.PLP.part.buried>
0.7286

> <Gold.PLP.part.nonpolar>
-45.7621

> <Gold.PLP.part.repulsive>
3.0111

> <Gold.PLP.ligand.clash>
0.0000

> <Gold.PLP.ligand.torsion>
0.6503

> <Gold.PLP.Chemscore.Hbond>
1.8000

> <Gold.PLP.Chemscore.CHOScore>
0.2756

> <Gold.PLP.Chemscore.Metal>
0.0000

> <Gold.Chemscore.Hbonds>
donor molecule, donor type, donor heavy atom, donor atom, acceptor molecule, acceptor atom, score
      P1  H  7989  7998       L1    29  0.58
      P1  H 10752 10765       L1    18  1.00
      L1  C    21    46       P1  7948  0.43

> <Gold.PLP.Chemscore.Internal.Correction>
0.0646

> <Gold.Rescore>
     Score         DG    S(hbond)    S(metal)    S(lipo)     H(rot)  DE(clash)    DE(int)     intcor
     11.66     -17.62       0.96        0.00     127.49       2.34       2.00       3.96       ----

> <Gold.Chemscore.Fitness>
11.6610

> <Gold.Chemscore.DG>
-17.6176

> <Gold.Chemscore.ZeroCoef>
-5.4800

> <Gold.Chemscore.Hbond>
0.9592

> <Gold.Chemscore.Metal>
0.0000

> <Gold.Chemscore.Lipo>
127.4901

> <Gold.Chemscore.Internal_Hbond>
0.0000

> <Gold.Chemscore.DEClash>
1.9984

> <Gold.Chemscore.DEInternal>
3.9582

> <Gold.Chemscore.Rot>
2.3370

> <Gold.Chemscore.Internal.Correction>
   9.000000E+99

> <Gold.Chemscore.Hbonds>
donor molecule, donor type, donor heavy atom, donor atom, acceptor molecule, acceptor atom, score
      P1  H  7989  7998       L1    29  0.08
      P1  H 10752 10765       L1    18  0.35

> <Gold.Chemscore.Hbond.Weighted>
-3.2039

> <Gold.Chemscore.Metal.Weighted>
-0.0000

> <Gold.Chemscore.Lipo.Weighted>
-14.9163

> <Gold.Chemscore.Internal_Hbond.Weighted>
0.0000

> <Gold.Chemscore.DEClash.Weighted>
1.9984

> <Gold.Chemscore.DEInternal.Weighted>
3.9582

> <Gold.Chemscore.Rot.Weighted>
5.9827

> <Gold.Chemscore.Internal.Correction.Weighted>
   9.000000E+99

> <Gold.Protein.RotatedTorsions>
[ 6907 6896 6895 6894 ] final  -49.67 input  -60.11 | X-H torsion
[ 7974 7965 7964 7962 ] final  -30.23 input  175.53 | X-H torsion
[ 8008 7997 7996 7995 ] final  -98.26 input   59.86 | X-H torsion
[ 10167 10162 10161 10158 ] final  -29.98 input  -65.29 | X-H torsion
[ 10718 10713 10712 10709 ] final -155.11 input   66.30 | X-H torsion
[ 10763 10752 10751 10750 ] final -145.88 input  -60.55 | X-H torsion
[ 11005 11000 10999 10996 ] final   83.80 input  -57.11 | X-H torsion

> <Gold.Protein.ActiveResidues>
 VAL166  LYS551  ARG553  GLY616  TRP617  ASP618  TYR619  PRO620  LYS621  CYS622 
 ASP623  PHE694  ASN695  SER759  ASP760  ASP761  ALA762  ILE779  LEU786  VAL792 
 PHE793  MET794  SER795  GLU796  ALA797  LYS798  CYS799  TRP800  GLU811  SER814 

> <Gold.Protein.RotatedAtoms>
  150.8782  134.8168  159.7204 H   0  0  0  0  0  0  0  0  0  0  0  0  # atno 6907 bound_to 6896
  152.4760  134.4838  159.9684 H   0  0  0  0  0  0  0  0  0  0  0  0  # atno 6908 bound_to 6896
  151.4917  133.3485  159.2890 H   0  0  0  0  0  0  0  0  0  0  0  0  # atno 6909 bound_to 6896
  146.1158  140.5514  142.8757 H   0  0  0  0  0  0  0  0  0  0  0  0  # atno 7974 bound_to 7965
  154.7987  140.0456  157.1256 H   0  0  0  0  0  0  0  0  0  0  0  0  # atno 8008 bound_to 7997
  154.9504  140.3064  155.5058 H   0  0  0  0  0  0  0  0  0  0  0  0  # atno 8009 bound_to 7997
  156.2959  140.2289  156.4581 H   0  0  0  0  0  0  0  0  0  0  0  0  # atno 8010 bound_to 7997
  140.7254  143.3885  151.1473 H   0  0  0  0  0  0  0  0  0  0  0  0  # atno 10167 bound_to 10162
  156.5084  130.8423  151.2636 H   0  0  0  0  0  0  0  0  0  0  0  0  # atno 10718 bound_to 10713
  154.8363  135.3401  154.6574 H   0  0  0  0  0  0  0  0  0  0  0  0  # atno 10763 bound_to 10752
  153.7188  135.6959  153.5022 H   0  0  0  0  0  0  0  0  0  0  0  0  # atno 10764 bound_to 10752
  153.2397  135.4389  155.0637 H   0  0  0  0  0  0  0  0  0  0  0  0  # atno 10765 bound_to 10752
  139.9019  134.8171  156.2359 H   0  0  0  0  0  0  0  0  0  0  0  0  # atno 11005 bound_to 11000
  144.7551  140.5288  143.6774 LP  0  0  0  0  0  0  0  0  0  0  0  0  # atno 17320 bound_to 7965
  145.5570  139.1478  143.3362 LP  0  0  0  0  0  0  0  0  0  0  0  0  # atno 17321 bound_to 7965
  139.7486  143.8814  152.3070 LP  0  0  0  0  0  0  0  0  0  0  0  0  # atno 17342 bound_to 10162
  139.8659  144.7093  150.9044 LP  0  0  0  0  0  0  0  0  0  0  0  0  # atno 17343 bound_to 10162
  157.7454  130.9958  150.2757 LP  0  0  0  0  0  0  0  0  0  0  0  0  # atno 17370 bound_to 10713
  156.3265  130.3794  149.7529 LP  0  0  0  0  0  0  0  0  0  0  0  0  # atno 17371 bound_to 10713
  141.0316  133.6986  156.1439 LP  0  0  0  0  0  0  0  0  0  0  0  0  # atno 17394 bound_to 11000
  140.7088  134.4484  157.5582 LP  0  0  0  0  0  0  0  0  0  0  0  0  # atno 17395 bound_to 11000

$$$$
