AV-unprocessed.smi:1115|AV-procd|sdf|4805|dock8
  -GOLD-   22720 3353D 1   1.00000     0.00000
 Structure written by MMmdl.
 51 52  0  0  0  0  0  0  0  0  2 V2000
  151.3981  145.2686  159.9355 C   0  0  0  0  0  0  0  0  0  0  0  0
  152.1703  144.3502  159.1079 N   0  0  0  0  0  0  0  0  0  0  0  0
  152.4260  144.6734  157.7079 C   0  0  0  0  0  0  0  0  0  0  0  0
  152.7328  143.1836  159.6745 C   0  0  0  0  0  0  0  0  0  0  0  0
  153.3607  143.2066  160.9448 C   0  0  0  0  0  0  0  0  0  0  0  0
  153.9062  142.0185  161.4681 C   0  0  0  0  0  0  0  0  0  0  0  0
  153.8071  140.8272  160.7137 C   0  0  0  0  0  0  0  0  0  0  0  0
  154.3359  139.5725  161.1208 N   0  0  0  0  0  0  0  0  0  0  0  0
  155.0997  139.2940  162.1909 C   0  0  0  0  0  0  0  0  0  0  0  0
  155.4412  140.1036  163.0527 O   0  0  0  0  0  0  0  0  0  0  0  0
  155.4297  137.9947  162.2252 N   0  0  0  0  0  0  0  0  0  0  0  0
  156.2539  137.3533  163.2500 C   0  0  0  0  0  0  0  0  0  0  0  0
  155.5448  137.1930  164.6300 C   0  0  0  0  0  0  0  0  0  0  0  0
  155.5486  138.5717  165.3428 C   0  0  0  0  0  0  0  0  0  0  0  0
  154.0698  136.7723  164.4185 C   0  0  0  0  0  0  0  0  0  0  0  0
  156.2973  136.1669  165.4448 N   0  3  0  0  0  0  0  0  0  0  0  0
  156.2191  134.7565  164.9644 C   0  0  0  0  0  0  0  0  0  0  0  0
  156.9032  133.7965  165.9542 C   0  0  0  0  0  0  0  0  0  0  0  0
  158.2497  134.1913  166.1684 O   0  0  0  0  0  0  0  0  0  0  0  0
  158.3262  135.4927  166.7297 C   0  0  0  0  0  0  0  0  0  0  0  0
  157.7186  136.5059  165.7471 C   0  0  0  0  0  0  0  0  0  0  0  0
  153.1779  140.9041  159.4560 C   0  0  0  0  0  0  0  0  0  0  0  0
  152.6520  142.0396  158.9520 N   0  0  0  0  0  0  0  0  0  0  0  0
  152.0072  145.6494  160.7558 H   0  0  0  0  0  0  0  0  0  0  0  0
  150.5237  144.7676  160.3512 H   0  0  0  0  0  0  0  0  0  0  0  0
  151.0467  146.1239  159.3583 H   0  0  0  0  0  0  0  0  0  0  0  0
  153.4950  144.8002  157.5339 H   0  0  0  0  0  0  0  0  0  0  0  0
  151.9283  145.5977  157.4140 H   0  0  0  0  0  0  0  0  0  0  0  0
  152.0605  143.8778  157.0580 H   0  0  0  0  0  0  0  0  0  0  0  0
  153.4400  144.1119  161.5273 H   0  0  0  0  0  0  0  0  0  0  0  0
  154.4005  142.0516  162.4265 H   0  0  0  0  0  0  0  0  0  0  0  0
  154.0632  138.7850  160.5509 H   0  0  0  0  0  0  0  0  0  0  0  0
  155.0953  137.4036  161.4779 H   0  0  0  0  0  0  0  0  0  0  0  0
  156.5149  136.3854  162.8273 H   0  0  0  0  0  0  0  0  0  0  0  0
  157.1991  137.8842  163.3767 H   0  0  0  0  0  0  0  0  0  0  0  0
  155.0889  139.3506  164.7355 H   0  0  0  0  0  0  0  0  0  0  0  0
  156.5628  138.8989  165.5750 H   0  0  0  0  0  0  0  0  0  0  0  0
  154.9723  138.5618  166.2678 H   0  0  0  0  0  0  0  0  0  0  0  0
  153.5011  137.5578  163.9199 H   0  0  0  0  0  0  0  0  0  0  0  0
  153.5659  136.5710  165.3638 H   0  0  0  0  0  0  0  0  0  0  0  0
  153.9813  135.8811  163.7973 H   0  0  0  0  0  0  0  0  0  0  0  0
  155.1882  134.4205  164.8683 H   0  0  0  0  0  0  0  0  0  0  0  0
  156.6838  134.6695  163.9817 H   0  0  0  0  0  0  0  0  0  0  0  0
  156.3651  133.7690  166.9034 H   0  0  0  0  0  0  0  0  0  0  0  0
  156.8945  132.7812  165.5572 H   0  0  0  0  0  0  0  0  0  0  0  0
  157.8152  135.5242  167.6935 H   0  0  0  0  0  0  0  0  0  0  0  0
  159.3731  135.7330  166.9166 H   0  0  0  0  0  0  0  0  0  0  0  0
  158.3093  136.5036  164.8305 H   0  0  0  0  0  0  0  0  0  0  0  0
  157.8147  137.4959  166.1862 H   0  0  0  0  0  0  0  0  0  0  0  0
  153.0872  140.0260  158.8334 H   0  0  0  0  0  0  0  0  0  0  0  0
  155.8261  136.1584  166.3385 H   0  0  0  0  0  0  0  0  0  0  0  0
  1  2  1  0  0  0  0
  1 24  1  0  0  0  0
  1 25  1  0  0  0  0
  1 26  1  0  0  0  0
  2  3  1  0  0  0  0
  2  4  1  0  0  0  0
  3 27  1  0  0  0  0
  3 28  1  0  0  0  0
  3 29  1  0  0  0  0
  4 23  1  0  0  0  0
  4  5  2  0  0  0  0
  5  6  1  0  0  0  0
  5 30  1  0  0  0  0
  6  7  2  0  0  0  0
  6 31  1  0  0  0  0
  7  8  1  0  0  0  0
  7 22  1  0  0  0  0
  8  9  1  0  0  0  0
  8 32  1  0  0  0  0
  9 10  2  0  0  0  0
  9 11  1  0  0  0  0
 11 12  1  0  0  0  0
 11 33  1  0  0  0  0
 12 13  1  0  0  0  0
 12 34  1  0  0  0  0
 12 35  1  0  0  0  0
 13 14  1  0  0  0  0
 13 15  1  0  0  0  0
 13 16  1  0  0  0  0
 14 36  1  0  0  0  0
 14 37  1  0  0  0  0
 14 38  1  0  0  0  0
 15 39  1  0  0  0  0
 15 40  1  0  0  0  0
 15 41  1  0  0  0  0
 16 21  1  0  0  0  0
 16 17  1  0  0  0  0
 16 51  1  0  0  0  0
 17 18  1  0  0  0  0
 17 42  1  0  0  0  0
 17 43  1  0  0  0  0
 18 19  1  0  0  0  0
 18 44  1  0  0  0  0
 18 45  1  0  0  0  0
 19 20  1  0  0  0  0
 20 21  1  0  0  0  0
 20 46  1  0  0  0  0
 20 47  1  0  0  0  0
 21 48  1  0  0  0  0
 21 49  1  0  0  0  0
 22 23  2  0  0  0  0
 22 50  1  0  0  0  0
M  CHG  1  16   1
M  END
> <s_m_source_file>
AV-unprocessed.smi

> <i_m_source_file_index>
1115

> <i_lp_mmshare_version>
43012

> <i_f3d_flags>
0

> <s_epik_input>
W0NIM11OKFtDSDNdKWMxW2NIXVtjSF1jKFtjSF1uMSlbTkhdQyg9TylbTkhdW0NIMl1DKFtDSDNdKShbQ0gzXSlOMltDSDJdW0NIMl1PW0NIMl1bQ0gyXTI=

> <s_epik_cmdline>
J2VwaWtfcHl0aG9uJywgJy1waCcsICc3LjAnLCAnLXRuJywgJzgnLCAnLW1hJywgJzIwMCcsICctbWV0YWxfYmluZGluZycsICctaW1hZScsICc8aW5maWxlLm1hZT4nLCAnLW9tYWUnLCAnPG91dGZpbGUubWFlPic=

> <r_epik_Ionization_Penalty>
1.14783

> <r_epik_Ionization_Penalty_Charging>
0.602531

> <r_epik_Ionization_Penalty_Neutral>
0.545303

> <r_epik_State_Penalty>
1.19446

> <r_epik_Charging_Adjusted_Penalty>
1.79699

> <i_epik_Tot_Q>
1

> <i_epik_Tot_abs_Q>
1

> <r_epik_Metal_State_Penalty>
0.937982

> <b_epik_Metal_Only>
0

> <s_lp_Force_Field>
OPLS_2005

> <r_lp_Energy>
30.1641

> <b_lp_Chiralities_Consistent>
1

> <s_lp_Variant>
AV-unprocessed.smi:1115-4

> <Gold.Version>
5.8.1

> <Gold.Id.Protein>
6NUR|6NUR_protein|mol2

> <Gold.PLP.Fitness>
43.1190

> <Gold.PLP.PLP>
-45.1795

> <Gold.PLP.part.hbond>
-1.0000

> <Gold.PLP.part.metal>
0.0000

> <Gold.PLP.part.buried>
-6.9500

> <Gold.PLP.part.nonpolar>
-36.4822

> <Gold.PLP.part.repulsive>
0.0956

> <Gold.PLP.ligand.clash>
0.0000

> <Gold.PLP.ligand.torsion>
1.0790

> <Gold.PLP.Chemscore.Hbond>
0.0000

> <Gold.PLP.Chemscore.CHOScore>
0.0000

> <Gold.PLP.Chemscore.Metal>
0.0000

> <Gold.PLP.Chemscore.Internal.Correction>
0.0975

> <Gold.Rescore>
     Score         DG    S(hbond)    S(metal)    S(lipo)     H(rot)  DE(clash)    DE(int)     intcor
      9.46     -13.11       0.00        0.00      97.25       1.46       0.00       3.65       ----

> <Gold.Chemscore.Fitness>
9.4585

> <Gold.Chemscore.DG>
-13.1080

> <Gold.Chemscore.ZeroCoef>
-5.4800

> <Gold.Chemscore.Hbond>
0.0000

> <Gold.Chemscore.Metal>
0.0000

> <Gold.Chemscore.Lipo>
97.2469

> <Gold.Chemscore.Internal_Hbond>
0.0000

> <Gold.Chemscore.DEClash>
0.0015

> <Gold.Chemscore.DEInternal>
3.6480

> <Gold.Chemscore.Rot>
1.4648

> <Gold.Chemscore.Internal.Correction>
   9.000000E+99

> <Gold.Chemscore.Hbond.Weighted>
-0.0000

> <Gold.Chemscore.Metal.Weighted>
-0.0000

> <Gold.Chemscore.Lipo.Weighted>
-11.3779

> <Gold.Chemscore.Internal_Hbond.Weighted>
0.0000

> <Gold.Chemscore.DEClash.Weighted>
0.0015

> <Gold.Chemscore.DEInternal.Weighted>
3.6480

> <Gold.Chemscore.Rot.Weighted>
3.7499

> <Gold.Chemscore.Internal.Correction.Weighted>
   9.000000E+99

> <Gold.Protein.RotatedTorsions>
[ 6907 6896 6895 6894 ] final  173.69 input  -60.11 | X-H torsion
[ 7974 7965 7964 7962 ] final   77.75 input  175.53 | X-H torsion
[ 8008 7997 7996 7995 ] final  123.57 input   59.86 | X-H torsion
[ 10167 10162 10161 10158 ] final  -78.31 input  -65.29 | X-H torsion
[ 10718 10713 10712 10709 ] final   -4.27 input   66.30 | X-H torsion
[ 10763 10752 10751 10750 ] final  -13.33 input  -60.55 | X-H torsion
[ 11005 11000 10999 10996 ] final -161.41 input  -57.11 | X-H torsion

> <Gold.Protein.ActiveResidues>
 VAL166  LYS551  ARG553  GLY616  TRP617  ASP618  TYR619  PRO620  LYS621  CYS622 
 ASP623  PHE694  ASN695  SER759  ASP760  ASP761  ALA762  ILE779  LEU786  VAL792 
 PHE793  MET794  SER795  GLU796  ALA797  LYS798  CYS799  TRP800  GLU811  SER814 

> <Gold.Protein.RotatedAtoms>
  151.7644  133.3336  159.3426 H   0  0  0  0  0  0  0  0  0  0  0  0  # atno 6907 bound_to 6896
  150.7486  134.6076  159.6079 H   0  0  0  0  0  0  0  0  0  0  0  0  # atno 6908 bound_to 6896
  152.3384  134.7169  160.0322 H   0  0  0  0  0  0  0  0  0  0  0  0  # atno 6909 bound_to 6896
  145.6860  139.2538  143.1787 H   0  0  0  0  0  0  0  0  0  0  0  0  # atno 7974 bound_to 7965
  156.2771  140.2760  156.1649 H   0  0  0  0  0  0  0  0  0  0  0  0  # atno 8008 bound_to 7997
  155.0715  140.0387  157.2628 H   0  0  0  0  0  0  0  0  0  0  0  0  # atno 8009 bound_to 7997
  154.7036  140.2654  155.6701 H   0  0  0  0  0  0  0  0  0  0  0  0  # atno 8010 bound_to 7997
  140.4693  143.2431  151.8229 H   0  0  0  0  0  0  0  0  0  0  0  0  # atno 10167 bound_to 10162
  156.7638  130.5278  149.5780 H   0  0  0  0  0  0  0  0  0  0  0  0  # atno 10718 bound_to 10713
  153.5117  135.7016  153.5778 H   0  0  0  0  0  0  0  0  0  0  0  0  # atno 10763 bound_to 10752
  153.3865  135.3907  155.1893 H   0  0  0  0  0  0  0  0  0  0  0  0  # atno 10764 bound_to 10752
  154.8702  135.3848  154.4597 H   0  0  0  0  0  0  0  0  0  0  0  0  # atno 10765 bound_to 10752
  140.6207  134.4754  157.5223 H   0  0  0  0  0  0  0  0  0  0  0  0  # atno 11005 bound_to 11000
  146.0923  140.7641  142.9589 LP  0  0  0  0  0  0  0  0  0  0  0  0  # atno 17320 bound_to 7965
  144.7011  140.3657  143.7155 LP  0  0  0  0  0  0  0  0  0  0  0  0  # atno 17321 bound_to 7965
  139.4816  144.4912  151.9183 LP  0  0  0  0  0  0  0  0  0  0  0  0  # atno 17342 bound_to 10162
  140.3997  144.2509  150.5894 LP  0  0  0  0  0  0  0  0  0  0  0  0  # atno 17343 bound_to 10162
  156.1322  130.6186  151.0349 LP  0  0  0  0  0  0  0  0  0  0  0  0  # atno 17370 bound_to 10713
  157.6722  131.0858  150.7583 LP  0  0  0  0  0  0  0  0  0  0  0  0  # atno 17371 bound_to 10713
  139.9155  134.8256  156.1382 LP  0  0  0  0  0  0  0  0  0  0  0  0  # atno 17394 bound_to 11000
  141.0744  133.6782  156.2207 LP  0  0  0  0  0  0  0  0  0  0  0  0  # atno 17395 bound_to 11000

$$$$
