AV-unprocessed.smi:2011|AV-procd|sdf|8154|dock3
  -GOLD-   2272010393D 1   1.00000     0.00000
 Structure written by MMmdl.
 25 26  0  0  0  0  0  0  0  0  2 V2000
  151.2612  140.1204  158.0249 O   0  0  0  0  0  0  0  0  0  0  0  0
  152.4779  139.9196  158.0337 C   0  0  0  0  0  0  0  0  0  0  0  0
  153.2454  140.5181  158.9541 N   0  0  0  0  0  0  0  0  0  0  0  0
  152.7633  141.4248  159.9875 C   0  0  0  0  0  0  0  0  0  0  0  0
  152.8786  142.8717  159.5231 C   0  0  0  0  0  0  0  0  0  0  0  0
  152.2635  143.9926  160.3738 C   0  0  0  0  0  0  0  0  0  0  0  0
  151.9228  144.7294  159.0755 C   0  0  0  0  0  0  0  0  0  0  0  0
  152.0035  143.3758  158.3651 C   0  0  0  0  0  0  0  0  0  0  0  0
  153.1658  139.1250  157.1819 N   0  5  0  0  0  0  0  0  0  0  0  0
  152.5130  138.4314  156.2347 C   0  0  0  0  0  0  0  0  0  0  0  0
  152.5949  137.0945  156.1385 N   0  0  0  0  0  0  0  0  0  0  0  0
  151.8407  136.5747  155.0951 N   0  0  0  0  0  0  0  0  0  0  0  0
  151.1998  137.5373  154.4326 C   0  0  0  0  0  0  0  0  0  0  0  0
  151.4553  139.1649  155.0255 S   0  0  0  0  0  0  0  0  0  0  0  0
  154.2373  140.3322  158.9304 H   0  0  0  0  0  0  0  0  0  0  0  0
  151.7269  141.1808  160.2252 H   0  0  0  0  0  0  0  0  0  0  0  0
  153.3431  141.2726  160.8988 H   0  0  0  0  0  0  0  0  0  0  0  0
  153.9194  143.1281  159.3131 H   0  0  0  0  0  0  0  0  0  0  0  0
  151.3752  143.6718  160.9205 H   0  0  0  0  0  0  0  0  0  0  0  0
  152.9687  144.5120  161.0231 H   0  0  0  0  0  0  0  0  0  0  0  0
  150.9380  145.1968  159.0597 H   0  0  0  0  0  0  0  0  0  0  0  0
  152.7072  145.4202  158.7620 H   0  0  0  0  0  0  0  0  0  0  0  0
  152.5000  143.3957  157.3945 H   0  0  0  0  0  0  0  0  0  0  0  0
  151.0384  142.8689  158.3119 H   0  0  0  0  0  0  0  0  0  0  0  0
  150.5698  137.2873  153.5921 H   0  0  0  0  0  0  0  0  0  0  0  0
  1  2  2  0  0  0  0
  2  3  1  0  0  0  0
  2  9  1  0  0  0  0
  3  4  1  0  0  0  0
  3 15  1  0  0  0  0
  4  5  1  0  0  0  0
  4 16  1  0  0  0  0
  4 17  1  0  0  0  0
  5  8  1  0  0  0  0
  5  6  1  0  0  0  0
  5 18  1  0  0  0  0
  6  7  1  0  0  0  0
  6 19  1  0  0  0  0
  6 20  1  0  0  0  0
  7  8  1  0  0  0  0
  7 21  1  0  0  0  0
  7 22  1  0  0  0  0
  8 23  1  0  0  0  0
  8 24  1  0  0  0  0
  9 10  1  0  0  0  0
 10 14  1  0  0  0  0
 10 11  2  0  0  0  0
 11 12  1  0  0  0  0
 12 13  2  0  0  0  0
 13 14  1  0  0  0  0
 13 25  1  0  0  0  0
M  CHG  1   9  -1
M  END
> <s_m_source_file>
AV-unprocessed.smi

> <i_m_source_file_index>
2011

> <i_lp_mmshare_version>
43012

> <i_f3d_flags>
0

> <s_epik_input>
czFbY0hdbm5jMVtOSF1DKD1PKVtOSF1bQ0gyXVtDSF0yW0NIMl1bQ0gyXVtDSDJdMg==

> <s_epik_cmdline>
J2VwaWtfcHl0aG9uJywgJy1waCcsICc3LjAnLCAnLXRuJywgJzgnLCAnLW1hJywgJzIwMCcsICctbWV0YWxfYmluZGluZycsICctaW1hZScsICc8aW5maWxlLm1hZT4nLCAnLW9tYWUnLCAnPG91dGZpbGUubWFlPic=

> <r_lp_tautomer_probability>
1

> <r_epik_Ionization_Penalty>
4.51229

> <r_epik_Ionization_Penalty_Charging>
4.46823

> <r_epik_Ionization_Penalty_Neutral>
0.0440628

> <r_epik_State_Penalty>
4.46792

> <r_epik_Charging_Adjusted_Penalty>
8.93614

> <i_epik_Tot_Q>
-1

> <i_epik_Tot_abs_Q>
1

> <r_epik_Metal_State_Penalty>
0.803637

> <b_epik_Metal_Only>
1

> <s_lp_Force_Field>
OPLS_2005

> <r_lp_Energy>
10.4468

> <b_lp_Chiralities_Consistent>
1

> <s_lp_Variant>
AV-unprocessed.smi:2011-2

> <Gold.Version>
5.8.1

> <Gold.Id.Protein>
6NUR|6NUR_protein|mol2

> <Gold.PLP.Fitness>
43.4269

> <Gold.PLP.PLP>
-32.4519

> <Gold.PLP.part.hbond>
-3.0000

> <Gold.PLP.part.metal>
0.0000

> <Gold.PLP.part.buried>
-3.0763

> <Gold.PLP.part.nonpolar>
-26.8778

> <Gold.PLP.part.repulsive>
0.1980

> <Gold.PLP.ligand.clash>
0.0000

> <Gold.PLP.ligand.torsion>
0.7334

> <Gold.PLP.Chemscore.Hbond>
3.0000

> <Gold.PLP.Chemscore.CHOScore>
1.1210

> <Gold.PLP.Chemscore.Metal>
0.0000

> <Gold.Chemscore.Hbonds>
donor molecule, donor type, donor heavy atom, donor atom, acceptor molecule, acceptor atom, score
      P1  H  7997  8010       L1     9  2.00
      P1  H 10752 10764       L1    12  0.99
      L1  C    13    25       P1  7948  0.59
      L1  C    13    25       P1  7949  0.58

> <Gold.PLP.Chemscore.Internal.Correction>
0.0789

> <Gold.Rescore>
     Score         DG    S(hbond)    S(metal)    S(lipo)     H(rot)  DE(clash)    DE(int)     intcor
     15.09     -15.82       1.58        0.00      72.12       1.32       0.00       0.72       ----

> <Gold.Chemscore.Fitness>
15.0935

> <Gold.Chemscore.DG>
-15.8168

> <Gold.Chemscore.ZeroCoef>
-5.4800

> <Gold.Chemscore.Hbond>
1.5839

> <Gold.Chemscore.Metal>
0.0000

> <Gold.Chemscore.Lipo>
72.1174

> <Gold.Chemscore.Internal_Hbond>
0.0000

> <Gold.Chemscore.DEClash>
0.0004

> <Gold.Chemscore.DEInternal>
0.7229

> <Gold.Chemscore.Rot>
1.3247

> <Gold.Chemscore.Internal.Correction>
   9.000000E+99

> <Gold.Chemscore.Hbonds>
donor molecule, donor type, donor heavy atom, donor atom, acceptor molecule, acceptor atom, score
      P1  H  7997  8010       L1     9  0.44
      P1  H 10752 10764       L1    12  0.28

> <Gold.Chemscore.Hbond.Weighted>
-5.2902

> <Gold.Chemscore.Metal.Weighted>
-0.0000

> <Gold.Chemscore.Lipo.Weighted>
-8.4377

> <Gold.Chemscore.Internal_Hbond.Weighted>
0.0000

> <Gold.Chemscore.DEClash.Weighted>
0.0004

> <Gold.Chemscore.DEInternal.Weighted>
0.7229

> <Gold.Chemscore.Rot.Weighted>
3.3912

> <Gold.Chemscore.Internal.Correction.Weighted>
   9.000000E+99

> <Gold.Protein.RotatedTorsions>
[ 6907 6896 6895 6894 ] final  128.62 input  -60.11 | X-H torsion
[ 7974 7965 7964 7962 ] final  102.64 input  175.53 | X-H torsion
[ 8008 7997 7996 7995 ] final   63.19 input   59.86 | X-H torsion
[ 10167 10162 10161 10158 ] final  -32.50 input  -65.29 | X-H torsion
[ 10718 10713 10712 10709 ] final   69.25 input   66.30 | X-H torsion
[ 10763 10752 10751 10750 ] final  -73.82 input  -60.55 | X-H torsion
[ 11005 11000 10999 10996 ] final   58.28 input  -57.11 | X-H torsion

> <Gold.Protein.ActiveResidues>
 VAL166  LYS551  ARG553  GLY616  TRP617  ASP618  TYR619  PRO620  LYS621  CYS622 
 ASP623  PHE694  ASN695  SER759  ASP760  ASP761  ALA762  ILE779  LEU786  VAL792 
 PHE793  MET794  SER795  GLU796  ALA797  LYS798  CYS799  TRP800  GLU811  SER814 

> <Gold.Protein.RotatedAtoms>
  152.3702  133.6408  159.6080 H   0  0  0  0  0  0  0  0  0  0  0  0  # atno 6907 bound_to 6896
  150.7663  133.9283  159.3428 H   0  0  0  0  0  0  0  0  0  0  0  0  # atno 6908 bound_to 6896
  151.7107  135.0914  160.0318 H   0  0  0  0  0  0  0  0  0  0  0  0  # atno 6909 bound_to 6896
  145.3564  139.2427  143.3530 H   0  0  0  0  0  0  0  0  0  0  0  0  # atno 7974 bound_to 7965
  155.6264  140.3496  155.4668 H   0  0  0  0  0  0  0  0  0  0  0  0  # atno 8008 bound_to 7997
  156.0038  140.1219  157.0545 H   0  0  0  0  0  0  0  0  0  0  0  0  # atno 8009 bound_to 7997
  154.4257  140.1095  156.5720 H   0  0  0  0  0  0  0  0  0  0  0  0  # atno 8010 bound_to 7997
  140.7220  143.3690  151.1815 H   0  0  0  0  0  0  0  0  0  0  0  0  # atno 10167 bound_to 10162
  157.6335  130.9416  150.0488 H   0  0  0  0  0  0  0  0  0  0  0  0  # atno 10718 bound_to 10713
  154.4647  135.5884  153.6280 H   0  0  0  0  0  0  0  0  0  0  0  0  # atno 10763 bound_to 10752
  152.9827  135.6052  154.3442 H   0  0  0  0  0  0  0  0  0  0  0  0  # atno 10764 bound_to 10752
  154.3317  135.2842  155.2447 H   0  0  0  0  0  0  0  0  0  0  0  0  # atno 10765 bound_to 10752
  140.0389  134.5902  155.9407 H   0  0  0  0  0  0  0  0  0  0  0  0  # atno 11005 bound_to 11000
  146.2946  140.4190  142.8726 LP  0  0  0  0  0  0  0  0  0  0  0  0  # atno 17320 bound_to 7965
  144.8679  140.7232  143.6065 LP  0  0  0  0  0  0  0  0  0  0  0  0  # atno 17321 bound_to 7965
  139.7257  143.9152  152.3002 LP  0  0  0  0  0  0  0  0  0  0  0  0  # atno 17342 bound_to 10162
  139.8924  144.6958  150.8756 LP  0  0  0  0  0  0  0  0  0  0  0  0  # atno 17343 bound_to 10162
  156.1556  130.3643  149.9373 LP  0  0  0  0  0  0  0  0  0  0  0  0  # atno 17370 bound_to 10713
  156.7383  130.9070  151.3630 LP  0  0  0  0  0  0  0  0  0  0  0  0  # atno 17371 bound_to 10713
  141.1872  133.6559  156.5273 LP  0  0  0  0  0  0  0  0  0  0  0  0  # atno 17394 bound_to 11000
  140.4101  134.7280  157.4831 LP  0  0  0  0  0  0  0  0  0  0  0  0  # atno 17395 bound_to 11000

$$$$
