AV-unprocessed.smi:653|AV-procd|sdf|3209|dock7
  -GOLD-   22720 0143D 1   1.00000     0.00000
 Structure written by MMmdl.
 45 46  0  0  0  0  0  0  0  0  2 V2000
  146.2160  137.2574  153.6993 C   0  0  0  0  0  0  0  0  0  0  0  0
  147.1315  138.4149  154.0377 C   0  0  0  0  0  0  0  0  0  0  0  0
  146.7104  139.4950  154.8426 C   0  0  0  0  0  0  0  0  0  0  0  0
  147.6157  140.5395  155.1227 C   0  0  0  0  0  0  0  0  0  0  0  0
  148.9244  140.4831  154.5941 C   0  0  0  0  0  0  0  0  0  0  0  0
  149.9216  141.5926  154.8761 C   0  0  0  0  0  0  0  0  0  0  0  0
  150.4614  141.4727  156.3019 C   0  0  0  0  0  0  0  0  0  0  0  0
  150.9436  140.4075  156.6867 O   0  0  0  0  0  0  0  0  0  0  0  0
  150.3751  142.5700  157.0699 N   0  0  0  0  0  0  0  0  0  0  0  0
  150.8396  142.6811  158.4496 C   0  0  0  0  0  0  0  0  0  0  0  0
  152.1922  143.4290  158.5503 C   0  0  1  0  0  0  0  0  0  0  0  0
  152.0422  144.9436  158.5118 C   0  0  0  0  0  0  0  0  0  0  0  0
  151.7424  145.3014  159.9684 C   0  0  0  0  0  0  0  0  0  0  0  0
  152.1910  144.1930  160.7442 O   0  0  0  0  0  0  0  0  0  0  0  0
  152.8989  143.2831  159.9101 C   0  0  1  0  0  0  0  0  0  0  0  0
  152.9639  141.8712  160.5363 C   0  0  0  0  0  0  0  0  0  0  0  0
  153.4935  141.9324  161.9782 C   0  0  0  0  0  0  0  0  0  0  0  0
  153.8341  140.9160  159.7013 C   0  0  0  0  0  0  0  0  0  0  0  0
  149.2897  139.3767  153.7966 C   0  0  0  0  0  0  0  0  0  0  0  0
  148.3928  138.3968  153.5508 N   0  3  0  0  0  0  0  0  0  0  0  0
  145.1703  137.5625  153.7495 H   0  0  0  0  0  0  0  0  0  0  0  0
  146.3681  136.4390  154.4034 H   0  0  0  0  0  0  0  0  0  0  0  0
  146.4121  136.8871  152.6925 H   0  0  0  0  0  0  0  0  0  0  0  0
  145.7068  139.5245  155.2415 H   0  0  0  0  0  0  0  0  0  0  0  0
  147.3070  141.3744  155.7351 H   0  0  0  0  0  0  0  0  0  0  0  0
  150.7352  141.5538  154.1500 H   0  0  0  0  0  0  0  0  0  0  0  0
  149.4390  142.5633  154.7557 H   0  0  0  0  0  0  0  0  0  0  0  0
  149.9582  143.3968  156.6670 H   0  0  0  0  0  0  0  0  0  0  0  0
  150.0881  143.1515  159.0861 H   0  0  0  0  0  0  0  0  0  0  0  0
  150.9460  141.6615  158.8174 H   0  0  0  0  0  0  0  0  0  0  0  0
  152.8440  143.0903  157.7439 H   0  0  0  0  0  0  0  0  0  0  0  0
  152.9909  145.3935  158.2157 H   0  0  0  0  0  0  0  0  0  0  0  0
  151.2846  145.3090  157.8199 H   0  0  0  0  0  0  0  0  0  0  0  0
  152.2462  146.2201  160.2697 H   0  0  0  0  0  0  0  0  0  0  0  0
  150.6718  145.4327  160.1289 H   0  0  0  0  0  0  0  0  0  0  0  0
  153.9174  143.6644  159.8104 H   0  0  0  0  0  0  0  0  0  0  0  0
  151.9556  141.4599  160.5849 H   0  0  0  0  0  0  0  0  0  0  0  0
  154.5009  142.3483  162.0138 H   0  0  0  0  0  0  0  0  0  0  0  0
  153.5281  140.9392  162.4270 H   0  0  0  0  0  0  0  0  0  0  0  0
  152.8558  142.5514  162.6097 H   0  0  0  0  0  0  0  0  0  0  0  0
  154.8603  141.2775  159.6301 H   0  0  0  0  0  0  0  0  0  0  0  0
  153.4531  140.8023  158.6868 H   0  0  0  0  0  0  0  0  0  0  0  0
  153.8636  139.9218  160.1483 H   0  0  0  0  0  0  0  0  0  0  0  0
  150.2642  139.2488  153.3483 H   0  0  0  0  0  0  0  0  0  0  0  0
  148.6804  137.6081  152.9710 H   0  0  0  0  0  0  0  0  0  0  0  0
  1  2  1  0  0  0  0
  1 21  1  0  0  0  0
  1 22  1  0  0  0  0
  1 23  1  0  0  0  0
  2 20  1  0  0  0  0
  2  3  2  0  0  0  0
  3  4  1  0  0  0  0
  3 24  1  0  0  0  0
  4  5  2  0  0  0  0
  4 25  1  0  0  0  0
  5  6  1  0  0  0  0
  5 19  1  0  0  0  0
  6  7  1  0  0  0  0
  6 26  1  0  0  0  0
  6 27  1  0  0  0  0
  7  8  2  0  0  0  0
  7  9  1  0  0  0  0
  9 10  1  0  0  0  0
  9 28  1  0  0  0  0
 10 11  1  0  0  0  0
 10 29  1  0  0  0  0
 10 30  1  0  0  0  0
 11 15  1  0  0  0  0
 11 12  1  0  0  0  0
 11 31  1  0  0  0  0
 12 13  1  0  0  0  0
 12 32  1  0  0  0  0
 12 33  1  0  0  0  0
 13 14  1  0  0  0  0
 13 34  1  0  0  0  0
 13 35  1  0  0  0  0
 14 15  1  0  0  0  0
 15 16  1  0  0  0  0
 15 36  1  0  0  0  0
 16 17  1  0  0  0  0
 16 18  1  0  0  0  0
 16 37  1  0  0  0  0
 17 38  1  0  0  0  0
 17 39  1  0  0  0  0
 17 40  1  0  0  0  0
 18 41  1  0  0  0  0
 18 42  1  0  0  0  0
 18 43  1  0  0  0  0
 19 20  2  0  0  0  0
 19 44  1  0  0  0  0
 20 45  1  0  0  0  0
M  CHG  1  20   1
M  END
> <s_m_source_file>
AV-unprocessed.smi

> <i_m_source_file_index>
653

> <i_lp_mmshare_version>
43012

> <i_f3d_flags>
0

> <s_epik_input>
W0NIM11jMVtjSF1bY0hdYyhbY0hdbjEpW0NIMl1DKD1PKVtOSF1bQ0gyXVtDQEBIXTJbQ0gyXVtDSDJdT1tDQEhdMltDSF0oW0NIM10pW0NIM10=

> <s_epik_cmdline>
J2VwaWtfcHl0aG9uJywgJy1waCcsICc3LjAnLCAnLXRuJywgJzgnLCAnLW1hJywgJzIwMCcsICctbWV0YWxfYmluZGluZycsICctaW1hZScsICc8aW5maWxlLm1hZT4nLCAnLW9tYWUnLCAnPG91dGZpbGUubWFlPic=

> <r_epik_Ionization_Penalty>
2.12486

> <r_epik_Ionization_Penalty_Charging>
2.12486

> <r_epik_Ionization_Penalty_Neutral>
9.0873e-08

> <r_epik_State_Penalty>
2.26279

> <r_epik_Charging_Adjusted_Penalty>
4.38765

> <i_epik_Tot_Q>
1

> <i_epik_Tot_abs_Q>
1

> <r_epik_Metal_State_Penalty>
2.27914

> <b_epik_Metal_Only>
0

> <s_lp_Force_Field>
OPLS_2005

> <r_lp_Energy>
28.2902

> <b_lp_Chiralities_Consistent>
1

> <s_lp_Variant>
AV-unprocessed.smi:653-6

> <Gold.Version>
5.8.1

> <Gold.Id.Protein>
6NUR|6NUR_protein|mol2

> <Gold.PLP.Fitness>
51.0848

> <Gold.PLP.PLP>
-43.2145

> <Gold.PLP.part.hbond>
-2.0000

> <Gold.PLP.part.metal>
0.0000

> <Gold.PLP.part.buried>
-4.2129

> <Gold.PLP.part.nonpolar>
-37.1382

> <Gold.PLP.part.repulsive>
0.1624

> <Gold.PLP.ligand.clash>
0.0000

> <Gold.PLP.ligand.torsion>
0.5836

> <Gold.PLP.Chemscore.Hbond>
3.0000

> <Gold.PLP.Chemscore.CHOScore>
0.0000

> <Gold.PLP.Chemscore.Metal>
0.0000

> <Gold.Chemscore.Hbonds>
donor molecule, donor type, donor heavy atom, donor atom, acceptor molecule, acceptor atom, score
      L1  H     9    28       P1  8028  1.00
      L1  H    20    45       P1  7948  2.00

> <Gold.PLP.Chemscore.Internal.Correction>
0.0375

> <Gold.Rescore>
     Score         DG    S(hbond)    S(metal)    S(lipo)     H(rot)  DE(clash)    DE(int)     intcor
     21.29     -22.01       1.98        0.00     119.02       1.57       0.21       0.51       ----

> <Gold.Chemscore.Fitness>
21.2918

> <Gold.Chemscore.DG>
-22.0087

> <Gold.Chemscore.ZeroCoef>
-5.4800

> <Gold.Chemscore.Hbond>
1.9829

> <Gold.Chemscore.Metal>
0.0000

> <Gold.Chemscore.Lipo>
119.0197

> <Gold.Chemscore.Internal_Hbond>
0.0000

> <Gold.Chemscore.DEClash>
0.2079

> <Gold.Chemscore.DEInternal>
0.5090

> <Gold.Chemscore.Rot>
1.5701

> <Gold.Chemscore.Internal.Correction>
   9.000000E+99

> <Gold.Chemscore.Hbonds>
donor molecule, donor type, donor heavy atom, donor atom, acceptor molecule, acceptor atom, score
      L1  H     9    28       P1  8028  0.98
      L1  H    20    45       P1  7948  1.00

> <Gold.Chemscore.Hbond.Weighted>
-6.6229

> <Gold.Chemscore.Metal.Weighted>
-0.0000

> <Gold.Chemscore.Lipo.Weighted>
-13.9253

> <Gold.Chemscore.Internal_Hbond.Weighted>
0.0000

> <Gold.Chemscore.DEClash.Weighted>
0.2079

> <Gold.Chemscore.DEInternal.Weighted>
0.5090

> <Gold.Chemscore.Rot.Weighted>
4.0196

> <Gold.Chemscore.Internal.Correction.Weighted>
   9.000000E+99

> <Gold.Protein.RotatedTorsions>
[ 6907 6896 6895 6894 ] final   66.92 input  -60.11 | X-H torsion
[ 7974 7965 7964 7962 ] final   -0.16 input  175.53 | X-H torsion
[ 8008 7997 7996 7995 ] final -152.15 input   59.86 | X-H torsion
[ 10167 10162 10161 10158 ] final  -20.95 input  -65.29 | X-H torsion
[ 10718 10713 10712 10709 ] final   83.61 input   66.30 | X-H torsion
[ 10763 10752 10751 10750 ] final    4.53 input  -60.55 | X-H torsion
[ 11005 11000 10999 10996 ] final -145.50 input  -57.11 | X-H torsion

> <Gold.Protein.ActiveResidues>
 VAL166  LYS551  ARG553  GLY616  TRP617  ASP618  TYR619  PRO620  LYS621  CYS622 
 ASP623  PHE694  ASN695  SER759  ASP760  ASP761  ALA762  ILE779  LEU786  VAL792 
 PHE793  MET794  SER795  GLU796  ALA797  LYS798  CYS799  TRP800  GLU811  SER814 

> <Gold.Protein.RotatedAtoms>
  152.4515  134.5382  159.9831 H   0  0  0  0  0  0  0  0  0  0  0  0  # atno 6907 bound_to 6896
  151.5454  133.3420  159.2951 H   0  0  0  0  0  0  0  0  0  0  0  0  # atno 6908 bound_to 6896
  150.8446  134.7782  159.7023 H   0  0  0  0  0  0  0  0  0  0  0  0  # atno 6909 bound_to 6896
  146.2429  140.1228  142.8340 H   0  0  0  0  0  0  0  0  0  0  0  0  # atno 7974 bound_to 7965
  155.6506  140.0711  157.2588 H   0  0  0  0  0  0  0  0  0  0  0  0  # atno 8008 bound_to 7997
  154.4163  140.1734  156.1720 H   0  0  0  0  0  0  0  0  0  0  0  0  # atno 8009 bound_to 7997
  155.9780  140.3356  155.6639 H   0  0  0  0  0  0  0  0  0  0  0  0  # atno 8010 bound_to 7997
  140.7279  143.4674  151.0294 H   0  0  0  0  0  0  0  0  0  0  0  0  # atno 10167 bound_to 10162
  157.6882  131.0098  150.2549 H   0  0  0  0  0  0  0  0  0  0  0  0  # atno 10718 bound_to 10713
  153.2702  135.6931  153.7488 H   0  0  0  0  0  0  0  0  0  0  0  0  # atno 10763 bound_to 10752
  153.6515  135.3376  155.3102 H   0  0  0  0  0  0  0  0  0  0  0  0  # atno 10764 bound_to 10752
  154.8461  135.4455  154.1722 H   0  0  0  0  0  0  0  0  0  0  0  0  # atno 10765 bound_to 10752
  140.7916  134.2962  157.5011 H   0  0  0  0  0  0  0  0  0  0  0  0  # atno 11005 bound_to 11000
  145.0392  140.8932  143.5063 LP  0  0  0  0  0  0  0  0  0  0  0  0  # atno 17320 bound_to 7965
  145.1305  139.2635  143.5541 LP  0  0  0  0  0  0  0  0  0  0  0  0  # atno 17321 bound_to 7965
  139.8363  143.7623  152.3180 LP  0  0  0  0  0  0  0  0  0  0  0  0  # atno 17342 bound_to 10162
  139.7756  144.7462  151.0161 LP  0  0  0  0  0  0  0  0  0  0  0  0  # atno 17343 bound_to 10162
  156.3139  130.3776  149.7637 LP  0  0  0  0  0  0  0  0  0  0  0  0  # atno 17370 bound_to 10713
  156.5228  130.8223  151.3210 LP  0  0  0  0  0  0  0  0  0  0  0  0  # atno 17371 bound_to 10713
  139.8730  134.9377  156.3696 LP  0  0  0  0  0  0  0  0  0  0  0  0  # atno 17394 bound_to 11000
  140.9384  133.7531  156.0115 LP  0  0  0  0  0  0  0  0  0  0  0  0  # atno 17395 bound_to 11000

$$$$
