AV-unprocessed.smi:3149|AV-procd|sdf|12004|dock7
  -GOLD-   2272017413D 1   1.00000     0.00000
 Structure written by MMmdl.
 37 38  0  0  0  0  0  0  0  0  1 V2000
  151.9474  144.3229  157.5677 C   0  0  0  0  0  0  0  0  0  0  0  0
  151.4605  142.8982  157.9121 C   0  0  1  0  0  0  0  0  0  0  0  0
  151.2618  142.1467  156.6754 N   0  0  0  0  0  0  0  0  0  0  0  0
  149.9516  141.4889  156.5997 C   0  0  0  0  0  0  0  0  0  0  0  0
  149.5948  141.1295  155.1553 C   0  0  0  0  0  0  0  0  0  0  0  0
  150.2618  140.2946  154.5442 O   0  0  0  0  0  0  0  0  0  0  0  0
  148.4484  141.7063  154.6020 N   0  0  0  0  0  0  0  0  0  0  0  0
  147.7156  141.0455  153.5327 C   0  0  0  0  0  0  0  0  0  0  0  0
  146.4778  141.7545  154.0923 C   0  0  0  0  0  0  0  0  0  0  0  0
  147.2555  141.9581  155.3968 C   0  0  0  0  0  0  0  0  0  0  0  0
  152.4600  142.1087  158.8017 C   0  0  2  0  0  0  0  0  0  0  0  0
  152.1021  140.6130  158.9105 C   0  0  0  0  0  0  0  0  0  0  0  0
  152.5891  142.6881  160.1337 N   0  0  0  0  0  0  0  0  0  0  0  0
  152.2004  143.9419  160.5590 C   0  0  0  0  0  0  0  0  0  0  0  0
  152.5156  144.0405  161.8839 C   0  0  0  0  0  0  0  0  0  0  0  0
  153.1034  142.7807  162.1862 C   0  0  0  0  0  0  0  0  0  0  0  0
  153.1469  141.9742  161.1385 N   0  0  0  0  0  0  0  0  0  0  0  0
  152.0696  144.9330  158.4625 H   0  0  0  0  0  0  0  0  0  0  0  0
  151.2415  144.8547  156.9306 H   0  0  0  0  0  0  0  0  0  0  0  0
  152.9076  144.2986  157.0515 H   0  0  0  0  0  0  0  0  0  0  0  0
  150.5143  142.9715  158.4513 H   0  0  0  0  0  0  0  0  0  0  0  0
  151.4273  142.7465  155.8796 H   0  0  0  0  0  0  0  0  0  0  0  0
  149.9420  140.5901  157.2180 H   0  0  0  0  0  0  0  0  0  0  0  0
  149.1762  142.1487  156.9879 H   0  0  0  0  0  0  0  0  0  0  0  0
  148.0099  141.3625  152.5318 H   0  0  0  0  0  0  0  0  0  0  0  0
  147.6731  139.9594  153.6376 H   0  0  0  0  0  0  0  0  0  0  0  0
  146.2443  142.6882  153.5775 H   0  0  0  0  0  0  0  0  0  0  0  0
  145.6003  141.1146  154.1890 H   0  0  0  0  0  0  0  0  0  0  0  0
  147.0518  141.1853  156.1401 H   0  0  0  0  0  0  0  0  0  0  0  0
  147.1980  142.9662  155.8083 H   0  0  0  0  0  0  0  0  0  0  0  0
  153.4479  142.1761  158.3420 H   0  0  0  0  0  0  0  0  0  0  0  0
  152.1428  140.1203  157.9392 H   0  0  0  0  0  0  0  0  0  0  0  0
  151.0983  140.4692  159.3114 H   0  0  0  0  0  0  0  0  0  0  0  0
  152.7999  140.0908  159.5661 H   0  0  0  0  0  0  0  0  0  0  0  0
  151.7353  144.6518  159.8910 H   0  0  0  0  0  0  0  0  0  0  0  0
  152.3514  144.8841  162.5377 H   0  0  0  0  0  0  0  0  0  0  0  0
  153.4969  142.4307  163.1293 H   0  0  0  0  0  0  0  0  0  0  0  0
  1  2  1  0  0  0  0
  1 18  1  0  0  0  0
  1 19  1  0  0  0  0
  1 20  1  0  0  0  0
  2  3  1  0  0  0  0
  2 11  1  0  0  0  0
  2 21  1  0  0  0  0
  3  4  1  0  0  0  0
  3 22  1  0  0  0  0
  4  5  1  0  0  0  0
  4 23  1  0  0  0  0
  4 24  1  0  0  0  0
  5  6  2  0  0  0  0
  5  7  1  0  0  0  0
  7 10  1  0  0  0  0
  7  8  1  0  0  0  0
  8  9  1  0  0  0  0
  8 25  1  0  0  0  0
  8 26  1  0  0  0  0
  9 10  1  0  0  0  0
  9 27  1  0  0  0  0
  9 28  1  0  0  0  0
 10 29  1  0  0  0  0
 10 30  1  0  0  0  0
 11 12  1  0  0  0  0
 11 13  1  0  0  0  0
 11 31  1  0  0  0  0
 12 32  1  0  0  0  0
 12 33  1  0  0  0  0
 12 34  1  0  0  0  0
 13 17  1  0  0  0  0
 13 14  1  0  0  0  0
 14 15  2  0  0  0  0
 14 35  1  0  0  0  0
 15 16  1  0  0  0  0
 15 36  1  0  0  0  0
 16 17  2  0  0  0  0
 16 37  1  0  0  0  0
M  END
> <s_m_source_file>
AV-unprocessed.smi

> <i_m_source_file_index>
3149

> <i_lp_mmshare_version>
43012

> <i_f3d_flags>
0

> <s_epik_input>
bjFbY0hdW2NIXVtjSF1uMVtDQEBIXShbQ0gzXSlbQ0BIXShbQ0gzXSlbTkhdW0NIMl1DKD1PKU4yW0NIMl1bQ0gyXVtDSDJdMg==

> <s_epik_cmdline>
J2VwaWtfcHl0aG9uJywgJy1waCcsICc3LjAnLCAnLXRuJywgJzgnLCAnLW1hJywgJzIwMCcsICctbWV0YWxfYmluZGluZycsICctaW1hZScsICc8aW5maWxlLm1hZT4nLCAnLW9tYWUnLCAnPG91dGZpbGUubWFlPic=

> <r_lp_tautomer_probability>
1

> <r_epik_Ionization_Penalty>
0.918674

> <r_epik_Ionization_Penalty_Charging>
0

> <r_epik_Ionization_Penalty_Neutral>
0.918674

> <r_epik_State_Penalty>
0.958258

> <r_epik_Charging_Adjusted_Penalty>
0.958258

> <i_epik_Tot_Q>
0

> <i_epik_Tot_abs_Q>
0

> <r_epik_Metal_State_Penalty>
0.956881

> <b_epik_Metal_Only>
0

> <s_lp_Force_Field>
OPLS_2005

> <r_lp_Energy>
23.4298

> <b_lp_Chiralities_Consistent>
1

> <s_lp_Variant>
AV-unprocessed.smi:3149-6

> <Gold.Version>
5.8.1

> <Gold.Id.Protein>
6NUR|6NUR_protein|mol2

> <Gold.PLP.Fitness>
44.2668

> <Gold.PLP.PLP>
-43.9689

> <Gold.PLP.part.hbond>
-1.0000

> <Gold.PLP.part.metal>
0.0000

> <Gold.PLP.part.buried>
-3.7191

> <Gold.PLP.part.nonpolar>
-38.2481

> <Gold.PLP.part.repulsive>
0.1186

> <Gold.PLP.ligand.clash>
0.0000

> <Gold.PLP.ligand.torsion>
1.8120

> <Gold.PLP.Chemscore.Hbond>
1.0000

> <Gold.PLP.Chemscore.CHOScore>
0.0000

> <Gold.PLP.Chemscore.Metal>
0.0000

> <Gold.Chemscore.Hbonds>
donor molecule, donor type, donor heavy atom, donor atom, acceptor molecule, acceptor atom, score
      P1  H  7989  7998       L1     6  1.00

> <Gold.PLP.Chemscore.Internal.Correction>
0.9218

> <Gold.Rescore>
     Score         DG    S(hbond)    S(metal)    S(lipo)     H(rot)  DE(clash)    DE(int)     intcor
     13.96     -16.13       0.96        0.00     102.76       1.79       0.08       2.09       ----

> <Gold.Chemscore.Fitness>
13.9633

> <Gold.Chemscore.DG>
-16.1334

> <Gold.Chemscore.ZeroCoef>
-5.4800

> <Gold.Chemscore.Hbond>
0.9599

> <Gold.Chemscore.Metal>
0.0000

> <Gold.Chemscore.Lipo>
102.7608

> <Gold.Chemscore.Internal_Hbond>
0.0000

> <Gold.Chemscore.DEClash>
0.0833

> <Gold.Chemscore.DEInternal>
2.0867

> <Gold.Chemscore.Rot>
1.7874

> <Gold.Chemscore.Internal.Correction>
   9.000000E+99

> <Gold.Chemscore.Hbonds>
donor molecule, donor type, donor heavy atom, donor atom, acceptor molecule, acceptor atom, score
      P1  H  7989  7998       L1     6  0.92

> <Gold.Chemscore.Hbond.Weighted>
-3.2062

> <Gold.Chemscore.Metal.Weighted>
-0.0000

> <Gold.Chemscore.Lipo.Weighted>
-12.0230

> <Gold.Chemscore.Internal_Hbond.Weighted>
0.0000

> <Gold.Chemscore.DEClash.Weighted>
0.0833

> <Gold.Chemscore.DEInternal.Weighted>
2.0867

> <Gold.Chemscore.Rot.Weighted>
4.5758

> <Gold.Chemscore.Internal.Correction.Weighted>
   9.000000E+99

> <Gold.Protein.RotatedTorsions>
[ 6907 6896 6895 6894 ] final -145.36 input  -60.11 | X-H torsion
[ 7974 7965 7964 7962 ] final -142.45 input  175.53 | X-H torsion
[ 8008 7997 7996 7995 ] final -153.19 input   59.86 | X-H torsion
[ 10167 10162 10161 10158 ] final -109.72 input  -65.29 | X-H torsion
[ 10718 10713 10712 10709 ] final -137.89 input   66.30 | X-H torsion
[ 10763 10752 10751 10750 ] final   86.42 input  -60.55 | X-H torsion
[ 11005 11000 10999 10996 ] final -137.79 input  -57.11 | X-H torsion

> <Gold.Protein.ActiveResidues>
 VAL166  LYS551  ARG553  GLY616  TRP617  ASP618  TYR619  PRO620  LYS621  CYS622 
 ASP623  PHE694  ASN695  SER759  ASP760  ASP761  ALA762  ILE779  LEU786  VAL792 
 PHE793  MET794  SER795  GLU796  ALA797  LYS798  CYS799  TRP800  GLU811  SER814 

> <Gold.Protein.RotatedAtoms>
  151.1267  133.5065  159.2600 H   0  0  0  0  0  0  0  0  0  0  0  0  # atno 6907 bound_to 6896
  151.1802  135.0357  159.8799 H   0  0  0  0  0  0  0  0  0  0  0  0  # atno 6908 bound_to 6896
  152.5458  134.1120  159.8416 H   0  0  0  0  0  0  0  0  0  0  0  0  # atno 6909 bound_to 6896
  144.8442  140.5956  143.5432 H   0  0  0  0  0  0  0  0  0  0  0  0  # atno 7974 bound_to 7965
  155.6670  140.0729  157.2534 H   0  0  0  0  0  0  0  0  0  0  0  0  # atno 8008 bound_to 7997
  154.4131  140.1706  156.1889 H   0  0  0  0  0  0  0  0  0  0  0  0  # atno 8009 bound_to 7997
  155.9649  140.3367  155.6526 H   0  0  0  0  0  0  0  0  0  0  0  0  # atno 8010 bound_to 7997
  140.1523  143.4189  152.1486 H   0  0  0  0  0  0  0  0  0  0  0  0  # atno 10167 bound_to 10162
  156.2932  130.7387  151.1418 H   0  0  0  0  0  0  0  0  0  0  0  0  # atno 10718 bound_to 10713
  153.1569  135.4581  154.9717 H   0  0  0  0  0  0  0  0  0  0  0  0  # atno 10763 bound_to 10752
  154.7868  135.3207  154.7870 H   0  0  0  0  0  0  0  0  0  0  0  0  # atno 10764 bound_to 10752
  153.8366  135.6934  153.4862 H   0  0  0  0  0  0  0  0  0  0  0  0  # atno 10765 bound_to 10752
  140.8678  134.2089  157.4669 H   0  0  0  0  0  0  0  0  0  0  0  0  # atno 11005 bound_to 11000
  145.4631  139.1511  143.3855 LP  0  0  0  0  0  0  0  0  0  0  0  0  # atno 17320 bound_to 7965
  146.2729  140.4762  142.8807 LP  0  0  0  0  0  0  0  0  0  0  0  0  # atno 17321 bound_to 7965
  139.5420  144.7265  151.4703 LP  0  0  0  0  0  0  0  0  0  0  0  0  # atno 17342 bound_to 10162
  140.6695  143.8325  150.6982 LP  0  0  0  0  0  0  0  0  0  0  0  0  # atno 17343 bound_to 10162
  157.7348  131.0578  150.5504 LP  0  0  0  0  0  0  0  0  0  0  0  0  # atno 17370 bound_to 10713
  156.5623  130.4258  149.6057 LP  0  0  0  0  0  0  0  0  0  0  0  0  # atno 17371 bound_to 10713
  139.8710  134.9760  156.4904 LP  0  0  0  0  0  0  0  0  0  0  0  0  # atno 17394 bound_to 11000
  140.8609  133.8061  155.9264 LP  0  0  0  0  0  0  0  0  0  0  0  0  # atno 17395 bound_to 11000

$$$$
