AV-unprocessed.smi:2718|AV-procd|sdf|10492|dock9
  -GOLD-   2272014543D 1   1.00000     0.00000
 Structure written by MMmdl.
 47 48  0  0  0  0  0  0  0  0  1 V2000
  154.5136  140.4513  160.5186 C   0  0  0  0  0  0  0  0  0  0  0  0
  153.4969  141.5549  160.7333 C   0  0  0  0  0  0  0  0  0  0  0  0
  153.5126  142.1706  162.1212 C   0  0  0  0  0  0  0  0  0  0  0  0
  152.6530  141.9390  159.7562 C   0  0  0  0  0  0  0  0  0  0  0  0
  151.6089  143.0008  159.8414 C   0  0  2  0  0  0  0  0  0  0  0  0
  150.5401  143.2563  158.7828 C   0  0  2  0  0  0  0  0  0  0  0  0
  150.4735  142.4347  157.5254 C   0  0  0  0  0  0  0  0  0  0  0  0
  151.4323  142.2109  156.7865 O   0  0  0  0  0  0  0  0  0  0  0  0
  149.2480  141.9497  157.2767 N   0  0  0  0  0  0  0  0  0  0  0  0
  148.8796  141.1090  156.1404 C   0  0  0  0  0  0  0  0  0  0  0  0
  148.0037  141.8370  155.0951 C   0  0  1  0  0  0  0  0  0  0  0  0
  147.8058  140.9895  153.8300 C   0  0  0  0  0  0  0  0  0  0  0  0
  146.6886  142.3066  155.6581 C   0  0  0  0  0  0  0  0  0  0  0  0
  146.2903  142.0571  156.9130 N   0  0  0  0  0  0  0  0  0  0  0  0
  145.0510  142.6516  157.0377 N   0  0  0  0  0  0  0  0  0  0  0  0
  144.8196  143.1965  155.8446 C   0  0  0  0  0  0  0  0  0  0  0  0
  145.7938  143.0183  154.9400 N   0  0  0  0  0  0  0  0  0  0  0  0
  145.8397  143.4770  153.5658 C   0  0  0  0  0  0  0  0  0  0  0  0
  151.6649  144.2648  158.9980 C   0  0  0  0  0  0  0  0  0  0  0  0
  151.3002  145.5942  159.6363 C   0  0  0  0  0  0  0  0  0  0  0  0
  152.7957  144.4932  157.9978 C   0  0  0  0  0  0  0  0  0  0  0  0
  155.5234  140.8307  160.6763 H   0  0  0  0  0  0  0  0  0  0  0  0
  154.4580  140.0449  159.5083 H   0  0  0  0  0  0  0  0  0  0  0  0
  154.3388  139.6363  161.2213 H   0  0  0  0  0  0  0  0  0  0  0  0
  153.2653  141.4151  162.8672 H   0  0  0  0  0  0  0  0  0  0  0  0
  152.8003  142.9887  162.2231 H   0  0  0  0  0  0  0  0  0  0  0  0
  154.5045  142.5623  162.3472 H   0  0  0  0  0  0  0  0  0  0  0  0
  152.7264  141.4456  158.7981 H   0  0  0  0  0  0  0  0  0  0  0  0
  151.2888  143.1290  160.8738 H   0  0  0  0  0  0  0  0  0  0  0  0
  149.5668  143.5543  159.1705 H   0  0  0  0  0  0  0  0  0  0  0  0
  148.5101  142.1783  157.9275 H   0  0  0  0  0  0  0  0  0  0  0  0
  149.7769  140.7010  155.6723 H   0  0  0  0  0  0  0  0  0  0  0  0
  148.3308  140.2573  156.5436 H   0  0  0  0  0  0  0  0  0  0  0  0
  148.5655  142.7155  154.7796 H   0  0  0  0  0  0  0  0  0  0  0  0
  147.2570  141.5448  153.0689 H   0  0  0  0  0  0  0  0  0  0  0  0
  147.2474  140.0780  154.0453 H   0  0  0  0  0  0  0  0  0  0  0  0
  148.7640  140.6980  153.3992 H   0  0  0  0  0  0  0  0  0  0  0  0
  143.9116  143.7387  155.6244 H   0  0  0  0  0  0  0  0  0  0  0  0
  144.9632  144.0861  153.3433 H   0  0  0  0  0  0  0  0  0  0  0  0
  145.8570  142.6194  152.8931 H   0  0  0  0  0  0  0  0  0  0  0  0
  146.7351  144.0767  153.4049 H   0  0  0  0  0  0  0  0  0  0  0  0
  150.9645  146.3006  158.8765 H   0  0  0  0  0  0  0  0  0  0  0  0
  152.1618  146.0188  160.1523 H   0  0  0  0  0  0  0  0  0  0  0  0
  150.4976  145.4686  160.3638 H   0  0  0  0  0  0  0  0  0  0  0  0
  152.4529  145.1303  157.1825 H   0  0  0  0  0  0  0  0  0  0  0  0
  153.1727  143.5650  157.5731 H   0  0  0  0  0  0  0  0  0  0  0  0
  153.6344  144.9887  158.4877 H   0  0  0  0  0  0  0  0  0  0  0  0
  1  2  1  0  0  0  0
  1 22  1  0  0  0  0
  1 23  1  0  0  0  0
  1 24  1  0  0  0  0
  2  3  1  0  0  0  0
  2  4  2  0  0  0  0
  3 25  1  0  0  0  0
  3 26  1  0  0  0  0
  3 27  1  0  0  0  0
  4  5  1  0  0  0  0
  4 28  1  0  0  0  0
  5 19  1  0  0  0  0
  5  6  1  0  0  0  0
  5 29  1  0  0  0  0
  6  7  1  0  0  0  0
  6 19  1  0  0  0  0
  6 30  1  0  0  0  0
  7  8  2  0  0  0  0
  7  9  1  0  0  0  0
  9 10  1  0  0  0  0
  9 31  1  0  0  0  0
 10 11  1  0  0  0  0
 10 32  1  0  0  0  0
 10 33  1  0  0  0  0
 11 12  1  0  0  0  0
 11 13  1  0  0  0  0
 11 34  1  0  0  0  0
 12 35  1  0  0  0  0
 12 36  1  0  0  0  0
 12 37  1  0  0  0  0
 13 17  1  0  0  0  0
 13 14  2  0  0  0  0
 14 15  1  0  0  0  0
 15 16  2  0  0  0  0
 16 17  1  0  0  0  0
 16 38  1  0  0  0  0
 17 18  1  0  0  0  0
 18 39  1  0  0  0  0
 18 40  1  0  0  0  0
 18 41  1  0  0  0  0
 19 20  1  0  0  0  0
 19 21  1  0  0  0  0
 20 42  1  0  0  0  0
 20 43  1  0  0  0  0
 20 44  1  0  0  0  0
 21 45  1  0  0  0  0
 21 46  1  0  0  0  0
 21 47  1  0  0  0  0
M  END
> <s_m_source_file>
AV-unprocessed.smi

> <i_m_source_file_index>
2718

> <i_lp_mmshare_version>
43012

> <i_f3d_flags>
0

> <s_epik_input>
W0NIM11DKFtDSDNdKT1bQ0hdW0NAQEhdKEMxKFtDSDNdKVtDSDNdKVtDQEhdMUMoPU8pW05IXVtDSDJdW0NASF0oW0NIM10pYzJubltjSF1uMltDSDNd

> <s_epik_cmdline>
J2VwaWtfcHl0aG9uJywgJy1waCcsICc3LjAnLCAnLXRuJywgJzgnLCAnLW1hJywgJzIwMCcsICctbWV0YWxfYmluZGluZycsICctaW1hZScsICc8aW5maWxlLm1hZT4nLCAnLW9tYWUnLCAnPG91dGZpbGUubWFlPic=

> <r_lp_tautomer_probability>
1

> <r_epik_Ionization_Penalty>
0.000449586

> <r_epik_Ionization_Penalty_Charging>
0

> <r_epik_Ionization_Penalty_Neutral>
0.000449586

> <r_epik_State_Penalty>
0.000243372

> <r_epik_Charging_Adjusted_Penalty>
0.000243372

> <i_epik_Tot_Q>
0

> <i_epik_Tot_abs_Q>
0

> <r_epik_Metal_State_Penalty>
-0

> <b_epik_Metal_Only>
0

> <s_lp_Force_Field>
OPLS_2005

> <r_lp_Energy>
15.6704

> <b_lp_Chiralities_Consistent>
1

> <s_lp_Variant>
AV-unprocessed.smi:2718-7

> <Gold.Version>
5.8.1

> <Gold.Id.Protein>
6NUR|6NUR_protein|mol2

> <Gold.PLP.Fitness>
45.3471

> <Gold.PLP.PLP>
-46.1210

> <Gold.PLP.part.hbond>
-0.4174

> <Gold.PLP.part.metal>
0.0000

> <Gold.PLP.part.buried>
-0.6229

> <Gold.PLP.part.nonpolar>
-44.1914

> <Gold.PLP.part.repulsive>
0.2660

> <Gold.PLP.ligand.clash>
0.0000

> <Gold.PLP.ligand.torsion>
0.5467

> <Gold.PLP.Chemscore.Hbond>
0.0000

> <Gold.PLP.Chemscore.CHOScore>
0.0000

> <Gold.PLP.Chemscore.Metal>
0.0000

> <Gold.PLP.Chemscore.Internal.Correction>
0.3195

> <Gold.Rescore>
     Score         DG    S(hbond)    S(metal)    S(lipo)     H(rot)  DE(clash)    DE(int)     intcor
     10.91     -14.91       0.00        0.00     123.37       1.95       1.07       2.93       ----

> <Gold.Chemscore.Fitness>
10.9138

> <Gold.Chemscore.DG>
-14.9135

> <Gold.Chemscore.ZeroCoef>
-5.4800

> <Gold.Chemscore.Hbond>
0.0000

> <Gold.Chemscore.Metal>
0.0000

> <Gold.Chemscore.Lipo>
123.3678

> <Gold.Chemscore.Internal_Hbond>
0.0000

> <Gold.Chemscore.DEClash>
1.0710

> <Gold.Chemscore.DEInternal>
2.9287

> <Gold.Chemscore.Rot>
1.9533

> <Gold.Chemscore.Internal.Correction>
   9.000000E+99

> <Gold.Chemscore.Hbond.Weighted>
-0.0000

> <Gold.Chemscore.Metal.Weighted>
-0.0000

> <Gold.Chemscore.Lipo.Weighted>
-14.4340

> <Gold.Chemscore.Internal_Hbond.Weighted>
0.0000

> <Gold.Chemscore.DEClash.Weighted>
1.0710

> <Gold.Chemscore.DEInternal.Weighted>
2.9287

> <Gold.Chemscore.Rot.Weighted>
5.0005

> <Gold.Chemscore.Internal.Correction.Weighted>
   9.000000E+99

> <Gold.Protein.RotatedTorsions>
[ 6907 6896 6895 6894 ] final   25.36 input  -60.11 | X-H torsion
[ 7974 7965 7964 7962 ] final  -37.52 input  175.53 | X-H torsion
[ 8008 7997 7996 7995 ] final  140.97 input   59.86 | X-H torsion
[ 10167 10162 10161 10158 ] final   57.64 input  -65.29 | X-H torsion
[ 10718 10713 10712 10709 ] final   56.94 input   66.30 | X-H torsion
[ 10763 10752 10751 10750 ] final   87.10 input  -60.55 | X-H torsion
[ 11005 11000 10999 10996 ] final -165.68 input  -57.11 | X-H torsion

> <Gold.Protein.ActiveResidues>
 VAL166  LYS551  ARG553  GLY616  TRP617  ASP618  TYR619  PRO620  LYS621  CYS622 
 ASP623  PHE694  ASN695  SER759  ASP760  ASP761  ALA762  ILE779  LEU786  VAL792 
 PHE793  MET794  SER795  GLU796  ALA797  LYS798  CYS799  TRP800  GLU811  SER814 

> <Gold.Protein.RotatedAtoms>
  151.9713  135.0075  160.0552 H   0  0  0  0  0  0  0  0  0  0  0  0  # atno 6907 bound_to 6896
  152.1780  133.4683  159.4952 H   0  0  0  0  0  0  0  0  0  0  0  0  # atno 6908 bound_to 6896
  150.6912  134.1786  159.4283 H   0  0  0  0  0  0  0  0  0  0  0  0  # atno 6909 bound_to 6896
  146.0568  140.6405  142.9016 H   0  0  0  0  0  0  0  0  0  0  0  0  # atno 7974 bound_to 7965
  156.2972  140.2327  156.4488 H   0  0  0  0  0  0  0  0  0  0  0  0  # atno 8008 bound_to 7997
  154.8120  140.0442  157.1370 H   0  0  0  0  0  0  0  0  0  0  0  0  # atno 8009 bound_to 7997
  154.9412  140.3029  155.5123 H   0  0  0  0  0  0  0  0  0  0  0  0  # atno 8010 bound_to 7997
  140.1958  144.4039  150.6551 H   0  0  0  0  0  0  0  0  0  0  0  0  # atno 10167 bound_to 10162
  157.5473  130.8740  149.8910 H   0  0  0  0  0  0  0  0  0  0  0  0  # atno 10718 bound_to 10713
  153.1635  135.4556  154.9805 H   0  0  0  0  0  0  0  0  0  0  0  0  # atno 10763 bound_to 10752
  154.7915  135.3222  154.7769 H   0  0  0  0  0  0  0  0  0  0  0  0  # atno 10764 bound_to 10752
  153.8255  135.6943  153.4876 H   0  0  0  0  0  0  0  0  0  0  0  0  # atno 10765 bound_to 10752
  140.5730  134.5219  157.5165 H   0  0  0  0  0  0  0  0  0  0  0  0  # atno 11005 bound_to 11000
  144.7152  140.4184  143.7050 LP  0  0  0  0  0  0  0  0  0  0  0  0  # atno 17320 bound_to 7965
  145.6630  139.1585  143.2797 LP  0  0  0  0  0  0  0  0  0  0  0  0  # atno 17321 bound_to 7965
  140.6424  143.2206  151.6260 LP  0  0  0  0  0  0  0  0  0  0  0  0  # atno 17342 bound_to 10162
  139.5237  144.3125  152.0980 LP  0  0  0  0  0  0  0  0  0  0  0  0  # atno 17343 bound_to 10162
  156.0546  130.3711  150.1121 LP  0  0  0  0  0  0  0  0  0  0  0  0  # atno 17370 bound_to 10713
  156.9296  130.9709  151.3535 LP  0  0  0  0  0  0  0  0  0  0  0  0  # atno 17371 bound_to 10713
  139.9353  134.7887  156.0820 LP  0  0  0  0  0  0  0  0  0  0  0  0  # atno 17394 bound_to 11000
  141.1044  133.6665  156.2830 LP  0  0  0  0  0  0  0  0  0  0  0  0  # atno 17395 bound_to 11000

$$$$
