AV-unprocessed.smi:229|AV-procd|sdf|1762|dock2
  -GOLD-   2262020293D 1   1.00000     0.00000
 Structure written by MMmdl.
 58 62  0  0  0  0  0  0  0  0  1 V2000
  149.1633  141.6956  154.6908 C   0  0  0  0  0  0  0  0  0  0  0  0
  150.1817  140.7298  155.3091 C   0  0  0  0  0  0  0  0  0  0  0  0
  150.5763  141.1166  156.7421 C   0  0  1  0  0  0  0  0  0  0  0  0
  151.7130  140.2340  157.2830 C   0  0  0  0  0  0  0  0  0  0  0  0
  152.0979  140.6973  158.6079 N   0  0  0  0  0  0  0  0  0  0  0  0
  152.9370  139.8881  159.2873 C   0  0  0  0  0  0  0  0  0  0  0  0
  153.1057  138.6339  158.8014 N   0  0  0  0  0  0  0  0  0  0  0  0
  153.9186  137.7777  159.4283 C   0  0  0  0  0  0  0  0  0  0  0  0
  154.6383  137.9684  160.5365 N   0  0  0  0  0  0  0  0  0  0  0  0
  154.4608  139.2266  161.0319 C   0  0  0  0  0  0  0  0  0  0  0  0
  153.6336  140.2434  160.4773 C   0  0  0  0  0  0  0  0  0  0  0  0
  153.6981  141.3868  161.2653 N   0  0  0  0  0  0  0  0  0  0  0  0
  154.5223  141.0669  162.2258 C   0  0  0  0  0  0  0  0  0  0  0  0
  155.0305  139.7894  162.1593 N   0  0  0  0  0  0  0  0  0  0  0  0
  155.9608  139.1693  163.0867 C   0  0  0  0  0  0  0  0  0  0  0  0
  155.3264  138.8962  164.4678 C   0  0  1  0  0  0  0  0  0  0  0  0
  155.6059  137.5550  164.8214 O   0  0  0  0  0  0  0  0  0  0  0  0
  155.8857  139.8045  165.5813 C   0  0  1  0  0  0  0  0  0  0  0  0
  155.3954  141.2530  165.5351 C   0  0  0  0  0  0  0  0  0  0  0  0
  155.5634  141.7306  166.9674 C   0  0  0  0  0  0  0  0  0  0  0  0
  155.6240  140.4348  167.7794 C   0  0  0  0  0  0  0  0  0  0  0  0
  155.3796  139.3938  166.8431 O   0  0  0  0  0  0  0  0  0  0  0  0
  152.5106  142.0927  158.6152 C   0  0  0  0  0  0  0  0  0  0  0  0
  151.4038  142.9924  158.0158 C   0  0  2  0  0  0  0  0  0  0  0  0
  151.9081  144.4175  157.8079 C   0  0  0  0  0  0  0  0  0  0  0  0
  151.4233  145.1477  159.0509 C   0  0  0  0  0  0  0  0  0  0  0  0
  150.1329  144.5981  159.2377 O   0  0  0  0  0  0  0  0  0  0  0  0
  150.2061  143.2022  158.9725 C   0  0  0  0  0  0  0  0  0  0  0  0
  151.0089  142.4796  156.7388 O   0  0  0  0  0  0  0  0  0  0  0  0
  148.8991  141.3859  153.6795 H   0  0  0  0  0  0  0  0  0  0  0  0
  149.5617  142.7090  154.6337 H   0  0  0  0  0  0  0  0  0  0  0  0
  148.2454  141.7295  155.2785 H   0  0  0  0  0  0  0  0  0  0  0  0
  149.7556  139.7260  155.3099 H   0  0  0  0  0  0  0  0  0  0  0  0
  151.0720  140.6845  154.6805 H   0  0  0  0  0  0  0  0  0  0  0  0
  149.7030  141.0002  157.3844 H   0  0  0  0  0  0  0  0  0  0  0  0
  151.3926  139.1924  157.3333 H   0  0  0  0  0  0  0  0  0  0  0  0
  152.5662  140.2809  156.6059 H   0  0  0  0  0  0  0  0  0  0  0  0
  154.0040  136.7999  158.9780 H   0  0  0  0  0  0  0  0  0  0  0  0
  154.7858  141.7594  163.0122 H   0  0  0  0  0  0  0  0  0  0  0  0
  156.3281  138.2413  162.6462 H   0  0  0  0  0  0  0  0  0  0  0  0
  156.8216  139.8314  163.1820 H   0  0  0  0  0  0  0  0  0  0  0  0
  154.2451  139.0239  164.4012 H   0  0  0  0  0  0  0  0  0  0  0  0
  156.5424  137.4563  164.9016 H   0  0  0  0  0  0  0  0  0  0  0  0
  156.9775  139.7854  165.5946 H   0  0  0  0  0  0  0  0  0  0  0  0
  155.9451  141.8655  164.8198 H   0  0  0  0  0  0  0  0  0  0  0  0
  154.3392  141.2824  165.2636 H   0  0  0  0  0  0  0  0  0  0  0  0
  156.4878  142.2967  167.0871 H   0  0  0  0  0  0  0  0  0  0  0  0
  154.7346  142.3700  167.2732 H   0  0  0  0  0  0  0  0  0  0  0  0
  156.6137  140.3022  168.2189 H   0  0  0  0  0  0  0  0  0  0  0  0
  154.8880  140.4113  168.5837 H   0  0  0  0  0  0  0  0  0  0  0  0
  152.7528  142.4103  159.6307 H   0  0  0  0  0  0  0  0  0  0  0  0
  153.4250  142.1866  158.0275 H   0  0  0  0  0  0  0  0  0  0  0  0
  152.9873  144.4869  157.6676 H   0  0  0  0  0  0  0  0  0  0  0  0
  151.4334  144.8599  156.9307 H   0  0  0  0  0  0  0  0  0  0  0  0
  152.0522  144.9215  159.9134 H   0  0  0  0  0  0  0  0  0  0  0  0
  151.3869  146.2295  158.9200 H   0  0  0  0  0  0  0  0  0  0  0  0
  149.2572  142.8755  158.5482 H   0  0  0  0  0  0  0  0  0  0  0  0
  150.3493  142.6675  159.9124 H   0  0  0  0  0  0  0  0  0  0  0  0
  1  2  1  0  0  0  0
  1 30  1  0  0  0  0
  1 31  1  0  0  0  0
  1 32  1  0  0  0  0
  2  3  1  0  0  0  0
  2 33  1  0  0  0  0
  2 34  1  0  0  0  0
  3 29  1  0  0  0  0
  3  4  1  0  0  0  0
  3 35  1  0  0  0  0
  4  5  1  0  0  0  0
  4 36  1  0  0  0  0
  4 37  1  0  0  0  0
  5  6  1  0  0  0  0
  5 23  1  0  0  0  0
  6 11  1  0  0  0  0
  6  7  2  0  0  0  0
  7  8  1  0  0  0  0
  8  9  2  0  0  0  0
  8 38  1  0  0  0  0
  9 10  1  0  0  0  0
 10 14  1  0  0  0  0
 10 11  2  0  0  0  0
 11 12  1  0  0  0  0
 12 13  2  0  0  0  0
 13 14  1  0  0  0  0
 13 39  1  0  0  0  0
 14 15  1  0  0  0  0
 15 16  1  0  0  0  0
 15 40  1  0  0  0  0
 15 41  1  0  0  0  0
 16 17  1  0  0  0  0
 16 18  1  0  0  0  0
 16 42  1  0  0  0  0
 17 43  1  0  0  0  0
 18 22  1  0  0  0  0
 18 19  1  0  0  0  0
 18 44  1  0  0  0  0
 19 20  1  0  0  0  0
 19 45  1  0  0  0  0
 19 46  1  0  0  0  0
 20 21  1  0  0  0  0
 20 47  1  0  0  0  0
 20 48  1  0  0  0  0
 21 22  1  0  0  0  0
 21 49  1  0  0  0  0
 21 50  1  0  0  0  0
 23 24  1  0  0  0  0
 23 51  1  0  0  0  0
 23 52  1  0  0  0  0
 24 28  1  0  0  0  0
 24 25  1  0  0  0  0
 24 29  1  0  0  0  0
 25 26  1  0  0  0  0
 25 53  1  0  0  0  0
 25 54  1  0  0  0  0
 26 27  1  0  0  0  0
 26 55  1  0  0  0  0
 26 56  1  0  0  0  0
 27 28  1  0  0  0  0
 28 57  1  0  0  0  0
 28 58  1  0  0  0  0
M  END
> <s_m_source_file>
AV-unprocessed.smi

> <i_m_source_file_index>
229

> <i_lp_mmshare_version>
43012

> <i_f3d_flags>
0

> <s_epik_input>
W0NIMl0xT1tDSDJdW0NIMl1bQ0BdMTJbQ0gyXU4oW0NIMl1bQ0BIXShPMilbQ0gyXVtDSDNdKWMobltjSF1uMyljKGMzNCluW2NIXW40W0NIMl1bQ0BIXShbT0hdKVtDQEBIXTVbQ0gyXVtDSDJdW0NIMl1PNQ==

> <s_epik_cmdline>
J2VwaWtfcHl0aG9uJywgJy1waCcsICc3LjAnLCAnLXRuJywgJzgnLCAnLW1hJywgJzIwMCcsICctbWV0YWxfYmluZGluZycsICctaW1hZScsICc8aW5maWxlLm1hZT4nLCAnLW9tYWUnLCAnPG91dGZpbGUubWFlPic=

> <r_lp_tautomer_probability>
1

> <r_epik_Ionization_Penalty>
0.00318402

> <r_epik_Ionization_Penalty_Charging>
0

> <r_epik_Ionization_Penalty_Neutral>
0.00318402

> <r_epik_State_Penalty>
0.00215642

> <r_epik_Charging_Adjusted_Penalty>
0.00215642

> <i_epik_Tot_Q>
0

> <i_epik_Tot_abs_Q>
0

> <r_epik_Metal_State_Penalty>
-0

> <b_epik_Metal_Only>
0

> <s_lp_Force_Field>
OPLS_2005

> <r_lp_Energy>
58.1289

> <b_lp_Chiralities_Consistent>
1

> <s_lp_Variant>
AV-unprocessed.smi:229-16

> <Gold.Version>
5.8.1

> <Gold.Id.Protein>
6NUR|6NUR_protein|mol2

> <Gold.PLP.Fitness>
45.0456

> <Gold.PLP.PLP>
-47.5877

> <Gold.PLP.part.hbond>
-0.5274

> <Gold.PLP.part.metal>
0.0000

> <Gold.PLP.part.buried>
-5.2522

> <Gold.PLP.part.nonpolar>
-40.9235

> <Gold.PLP.part.repulsive>
0.4114

> <Gold.PLP.ligand.clash>
0.0000

> <Gold.PLP.ligand.torsion>
1.4109

> <Gold.PLP.Chemscore.Hbond>
0.0000

> <Gold.PLP.Chemscore.CHOScore>
0.0000

> <Gold.PLP.Chemscore.Metal>
0.0000

> <Gold.PLP.Chemscore.Internal.Correction>
0.2797

> <Gold.Rescore>
     Score         DG    S(hbond)    S(metal)    S(lipo)     H(rot)  DE(clash)    DE(int)     intcor
     10.61     -12.99       0.00        0.00     117.96       2.46       0.07       2.30       ----

> <Gold.Chemscore.Fitness>
10.6132

> <Gold.Chemscore.DG>
-12.9857

> <Gold.Chemscore.ZeroCoef>
-5.4800

> <Gold.Chemscore.Hbond>
0.0000

> <Gold.Chemscore.Metal>
0.0000

> <Gold.Chemscore.Lipo>
117.9579

> <Gold.Chemscore.Internal_Hbond>
0.0000

> <Gold.Chemscore.DEClash>
0.0743

> <Gold.Chemscore.DEInternal>
2.2983

> <Gold.Chemscore.Rot>
2.4591

> <Gold.Chemscore.Internal.Correction>
   9.000000E+99

> <Gold.Chemscore.Hbond.Weighted>
-0.0000

> <Gold.Chemscore.Metal.Weighted>
-0.0000

> <Gold.Chemscore.Lipo.Weighted>
-13.8011

> <Gold.Chemscore.Internal_Hbond.Weighted>
0.0000

> <Gold.Chemscore.DEClash.Weighted>
0.0743

> <Gold.Chemscore.DEInternal.Weighted>
2.2983

> <Gold.Chemscore.Rot.Weighted>
6.2953

> <Gold.Chemscore.Internal.Correction.Weighted>
   9.000000E+99

> <Gold.Protein.RotatedTorsions>
[ 6907 6896 6895 6894 ] final   12.50 input  -60.11 | X-H torsion
[ 7974 7965 7964 7962 ] final  146.69 input  175.53 | X-H torsion
[ 8008 7997 7996 7995 ] final  155.54 input   59.86 | X-H torsion
[ 10167 10162 10161 10158 ] final  126.84 input  -65.29 | X-H torsion
[ 10718 10713 10712 10709 ] final   75.97 input   66.30 | X-H torsion
[ 10763 10752 10751 10750 ] final -171.32 input  -60.55 | X-H torsion
[ 11005 11000 10999 10996 ] final  -10.30 input  -57.11 | X-H torsion

> <Gold.Protein.ActiveResidues>
 VAL166  LYS551  ARG553  GLY616  TRP617  ASP618  TYR619  PRO620  LYS621  CYS622 
 ASP623  PHE694  ASN695  SER759  ASP760  ASP761  ALA762  ILE779  LEU786  VAL792 
 PHE793  MET794  SER795  GLU796  ALA797  LYS798  CYS799  TRP800  GLU811  SER814 

> <Gold.Protein.RotatedAtoms>
  151.7714  135.0785  160.0360 H   0  0  0  0  0  0  0  0  0  0  0  0  # atno 6907 bound_to 6896
  152.3286  133.5928  159.5802 H   0  0  0  0  0  0  0  0  0  0  0  0  # atno 6908 bound_to 6896
  150.7409  133.9818  159.3620 H   0  0  0  0  0  0  0  0  0  0  0  0  # atno 6909 bound_to 6896
  144.8651  139.5936  143.5913 H   0  0  0  0  0  0  0  0  0  0  0  0  # atno 7974 bound_to 7965
  156.2473  140.1937  156.6816 H   0  0  0  0  0  0  0  0  0  0  0  0  # atno 8008 bound_to 7997
  154.6317  140.0595  156.9766 H   0  0  0  0  0  0  0  0  0  0  0  0  # atno 8009 bound_to 7997
  155.1700  140.3267  155.4397 H   0  0  0  0  0  0  0  0  0  0  0  0  # atno 8010 bound_to 7997
  139.5609  144.6881  151.4045 H   0  0  0  0  0  0  0  0  0  0  0  0  # atno 10167 bound_to 10162
  157.6655  130.9752  150.1430 H   0  0  0  0  0  0  0  0  0  0  0  0  # atno 10718 bound_to 10713
  154.6318  135.2887  155.0207 H   0  0  0  0  0  0  0  0  0  0  0  0  # atno 10763 bound_to 10752
  154.1365  135.6525  153.4937 H   0  0  0  0  0  0  0  0  0  0  0  0  # atno 10764 bound_to 10752
  153.0283  135.5322  154.7149 H   0  0  0  0  0  0  0  0  0  0  0  0  # atno 10765 bound_to 10752
  140.7433  133.8652  155.8985 H   0  0  0  0  0  0  0  0  0  0  0  0  # atno 11005 bound_to 11000
  146.2889  139.7083  142.9175 LP  0  0  0  0  0  0  0  0  0  0  0  0  # atno 17320 bound_to 7965
  145.4238  141.0409  143.2949 LP  0  0  0  0  0  0  0  0  0  0  0  0  # atno 17321 bound_to 7965
  140.6889  143.7908  150.7226 LP  0  0  0  0  0  0  0  0  0  0  0  0  # atno 17342 bound_to 10162
  140.1385  143.4463  152.2209 LP  0  0  0  0  0  0  0  0  0  0  0  0  # atno 17343 bound_to 10162
  156.2248  130.3677  149.8513 LP  0  0  0  0  0  0  0  0  0  0  0  0  # atno 17370 bound_to 10713
  156.6356  130.8684  151.3504 LP  0  0  0  0  0  0  0  0  0  0  0  0  # atno 17371 bound_to 10713
  140.9817  134.1397  157.4488 LP  0  0  0  0  0  0  0  0  0  0  0  0  # atno 17394 bound_to 11000
  139.8802  135.0012  156.6057 LP  0  0  0  0  0  0  0  0  0  0  0  0  # atno 17395 bound_to 11000

$$$$
