AV-unprocessed.smi:2668|AV-procd|sdf|10338|dock1
  -GOLD-   2272014363D 1   1.00000     0.00000
 Structure written by MMmdl.
 54 55  0  0  0  0  0  0  0  0  3 V2000
  143.5437  136.1644  152.1912 C   0  0  0  0  0  0  0  0  0  0  0  0
  144.9815  135.7983  152.2339 N   0  3  0  0  0  0  0  0  0  0  0  0
  145.4081  135.2514  150.9215 C   0  0  0  0  0  0  0  0  0  0  0  0
  145.8694  136.8917  152.7456 C   0  0  2  0  0  0  0  0  0  0  0  0
  145.3381  137.5097  154.0592 C   0  0  0  0  0  0  0  0  0  0  0  0
  146.2169  138.6685  154.5594 C   0  0  0  0  0  0  0  0  0  0  0  0
  146.3330  139.7485  153.5366 N   0  3  1  0  0  0  0  0  0  0  0  0
  146.9566  141.0360  154.0181 C   0  0  0  0  0  0  0  0  0  0  0  0
  146.8132  142.1319  152.9313 C   0  0  0  0  0  0  0  0  0  0  0  0
  146.1783  141.5612  155.2519 C   0  0  0  0  0  0  0  0  0  0  0  0
  148.4635  140.8368  154.3632 C   0  0  0  0  0  0  0  0  0  0  0  0
  148.9926  141.8507  155.2746 N   0  0  0  0  0  0  0  0  0  0  0  0
  149.7903  141.6115  156.3257 C   0  0  0  0  0  0  0  0  0  0  0  0
  150.1590  140.4839  156.6529 O   0  0  0  0  0  0  0  0  0  0  0  0
  150.1309  142.7535  156.9466 N   0  0  0  0  0  0  0  0  0  0  0  0
  150.9509  142.9269  158.0945 C   0  0  0  0  0  0  0  0  0  0  0  0
  151.8897  141.9730  158.5577 C   0  0  0  0  0  0  0  0  0  0  0  0
  152.6300  142.2573  159.7213 C   0  0  0  0  0  0  0  0  0  0  0  0
  152.4009  143.4792  160.3833 C   0  0  0  0  0  0  0  0  0  0  0  0
  151.5001  144.3913  159.9613 N   0  0  0  0  0  0  0  0  0  0  0  0
  150.7937  144.1118  158.8453 C   0  0  0  0  0  0  0  0  0  0  0  0
  146.8994  139.1910  152.2743 C   0  0  0  0  0  0  0  0  0  0  0  0
  146.0353  138.0425  151.7265 C   0  0  0  0  0  0  0  0  0  0  0  0
  143.3865  137.0692  151.6027 H   0  0  0  0  0  0  0  0  0  0  0  0
  143.1360  136.3206  153.1891 H   0  0  0  0  0  0  0  0  0  0  0  0
  142.9499  135.3659  151.7448 H   0  0  0  0  0  0  0  0  0  0  0  0
  145.4895  136.0426  150.1751 H   0  0  0  0  0  0  0  0  0  0  0  0
  144.6936  134.5142  150.5534 H   0  0  0  0  0  0  0  0  0  0  0  0
  146.3650  134.7359  150.9898 H   0  0  0  0  0  0  0  0  0  0  0  0
  146.8528  136.4593  152.9391 H   0  0  0  0  0  0  0  0  0  0  0  0
  144.3157  137.8631  153.9170 H   0  0  0  0  0  0  0  0  0  0  0  0
  145.3028  136.7654  154.8537 H   0  0  0  0  0  0  0  0  0  0  0  0
  145.7698  139.0345  155.4811 H   0  0  0  0  0  0  0  0  0  0  0  0
  147.2049  138.2869  154.8182 H   0  0  0  0  0  0  0  0  0  0  0  0
  147.0613  143.1203  153.3200 H   0  0  0  0  0  0  0  0  0  0  0  0
  145.7919  142.1862  152.5523 H   0  0  0  0  0  0  0  0  0  0  0  0
  147.4798  141.9707  152.0845 H   0  0  0  0  0  0  0  0  0  0  0  0
  146.4486  142.5895  155.4944 H   0  0  0  0  0  0  0  0  0  0  0  0
  146.3805  140.9805  156.1515 H   0  0  0  0  0  0  0  0  0  0  0  0
  145.1017  141.5502  155.0780 H   0  0  0  0  0  0  0  0  0  0  0  0
  148.6436  139.8440  154.7764 H   0  0  0  0  0  0  0  0  0  0  0  0
  149.0701  140.8955  153.4602 H   0  0  0  0  0  0  0  0  0  0  0  0
  148.7427  142.8097  155.0809 H   0  0  0  0  0  0  0  0  0  0  0  0
  149.8131  143.6078  156.5125 H   0  0  0  0  0  0  0  0  0  0  0  0
  152.0466  141.0297  158.0584 H   0  0  0  0  0  0  0  0  0  0  0  0
  153.3538  141.5512  160.1011 H   0  0  0  0  0  0  0  0  0  0  0  0
  152.9507  143.7270  161.2791 H   0  0  0  0  0  0  0  0  0  0  0  0
  150.0805  144.8634  158.5391 H   0  0  0  0  0  0  0  0  0  0  0  0
  146.9593  139.9462  151.4936 H   0  0  0  0  0  0  0  0  0  0  0  0
  147.9146  138.8317  152.4454 H   0  0  0  0  0  0  0  0  0  0  0  0
  146.5114  137.6881  150.8129 H   0  0  0  0  0  0  0  0  0  0  0  0
  145.0562  138.4288  151.4390 H   0  0  0  0  0  0  0  0  0  0  0  0
  145.0531  135.0336  152.8903 H   0  0  0  0  0  0  0  0  0  0  0  0
  145.3821  140.0039  153.3112 H   0  0  0  0  0  0  0  0  0  0  0  0
  1  2  1  0  0  0  0
  1 24  1  0  0  0  0
  1 25  1  0  0  0  0
  1 26  1  0  0  0  0
  2  3  1  0  0  0  0
  2  4  1  0  0  0  0
  2 53  1  0  0  0  0
  3 27  1  0  0  0  0
  3 28  1  0  0  0  0
  3 29  1  0  0  0  0
  4 23  1  0  0  0  0
  4  5  1  0  0  0  0
  4 30  1  0  0  0  0
  5  6  1  0  0  0  0
  5 31  1  0  0  0  0
  5 32  1  0  0  0  0
  6  7  1  0  0  0  0
  6 33  1  0  0  0  0
  6 34  1  0  0  0  0
  7  8  1  0  0  0  0
  7 22  1  0  0  0  0
  7 54  1  0  0  0  0
  8  9  1  0  0  0  0
  8 10  1  0  0  0  0
  8 11  1  0  0  0  0
  9 35  1  0  0  0  0
  9 36  1  0  0  0  0
  9 37  1  0  0  0  0
 10 38  1  0  0  0  0
 10 39  1  0  0  0  0
 10 40  1  0  0  0  0
 11 12  1  0  0  0  0
 11 41  1  0  0  0  0
 11 42  1  0  0  0  0
 12 13  1  0  0  0  0
 12 43  1  0  0  0  0
 13 14  2  0  0  0  0
 13 15  1  0  0  0  0
 15 16  1  0  0  0  0
 15 44  1  0  0  0  0
 16 21  1  0  0  0  0
 16 17  2  0  0  0  0
 17 18  1  0  0  0  0
 17 45  1  0  0  0  0
 18 19  2  0  0  0  0
 18 46  1  0  0  0  0
 19 20  1  0  0  0  0
 19 47  1  0  0  0  0
 20 21  2  0  0  0  0
 21 48  1  0  0  0  0
 22 23  1  0  0  0  0
 22 49  1  0  0  0  0
 22 50  1  0  0  0  0
 23 51  1  0  0  0  0
 23 52  1  0  0  0  0
M  CHG  1   2   1
M  CHG  1   7   1
M  END
> <s_m_source_file>
AV-unprocessed.smi

> <i_m_source_file_index>
2668

> <i_lp_mmshare_version>
43012

> <i_f3d_flags>
0

> <s_epik_input>
W0NIM11OKFtDSDNdKVtDSF0xW0NIMl1bQ0gyXU4oW0NIMl1bQ0gyXTEpQyhbQ0gzXSkoW0NIM10pW0NIMl1bTkhdQyg9TylbTkhdYzJbY0hdW2NIXVtjSF1uW2NIXTI=

> <s_epik_cmdline>
J2VwaWtfcHl0aG9uJywgJy1waCcsICc3LjAnLCAnLXRuJywgJzgnLCAnLW1hJywgJzIwMCcsICctbWV0YWxfYmluZGluZycsICctaW1hZScsICc8aW5maWxlLm1hZT4nLCAnLW9tYWUnLCAnPG91dGZpbGUubWFlPic=

> <r_epik_Ionization_Penalty>
0.210461

> <r_epik_Ionization_Penalty_Charging>
0.206231

> <r_epik_Ionization_Penalty_Neutral>
0.00422959

> <r_epik_State_Penalty>
0.176025

> <r_epik_Charging_Adjusted_Penalty>
0.382256

> <i_epik_Tot_Q>
2

> <i_epik_Tot_abs_Q>
2

> <r_epik_Metal_State_Penalty>
0.176152

> <b_epik_Metal_Only>
0

> <s_lp_Force_Field>
OPLS_2005

> <r_lp_Energy>
43.7891

> <b_lp_Chiralities_Consistent>
1

> <s_lp_Variant>
AV-unprocessed.smi:2668-1

> <Gold.Version>
5.8.1

> <Gold.Id.Protein>
6NUR|6NUR_protein|mol2

> <Gold.PLP.Fitness>
50.9354

> <Gold.PLP.PLP>
-38.0282

> <Gold.PLP.part.hbond>
-2.9163

> <Gold.PLP.part.metal>
0.0000

> <Gold.PLP.part.buried>
-4.4387

> <Gold.PLP.part.nonpolar>
-31.9442

> <Gold.PLP.part.repulsive>
0.3084

> <Gold.PLP.ligand.clash>
0.0000

> <Gold.PLP.ligand.torsion>
0.6615

> <Gold.PLP.Chemscore.Hbond>
3.8640

> <Gold.PLP.Chemscore.CHOScore>
0.7913

> <Gold.PLP.Chemscore.Metal>
0.0000

> <Gold.Chemscore.Hbonds>
donor molecule, donor type, donor heavy atom, donor atom, acceptor molecule, acceptor atom, score
      L1  H     7    54       P1 10175  2.00
      L1  H    12    43       P1  8028  0.96
      L1  H    15    44       P1  8028  1.00
      L1  C    21    48       P1  8029  0.49

> <Gold.PLP.Chemscore.Internal.Correction>
0.2644

> <Gold.Rescore>
     Score         DG    S(hbond)    S(metal)    S(lipo)     H(rot)  DE(clash)    DE(int)     intcor
     19.89     -23.68       2.87        0.00     110.62       1.69       1.90       1.90       ----

> <Gold.Chemscore.Fitness>
19.8863

> <Gold.Chemscore.DG>
-23.6835

> <Gold.Chemscore.ZeroCoef>
-5.4800

> <Gold.Chemscore.Hbond>
2.8689

> <Gold.Chemscore.Metal>
0.0000

> <Gold.Chemscore.Lipo>
110.6159

> <Gold.Chemscore.Internal_Hbond>
0.0000

> <Gold.Chemscore.DEClash>
1.8968

> <Gold.Chemscore.DEInternal>
1.9004

> <Gold.Chemscore.Rot>
1.6877

> <Gold.Chemscore.Internal.Correction>
   9.000000E+99

> <Gold.Chemscore.Hbonds>
donor molecule, donor type, donor heavy atom, donor atom, acceptor molecule, acceptor atom, score
      L1  H     7    54       P1 10175  0.99
      L1  H    12    43       P1  8028  0.90
      L1  H    15    44       P1  8028  1.00

> <Gold.Chemscore.Hbond.Weighted>
-9.5820

> <Gold.Chemscore.Metal.Weighted>
-0.0000

> <Gold.Chemscore.Lipo.Weighted>
-12.9421

> <Gold.Chemscore.Internal_Hbond.Weighted>
0.0000

> <Gold.Chemscore.DEClash.Weighted>
1.8968

> <Gold.Chemscore.DEInternal.Weighted>
1.9004

> <Gold.Chemscore.Rot.Weighted>
4.3205

> <Gold.Chemscore.Internal.Correction.Weighted>
   9.000000E+99

> <Gold.Protein.RotatedTorsions>
[ 6907 6896 6895 6894 ] final -131.42 input  -60.11 | X-H torsion
[ 7974 7965 7964 7962 ] final  116.79 input  175.53 | X-H torsion
[ 8008 7997 7996 7995 ] final   37.43 input   59.86 | X-H torsion
[ 10167 10162 10161 10158 ] final  -29.20 input  -65.29 | X-H torsion
[ 10718 10713 10712 10709 ] final -144.13 input   66.30 | X-H torsion
[ 10763 10752 10751 10750 ] final -126.96 input  -60.55 | X-H torsion
[ 11005 11000 10999 10996 ] final  -36.53 input  -57.11 | X-H torsion

> <Gold.Protein.ActiveResidues>
 VAL166  LYS551  ARG553  GLY616  TRP617  ASP618  TYR619  PRO620  LYS621  CYS622 
 ASP623  PHE694  ASN695  SER759  ASP760  ASP761  ALA762  ILE779  LEU786  VAL792 
 PHE793  MET794  SER795  GLU796  ALA797  LYS798  CYS799  TRP800  GLU811  SER814 

> <Gold.Protein.RotatedAtoms>
  150.9508  133.6552  159.2772 H   0  0  0  0  0  0  0  0  0  0  0  0  # atno 6907 bound_to 6896
  151.3908  135.0954  159.9535 H   0  0  0  0  0  0  0  0  0  0  0  0  # atno 6908 bound_to 6896
  152.5109  133.9022  159.7501 H   0  0  0  0  0  0  0  0  0  0  0  0  # atno 6909 bound_to 6896
  145.1753  139.3079  143.4446 H   0  0  0  0  0  0  0  0  0  0  0  0  # atno 7974 bound_to 7965
  155.2037  140.3318  155.4339 H   0  0  0  0  0  0  0  0  0  0  0  0  # atno 8008 bound_to 7997
  156.2397  140.1889  156.7072 H   0  0  0  0  0  0  0  0  0  0  0  0  # atno 8009 bound_to 7997
  154.6124  140.0607  156.9496 H   0  0  0  0  0  0  0  0  0  0  0  0  # atno 8010 bound_to 7997
  140.7263  143.3948  151.1367 H   0  0  0  0  0  0  0  0  0  0  0  0  # atno 10167 bound_to 10162
  156.3664  130.7765  151.1940 H   0  0  0  0  0  0  0  0  0  0  0  0  # atno 10718 bound_to 10713
  154.8749  135.3978  154.3515 H   0  0  0  0  0  0  0  0  0  0  0  0  # atno 10763 bound_to 10752
  153.4300  135.7025  153.6242 H   0  0  0  0  0  0  0  0  0  0  0  0  # atno 10764 bound_to 10752
  153.4868  135.3757  155.2440 H   0  0  0  0  0  0  0  0  0  0  0  0  # atno 10765 bound_to 10752
  140.9882  133.7019  156.1803 H   0  0  0  0  0  0  0  0  0  0  0  0  # atno 11005 bound_to 11000
  146.3462  140.1913  142.8589 LP  0  0  0  0  0  0  0  0  0  0  0  0  # atno 17320 bound_to 7965
  145.0191  140.8779  143.5177 LP  0  0  0  0  0  0  0  0  0  0  0  0  # atno 17321 bound_to 7965
  139.7559  143.8709  152.3088 LP  0  0  0  0  0  0  0  0  0  0  0  0  # atno 17342 bound_to 10162
  139.8578  144.7132  150.9136 LP  0  0  0  0  0  0  0  0  0  0  0  0  # atno 17343 bound_to 10162
  157.7479  131.0385  150.4505 LP  0  0  0  0  0  0  0  0  0  0  0  0  # atno 17370 bound_to 10713
  156.4725  130.4056  149.6509 LP  0  0  0  0  0  0  0  0  0  0  0  0  # atno 17371 bound_to 10713
  140.7081  134.4491  157.5583 LP  0  0  0  0  0  0  0  0  0  0  0  0  # atno 17394 bound_to 11000
  139.8980  134.8623  156.2020 LP  0  0  0  0  0  0  0  0  0  0  0  0  # atno 17395 bound_to 11000

$$$$
