AV-unprocessed.smi:1108|AV-procd|sdf|4787|dock6
  -GOLD-   22720 3333D 1   1.00000     0.00000
 Structure written by MMmdl.
 31 32  0  0  0  0  0  0  0  0  1 V2000
  151.3983  140.1358  155.5671 C   0  0  0  0  0  0  0  0  0  0  0  0
  151.1498  141.5033  156.2179 C   0  0  2  0  0  0  0  0  0  0  0  0
  150.9715  141.3729  157.7458 C   0  0  0  0  0  0  0  0  0  0  0  0
  151.3971  142.5599  158.4660 N   0  0  0  0  0  0  0  0  0  0  0  0
  150.9997  143.8667  158.2763 C   0  0  0  0  0  0  0  0  0  0  0  0
  151.6796  144.6330  159.1790 C   0  0  0  0  0  0  0  0  0  0  0  0
  152.4757  143.6913  159.8891 C   0  0  0  0  0  0  0  0  0  0  0  0
  152.3012  142.4508  159.4631 N   0  0  0  0  0  0  0  0  0  0  0  0
  149.9688  142.1108  155.6053 N   0  0  0  0  0  0  0  0  0  0  0  0
  148.8403  141.4666  155.2724 C   0  0  0  0  0  0  0  0  0  0  0  0
  148.6539  140.2623  155.4467 O   0  0  0  0  0  0  0  0  0  0  0  0
  147.9452  142.2938  154.7168 N   0  0  0  0  0  0  0  0  0  0  0  0
  146.6540  141.9152  154.2420 C   0  0  0  0  0  0  0  0  0  0  0  0
  145.8416  142.9593  153.5070 C   0  0  0  0  0  0  0  0  0  0  0  0
  145.4491  142.5518  154.9004 C   0  0  0  0  0  0  0  0  0  0  0  0
  152.2925  139.6643  155.9757 H   0  0  0  0  0  0  0  0  0  0  0  0
  151.5423  140.2332  154.4905 H   0  0  0  0  0  0  0  0  0  0  0  0
  150.5602  139.4578  155.7322 H   0  0  0  0  0  0  0  0  0  0  0  0
  152.0293  142.1180  156.0167 H   0  0  0  0  0  0  0  0  0  0  0  0
  149.9295  141.1668  157.9943 H   0  0  0  0  0  0  0  0  0  0  0  0
  151.5516  140.5281  158.1202 H   0  0  0  0  0  0  0  0  0  0  0  0
  150.2800  144.1397  157.5187 H   0  0  0  0  0  0  0  0  0  0  0  0
  151.6192  145.7029  159.3110 H   0  0  0  0  0  0  0  0  0  0  0  0
  153.1698  143.8710  160.6966 H   0  0  0  0  0  0  0  0  0  0  0  0
  150.0181  143.1015  155.4178 H   0  0  0  0  0  0  0  0  0  0  0  0
  148.1969  143.2665  154.6168 H   0  0  0  0  0  0  0  0  0  0  0  0
  146.5262  140.8866  153.9071 H   0  0  0  0  0  0  0  0  0  0  0  0
  146.2789  143.9473  153.3773 H   0  0  0  0  0  0  0  0  0  0  0  0
  145.2121  142.6184  152.6875 H   0  0  0  0  0  0  0  0  0  0  0  0
  144.5569  141.9392  155.0119 H   0  0  0  0  0  0  0  0  0  0  0  0
  145.6250  143.2676  155.7012 H   0  0  0  0  0  0  0  0  0  0  0  0
  1  2  1  0  0  0  0
  1 16  1  0  0  0  0
  1 17  1  0  0  0  0
  1 18  1  0  0  0  0
  2  3  1  0  0  0  0
  2  9  1  0  0  0  0
  2 19  1  0  0  0  0
  3  4  1  0  0  0  0
  3 20  1  0  0  0  0
  3 21  1  0  0  0  0
  4  8  1  0  0  0  0
  4  5  1  0  0  0  0
  5  6  2  0  0  0  0
  5 22  1  0  0  0  0
  6  7  1  0  0  0  0
  6 23  1  0  0  0  0
  7  8  2  0  0  0  0
  7 24  1  0  0  0  0
  9 10  1  0  0  0  0
  9 25  1  0  0  0  0
 10 11  2  0  0  0  0
 10 12  1  0  0  0  0
 12 13  1  0  0  0  0
 12 26  1  0  0  0  0
 13 15  1  0  0  0  0
 13 14  1  0  0  0  0
 13 27  1  0  0  0  0
 14 15  1  0  0  0  0
 14 28  1  0  0  0  0
 14 29  1  0  0  0  0
 15 30  1  0  0  0  0
 15 31  1  0  0  0  0
M  END
> <s_m_source_file>
AV-unprocessed.smi

> <i_m_source_file_index>
1108

> <i_lp_mmshare_version>
43012

> <i_f3d_flags>
0

> <s_epik_input>
W0NIMl0xW0NIMl1bQ0hdMVtOSF1DKD1PKVtOSF1bQ0BIXShbQ0gzXSlbQ0gyXW4yW2NIXVtjSF1bY0hdbjI=

> <s_epik_cmdline>
J2VwaWtfcHl0aG9uJywgJy1waCcsICc3LjAnLCAnLXRuJywgJzgnLCAnLW1hJywgJzIwMCcsICctbWV0YWxfYmluZGluZycsICctaW1hZScsICc8aW5maWxlLm1hZT4nLCAnLW9tYWUnLCAnPG91dGZpbGUubWFlPic=

> <r_lp_tautomer_probability>
1

> <r_epik_Ionization_Penalty>
7.55353e-05

> <r_epik_Ionization_Penalty_Charging>
0

> <r_epik_Ionization_Penalty_Neutral>
7.55353e-05

> <r_epik_State_Penalty>
-0

> <r_epik_Charging_Adjusted_Penalty>
0

> <i_epik_Tot_Q>
0

> <i_epik_Tot_abs_Q>
0

> <r_epik_Metal_State_Penalty>
-0

> <b_epik_Metal_Only>
0

> <s_lp_Force_Field>
OPLS_2005

> <r_lp_Energy>
13.7116

> <b_lp_Chiralities_Consistent>
1

> <s_lp_Variant>
AV-unprocessed.smi:1108-1

> <Gold.Version>
5.8.1

> <Gold.Id.Protein>
6NUR|6NUR_protein|mol2

> <Gold.PLP.Fitness>
41.2196

> <Gold.PLP.PLP>
-34.6332

> <Gold.PLP.part.hbond>
-2.0000

> <Gold.PLP.part.metal>
0.0000

> <Gold.PLP.part.buried>
-5.4261

> <Gold.PLP.part.nonpolar>
-28.7251

> <Gold.PLP.part.repulsive>
0.3532

> <Gold.PLP.ligand.clash>
0.0025

> <Gold.PLP.ligand.torsion>
0.7010

> <Gold.PLP.Chemscore.Hbond>
1.6480

> <Gold.PLP.Chemscore.CHOScore>
1.0000

> <Gold.PLP.Chemscore.Metal>
0.0000

> <Gold.Chemscore.Hbonds>
donor molecule, donor type, donor heavy atom, donor atom, acceptor molecule, acceptor atom, score
      L1  H     9    25       P1  8028  0.78
      L1  H    12    26       P1  8028  0.83
      L1  C     5    22       P1  8028  1.00

> <Gold.PLP.Chemscore.Internal.Correction>
0.0469

> <Gold.Rescore>
     Score         DG    S(hbond)    S(metal)    S(lipo)     H(rot)  DE(clash)    DE(int)     intcor
     13.10     -15.13       1.81        0.00      68.29       1.71       0.00       2.03       ----

> <Gold.Chemscore.Fitness>
13.1006

> <Gold.Chemscore.DG>
-15.1301

> <Gold.Chemscore.ZeroCoef>
-5.4800

> <Gold.Chemscore.Hbond>
1.8056

> <Gold.Chemscore.Metal>
0.0000

> <Gold.Chemscore.Lipo>
68.2948

> <Gold.Chemscore.Internal_Hbond>
0.0000

> <Gold.Chemscore.DEClash>
0.0038

> <Gold.Chemscore.DEInternal>
2.0256

> <Gold.Chemscore.Rot>
1.7075

> <Gold.Chemscore.Internal.Correction>
   9.000000E+99

> <Gold.Chemscore.Hbonds>
donor molecule, donor type, donor heavy atom, donor atom, acceptor molecule, acceptor atom, score
      L1  H     9    25       P1  8028  0.76
      L1  H    12    26       P1  8028  0.80

> <Gold.Chemscore.Hbond.Weighted>
-6.0308

> <Gold.Chemscore.Metal.Weighted>
-0.0000

> <Gold.Chemscore.Lipo.Weighted>
-7.9905

> <Gold.Chemscore.Internal_Hbond.Weighted>
0.0000

> <Gold.Chemscore.DEClash.Weighted>
0.0038

> <Gold.Chemscore.DEInternal.Weighted>
2.0256

> <Gold.Chemscore.Rot.Weighted>
4.3713

> <Gold.Chemscore.Internal.Correction.Weighted>
   9.000000E+99

> <Gold.Protein.RotatedTorsions>
[ 6907 6896 6895 6894 ] final -124.54 input  -60.11 | X-H torsion
[ 7974 7965 7964 7962 ] final  106.49 input  175.53 | X-H torsion
[ 8008 7997 7996 7995 ] final   30.82 input   59.86 | X-H torsion
[ 10167 10162 10161 10158 ] final  136.61 input  -65.29 | X-H torsion
[ 10718 10713 10712 10709 ] final -129.06 input   66.30 | X-H torsion
[ 10763 10752 10751 10750 ] final -165.48 input  -60.55 | X-H torsion
[ 11005 11000 10999 10996 ] final    9.84 input  -57.11 | X-H torsion

> <Gold.Protein.ActiveResidues>
 VAL166  LYS551  ARG553  GLY616  TRP617  ASP618  TYR619  PRO620  LYS621  CYS622 
 ASP623  PHE694  ASN695  SER759  ASP760  ASP761  ALA762  ILE779  LEU786  VAL792 
 PHE793  MET794  SER795  GLU796  ALA797  LYS798  CYS799  TRP800  GLU811  SER814 

> <Gold.Protein.RotatedAtoms>
  150.8778  133.7414  159.2940 H   0  0  0  0  0  0  0  0  0  0  0  0  # atno 6907 bound_to 6896
  151.5005  135.1060  159.9837 H   0  0  0  0  0  0  0  0  0  0  0  0  # atno 6908 bound_to 6896
  152.4739  133.8048  159.7028 H   0  0  0  0  0  0  0  0  0  0  0  0  # atno 6909 bound_to 6896
  145.3059  139.2555  143.3789 H   0  0  0  0  0  0  0  0  0  0  0  0  # atno 7974 bound_to 7965
  155.0965  140.3225  155.4559 H   0  0  0  0  0  0  0  0  0  0  0  0  # atno 8008 bound_to 7997
  156.2728  140.2068  156.6038 H   0  0  0  0  0  0  0  0  0  0  0  0  # atno 8009 bound_to 7997
  154.6862  140.0521  157.0304 H   0  0  0  0  0  0  0  0  0  0  0  0  # atno 8010 bound_to 7997
  139.5173  144.6455  151.5451 H   0  0  0  0  0  0  0  0  0  0  0  0  # atno 10167 bound_to 10162
  156.2010  130.6857  151.0539 H   0  0  0  0  0  0  0  0  0  0  0  0  # atno 10718 bound_to 10713
  154.6927  135.2973  154.9456 H   0  0  0  0  0  0  0  0  0  0  0  0  # atno 10763 bound_to 10752
  154.0413  135.6657  153.4794 H   0  0  0  0  0  0  0  0  0  0  0  0  # atno 10764 bound_to 10752
  153.0624  135.5108  154.8028 H   0  0  0  0  0  0  0  0  0  0  0  0  # atno 10765 bound_to 10752
  140.5212  134.0557  155.7845 H   0  0  0  0  0  0  0  0  0  0  0  0  # atno 11005 bound_to 11000
  146.3135  140.3584  142.8662 LP  0  0  0  0  0  0  0  0  0  0  0  0  # atno 17320 bound_to 7965
  144.9055  140.7695  143.5840 LP  0  0  0  0  0  0  0  0  0  0  0  0  # atno 17321 bound_to 7965
  140.6238  143.9207  150.6548 LP  0  0  0  0  0  0  0  0  0  0  0  0  # atno 17342 bound_to 10162
  140.2489  143.3607  152.1422 LP  0  0  0  0  0  0  0  0  0  0  0  0  # atno 17343 bound_to 10162
  157.6986  131.0785  150.6893 LP  0  0  0  0  0  0  0  0  0  0  0  0  # atno 17370 bound_to 10713
  156.6950  130.4606  149.5589 LP  0  0  0  0  0  0  0  0  0  0  0  0  # atno 17371 bound_to 10713
  141.1333  133.9264  157.2488 LP  0  0  0  0  0  0  0  0  0  0  0  0  # atno 17394 bound_to 11000
  139.9605  135.0155  156.9247 LP  0  0  0  0  0  0  0  0  0  0  0  0  # atno 17395 bound_to 11000

$$$$
