AV-unprocessed.smi:594|AV-procd|sdf|3014|dock4
  -GOLD-   2262023523D 1   1.00000     0.00000
 Structure written by MMmdl.
 40 41  0  0  0  0  0  0  0  0  3 V2000
  151.3237  145.3180  159.6593 C   0  0  0  0  0  0  0  0  0  0  0  0
  151.7241  143.9520  160.2451 C   0  0  2  0  0  0  0  0  0  0  0  0
  152.2638  144.1163  161.6807 C   0  0  0  0  0  0  0  0  0  0  0  0
  152.6667  142.7692  162.2990 C   0  0  0  0  0  0  0  0  0  0  0  0
  153.6956  142.0455  161.4203 C   0  0  0  0  0  0  0  0  0  0  0  0
  153.1653  141.8596  159.9915 C   0  0  0  0  0  0  0  0  0  0  0  0
  152.7508  143.2044  159.3579 C   0  0  1  0  0  0  0  0  0  0  0  0
  152.1978  142.9725  158.0252 N   0  0  0  0  0  0  0  0  0  0  0  0
  151.1210  142.2219  157.7487 C   0  0  0  0  0  0  0  0  0  0  0  0
  150.4523  141.6543  158.6136 O   0  0  0  0  0  0  0  0  0  0  0  0
  150.7377  142.1204  156.2656 C   0  0  0  0  0  0  0  0  0  0  0  0
  150.9179  140.7680  155.7113 N   0  0  0  0  0  0  0  0  0  0  0  0
  151.8163  139.9146  156.3819 C   0  0  0  0  0  0  0  0  0  0  0  0
  152.0626  138.6594  155.9587 C   0  0  0  0  0  0  0  0  0  0  0  0
  152.9921  137.7986  156.6569 N   0  3  0  0  0  0  0  0  0  0  0  0
  152.9836  136.5975  156.4068 O   0  0  0  0  0  0  0  0  0  0  0  0
  153.7598  138.2921  157.4777 O   0  5  0  0  0  0  0  0  0  0  0  0
  151.3658  138.1985  154.7734 C   0  0  0  0  0  0  0  0  0  0  0  0
  150.5079  139.0110  154.1254 C   0  0  0  0  0  0  0  0  0  0  0  0
  150.2443  140.3782  154.5857 C   0  0  0  0  0  0  0  0  0  0  0  0
  149.4653  141.1271  153.9958 O   0  0  0  0  0  0  0  0  0  0  0  0
  152.1918  145.9677  159.5438 H   0  0  0  0  0  0  0  0  0  0  0  0
  150.6119  145.8286  160.3084 H   0  0  0  0  0  0  0  0  0  0  0  0
  150.8521  145.2165  158.6816 H   0  0  0  0  0  0  0  0  0  0  0  0
  150.8201  143.3434  160.3021 H   0  0  0  0  0  0  0  0  0  0  0  0
  153.1263  144.7846  161.6756 H   0  0  0  0  0  0  0  0  0  0  0  0
  151.5107  144.5920  162.3099 H   0  0  0  0  0  0  0  0  0  0  0  0
  153.0760  142.9261  163.2974 H   0  0  0  0  0  0  0  0  0  0  0  0
  151.7828  142.1421  162.4212 H   0  0  0  0  0  0  0  0  0  0  0  0
  154.6241  142.6174  161.3947 H   0  0  0  0  0  0  0  0  0  0  0  0
  153.9403  141.0761  161.8552 H   0  0  0  0  0  0  0  0  0  0  0  0
  153.9295  141.3756  159.3818 H   0  0  0  0  0  0  0  0  0  0  0  0
  152.3113  141.1811  160.0097 H   0  0  0  0  0  0  0  0  0  0  0  0
  153.6387  143.8340  159.2699 H   0  0  0  0  0  0  0  0  0  0  0  0
  152.6815  143.4075  157.2528 H   0  0  0  0  0  0  0  0  0  0  0  0
  149.7010  142.4431  156.1606 H   0  0  0  0  0  0  0  0  0  0  0  0
  151.3198  142.8424  155.6895 H   0  0  0  0  0  0  0  0  0  0  0  0
  152.2891  140.3539  157.2485 H   0  0  0  0  0  0  0  0  0  0  0  0
  151.5275  137.1994  154.3959 H   0  0  0  0  0  0  0  0  0  0  0  0
  150.0001  138.6478  153.2440 H   0  0  0  0  0  0  0  0  0  0  0  0
  1  2  1  0  0  0  0
  1 22  1  0  0  0  0
  1 23  1  0  0  0  0
  1 24  1  0  0  0  0
  2  7  1  0  0  0  0
  2  3  1  0  0  0  0
  2 25  1  0  0  0  0
  3  4  1  0  0  0  0
  3 26  1  0  0  0  0
  3 27  1  0  0  0  0
  4  5  1  0  0  0  0
  4 28  1  0  0  0  0
  4 29  1  0  0  0  0
  5  6  1  0  0  0  0
  5 30  1  0  0  0  0
  5 31  1  0  0  0  0
  6  7  1  0  0  0  0
  6 32  1  0  0  0  0
  6 33  1  0  0  0  0
  7  8  1  0  0  0  0
  7 34  1  0  0  0  0
  8  9  1  0  0  0  0
  8 35  1  0  0  0  0
  9 10  2  0  0  0  0
  9 11  1  0  0  0  0
 11 12  1  0  0  0  0
 11 36  1  0  0  0  0
 11 37  1  0  0  0  0
 12 20  1  0  0  0  0
 12 13  1  0  0  0  0
 13 14  2  0  0  0  0
 13 38  1  0  0  0  0
 14 15  1  0  0  0  0
 14 18  1  0  0  0  0
 15 16  2  0  0  0  0
 15 17  1  0  0  0  0
 18 19  2  0  0  0  0
 18 39  1  0  0  0  0
 19 20  1  0  0  0  0
 19 40  1  0  0  0  0
 20 21  2  0  0  0  0
M  CHG  1  15   1
M  CHG  1  17  -1
M  END
> <s_m_source_file>
AV-unprocessed.smi

> <i_m_source_file_index>
594

> <i_lp_mmshare_version>
43012

> <i_f3d_flags>
0

> <s_epik_input>
W0NIM11bQ0BASF0xW0NIMl1bQ0gyXVtDSDJdW0NIMl1bQ0BIXTFbTkhdQyg9TylbQ0gyXW4yW2NIXWMoW04rXSg9TylbTy1dKVtjSF1bY0hdYzI9Tw==

> <s_epik_cmdline>
J2VwaWtfcHl0aG9uJywgJy1waCcsICc3LjAnLCAnLXRuJywgJzgnLCAnLW1hJywgJzIwMCcsICctbWV0YWxfYmluZGluZycsICctaW1hZScsICc8aW5maWxlLm1hZT4nLCAnLW9tYWUnLCAnPG91dGZpbGUubWFlPic=

> <r_lp_tautomer_probability>
1

> <r_epik_Ionization_Penalty>
1.91305e-08

> <r_epik_Ionization_Penalty_Charging>
8.35811e-11

> <r_epik_Ionization_Penalty_Neutral>
1.90469e-08

> <r_epik_State_Penalty>
-0

> <r_epik_Charging_Adjusted_Penalty>
8.35811e-11

> <i_epik_Tot_Q>
0

> <i_epik_Tot_abs_Q>
2

> <r_epik_Metal_State_Penalty>
-0

> <b_epik_Metal_Only>
0

> <s_lp_Force_Field>
OPLS_2005

> <r_lp_Energy>
21.501

> <b_lp_Chiralities_Consistent>
1

> <s_lp_Variant>
AV-unprocessed.smi:594-1

> <Gold.Version>
5.8.1

> <Gold.Id.Protein>
6NUR|6NUR_protein|mol2

> <Gold.PLP.Fitness>
56.6294

> <Gold.PLP.PLP>
-49.7987

> <Gold.PLP.part.hbond>
-4.0000

> <Gold.PLP.part.metal>
0.0000

> <Gold.PLP.part.buried>
0.5834

> <Gold.PLP.part.nonpolar>
-45.2685

> <Gold.PLP.part.repulsive>
0.6943

> <Gold.PLP.ligand.clash>
0.0000

> <Gold.PLP.ligand.torsion>
0.4691

> <Gold.PLP.Chemscore.Hbond>
2.5825

> <Gold.PLP.Chemscore.CHOScore>
0.0000

> <Gold.PLP.Chemscore.Metal>
0.0000

> <Gold.Chemscore.Hbonds>
donor molecule, donor type, donor heavy atom, donor atom, acceptor molecule, acceptor atom, score
      P1  H  7997  8010       L1    17  0.93
      P1  H  8011  8017       L1    21  0.65
      P1  H 10752 10764       L1    16  0.96

> <Gold.PLP.Chemscore.Internal.Correction>
0.0213

> <Gold.Rescore>
     Score         DG    S(hbond)    S(metal)    S(lipo)     H(rot)  DE(clash)    DE(int)     intcor
     20.46     -23.54       2.46        0.00     117.99       1.55       1.66       1.43       ----

> <Gold.Chemscore.Fitness>
20.4610

> <Gold.Chemscore.DG>
-23.5448

> <Gold.Chemscore.ZeroCoef>
-5.4800

> <Gold.Chemscore.Hbond>
2.4637

> <Gold.Chemscore.Metal>
0.0000

> <Gold.Chemscore.Lipo>
117.9924

> <Gold.Chemscore.Internal_Hbond>
0.0000

> <Gold.Chemscore.DEClash>
1.6579

> <Gold.Chemscore.DEInternal>
1.4259

> <Gold.Chemscore.Rot>
1.5505

> <Gold.Chemscore.Internal.Correction>
   9.000000E+99

> <Gold.Chemscore.Hbonds>
donor molecule, donor type, donor heavy atom, donor atom, acceptor molecule, acceptor atom, score
      P1  H  7997  8010       L1    17  0.81
      P1  H  8011  8017       L1    21  0.62
      P1  H 10752 10764       L1    16  0.92

> <Gold.Chemscore.Hbond.Weighted>
-8.2289

> <Gold.Chemscore.Metal.Weighted>
-0.0000

> <Gold.Chemscore.Lipo.Weighted>
-13.8051

> <Gold.Chemscore.Internal_Hbond.Weighted>
0.0000

> <Gold.Chemscore.DEClash.Weighted>
1.6579

> <Gold.Chemscore.DEInternal.Weighted>
1.4259

> <Gold.Chemscore.Rot.Weighted>
3.9692

> <Gold.Chemscore.Internal.Correction.Weighted>
   9.000000E+99

> <Gold.Protein.RotatedTorsions>
[ 6907 6896 6895 6894 ] final -117.42 input  -60.11 | X-H torsion
[ 7974 7965 7964 7962 ] final  147.97 input  175.53 | X-H torsion
[ 8008 7997 7996 7995 ] final   40.53 input   59.86 | X-H torsion
[ 10167 10162 10161 10158 ] final  122.46 input  -65.29 | X-H torsion
[ 10718 10713 10712 10709 ] final  -85.64 input   66.30 | X-H torsion
[ 10763 10752 10751 10750 ] final  -13.09 input  -60.55 | X-H torsion
[ 11005 11000 10999 10996 ] final  -25.89 input  -57.11 | X-H torsion

> <Gold.Protein.ActiveResidues>
 VAL166  LYS551  ARG553  GLY616  TRP617  ASP618  TYR619  PRO620  LYS621  CYS622 
 ASP623  PHE694  ASN695  SER759  ASP760  ASP761  ALA762  ILE779  LEU786  VAL792 
 PHE793  MET794  SER795  GLU796  ALA797  LYS798  CYS799  TRP800  GLU811  SER814 

> <Gold.Protein.RotatedAtoms>
  150.8135  133.8378  159.3170 H   0  0  0  0  0  0  0  0  0  0  0  0  # atno 6907 bound_to 6896
  151.6157  135.1035  160.0100 H   0  0  0  0  0  0  0  0  0  0  0  0  # atno 6908 bound_to 6896
  152.4227  133.7103  159.6531 H   0  0  0  0  0  0  0  0  0  0  0  0  # atno 6909 bound_to 6896
  144.8550  139.6095  143.5956 H   0  0  0  0  0  0  0  0  0  0  0  0  # atno 7974 bound_to 7965
  155.2546  140.3355  155.4279 H   0  0  0  0  0  0  0  0  0  0  0  0  # atno 8008 bound_to 7997
  156.2201  140.1805  156.7540 H   0  0  0  0  0  0  0  0  0  0  0  0  # atno 8009 bound_to 7997
  154.5812  140.0653  156.9092 H   0  0  0  0  0  0  0  0  0  0  0  0  # atno 8010 bound_to 7997
  139.5857  144.7005  151.3415 H   0  0  0  0  0  0  0  0  0  0  0  0  # atno 10167 bound_to 10162
  155.9995  130.4738  150.4593 H   0  0  0  0  0  0  0  0  0  0  0  0  # atno 10718 bound_to 10713
  153.5081  135.7016  153.5795 H   0  0  0  0  0  0  0  0  0  0  0  0  # atno 10763 bound_to 10752
  153.3897  135.3899  155.1915 H   0  0  0  0  0  0  0  0  0  0  0  0  # atno 10764 bound_to 10752
  154.8705  135.3855  154.4559 H   0  0  0  0  0  0  0  0  0  0  0  0  # atno 10765 bound_to 10752
  140.8979  133.7544  156.0505 H   0  0  0  0  0  0  0  0  0  0  0  0  # atno 11005 bound_to 11000
  146.2815  139.6891  142.9225 LP  0  0  0  0  0  0  0  0  0  0  0  0  # atno 17320 bound_to 7965
  145.4424  141.0423  143.2850 LP  0  0  0  0  0  0  0  0  0  0  0  0  # atno 17321 bound_to 7965
  140.7129  143.7343  150.7600 LP  0  0  0  0  0  0  0  0  0  0  0  0  # atno 17342 bound_to 10162
  140.0887  143.4899  152.2491 LP  0  0  0  0  0  0  0  0  0  0  0  0  # atno 17343 bound_to 10162
  157.2619  131.0568  151.2315 LP  0  0  0  0  0  0  0  0  0  0  0  0  # atno 17370 bound_to 10713
  157.3426  130.7041  149.6391 LP  0  0  0  0  0  0  0  0  0  0  0  0  # atno 17371 bound_to 10713
  140.8267  134.3226  157.5363 LP  0  0  0  0  0  0  0  0  0  0  0  0  # atno 17394 bound_to 11000
  139.8738  134.9340  156.3595 LP  0  0  0  0  0  0  0  0  0  0  0  0  # atno 17395 bound_to 11000

$$$$
