AV-unprocessed.smi:1640|AV-procd|sdf|6554|dock7
  -GOLD-   22720 7233D 1   1.00000     0.00000
 Structure written by MMmdl.
 47 48  0  0  0  0  0  0  0  0  1 V2000
  143.3401  143.9632  154.9822 C   0  0  0  0  0  0  0  0  0  0  0  0
  144.7010  144.4659  154.4724 C   0  0  0  0  0  0  0  0  0  0  0  0
  144.5191  145.3054  153.1988 C   0  0  0  0  0  0  0  0  0  0  0  0
  145.6989  143.3159  154.2289 C   0  0  0  0  0  0  0  0  0  0  0  0
  146.0618  142.5240  155.4943 C   0  0  0  0  0  0  0  0  0  0  0  0
  147.4448  141.3567  155.1592 S   0  0  0  0  0  0  0  0  0  0  0  0
  147.2212  140.1295  155.9388 O   0  0  0  0  0  0  0  0  0  0  0  0
  147.6603  141.2721  153.7071 O   0  0  0  0  0  0  0  0  0  0  0  0
  148.8010  142.1693  155.8420 N   0  0  0  0  0  0  0  0  0  0  0  0
  150.1323  141.6045  155.6281 C   0  0  0  0  0  0  0  0  0  0  0  0
  151.0411  141.7801  156.8352 C   0  0  0  0  0  0  0  0  0  0  0  0
  151.1282  143.0406  157.4633 C   0  0  0  0  0  0  0  0  0  0  0  0
  151.9796  143.1977  158.5721 C   0  0  0  0  0  0  0  0  0  0  0  0
  152.7173  142.0825  159.0096 C   0  0  0  0  0  0  0  0  0  0  0  0
  152.6458  140.8716  158.4192 N   0  0  0  0  0  0  0  0  0  0  0  0
  151.8253  140.7150  157.3517 C   0  0  0  0  0  0  0  0  0  0  0  0
  151.7530  139.4364  156.7722 N   0  0  0  0  0  0  0  0  0  0  0  0
  152.1061  139.3582  155.3594 C   0  0  0  0  0  0  0  0  0  0  0  0
  151.8237  137.9427  154.8286 C   0  0  0  0  0  0  0  0  0  0  0  0
  152.5354  136.9906  155.6143 O   0  0  0  0  0  0  0  0  0  0  0  0
  152.1390  137.0201  156.9829 C   0  0  0  0  0  0  0  0  0  0  0  0
  152.4122  138.4141  157.5742 C   0  0  0  0  0  0  0  0  0  0  0  0
  142.8873  143.2634  154.2792 H   0  0  0  0  0  0  0  0  0  0  0  0
  142.6444  144.7913  155.1203 H   0  0  0  0  0  0  0  0  0  0  0  0
  143.4311  143.4591  155.9437 H   0  0  0  0  0  0  0  0  0  0  0  0
  145.1215  145.1232  155.2345 H   0  0  0  0  0  0  0  0  0  0  0  0
  144.1050  144.7080  152.3859 H   0  0  0  0  0  0  0  0  0  0  0  0
  145.4697  145.7170  152.8585 H   0  0  0  0  0  0  0  0  0  0  0  0
  143.8439  146.1436  153.3727 H   0  0  0  0  0  0  0  0  0  0  0  0
  145.3038  142.6369  153.4722 H   0  0  0  0  0  0  0  0  0  0  0  0
  146.6177  143.7296  153.8108 H   0  0  0  0  0  0  0  0  0  0  0  0
  146.3722  143.1944  156.2958 H   0  0  0  0  0  0  0  0  0  0  0  0
  145.2148  141.9408  155.8540 H   0  0  0  0  0  0  0  0  0  0  0  0
  148.7801  143.1733  155.6650 H   0  0  0  0  0  0  0  0  0  0  0  0
  150.0295  140.5490  155.3744 H   0  0  0  0  0  0  0  0  0  0  0  0
  150.5946  142.0842  154.7647 H   0  0  0  0  0  0  0  0  0  0  0  0
  150.5524  143.8797  157.1011 H   0  0  0  0  0  0  0  0  0  0  0  0
  152.0664  144.1501  159.0737 H   0  0  0  0  0  0  0  0  0  0  0  0
  153.3814  142.1644  159.8573 H   0  0  0  0  0  0  0  0  0  0  0  0
  151.5322  140.0934  154.7940 H   0  0  0  0  0  0  0  0  0  0  0  0
  153.1622  139.5953  155.2247 H   0  0  0  0  0  0  0  0  0  0  0  0
  150.7550  137.7240  154.8492 H   0  0  0  0  0  0  0  0  0  0  0  0
  152.1465  137.8590  153.7909 H   0  0  0  0  0  0  0  0  0  0  0  0
  151.0838  136.7591  157.0722 H   0  0  0  0  0  0  0  0  0  0  0  0
  152.7002  136.2632  157.5309 H   0  0  0  0  0  0  0  0  0  0  0  0
  153.4859  138.6071  157.5931 H   0  0  0  0  0  0  0  0  0  0  0  0
  152.0601  138.4580  158.6054 H   0  0  0  0  0  0  0  0  0  0  0  0
  1  2  1  0  0  0  0
  1 23  1  0  0  0  0
  1 24  1  0  0  0  0
  1 25  1  0  0  0  0
  2  3  1  0  0  0  0
  2  4  1  0  0  0  0
  2 26  1  0  0  0  0
  3 27  1  0  0  0  0
  3 28  1  0  0  0  0
  3 29  1  0  0  0  0
  4  5  1  0  0  0  0
  4 30  1  0  0  0  0
  4 31  1  0  0  0  0
  5  6  1  0  0  0  0
  5 32  1  0  0  0  0
  5 33  1  0  0  0  0
  6  7  2  0  0  0  0
  6  8  2  0  0  0  0
  6  9  1  0  0  0  0
  9 10  1  0  0  0  0
  9 34  1  0  0  0  0
 10 11  1  0  0  0  0
 10 35  1  0  0  0  0
 10 36  1  0  0  0  0
 11 16  1  0  0  0  0
 11 12  2  0  0  0  0
 12 13  1  0  0  0  0
 12 37  1  0  0  0  0
 13 14  2  0  0  0  0
 13 38  1  0  0  0  0
 14 15  1  0  0  0  0
 14 39  1  0  0  0  0
 15 16  2  0  0  0  0
 16 17  1  0  0  0  0
 17 22  1  0  0  0  0
 17 18  1  0  0  0  0
 18 19  1  0  0  0  0
 18 40  1  0  0  0  0
 18 41  1  0  0  0  0
 19 20  1  0  0  0  0
 19 42  1  0  0  0  0
 19 43  1  0  0  0  0
 20 21  1  0  0  0  0
 21 22  1  0  0  0  0
 21 44  1  0  0  0  0
 21 45  1  0  0  0  0
 22 46  1  0  0  0  0
 22 47  1  0  0  0  0
M  END
> <s_m_source_file>
AV-unprocessed.smi

> <i_m_source_file_index>
1640

> <i_lp_mmshare_version>
43012

> <i_f3d_flags>
0

> <s_epik_input>
W0NIM11bQ0hdKFtDSDNdKVtDSDJdW0NIMl1TKD1PKSg9TylbTkhdW0NIMl1jMVtjSF1bY0hdW2NIXW5jMU4yW0NIMl1bQ0gyXU9bQ0gyXVtDSDJdMg==

> <s_epik_cmdline>
J2VwaWtfcHl0aG9uJywgJy1waCcsICc3LjAnLCAnLXRuJywgJzgnLCAnLW1hJywgJzIwMCcsICctbWV0YWxfYmluZGluZycsICctaW1hZScsICc8aW5maWxlLm1hZT4nLCAnLW9tYWUnLCAnPG91dGZpbGUubWFlPic=

> <r_lp_tautomer_probability>
1

> <r_epik_Ionization_Penalty>
0.00729723

> <r_epik_Ionization_Penalty_Charging>
0

> <r_epik_Ionization_Penalty_Neutral>
0.00729723

> <r_epik_State_Penalty>
0.00542751

> <r_epik_Charging_Adjusted_Penalty>
0.00542751

> <i_epik_Tot_Q>
0

> <i_epik_Tot_abs_Q>
0

> <r_epik_Metal_State_Penalty>
0.0195039

> <b_epik_Metal_Only>
0

> <s_lp_Force_Field>
OPLS_2005

> <r_lp_Energy>
17.806

> <b_lp_Chiralities_Consistent>
1

> <s_lp_Variant>
AV-unprocessed.smi:1640-1

> <Gold.Version>
5.8.1

> <Gold.Id.Protein>
6NUR|6NUR_protein|mol2

> <Gold.PLP.Fitness>
42.9866

> <Gold.PLP.PLP>
-39.4338

> <Gold.PLP.part.hbond>
-2.1045

> <Gold.PLP.part.metal>
0.0000

> <Gold.PLP.part.buried>
-6.3599

> <Gold.PLP.part.nonpolar>
-32.4474

> <Gold.PLP.part.repulsive>
0.1975

> <Gold.PLP.ligand.clash>
0.0000

> <Gold.PLP.ligand.torsion>
0.9853

> <Gold.PLP.Chemscore.Hbond>
1.7360

> <Gold.PLP.Chemscore.CHOScore>
0.0000

> <Gold.PLP.Chemscore.Metal>
0.0000

> <Gold.Chemscore.Hbonds>
donor molecule, donor type, donor heavy atom, donor atom, acceptor molecule, acceptor atom, score
      L1  H     9    34       P1  8028  1.00
      P1  H 10752 10763       L1    20  0.74

> <Gold.PLP.Chemscore.Internal.Correction>
0.3154

> <Gold.Rescore>
     Score         DG    S(hbond)    S(metal)    S(lipo)     H(rot)  DE(clash)    DE(int)     intcor
     16.01     -17.32       1.88        0.00      91.05       1.99       0.03       1.28       ----

> <Gold.Chemscore.Fitness>
16.0119

> <Gold.Chemscore.DG>
-17.3184

> <Gold.Chemscore.ZeroCoef>
-5.4800

> <Gold.Chemscore.Hbond>
1.8769

> <Gold.Chemscore.Metal>
0.0000

> <Gold.Chemscore.Lipo>
91.0466

> <Gold.Chemscore.Internal_Hbond>
0.0000

> <Gold.Chemscore.DEClash>
0.0310

> <Gold.Chemscore.DEInternal>
1.2755

> <Gold.Chemscore.Rot>
1.9856

> <Gold.Chemscore.Internal.Correction>
   9.000000E+99

> <Gold.Chemscore.Hbonds>
donor molecule, donor type, donor heavy atom, donor atom, acceptor molecule, acceptor atom, score
      L1  H     9    34       P1  8028  0.94
      P1  H 10752 10763       L1    20  0.68

> <Gold.Chemscore.Hbond.Weighted>
-6.2689

> <Gold.Chemscore.Metal.Weighted>
-0.0000

> <Gold.Chemscore.Lipo.Weighted>
-10.6525

> <Gold.Chemscore.Internal_Hbond.Weighted>
0.0000

> <Gold.Chemscore.DEClash.Weighted>
0.0310

> <Gold.Chemscore.DEInternal.Weighted>
1.2755

> <Gold.Chemscore.Rot.Weighted>
5.0830

> <Gold.Chemscore.Internal.Correction.Weighted>
   9.000000E+99

> <Gold.Protein.RotatedTorsions>
[ 6907 6896 6895 6894 ] final  -25.69 input  -60.11 | X-H torsion
[ 7974 7965 7964 7962 ] final  -44.94 input  175.53 | X-H torsion
[ 8008 7997 7996 7995 ] final -101.99 input   59.86 | X-H torsion
[ 10167 10162 10161 10158 ] final  -56.98 input  -65.29 | X-H torsion
[ 10718 10713 10712 10709 ] final -130.50 input   66.30 | X-H torsion
[ 10763 10752 10751 10750 ] final   72.15 input  -60.55 | X-H torsion
[ 11005 11000 10999 10996 ] final   36.22 input  -57.11 | X-H torsion

> <Gold.Protein.ActiveResidues>
 VAL166  LYS551  ARG553  GLY616  TRP617  ASP618  TYR619  PRO620  LYS621  CYS622 
 ASP623  PHE694  ASN695  SER759  ASP760  ASP761  ALA762  ILE779  LEU786  VAL792 
 PHE793  MET794  SER795  GLU796  ALA797  LYS798  CYS799  TRP800  GLU811  SER814 

> <Gold.Protein.RotatedAtoms>
  151.1717  135.0320  159.8753 H   0  0  0  0  0  0  0  0  0  0  0  0  # atno 6907 bound_to 6896
  152.5448  134.1164  159.8390 H   0  0  0  0  0  0  0  0  0  0  0  0  # atno 6908 bound_to 6896
  151.1270  133.5017  159.2632 H   0  0  0  0  0  0  0  0  0  0  0  0  # atno 6909 bound_to 6896
  145.9870  140.7222  142.9335 H   0  0  0  0  0  0  0  0  0  0  0  0  # atno 7974 bound_to 7965
  154.8504  140.0431  157.1600 H   0  0  0  0  0  0  0  0  0  0  0  0  # atno 8008 bound_to 7997
  154.8949  140.2992  155.5329 H   0  0  0  0  0  0  0  0  0  0  0  0  # atno 8009 bound_to 7997
  156.2996  140.2386  156.3970 H   0  0  0  0  0  0  0  0  0  0  0  0  # atno 8010 bound_to 7997
  140.6285  143.2449  151.5302 H   0  0  0  0  0  0  0  0  0  0  0  0  # atno 10167 bound_to 10162
  156.2150  130.6943  151.0693 H   0  0  0  0  0  0  0  0  0  0  0  0  # atno 10718 bound_to 10713
  153.0441  135.5110  154.7701 H   0  0  0  0  0  0  0  0  0  0  0  0  # atno 10763 bound_to 10752
  154.6614  135.2939  154.9863 H   0  0  0  0  0  0  0  0  0  0  0  0  # atno 10764 bound_to 10752
  154.0713  135.6677  153.4877 H   0  0  0  0  0  0  0  0  0  0  0  0  # atno 10765 bound_to 10752
  140.2348  134.3485  155.7949 H   0  0  0  0  0  0  0  0  0  0  0  0  # atno 11005 bound_to 11000
  144.6878  140.3005  143.7264 LP  0  0  0  0  0  0  0  0  0  0  0  0  # atno 17320 bound_to 7965
  145.7686  139.1849  143.2226 LP  0  0  0  0  0  0  0  0  0  0  0  0  # atno 17321 bound_to 7965
  139.5502  144.2415  152.1516 LP  0  0  0  0  0  0  0  0  0  0  0  0  # atno 17342 bound_to 10162
  140.1653  144.4987  150.6610 LP  0  0  0  0  0  0  0  0  0  0  0  0  # atno 17343 bound_to 10162
  157.7058  131.0757  150.6669 LP  0  0  0  0  0  0  0  0  0  0  0  0  # atno 17370 bound_to 10713
  156.6730  130.4545  149.5651 LP  0  0  0  0  0  0  0  0  0  0  0  0  # atno 17371 bound_to 10713
  141.2215  133.7265  156.8790 LP  0  0  0  0  0  0  0  0  0  0  0  0  # atno 17394 bound_to 11000
  140.1713  134.9098  157.2837 LP  0  0  0  0  0  0  0  0  0  0  0  0  # atno 17395 bound_to 11000

$$$$
