AV-unprocessed.smi:1974|AV-procd|sdf|7981|dock7
  -GOLD-   2272010163D 1   1.00000     0.00000
 Structure written by MMmdl.
 34 35  0  0  0  0  0  0  0  0  1 V2000
  151.7642  136.9189  155.7258 C   0  0  0  0  0  0  0  0  0  0  0  0
  151.2300  138.3337  155.4536 C   0  0  1  0  0  0  0  0  0  0  0  0
  149.9273  138.2957  154.6316 C   0  0  0  0  0  0  0  0  0  0  0  0
  149.4047  139.6243  154.3642 N   0  0  0  0  0  0  0  0  0  0  0  0
  148.2113  139.9687  153.7656 C   0  0  0  0  0  0  0  0  0  0  0  0
  148.1574  141.3325  153.7226 C   0  0  0  0  0  0  0  0  0  0  0  0
  149.3799  141.7384  154.3273 C   0  0  0  0  0  0  0  0  0  0  0  0
  150.1242  140.7137  154.7108 N   0  0  0  0  0  0  0  0  0  0  0  0
  151.0062  139.0313  156.7181 N   0  0  0  0  0  0  0  0  0  0  0  0
  151.9639  139.4363  157.5653 C   0  0  0  0  0  0  0  0  0  0  0  0
  153.1663  139.2668  157.3581 O   0  0  0  0  0  0  0  0  0  0  0  0
  151.4803  140.1626  158.8268 C   0  0  0  0  0  0  0  0  0  0  0  0
  151.9032  141.5635  158.8790 N   0  0  0  0  0  0  0  0  0  0  0  0
  152.6071  142.0524  160.0582 C   0  0  0  0  0  0  0  0  0  0  0  0
  153.2276  143.4066  159.7084 C   0  0  0  0  0  0  0  0  0  0  0  0
  152.2961  144.0956  158.3261 S   0  0  0  0  0  0  0  0  0  0  0  0
  151.6044  142.4960  157.8937 C   0  0  0  0  0  0  0  0  0  0  0  0
  150.9640  142.3155  156.8593 O   0  0  0  0  0  0  0  0  0  0  0  0
  151.9536  136.3855  154.7939 H   0  0  0  0  0  0  0  0  0  0  0  0
  151.0534  136.3308  156.3073 H   0  0  0  0  0  0  0  0  0  0  0  0
  152.7028  136.9505  156.2806 H   0  0  0  0  0  0  0  0  0  0  0  0
  151.9799  138.8730  154.8715 H   0  0  0  0  0  0  0  0  0  0  0  0
  150.1057  137.8099  153.6714 H   0  0  0  0  0  0  0  0  0  0  0  0
  149.1644  137.7043  155.1410 H   0  0  0  0  0  0  0  0  0  0  0  0
  147.5094  139.2229  153.4221 H   0  0  0  0  0  0  0  0  0  0  0  0
  147.3655  141.9466  153.3199 H   0  0  0  0  0  0  0  0  0  0  0  0
  149.7459  142.7402  154.4978 H   0  0  0  0  0  0  0  0  0  0  0  0
  150.0461  139.2265  156.9629 H   0  0  0  0  0  0  0  0  0  0  0  0
  150.3922  140.0999  158.8632 H   0  0  0  0  0  0  0  0  0  0  0  0
  151.8476  139.6445  159.7145 H   0  0  0  0  0  0  0  0  0  0  0  0
  151.8844  142.1655  160.8673 H   0  0  0  0  0  0  0  0  0  0  0  0
  153.3692  141.3472  160.3920 H   0  0  0  0  0  0  0  0  0  0  0  0
  153.2350  144.0889  160.5585 H   0  0  0  0  0  0  0  0  0  0  0  0
  154.2591  143.2697  159.3823 H   0  0  0  0  0  0  0  0  0  0  0  0
  1  2  1  0  0  0  0
  1 19  1  0  0  0  0
  1 20  1  0  0  0  0
  1 21  1  0  0  0  0
  2  3  1  0  0  0  0
  2  9  1  0  0  0  0
  2 22  1  0  0  0  0
  3  4  1  0  0  0  0
  3 23  1  0  0  0  0
  3 24  1  0  0  0  0
  4  8  1  0  0  0  0
  4  5  1  0  0  0  0
  5  6  2  0  0  0  0
  5 25  1  0  0  0  0
  6  7  1  0  0  0  0
  6 26  1  0  0  0  0
  7  8  2  0  0  0  0
  7 27  1  0  0  0  0
  9 10  1  0  0  0  0
  9 28  1  0  0  0  0
 10 11  2  0  0  0  0
 10 12  1  0  0  0  0
 12 13  1  0  0  0  0
 12 29  1  0  0  0  0
 12 30  1  0  0  0  0
 13 17  1  0  0  0  0
 13 14  1  0  0  0  0
 14 15  1  0  0  0  0
 14 31  1  0  0  0  0
 14 32  1  0  0  0  0
 15 16  1  0  0  0  0
 15 33  1  0  0  0  0
 15 34  1  0  0  0  0
 16 17  1  0  0  0  0
 17 18  2  0  0  0  0
M  END
> <s_m_source_file>
AV-unprocessed.smi

> <i_m_source_file_index>
1974

> <i_lp_mmshare_version>
43012

> <i_f3d_flags>
0

> <s_epik_input>
bjFbY0hdW2NIXVtjSF1uMVtDSDJdW0NAQEhdKFtDSDNdKVtOSF1DKD1PKVtDSDJdTjJbQ0gyXVtDSDJdU0MyPU8=

> <s_epik_cmdline>
J2VwaWtfcHl0aG9uJywgJy1waCcsICc3LjAnLCAnLXRuJywgJzgnLCAnLW1hJywgJzIwMCcsICctbWV0YWxfYmluZGluZycsICctaW1hZScsICc8aW5maWxlLm1hZT4nLCAnLW9tYWUnLCAnPG91dGZpbGUubWFlPic=

> <r_lp_tautomer_probability>
1

> <r_epik_Ionization_Penalty>
0.000283364

> <r_epik_Ionization_Penalty_Charging>
0

> <r_epik_Ionization_Penalty_Neutral>
0.000283364

> <r_epik_State_Penalty>
-0

> <r_epik_Charging_Adjusted_Penalty>
0

> <i_epik_Tot_Q>
0

> <i_epik_Tot_abs_Q>
0

> <r_epik_Metal_State_Penalty>
-0

> <b_epik_Metal_Only>
0

> <s_lp_Force_Field>
OPLS_2005

> <r_lp_Energy>
3.37474

> <b_lp_Chiralities_Consistent>
1

> <s_lp_Variant>
AV-unprocessed.smi:1974-2

> <Gold.Version>
5.8.1

> <Gold.Id.Protein>
6NUR|6NUR_protein|mol2

> <Gold.PLP.Fitness>
42.8153

> <Gold.PLP.PLP>
-34.8474

> <Gold.PLP.part.hbond>
-2.0000

> <Gold.PLP.part.metal>
0.0000

> <Gold.PLP.part.buried>
0.5380

> <Gold.PLP.part.nonpolar>
-32.7141

> <Gold.PLP.part.repulsive>
0.2523

> <Gold.PLP.ligand.clash>
0.0000

> <Gold.PLP.ligand.torsion>
0.1883

> <Gold.PLP.Chemscore.Hbond>
1.7670

> <Gold.PLP.Chemscore.CHOScore>
1.0000

> <Gold.PLP.Chemscore.Metal>
0.0000

> <Gold.Chemscore.Hbonds>
donor molecule, donor type, donor heavy atom, donor atom, acceptor molecule, acceptor atom, score
      P1  H  7989  7998       L1     8  0.82
      P1  H  7997  8010       L1    11  0.98
      L1  C     7    27       P1  8028  1.00

> <Gold.PLP.Chemscore.Internal.Correction>
0.0435

> <Gold.Rescore>
     Score         DG    S(hbond)    S(metal)    S(lipo)     H(rot)  DE(clash)    DE(int)     intcor
     13.48     -13.93       1.23        0.00      81.66       2.04       0.34       0.11       ----

> <Gold.Chemscore.Fitness>
13.4754

> <Gold.Chemscore.DG>
-13.9289

> <Gold.Chemscore.ZeroCoef>
-5.4800

> <Gold.Chemscore.Hbond>
1.2331

> <Gold.Chemscore.Metal>
0.0000

> <Gold.Chemscore.Lipo>
81.6578

> <Gold.Chemscore.Internal_Hbond>
0.0000

> <Gold.Chemscore.DEClash>
0.3398

> <Gold.Chemscore.DEInternal>
0.1137

> <Gold.Chemscore.Rot>
2.0405

> <Gold.Chemscore.Internal.Correction>
   9.000000E+99

> <Gold.Chemscore.Hbonds>
donor molecule, donor type, donor heavy atom, donor atom, acceptor molecule, acceptor atom, score
      P1  H  7989  7998       L1     8  0.14
      P1  H  7997  8010       L1    11  0.93

> <Gold.Chemscore.Hbond.Weighted>
-4.1187

> <Gold.Chemscore.Metal.Weighted>
-0.0000

> <Gold.Chemscore.Lipo.Weighted>
-9.5540

> <Gold.Chemscore.Internal_Hbond.Weighted>
0.0000

> <Gold.Chemscore.DEClash.Weighted>
0.3398

> <Gold.Chemscore.DEInternal.Weighted>
0.1137

> <Gold.Chemscore.Rot.Weighted>
5.2237

> <Gold.Chemscore.Internal.Correction.Weighted>
   9.000000E+99

> <Gold.Protein.RotatedTorsions>
[ 6907 6896 6895 6894 ] final  156.89 input  -60.11 | X-H torsion
[ 7974 7965 7964 7962 ] final   89.86 input  175.53 | X-H torsion
[ 8008 7997 7996 7995 ] final   70.84 input   59.86 | X-H torsion
[ 10167 10162 10161 10158 ] final  102.73 input  -65.29 | X-H torsion
[ 10718 10713 10712 10709 ] final   61.86 input   66.30 | X-H torsion
[ 10763 10752 10751 10750 ] final -172.50 input  -60.55 | X-H torsion
[ 11005 11000 10999 10996 ] final   22.36 input  -57.11 | X-H torsion

> <Gold.Protein.ActiveResidues>
 VAL166  LYS551  ARG553  GLY616  TRP617  ASP618  TYR619  PRO620  LYS621  CYS622 
 ASP623  PHE694  ASN695  SER759  ASP760  ASP761  ALA762  ILE779  LEU786  VAL792 
 PHE793  MET794  SER795  GLU796  ALA797  LYS798  CYS799  TRP800  GLU811  SER814 

> <Gold.Protein.RotatedAtoms>
  152.0231  133.3906  159.4266 H   0  0  0  0  0  0  0  0  0  0  0  0  # atno 6907 bound_to 6896
  150.6888  134.3604  159.4957 H   0  0  0  0  0  0  0  0  0  0  0  0  # atno 6908 bound_to 6896
  152.1380  134.9084  160.0606 H   0  0  0  0  0  0  0  0  0  0  0  0  # atno 6909 bound_to 6896
  145.5267  139.2281  143.2641 H   0  0  0  0  0  0  0  0  0  0  0  0  # atno 7974 bound_to 7965
  155.7449  140.3489  155.5122 H   0  0  0  0  0  0  0  0  0  0  0  0  # atno 8008 bound_to 7997
  155.9059  140.1042  157.1337 H   0  0  0  0  0  0  0  0  0  0  0  0  # atno 8009 bound_to 7997
  154.4049  140.1277  156.4482 H   0  0  0  0  0  0  0  0  0  0  0  0  # atno 8010 bound_to 7997
  139.7324  144.7032  151.0701 H   0  0  0  0  0  0  0  0  0  0  0  0  # atno 10167 bound_to 10162
  157.5859  130.9018  149.9515 H   0  0  0  0  0  0  0  0  0  0  0  0  # atno 10718 bound_to 10713
  154.6186  135.2872  155.0351 H   0  0  0  0  0  0  0  0  0  0  0  0  # atno 10763 bound_to 10752
  154.1555  135.6496  153.4977 H   0  0  0  0  0  0  0  0  0  0  0  0  # atno 10764 bound_to 10752
  153.0226  135.5365  154.6967 H   0  0  0  0  0  0  0  0  0  0  0  0  # atno 10765 bound_to 10752
  140.3814  134.1916  155.7663 H   0  0  0  0  0  0  0  0  0  0  0  0  # atno 11005 bound_to 11000
  146.2071  140.6082  142.9076 LP  0  0  0  0  0  0  0  0  0  0  0  0  # atno 17320 bound_to 7965
  144.7647  140.5503  143.6711 LP  0  0  0  0  0  0  0  0  0  0  0  0  # atno 17321 bound_to 7965
  140.7773  143.5026  150.9752 LP  0  0  0  0  0  0  0  0  0  0  0  0  # atno 17342 bound_to 10162
  139.8714  143.7187  152.3166 LP  0  0  0  0  0  0  0  0  0  0  0  0  # atno 17343 bound_to 10162
  156.0908  130.3663  150.0398 LP  0  0  0  0  0  0  0  0  0  0  0  0  # atno 17370 bound_to 10713
  156.8530  130.9465  151.3624 LP  0  0  0  0  0  0  0  0  0  0  0  0  # atno 17371 bound_to 10713
  141.1922  133.8178  157.0849 LP  0  0  0  0  0  0  0  0  0  0  0  0  # atno 17394 bound_to 11000
  140.0475  134.9822  157.1076 LP  0  0  0  0  0  0  0  0  0  0  0  0  # atno 17395 bound_to 11000

$$$$
