AV-unprocessed.smi:2058|AV-procd|sdf|8346|dock1
  -GOLD-   2272011 13D 1   1.00000     0.00000
 Structure written by MMmdl.
 43 44  0  0  0  0  0  0  0  0  2 V2000
  145.0031  136.3745  153.6435 C   0  0  0  0  0  0  0  0  0  0  0  0
  145.6541  137.2447  152.5577 C   0  0  2  0  0  0  0  0  0  0  0  0
  145.5809  136.5900  151.1632 C   0  0  0  0  0  0  0  0  0  0  0  0
  146.2308  137.3971  150.2046 O   0  0  0  0  0  0  0  0  0  0  0  0
  147.0427  137.5070  152.9278 N   0  0  0  0  0  0  0  0  0  0  0  0
  147.4476  138.4027  153.8395 C   0  0  0  0  0  0  0  0  0  0  0  0
  146.6780  139.1254  154.4722 O   0  0  0  0  0  0  0  0  0  0  0  0
  148.7844  138.3878  153.9769 N   0  0  0  0  0  0  0  0  0  0  0  0
  149.5924  139.2175  154.7994 C   0  0  0  0  0  0  0  0  0  0  0  0
  151.0095  139.2197  154.7668 C   0  0  0  0  0  0  0  0  0  0  0  0
  151.7221  140.0625  155.6443 C   0  0  0  0  0  0  0  0  0  0  0  0
  151.0115  140.8850  156.5479 C   0  0  0  0  0  0  0  0  0  0  0  0
  151.6345  141.7520  157.4550 N   0  0  0  0  0  0  0  0  0  0  0  0
  151.4817  141.3180  158.8410 C   0  0  0  0  0  0  0  0  0  0  0  0
  152.3436  142.1781  159.7819 C   0  0  0  0  0  0  0  0  0  0  0  0
  152.0379  143.6732  159.5961 C   0  0  0  0  0  0  0  0  0  0  0  0
  152.1867  144.0655  158.1173 C   0  0  0  0  0  0  0  0  0  0  0  0
  151.3238  143.1604  157.2212 C   0  0  0  0  0  0  0  0  0  0  0  0
  149.6612  140.8469  156.5523 N   0  3  0  0  0  0  0  0  0  0  0  0
  148.9409  140.0530  155.7306 C   0  0  0  0  0  0  0  0  0  0  0  0
  143.9479  136.2007  153.4308 H   0  0  0  0  0  0  0  0  0  0  0  0
  145.0637  136.8550  154.6204 H   0  0  0  0  0  0  0  0  0  0  0  0
  145.4911  135.4022  153.7196 H   0  0  0  0  0  0  0  0  0  0  0  0
  145.1252  138.1996  152.5286 H   0  0  0  0  0  0  0  0  0  0  0  0
  146.0771  135.6190  151.1633 H   0  0  0  0  0  0  0  0  0  0  0  0
  144.5467  136.4218  150.8609 H   0  0  0  0  0  0  0  0  0  0  0  0
  145.5903  137.9682  149.8090 H   0  0  0  0  0  0  0  0  0  0  0  0
  147.7457  136.9551  152.4584 H   0  0  0  0  0  0  0  0  0  0  0  0
  149.2766  137.6693  153.4663 H   0  0  0  0  0  0  0  0  0  0  0  0
  151.5649  138.5809  154.0975 H   0  0  0  0  0  0  0  0  0  0  0  0
  152.8018  140.0703  155.6211 H   0  0  0  0  0  0  0  0  0  0  0  0
  150.4323  141.3906  159.1304 H   0  0  0  0  0  0  0  0  0  0  0  0
  151.7674  140.2692  158.9336 H   0  0  0  0  0  0  0  0  0  0  0  0
  152.1717  141.8855  160.8182 H   0  0  0  0  0  0  0  0  0  0  0  0
  153.3995  141.9942  159.5788 H   0  0  0  0  0  0  0  0  0  0  0  0
  151.0219  143.8852  159.9316 H   0  0  0  0  0  0  0  0  0  0  0  0
  152.7037  144.2749  160.2155 H   0  0  0  0  0  0  0  0  0  0  0  0
  151.9066  145.1096  157.9752 H   0  0  0  0  0  0  0  0  0  0  0  0
  153.2332  143.9817  157.8210 H   0  0  0  0  0  0  0  0  0  0  0  0
  151.4949  143.4057  156.1721 H   0  0  0  0  0  0  0  0  0  0  0  0
  150.2680  143.3429  157.4249 H   0  0  0  0  0  0  0  0  0  0  0  0
  147.8678  140.1149  155.8416 H   0  0  0  0  0  0  0  0  0  0  0  0
  149.1612  141.4439  157.2117 H   0  0  0  0  0  0  0  0  0  0  0  0
  1  2  1  0  0  0  0
  1 21  1  0  0  0  0
  1 22  1  0  0  0  0
  1 23  1  0  0  0  0
  2  3  1  0  0  0  0
  2  5  1  0  0  0  0
  2 24  1  0  0  0  0
  3  4  1  0  0  0  0
  3 25  1  0  0  0  0
  3 26  1  0  0  0  0
  4 27  1  0  0  0  0
  5  6  1  0  0  0  0
  5 28  1  0  0  0  0
  6  7  2  0  0  0  0
  6  8  1  0  0  0  0
  8  9  1  0  0  0  0
  8 29  1  0  0  0  0
  9 20  1  0  0  0  0
  9 10  2  0  0  0  0
 10 11  1  0  0  0  0
 10 30  1  0  0  0  0
 11 12  2  0  0  0  0
 11 31  1  0  0  0  0
 12 13  1  0  0  0  0
 12 19  1  0  0  0  0
 13 18  1  0  0  0  0
 13 14  1  0  0  0  0
 14 15  1  0  0  0  0
 14 32  1  0  0  0  0
 14 33  1  0  0  0  0
 15 16  1  0  0  0  0
 15 34  1  0  0  0  0
 15 35  1  0  0  0  0
 16 17  1  0  0  0  0
 16 36  1  0  0  0  0
 16 37  1  0  0  0  0
 17 18  1  0  0  0  0
 17 38  1  0  0  0  0
 17 39  1  0  0  0  0
 18 40  1  0  0  0  0
 18 41  1  0  0  0  0
 19 20  2  0  0  0  0
 19 43  1  0  0  0  0
 20 42  1  0  0  0  0
M  CHG  1  19   1
M  END
> <s_m_source_file>
AV-unprocessed.smi

> <i_m_source_file_index>
2058

> <i_lp_mmshare_version>
43012

> <i_f3d_flags>
0

> <s_epik_input>
W09IXVtDSDJdW0NAQEhdKFtDSDNdKVtOSF1DKD1PKVtOSF1jMVtjSF1bY0hdYyhuW2NIXTEpTjJbQ0gyXVtDSDJdW0NIMl1bQ0gyXVtDSDJdMg==

> <s_epik_cmdline>
J2VwaWtfcHl0aG9uJywgJy1waCcsICc3LjAnLCAnLXRuJywgJzgnLCAnLW1hJywgJzIwMCcsICctbWV0YWxfYmluZGluZycsICctaW1hZScsICc8aW5maWxlLm1hZT4nLCAnLW9tYWUnLCAnPG91dGZpbGUubWFlPic=

> <r_lp_tautomer_probability>
0.999994

> <r_epik_Ionization_Penalty>
1.11069

> <r_epik_Ionization_Penalty_Charging>
1.11067

> <r_epik_Ionization_Penalty_Neutral>
2.03008e-05

> <r_epik_State_Penalty>
1.16863

> <r_epik_Charging_Adjusted_Penalty>
2.27929

> <i_epik_Tot_Q>
1

> <i_epik_Tot_abs_Q>
1

> <r_epik_Metal_State_Penalty>
1.25471

> <b_epik_Metal_Only>
0

> <s_lp_Force_Field>
OPLS_2005

> <r_lp_Energy>
25.869

> <b_lp_Chiralities_Consistent>
1

> <s_lp_Variant>
AV-unprocessed.smi:2058-3

> <Gold.Version>
5.8.1

> <Gold.Id.Protein>
6NUR|6NUR_protein|mol2

> <Gold.PLP.Fitness>
45.1858

> <Gold.PLP.PLP>
-35.8135

> <Gold.PLP.part.hbond>
-4.0000

> <Gold.PLP.part.metal>
0.0000

> <Gold.PLP.part.buried>
-0.7196

> <Gold.PLP.part.nonpolar>
-30.8302

> <Gold.PLP.part.repulsive>
0.2188

> <Gold.PLP.ligand.clash>
0.0000

> <Gold.PLP.ligand.torsion>
0.3829

> <Gold.PLP.Chemscore.Hbond>
3.3205

> <Gold.PLP.Chemscore.CHOScore>
0.0000

> <Gold.PLP.Chemscore.Metal>
0.0000

> <Gold.Chemscore.Hbonds>
donor molecule, donor type, donor heavy atom, donor atom, acceptor molecule, acceptor atom, score
      L1  H     4    27       P1 10171  0.98
      L1  H     5    28       P1  7948  0.98
      L1  H     8    29       P1  7948  0.58
      P1  H  7954  7966       L1     4  0.74

> <Gold.PLP.Chemscore.Internal.Correction>
0.1766

> <Gold.Rescore>
     Score         DG    S(hbond)    S(metal)    S(lipo)     H(rot)  DE(clash)    DE(int)     intcor
     18.67     -20.74       2.97        0.00      91.07       2.08       0.31       1.76       ----

> <Gold.Chemscore.Fitness>
18.6704

> <Gold.Chemscore.DG>
-20.7410

> <Gold.Chemscore.ZeroCoef>
-5.4800

> <Gold.Chemscore.Hbond>
2.9708

> <Gold.Chemscore.Metal>
0.0000

> <Gold.Chemscore.Lipo>
91.0687

> <Gold.Chemscore.Internal_Hbond>
0.0000

> <Gold.Chemscore.DEClash>
0.3073

> <Gold.Chemscore.DEInternal>
1.7632

> <Gold.Chemscore.Rot>
2.0767

> <Gold.Chemscore.Internal.Correction>
   9.000000E+99

> <Gold.Chemscore.Hbonds>
donor molecule, donor type, donor heavy atom, donor atom, acceptor molecule, acceptor atom, score
      L1  H     4    27       P1 10171  0.93
      L1  H     5    28       P1  7948  0.92
      L1  H     8    29       P1  7948  0.55
      P1  H  7954  7966       L1     4  0.66

> <Gold.Chemscore.Hbond.Weighted>
-9.9224

> <Gold.Chemscore.Metal.Weighted>
-0.0000

> <Gold.Chemscore.Lipo.Weighted>
-10.6550

> <Gold.Chemscore.Internal_Hbond.Weighted>
0.0000

> <Gold.Chemscore.DEClash.Weighted>
0.3073

> <Gold.Chemscore.DEInternal.Weighted>
1.7632

> <Gold.Chemscore.Rot.Weighted>
5.3164

> <Gold.Chemscore.Internal.Correction.Weighted>
   9.000000E+99

> <Gold.Protein.RotatedTorsions>
[ 6907 6896 6895 6894 ] final  -87.22 input  -60.11 | X-H torsion
[ 7974 7965 7964 7962 ] final    5.22 input  175.53 | X-H torsion
[ 8008 7997 7996 7995 ] final   60.38 input   59.86 | X-H torsion
[ 10167 10162 10161 10158 ] final  132.62 input  -65.29 | X-H torsion
[ 10718 10713 10712 10709 ] final  -61.08 input   66.30 | X-H torsion
[ 10763 10752 10751 10750 ] final  -32.71 input  -60.55 | X-H torsion
[ 11005 11000 10999 10996 ] final   58.53 input  -57.11 | X-H torsion

> <Gold.Protein.ActiveResidues>
 VAL166  LYS551  ARG553  GLY616  TRP617  ASP618  TYR619  PRO620  LYS621  CYS622 
 ASP623  PHE694  ASN695  SER759  ASP760  ASP761  ALA762  ILE779  LEU786  VAL792 
 PHE793  MET794  SER795  GLU796  ALA797  LYS798  CYS799  TRP800  GLU811  SER814 

> <Gold.Protein.RotatedAtoms>
  150.6866  134.2930  159.4674 H   0  0  0  0  0  0  0  0  0  0  0  0  # atno 6907 bound_to 6896
  152.0834  134.9453  160.0582 H   0  0  0  0  0  0  0  0  0  0  0  0  # atno 6908 bound_to 6896
  152.0797  133.4112  159.4533 H   0  0  0  0  0  0  0  0  0  0  0  0  # atno 6909 bound_to 6896
  146.2441  140.0416  142.8381 H   0  0  0  0  0  0  0  0  0  0  0  0  # atno 7974 bound_to 7965
  155.5814  140.3491  155.4541 H   0  0  0  0  0  0  0  0  0  0  0  0  # atno 8008 bound_to 7997
  156.0370  140.1287  157.0222 H   0  0  0  0  0  0  0  0  0  0  0  0  # atno 8009 bound_to 7997
  154.4376  140.1032  156.6168 H   0  0  0  0  0  0  0  0  0  0  0  0  # atno 8010 bound_to 7997
  139.5331  144.6653  151.4879 H   0  0  0  0  0  0  0  0  0  0  0  0  # atno 10167 bound_to 10162
  156.0946  130.4195  150.0943 H   0  0  0  0  0  0  0  0  0  0  0  0  # atno 10718 bound_to 10713
  153.8183  135.6876  153.4831 H   0  0  0  0  0  0  0  0  0  0  0  0  # atno 10763 bound_to 10752
  153.1585  135.4589  154.9736 H   0  0  0  0  0  0  0  0  0  0  0  0  # atno 10764 bound_to 10752
  154.7938  135.3311  154.7658 H   0  0  0  0  0  0  0  0  0  0  0  0  # atno 10765 bound_to 10752
  140.0370  134.5928  155.9431 H   0  0  0  0  0  0  0  0  0  0  0  0  # atno 11005 bound_to 11000
  145.1064  140.9378  143.4682 LP  0  0  0  0  0  0  0  0  0  0  0  0  # atno 17320 bound_to 7965
  145.0620  139.3098  143.5875 LP  0  0  0  0  0  0  0  0  0  0  0  0  # atno 17321 bound_to 7965
  140.6522  143.8673  150.6798 LP  0  0  0  0  0  0  0  0  0  0  0  0  # atno 17342 bound_to 10162
  140.2041  143.3936  152.1769 LP  0  0  0  0  0  0  0  0  0  0  0  0  # atno 17343 bound_to 10162
  156.8945  130.9600  151.3584 LP  0  0  0  0  0  0  0  0  0  0  0  0  # atno 17370 bound_to 10713
  157.6104  130.8579  149.8943 LP  0  0  0  0  0  0  0  0  0  0  0  0  # atno 17371 bound_to 10713
  141.1863  133.6557  156.5233 LP  0  0  0  0  0  0  0  0  0  0  0  0  # atno 17394 bound_to 11000
  140.4131  134.7255  157.4847 LP  0  0  0  0  0  0  0  0  0  0  0  0  # atno 17395 bound_to 11000

$$$$
