AV-unprocessed.smi:281|AV-procd|sdf|2109|dock9
  -GOLD-   2262021403D 1   1.00000     0.00000
 Structure written by MMmdl.
 55 59  0  0  0  0  0  0  0  0  1 V2000
  152.2235  138.8912  154.7059 C   0  0  0  0  0  0  0  0  0  0  0  0
  150.7722  138.8618  155.1959 C   0  0  2  0  0  0  0  0  0  0  0  0
  149.9862  137.6822  154.5980 C   0  0  0  0  0  0  0  0  0  0  0  0
  148.5869  137.7593  155.0003 N   0  0  0  0  0  0  0  0  0  0  0  0
  147.8686  136.6228  154.8148 C   0  0  0  0  0  0  0  0  0  0  0  0
  148.1238  135.5254  155.5770 N   0  0  0  0  0  0  0  0  0  0  0  0
  147.4153  134.4055  155.4082 C   0  0  0  0  0  0  0  0  0  0  0  0
  146.4251  134.1668  154.5467 N   0  0  0  0  0  0  0  0  0  0  0  0
  146.1721  135.2580  153.7692 C   0  0  0  0  0  0  0  0  0  0  0  0
  146.8378  136.5147  153.8385 C   0  0  0  0  0  0  0  0  0  0  0  0
  146.3107  137.3805  152.8876 N   0  0  0  0  0  0  0  0  0  0  0  0
  145.3801  136.6805  152.2992 C   0  0  0  0  0  0  0  0  0  0  0  0
  145.2384  135.3891  152.7554 N   0  0  0  0  0  0  0  0  0  0  0  0
  144.2926  134.3933  152.2738 C   0  0  0  0  0  0  0  0  0  0  0  0
  144.6005  133.8373  150.8579 C   0  0  1  0  0  0  0  0  0  0  0  0
  144.3933  134.8890  149.9352 O   0  0  0  0  0  0  0  0  0  0  0  0
  146.0151  133.2832  150.6923 C   0  0  0  0  0  0  0  0  0  0  0  0
  145.8624  131.7651  150.8474 C   0  0  0  0  0  0  0  0  0  0  0  0
  144.4688  131.5155  150.9850 O   0  0  0  0  0  0  0  0  0  0  0  0
  143.7542  132.6236  150.4619 C   0  0  0  0  0  0  0  0  0  0  0  0
  147.9649  139.0328  154.6495 C   0  0  0  0  0  0  0  0  0  0  0  0
  148.7846  140.2181  155.2198 C   0  0  2  0  0  0  0  0  0  0  0  0
  148.6611  140.3487  156.7353 C   0  0  0  0  0  0  0  0  0  0  0  0
  147.3786  141.1535  156.9084 C   0  0  0  0  0  0  0  0  0  0  0  0
  147.3146  142.0125  155.7771 O   0  0  0  0  0  0  0  0  0  0  0  0
  148.2660  141.6077  154.7956 C   0  0  2  0  0  0  0  0  0  0  0  0
  147.6758  141.7284  153.3833 C   0  0  0  0  0  0  0  0  0  0  0  0
  150.1520  140.0912  154.8180 O   0  0  0  0  0  0  0  0  0  0  0  0
  152.7492  137.9767  154.9818 H   0  0  0  0  0  0  0  0  0  0  0  0
  152.7649  139.7303  155.1433 H   0  0  0  0  0  0  0  0  0  0  0  0
  152.2723  138.9918  153.6213 H   0  0  0  0  0  0  0  0  0  0  0  0
  150.7835  138.7763  156.2831 H   0  0  0  0  0  0  0  0  0  0  0  0
  150.0398  137.7087  153.5087 H   0  0  0  0  0  0  0  0  0  0  0  0
  150.4425  136.7445  154.9126 H   0  0  0  0  0  0  0  0  0  0  0  0
  147.6799  133.5830  156.0562 H   0  0  0  0  0  0  0  0  0  0  0  0
  144.7736  137.0884  151.5038 H   0  0  0  0  0  0  0  0  0  0  0  0
  144.2626  133.5772  152.9971 H   0  0  0  0  0  0  0  0  0  0  0  0
  143.2990  134.8436  152.2870 H   0  0  0  0  0  0  0  0  0  0  0  0
  144.9053  134.7130  149.1607 H   0  0  0  0  0  0  0  0  0  0  0  0
  146.3996  133.4939  149.6928 H   0  0  0  0  0  0  0  0  0  0  0  0
  146.7247  133.7110  151.4006 H   0  0  0  0  0  0  0  0  0  0  0  0
  146.2459  131.2455  149.9686 H   0  0  0  0  0  0  0  0  0  0  0  0
  146.3930  131.3879  151.7222 H   0  0  0  0  0  0  0  0  0  0  0  0
  142.7311  132.6680  150.8342 H   0  0  0  0  0  0  0  0  0  0  0  0
  143.7089  132.5159  149.3764 H   0  0  0  0  0  0  0  0  0  0  0  0
  147.9207  139.0926  153.5615 H   0  0  0  0  0  0  0  0  0  0  0  0
  146.9383  139.0693  155.0163 H   0  0  0  0  0  0  0  0  0  0  0  0
  148.6340  139.3950  157.2634 H   0  0  0  0  0  0  0  0  0  0  0  0
  149.5018  140.9227  157.1280 H   0  0  0  0  0  0  0  0  0  0  0  0
  146.5085  140.4963  156.8992 H   0  0  0  0  0  0  0  0  0  0  0  0
  147.3645  141.7191  157.8402 H   0  0  0  0  0  0  0  0  0  0  0  0
  149.0933  142.3147  154.8794 H   0  0  0  0  0  0  0  0  0  0  0  0
  148.3923  141.4013  152.6294 H   0  0  0  0  0  0  0  0  0  0  0  0
  147.4131  142.7633  153.1636 H   0  0  0  0  0  0  0  0  0  0  0  0
  146.7695  141.1326  153.2735 H   0  0  0  0  0  0  0  0  0  0  0  0
  1  2  1  0  0  0  0
  1 29  1  0  0  0  0
  1 30  1  0  0  0  0
  1 31  1  0  0  0  0
  2 28  1  0  0  0  0
  2  3  1  0  0  0  0
  2 32  1  0  0  0  0
  3  4  1  0  0  0  0
  3 33  1  0  0  0  0
  3 34  1  0  0  0  0
  4  5  1  0  0  0  0
  4 21  1  0  0  0  0
  5 10  1  0  0  0  0
  5  6  2  0  0  0  0
  6  7  1  0  0  0  0
  7  8  2  0  0  0  0
  7 35  1  0  0  0  0
  8  9  1  0  0  0  0
  9 13  1  0  0  0  0
  9 10  2  0  0  0  0
 10 11  1  0  0  0  0
 11 12  2  0  0  0  0
 12 13  1  0  0  0  0
 12 36  1  0  0  0  0
 13 14  1  0  0  0  0
 14 15  1  0  0  0  0
 14 37  1  0  0  0  0
 14 38  1  0  0  0  0
 15 20  1  0  0  0  0
 15 16  1  0  0  0  0
 15 17  1  0  0  0  0
 16 39  1  0  0  0  0
 17 18  1  0  0  0  0
 17 40  1  0  0  0  0
 17 41  1  0  0  0  0
 18 19  1  0  0  0  0
 18 42  1  0  0  0  0
 18 43  1  0  0  0  0
 19 20  1  0  0  0  0
 20 44  1  0  0  0  0
 20 45  1  0  0  0  0
 21 22  1  0  0  0  0
 21 46  1  0  0  0  0
 21 47  1  0  0  0  0
 22 26  1  0  0  0  0
 22 23  1  0  0  0  0
 22 28  1  0  0  0  0
 23 24  1  0  0  0  0
 23 48  1  0  0  0  0
 23 49  1  0  0  0  0
 24 25  1  0  0  0  0
 24 50  1  0  0  0  0
 24 51  1  0  0  0  0
 25 26  1  0  0  0  0
 26 27  1  0  0  0  0
 26 52  1  0  0  0  0
 27 53  1  0  0  0  0
 27 54  1  0  0  0  0
 27 55  1  0  0  0  0
M  END
> <s_m_source_file>
AV-unprocessed.smi

> <i_m_source_file_index>
281

> <i_lp_mmshare_version>
43012

> <i_f3d_flags>
0

> <s_epik_input>
W0NIM11bQ0BASF0xT1tDSDJdW0NIMl1bQ0BAXTEyW0NIMl1OKFtDSDJdW0NASF0oTzIpW0NIM10pYyhuW2NIXW4zKWMoYzM0KW5bY0hdbjRbQ0gyXVtDQEBdNShbT0hdKVtDSDJdW0NIMl1PW0NIMl01

> <s_epik_cmdline>
J2VwaWtfcHl0aG9uJywgJy1waCcsICc3LjAnLCAnLXRuJywgJzgnLCAnLW1hJywgJzIwMCcsICctbWV0YWxfYmluZGluZycsICctaW1hZScsICc8aW5maWxlLm1hZT4nLCAnLW9tYWUnLCAnPG91dGZpbGUubWFlPic=

> <r_lp_tautomer_probability>
1

> <r_epik_Ionization_Penalty>
0.00571331

> <r_epik_Ionization_Penalty_Charging>
0

> <r_epik_Ionization_Penalty_Neutral>
0.00571331

> <r_epik_State_Penalty>
0.00399586

> <r_epik_Charging_Adjusted_Penalty>
0.00399586

> <i_epik_Tot_Q>
0

> <i_epik_Tot_abs_Q>
0

> <r_epik_Metal_State_Penalty>
-0

> <b_epik_Metal_Only>
0

> <s_lp_Force_Field>
OPLS_2005

> <r_lp_Energy>
56.9386

> <b_lp_Chiralities_Consistent>
1

> <s_lp_Variant>
AV-unprocessed.smi:281-9

> <Gold.Version>
5.8.1

> <Gold.Id.Protein>
6NUR|6NUR_protein|mol2

> <Gold.PLP.Fitness>
37.8879

> <Gold.PLP.PLP>
-30.3932

> <Gold.PLP.part.hbond>
-1.8724

> <Gold.PLP.part.metal>
0.0000

> <Gold.PLP.part.buried>
-2.2153

> <Gold.PLP.part.nonpolar>
-26.5216

> <Gold.PLP.part.repulsive>
1.6190

> <Gold.PLP.ligand.clash>
0.0000

> <Gold.PLP.ligand.torsion>
0.6009

> <Gold.PLP.Chemscore.Hbond>
1.7963

> <Gold.PLP.Chemscore.CHOScore>
1.0000

> <Gold.PLP.Chemscore.Metal>
0.0000

> <Gold.Chemscore.Hbonds>
donor molecule, donor type, donor heavy atom, donor atom, acceptor molecule, acceptor atom, score
      L1  H    16    39       P1  7921  1.00
      P1  H  7989  7998       L1    28  0.76
      L1  C    12    36       P1 10171  1.00

> <Gold.PLP.Chemscore.Internal.Correction>
0.3078

> <Gold.Rescore>
     Score         DG    S(hbond)    S(metal)    S(lipo)     H(rot)  DE(clash)    DE(int)     intcor
     10.91     -12.80       1.02        0.00      79.21       2.09       0.02       1.86       ----

> <Gold.Chemscore.Fitness>
10.9092

> <Gold.Chemscore.DG>
-12.7966

> <Gold.Chemscore.ZeroCoef>
-5.4800

> <Gold.Chemscore.Hbond>
1.0198

> <Gold.Chemscore.Metal>
0.0000

> <Gold.Chemscore.Lipo>
79.2119

> <Gold.Chemscore.Internal_Hbond>
0.0000

> <Gold.Chemscore.DEClash>
0.0245

> <Gold.Chemscore.DEInternal>
1.8629

> <Gold.Chemscore.Rot>
2.0927

> <Gold.Chemscore.Internal.Correction>
   9.000000E+99

> <Gold.Chemscore.Hbonds>
donor molecule, donor type, donor heavy atom, donor atom, acceptor molecule, acceptor atom, score
      L1  H    16    39       P1  7921  0.99
      P1  H  7989  7998       L1    28  0.22

> <Gold.Chemscore.Hbond.Weighted>
-3.4062

> <Gold.Chemscore.Metal.Weighted>
-0.0000

> <Gold.Chemscore.Lipo.Weighted>
-9.2678

> <Gold.Chemscore.Internal_Hbond.Weighted>
0.0000

> <Gold.Chemscore.DEClash.Weighted>
0.0245

> <Gold.Chemscore.DEInternal.Weighted>
1.8629

> <Gold.Chemscore.Rot.Weighted>
5.3573

> <Gold.Chemscore.Internal.Correction.Weighted>
   9.000000E+99

> <Gold.Protein.RotatedTorsions>
[ 6907 6896 6895 6894 ] final   70.26 input  -60.11 | X-H torsion
[ 7974 7965 7964 7962 ] final   68.77 input  175.53 | X-H torsion
[ 8008 7997 7996 7995 ] final -139.91 input   59.86 | X-H torsion
[ 10167 10162 10161 10158 ] final  167.67 input  -65.29 | X-H torsion
[ 10718 10713 10712 10709 ] final -140.51 input   66.30 | X-H torsion
[ 10763 10752 10751 10750 ] final  -26.27 input  -60.55 | X-H torsion
[ 11005 11000 10999 10996 ] final   -7.04 input  -57.11 | X-H torsion

> <Gold.Protein.ActiveResidues>
 VAL166  LYS551  ARG553  GLY616  TRP617  ASP618  TYR619  PRO620  LYS621  CYS622 
 ASP623  PHE694  ASN695  SER759  ASP760  ASP761  ALA762  ILE779  LEU786  VAL792 
 PHE793  MET794  SER795  GLU796  ALA797  LYS798  CYS799  TRP800  GLU811  SER814 

> <Gold.Protein.RotatedAtoms>
  152.4738  134.4895  159.9690 H   0  0  0  0  0  0  0  0  0  0  0  0  # atno 6907 bound_to 6896
  151.4916  133.3518  159.2862 H   0  0  0  0  0  0  0  0  0  0  0  0  # atno 6908 bound_to 6896
  150.8764  134.8174  159.7254 H   0  0  0  0  0  0  0  0  0  0  0  0  # atno 6909 bound_to 6896
  145.7986  139.2970  143.1168 H   0  0  0  0  0  0  0  0  0  0  0  0  # atno 7974 bound_to 7965
  155.4526  140.0540  157.2999 H   0  0  0  0  0  0  0  0  0  0  0  0  # atno 8008 bound_to 7997
  154.4771  140.2065  155.9808 H   0  0  0  0  0  0  0  0  0  0  0  0  # atno 8009 bound_to 7997
  156.1148  140.3198  155.8129 H   0  0  0  0  0  0  0  0  0  0  0  0  # atno 8010 bound_to 7997
  139.4950  144.3897  151.9531 H   0  0  0  0  0  0  0  0  0  0  0  0  # atno 10167 bound_to 10162
  156.3231  130.7545  151.1647 H   0  0  0  0  0  0  0  0  0  0  0  0  # atno 10718 bound_to 10713
  153.7133  135.6949  153.5032 H   0  0  0  0  0  0  0  0  0  0  0  0  # atno 10763 bound_to 10752
  153.2257  135.4354  155.0538 H   0  0  0  0  0  0  0  0  0  0  0  0  # atno 10764 bound_to 10752
  154.8308  135.3471  154.6669 H   0  0  0  0  0  0  0  0  0  0  0  0  # atno 10765 bound_to 10752
  140.7085  133.8929  155.8734 H   0  0  0  0  0  0  0  0  0  0  0  0  # atno 11005 bound_to 11000
  145.9902  140.8609  143.0070 LP  0  0  0  0  0  0  0  0  0  0  0  0  # atno 17320 bound_to 7965
  144.6772  140.2204  143.7367 LP  0  0  0  0  0  0  0  0  0  0  0  0  # atno 17321 bound_to 7965
  140.3334  144.3289  150.5982 LP  0  0  0  0  0  0  0  0  0  0  0  0  # atno 17342 bound_to 10162
  140.5626  143.2190  151.7739 LP  0  0  0  0  0  0  0  0  0  0  0  0  # atno 17343 bound_to 10162
  157.7416  131.0502  150.5087 LP  0  0  0  0  0  0  0  0  0  0  0  0  # atno 17370 bound_to 10713
  156.5242  130.4169  149.6235 LP  0  0  0  0  0  0  0  0  0  0  0  0  # atno 17371 bound_to 10713
  141.0104  134.1028  157.4227 LP  0  0  0  0  0  0  0  0  0  0  0  0  # atno 17394 bound_to 11000
  139.8878  135.0092  156.6581 LP  0  0  0  0  0  0  0  0  0  0  0  0  # atno 17395 bound_to 11000

$$$$
