AV-unprocessed.smi:290|AV-procd|sdf|2225|dock9
  -GOLD-   2262022 83D 1   1.00000     0.00000
 Structure written by MMmdl.
 59 62  0  0  0  0  0  0  0  0  2 V2000
  145.5153  137.6467  162.0210 C   0  0  0  0  0  0  0  0  0  0  0  0
  146.0406  136.3743  161.3362 C   0  0  2  0  0  0  0  0  0  0  0  0
  145.3363  135.2251  161.8055 O   0  0  0  0  0  0  0  0  0  0  0  0
  146.2454  134.3000  162.3839 C   0  0  0  0  0  0  0  0  0  0  0  0
  147.5556  134.5595  161.6527 C   0  0  0  0  0  0  0  0  0  0  0  0
  147.5500  136.0743  161.4968 C   0  0  2  0  0  0  0  0  0  0  0  0
  148.0563  136.6444  162.6937 O   0  0  0  0  0  0  0  0  0  0  0  0
  148.3989  136.5886  160.3098 C   0  0  0  0  0  0  0  0  0  0  0  0
  147.8621  136.2101  159.0124 N   0  0  0  0  0  0  0  0  0  0  0  0
  146.7164  136.6933  158.4196 C   0  0  0  0  0  0  0  0  0  0  0  0
  146.4373  136.1863  157.2493 N   0  0  0  0  0  0  0  0  0  0  0  0
  147.4758  135.2945  157.0158 C   0  0  0  0  0  0  0  0  0  0  0  0
  147.7985  134.4172  155.9493 C   0  0  0  0  0  0  0  0  0  0  0  0
  147.0114  134.3184  154.8554 N   0  0  0  0  0  0  0  0  0  0  0  0
  147.0133  135.4946  154.0001 C   0  0  0  0  0  0  0  0  0  0  0  0
  145.8387  135.3041  153.0339 C   0  0  0  0  0  0  0  0  0  0  0  0
  144.9123  134.2851  153.7343 C   0  0  1  0  0  0  0  0  0  0  0  0
  144.5925  133.0633  152.9314 N   0  3  2  0  0  0  0  0  0  0  0  0
  145.7164  132.1109  152.7385 C   0  0  0  0  0  0  0  0  0  0  0  0
  143.8867  133.3542  151.6572 C   0  0  0  0  0  0  0  0  0  0  0  0
  144.8457  133.8302  150.5524 C   0  0  0  0  0  0  0  0  0  0  0  0
  144.1491  133.9576  149.3307 O   0  0  0  0  0  0  0  0  0  0  0  0
  145.6093  133.9946  155.0803 C   0  0  1  0  0  0  0  0  0  0  0  0
  145.3694  132.6089  155.7129 C   0  0  0  0  0  0  0  0  0  0  0  0
  148.9315  133.6738  156.0545 N   0  0  0  0  0  0  0  0  0  0  0  0
  149.7000  133.7824  157.1432 C   0  0  0  0  0  0  0  0  0  0  0  0
  149.5214  134.5552  158.2172 N   0  0  0  0  0  0  0  0  0  0  0  0
  148.3850  135.3018  158.1090 C   0  0  0  0  0  0  0  0  0  0  0  0
  143.9720  134.7789  153.9775 H   0  0  0  0  0  0  0  0  0  0  0  0
  145.2238  134.7305  155.7884 H   0  0  0  0  0  0  0  0  0  0  0  0
  146.0620  138.5275  161.6837 H   0  0  0  0  0  0  0  0  0  0  0  0
  145.6064  137.5862  163.1059 H   0  0  0  0  0  0  0  0  0  0  0  0
  144.4612  137.8015  161.7905 H   0  0  0  0  0  0  0  0  0  0  0  0
  145.8063  136.4429  160.2730 H   0  0  0  0  0  0  0  0  0  0  0  0
  146.3478  134.5156  163.4484 H   0  0  0  0  0  0  0  0  0  0  0  0
  145.8966  133.2730  162.2749 H   0  0  0  0  0  0  0  0  0  0  0  0
  148.4268  134.1730  162.1836 H   0  0  0  0  0  0  0  0  0  0  0  0
  147.5190  134.0790  160.6740 H   0  0  0  0  0  0  0  0  0  0  0  0
  147.4300  136.4962  163.3855 H   0  0  0  0  0  0  0  0  0  0  0  0
  148.4688  137.6768  160.3386 H   0  0  0  0  0  0  0  0  0  0  0  0
  149.4212  136.2151  160.3860 H   0  0  0  0  0  0  0  0  0  0  0  0
  146.0857  137.4336  158.8903 H   0  0  0  0  0  0  0  0  0  0  0  0
  146.8692  136.3992  154.5932 H   0  0  0  0  0  0  0  0  0  0  0  0
  147.9591  135.5896  153.4658 H   0  0  0  0  0  0  0  0  0  0  0  0
  145.3286  136.2513  152.8563 H   0  0  0  0  0  0  0  0  0  0  0  0
  146.1991  134.9624  152.0657 H   0  0  0  0  0  0  0  0  0  0  0  0
  146.4009  132.4415  151.9576 H   0  0  0  0  0  0  0  0  0  0  0  0
  145.3255  131.1387  152.4367 H   0  0  0  0  0  0  0  0  0  0  0  0
  146.2909  131.9591  153.6514 H   0  0  0  0  0  0  0  0  0  0  0  0
  143.3398  132.4678  151.3327 H   0  0  0  0  0  0  0  0  0  0  0  0
  143.1360  134.1307  151.8150 H   0  0  0  0  0  0  0  0  0  0  0  0
  145.3259  134.7766  150.7994 H   0  0  0  0  0  0  0  0  0  0  0  0
  145.6426  133.0986  150.4165 H   0  0  0  0  0  0  0  0  0  0  0  0
  144.6922  134.4353  148.7216 H   0  0  0  0  0  0  0  0  0  0  0  0
  144.3028  132.4019  155.8033 H   0  0  0  0  0  0  0  0  0  0  0  0
  145.7944  132.5593  156.7158 H   0  0  0  0  0  0  0  0  0  0  0  0
  145.8198  131.8040  155.1334 H   0  0  0  0  0  0  0  0  0  0  0  0
  150.5832  133.1607  157.1578 H   0  0  0  0  0  0  0  0  0  0  0  0
  143.9171  132.5557  153.4854 H   0  0  0  0  0  0  0  0  0  0  0  0
  1  2  1  0  0  0  0
  1 31  1  0  0  0  0
  1 32  1  0  0  0  0
  1 33  1  0  0  0  0
  2  6  1  0  0  0  0
  2  3  1  0  0  0  0
  2 34  1  0  0  0  0
  3  4  1  0  0  0  0
  4  5  1  0  0  0  0
  4 35  1  0  0  0  0
  4 36  1  0  0  0  0
  5  6  1  0  0  0  0
  5 37  1  0  0  0  0
  5 38  1  0  0  0  0
  6  7  1  0  0  0  0
  6  8  1  0  0  0  0
  7 39  1  0  0  0  0
  8  9  1  0  0  0  0
  8 40  1  0  0  0  0
  8 41  1  0  0  0  0
  9 28  1  0  0  0  0
  9 10  1  0  0  0  0
 10 11  2  0  0  0  0
 10 42  1  0  0  0  0
 11 12  1  0  0  0  0
 12 28  2  0  0  0  0
 12 13  1  0  0  0  0
 13 14  1  0  0  0  0
 13 25  2  0  0  0  0
 14 23  1  0  0  0  0
 14 15  1  0  0  0  0
 15 16  1  0  0  0  0
 15 43  1  0  0  0  0
 15 44  1  0  0  0  0
 16 17  1  0  0  0  0
 16 45  1  0  0  0  0
 16 46  1  0  0  0  0
 17 29  1  0  0  0  0
 17 18  1  0  0  0  0
 17 23  1  0  0  0  0
 18 19  1  0  0  0  0
 18 20  1  0  0  0  0
 18 59  1  0  0  0  0
 19 47  1  0  0  0  0
 19 48  1  0  0  0  0
 19 49  1  0  0  0  0
 20 21  1  0  0  0  0
 20 50  1  0  0  0  0
 20 51  1  0  0  0  0
 21 22  1  0  0  0  0
 21 52  1  0  0  0  0
 21 53  1  0  0  0  0
 22 54  1  0  0  0  0
 23 30  1  0  0  0  0
 23 24  1  0  0  0  0
 24 55  1  0  0  0  0
 24 56  1  0  0  0  0
 24 57  1  0  0  0  0
 25 26  1  0  0  0  0
 26 27  2  0  0  0  0
 26 58  1  0  0  0  0
 27 28  1  0  0  0  0
M  CHG  1  18   1
M  END
> <s_m_source_file>
AV-unprocessed.smi

> <i_m_source_file_index>
290

> <i_lp_mmshare_version>
43012

> <i_f3d_flags>
0

> <s_epik_input>
W0NIMl0xW0NIMl1PW0NAQEhdKFtDSDNdKVtDQEBdMShbT0hdKVtDSDJdbihbY0hdbjIpYyhjMjMpbltjSF1uYzNONFtDSDJdW0NIMl1bQ0BIXShbQ0BIXTRbQ0gzXSlOKFtDSDNdKVtDSDJdW0NIMl1bT0hd

> <s_epik_cmdline>
J2VwaWtfcHl0aG9uJywgJy1waCcsICc3LjAnLCAnLXRuJywgJzgnLCAnLW1hJywgJzIwMCcsICctbWV0YWxfYmluZGluZycsICctaW1hZScsICc8aW5maWxlLm1hZT4nLCAnLW9tYWUnLCAnPG91dGZpbGUubWFlPic=

> <r_lp_tautomer_probability>
1

> <r_epik_Ionization_Penalty>
0.0036983

> <r_epik_Ionization_Penalty_Charging>
0.0032725

> <r_epik_Ionization_Penalty_Neutral>
0.000425798

> <r_epik_State_Penalty>
-0

> <r_epik_Charging_Adjusted_Penalty>
0.0032725

> <i_epik_Tot_Q>
1

> <i_epik_Tot_abs_Q>
1

> <r_epik_Metal_State_Penalty>
-0

> <b_epik_Metal_Only>
0

> <s_lp_Force_Field>
OPLS_2005

> <r_lp_Energy>
70.3682

> <b_lp_Chiralities_Consistent>
1

> <s_lp_Variant>
AV-unprocessed.smi:290-11

> <Gold.Version>
5.8.1

> <Gold.Id.Protein>
6NUR|6NUR_protein|mol2

> <Gold.PLP.Fitness>
44.4375

> <Gold.PLP.PLP>
-30.0939

> <Gold.PLP.part.hbond>
-4.6958

> <Gold.PLP.part.metal>
0.0000

> <Gold.PLP.part.buried>
-2.8340

> <Gold.PLP.part.nonpolar>
-22.6573

> <Gold.PLP.part.repulsive>
0.0691

> <Gold.PLP.ligand.clash>
0.0000

> <Gold.PLP.ligand.torsion>
0.4253

> <Gold.PLP.Chemscore.Hbond>
4.9920

> <Gold.PLP.Chemscore.CHOScore>
0.0000

> <Gold.PLP.Chemscore.Metal>
0.0000

> <Gold.Chemscore.Hbonds>
donor molecule, donor type, donor heavy atom, donor atom, acceptor molecule, acceptor atom, score
      L1  H    18    59       P1 10957  2.00
      L1  H    22    54       P1  7921  1.00
      P1  H  6896  6909       L1    27  1.00
      P1  H  6931  6943       L1     7  1.00

> <Gold.PLP.Chemscore.Internal.Correction>
0.2182

> <Gold.Rescore>
     Score         DG    S(hbond)    S(metal)    S(lipo)     H(rot)  DE(clash)    DE(int)     intcor
     10.59     -14.44       3.15        0.00      66.99       3.67       2.06       1.79       ----

> <Gold.Chemscore.Fitness>
10.5902

> <Gold.Chemscore.DG>
-14.4391

> <Gold.Chemscore.ZeroCoef>
-5.4800

> <Gold.Chemscore.Hbond>
3.1455

> <Gold.Chemscore.Metal>
0.0000

> <Gold.Chemscore.Lipo>
66.9869

> <Gold.Chemscore.Internal_Hbond>
0.0000

> <Gold.Chemscore.DEClash>
2.0591

> <Gold.Chemscore.DEInternal>
1.7898

> <Gold.Chemscore.Rot>
3.6658

> <Gold.Chemscore.Internal.Correction>
   9.000000E+99

> <Gold.Chemscore.Hbonds>
donor molecule, donor type, donor heavy atom, donor atom, acceptor molecule, acceptor atom, score
      L1  H    18    59       P1 10957  0.34
      L1  H    22    54       P1  7921  0.99
      P1  H  6896  6909       L1    27  0.92
      P1  H  6931  6943       L1     7  0.27

> <Gold.Chemscore.Hbond.Weighted>
-10.5061

> <Gold.Chemscore.Metal.Weighted>
-0.0000

> <Gold.Chemscore.Lipo.Weighted>
-7.8375

> <Gold.Chemscore.Internal_Hbond.Weighted>
0.0000

> <Gold.Chemscore.DEClash.Weighted>
2.0591

> <Gold.Chemscore.DEInternal.Weighted>
1.7898

> <Gold.Chemscore.Rot.Weighted>
9.3844

> <Gold.Chemscore.Internal.Correction.Weighted>
   9.000000E+99

> <Gold.Protein.RotatedTorsions>
[ 6907 6896 6895 6894 ] final   36.49 input  -60.11 | X-H torsion
[ 7974 7965 7964 7962 ] final   98.29 input  175.53 | X-H torsion
[ 8008 7997 7996 7995 ] final  -15.77 input   59.86 | X-H torsion
[ 10167 10162 10161 10158 ] final  -55.38 input  -65.29 | X-H torsion
[ 10718 10713 10712 10709 ] final   45.51 input   66.30 | X-H torsion
[ 10763 10752 10751 10750 ] final  179.16 input  -60.55 | X-H torsion
[ 11005 11000 10999 10996 ] final    8.68 input  -57.11 | X-H torsion

> <Gold.Protein.ActiveResidues>
 VAL166  LYS551  ARG553  GLY616  TRP617  ASP618  TYR619  PRO620  LYS621  CYS622 
 ASP623  PHE694  ASN695  SER759  ASP760  ASP761  ALA762  ILE779  LEU786  VAL792 
 PHE793  MET794  SER795  GLU796  ALA797  LYS798  CYS799  TRP800  GLU811  SER814 

> <Gold.Protein.RotatedAtoms>
  152.1305  134.9138  160.0558 H   0  0  0  0  0  0  0  0  0  0  0  0  # atno 6907 bound_to 6896
  152.0245  133.3907  159.4280 H   0  0  0  0  0  0  0  0  0  0  0  0  # atno 6908 bound_to 6896
  150.6856  134.3511  159.4953 H   0  0  0  0  0  0  0  0  0  0  0  0  # atno 6909 bound_to 6896
  145.4141  139.2330  143.3232 H   0  0  0  0  0  0  0  0  0  0  0  0  # atno 7974 bound_to 7965
  154.5104  140.2187  155.9167 H   0  0  0  0  0  0  0  0  0  0  0  0  # atno 8008 bound_to 7997
  156.1546  140.3154  155.8670 H   0  0  0  0  0  0  0  0  0  0  0  0  # atno 8009 bound_to 7997
  155.3873  140.0476  157.3032 H   0  0  0  0  0  0  0  0  0  0  0  0  # atno 8010 bound_to 7997
  140.6378  143.2491  151.5072 H   0  0  0  0  0  0  0  0  0  0  0  0  # atno 10167 bound_to 10162
  157.4383  130.8066  149.7669 H   0  0  0  0  0  0  0  0  0  0  0  0  # atno 10718 bound_to 10713
  154.5170  135.2792  155.1295 H   0  0  0  0  0  0  0  0  0  0  0  0  # atno 10763 bound_to 10752
  154.2867  135.6275  153.5372 H   0  0  0  0  0  0  0  0  0  0  0  0  # atno 10764 bound_to 10752
  152.9929  135.5664  154.5649 H   0  0  0  0  0  0  0  0  0  0  0  0  # atno 10765 bound_to 10752
  140.5342  134.0437  155.7883 H   0  0  0  0  0  0  0  0  0  0  0  0  # atno 11005 bound_to 11000
  146.2690  140.4856  142.8822 LP  0  0  0  0  0  0  0  0  0  0  0  0  # atno 17320 bound_to 7965
  144.8289  140.6674  143.6304 LP  0  0  0  0  0  0  0  0  0  0  0  0  # atno 17321 bound_to 7965
  139.5587  144.2210  152.1656 LP  0  0  0  0  0  0  0  0  0  0  0  0  # atno 17342 bound_to 10162
  140.1471  144.5149  150.6709 LP  0  0  0  0  0  0  0  0  0  0  0  0  # atno 17343 bound_to 10162
  155.9939  130.3921  150.2882 LP  0  0  0  0  0  0  0  0  0  0  0  0  # atno 17370 bound_to 10713
  157.1044  131.0204  151.3073 LP  0  0  0  0  0  0  0  0  0  0  0  0  # atno 17371 bound_to 10713
  141.1264  133.9376  157.2626 LP  0  0  0  0  0  0  0  0  0  0  0  0  # atno 17394 bound_to 11000
  139.9538  135.0170  156.9070 LP  0  0  0  0  0  0  0  0  0  0  0  0  # atno 17395 bound_to 11000

$$$$
