AV-unprocessed.smi:3128|AV-procd|sdf|11918|dock7
  -GOLD-   2272017293D 1   1.00000     0.00000
 Structure written by MMmdl.
 40 40  0  0  0  0  0  0  0  0  2 V2000
  150.9039  140.7005  155.3338 C   0  0  0  0  0  0  0  0  0  0  0  0
  149.8669  140.3233  154.2607 C   0  0  0  0  0  0  0  0  0  0  0  0
  148.8423  141.4653  154.1164 C   0  0  0  0  0  0  0  0  0  0  0  0
  149.1911  138.9521  154.5527 C   0  0  2  0  0  0  0  0  0  0  0  0
  150.1854  137.8215  154.8891 C   0  0  0  0  0  0  0  0  0  0  0  0
  148.2778  138.5303  153.4852 N   0  0  0  0  0  0  0  0  0  0  0  0
  147.0662  139.0369  153.1991 C   0  0  0  0  0  0  0  0  0  0  0  0
  146.5518  139.9698  153.8163 O   0  0  0  0  0  0  0  0  0  0  0  0
  146.3312  138.3896  152.0253 C   0  0  0  0  0  0  0  0  0  0  0  0
  146.4901  136.9220  152.0210 N   0  3  0  0  0  0  0  0  0  0  0  0
  145.7871  136.2384  150.9171 C   0  0  0  0  0  0  0  0  0  0  0  0
  144.6147  135.3885  151.4329 C   0  0  0  0  0  0  0  0  0  0  0  0
  144.7789  133.9800  151.1203 N   0  0  0  0  0  0  0  0  0  0  0  0
  143.8195  132.9898  151.0947 C   0  0  0  0  0  0  0  0  0  0  0  0
  144.4435  131.8292  150.7362 C   0  0  0  0  0  0  0  0  0  0  0  0
  145.8024  132.2141  150.5642 C   0  0  0  0  0  0  0  0  0  0  0  0
  145.9995  133.5026  150.7930 N   0  0  0  0  0  0  0  0  0  0  0  0
  150.4522  140.7391  156.3255 H   0  0  0  0  0  0  0  0  0  0  0  0
  151.3394  141.6796  155.1316 H   0  0  0  0  0  0  0  0  0  0  0  0
  151.7296  139.9904  155.3675 H   0  0  0  0  0  0  0  0  0  0  0  0
  150.4038  140.2501  153.3145 H   0  0  0  0  0  0  0  0  0  0  0  0
  148.2413  141.5729  155.0198 H   0  0  0  0  0  0  0  0  0  0  0  0
  148.1627  141.3008  153.2805 H   0  0  0  0  0  0  0  0  0  0  0  0
  149.3407  142.4180  153.9353 H   0  0  0  0  0  0  0  0  0  0  0  0
  148.5537  139.0830  155.4281 H   0  0  0  0  0  0  0  0  0  0  0  0
  150.7071  138.0133  155.8262 H   0  0  0  0  0  0  0  0  0  0  0  0
  150.9392  137.6998  154.1109 H   0  0  0  0  0  0  0  0  0  0  0  0
  149.6694  136.8680  155.0052 H   0  0  0  0  0  0  0  0  0  0  0  0
  148.6042  137.7686  152.9084 H   0  0  0  0  0  0  0  0  0  0  0  0
  145.2722  138.6425  152.0879 H   0  0  0  0  0  0  0  0  0  0  0  0
  146.7122  138.7956  151.0868 H   0  0  0  0  0  0  0  0  0  0  0  0
  147.4756  136.7111  151.9482 H   0  0  0  0  0  0  0  0  0  0  0  0
  145.4180  136.9896  150.2181 H   0  0  0  0  0  0  0  0  0  0  0  0
  146.4887  135.6085  150.3683 H   0  0  0  0  0  0  0  0  0  0  0  0
  144.4956  135.5043  152.5114 H   0  0  0  0  0  0  0  0  0  0  0  0
  143.6841  135.7306  150.9782 H   0  0  0  0  0  0  0  0  0  0  0  0
  142.7843  133.1903  151.3291 H   0  0  0  0  0  0  0  0  0  0  0  0
  143.9976  130.8529  150.6166 H   0  0  0  0  0  0  0  0  0  0  0  0
  146.6449  131.6006  150.2802 H   0  0  0  0  0  0  0  0  0  0  0  0
  146.1527  136.5585  152.9010 H   0  0  0  0  0  0  0  0  0  0  0  0
  1  2  1  0  0  0  0
  1 18  1  0  0  0  0
  1 19  1  0  0  0  0
  1 20  1  0  0  0  0
  2  3  1  0  0  0  0
  2  4  1  0  0  0  0
  2 21  1  0  0  0  0
  3 22  1  0  0  0  0
  3 23  1  0  0  0  0
  3 24  1  0  0  0  0
  4  5  1  0  0  0  0
  4  6  1  0  0  0  0
  4 25  1  0  0  0  0
  5 26  1  0  0  0  0
  5 27  1  0  0  0  0
  5 28  1  0  0  0  0
  6  7  1  0  0  0  0
  6 29  1  0  0  0  0
  7  8  2  0  0  0  0
  7  9  1  0  0  0  0
  9 10  1  0  0  0  0
  9 30  1  0  0  0  0
  9 31  1  0  0  0  0
 10 11  1  0  0  0  0
 10 32  1  0  0  0  0
 10 40  1  0  0  0  0
 11 12  1  0  0  0  0
 11 33  1  0  0  0  0
 11 34  1  0  0  0  0
 12 13  1  0  0  0  0
 12 35  1  0  0  0  0
 12 36  1  0  0  0  0
 13 17  1  0  0  0  0
 13 14  1  0  0  0  0
 14 15  2  0  0  0  0
 14 37  1  0  0  0  0
 15 16  1  0  0  0  0
 15 38  1  0  0  0  0
 16 17  2  0  0  0  0
 16 39  1  0  0  0  0
M  CHG  1  10   1
M  END
> <s_m_source_file>
AV-unprocessed.smi

> <i_m_source_file_index>
3128

> <i_lp_mmshare_version>
43012

> <i_f3d_flags>
0

> <s_epik_input>
W0NIM11bQ0hdKFtDSDNdKVtDQEhdKFtDSDNdKVtOSF1DKD1PKVtDSDJdW05IXVtDSDJdW0NIMl1uMVtjSF1bY0hdW2NIXW4x

> <s_epik_cmdline>
J2VwaWtfcHl0aG9uJywgJy1waCcsICc3LjAnLCAnLXRuJywgJzgnLCAnLW1hJywgJzIwMCcsICctbWV0YWxfYmluZGluZycsICctaW1hZScsICc8aW5maWxlLm1hZT4nLCAnLW9tYWUnLCAnPG91dGZpbGUubWFlPic=

> <r_lp_tautomer_probability>
1

> <r_epik_Ionization_Penalty>
0.20724

> <r_epik_Ionization_Penalty_Charging>
0.207237

> <r_epik_Ionization_Penalty_Neutral>
3.20642e-06

> <r_epik_State_Penalty>
0.197613

> <r_epik_Charging_Adjusted_Penalty>
0.40485

> <i_epik_Tot_Q>
1

> <i_epik_Tot_abs_Q>
1

> <r_epik_Metal_State_Penalty>
0.197789

> <b_epik_Metal_Only>
0

> <s_lp_Force_Field>
OPLS_2005

> <r_lp_Energy>
3.68696

> <b_lp_Chiralities_Consistent>
1

> <s_lp_Variant>
AV-unprocessed.smi:3128-1

> <Gold.Version>
5.8.1

> <Gold.Id.Protein>
6NUR|6NUR_protein|mol2

> <Gold.PLP.Fitness>
47.9316

> <Gold.PLP.PLP>
-35.8161

> <Gold.PLP.part.hbond>
-2.5531

> <Gold.PLP.part.metal>
0.0000

> <Gold.PLP.part.buried>
-2.6969

> <Gold.PLP.part.nonpolar>
-32.6967

> <Gold.PLP.part.repulsive>
0.4328

> <Gold.PLP.ligand.clash>
0.0000

> <Gold.PLP.ligand.torsion>
1.5418

> <Gold.PLP.Chemscore.Hbond>
3.0000

> <Gold.PLP.Chemscore.CHOScore>
2.0000

> <Gold.PLP.Chemscore.Metal>
0.0000

> <Gold.Chemscore.Hbonds>
donor molecule, donor type, donor heavy atom, donor atom, acceptor molecule, acceptor atom, score
      L1  H     6    29       P1  7948  1.00
      L1  H    10    32       P1  7948  2.00
      L1  C    14    37       P1 10186  0.31
      L1  C    16    39       P1 10747  1.00

> <Gold.PLP.Chemscore.Internal.Correction>
0.1991

> <Gold.Rescore>
     Score         DG    S(hbond)    S(metal)    S(lipo)     H(rot)  DE(clash)    DE(int)     intcor
     13.19     -16.05       1.99        0.00      82.72       2.24       0.05       2.81       ----

> <Gold.Chemscore.Fitness>
13.1904

> <Gold.Chemscore.DG>
-16.0540

> <Gold.Chemscore.ZeroCoef>
-5.4800

> <Gold.Chemscore.Hbond>
1.9863

> <Gold.Chemscore.Metal>
0.0000

> <Gold.Chemscore.Lipo>
82.7191

> <Gold.Chemscore.Internal_Hbond>
0.0000

> <Gold.Chemscore.DEClash>
0.0503

> <Gold.Chemscore.DEInternal>
2.8133

> <Gold.Chemscore.Rot>
2.2416

> <Gold.Chemscore.Internal.Correction>
   9.000000E+99

> <Gold.Chemscore.Hbonds>
donor molecule, donor type, donor heavy atom, donor atom, acceptor molecule, acceptor atom, score
      L1  H     6    29       P1  7948  1.00
      L1  H    10    32       P1  7948  0.93

> <Gold.Chemscore.Hbond.Weighted>
-6.6344

> <Gold.Chemscore.Metal.Weighted>
-0.0000

> <Gold.Chemscore.Lipo.Weighted>
-9.6781

> <Gold.Chemscore.Internal_Hbond.Weighted>
0.0000

> <Gold.Chemscore.DEClash.Weighted>
0.0503

> <Gold.Chemscore.DEInternal.Weighted>
2.8133

> <Gold.Chemscore.Rot.Weighted>
5.7385

> <Gold.Chemscore.Internal.Correction.Weighted>
   9.000000E+99

> <Gold.Protein.RotatedTorsions>
[ 6907 6896 6895 6894 ] final   49.81 input  -60.11 | X-H torsion
[ 7974 7965 7964 7962 ] final -104.06 input  175.53 | X-H torsion
[ 8008 7997 7996 7995 ] final   27.59 input   59.86 | X-H torsion
[ 10167 10162 10161 10158 ] final  140.05 input  -65.29 | X-H torsion
[ 10718 10713 10712 10709 ] final  -52.36 input   66.30 | X-H torsion
[ 10763 10752 10751 10750 ] final  101.78 input  -60.55 | X-H torsion
[ 11005 11000 10999 10996 ] final  -48.38 input  -57.11 | X-H torsion

> <Gold.Protein.ActiveResidues>
 VAL166  LYS551  ARG553  GLY616  TRP617  ASP618  TYR619  PRO620  LYS621  CYS622 
 ASP623  PHE694  ASN695  SER759  ASP760  ASP761  ALA762  ILE779  LEU786  VAL792 
 PHE793  MET794  SER795  GLU796  ALA797  LYS798  CYS799  TRP800  GLU811  SER814 

> <Gold.Protein.RotatedAtoms>
  152.2949  134.7678  160.0369 H   0  0  0  0  0  0  0  0  0  0  0  0  # atno 6907 bound_to 6896
  151.8211  133.3389  159.3593 H   0  0  0  0  0  0  0  0  0  0  0  0  # atno 6908 bound_to 6896
  150.7247  134.5501  159.5835 H   0  0  0  0  0  0  0  0  0  0  0  0  # atno 6909 bound_to 6896
  145.2479  140.9228  143.3112 H   0  0  0  0  0  0  0  0  0  0  0  0  # atno 7974 bound_to 7965
  155.0453  140.3174  155.4710 H   0  0  0  0  0  0  0  0  0  0  0  0  # atno 8008 bound_to 7997
  156.2846  140.2155  156.5521 H   0  0  0  0  0  0  0  0  0  0  0  0  # atno 8009 bound_to 7997
  154.7256  140.0486  157.0667 H   0  0  0  0  0  0  0  0  0  0  0  0  # atno 8010 bound_to 7997
  139.5060  144.6258  151.5941 H   0  0  0  0  0  0  0  0  0  0  0  0  # atno 10167 bound_to 10162
  156.1628  130.4149  149.9766 H   0  0  0  0  0  0  0  0  0  0  0  0  # atno 10718 bound_to 10713
  153.3311  135.4033  155.1496 H   0  0  0  0  0  0  0  0  0  0  0  0  # atno 10763 bound_to 10752
  154.8623  135.3611  154.5469 H   0  0  0  0  0  0  0  0  0  0  0  0  # atno 10764 bound_to 10752
  153.5908  135.7074  153.5483 H   0  0  0  0  0  0  0  0  0  0  0  0  # atno 10765 bound_to 10752
  141.0697  133.6683  156.3432 H   0  0  0  0  0  0  0  0  0  0  0  0  # atno 11005 bound_to 11000
  144.9529  139.4063  143.6393 LP  0  0  0  0  0  0  0  0  0  0  0  0  # atno 17320 bound_to 7965
  146.3310  139.8546  142.8867 LP  0  0  0  0  0  0  0  0  0  0  0  0  # atno 17321 bound_to 7965
  140.5974  143.9671  150.6363 LP  0  0  0  0  0  0  0  0  0  0  0  0  # atno 17342 bound_to 10162
  140.2872  143.3349  152.1096 LP  0  0  0  0  0  0  0  0  0  0  0  0  # atno 17343 bound_to 10162
  156.7590  130.9143  151.3640 LP  0  0  0  0  0  0  0  0  0  0  0  0  # atno 17370 bound_to 10713
  157.6746  130.9082  150.0119 LP  0  0  0  0  0  0  0  0  0  0  0  0  # atno 17371 bound_to 10713
  140.5699  134.5850  157.5455 LP  0  0  0  0  0  0  0  0  0  0  0  0  # atno 17394 bound_to 11000
  139.9511  134.7615  156.0447 LP  0  0  0  0  0  0  0  0  0  0  0  0  # atno 17395 bound_to 11000

$$$$
