AV-unprocessed.smi:177|AV-procd|sdf|1442|dock9
  -GOLD-   2262019233D 1   1.00000     0.00000
 Structure written by MMmdl.
 61 65  0  0  0  0  0  0  0  0  1 V2000
  152.5626  141.8455  159.7040 C   0  0  0  0  0  0  0  0  0  0  0  0
  152.2232  140.5664  159.1904 O   0  0  0  0  0  0  0  0  0  0  0  0
  151.0596  140.5537  158.3732 C   0  0  1  0  0  0  0  0  0  0  0  0
  151.2544  141.6090  157.2726 C   0  0  0  0  0  0  0  0  0  0  0  0
  150.0572  141.6414  156.3098 C   0  0  0  0  0  0  0  0  0  0  0  0
  149.7652  140.2606  155.6968 C   0  0  1  0  0  0  0  0  0  0  0  0
  150.8040  139.9132  154.7847 O   0  0  0  0  0  0  0  0  0  0  0  0
  150.5205  138.7027  154.0910 C   0  0  0  0  0  0  0  0  0  0  0  0
  150.4052  137.5419  155.0921 C   0  0  0  0  0  0  0  0  0  0  0  0
  149.4302  137.8621  156.1359 N   0  0  0  0  0  0  0  0  0  0  0  0
  148.9996  136.8500  156.9372 C   0  0  0  0  0  0  0  0  0  0  0  0
  149.6269  135.6435  156.8903 N   0  0  0  0  0  0  0  0  0  0  0  0
  149.2315  134.6402  157.6782 C   0  0  0  0  0  0  0  0  0  0  0  0
  148.2452  134.6242  158.5753 N   0  0  0  0  0  0  0  0  0  0  0  0
  147.6064  135.8276  158.6285 C   0  0  0  0  0  0  0  0  0  0  0  0
  147.9110  136.9801  157.8483 C   0  0  0  0  0  0  0  0  0  0  0  0
  147.0248  138.0041  158.1629 N   0  0  0  0  0  0  0  0  0  0  0  0
  146.2551  137.4934  159.0836 C   0  0  0  0  0  0  0  0  0  0  0  0
  146.5435  136.1946  159.4368 N   0  0  0  0  0  0  0  0  0  0  0  0
  145.8413  135.3840  160.4222 C   0  0  0  0  0  0  0  0  0  0  0  0
  146.0016  135.8503  161.9042 C   0  0  0  0  0  0  0  0  0  0  0  0
  147.5135  136.0654  162.1930 C   0  0  0  0  0  0  0  0  0  0  0  0
  148.0920  137.1019  161.4240 O   0  0  0  0  0  0  0  0  0  0  0  0
  145.2218  137.1598  162.1915 C   0  0  0  0  0  0  0  0  0  0  0  0
  143.6974  136.9527  162.1524 C   0  0  0  0  0  0  0  0  0  0  0  0
  143.3241  135.9493  163.0886 O   0  0  0  0  0  0  0  0  0  0  0  0
  143.8896  134.6769  162.7964 C   0  0  0  0  0  0  0  0  0  0  0  0
  145.4282  134.7545  162.8404 C   0  0  0  0  0  0  0  0  0  0  0  0
  149.6331  139.1636  156.7798 C   0  0  1  0  0  0  0  0  0  0  0  0
  150.8438  139.1649  157.7422 C   0  0  0  0  0  0  0  0  0  0  0  0
  153.4744  141.7669  160.2958 H   0  0  0  0  0  0  0  0  0  0  0  0
  151.7831  142.2463  160.3511 H   0  0  0  0  0  0  0  0  0  0  0  0
  152.7491  142.5568  158.8986 H   0  0  0  0  0  0  0  0  0  0  0  0
  150.1865  140.8317  158.9671 H   0  0  0  0  0  0  0  0  0  0  0  0
  151.3895  142.5929  157.7227 H   0  0  0  0  0  0  0  0  0  0  0  0
  152.1676  141.3971  156.7144 H   0  0  0  0  0  0  0  0  0  0  0  0
  149.1752  141.9848  156.8514 H   0  0  0  0  0  0  0  0  0  0  0  0
  150.2331  142.3708  155.5186 H   0  0  0  0  0  0  0  0  0  0  0  0
  148.8294  140.3334  155.1393 H   0  0  0  0  0  0  0  0  0  0  0  0
  149.6010  138.8086  153.5134 H   0  0  0  0  0  0  0  0  0  0  0  0
  151.3214  138.5046  153.3786 H   0  0  0  0  0  0  0  0  0  0  0  0
  150.1027  136.6390  154.5599 H   0  0  0  0  0  0  0  0  0  0  0  0
  151.3772  137.3385  155.5428 H   0  0  0  0  0  0  0  0  0  0  0  0
  149.7868  133.7193  157.5759 H   0  0  0  0  0  0  0  0  0  0  0  0
  145.4514  138.0568  159.5347 H   0  0  0  0  0  0  0  0  0  0  0  0
  144.7941  135.3594  160.1254 H   0  0  0  0  0  0  0  0  0  0  0  0
  146.1913  134.3560  160.3196 H   0  0  0  0  0  0  0  0  0  0  0  0
  147.6681  136.3019  163.2462 H   0  0  0  0  0  0  0  0  0  0  0  0
  148.0802  135.1578  161.9856 H   0  0  0  0  0  0  0  0  0  0  0  0
  148.2082  136.7905  160.5393 H   0  0  0  0  0  0  0  0  0  0  0  0
  145.4735  137.5291  163.1861 H   0  0  0  0  0  0  0  0  0  0  0  0
  145.5156  137.9537  161.5059 H   0  0  0  0  0  0  0  0  0  0  0  0
  143.1917  137.8810  162.4185 H   0  0  0  0  0  0  0  0  0  0  0  0
  143.3517  136.6851  161.1537 H   0  0  0  0  0  0  0  0  0  0  0  0
  143.5362  133.9632  163.5406 H   0  0  0  0  0  0  0  0  0  0  0  0
  143.5282  134.3178  161.8327 H   0  0  0  0  0  0  0  0  0  0  0  0
  145.8573  133.7821  162.5962 H   0  0  0  0  0  0  0  0  0  0  0  0
  145.7112  134.9549  163.8740 H   0  0  0  0  0  0  0  0  0  0  0  0
  148.7525  139.4167  157.3665 H   0  0  0  0  0  0  0  0  0  0  0  0
  151.7507  138.8715  157.2130 H   0  0  0  0  0  0  0  0  0  0  0  0
  150.6873  138.4184  158.5203 H   0  0  0  0  0  0  0  0  0  0  0  0
  1  2  1  0  0  0  0
  1 31  1  0  0  0  0
  1 32  1  0  0  0  0
  1 33  1  0  0  0  0
  2  3  1  0  0  0  0
  3 30  1  0  0  0  0
  3  4  1  0  0  0  0
  3 34  1  0  0  0  0
  4  5  1  0  0  0  0
  4 35  1  0  0  0  0
  4 36  1  0  0  0  0
  5  6  1  0  0  0  0
  5 37  1  0  0  0  0
  5 38  1  0  0  0  0
  6 29  1  0  0  0  0
  6  7  1  0  0  0  0
  6 39  1  0  0  0  0
  7  8  1  0  0  0  0
  8  9  1  0  0  0  0
  8 40  1  0  0  0  0
  8 41  1  0  0  0  0
  9 10  1  0  0  0  0
  9 42  1  0  0  0  0
  9 43  1  0  0  0  0
 10 11  1  0  0  0  0
 10 29  1  0  0  0  0
 11 16  1  0  0  0  0
 11 12  2  0  0  0  0
 12 13  1  0  0  0  0
 13 14  2  0  0  0  0
 13 44  1  0  0  0  0
 14 15  1  0  0  0  0
 15 19  1  0  0  0  0
 15 16  2  0  0  0  0
 16 17  1  0  0  0  0
 17 18  2  0  0  0  0
 18 19  1  0  0  0  0
 18 45  1  0  0  0  0
 19 20  1  0  0  0  0
 20 21  1  0  0  0  0
 20 46  1  0  0  0  0
 20 47  1  0  0  0  0
 21 28  1  0  0  0  0
 21 22  1  0  0  0  0
 21 24  1  0  0  0  0
 22 23  1  0  0  0  0
 22 48  1  0  0  0  0
 22 49  1  0  0  0  0
 23 50  1  0  0  0  0
 24 25  1  0  0  0  0
 24 51  1  0  0  0  0
 24 52  1  0  0  0  0
 25 26  1  0  0  0  0
 25 53  1  0  0  0  0
 25 54  1  0  0  0  0
 26 27  1  0  0  0  0
 27 28  1  0  0  0  0
 27 55  1  0  0  0  0
 27 56  1  0  0  0  0
 28 57  1  0  0  0  0
 28 58  1  0  0  0  0
 29 30  1  0  0  0  0
 29 59  1  0  0  0  0
 30 60  1  0  0  0  0
 30 61  1  0  0  0  0
M  END
> <s_m_source_file>
AV-unprocessed.smi

> <i_m_source_file_index>
177

> <i_lp_mmshare_version>
43012

> <i_f3d_flags>
0

> <s_epik_input>
W0NIM11PW0NASF0oW0NIMl1bQ0gyXTEpW0NIMl1bQ0BIXShbQ0BASF0xMilOKFtDSDJdW0NIMl1PMiljKG5bY0hdbjMpYyhjMzQpbltjSF1uNFtDSDJdQzUoW0NIMl1bT0hdKVtDSDJdW0NIMl1PW0NIMl1bQ0gyXTU=

> <s_epik_cmdline>
J2VwaWtfcHl0aG9uJywgJy1waCcsICc3LjAnLCAnLXRuJywgJzgnLCAnLW1hJywgJzIwMCcsICctbWV0YWxfYmluZGluZycsICctaW1hZScsICc8aW5maWxlLm1hZT4nLCAnLW9tYWUnLCAnPG91dGZpbGUubWFlPic=

> <r_lp_tautomer_probability>
1

> <r_epik_Ionization_Penalty>
0.0065899

> <r_epik_Ionization_Penalty_Charging>
0

> <r_epik_Ionization_Penalty_Neutral>
0.0065899

> <r_epik_State_Penalty>
0.00470042

> <r_epik_Charging_Adjusted_Penalty>
0.00470042

> <i_epik_Tot_Q>
0

> <i_epik_Tot_abs_Q>
0

> <r_epik_Metal_State_Penalty>
-0

> <b_epik_Metal_Only>
0

> <s_lp_Force_Field>
OPLS_2005

> <r_lp_Energy>
44.6168

> <b_lp_Chiralities_Consistent>
1

> <s_lp_Variant>
AV-unprocessed.smi:177-6

> <Gold.Version>
5.8.1

> <Gold.Id.Protein>
6NUR|6NUR_protein|mol2

> <Gold.PLP.Fitness>
44.1140

> <Gold.PLP.PLP>
-36.9761

> <Gold.PLP.part.hbond>
-2.8821

> <Gold.PLP.part.metal>
0.0000

> <Gold.PLP.part.buried>
-6.9948

> <Gold.PLP.part.nonpolar>
-27.3324

> <Gold.PLP.part.repulsive>
0.1752

> <Gold.PLP.ligand.clash>
0.0000

> <Gold.PLP.ligand.torsion>
0.3843

> <Gold.PLP.Chemscore.Hbond>
2.4784

> <Gold.PLP.Chemscore.CHOScore>
0.0000

> <Gold.PLP.Chemscore.Metal>
0.0000

> <Gold.Chemscore.Hbonds>
donor molecule, donor type, donor heavy atom, donor atom, acceptor molecule, acceptor atom, score
      P1  H  6931  6943       L1    23  1.00
      P1  H  6934  6947       L1    23  0.37
      P1  H  7989  7998       L1     7  1.00

> <Gold.PLP.Chemscore.Internal.Correction>
0.4713

> <Gold.Rescore>
     Score         DG    S(hbond)    S(metal)    S(lipo)     H(rot)  DE(clash)    DE(int)     intcor
     14.96     -17.02       1.91        0.00     100.73       2.58       0.43       1.63       ----

> <Gold.Chemscore.Fitness>
14.9642

> <Gold.Chemscore.DG>
-17.0216

> <Gold.Chemscore.ZeroCoef>
-5.4800

> <Gold.Chemscore.Hbond>
1.9051

> <Gold.Chemscore.Metal>
0.0000

> <Gold.Chemscore.Lipo>
100.7259

> <Gold.Chemscore.Internal_Hbond>
0.0000

> <Gold.Chemscore.DEClash>
0.4284

> <Gold.Chemscore.DEInternal>
1.6290

> <Gold.Chemscore.Rot>
2.5806

> <Gold.Chemscore.Internal.Correction>
   9.000000E+99

> <Gold.Chemscore.Hbonds>
donor molecule, donor type, donor heavy atom, donor atom, acceptor molecule, acceptor atom, score
      P1  H  6931  6943       L1    23  0.90
      P1  H  6934  6947       L1    23  0.07
      P1  H  7989  7998       L1     7  0.30

> <Gold.Chemscore.Hbond.Weighted>
-6.3629

> <Gold.Chemscore.Metal.Weighted>
-0.0000

> <Gold.Chemscore.Lipo.Weighted>
-11.7849

> <Gold.Chemscore.Internal_Hbond.Weighted>
0.0000

> <Gold.Chemscore.DEClash.Weighted>
0.4284

> <Gold.Chemscore.DEInternal.Weighted>
1.6290

> <Gold.Chemscore.Rot.Weighted>
6.6062

> <Gold.Chemscore.Internal.Correction.Weighted>
   9.000000E+99

> <Gold.Protein.RotatedTorsions>
[ 6907 6896 6895 6894 ] final  139.33 input  -60.11 | X-H torsion
[ 7974 7965 7964 7962 ] final  -90.01 input  175.53 | X-H torsion
[ 8008 7997 7996 7995 ] final  -20.02 input   59.86 | X-H torsion
[ 10167 10162 10161 10158 ] final -163.32 input  -65.29 | X-H torsion
[ 10718 10713 10712 10709 ] final  -48.44 input   66.30 | X-H torsion
[ 10763 10752 10751 10750 ] final  -14.21 input  -60.55 | X-H torsion
[ 11005 11000 10999 10996 ] final -102.36 input  -57.11 | X-H torsion

> <Gold.Protein.ActiveResidues>
 VAL166  LYS551  ARG553  GLY616  TRP617  ASP618  TYR619  PRO620  LYS621  CYS622 
 ASP623  PHE694  ASN695  SER759  ASP760  ASP761  ALA762  ILE779  LEU786  VAL792 
 PHE793  MET794  SER795  GLU796  ALA797  LYS798  CYS799  TRP800  GLU811  SER814 

> <Gold.Protein.RotatedAtoms>
  152.2562  133.5257  159.5354 H   0  0  0  0  0  0  0  0  0  0  0  0  # atno 6907 bound_to 6896
  150.7110  134.0892  159.3934 H   0  0  0  0  0  0  0  0  0  0  0  0  # atno 6908 bound_to 6896
  151.8811  135.0453  160.0539 H   0  0  0  0  0  0  0  0  0  0  0  0  # atno 6909 bound_to 6896
  145.4321  140.9556  143.2122 H   0  0  0  0  0  0  0  0  0  0  0  0  # atno 7974 bound_to 7965
  154.4798  140.2073  155.9792 H   0  0  0  0  0  0  0  0  0  0  0  0  # atno 8008 bound_to 7997
  156.1146  140.3223  155.8091 H   0  0  0  0  0  0  0  0  0  0  0  0  # atno 8009 bound_to 7997
  155.4575  140.0521  157.2985 H   0  0  0  0  0  0  0  0  0  0  0  0  # atno 8010 bound_to 7997
  139.6329  144.0406  152.2030 H   0  0  0  0  0  0  0  0  0  0  0  0  # atno 10167 bound_to 10162
  156.1988  130.4155  149.9270 H   0  0  0  0  0  0  0  0  0  0  0  0  # atno 10718 bound_to 10713
  153.5248  135.7015  153.5713 H   0  0  0  0  0  0  0  0  0  0  0  0  # atno 10763 bound_to 10752
  153.3746  135.3936  155.1813 H   0  0  0  0  0  0  0  0  0  0  0  0  # atno 10764 bound_to 10752
  154.8691  135.3820  154.4740 H   0  0  0  0  0  0  0  0  0  0  0  0  # atno 10765 bound_to 10752
  141.1192  133.8552  157.1350 H   0  0  0  0  0  0  0  0  0  0  0  0  # atno 11005 bound_to 11000
  144.8176  139.5849  143.7001 LP  0  0  0  0  0  0  0  0  0  0  0  0  # atno 17320 bound_to 7965
  146.2601  139.6392  142.9367 LP  0  0  0  0  0  0  0  0  0  0  0  0  # atno 17321 bound_to 7965
  140.0075  144.6248  150.7675 LP  0  0  0  0  0  0  0  0  0  0  0  0  # atno 17342 bound_to 10162
  140.7449  143.2867  151.3443 LP  0  0  0  0  0  0  0  0  0  0  0  0  # atno 17343 bound_to 10162
  156.6986  130.8924  151.3597 LP  0  0  0  0  0  0  0  0  0  0  0  0  # atno 17370 bound_to 10713
  157.6973  130.9296  150.0682 LP  0  0  0  0  0  0  0  0  0  0  0  0  # atno 17371 bound_to 10713
  140.0137  134.9977  157.0448 LP  0  0  0  0  0  0  0  0  0  0  0  0  # atno 17394 bound_to 11000
  140.4556  134.1537  155.7186 LP  0  0  0  0  0  0  0  0  0  0  0  0  # atno 17395 bound_to 11000

$$$$
