AV-unprocessed.smi:2520|AV-procd|sdf|9914|dock10
  -GOLD-   2272013553D 1   1.00000     0.00000
 Structure written by MMmdl.
 41 44  0  0  0  0  0  0  0  0  1 V2000
  150.0574  136.1095  158.3891 O   0  0  0  0  0  0  0  0  0  0  0  0
  149.7497  137.0875  159.0677 C   0  0  0  0  0  0  0  0  0  0  0  0
  148.9259  136.9656  160.1304 N   0  0  0  0  0  0  0  0  0  0  0  0
  148.2670  135.8306  160.6881 C   0  0  0  0  0  0  0  0  0  0  0  0
  147.4736  136.1063  161.8223 C   0  0  0  0  0  0  0  0  0  0  0  0
  146.7869  135.0438  162.4343 C   0  0  0  0  0  0  0  0  0  0  0  0
  146.9387  133.7676  161.8666 C   0  0  0  0  0  0  0  0  0  0  0  0
  147.7059  133.5467  160.7778 N   0  0  0  0  0  0  0  0  0  0  0  0
  148.3551  134.5638  160.2017 N   0  0  0  0  0  0  0  0  0  0  0  0
  150.2057  138.3224  158.8085 N   0  0  0  0  0  0  0  0  0  0  0  0
  151.1531  138.6674  157.7562 C   0  0  1  0  0  0  0  0  0  0  0  0
  150.6506  138.2586  156.3716 C   0  0  2  0  0  0  0  0  0  0  0  0
  151.0760  137.2485  155.3668 C   0  0  0  0  0  0  0  0  0  0  0  0
  151.0458  138.1647  154.1149 C   0  0  0  0  0  0  0  0  0  0  0  0
  150.8846  139.5145  154.6140 O   0  0  0  0  0  0  0  0  0  0  0  0
  151.4408  139.4668  155.9127 C   0  0  1  0  0  0  0  0  0  0  0  0
  151.0102  140.1469  157.2286 C   0  0  0  0  0  0  0  0  0  0  0  0
  151.9753  141.1852  157.8181 C   0  0  0  0  0  0  0  0  0  0  0  0
  151.1815  142.4450  158.1725 C   0  0  0  0  0  0  0  0  0  0  0  0
  149.7395  141.9744  158.2961 C   0  0  0  0  0  0  0  0  0  0  0  0
  149.6379  140.8507  157.2701 C   0  0  0  0  0  0  0  0  0  0  0  0
  148.7165  137.8369  160.5952 H   0  0  0  0  0  0  0  0  0  0  0  0
  147.3917  137.1083  162.2178 H   0  0  0  0  0  0  0  0  0  0  0  0
  146.1679  135.2009  163.3050 H   0  0  0  0  0  0  0  0  0  0  0  0
  146.4376  132.9099  162.2906 H   0  0  0  0  0  0  0  0  0  0  0  0
  149.8997  139.0741  159.4103 H   0  0  0  0  0  0  0  0  0  0  0  0
  152.1818  138.3540  157.9571 H   0  0  0  0  0  0  0  0  0  0  0  0
  149.5696  138.4129  156.2973 H   0  0  0  0  0  0  0  0  0  0  0  0
  152.0776  136.8673  155.5705 H   0  0  0  0  0  0  0  0  0  0  0  0
  150.3834  136.4101  155.2898 H   0  0  0  0  0  0  0  0  0  0  0  0
  151.9723  138.0769  153.5463 H   0  0  0  0  0  0  0  0  0  0  0  0
  150.2159  137.9207  153.4511 H   0  0  0  0  0  0  0  0  0  0  0  0
  152.5230  139.2996  155.8653 H   0  0  0  0  0  0  0  0  0  0  0  0
  152.4481  140.7918  158.7180 H   0  0  0  0  0  0  0  0  0  0  0  0
  152.7847  141.4277  157.1285 H   0  0  0  0  0  0  0  0  0  0  0  0
  151.5442  142.9297  159.0795 H   0  0  0  0  0  0  0  0  0  0  0  0
  151.2588  143.1652  157.3570 H   0  0  0  0  0  0  0  0  0  0  0  0
  149.5676  141.5753  159.2968 H   0  0  0  0  0  0  0  0  0  0  0  0
  149.0170  142.7723  158.1236 H   0  0  0  0  0  0  0  0  0  0  0  0
  149.4141  141.2793  156.2925 H   0  0  0  0  0  0  0  0  0  0  0  0
  148.8099  140.1846  157.5129 H   0  0  0  0  0  0  0  0  0  0  0  0
  1  2  2  0  0  0  0
  2  3  1  0  0  0  0
  2 10  1  0  0  0  0
  3  4  1  0  0  0  0
  3 22  1  0  0  0  0
  4  9  1  0  0  0  0
  4  5  2  0  0  0  0
  5  6  1  0  0  0  0
  5 23  1  0  0  0  0
  6  7  2  0  0  0  0
  6 24  1  0  0  0  0
  7  8  1  0  0  0  0
  7 25  1  0  0  0  0
  8  9  2  0  0  0  0
 10 11  1  0  0  0  0
 10 26  1  0  0  0  0
 11 17  1  0  0  0  0
 11 12  1  0  0  0  0
 11 27  1  0  0  0  0
 12 16  1  0  0  0  0
 12 13  1  0  0  0  0
 12 28  1  0  0  0  0
 13 14  1  0  0  0  0
 13 29  1  0  0  0  0
 13 30  1  0  0  0  0
 14 15  1  0  0  0  0
 14 31  1  0  0  0  0
 14 32  1  0  0  0  0
 15 16  1  0  0  0  0
 16 17  1  0  0  0  0
 16 33  1  0  0  0  0
 17 21  1  0  0  0  0
 17 18  1  0  0  0  0
 18 19  1  0  0  0  0
 18 34  1  0  0  0  0
 18 35  1  0  0  0  0
 19 20  1  0  0  0  0
 19 36  1  0  0  0  0
 19 37  1  0  0  0  0
 20 21  1  0  0  0  0
 20 38  1  0  0  0  0
 20 39  1  0  0  0  0
 21 40  1  0  0  0  0
 21 41  1  0  0  0  0
M  END
> <s_m_source_file>
AV-unprocessed.smi

> <i_m_source_file_index>
2520

> <i_lp_mmshare_version>
43012

> <i_f3d_flags>
0

> <s_epik_input>
bjFuW2NIXVtjSF1bY0hdYzFbTkhdQyg9TylbTkhdW0NAQEhdMltDQEBIXShbQ0gyXVtDSDJdTzMpW0NASF0zQzI0W0NIMl1bQ0gyXVtDSDJdW0NIMl00

> <s_epik_cmdline>
J2VwaWtfcHl0aG9uJywgJy1waCcsICc3LjAnLCAnLXRuJywgJzgnLCAnLW1hJywgJzIwMCcsICctbWV0YWxfYmluZGluZycsICctaW1hZScsICc8aW5maWxlLm1hZT4nLCAnLW9tYWUnLCAnPG91dGZpbGUubWFlPic=

> <r_lp_tautomer_probability>
1

> <r_epik_Ionization_Penalty>
0.00552561

> <r_epik_Ionization_Penalty_Charging>
0

> <r_epik_Ionization_Penalty_Neutral>
0.00552561

> <r_epik_State_Penalty>
-0

> <r_epik_Charging_Adjusted_Penalty>
0

> <i_epik_Tot_Q>
0

> <i_epik_Tot_abs_Q>
0

> <r_epik_Metal_State_Penalty>
-0

> <b_epik_Metal_Only>
0

> <s_lp_Force_Field>
OPLS_2005

> <r_lp_Energy>
83.483

> <b_lp_Chiralities_Consistent>
1

> <s_lp_Variant>
AV-unprocessed.smi:2520-8

> <Gold.Version>
5.8.1

> <Gold.Id.Protein>
6NUR|6NUR_protein|mol2

> <Gold.PLP.Fitness>
37.9634

> <Gold.PLP.PLP>
-32.0525

> <Gold.PLP.part.hbond>
-2.3916

> <Gold.PLP.part.metal>
0.0000

> <Gold.PLP.part.buried>
-6.6156

> <Gold.PLP.part.nonpolar>
-25.2024

> <Gold.PLP.part.repulsive>
1.6307

> <Gold.PLP.ligand.clash>
0.0000

> <Gold.PLP.ligand.torsion>
0.1856

> <Gold.PLP.Chemscore.Hbond>
2.0000

> <Gold.PLP.Chemscore.CHOScore>
0.0000

> <Gold.PLP.Chemscore.Metal>
0.0000

> <Gold.Chemscore.Hbonds>
donor molecule, donor type, donor heavy atom, donor atom, acceptor molecule, acceptor atom, score
      P1  H  6896  6907       L1     1  1.00
      P1  H  7989  7998       L1    15  1.00

> <Gold.PLP.Chemscore.Internal.Correction>
0.2821

> <Gold.Rescore>
     Score         DG    S(hbond)    S(metal)    S(lipo)     H(rot)  DE(clash)    DE(int)     intcor
     17.05     -18.43       1.88        0.00      78.91       1.00       0.01       1.37       ----

> <Gold.Chemscore.Fitness>
17.0520

> <Gold.Chemscore.DG>
-18.4300

> <Gold.Chemscore.ZeroCoef>
-5.4800

> <Gold.Chemscore.Hbond>
1.8795

> <Gold.Chemscore.Metal>
0.0000

> <Gold.Chemscore.Lipo>
78.9086

> <Gold.Chemscore.Internal_Hbond>
0.0000

> <Gold.Chemscore.DEClash>
0.0126

> <Gold.Chemscore.DEInternal>
1.3655

> <Gold.Chemscore.Rot>
1.0000

> <Gold.Chemscore.Internal.Correction>
   9.000000E+99

> <Gold.Chemscore.Hbonds>
donor molecule, donor type, donor heavy atom, donor atom, acceptor molecule, acceptor atom, score
      P1  H  6896  6907       L1     1  0.57
      P1  H  7989  7998       L1    15  0.78

> <Gold.Chemscore.Hbond.Weighted>
-6.2777

> <Gold.Chemscore.Metal.Weighted>
-0.0000

> <Gold.Chemscore.Lipo.Weighted>
-9.2323

> <Gold.Chemscore.Internal_Hbond.Weighted>
0.0000

> <Gold.Chemscore.DEClash.Weighted>
0.0126

> <Gold.Chemscore.DEInternal.Weighted>
1.3655

> <Gold.Chemscore.Rot.Weighted>
2.5600

> <Gold.Chemscore.Internal.Correction.Weighted>
   9.000000E+99

> <Gold.Protein.RotatedTorsions>
[ 6907 6896 6895 6894 ] final  -57.32 input  -60.11 | X-H torsion
[ 7974 7965 7964 7962 ] final  125.72 input  175.53 | X-H torsion
[ 8008 7997 7996 7995 ] final -110.47 input   59.86 | X-H torsion
[ 10167 10162 10161 10158 ] final  131.64 input  -65.29 | X-H torsion
[ 10718 10713 10712 10709 ] final  142.53 input   66.30 | X-H torsion
[ 10763 10752 10751 10750 ] final  -55.46 input  -60.55 | X-H torsion
[ 11005 11000 10999 10996 ] final   31.33 input  -57.11 | X-H torsion

> <Gold.Protein.ActiveResidues>
 VAL166  LYS551  ARG553  GLY616  TRP617  ASP618  TYR619  PRO620  LYS621  CYS622 
 ASP623  PHE694  ASN695  SER759  ASP760  ASP761  ALA762  ILE779  LEU786  VAL792 
 PHE793  MET794  SER795  GLU796  ALA797  LYS798  CYS799  TRP800  GLU811  SER814 

> <Gold.Protein.RotatedAtoms>
  150.8095  134.7241  159.6674 H   0  0  0  0  0  0  0  0  0  0  0  0  # atno 6907 bound_to 6896
  152.4215  134.5943  159.9992 H   0  0  0  0  0  0  0  0  0  0  0  0  # atno 6908 bound_to 6896
  151.6157  133.3306  159.3113 H   0  0  0  0  0  0  0  0  0  0  0  0  # atno 6909 bound_to 6896
  145.0698  139.3739  143.4963 H   0  0  0  0  0  0  0  0  0  0  0  0  # atno 7974 bound_to 7965
  154.9750  140.0397  157.2252 H   0  0  0  0  0  0  0  0  0  0  0  0  # atno 8008 bound_to 7997
  154.7766  140.2811  155.6074 H   0  0  0  0  0  0  0  0  0  0  0  0  # atno 8009 bound_to 7997
  156.2929  140.2600  156.2581 H   0  0  0  0  0  0  0  0  0  0  0  0  # atno 8010 bound_to 7997
  139.5375  144.6697  151.4736 H   0  0  0  0  0  0  0  0  0  0  0  0  # atno 10167 bound_to 10162
  157.3795  131.0990  151.0752 H   0  0  0  0  0  0  0  0  0  0  0  0  # atno 10718 bound_to 10713
  154.1912  135.6427  153.5060 H   0  0  0  0  0  0  0  0  0  0  0  0  # atno 10763 bound_to 10752
  153.0034  135.5429  154.6413 H   0  0  0  0  0  0  0  0  0  0  0  0  # atno 10764 bound_to 10752
  154.5802  135.2924  155.0713 H   0  0  0  0  0  0  0  0  0  0  0  0  # atno 10765 bound_to 10752
  140.2850  134.2929  155.7790 H   0  0  0  0  0  0  0  0  0  0  0  0  # atno 11005 bound_to 11000
  146.3528  140.0437  142.8641 LP  0  0  0  0  0  0  0  0  0  0  0  0  # atno 17320 bound_to 7965
  145.1306  140.9515  143.4546 LP  0  0  0  0  0  0  0  0  0  0  0  0  # atno 17321 bound_to 7965
  140.6589  143.8541  150.6865 LP  0  0  0  0  0  0  0  0  0  0  0  0  # atno 17342 bound_to 10162
  140.1929  143.4021  152.1849 LP  0  0  0  0  0  0  0  0  0  0  0  0  # atno 17343 bound_to 10162
  157.1826  130.6316  149.5677 LP  0  0  0  0  0  0  0  0  0  0  0  0  # atno 17370 bound_to 10713
  155.9772  130.4748  150.6582 LP  0  0  0  0  0  0  0  0  0  0  0  0  # atno 17371 bound_to 10713
  141.2156  133.7549  156.9538 LP  0  0  0  0  0  0  0  0  0  0  0  0  # atno 17394 bound_to 11000
  140.1248  134.9394  157.2254 LP  0  0  0  0  0  0  0  0  0  0  0  0  # atno 17395 bound_to 11000

$$$$
