AV-unprocessed.smi:2850|AV-procd|sdf|10968|dock4
  -GOLD-   2272015423D 1   1.00000     0.00000
 Structure written by MMmdl.
 45 46  0  0  0  0  0  0  0  0  2 V2000
  152.6759  142.6885  161.8431 C   0  0  0  0  0  0  0  0  0  0  0  0
  153.7422  141.4290  161.0883 S   0  0  0  0  0  0  0  0  0  0  0  0
  153.0208  140.9949  159.5342 C   0  0  0  0  0  0  0  0  0  0  0  0
  151.8351  141.6124  159.0978 C   0  0  0  0  0  0  0  0  0  0  0  0
  151.3257  141.2079  157.8516 C   0  0  0  0  0  0  0  0  0  0  0  0
  152.0383  140.2200  157.1419 C   0  0  0  0  0  0  0  0  0  0  0  0
  151.5530  139.7971  155.8973 N   0  0  0  0  0  0  0  0  0  0  0  0
  150.4108  140.4623  155.2857 C   0  0  0  0  0  0  0  0  0  0  0  0
  149.5769  139.4908  154.4390 C   0  0  1  0  0  0  0  0  0  0  0  0
  149.4568  138.1079  155.1095 C   0  0  0  0  0  0  0  0  0  0  0  0
  148.5825  137.2139  154.3096 N   0  3  1  0  0  0  0  0  0  0  0  0
  148.4576  135.8423  154.8669 C   0  0  0  0  0  0  0  0  0  0  0  0
  149.7048  134.9670  154.6166 C   0  0  0  0  0  0  0  0  0  0  0  0
  149.4125  133.4735  154.8385 C   0  0  0  0  0  0  0  0  0  0  0  0
  150.8703  135.4222  155.5078 C   0  0  0  0  0  0  0  0  0  0  0  0
  147.2645  137.8517  154.0821 C   0  0  0  0  0  0  0  0  0  0  0  0
  147.4427  139.2427  153.4538 C   0  0  0  0  0  0  0  0  0  0  0  0
  148.2701  140.0380  154.2927 O   0  0  0  0  0  0  0  0  0  0  0  0
  153.1803  139.6701  157.6274 N   0  0  0  0  0  0  0  0  0  0  0  0
  153.6690  140.0523  158.8127 N   0  0  0  0  0  0  0  0  0  0  0  0
  153.0852  142.9976  162.8048 H   0  0  0  0  0  0  0  0  0  0  0  0
  151.6736  142.2923  162.0069 H   0  0  0  0  0  0  0  0  0  0  0  0
  152.6059  143.5666  161.2006 H   0  0  0  0  0  0  0  0  0  0  0  0
  151.3363  142.3634  159.6925 H   0  0  0  0  0  0  0  0  0  0  0  0
  150.4183  141.6415  157.4574 H   0  0  0  0  0  0  0  0  0  0  0  0
  152.1025  139.1590  155.3400 H   0  0  0  0  0  0  0  0  0  0  0  0
  149.7902  140.8790  156.0800 H   0  0  0  0  0  0  0  0  0  0  0  0
  150.7534  141.2969  154.6725 H   0  0  0  0  0  0  0  0  0  0  0  0
  150.0432  139.3786  153.4579 H   0  0  0  0  0  0  0  0  0  0  0  0
  150.4504  137.6730  155.2120 H   0  0  0  0  0  0  0  0  0  0  0  0
  149.0489  138.2122  156.1163 H   0  0  0  0  0  0  0  0  0  0  0  0
  148.2413  135.9082  155.9344 H   0  0  0  0  0  0  0  0  0  0  0  0
  147.5973  135.3465  154.4142 H   0  0  0  0  0  0  0  0  0  0  0  0
  150.0323  135.0956  153.5855 H   0  0  0  0  0  0  0  0  0  0  0  0
  149.0749  133.2827  155.8577 H   0  0  0  0  0  0  0  0  0  0  0  0
  150.3045  132.8702  154.6669 H   0  0  0  0  0  0  0  0  0  0  0  0
  148.6415  133.1113  154.1583 H   0  0  0  0  0  0  0  0  0  0  0  0
  150.6307  135.3067  156.5654 H   0  0  0  0  0  0  0  0  0  0  0  0
  151.1132  136.4708  155.3343 H   0  0  0  0  0  0  0  0  0  0  0  0
  151.7705  134.8409  155.3057 H   0  0  0  0  0  0  0  0  0  0  0  0
  146.6581  137.2287  153.4234 H   0  0  0  0  0  0  0  0  0  0  0  0
  146.7294  137.9346  155.0295 H   0  0  0  0  0  0  0  0  0  0  0  0
  147.8772  139.1689  152.4556 H   0  0  0  0  0  0  0  0  0  0  0  0
  146.4752  139.7330  153.3449 H   0  0  0  0  0  0  0  0  0  0  0  0
  149.0105  137.1171  153.3997 H   0  0  0  0  0  0  0  0  0  0  0  0
  1  2  1  0  0  0  0
  1 21  1  0  0  0  0
  1 22  1  0  0  0  0
  1 23  1  0  0  0  0
  2  3  1  0  0  0  0
  3 20  1  0  0  0  0
  3  4  2  0  0  0  0
  4  5  1  0  0  0  0
  4 24  1  0  0  0  0
  5  6  2  0  0  0  0
  5 25  1  0  0  0  0
  6  7  1  0  0  0  0
  6 19  1  0  0  0  0
  7  8  1  0  0  0  0
  7 26  1  0  0  0  0
  8  9  1  0  0  0  0
  8 27  1  0  0  0  0
  8 28  1  0  0  0  0
  9 18  1  0  0  0  0
  9 10  1  0  0  0  0
  9 29  1  0  0  0  0
 10 11  1  0  0  0  0
 10 30  1  0  0  0  0
 10 31  1  0  0  0  0
 11 12  1  0  0  0  0
 11 16  1  0  0  0  0
 11 45  1  0  0  0  0
 12 13  1  0  0  0  0
 12 32  1  0  0  0  0
 12 33  1  0  0  0  0
 13 14  1  0  0  0  0
 13 15  1  0  0  0  0
 13 34  1  0  0  0  0
 14 35  1  0  0  0  0
 14 36  1  0  0  0  0
 14 37  1  0  0  0  0
 15 38  1  0  0  0  0
 15 39  1  0  0  0  0
 15 40  1  0  0  0  0
 16 17  1  0  0  0  0
 16 41  1  0  0  0  0
 16 42  1  0  0  0  0
 17 18  1  0  0  0  0
 17 43  1  0  0  0  0
 17 44  1  0  0  0  0
 19 20  2  0  0  0  0
M  CHG  1  11   1
M  END
> <s_m_source_file>
AV-unprocessed.smi

> <i_m_source_file_index>
2850

> <i_lp_mmshare_version>
43012

> <i_f3d_flags>
0

> <s_epik_input>
W0NIM11TYzFbY0hdW2NIXWMobm4xKVtOSF1bQ0gyXVtDQEBIXTJbQ0gyXU4oW0NIMl1bQ0gyXU8yKVtDSDJdW0NIXShbQ0gzXSlbQ0gzXQ==

> <s_epik_cmdline>
J2VwaWtfcHl0aG9uJywgJy1waCcsICc3LjAnLCAnLXRuJywgJzgnLCAnLW1hJywgJzIwMCcsICctbWV0YWxfYmluZGluZycsICctaW1hZScsICc8aW5maWxlLm1hZT4nLCAnLW9tYWUnLCAnPG91dGZpbGUubWFlPic=

> <r_lp_tautomer_probability>
0.999978

> <r_epik_Ionization_Penalty>
0.0874875

> <r_epik_Ionization_Penalty_Charging>
0.0831532

> <r_epik_Ionization_Penalty_Neutral>
0.00433433

> <r_epik_State_Penalty>
0.0738301

> <r_epik_Charging_Adjusted_Penalty>
0.156983

> <i_epik_Tot_Q>
1

> <i_epik_Tot_abs_Q>
1

> <r_epik_Metal_State_Penalty>
0.073888

> <b_epik_Metal_Only>
0

> <s_lp_Force_Field>
OPLS_2005

> <r_lp_Energy>
24.628

> <b_lp_Chiralities_Consistent>
1

> <s_lp_Variant>
AV-unprocessed.smi:2850-4

> <Gold.Version>
5.8.1

> <Gold.Id.Protein>
6NUR|6NUR_protein|mol2

> <Gold.PLP.Fitness>
41.4278

> <Gold.PLP.PLP>
-33.7258

> <Gold.PLP.part.hbond>
-3.0000

> <Gold.PLP.part.metal>
0.0000

> <Gold.PLP.part.buried>
-2.5362

> <Gold.PLP.part.nonpolar>
-28.1570

> <Gold.PLP.part.repulsive>
0.2440

> <Gold.PLP.ligand.clash>
0.0000

> <Gold.PLP.ligand.torsion>
0.6720

> <Gold.PLP.Chemscore.Hbond>
3.0000

> <Gold.PLP.Chemscore.CHOScore>
0.0000

> <Gold.PLP.Chemscore.Metal>
0.0000

> <Gold.Chemscore.Hbonds>
donor molecule, donor type, donor heavy atom, donor atom, acceptor molecule, acceptor atom, score
      L1  H    11    45       P1  7948  1.82
      P1  H  7997  8008       L1    19  1.00

> <Gold.PLP.Chemscore.Internal.Correction>
0.0459

> <Gold.Rescore>
     Score         DG    S(hbond)    S(metal)    S(lipo)     H(rot)  DE(clash)    DE(int)     intcor
     15.08     -15.89       1.24        0.00      88.52       1.60       0.06       0.76       ----

> <Gold.Chemscore.Fitness>
15.0766

> <Gold.Chemscore.DG>
-15.8913

> <Gold.Chemscore.ZeroCoef>
-5.4800

> <Gold.Chemscore.Hbond>
1.2428

> <Gold.Chemscore.Metal>
0.0000

> <Gold.Chemscore.Lipo>
88.5231

> <Gold.Chemscore.Internal_Hbond>
0.0000

> <Gold.Chemscore.DEClash>
0.0563

> <Gold.Chemscore.DEInternal>
0.7584

> <Gold.Chemscore.Rot>
1.6003

> <Gold.Chemscore.Internal.Correction>
   9.000000E+99

> <Gold.Chemscore.Hbonds>
donor molecule, donor type, donor heavy atom, donor atom, acceptor molecule, acceptor atom, score
      L1  H    11    45       P1  7948  0.90
      P1  H  7997  8008       L1    19  0.19

> <Gold.Chemscore.Hbond.Weighted>
-4.1509

> <Gold.Chemscore.Metal.Weighted>
-0.0000

> <Gold.Chemscore.Lipo.Weighted>
-10.3572

> <Gold.Chemscore.Internal_Hbond.Weighted>
0.0000

> <Gold.Chemscore.DEClash.Weighted>
0.0563

> <Gold.Chemscore.DEInternal.Weighted>
0.7584

> <Gold.Chemscore.Rot.Weighted>
4.0968

> <Gold.Chemscore.Internal.Correction.Weighted>
   9.000000E+99

> <Gold.Protein.RotatedTorsions>
[ 6907 6896 6895 6894 ] final  141.85 input  -60.11 | X-H torsion
[ 7974 7965 7964 7962 ] final    0.35 input  175.53 | X-H torsion
[ 8008 7997 7996 7995 ] final  -59.94 input   59.86 | X-H torsion
[ 10167 10162 10161 10158 ] final    2.83 input  -65.29 | X-H torsion
[ 10718 10713 10712 10709 ] final -143.17 input   66.30 | X-H torsion
[ 10763 10752 10751 10750 ] final  -55.68 input  -60.55 | X-H torsion
[ 11005 11000 10999 10996 ] final  145.18 input  -57.11 | X-H torsion

> <Gold.Protein.ActiveResidues>
 VAL166  LYS551  ARG553  GLY616  TRP617  ASP618  TYR619  PRO620  LYS621  CYS622 
 ASP623  PHE694  ASN695  SER759  ASP760  ASP761  ALA762  ILE779  LEU786  VAL792 
 PHE793  MET794  SER795  GLU796  ALA797  LYS798  CYS799  TRP800  GLU811  SER814 

> <Gold.Protein.RotatedAtoms>
  152.2259  133.5020  159.5188 H   0  0  0  0  0  0  0  0  0  0  0  0  # atno 6907 bound_to 6896
  150.7024  134.1281  159.4068 H   0  0  0  0  0  0  0  0  0  0  0  0  # atno 6908 bound_to 6896
  151.9202  135.0301  160.0572 H   0  0  0  0  0  0  0  0  0  0  0  0  # atno 6909 bound_to 6896
  146.2433  140.1151  142.8342 H   0  0  0  0  0  0  0  0  0  0  0  0  # atno 7974 bound_to 7965
  154.4375  140.1050  156.6195 H   0  0  0  0  0  0  0  0  0  0  0  0  # atno 8008 bound_to 7997
  155.5723  140.3489  155.4499 H   0  0  0  0  0  0  0  0  0  0  0  0  # atno 8009 bound_to 7997
  156.0381  140.1275  157.0175 H   0  0  0  0  0  0  0  0  0  0  0  0  # atno 8010 bound_to 7997
  140.6616  143.7289  150.7749 H   0  0  0  0  0  0  0  0  0  0  0  0  # atno 10167 bound_to 10162
  156.3547  130.7706  151.1865 H   0  0  0  0  0  0  0  0  0  0  0  0  # atno 10718 bound_to 10713
  154.1946  135.6421  153.5069 H   0  0  0  0  0  0  0  0  0  0  0  0  # atno 10763 bound_to 10752
  153.0027  135.5437  154.6379 H   0  0  0  0  0  0  0  0  0  0  0  0  # atno 10764 bound_to 10752
  154.5777  135.2922  155.0737 H   0  0  0  0  0  0  0  0  0  0  0  0  # atno 10765 bound_to 10752
  140.0691  134.9162  157.1315 H   0  0  0  0  0  0  0  0  0  0  0  0  # atno 11005 bound_to 11000
  145.0454  140.8977  143.5027 LP  0  0  0  0  0  0  0  0  0  0  0  0  # atno 17320 bound_to 7965
  145.1239  139.2675  143.5574 LP  0  0  0  0  0  0  0  0  0  0  0  0  # atno 17321 bound_to 7965
  140.0959  143.4833  152.2452 LP  0  0  0  0  0  0  0  0  0  0  0  0  # atno 17342 bound_to 10162
  139.5851  144.7527  151.3540 LP  0  0  0  0  0  0  0  0  0  0  0  0  # atno 17343 bound_to 10162
  157.7466  131.0417  150.4661 LP  0  0  0  0  0  0  0  0  0  0  0  0  # atno 17370 bound_to 10713
  156.4862  130.4085  149.6433 LP  0  0  0  0  0  0  0  0  0  0  0  0  # atno 17371 bound_to 10713
  140.3654  134.2449  155.7183 LP  0  0  0  0  0  0  0  0  0  0  0  0  # atno 17394 bound_to 11000
  141.2005  133.7986  157.0487 LP  0  0  0  0  0  0  0  0  0  0  0  0  # atno 17395 bound_to 11000

$$$$
