AV-unprocessed.smi:2583|AV-procd|sdf|10136|dock2
  -GOLD-   2272014153D 1   1.00000     0.00000
 Structure written by MMmdl.
 55 57  0  0  0  0  0  0  0  0  3 V2000
  149.8060  141.3985  155.0903 C   0  0  0  0  0  0  0  0  0  0  0  0
  148.4883  140.7563  154.7095 C   0  0  0  0  0  0  0  0  0  0  0  0
  147.2635  141.2766  155.1759 C   0  0  0  0  0  0  0  0  0  0  0  0
  146.0657  140.7322  154.8761 N   0  0  0  0  0  0  0  0  0  0  0  0
  146.0495  139.6386  154.0854 C   0  0  0  0  0  0  0  0  0  0  0  0
  147.2103  139.0419  153.5498 C   0  0  0  0  0  0  0  0  0  0  0  0
  147.0514  137.8806  152.7469 N   0  0  0  0  0  0  0  0  0  0  0  0
  145.9230  137.2095  152.4606 C   0  0  0  0  0  0  0  0  0  0  0  0
  144.8044  137.4797  152.8966 O   0  0  0  0  0  0  0  0  0  0  0  0
  146.1721  136.1767  151.6422 N   0  0  0  0  0  0  0  0  0  0  0  0
  145.1818  135.2294  151.1366 C   0  0  2  0  0  0  0  0  0  0  0  0
  144.3764  134.6348  152.3073 C   0  0  0  0  0  0  0  0  0  0  0  0
  143.4496  133.5003  151.8279 C   0  0  0  0  0  0  0  0  0  0  0  0
  144.2066  132.4240  151.1252 N   0  3  2  0  0  0  0  0  0  0  0  0
  145.0718  131.5659  152.0071 C   0  0  2  0  0  0  0  0  0  0  0  0
  146.2908  132.3400  152.5705 C   0  0  0  0  0  0  0  0  0  0  0  0
  147.2192  131.4468  153.4110 C   0  0  0  0  0  0  0  0  0  0  0  0
  147.6882  130.2791  152.6307 N   0  3  1  0  0  0  0  0  0  0  0  0
  148.6781  129.4667  153.3704 C   0  0  0  0  0  0  0  0  0  0  0  0
  146.5509  129.4709  152.1348 C   0  0  0  0  0  0  0  0  0  0  0  0
  145.6073  130.3166  151.2627 C   0  0  0  0  0  0  0  0  0  0  0  0
  144.8878  133.0104  149.9351 C   0  0  0  0  0  0  0  0  0  0  0  0
  145.8828  134.1175  150.3342 C   0  0  0  0  0  0  0  0  0  0  0  0
  148.4612  139.6156  153.8823 C   0  0  0  0  0  0  0  0  0  0  0  0
  149.6524  142.2895  155.6997 H   0  0  0  0  0  0  0  0  0  0  0  0
  150.3581  141.6881  154.1960 H   0  0  0  0  0  0  0  0  0  0  0  0
  150.4169  140.6973  155.6591 H   0  0  0  0  0  0  0  0  0  0  0  0
  147.2413  142.1485  155.8130 H   0  0  0  0  0  0  0  0  0  0  0  0
  145.0739  139.2279  153.8697 H   0  0  0  0  0  0  0  0  0  0  0  0
  147.9078  137.4864  152.3861 H   0  0  0  0  0  0  0  0  0  0  0  0
  147.1268  136.0361  151.3457 H   0  0  0  0  0  0  0  0  0  0  0  0
  144.4805  135.7301  150.4667 H   0  0  0  0  0  0  0  0  0  0  0  0
  145.0496  134.2641  153.0808 H   0  0  0  0  0  0  0  0  0  0  0  0
  143.7807  135.4182  152.7778 H   0  0  0  0  0  0  0  0  0  0  0  0
  142.8483  133.1146  152.6481 H   0  0  0  0  0  0  0  0  0  0  0  0
  142.7217  133.9133  151.1280 H   0  0  0  0  0  0  0  0  0  0  0  0
  144.4779  131.2215  152.8537 H   0  0  0  0  0  0  0  0  0  0  0  0
  146.8574  132.7866  151.7521 H   0  0  0  0  0  0  0  0  0  0  0  0
  145.9727  133.1574  153.2158 H   0  0  0  0  0  0  0  0  0  0  0  0
  148.0778  132.0298  153.7471 H   0  0  0  0  0  0  0  0  0  0  0  0
  146.6993  131.1037  154.3074 H   0  0  0  0  0  0  0  0  0  0  0  0
  148.2380  129.0346  154.2702 H   0  0  0  0  0  0  0  0  0  0  0  0
  149.5325  130.0765  153.6663 H   0  0  0  0  0  0  0  0  0  0  0  0
  149.0511  128.6532  152.7473 H   0  0  0  0  0  0  0  0  0  0  0  0
  146.9280  128.6295  151.5520 H   0  0  0  0  0  0  0  0  0  0  0  0
  146.0041  129.0501  152.9806 H   0  0  0  0  0  0  0  0  0  0  0  0
  144.7933  129.6629  150.9544 H   0  0  0  0  0  0  0  0  0  0  0  0
  146.1271  130.6214  150.3533 H   0  0  0  0  0  0  0  0  0  0  0  0
  145.3692  132.2537  149.3195 H   0  0  0  0  0  0  0  0  0  0  0  0
  144.1240  133.4413  149.2860 H   0  0  0  0  0  0  0  0  0  0  0  0
  146.3355  134.5422  149.4374 H   0  0  0  0  0  0  0  0  0  0  0  0
  146.7028  133.6912  150.9129 H   0  0  0  0  0  0  0  0  0  0  0  0
  149.3927  139.1961  153.5352 H   0  0  0  0  0  0  0  0  0  0  0  0
  143.5060  131.7980  150.7534 H   0  0  0  0  0  0  0  0  0  0  0  0
  148.1673  130.6417  151.8186 H   0  0  0  0  0  0  0  0  0  0  0  0
  1  2  1  0  0  0  0
  1 25  1  0  0  0  0
  1 26  1  0  0  0  0
  1 27  1  0  0  0  0
  2 24  1  0  0  0  0
  2  3  2  0  0  0  0
  3  4  1  0  0  0  0
  3 28  1  0  0  0  0
  4  5  2  0  0  0  0
  5  6  1  0  0  0  0
  5 29  1  0  0  0  0
  6  7  1  0  0  0  0
  6 24  2  0  0  0  0
  7  8  1  0  0  0  0
  7 30  1  0  0  0  0
  8  9  2  0  0  0  0
  8 10  1  0  0  0  0
 10 11  1  0  0  0  0
 10 31  1  0  0  0  0
 11 23  1  0  0  0  0
 11 12  1  0  0  0  0
 11 32  1  0  0  0  0
 12 13  1  0  0  0  0
 12 33  1  0  0  0  0
 12 34  1  0  0  0  0
 13 14  1  0  0  0  0
 13 35  1  0  0  0  0
 13 36  1  0  0  0  0
 14 15  1  0  0  0  0
 14 22  1  0  0  0  0
 14 54  1  0  0  0  0
 15 21  1  0  0  0  0
 15 16  1  0  0  0  0
 15 37  1  0  0  0  0
 16 17  1  0  0  0  0
 16 38  1  0  0  0  0
 16 39  1  0  0  0  0
 17 18  1  0  0  0  0
 17 40  1  0  0  0  0
 17 41  1  0  0  0  0
 18 19  1  0  0  0  0
 18 20  1  0  0  0  0
 18 55  1  0  0  0  0
 19 42  1  0  0  0  0
 19 43  1  0  0  0  0
 19 44  1  0  0  0  0
 20 21  1  0  0  0  0
 20 45  1  0  0  0  0
 20 46  1  0  0  0  0
 21 47  1  0  0  0  0
 21 48  1  0  0  0  0
 22 23  1  0  0  0  0
 22 49  1  0  0  0  0
 22 50  1  0  0  0  0
 23 51  1  0  0  0  0
 23 52  1  0  0  0  0
 24 53  1  0  0  0  0
M  CHG  1  14   1
M  CHG  1  18   1
M  END
> <s_m_source_file>
AV-unprocessed.smi

> <i_m_source_file_index>
2583

> <i_lp_mmshare_version>
43012

> <i_f3d_flags>
0

> <s_epik_input>
W0NIM11jMVtjSF1uW2NIXWMoW2NIXTEpW05IXUMoPU8pW05IXVtDSF0yW0NIMl1bQ0gyXU4oW0NIMl1bQ0gyXTIpW0NIXTNbQ0gyXVtDSDJdTihbQ0gzXSlbQ0gyXVtDSDJdMw==

> <s_epik_cmdline>
J2VwaWtfcHl0aG9uJywgJy1waCcsICc3LjAnLCAnLXRuJywgJzgnLCAnLW1hJywgJzIwMCcsICctbWV0YWxfYmluZGluZycsICctaW1hZScsICc8aW5maWxlLm1hZT4nLCAnLW9tYWUnLCAnPG91dGZpbGUubWFlPic=

> <r_epik_Ionization_Penalty>
0.188357

> <r_epik_Ionization_Penalty_Charging>
0.180787

> <r_epik_Ionization_Penalty_Neutral>
0.00756971

> <r_epik_State_Penalty>
0.157948

> <r_epik_Charging_Adjusted_Penalty>
0.338735

> <i_epik_Tot_Q>
2

> <i_epik_Tot_abs_Q>
2

> <r_epik_Metal_State_Penalty>
0.153874

> <b_epik_Metal_Only>
0

> <s_lp_Force_Field>
OPLS_2005

> <r_lp_Energy>
45.5267

> <b_lp_Chiralities_Consistent>
1

> <s_lp_Variant>
AV-unprocessed.smi:2583-2

> <Gold.Version>
5.8.1

> <Gold.Id.Protein>
6NUR|6NUR_protein|mol2

> <Gold.PLP.Fitness>
41.2629

> <Gold.PLP.PLP>
-34.0039

> <Gold.PLP.part.hbond>
-3.0000

> <Gold.PLP.part.metal>
0.0000

> <Gold.PLP.part.buried>
0.9181

> <Gold.PLP.part.nonpolar>
-31.3706

> <Gold.PLP.part.repulsive>
0.5104

> <Gold.PLP.ligand.clash>
3.7372

> <Gold.PLP.ligand.torsion>
0.1001

> <Gold.PLP.Chemscore.Hbond>
2.9440

> <Gold.PLP.Chemscore.CHOScore>
0.7740

> <Gold.PLP.Chemscore.Metal>
0.0000

> <Gold.Chemscore.Hbonds>
donor molecule, donor type, donor heavy atom, donor atom, acceptor molecule, acceptor atom, score
      L1  H     7    30       P1  7948  1.00
      L1  H    10    31       P1  7948  0.93
      L1  H    18    55       P1 10747  1.00
      L1  C     5    29       P1 10175  0.75

> <Gold.PLP.Chemscore.Internal.Correction>
0.0425

> <Gold.Rescore>
     Score         DG    S(hbond)    S(metal)    S(lipo)     H(rot)  DE(clash)    DE(int)     intcor
     19.23     -24.00       2.93        0.00     101.26       1.21       0.55       4.22       ----

> <Gold.Chemscore.Fitness>
19.2307

> <Gold.Chemscore.DG>
-24.0036

> <Gold.Chemscore.ZeroCoef>
-5.4800

> <Gold.Chemscore.Hbond>
2.9257

> <Gold.Chemscore.Metal>
0.0000

> <Gold.Chemscore.Lipo>
101.2576

> <Gold.Chemscore.Internal_Hbond>
0.0000

> <Gold.Chemscore.DEClash>
0.5526

> <Gold.Chemscore.DEInternal>
4.2204

> <Gold.Chemscore.Rot>
1.2092

> <Gold.Chemscore.Internal.Correction>
   9.000000E+99

> <Gold.Chemscore.Hbonds>
donor molecule, donor type, donor heavy atom, donor atom, acceptor molecule, acceptor atom, score
      L1  H     7    30       P1  7948  0.99
      L1  H    10    31       P1  7948  0.89
      L1  H    18    55       P1 10747  1.00

> <Gold.Chemscore.Hbond.Weighted>
-9.7719

> <Gold.Chemscore.Metal.Weighted>
-0.0000

> <Gold.Chemscore.Lipo.Weighted>
-11.8471

> <Gold.Chemscore.Internal_Hbond.Weighted>
0.0000

> <Gold.Chemscore.DEClash.Weighted>
0.5526

> <Gold.Chemscore.DEInternal.Weighted>
4.2204

> <Gold.Chemscore.Rot.Weighted>
3.0955

> <Gold.Chemscore.Internal.Correction.Weighted>
   9.000000E+99

> <Gold.Protein.RotatedTorsions>
[ 6907 6896 6895 6894 ] final  -35.78 input  -60.11 | X-H torsion
[ 7974 7965 7964 7962 ] final  -66.58 input  175.53 | X-H torsion
[ 8008 7997 7996 7995 ] final   66.95 input   59.86 | X-H torsion
[ 10167 10162 10161 10158 ] final   27.62 input  -65.29 | X-H torsion
[ 10718 10713 10712 10709 ] final -165.36 input   66.30 | X-H torsion
[ 10763 10752 10751 10750 ] final  -53.18 input  -60.55 | X-H torsion
[ 11005 11000 10999 10996 ] final  -40.57 input  -57.11 | X-H torsion

> <Gold.Protein.ActiveResidues>
 VAL166  LYS551  ARG553  GLY616  TRP617  ASP618  TYR619  PRO620  LYS621  CYS622 
 ASP623  PHE694  ASN695  SER759  ASP760  ASP761  ALA762  ILE779  LEU786  VAL792 
 PHE793  MET794  SER795  GLU796  ALA797  LYS798  CYS799  TRP800  GLU811  SER814 

> <Gold.Protein.RotatedAtoms>
  151.0355  134.9570  159.8133 H   0  0  0  0  0  0  0  0  0  0  0  0  # atno 6907 bound_to 6896
  152.5354  134.2725  159.8987 H   0  0  0  0  0  0  0  0  0  0  0  0  # atno 6908 bound_to 6896
  151.2736  133.4201  159.2656 H   0  0  0  0  0  0  0  0  0  0  0  0  # atno 6909 bound_to 6896
  145.7400  140.8958  143.0535 H   0  0  0  0  0  0  0  0  0  0  0  0  # atno 7974 bound_to 7965
  155.6853  140.3496  155.4871 H   0  0  0  0  0  0  0  0  0  0  0  0  # atno 8008 bound_to 7997
  155.9571  140.1130  157.0950 H   0  0  0  0  0  0  0  0  0  0  0  0  # atno 8009 bound_to 7997
  154.4135  140.1183  156.5116 H   0  0  0  0  0  0  0  0  0  0  0  0  # atno 8010 bound_to 7997
  140.4923  144.0447  150.6301 H   0  0  0  0  0  0  0  0  0  0  0  0  # atno 10167 bound_to 10162
  156.6523  130.9012  151.3015 H   0  0  0  0  0  0  0  0  0  0  0  0  # atno 10718 bound_to 10713
  154.1546  135.6484  153.4971 H   0  0  0  0  0  0  0  0  0  0  0  0  # atno 10763 bound_to 10752
  153.0128  135.5346  154.6773 H   0  0  0  0  0  0  0  0  0  0  0  0  # atno 10764 bound_to 10752
  154.6070  135.2950  155.0445 H   0  0  0  0  0  0  0  0  0  0  0  0  # atno 10765 bound_to 10752
  141.0184  133.6874  156.2339 H   0  0  0  0  0  0  0  0  0  0  0  0  # atno 11005 bound_to 11000
  144.6873  139.9448  143.7476 LP  0  0  0  0  0  0  0  0  0  0  0  0  # atno 17320 bound_to 7965
  146.0457  139.3463  143.0670 LP  0  0  0  0  0  0  0  0  0  0  0  0  # atno 17321 bound_to 7965
  140.3720  143.2849  152.0268 LP  0  0  0  0  0  0  0  0  0  0  0  0  # atno 17342 bound_to 10162
  139.4854  144.6223  151.7232 LP  0  0  0  0  0  0  0  0  0  0  0  0  # atno 17343 bound_to 10162
  157.7137  130.9471  150.1178 LP  0  0  0  0  0  0  0  0  0  0  0  0  # atno 17370 bound_to 10713
  156.2075  130.3664  149.8711 LP  0  0  0  0  0  0  0  0  0  0  0  0  # atno 17371 bound_to 10713
  140.6615  134.4963  157.5583 LP  0  0  0  0  0  0  0  0  0  0  0  0  # atno 17394 bound_to 11000
  139.9131  134.8303  156.1459 LP  0  0  0  0  0  0  0  0  0  0  0  0  # atno 17395 bound_to 11000

$$$$
