AV-unprocessed.smi:2955|AV-procd|sdf|11301|dock10
  -GOLD-   2272016203D 1   1.00000     0.00000
 Structure written by MMmdl.
 45 47  0  0  0  0  0  0  0  0  1 V2000
  154.4795  140.4599  160.5899 C   0  0  0  0  0  0  0  0  0  0  0  0
  153.6076  141.6843  160.7764 C   0  0  0  0  0  0  0  0  0  0  0  0
  153.5809  142.3595  162.0126 C   0  0  0  0  0  0  0  0  0  0  0  0
  152.7662  143.4951  162.1742 C   0  0  0  0  0  0  0  0  0  0  0  0
  151.9786  143.9608  161.1037 C   0  0  0  0  0  0  0  0  0  0  0  0
  152.0005  143.2930  159.8533 C   0  0  0  0  0  0  0  0  0  0  0  0
  151.2691  143.6843  158.7524 O   0  0  0  0  0  0  0  0  0  0  0  0
  151.3688  142.9066  157.5671 C   0  0  0  0  0  0  0  0  0  0  0  0
  150.3968  141.7205  157.6380 C   0  0  0  0  0  0  0  0  0  0  0  0
  150.0975  141.1745  156.3206 N   0  0  0  0  0  0  0  0  0  0  0  0
  150.8354  140.3342  155.5459 C   0  0  0  0  0  0  0  0  0  0  0  0
  152.1827  139.7973  155.9616 C   0  0  2  0  0  0  0  0  0  0  0  0
  152.8015  138.8893  154.8891 C   0  0  0  0  0  0  0  0  0  0  0  0
  152.0231  139.0653  157.2137 N   0  0  0  0  0  0  0  0  0  0  0  0
  153.0409  138.6162  157.9584 C   0  0  0  0  0  0  0  0  0  0  0  0
  154.2196  138.7775  157.6534 O   0  0  0  0  0  0  0  0  0  0  0  0
  150.2740  139.9833  154.3856 N   0  0  0  0  0  0  0  0  0  0  0  0
  149.0834  140.6802  154.3936 C   0  0  0  0  0  0  0  0  0  0  0  0
  148.0479  140.7401  153.4337 C   0  0  0  0  0  0  0  0  0  0  0  0
  146.9071  141.5367  153.6638 C   0  0  0  0  0  0  0  0  0  0  0  0
  146.7855  142.2815  154.8545 C   0  0  0  0  0  0  0  0  0  0  0  0
  147.8054  142.2335  155.8243 C   0  0  0  0  0  0  0  0  0  0  0  0
  148.9429  141.4376  155.5893 C   0  0  0  0  0  0  0  0  0  0  0  0
  152.8197  142.1544  159.7064 C   0  0  0  0  0  0  0  0  0  0  0  0
  154.9054  140.1271  161.5369 H   0  0  0  0  0  0  0  0  0  0  0  0
  155.2986  140.6816  159.9056 H   0  0  0  0  0  0  0  0  0  0  0  0
  153.8959  139.6387  160.1736 H   0  0  0  0  0  0  0  0  0  0  0  0
  154.1826  142.0107  162.8392 H   0  0  0  0  0  0  0  0  0  0  0  0
  152.7457  144.0119  163.1221 H   0  0  0  0  0  0  0  0  0  0  0  0
  151.3681  144.8354  161.2678 H   0  0  0  0  0  0  0  0  0  0  0  0
  151.1275  143.5216  156.6990 H   0  0  0  0  0  0  0  0  0  0  0  0
  152.3856  142.5310  157.4413 H   0  0  0  0  0  0  0  0  0  0  0  0
  150.7753  140.9371  158.2930 H   0  0  0  0  0  0  0  0  0  0  0  0
  149.4605  142.0483  158.0905 H   0  0  0  0  0  0  0  0  0  0  0  0
  152.8851  140.6122  156.1268 H   0  0  0  0  0  0  0  0  0  0  0  0
  152.9029  139.4185  153.9420 H   0  0  0  0  0  0  0  0  0  0  0  0
  152.1878  138.0063  154.7082 H   0  0  0  0  0  0  0  0  0  0  0  0
  153.7936  138.5488  155.1868 H   0  0  0  0  0  0  0  0  0  0  0  0
  151.0808  138.8973  157.5350 H   0  0  0  0  0  0  0  0  0  0  0  0
  152.6898  138.0916  158.8608 H   0  0  0  0  0  0  0  0  0  0  0  0
  148.1324  140.1736  152.5183 H   0  0  0  0  0  0  0  0  0  0  0  0
  146.1220  141.5768  152.9231 H   0  0  0  0  0  0  0  0  0  0  0  0
  145.9087  142.8895  155.0234 H   0  0  0  0  0  0  0  0  0  0  0  0
  147.7145  142.8036  156.7367 H   0  0  0  0  0  0  0  0  0  0  0  0
  152.8420  141.6338  158.7604 H   0  0  0  0  0  0  0  0  0  0  0  0
  1  2  1  0  0  0  0
  1 25  1  0  0  0  0
  1 26  1  0  0  0  0
  1 27  1  0  0  0  0
  2 24  1  0  0  0  0
  2  3  2  0  0  0  0
  3  4  1  0  0  0  0
  3 28  1  0  0  0  0
  4  5  2  0  0  0  0
  4 29  1  0  0  0  0
  5  6  1  0  0  0  0
  5 30  1  0  0  0  0
  6  7  1  0  0  0  0
  6 24  2  0  0  0  0
  7  8  1  0  0  0  0
  8  9  1  0  0  0  0
  8 31  1  0  0  0  0
  8 32  1  0  0  0  0
  9 10  1  0  0  0  0
  9 33  1  0  0  0  0
  9 34  1  0  0  0  0
 10 23  1  0  0  0  0
 10 11  1  0  0  0  0
 11 12  1  0  0  0  0
 11 17  2  0  0  0  0
 12 13  1  0  0  0  0
 12 14  1  0  0  0  0
 12 35  1  0  0  0  0
 13 36  1  0  0  0  0
 13 37  1  0  0  0  0
 13 38  1  0  0  0  0
 14 15  1  0  0  0  0
 14 39  1  0  0  0  0
 15 16  2  0  0  0  0
 15 40  1  0  0  0  0
 17 18  1  0  0  0  0
 18 23  2  0  0  0  0
 18 19  1  0  0  0  0
 19 20  2  0  0  0  0
 19 41  1  0  0  0  0
 20 21  1  0  0  0  0
 20 42  1  0  0  0  0
 21 22  2  0  0  0  0
 21 43  1  0  0  0  0
 22 23  1  0  0  0  0
 22 44  1  0  0  0  0
 24 45  1  0  0  0  0
M  END
> <s_m_source_file>
AV-unprocessed.smi

> <i_m_source_file_index>
2955

> <i_lp_mmshare_version>
43012

> <i_f3d_flags>
0

> <s_epik_input>
W0NIM11jMVtjSF1bY0hdW2NIXWMoW2NIXTEpT1tDSDJdW0NIMl1uKGMobjIpW0NASF0oW0NIM10pW05IXVtDSF09TyljKGMyMylbY0hdW2NIXVtjSF1bY0hdMw==

> <s_epik_cmdline>
J2VwaWtfcHl0aG9uJywgJy1waCcsICc3LjAnLCAnLXRuJywgJzgnLCAnLW1hJywgJzIwMCcsICctbWV0YWxfYmluZGluZycsICctaW1hZScsICc8aW5maWxlLm1hZT4nLCAnLW9tYWUnLCAnPG91dGZpbGUubWFlPic=

> <r_lp_tautomer_probability>
1

> <r_epik_Ionization_Penalty>
0.0917757

> <r_epik_Ionization_Penalty_Charging>
0

> <r_epik_Ionization_Penalty_Neutral>
0.0917757

> <r_epik_State_Penalty>
0.0820948

> <r_epik_Charging_Adjusted_Penalty>
0.0820948

> <i_epik_Tot_Q>
0

> <i_epik_Tot_abs_Q>
0

> <r_epik_Metal_State_Penalty>
0.0709956

> <b_epik_Metal_Only>
0

> <s_lp_Force_Field>
OPLS_2005

> <r_lp_Energy>
12.8811

> <b_lp_Chiralities_Consistent>
1

> <s_lp_Variant>
AV-unprocessed.smi:2955-1

> <Gold.Version>
5.8.1

> <Gold.Id.Protein>
6NUR|6NUR_protein|mol2

> <Gold.PLP.Fitness>
56.0034

> <Gold.PLP.PLP>
-54.3640

> <Gold.PLP.part.hbond>
-1.9915

> <Gold.PLP.part.metal>
0.0000

> <Gold.PLP.part.buried>
0.0292

> <Gold.PLP.part.nonpolar>
-52.4995

> <Gold.PLP.part.repulsive>
0.2570

> <Gold.PLP.ligand.clash>
2.0807

> <Gold.PLP.ligand.torsion>
0.5707

> <Gold.PLP.Chemscore.Hbond>
1.6000

> <Gold.PLP.Chemscore.CHOScore>
0.0000

> <Gold.PLP.Chemscore.Metal>
0.0000

> <Gold.Chemscore.Hbonds>
donor molecule, donor type, donor heavy atom, donor atom, acceptor molecule, acceptor atom, score
      P1  H  7989  7998       L1    17  0.50
      P1  H  7997  8010       L1    16  0.71

> <Gold.PLP.Chemscore.Internal.Correction>
0.0615

> <Gold.Rescore>
     Score         DG    S(hbond)    S(metal)    S(lipo)     H(rot)  DE(clash)    DE(int)     intcor
     17.78     -19.84       0.99        0.00     144.06       2.26       1.37       0.70       ----

> <Gold.Chemscore.Fitness>
17.7759

> <Gold.Chemscore.DG>
-19.8383

> <Gold.Chemscore.ZeroCoef>
-5.4800

> <Gold.Chemscore.Hbond>
0.9861

> <Gold.Chemscore.Metal>
0.0000

> <Gold.Chemscore.Lipo>
144.0609

> <Gold.Chemscore.Internal_Hbond>
0.0000

> <Gold.Chemscore.DEClash>
1.3660

> <Gold.Chemscore.DEInternal>
0.6964

> <Gold.Chemscore.Rot>
2.2619

> <Gold.Chemscore.Internal.Correction>
   9.000000E+99

> <Gold.Chemscore.Hbonds>
donor molecule, donor type, donor heavy atom, donor atom, acceptor molecule, acceptor atom, score
      P1  H  7989  7998       L1    17  0.02
      P1  H  7997  8010       L1    16  0.68

> <Gold.Chemscore.Hbond.Weighted>
-3.2937

> <Gold.Chemscore.Metal.Weighted>
-0.0000

> <Gold.Chemscore.Lipo.Weighted>
-16.8551

> <Gold.Chemscore.Internal_Hbond.Weighted>
0.0000

> <Gold.Chemscore.DEClash.Weighted>
1.3660

> <Gold.Chemscore.DEInternal.Weighted>
0.6964

> <Gold.Chemscore.Rot.Weighted>
5.7906

> <Gold.Chemscore.Internal.Correction.Weighted>
   9.000000E+99

> <Gold.Protein.RotatedTorsions>
[ 6907 6896 6895 6894 ] final  104.27 input  -60.11 | X-H torsion
[ 7974 7965 7964 7962 ] final   10.76 input  175.53 | X-H torsion
[ 8008 7997 7996 7995 ] final   22.32 input   59.86 | X-H torsion
[ 10167 10162 10161 10158 ] final   18.93 input  -65.29 | X-H torsion
[ 10718 10713 10712 10709 ] final  -91.49 input   66.30 | X-H torsion
[ 10763 10752 10751 10750 ] final   11.37 input  -60.55 | X-H torsion
[ 11005 11000 10999 10996 ] final  113.11 input  -57.11 | X-H torsion

> <Gold.Protein.ActiveResidues>
 VAL166  LYS551  ARG553  GLY616  TRP617  ASP618  TYR619  PRO620  LYS621  CYS622 
 ASP623  PHE694  ASN695  SER759  ASP760  ASP761  ALA762  ILE779  LEU786  VAL792 
 PHE793  MET794  SER795  GLU796  ALA797  LYS798  CYS799  TRP800  GLU811  SER814 

> <Gold.Protein.RotatedAtoms>
  152.5269  133.9701  159.7757 H   0  0  0  0  0  0  0  0  0  0  0  0  # atno 6907 bound_to 6896
  150.9975  133.6081  159.2706 H   0  0  0  0  0  0  0  0  0  0  0  0  # atno 6908 bound_to 6896
  151.3202  135.0823  159.9356 H   0  0  0  0  0  0  0  0  0  0  0  0  # atno 6909 bound_to 6896
  146.2383  139.9586  142.8461 H   0  0  0  0  0  0  0  0  0  0  0  0  # atno 7974 bound_to 7965
  154.9639  140.3081  155.5018 H   0  0  0  0  0  0  0  0  0  0  0  0  # atno 8008 bound_to 7997
  156.2974  140.2296  156.4665 H   0  0  0  0  0  0  0  0  0  0  0  0  # atno 8009 bound_to 7997
  154.7939  140.0438  157.1210 H   0  0  0  0  0  0  0  0  0  0  0  0  # atno 8010 bound_to 7997
  140.5617  143.9326  150.6647 H   0  0  0  0  0  0  0  0  0  0  0  0  # atno 10167 bound_to 10162
  155.9994  130.4950  150.5482 H   0  0  0  0  0  0  0  0  0  0  0  0  # atno 10718 bound_to 10713
  153.1933  135.6845  153.8324 H   0  0  0  0  0  0  0  0  0  0  0  0  # atno 10763 bound_to 10752
  153.7616  135.3209  155.3339 H   0  0  0  0  0  0  0  0  0  0  0  0  # atno 10764 bound_to 10752
  154.8130  135.4705  154.0666 H   0  0  0  0  0  0  0  0  0  0  0  0  # atno 10765 bound_to 10752
  139.8944  134.9543  156.6689 H   0  0  0  0  0  0  0  0  0  0  0  0  # atno 11005 bound_to 11000
  145.1792  140.9759  143.4276 LP  0  0  0  0  0  0  0  0  0  0  0  0  # atno 17320 bound_to 7965
  144.9957  139.3646  143.6192 LP  0  0  0  0  0  0  0  0  0  0  0  0  # atno 17321 bound_to 7965
  140.2778  143.3410  152.1179 LP  0  0  0  0  0  0  0  0  0  0  0  0  # atno 17342 bound_to 10162
  139.5073  144.6829  151.5961 LP  0  0  0  0  0  0  0  0  0  0  0  0  # atno 17343 bound_to 10162
  157.3409  131.0716  151.1789 LP  0  0  0  0  0  0  0  0  0  0  0  0  # atno 17370 bound_to 10713
  157.2637  130.6671  149.5987 LP  0  0  0  0  0  0  0  0  0  0  0  0  # atno 17371 bound_to 10713
  140.7388  133.8995  155.8263 LP  0  0  0  0  0  0  0  0  0  0  0  0  # atno 17394 bound_to 11000
  141.0094  134.1041  157.4237 LP  0  0  0  0  0  0  0  0  0  0  0  0  # atno 17395 bound_to 11000

$$$$
