AV-unprocessed.smi:104|AV-procd|sdf|1000|dock3
  -GOLD-   2262017583D 1   1.00000     0.00000
 Structure written by MMmdl.
 47 49  0  0  0  0  0  0  0  0  1 V2000
  147.4012  136.4384  159.3558 C   0  0  0  0  0  0  0  0  0  0  0  0
  148.7920  136.1530  158.8038 C   0  0  0  0  0  0  0  0  0  0  0  0
  149.7946  136.2460  159.5120 O   0  0  0  0  0  0  0  0  0  0  0  0
  148.7698  135.8010  157.5099 O   0  0  0  0  0  0  0  0  0  0  0  0
  149.9308  135.2511  156.9077 C   0  0  0  0  0  0  0  0  0  0  0  0
  149.7894  135.2761  155.3734 C   0  0  1  0  0  0  0  0  0  0  0  0
  148.7625  134.3636  155.0130 O   0  0  0  0  0  0  0  0  0  0  0  0
  147.5279  135.0123  155.0427 C   0  0  2  0  0  0  0  0  0  0  0  0
  146.7168  134.5031  153.8902 N   0  0  0  0  0  0  0  0  0  0  0  0
  147.0229  133.5146  152.9831 C   0  0  0  0  0  0  0  0  0  0  0  0
  148.6589  132.5420  153.0489 Br  0  0  0  0  0  0  0  0  0  0  0  0
  146.1313  133.2464  152.0706 N   0  0  0  0  0  0  0  0  0  0  0  0
  145.1034  134.1289  152.3792 C   0  0  0  0  0  0  0  0  0  0  0  0
  143.8263  134.3871  151.8209 C   0  0  0  0  0  0  0  0  0  0  0  0
  143.3477  133.7298  150.7557 N   0  0  0  0  0  0  0  0  0  0  0  0
  143.0508  135.3386  152.3910 N   0  0  0  0  0  0  0  0  0  0  0  0
  143.5031  136.0062  153.4573 C   0  0  0  0  0  0  0  0  0  0  0  0
  144.6724  135.8773  154.0899 N   0  0  0  0  0  0  0  0  0  0  0  0
  145.4554  134.9190  153.5123 C   0  0  0  0  0  0  0  0  0  0  0  0
  147.7872  136.5334  154.9647 C   0  0  2  0  0  0  0  0  0  0  0  0
  147.1058  137.1450  153.8731 O   0  0  0  0  0  0  0  0  0  0  0  0
  147.0085  138.4806  153.7927 C   0  0  0  0  0  0  0  0  0  0  0  0
  146.5093  138.9409  152.4299 C   0  0  0  0  0  0  0  0  0  0  0  0
  147.2809  139.2839  154.6847 O   0  0  0  0  0  0  0  0  0  0  0  0
  149.2964  136.6027  154.7790 C   0  0  1  0  0  0  0  0  0  0  0  0
  149.8249  137.7498  155.4330 O   0  0  0  0  0  0  0  0  0  0  0  0
  151.0767  138.1608  155.1699 C   0  0  0  0  0  0  0  0  0  0  0  0
  151.4140  139.4722  155.8659 C   0  0  0  0  0  0  0  0  0  0  0  0
  151.8988  137.5768  154.4642 O   0  0  0  0  0  0  0  0  0  0  0  0
  146.6302  136.0984  158.6636 H   0  0  0  0  0  0  0  0  0  0  0  0
  147.2729  137.5083  159.5191 H   0  0  0  0  0  0  0  0  0  0  0  0
  147.2604  135.9235  160.3062 H   0  0  0  0  0  0  0  0  0  0  0  0
  150.7869  135.8557  157.2096 H   0  0  0  0  0  0  0  0  0  0  0  0
  150.1137  134.2340  157.2578 H   0  0  0  0  0  0  0  0  0  0  0  0
  150.7259  134.9600  154.9126 H   0  0  0  0  0  0  0  0  0  0  0  0
  146.9757  134.7244  155.9367 H   0  0  0  0  0  0  0  0  0  0  0  0
  143.9060  133.0133  150.3143 H   0  0  0  0  0  0  0  0  0  0  0  0
  142.4310  133.9523  150.3959 H   0  0  0  0  0  0  0  0  0  0  0  0
  142.8322  136.7495  153.8621 H   0  0  0  0  0  0  0  0  0  0  0  0
  147.4901  136.9617  155.9236 H   0  0  0  0  0  0  0  0  0  0  0  0
  145.5843  138.4255  152.1709 H   0  0  0  0  0  0  0  0  0  0  0  0
  147.2529  138.7247  151.6628 H   0  0  0  0  0  0  0  0  0  0  0  0
  146.3175  140.0141  152.4336 H   0  0  0  0  0  0  0  0  0  0  0  0
  149.5151  136.6188  153.7097 H   0  0  0  0  0  0  0  0  0  0  0  0
  150.7951  140.2787  155.4723 H   0  0  0  0  0  0  0  0  0  0  0  0
  152.4613  139.7310  155.7086 H   0  0  0  0  0  0  0  0  0  0  0  0
  151.2369  139.3892  156.9382 H   0  0  0  0  0  0  0  0  0  0  0  0
  1  2  1  0  0  0  0
  1 30  1  0  0  0  0
  1 31  1  0  0  0  0
  1 32  1  0  0  0  0
  2  3  2  0  0  0  0
  2  4  1  0  0  0  0
  4  5  1  0  0  0  0
  5  6  1  0  0  0  0
  5 33  1  0  0  0  0
  5 34  1  0  0  0  0
  6 25  1  0  0  0  0
  6  7  1  0  0  0  0
  6 35  1  0  0  0  0
  7  8  1  0  0  0  0
  8  9  1  0  0  0  0
  8 20  1  0  0  0  0
  8 36  1  0  0  0  0
  9 19  1  0  0  0  0
  9 10  1  0  0  0  0
 10 11  1  0  0  0  0
 10 12  2  0  0  0  0
 12 13  1  0  0  0  0
 13 19  2  0  0  0  0
 13 14  1  0  0  0  0
 14 15  1  0  0  0  0
 14 16  2  0  0  0  0
 15 37  1  0  0  0  0
 15 38  1  0  0  0  0
 16 17  1  0  0  0  0
 17 18  2  0  0  0  0
 17 39  1  0  0  0  0
 18 19  1  0  0  0  0
 20 21  1  0  0  0  0
 20 25  1  0  0  0  0
 20 40  1  0  0  0  0
 21 22  1  0  0  0  0
 22 23  1  0  0  0  0
 22 24  2  0  0  0  0
 23 41  1  0  0  0  0
 23 42  1  0  0  0  0
 23 43  1  0  0  0  0
 25 26  1  0  0  0  0
 25 44  1  0  0  0  0
 26 27  1  0  0  0  0
 27 28  1  0  0  0  0
 27 29  2  0  0  0  0
 28 45  1  0  0  0  0
 28 46  1  0  0  0  0
 28 47  1  0  0  0  0
M  END
> <s_m_source_file>
AV-unprocessed.smi

> <i_m_source_file_index>
104

> <i_lp_mmshare_version>
43012

> <i_f3d_flags>
0

> <s_epik_input>
W0NIM11DKD1PKU9bQ0gyXVtDQEBIXTFPW0NASF0oW0NAQEhdKE9DKD1PKVtDSDNdKVtDQEhdMU9DKD1PKVtDSDNdKW4oYyhCciluMiljKGMyMyluW2NIXW5jM1tOSDJd

> <s_epik_cmdline>
J2VwaWtfcHl0aG9uJywgJy1waCcsICc3LjAnLCAnLXRuJywgJzgnLCAnLW1hJywgJzIwMCcsICctbWV0YWxfYmluZGluZycsICctaW1hZScsICc8aW5maWxlLm1hZT4nLCAnLW9tYWUnLCAnPG91dGZpbGUubWFlPic=

> <r_lp_tautomer_probability>
1

> <r_epik_Ionization_Penalty>
7.36622e-05

> <r_epik_Ionization_Penalty_Charging>
0

> <r_epik_Ionization_Penalty_Neutral>
7.36622e-05

> <r_epik_State_Penalty>
-0

> <r_epik_Charging_Adjusted_Penalty>
0

> <i_epik_Tot_Q>
0

> <i_epik_Tot_abs_Q>
0

> <r_epik_Metal_State_Penalty>
-0

> <b_epik_Metal_Only>
0

> <s_epik_Chemistry_Notes>
This compound has an ester and may undergo hydrolysis at high or low pH. This compound contains an acetal/aminal-like group ( X-CH(R)-Y where X, Y are N, S, or O) that may be acid/base labile, releasing an aldehyde.

> <s_lp_Force_Field>
OPLS_2005

> <r_lp_Energy>
18.9649

> <b_lp_Chiralities_Consistent>
1

> <s_lp_Variant>
AV-unprocessed.smi:104-8

> <Gold.Version>
5.8.1

> <Gold.Id.Protein>
6NUR|6NUR_protein|mol2

> <Gold.PLP.Fitness>
35.2345

> <Gold.PLP.PLP>
-28.0776

> <Gold.PLP.part.hbond>
-3.0000

> <Gold.PLP.part.metal>
0.0000

> <Gold.PLP.part.buried>
-5.0507

> <Gold.PLP.part.nonpolar>
-23.5368

> <Gold.PLP.part.repulsive>
3.3547

> <Gold.PLP.ligand.clash>
0.0000

> <Gold.PLP.ligand.torsion>
0.6713

> <Gold.PLP.Chemscore.Hbond>
2.7840

> <Gold.PLP.Chemscore.CHOScore>
0.0000

> <Gold.PLP.Chemscore.Metal>
0.0000

> <Gold.Chemscore.Hbonds>
donor molecule, donor type, donor heavy atom, donor atom, acceptor molecule, acceptor atom, score
      L1  H    15    38       P1 10186  1.00
      P1  H  6896  6909       L1     3  1.00
      P1  H 10752 10764       L1    29  0.55

> <Gold.PLP.Chemscore.Internal.Correction>
0.1475

> <Gold.Rescore>
     Score         DG    S(hbond)    S(metal)    S(lipo)     H(rot)  DE(clash)    DE(int)     intcor
     -0.04      -8.59       2.84        0.00      39.67       4.31       1.32       7.31       ----

> <Gold.Chemscore.Fitness>
-0.0397

> <Gold.Chemscore.DG>
-8.5912

> <Gold.Chemscore.ZeroCoef>
-5.4800

> <Gold.Chemscore.Hbond>
2.8429

> <Gold.Chemscore.Metal>
0.0000

> <Gold.Chemscore.Lipo>
39.6723

> <Gold.Chemscore.Internal_Hbond>
0.0000

> <Gold.Chemscore.DEClash>
1.3161

> <Gold.Chemscore.DEInternal>
7.3148

> <Gold.Chemscore.Rot>
4.3070

> <Gold.Chemscore.Internal.Correction>
   9.000000E+99

> <Gold.Chemscore.Hbonds>
donor molecule, donor type, donor heavy atom, donor atom, acceptor molecule, acceptor atom, score
      L1  H    15    38       P1 10186  0.93
      P1  H  6896  6909       L1     3  0.97
      P1  H 10752 10764       L1    29  0.55

> <Gold.Chemscore.Hbond.Weighted>
-9.4954

> <Gold.Chemscore.Metal.Weighted>
-0.0000

> <Gold.Chemscore.Lipo.Weighted>
-4.6417

> <Gold.Chemscore.Internal_Hbond.Weighted>
0.0000

> <Gold.Chemscore.DEClash.Weighted>
1.3161

> <Gold.Chemscore.DEInternal.Weighted>
7.3148

> <Gold.Chemscore.Rot.Weighted>
11.0259

> <Gold.Chemscore.Internal.Correction.Weighted>
   9.000000E+99

> <Gold.Protein.RotatedTorsions>
[ 6907 6896 6895 6894 ] final   68.54 input  -60.11 | X-H torsion
[ 7974 7965 7964 7962 ] final   71.29 input  175.53 | X-H torsion
[ 8008 7997 7996 7995 ] final   35.54 input   59.86 | X-H torsion
[ 10167 10162 10161 10158 ] final  145.22 input  -65.29 | X-H torsion
[ 10718 10713 10712 10709 ] final  172.44 input   66.30 | X-H torsion
[ 10763 10752 10751 10750 ] final  -81.47 input  -60.55 | X-H torsion
[ 11005 11000 10999 10996 ] final  179.22 input  -57.11 | X-H torsion

> <Gold.Protein.ActiveResidues>
 VAL166  LYS551  ARG553  GLY616  TRP617  ASP618  TYR619  PRO620  LYS621  CYS622 
 ASP623  PHE694  ASN695  SER759  ASP760  ASP761  ALA762  ILE779  LEU786  VAL792 
 PHE793  MET794  SER795  GLU796  ALA797  LYS798  CYS799  TRP800  GLU811  SER814 

> <Gold.Protein.RotatedAtoms>
  152.4627  134.5146  159.9764 H   0  0  0  0  0  0  0  0  0  0  0  0  # atno 6907 bound_to 6896
  151.5191  133.3464  159.2906 H   0  0  0  0  0  0  0  0  0  0  0  0  # atno 6908 bound_to 6896
  150.8597  134.7975  159.7136 H   0  0  0  0  0  0  0  0  0  0  0  0  # atno 6909 bound_to 6896
  145.7676  139.2829  143.1339 H   0  0  0  0  0  0  0  0  0  0  0  0  # atno 7974 bound_to 7965
  155.1728  140.3293  155.4389 H   0  0  0  0  0  0  0  0  0  0  0  0  # atno 8008 bound_to 7997
  156.2504  140.1940  156.6780 H   0  0  0  0  0  0  0  0  0  0  0  0  # atno 8009 bound_to 7997
  154.6326  140.0580  156.9736 H   0  0  0  0  0  0  0  0  0  0  0  0  # atno 8010 bound_to 7997
  139.4930  144.5917  151.6667 H   0  0  0  0  0  0  0  0  0  0  0  0  # atno 10167 bound_to 10162
  156.9789  131.0113  151.2886 H   0  0  0  0  0  0  0  0  0  0  0  0  # atno 10718 bound_to 10713
  154.5639  135.5625  153.7032 H   0  0  0  0  0  0  0  0  0  0  0  0  # atno 10763 bound_to 10752
  153.0026  135.6280  154.2207 H   0  0  0  0  0  0  0  0  0  0  0  0  # atno 10764 bound_to 10752
  154.2145  135.2872  155.2926 H   0  0  0  0  0  0  0  0  0  0  0  0  # atno 10765 bound_to 10752
  140.4037  134.6754  157.4576 H   0  0  0  0  0  0  0  0  0  0  0  0  # atno 11005 bound_to 11000
  146.0202  140.8355  142.9927 LP  0  0  0  0  0  0  0  0  0  0  0  0  # atno 17320 bound_to 7965
  144.6818  140.2617  143.7318 LP  0  0  0  0  0  0  0  0  0  0  0  0  # atno 17321 bound_to 7965
  140.5545  144.0370  150.6141 LP  0  0  0  0  0  0  0  0  0  0  0  0  # atno 17342 bound_to 10162
  140.3436  143.3005  152.0562 LP  0  0  0  0  0  0  0  0  0  0  0  0  # atno 17343 bound_to 10162
  157.5540  130.8201  149.8181 LP  0  0  0  0  0  0  0  0  0  0  0  0  # atno 17370 bound_to 10713
  156.0252  130.3782  150.1843 LP  0  0  0  0  0  0  0  0  0  0  0  0  # atno 17371 bound_to 10713
  140.0317  134.6396  155.9097 LP  0  0  0  0  0  0  0  0  0  0  0  0  # atno 17394 bound_to 11000
  141.1847  133.6553  156.5168 LP  0  0  0  0  0  0  0  0  0  0  0  0  # atno 17395 bound_to 11000

$$$$
