AV-unprocessed.smi:3335|AV-procd|sdf|12840|dock4
  -GOLD-   2272019223D 1   1.00000     0.00000
 Structure written by MMmdl.
 47 48  0  0  0  0  0  0  0  0  2 V2000
  152.3738  138.5510  154.2443 C   0  0  0  0  0  0  0  0  0  0  0  0
  150.8783  138.4254  154.2796 C   0  0  0  0  0  0  0  0  0  0  0  0
  150.1022  137.3364  154.7665 C   0  0  0  0  0  0  0  0  0  0  0  0
  148.8008  137.5486  154.6638 N   0  0  0  0  0  0  0  0  0  0  0  0
  148.6942  138.7710  154.0954 N   0  0  0  0  0  0  0  0  0  0  0  0
  147.3871  139.3799  153.8574 C   0  0  1  0  0  0  0  0  0  0  0  0
  147.5033  140.8676  153.4693 C   0  0  0  0  0  0  0  0  0  0  0  0
  146.5208  138.5614  152.8619 C   0  0  1  0  0  0  0  0  0  0  0  0
  146.7091  138.9756  151.3865 C   0  0  0  0  0  0  0  0  0  0  0  0
  146.8025  137.1163  153.0544 N   0  3  0  0  0  0  0  0  0  0  0  0
  145.6689  136.1617  152.9722 C   0  0  2  0  0  0  0  0  0  0  0  0
  144.7704  136.2414  154.2217 C   0  0  0  0  0  0  0  0  0  0  0  0
  146.2108  134.7287  152.8093 C   0  0  0  0  0  0  0  0  0  0  0  0
  147.0197  134.3022  153.6356 O   0  0  0  0  0  0  0  0  0  0  0  0
  145.7805  133.9682  151.7789 N   0  0  0  0  0  0  0  0  0  0  0  0
  146.1872  132.5941  151.4811 C   0  0  0  0  0  0  0  0  0  0  0  0
  145.6234  132.2864  150.0939 C   0  0  0  0  0  0  0  0  0  0  0  0
  144.4199  133.2091  149.9707 C   0  0  0  0  0  0  0  0  0  0  0  0
  144.8098  134.4382  150.7911 C   0  0  0  0  0  0  0  0  0  0  0  0
  149.9376  139.3220  153.8601 C   0  0  0  0  0  0  0  0  0  0  0  0
  152.8626  137.7293  154.7682 H   0  0  0  0  0  0  0  0  0  0  0  0
  152.7113  139.4753  154.7136 H   0  0  0  0  0  0  0  0  0  0  0  0
  152.7530  138.5515  153.2224 H   0  0  0  0  0  0  0  0  0  0  0  0
  150.4446  136.4067  155.1965 H   0  0  0  0  0  0  0  0  0  0  0  0
  146.8686  139.3718  154.8180 H   0  0  0  0  0  0  0  0  0  0  0  0
  146.5183  141.3275  153.3868 H   0  0  0  0  0  0  0  0  0  0  0  0
  148.0127  141.0111  152.5166 H   0  0  0  0  0  0  0  0  0  0  0  0
  148.0591  141.4236  154.2250 H   0  0  0  0  0  0  0  0  0  0  0  0
  145.4806  138.7372  153.1338 H   0  0  0  0  0  0  0  0  0  0  0  0
  146.6140  140.0535  151.2594 H   0  0  0  0  0  0  0  0  0  0  0  0
  145.9566  138.5238  150.7415 H   0  0  0  0  0  0  0  0  0  0  0  0
  147.6877  138.6823  151.0057 H   0  0  0  0  0  0  0  0  0  0  0  0
  147.4831  136.8456  152.3585 H   0  0  0  0  0  0  0  0  0  0  0  0
  145.0848  136.4112  152.0890 H   0  0  0  0  0  0  0  0  0  0  0  0
  144.0049  135.4646  154.2151 H   0  0  0  0  0  0  0  0  0  0  0  0
  144.2462  137.1947  154.2806 H   0  0  0  0  0  0  0  0  0  0  0  0
  145.3499  136.1213  155.1377 H   0  0  0  0  0  0  0  0  0  0  0  0
  147.2695  132.4628  151.4994 H   0  0  0  0  0  0  0  0  0  0  0  0
  145.7487  131.9249  152.2228 H   0  0  0  0  0  0  0  0  0  0  0  0
  146.3605  132.5466  149.3331 H   0  0  0  0  0  0  0  0  0  0  0  0
  145.3657  131.2349  149.9640 H   0  0  0  0  0  0  0  0  0  0  0  0
  144.1741  133.4508  148.9361 H   0  0  0  0  0  0  0  0  0  0  0  0
  143.5475  132.7319  150.4192 H   0  0  0  0  0  0  0  0  0  0  0  0
  143.9354  134.8951  151.2574 H   0  0  0  0  0  0  0  0  0  0  0  0
  145.2851  135.1869  150.1553 H   0  0  0  0  0  0  0  0  0  0  0  0
  150.0509  140.3026  153.4216 H   0  0  0  0  0  0  0  0  0  0  0  0
  147.2264  136.9980  153.9636 H   0  0  0  0  0  0  0  0  0  0  0  0
  1  2  1  0  0  0  0
  1 21  1  0  0  0  0
  1 22  1  0  0  0  0
  1 23  1  0  0  0  0
  2 20  2  0  0  0  0
  2  3  1  0  0  0  0
  3  4  2  0  0  0  0
  3 24  1  0  0  0  0
  4  5  1  0  0  0  0
  5  6  1  0  0  0  0
  5 20  1  0  0  0  0
  6  7  1  0  0  0  0
  6  8  1  0  0  0  0
  6 25  1  0  0  0  0
  7 26  1  0  0  0  0
  7 27  1  0  0  0  0
  7 28  1  0  0  0  0
  8  9  1  0  0  0  0
  8 10  1  0  0  0  0
  8 29  1  0  0  0  0
  9 30  1  0  0  0  0
  9 31  1  0  0  0  0
  9 32  1  0  0  0  0
 10 11  1  0  0  0  0
 10 33  1  0  0  0  0
 10 47  1  0  0  0  0
 11 12  1  0  0  0  0
 11 13  1  0  0  0  0
 11 34  1  0  0  0  0
 12 35  1  0  0  0  0
 12 36  1  0  0  0  0
 12 37  1  0  0  0  0
 13 14  2  0  0  0  0
 13 15  1  0  0  0  0
 15 19  1  0  0  0  0
 15 16  1  0  0  0  0
 16 17  1  0  0  0  0
 16 38  1  0  0  0  0
 16 39  1  0  0  0  0
 17 18  1  0  0  0  0
 17 40  1  0  0  0  0
 17 41  1  0  0  0  0
 18 19  1  0  0  0  0
 18 42  1  0  0  0  0
 18 43  1  0  0  0  0
 19 44  1  0  0  0  0
 19 45  1  0  0  0  0
 20 46  1  0  0  0  0
M  CHG  1  10   1
M  END
> <s_m_source_file>
AV-unprocessed.smi

> <i_m_source_file_index>
3335

> <i_lp_mmshare_version>
43012

> <i_f3d_flags>
0

> <s_epik_input>
W0NIM11jMVtjSF1ubihbY0hdMSlbQ0BIXShbQ0gzXSlbQ0BIXShbQ0gzXSlbTkhdW0NASF0oW0NIM10pQyg9TylOMltDSDJdW0NIMl1bQ0gyXVtDSDJdMg==

> <s_epik_cmdline>
J2VwaWtfcHl0aG9uJywgJy1waCcsICc3LjAnLCAnLXRuJywgJzgnLCAnLW1hJywgJzIwMCcsICctbWV0YWxfYmluZGluZycsICctaW1hZScsICc8aW5maWxlLm1hZT4nLCAnLW9tYWUnLCAnPG91dGZpbGUubWFlPic=

> <r_lp_tautomer_probability>
1

> <r_epik_Ionization_Penalty>
0.14175

> <r_epik_Ionization_Penalty_Charging>
0.141731

> <r_epik_Ionization_Penalty_Neutral>
1.91261e-05

> <r_epik_State_Penalty>
0.131043

> <r_epik_Charging_Adjusted_Penalty>
0.272773

> <i_epik_Tot_Q>
1

> <i_epik_Tot_abs_Q>
1

> <r_epik_Metal_State_Penalty>
0.131408

> <b_epik_Metal_Only>
0

> <s_lp_Force_Field>
OPLS_2005

> <r_lp_Energy>
37.3946

> <b_lp_Chiralities_Consistent>
1

> <s_lp_Variant>
AV-unprocessed.smi:3335-4

> <Gold.Version>
5.8.1

> <Gold.Id.Protein>
6NUR|6NUR_protein|mol2

> <Gold.PLP.Fitness>
41.6393

> <Gold.PLP.PLP>
-36.3384

> <Gold.PLP.part.hbond>
-1.0000

> <Gold.PLP.part.metal>
0.0000

> <Gold.PLP.part.buried>
-1.0383

> <Gold.PLP.part.nonpolar>
-34.3369

> <Gold.PLP.part.repulsive>
0.2528

> <Gold.PLP.ligand.clash>
0.0000

> <Gold.PLP.ligand.torsion>
1.3099

> <Gold.PLP.Chemscore.Hbond>
2.0000

> <Gold.PLP.Chemscore.CHOScore>
0.5494

> <Gold.PLP.Chemscore.Metal>
0.0000

> <Gold.Chemscore.Hbonds>
donor molecule, donor type, donor heavy atom, donor atom, acceptor molecule, acceptor atom, score
      L1  H    10    33       P1  7948  2.00
      L1  C    20    46       P1  7957  0.52

> <Gold.PLP.Chemscore.Internal.Correction>
0.2726

> <Gold.Rescore>
     Score         DG    S(hbond)    S(metal)    S(lipo)     H(rot)  DE(clash)    DE(int)     intcor
     13.72     -15.15       0.99        0.00      91.06       1.68       0.33       1.11       ----

> <Gold.Chemscore.Fitness>
13.7196

> <Gold.Chemscore.DG>
-15.1529

> <Gold.Chemscore.ZeroCoef>
-5.4800

> <Gold.Chemscore.Hbond>
0.9923

> <Gold.Chemscore.Metal>
0.0000

> <Gold.Chemscore.Lipo>
91.0577

> <Gold.Chemscore.Internal_Hbond>
0.0000

> <Gold.Chemscore.DEClash>
0.3252

> <Gold.Chemscore.DEInternal>
1.1082

> <Gold.Chemscore.Rot>
1.6778

> <Gold.Chemscore.Internal.Correction>
   9.000000E+99

> <Gold.Chemscore.Hbonds>
donor molecule, donor type, donor heavy atom, donor atom, acceptor molecule, acceptor atom, score
      L1  H    10    33       P1  7948  0.98

> <Gold.Chemscore.Hbond.Weighted>
-3.3143

> <Gold.Chemscore.Metal.Weighted>
-0.0000

> <Gold.Chemscore.Lipo.Weighted>
-10.6537

> <Gold.Chemscore.Internal_Hbond.Weighted>
0.0000

> <Gold.Chemscore.DEClash.Weighted>
0.3252

> <Gold.Chemscore.DEInternal.Weighted>
1.1082

> <Gold.Chemscore.Rot.Weighted>
4.2952

> <Gold.Chemscore.Internal.Correction.Weighted>
   9.000000E+99

> <Gold.Protein.RotatedTorsions>
[ 6907 6896 6895 6894 ] final  120.64 input  -60.11 | X-H torsion
[ 7974 7965 7964 7962 ] final -126.94 input  175.53 | X-H torsion
[ 8008 7997 7996 7995 ] final   14.05 input   59.86 | X-H torsion
[ 10167 10162 10161 10158 ] final   18.17 input  -65.29 | X-H torsion
[ 10718 10713 10712 10709 ] final -122.00 input   66.30 | X-H torsion
[ 10763 10752 10751 10750 ] final  170.20 input  -60.55 | X-H torsion
[ 11005 11000 10999 10996 ] final  -98.34 input  -57.11 | X-H torsion

> <Gold.Protein.ActiveResidues>
 VAL166  LYS551  ARG553  GLY616  TRP617  ASP618  TYR619  PRO620  LYS621  CYS622 
 ASP623  PHE694  ASN695  SER759  ASP760  ASP761  ALA762  ILE779  LEU786  VAL792 
 PHE793  MET794  SER795  GLU796  ALA797  LYS798  CYS799  TRP800  GLU811  SER814 

> <Gold.Protein.RotatedAtoms>
  152.4383  133.7401  159.6635 H   0  0  0  0  0  0  0  0  0  0  0  0  # atno 6907 bound_to 6896
  150.8270  133.8145  159.3121 H   0  0  0  0  0  0  0  0  0  0  0  0  # atno 6908 bound_to 6896
  151.5811  135.1061  160.0069 H   0  0  0  0  0  0  0  0  0  0  0  0  # atno 6909 bound_to 6896
  144.9821  140.7650  143.4606 H   0  0  0  0  0  0  0  0  0  0  0  0  # atno 7974 bound_to 7965
  154.8430  140.2917  155.5647 H   0  0  0  0  0  0  0  0  0  0  0  0  # atno 8008 bound_to 7997
  156.3013  140.2510  156.3308 H   0  0  0  0  0  0  0  0  0  0  0  0  # atno 8009 bound_to 7997
  154.9104  140.0388  157.1932 H   0  0  0  0  0  0  0  0  0  0  0  0  # atno 8010 bound_to 7997
  140.5672  143.9228  150.6686 H   0  0  0  0  0  0  0  0  0  0  0  0  # atno 10167 bound_to 10162
  156.1382  130.6446  150.9730 H   0  0  0  0  0  0  0  0  0  0  0  0  # atno 10718 bound_to 10713
  154.3942  135.2754  155.2136 H   0  0  0  0  0  0  0  0  0  0  0  0  # atno 10763 bound_to 10752
  154.4190  135.6004  153.6002 H   0  0  0  0  0  0  0  0  0  0  0  0  # atno 10764 bound_to 10752
  152.9831  135.5968  154.4200 H   0  0  0  0  0  0  0  0  0  0  0  0  # atno 10765 bound_to 10752
  141.1348  133.8238  157.0826 H   0  0  0  0  0  0  0  0  0  0  0  0  # atno 11005 bound_to 11000
  145.2406  139.2074  143.4995 LP  0  0  0  0  0  0  0  0  0  0  0  0  # atno 17320 bound_to 7965
  146.3411  140.2300  142.8593 LP  0  0  0  0  0  0  0  0  0  0  0  0  # atno 17321 bound_to 7965
  140.2694  143.3467  152.1252 LP  0  0  0  0  0  0  0  0  0  0  0  0  # atno 17342 bound_to 10162
  139.5099  144.6875  151.5848 LP  0  0  0  0  0  0  0  0  0  0  0  0  # atno 17343 bound_to 10162
  157.6552  131.0890  150.7963 LP  0  0  0  0  0  0  0  0  0  0  0  0  # atno 17370 bound_to 10713
  156.8041  130.4931  149.5365 LP  0  0  0  0  0  0  0  0  0  0  0  0  # atno 17371 bound_to 10713
  140.0442  134.9839  157.1018 LP  0  0  0  0  0  0  0  0  0  0  0  0  # atno 17394 bound_to 11000
  140.4089  134.2003  155.7163 LP  0  0  0  0  0  0  0  0  0  0  0  0  # atno 17395 bound_to 11000

$$$$
