AV-unprocessed.smi:322|AV-procd|sdf|2336|dock5
  -GOLD-   2262022243D 1   1.00000     0.00000
 Structure written by MMmdl.
 43 45  0  0  0  0  0  0  0  0  1 V2000
  150.6584  140.0175  154.0292 O   0  0  0  0  0  0  0  0  0  0  0  0
  151.1658  139.2736  155.1186 C   0  0  0  0  0  0  0  0  0  0  0  0
  151.5009  140.1096  156.3216 C   0  0  0  0  0  0  0  0  0  0  0  0
  151.2517  141.4196  156.3869 N   0  0  0  0  0  0  0  0  0  0  0  0
  151.7005  141.7554  157.6490 C   0  0  0  0  0  0  0  0  0  0  0  0
  151.7160  143.0002  158.3180 C   0  0  0  0  0  0  0  0  0  0  0  0
  152.2327  143.1009  159.6264 C   0  0  0  0  0  0  0  0  0  0  0  0
  152.7398  141.9612  160.2833 C   0  0  0  0  0  0  0  0  0  0  0  0
  152.7332  140.7114  159.6349 C   0  0  0  0  0  0  0  0  0  0  0  0
  152.2165  140.6163  158.3286 C   0  0  0  0  0  0  0  0  0  0  0  0
  152.0672  139.5658  157.4283 N   0  0  0  0  0  0  0  0  0  0  0  0
  152.4441  138.1774  157.6553 C   0  0  0  0  0  0  0  0  0  0  0  0
  151.2241  137.2361  157.7359 C   0  0  1  0  0  0  0  0  0  0  0  0
  151.6135  135.8940  157.9496 O   0  0  0  0  0  0  0  0  0  0  0  0
  150.2062  137.6431  158.8136 C   0  0  0  0  0  0  0  0  0  0  0  0
  149.6982  136.4875  159.4612 O   0  0  0  0  0  0  0  0  0  0  0  0
  148.4426  136.7050  160.0831 C   0  0  0  0  0  0  0  0  0  0  0  0
  147.7562  135.4030  160.4510 C   0  0  0  0  0  0  0  0  0  0  0  0
  147.2517  135.2022  161.7542 C   0  0  0  0  0  0  0  0  0  0  0  0
  146.6022  133.9969  162.0849 C   0  0  0  0  0  0  0  0  0  0  0  0
  146.4482  132.9896  161.1127 C   0  0  0  0  0  0  0  0  0  0  0  0
  145.6535  131.5127  161.5178 Cl  0  0  0  0  0  0  0  0  0  0  0  0
  146.9410  133.1899  159.8085 C   0  0  0  0  0  0  0  0  0  0  0  0
  147.5902  134.3953  159.4776 C   0  0  0  0  0  0  0  0  0  0  0  0
  149.7703  139.7409  153.8630 H   0  0  0  0  0  0  0  0  0  0  0  0
  150.4294  138.5228  155.4062 H   0  0  0  0  0  0  0  0  0  0  0  0
  152.0548  138.7444  154.7774 H   0  0  0  0  0  0  0  0  0  0  0  0
  151.3296  143.8788  157.8233 H   0  0  0  0  0  0  0  0  0  0  0  0
  152.2404  144.0574  160.1281 H   0  0  0  0  0  0  0  0  0  0  0  0
  153.1343  142.0467  161.2852 H   0  0  0  0  0  0  0  0  0  0  0  0
  153.1233  139.8368  160.1344 H   0  0  0  0  0  0  0  0  0  0  0  0
  153.1116  137.8697  156.8493 H   0  0  0  0  0  0  0  0  0  0  0  0
  153.0326  138.1151  158.5710 H   0  0  0  0  0  0  0  0  0  0  0  0
  150.7085  137.2464  156.7755 H   0  0  0  0  0  0  0  0  0  0  0  0
  151.0724  135.5301  158.6339 H   0  0  0  0  0  0  0  0  0  0  0  0
  150.7027  138.2727  159.5537 H   0  0  0  0  0  0  0  0  0  0  0  0
  149.3975  138.2338  158.3798 H   0  0  0  0  0  0  0  0  0  0  0  0
  148.5735  137.2931  160.9924 H   0  0  0  0  0  0  0  0  0  0  0  0
  147.7973  137.2763  159.4135 H   0  0  0  0  0  0  0  0  0  0  0  0
  147.3602  135.9707  162.5057 H   0  0  0  0  0  0  0  0  0  0  0  0
  146.2209  133.8477  163.0843 H   0  0  0  0  0  0  0  0  0  0  0  0
  146.8205  132.4206  159.0600 H   0  0  0  0  0  0  0  0  0  0  0  0
  147.9618  134.5429  158.4741 H   0  0  0  0  0  0  0  0  0  0  0  0
  1  2  1  0  0  0  0
  1 25  1  0  0  0  0
  2  3  1  0  0  0  0
  2 26  1  0  0  0  0
  2 27  1  0  0  0  0
  3 11  1  0  0  0  0
  3  4  2  0  0  0  0
  4  5  1  0  0  0  0
  5 10  2  0  0  0  0
  5  6  1  0  0  0  0
  6  7  2  0  0  0  0
  6 28  1  0  0  0  0
  7  8  1  0  0  0  0
  7 29  1  0  0  0  0
  8  9  2  0  0  0  0
  8 30  1  0  0  0  0
  9 10  1  0  0  0  0
  9 31  1  0  0  0  0
 10 11  1  0  0  0  0
 11 12  1  0  0  0  0
 12 13  1  0  0  0  0
 12 32  1  0  0  0  0
 12 33  1  0  0  0  0
 13 14  1  0  0  0  0
 13 15  1  0  0  0  0
 13 34  1  0  0  0  0
 14 35  1  0  0  0  0
 15 16  1  0  0  0  0
 15 36  1  0  0  0  0
 15 37  1  0  0  0  0
 16 17  1  0  0  0  0
 17 18  1  0  0  0  0
 17 38  1  0  0  0  0
 17 39  1  0  0  0  0
 18 24  1  0  0  0  0
 18 19  2  0  0  0  0
 19 20  1  0  0  0  0
 19 40  1  0  0  0  0
 20 21  2  0  0  0  0
 20 41  1  0  0  0  0
 21 22  1  0  0  0  0
 21 23  1  0  0  0  0
 23 24  2  0  0  0  0
 23 42  1  0  0  0  0
 24 43  1  0  0  0  0
M  END
> <s_m_source_file>
AV-unprocessed.smi

> <i_m_source_file_index>
322

> <i_lp_mmshare_version>
43012

> <i_f3d_flags>
0

> <s_epik_input>
W2NIXTFbY0hdW2NIXVtjSF1jKGMxMiluKGMobjIpW0NIMl1bT0hdKVtDSDJdW0NASF0oW09IXSlbQ0gyXU9bQ0gyXWMzW2NIXVtjSF1jKENsKVtjSF1bY0hdMw==

> <s_epik_cmdline>
J2VwaWtfcHl0aG9uJywgJy1waCcsICc3LjAnLCAnLXRuJywgJzgnLCAnLW1hJywgJzIwMCcsICctbWV0YWxfYmluZGluZycsICctaW1hZScsICc8aW5maWxlLm1hZT4nLCAnLW9tYWUnLCAnPG91dGZpbGUubWFlPic=

> <r_epik_Ionization_Penalty>
0.0649918

> <r_epik_Ionization_Penalty_Charging>
0

> <r_epik_Ionization_Penalty_Neutral>
0.0649918

> <r_epik_State_Penalty>
0.0565791

> <r_epik_Charging_Adjusted_Penalty>
0.0565791

> <i_epik_Tot_Q>
0

> <i_epik_Tot_abs_Q>
0

> <r_epik_Metal_State_Penalty>
5.93658e-05

> <b_epik_Metal_Only>
0

> <s_lp_Force_Field>
OPLS_2005

> <r_lp_Energy>
15.9671

> <b_lp_Chiralities_Consistent>
1

> <s_lp_Variant>
AV-unprocessed.smi:322-2

> <Gold.Version>
5.8.1

> <Gold.Id.Protein>
6NUR|6NUR_protein|mol2

> <Gold.PLP.Fitness>
51.0245

> <Gold.PLP.PLP>
-46.7311

> <Gold.PLP.part.hbond>
-4.0000

> <Gold.PLP.part.metal>
0.0000

> <Gold.PLP.part.buried>
-5.5063

> <Gold.PLP.part.nonpolar>
-38.4684

> <Gold.PLP.part.repulsive>
0.0579

> <Gold.PLP.ligand.clash>
0.0000

> <Gold.PLP.ligand.torsion>
0.9049

> <Gold.PLP.Chemscore.Hbond>
1.9920

> <Gold.PLP.Chemscore.CHOScore>
0.0000

> <Gold.PLP.Chemscore.Metal>
0.0000

> <Gold.Chemscore.Hbonds>
donor molecule, donor type, donor heavy atom, donor atom, acceptor molecule, acceptor atom, score
      P1  H  6896  6908       L1    16  1.00
      P1  H  7989  7998       L1     1  0.65

> <Gold.PLP.Chemscore.Internal.Correction>
0.1272

> <Gold.Rescore>
     Score         DG    S(hbond)    S(metal)    S(lipo)     H(rot)  DE(clash)    DE(int)     intcor
     16.51     -19.40       1.93        0.00     132.61       3.13       1.56       1.33       ----

> <Gold.Chemscore.Fitness>
16.5080

> <Gold.Chemscore.DG>
-19.4037

> <Gold.Chemscore.ZeroCoef>
-5.4800

> <Gold.Chemscore.Hbond>
1.9255

> <Gold.Chemscore.Metal>
0.0000

> <Gold.Chemscore.Lipo>
132.6059

> <Gold.Chemscore.Internal_Hbond>
0.0000

> <Gold.Chemscore.DEClash>
1.5608

> <Gold.Chemscore.DEInternal>
1.3350

> <Gold.Chemscore.Rot>
3.1337

> <Gold.Chemscore.Internal.Correction>
   9.000000E+99

> <Gold.Chemscore.Hbonds>
donor molecule, donor type, donor heavy atom, donor atom, acceptor molecule, acceptor atom, score
      P1  H  6896  6908       L1    16  0.95
      P1  H  7989  7998       L1     1  0.53

> <Gold.Chemscore.Hbond.Weighted>
-6.4312

> <Gold.Chemscore.Metal.Weighted>
-0.0000

> <Gold.Chemscore.Lipo.Weighted>
-15.5149

> <Gold.Chemscore.Internal_Hbond.Weighted>
0.0000

> <Gold.Chemscore.DEClash.Weighted>
1.5608

> <Gold.Chemscore.DEInternal.Weighted>
1.3350

> <Gold.Chemscore.Rot.Weighted>
8.0224

> <Gold.Chemscore.Internal.Correction.Weighted>
   9.000000E+99

> <Gold.Protein.RotatedTorsions>
[ 6907 6896 6895 6894 ] final -168.90 input  -60.11 | X-H torsion
[ 7974 7965 7964 7962 ] final -111.18 input  175.53 | X-H torsion
[ 8008 7997 7996 7995 ] final  -57.00 input   59.86 | X-H torsion
[ 10167 10162 10161 10158 ] final -103.43 input  -65.29 | X-H torsion
[ 10718 10713 10712 10709 ] final -124.68 input   66.30 | X-H torsion
[ 10763 10752 10751 10750 ] final   57.06 input  -60.55 | X-H torsion
[ 11005 11000 10999 10996 ] final   34.51 input  -57.11 | X-H torsion

> <Gold.Protein.ActiveResidues>
 VAL166  LYS551  ARG553  GLY616  TRP617  ASP618  TYR619  PRO620  LYS621  CYS622 
 ASP623  PHE694  ASN695  SER759  ASP760  ASP761  ALA762  ILE779  LEU786  VAL792 
 PHE793  MET794  SER795  GLU796  ALA797  LYS798  CYS799  TRP800  GLU811  SER814 

> <Gold.Protein.RotatedAtoms>
  151.4830  133.3542  159.2840 H   0  0  0  0  0  0  0  0  0  0  0  0  # atno 6907 bound_to 6896
  150.8884  134.8287  159.7287 H   0  0  0  0  0  0  0  0  0  0  0  0  # atno 6908 bound_to 6896
  152.4808  134.4737  159.9695 H   0  0  0  0  0  0  0  0  0  0  0  0  # atno 6909 bound_to 6896
  145.1593  140.8870  143.3600 H   0  0  0  0  0  0  0  0  0  0  0  0  # atno 7974 bound_to 7965
  154.4251  140.1117  156.5727 H   0  0  0  0  0  0  0  0  0  0  0  0  # atno 8008 bound_to 7997
  155.6195  140.3495  155.4628 H   0  0  0  0  0  0  0  0  0  0  0  0  # atno 8009 bound_to 7997
  156.0035  140.1204  157.0514 H   0  0  0  0  0  0  0  0  0  0  0  0  # atno 8010 bound_to 7997
  140.2201  143.3682  152.0977 H   0  0  0  0  0  0  0  0  0  0  0  0  # atno 10167 bound_to 10162
  156.1609  130.6601  151.0048 H   0  0  0  0  0  0  0  0  0  0  0  0  # atno 10718 bound_to 10713
  152.9843  135.5655  154.5330 H   0  0  0  0  0  0  0  0  0  0  0  0  # atno 10763 bound_to 10752
  154.4798  135.2788  155.1581 H   0  0  0  0  0  0  0  0  0  0  0  0  # atno 10764 bound_to 10752
  154.3095  135.6291  153.5512 H   0  0  0  0  0  0  0  0  0  0  0  0  # atno 10765 bound_to 10752
  140.2522  134.3290  155.7886 H   0  0  0  0  0  0  0  0  0  0  0  0  # atno 11005 bound_to 11000
  145.0348  139.3310  143.6006 LP  0  0  0  0  0  0  0  0  0  0  0  0  # atno 17320 bound_to 7965
  146.3484  139.9699  142.8707 LP  0  0  0  0  0  0  0  0  0  0  0  0  # atno 17321 bound_to 7965
  139.5147  144.6952  151.5649 LP  0  0  0  0  0  0  0  0  0  0  0  0  # atno 17342 bound_to 10162
  140.6261  143.9165  150.6566 LP  0  0  0  0  0  0  0  0  0  0  0  0  # atno 17343 bound_to 10162
  157.6732  131.0856  150.7561 LP  0  0  0  0  0  0  0  0  0  0  0  0  # atno 17370 bound_to 10713
  156.7624  130.4803  149.5434 LP  0  0  0  0  0  0  0  0  0  0  0  0  # atno 17371 bound_to 10713
  141.2200  133.7360  156.9054 LP  0  0  0  0  0  0  0  0  0  0  0  0  # atno 17394 bound_to 11000
  140.1547  134.9206  157.2638 LP  0  0  0  0  0  0  0  0  0  0  0  0  # atno 17395 bound_to 11000

$$$$
