AV-unprocessed.smi:1120|AV-procd|sdf|4820|dock6
  -GOLD-   22720 3373D 1   1.00000     0.00000
 Structure written by MMmdl.
 49 50  0  0  0  0  0  0  0  0  2 V2000
  144.2066  133.4109  150.3053 C   0  0  0  0  0  0  0  0  0  0  0  0
  144.3080  134.8372  150.8642 C   0  0  2  0  0  0  0  0  0  0  0  0
  145.7501  135.3745  150.7815 C   0  0  0  0  0  0  0  0  0  0  0  0
  145.8560  136.8026  151.3407 C   0  0  0  0  0  0  0  0  0  0  0  0
  145.3282  136.8759  152.7834 C   0  0  1  0  0  0  0  0  0  0  0  0
  145.3764  138.2596  153.2595 N   0  0  0  0  0  0  0  0  0  0  0  0
  146.4037  138.7338  154.5642 S   0  0  0  0  0  0  0  0  0  0  0  0
  145.8743  139.9995  155.0945 O   0  0  0  0  0  0  0  0  0  0  0  0
  146.5520  137.5635  155.4436 O   0  0  0  0  0  0  0  0  0  0  0  0
  148.0190  139.0762  153.7260 C   0  0  0  0  0  0  0  0  0  0  0  0
  149.1192  139.3444  154.7520 C   0  0  0  0  0  0  0  0  0  0  0  0
  150.1431  138.6619  154.7501 O   0  0  0  0  0  0  0  0  0  0  0  0
  148.8969  140.3378  155.6263 N   0  0  0  0  0  0  0  0  0  0  0  0
  149.8268  140.7597  156.6661 C   0  0  0  0  0  0  0  0  0  0  0  0
  150.5644  142.0522  156.2772 C   0  0  0  0  0  0  0  0  0  0  0  0
  151.1964  142.7321  157.4756 C   0  0  0  0  0  0  0  0  0  0  0  0
  152.0305  142.0376  158.3782 C   0  0  0  0  0  0  0  0  0  0  0  0
  152.5784  142.7270  159.4801 C   0  0  0  0  0  0  0  0  0  0  0  0
  152.2802  144.0941  159.6568 C   0  0  0  0  0  0  0  0  0  0  0  0
  151.4399  144.7379  158.7258 C   0  0  0  0  0  0  0  0  0  0  0  0
  150.9343  144.0430  157.6830 N   0  3  0  0  0  0  0  0  0  0  0  0
  143.8899  136.3371  152.8794 C   0  0  0  0  0  0  0  0  0  0  0  0
  143.7883  134.9120  152.3131 C   0  0  0  0  0  0  0  0  0  0  0  0
  144.8154  132.7139  150.8820 H   0  0  0  0  0  0  0  0  0  0  0  0
  144.5452  133.3697  149.2698 H   0  0  0  0  0  0  0  0  0  0  0  0
  143.1772  133.0521  150.3291 H   0  0  0  0  0  0  0  0  0  0  0  0
  143.6755  135.4769  150.2469 H   0  0  0  0  0  0  0  0  0  0  0  0
  146.4210  134.7175  151.3365 H   0  0  0  0  0  0  0  0  0  0  0  0
  146.0942  135.3629  149.7468 H   0  0  0  0  0  0  0  0  0  0  0  0
  146.8941  137.1356  151.3052 H   0  0  0  0  0  0  0  0  0  0  0  0
  145.2905  137.4836  150.7029 H   0  0  0  0  0  0  0  0  0  0  0  0
  145.9729  136.2643  153.4159 H   0  0  0  0  0  0  0  0  0  0  0  0
  144.5184  138.8011  153.1608 H   0  0  0  0  0  0  0  0  0  0  0  0
  148.2764  138.2469  153.0680 H   0  0  0  0  0  0  0  0  0  0  0  0
  147.8876  139.9613  153.1030 H   0  0  0  0  0  0  0  0  0  0  0  0
  148.0243  140.8418  155.5608 H   0  0  0  0  0  0  0  0  0  0  0  0
  149.2578  140.9158  157.5829 H   0  0  0  0  0  0  0  0  0  0  0  0
  150.5395  139.9596  156.8735 H   0  0  0  0  0  0  0  0  0  0  0  0
  151.3432  141.8390  155.5437 H   0  0  0  0  0  0  0  0  0  0  0  0
  149.8738  142.7471  155.7970 H   0  0  0  0  0  0  0  0  0  0  0  0
  152.2463  140.9891  158.2311 H   0  0  0  0  0  0  0  0  0  0  0  0
  153.2188  142.2124  160.1816 H   0  0  0  0  0  0  0  0  0  0  0  0
  152.6892  144.6399  160.4945 H   0  0  0  0  0  0  0  0  0  0  0  0
  151.1584  145.7792  158.7829 H   0  0  0  0  0  0  0  0  0  0  0  0
  143.5550  136.3403  153.9167 H   0  0  0  0  0  0  0  0  0  0  0  0
  143.2109  136.9927  152.3323 H   0  0  0  0  0  0  0  0  0  0  0  0
  142.7515  134.5766  152.3554 H   0  0  0  0  0  0  0  0  0  0  0  0
  144.3587  134.2297  152.9452 H   0  0  0  0  0  0  0  0  0  0  0  0
  150.3281  144.5294  157.0222 H   0  0  0  0  0  0  0  0  0  0  0  0
  1  2  1  0  0  0  0
  1 24  1  0  0  0  0
  1 25  1  0  0  0  0
  1 26  1  0  0  0  0
  2 23  1  0  0  0  0
  2  3  1  0  0  0  0
  2 27  1  0  0  0  0
  3  4  1  0  0  0  0
  3 28  1  0  0  0  0
  3 29  1  0  0  0  0
  4  5  1  0  0  0  0
  4 30  1  0  0  0  0
  4 31  1  0  0  0  0
  5  6  1  0  0  0  0
  5 22  1  0  0  0  0
  5 32  1  0  0  0  0
  6  7  1  0  0  0  0
  6 33  1  0  0  0  0
  7  8  2  0  0  0  0
  7  9  2  0  0  0  0
  7 10  1  0  0  0  0
 10 11  1  0  0  0  0
 10 34  1  0  0  0  0
 10 35  1  0  0  0  0
 11 12  2  0  0  0  0
 11 13  1  0  0  0  0
 13 14  1  0  0  0  0
 13 36  1  0  0  0  0
 14 15  1  0  0  0  0
 14 37  1  0  0  0  0
 14 38  1  0  0  0  0
 15 16  1  0  0  0  0
 15 39  1  0  0  0  0
 15 40  1  0  0  0  0
 16 21  1  0  0  0  0
 16 17  2  0  0  0  0
 17 18  1  0  0  0  0
 17 41  1  0  0  0  0
 18 19  2  0  0  0  0
 18 42  1  0  0  0  0
 19 20  1  0  0  0  0
 19 43  1  0  0  0  0
 20 21  2  0  0  0  0
 20 44  1  0  0  0  0
 21 49  1  0  0  0  0
 22 23  1  0  0  0  0
 22 45  1  0  0  0  0
 22 46  1  0  0  0  0
 23 47  1  0  0  0  0
 23 48  1  0  0  0  0
M  CHG  1  21   1
M  END
> <s_m_source_file>
AV-unprocessed.smi

> <i_m_source_file_index>
1120

> <i_lp_mmshare_version>
43012

> <i_f3d_flags>
0

> <s_epik_input>
W0NIM11bQ0BASF0xW0NIMl1bQ0gyXVtDQEhdKFtDSDJdW0NIMl0xKVtOSF1TKD1PKSg9TylbQ0gyXUMoPU8pW05IXVtDSDJdW0NIMl1jMltjSF1bY0hdW2NIXVtjSF1uMg==

> <s_epik_cmdline>
J2VwaWtfcHl0aG9uJywgJy1waCcsICc3LjAnLCAnLXRuJywgJzgnLCAnLW1hJywgJzIwMCcsICctbWV0YWxfYmluZGluZycsICctaW1hZScsICc8aW5maWxlLm1hZT4nLCAnLW9tYWUnLCAnPG91dGZpbGUubWFlPic=

> <r_epik_Ionization_Penalty>
1.97387

> <r_epik_Ionization_Penalty_Charging>
1.97382

> <r_epik_Ionization_Penalty_Neutral>
4.57635e-05

> <r_epik_State_Penalty>
2.10057

> <r_epik_Charging_Adjusted_Penalty>
4.07439

> <i_epik_Tot_Q>
1

> <i_epik_Tot_abs_Q>
1

> <r_epik_Metal_State_Penalty>
2.15877

> <b_epik_Metal_Only>
0

> <s_lp_Force_Field>
OPLS_2005

> <r_lp_Energy>
9.01473

> <b_lp_Chiralities_Consistent>
1

> <s_lp_Variant>
AV-unprocessed.smi:1120-3

> <Gold.Version>
5.8.1

> <Gold.Id.Protein>
6NUR|6NUR_protein|mol2

> <Gold.PLP.Fitness>
49.7526

> <Gold.PLP.PLP>
-41.3832

> <Gold.PLP.part.hbond>
-2.0000

> <Gold.PLP.part.metal>
0.0000

> <Gold.PLP.part.buried>
-3.7248

> <Gold.PLP.part.nonpolar>
-35.9343

> <Gold.PLP.part.repulsive>
0.3311

> <Gold.PLP.ligand.clash>
0.0000

> <Gold.PLP.ligand.torsion>
0.9048

> <Gold.PLP.Chemscore.Hbond>
3.0000

> <Gold.PLP.Chemscore.CHOScore>
0.0000

> <Gold.PLP.Chemscore.Metal>
0.0000

> <Gold.Chemscore.Hbonds>
donor molecule, donor type, donor heavy atom, donor atom, acceptor molecule, acceptor atom, score
      L1  H     6    33       P1 10175  0.94
      L1  H    21    49       P1  8028  2.00

> <Gold.PLP.Chemscore.Internal.Correction>
1.1791

> <Gold.Rescore>
     Score         DG    S(hbond)    S(metal)    S(lipo)     H(rot)  DE(clash)    DE(int)     intcor
     18.95     -19.87       1.93        0.00     112.70       2.05       0.08       0.85       ----

> <Gold.Chemscore.Fitness>
18.9468

> <Gold.Chemscore.DG>
-19.8683

> <Gold.Chemscore.ZeroCoef>
-5.4800

> <Gold.Chemscore.Hbond>
1.9283

> <Gold.Chemscore.Metal>
0.0000

> <Gold.Chemscore.Lipo>
112.7047

> <Gold.Chemscore.Internal_Hbond>
0.0000

> <Gold.Chemscore.DEClash>
0.0765

> <Gold.Chemscore.DEInternal>
0.8450

> <Gold.Chemscore.Rot>
2.0463

> <Gold.Chemscore.Internal.Correction>
   9.000000E+99

> <Gold.Chemscore.Hbonds>
donor molecule, donor type, donor heavy atom, donor atom, acceptor molecule, acceptor atom, score
      L1  H     6    33       P1 10175  0.89
      L1  H    21    49       P1  8028  0.73

> <Gold.Chemscore.Hbond.Weighted>
-6.4405

> <Gold.Chemscore.Metal.Weighted>
-0.0000

> <Gold.Chemscore.Lipo.Weighted>
-13.1864

> <Gold.Chemscore.Internal_Hbond.Weighted>
0.0000

> <Gold.Chemscore.DEClash.Weighted>
0.0765

> <Gold.Chemscore.DEInternal.Weighted>
0.8450

> <Gold.Chemscore.Rot.Weighted>
5.2386

> <Gold.Chemscore.Internal.Correction.Weighted>
   9.000000E+99

> <Gold.Protein.RotatedTorsions>
[ 6907 6896 6895 6894 ] final    5.09 input  -60.11 | X-H torsion
[ 7974 7965 7964 7962 ] final  157.07 input  175.53 | X-H torsion
[ 8008 7997 7996 7995 ] final   27.21 input   59.86 | X-H torsion
[ 10167 10162 10161 10158 ] final  -83.83 input  -65.29 | X-H torsion
[ 10718 10713 10712 10709 ] final   71.08 input   66.30 | X-H torsion
[ 10763 10752 10751 10750 ] final  179.39 input  -60.55 | X-H torsion
[ 11005 11000 10999 10996 ] final -130.27 input  -57.11 | X-H torsion

> <Gold.Protein.ActiveResidues>
 VAL166  LYS551  ARG553  GLY616  TRP617  ASP618  TYR619  PRO620  LYS621  CYS622 
 ASP623  PHE694  ASN695  SER759  ASP760  ASP761  ALA762  ILE779  LEU786  VAL792 
 PHE793  MET794  SER795  GLU796  ALA797  LYS798  CYS799  TRP800  GLU811  SER814 

> <Gold.Protein.RotatedAtoms>
  151.6519  135.1000  160.0162 H   0  0  0  0  0  0  0  0  0  0  0  0  # atno 6907 bound_to 6896
  152.3996  133.6793  159.6313 H   0  0  0  0  0  0  0  0  0  0  0  0  # atno 6908 bound_to 6896
  150.7898  133.8731  159.3305 H   0  0  0  0  0  0  0  0  0  0  0  0  # atno 6909 bound_to 6896
  144.7925  139.7290  143.6215 H   0  0  0  0  0  0  0  0  0  0  0  0  # atno 7974 bound_to 7965
  155.0394  140.3167  155.4730 H   0  0  0  0  0  0  0  0  0  0  0  0  # atno 8008 bound_to 7997
  156.2858  140.2166  156.5460 H   0  0  0  0  0  0  0  0  0  0  0  0  # atno 8009 bound_to 7997
  154.7303  140.0482  157.0708 H   0  0  0  0  0  0  0  0  0  0  0  0  # atno 8010 bound_to 7997
  140.4189  143.2592  151.8917 H   0  0  0  0  0  0  0  0  0  0  0  0  # atno 10167 bound_to 10162
  157.6433  130.9510  150.0739 H   0  0  0  0  0  0  0  0  0  0  0  0  # atno 10718 bound_to 10713
  154.5201  135.2793  155.1270 H   0  0  0  0  0  0  0  0  0  0  0  0  # atno 10763 bound_to 10752
  154.2831  135.6281  153.5358 H   0  0  0  0  0  0  0  0  0  0  0  0  # atno 10764 bound_to 10752
  152.9935  135.5656  154.5688 H   0  0  0  0  0  0  0  0  0  0  0  0  # atno 10765 bound_to 10752
  140.9360  134.1256  157.4193 H   0  0  0  0  0  0  0  0  0  0  0  0  # atno 11005 bound_to 11000
  146.2182  139.5587  142.9636 LP  0  0  0  0  0  0  0  0  0  0  0  0  # atno 17320 bound_to 7965
  145.5758  141.0388  143.2149 LP  0  0  0  0  0  0  0  0  0  0  0  0  # atno 17321 bound_to 7965
  139.4782  144.5458  151.8460 LP  0  0  0  0  0  0  0  0  0  0  0  0  # atno 17342 bound_to 10162
  140.4555  144.1795  150.5901 LP  0  0  0  0  0  0  0  0  0  0  0  0  # atno 17343 bound_to 10162
  156.1735  130.3647  149.9132 LP  0  0  0  0  0  0  0  0  0  0  0  0  # atno 17370 bound_to 10713
  156.7102  130.8967  151.3608 LP  0  0  0  0  0  0  0  0  0  0  0  0  # atno 17371 bound_to 10713
  139.8808  135.0021  156.6107 LP  0  0  0  0  0  0  0  0  0  0  0  0  # atno 17394 bound_to 11000
  140.7798  133.8669  155.8558 LP  0  0  0  0  0  0  0  0  0  0  0  0  # atno 17395 bound_to 11000

$$$$
