AV-unprocessed.smi:1866|AV-procd|sdf|7556|dock3
  -GOLD-   22720 9273D 1   1.00000     0.00000
 Structure written by MMmdl.
 30 31  0  0  0  0  0  0  0  0  1 V2000
  142.3227  135.1568  153.2588 C   0  0  0  0  0  0  0  0  0  0  0  0
  143.5639  135.9185  153.5769 C   0  0  0  0  0  0  0  0  0  0  0  0
  143.6800  136.6968  154.6599 N   0  0  0  0  0  0  0  0  0  0  0  0
  144.9255  137.3038  154.7405 N   0  0  0  0  0  0  0  0  0  0  0  0
  145.7145  136.9641  153.7119 C   0  0  0  0  0  0  0  0  0  0  0  0
  147.0413  137.4418  153.5437 N   0  0  0  0  0  0  0  0  0  0  0  0
  147.6605  138.4327  154.2091 C   0  0  0  0  0  0  0  0  0  0  0  0
  147.1596  139.1089  155.1081 O   0  0  0  0  0  0  0  0  0  0  0  0
  148.9155  138.6020  153.7683 N   0  0  0  0  0  0  0  0  0  0  0  0
  149.8755  139.5703  154.2947 C   0  0  2  0  0  0  0  0  0  0  0  0
  150.4880  139.0774  155.6196 C   0  0  0  0  0  0  0  0  0  0  0  0
  151.3394  140.1808  156.2542 C   0  0  0  0  0  0  0  0  0  0  0  0
  150.4931  141.4416  156.4946 C   0  0  0  0  0  0  0  0  0  0  0  0
  149.6565  141.8036  155.3495 N   0  0  0  0  0  0  0  0  0  0  0  0
  149.2733  140.9857  154.3531 C   0  0  0  0  0  0  0  0  0  0  0  0
  148.4915  141.3622  153.4813 O   0  0  0  0  0  0  0  0  0  0  0  0
  144.9912  135.8654  152.5495 S   0  0  0  0  0  0  0  0  0  0  0  0
  141.6580  135.1261  154.1230 H   0  0  0  0  0  0  0  0  0  0  0  0
  142.5736  134.1344  152.9760 H   0  0  0  0  0  0  0  0  0  0  0  0
  141.7975  135.6315  152.4298 H   0  0  0  0  0  0  0  0  0  0  0  0
  147.5831  136.9721  152.8337 H   0  0  0  0  0  0  0  0  0  0  0  0
  149.2465  137.9983  153.0301 H   0  0  0  0  0  0  0  0  0  0  0  0
  150.6910  139.6580  153.5739 H   0  0  0  0  0  0  0  0  0  0  0  0
  149.6976  138.7837  156.3123 H   0  0  0  0  0  0  0  0  0  0  0  0
  151.0985  138.1900  155.4489 H   0  0  0  0  0  0  0  0  0  0  0  0
  151.7750  139.8351  157.1919 H   0  0  0  0  0  0  0  0  0  0  0  0
  152.1738  140.4193  155.5933 H   0  0  0  0  0  0  0  0  0  0  0  0
  149.8340  141.2820  157.3486 H   0  0  0  0  0  0  0  0  0  0  0  0
  151.1365  142.2841  156.7492 H   0  0  0  0  0  0  0  0  0  0  0  0
  149.2818  142.7414  155.3469 H   0  0  0  0  0  0  0  0  0  0  0  0
  1  2  1  0  0  0  0
  1 18  1  0  0  0  0
  1 19  1  0  0  0  0
  1 20  1  0  0  0  0
  2 17  1  0  0  0  0
  2  3  2  0  0  0  0
  3  4  1  0  0  0  0
  4  5  2  0  0  0  0
  5  6  1  0  0  0  0
  5 17  1  0  0  0  0
  6  7  1  0  0  0  0
  6 21  1  0  0  0  0
  7  8  2  0  0  0  0
  7  9  1  0  0  0  0
  9 10  1  0  0  0  0
  9 22  1  0  0  0  0
 10 15  1  0  0  0  0
 10 11  1  0  0  0  0
 10 23  1  0  0  0  0
 11 12  1  0  0  0  0
 11 24  1  0  0  0  0
 11 25  1  0  0  0  0
 12 13  1  0  0  0  0
 12 26  1  0  0  0  0
 12 27  1  0  0  0  0
 13 14  1  0  0  0  0
 13 28  1  0  0  0  0
 13 29  1  0  0  0  0
 14 15  1  0  0  0  0
 14 30  1  0  0  0  0
 15 16  2  0  0  0  0
M  END
> <s_m_source_file>
AV-unprocessed.smi

> <i_m_source_file_index>
1866

> <i_lp_mmshare_version>
43012

> <i_f3d_flags>
0

> <s_epik_input>
W0NIM11jMW5uYyhzMSlbTkhdQyg9TylbTkhdW0NAQEhdMltDSDJdW0NIMl1bQ0gyXVtOSF1DMj1P

> <s_epik_cmdline>
J2VwaWtfcHl0aG9uJywgJy1waCcsICc3LjAnLCAnLXRuJywgJzgnLCAnLW1hJywgJzIwMCcsICctbWV0YWxfYmluZGluZycsICctaW1hZScsICc8aW5maWxlLm1hZT4nLCAnLW9tYWUnLCAnPG91dGZpbGUubWFlPic=

> <r_lp_tautomer_probability>
1

> <r_epik_Ionization_Penalty>
0.00093002

> <r_epik_Ionization_Penalty_Charging>
0

> <r_epik_Ionization_Penalty_Neutral>
0.00093002

> <r_epik_State_Penalty>
-0

> <r_epik_Charging_Adjusted_Penalty>
0

> <i_epik_Tot_Q>
0

> <i_epik_Tot_abs_Q>
0

> <r_epik_Metal_State_Penalty>
0.280775

> <b_epik_Metal_Only>
0

> <s_lp_Force_Field>
OPLS_2005

> <r_lp_Energy>
8.18213

> <b_lp_Chiralities_Consistent>
1

> <s_lp_Variant>
AV-unprocessed.smi:1866-1

> <Gold.Version>
5.8.1

> <Gold.Id.Protein>
6NUR|6NUR_protein|mol2

> <Gold.PLP.Fitness>
31.5710

> <Gold.PLP.PLP>
-21.3617

> <Gold.PLP.part.hbond>
-4.9928

> <Gold.PLP.part.metal>
0.0000

> <Gold.PLP.part.buried>
-2.2532

> <Gold.PLP.part.nonpolar>
-16.1138

> <Gold.PLP.part.repulsive>
1.6092

> <Gold.PLP.ligand.clash>
0.0000

> <Gold.PLP.ligand.torsion>
0.1867

> <Gold.PLP.Chemscore.Hbond>
3.5134

> <Gold.PLP.Chemscore.CHOScore>
0.0000

> <Gold.PLP.Chemscore.Metal>
0.0000

> <Gold.Chemscore.Hbonds>
donor molecule, donor type, donor heavy atom, donor atom, acceptor molecule, acceptor atom, score
      L1  H     6    21       P1  7948  1.00
      L1  H     9    22       P1  7948  0.81
      L1  H    14    30       P1  8028  0.99
      P1  H  8011  8017       L1    16  0.76

> <Gold.PLP.Chemscore.Internal.Correction>
0.0424

> <Gold.Rescore>
     Score         DG    S(hbond)    S(metal)    S(lipo)     H(rot)  DE(clash)    DE(int)     intcor
     14.46     -18.33       3.39        0.00      34.86       1.00       1.56       2.30       ----

> <Gold.Chemscore.Fitness>
14.4630

> <Gold.Chemscore.DG>
-18.3254

> <Gold.Chemscore.ZeroCoef>
-5.4800

> <Gold.Chemscore.Hbond>
3.3911

> <Gold.Chemscore.Metal>
0.0000

> <Gold.Chemscore.Lipo>
34.8627

> <Gold.Chemscore.Internal_Hbond>
0.0000

> <Gold.Chemscore.DEClash>
1.5604

> <Gold.Chemscore.DEInternal>
2.3020

> <Gold.Chemscore.Rot>
1.0000

> <Gold.Chemscore.Internal.Correction>
   9.000000E+99

> <Gold.Chemscore.Hbonds>
donor molecule, donor type, donor heavy atom, donor atom, acceptor molecule, acceptor atom, score
      L1  H     6    21       P1  7948  1.00
      L1  H     9    22       P1  7948  0.74
      L1  H    14    30       P1  8028  0.92
      P1  H  8011  8017       L1    16  0.16

> <Gold.Chemscore.Hbond.Weighted>
-11.3264

> <Gold.Chemscore.Metal.Weighted>
-0.0000

> <Gold.Chemscore.Lipo.Weighted>
-4.0789

> <Gold.Chemscore.Internal_Hbond.Weighted>
0.0000

> <Gold.Chemscore.DEClash.Weighted>
1.5604

> <Gold.Chemscore.DEInternal.Weighted>
2.3020

> <Gold.Chemscore.Rot.Weighted>
2.5600

> <Gold.Chemscore.Internal.Correction.Weighted>
   9.000000E+99

> <Gold.Protein.RotatedTorsions>
[ 6907 6896 6895 6894 ] final  114.47 input  -60.11 | X-H torsion
[ 7974 7965 7964 7962 ] final  142.42 input  175.53 | X-H torsion
[ 8008 7997 7996 7995 ] final  116.40 input   59.86 | X-H torsion
[ 10167 10162 10161 10158 ] final  103.26 input  -65.29 | X-H torsion
[ 10718 10713 10712 10709 ] final  -60.68 input   66.30 | X-H torsion
[ 10763 10752 10751 10750 ] final  175.29 input  -60.55 | X-H torsion
[ 11005 11000 10999 10996 ] final -108.09 input  -57.11 | X-H torsion

> <Gold.Protein.ActiveResidues>
 VAL166  LYS551  ARG553  GLY616  TRP617  ASP618  TYR619  PRO620  LYS621  CYS622 
 ASP623  PHE694  ASN695  SER759  ASP760  ASP761  ALA762  ILE779  LEU786  VAL792 
 PHE793  MET794  SER795  GLU796  ALA797  LYS798  CYS799  TRP800  GLU811  SER814 

> <Gold.Protein.RotatedAtoms>
  152.4800  133.8232  159.7063 H   0  0  0  0  0  0  0  0  0  0  0  0  # atno 6907 bound_to 6896
  150.8844  133.7319  159.2929 H   0  0  0  0  0  0  0  0  0  0  0  0  # atno 6908 bound_to 6896
  151.4813  135.1056  159.9830 H   0  0  0  0  0  0  0  0  0  0  0  0  # atno 6909 bound_to 6896
  144.9009  139.5425  143.5754 H   0  0  0  0  0  0  0  0  0  0  0  0  # atno 7974 bound_to 7965
  156.2437  140.2918  156.0517 H   0  0  0  0  0  0  0  0  0  0  0  0  # atno 8008 bound_to 7997
  155.1874  140.0406  157.2911 H   0  0  0  0  0  0  0  0  0  0  0  0  # atno 8009 bound_to 7997
  154.6218  140.2478  155.7547 H   0  0  0  0  0  0  0  0  0  0  0  0  # atno 8010 bound_to 7997
  139.7278  144.7043  151.0770 H   0  0  0  0  0  0  0  0  0  0  0  0  # atno 10167 bound_to 10162
  156.0973  130.4191  150.0888 H   0  0  0  0  0  0  0  0  0  0  0  0  # atno 10718 bound_to 10713
  154.4655  135.2769  155.1681 H   0  0  0  0  0  0  0  0  0  0  0  0  # atno 10763 bound_to 10752
  154.3451  135.6162  153.5619 H   0  0  0  0  0  0  0  0  0  0  0  0  # atno 10764 bound_to 10752
  152.9859  135.5798  154.5026 H   0  0  0  0  0  0  0  0  0  0  0  0  # atno 10765 bound_to 10752
  141.0920  133.9038  157.2053 H   0  0  0  0  0  0  0  0  0  0  0  0  # atno 11005 bound_to 11000
  146.3107  139.7738  142.9021 LP  0  0  0  0  0  0  0  0  0  0  0  0  # atno 17320 bound_to 7965
  145.3618  141.0327  143.3280 LP  0  0  0  0  0  0  0  0  0  0  0  0  # atno 17321 bound_to 7965
  140.7766  143.5082  150.9685 LP  0  0  0  0  0  0  0  0  0  0  0  0  # atno 17342 bound_to 10162
  139.8770  143.7120  152.3161 LP  0  0  0  0  0  0  0  0  0  0  0  0  # atno 17343 bound_to 10162
  156.8884  130.9580  151.3591 LP  0  0  0  0  0  0  0  0  0  0  0  0  # atno 17370 bound_to 10713
  157.6137  130.8602  149.8993 LP  0  0  0  0  0  0  0  0  0  0  0  0  # atno 17371 bound_to 10713
  139.9748  135.0117  156.9602 LP  0  0  0  0  0  0  0  0  0  0  0  0  # atno 17394 bound_to 11000
  140.5230  134.0888  155.7296 LP  0  0  0  0  0  0  0  0  0  0  0  0  # atno 17395 bound_to 11000

$$$$
