AV-unprocessed.smi:1586|AV-procd|sdf|6380|dock5
  -GOLD-   22720 7 13D 1   1.00000     0.00000
 Structure written by MMmdl.
 46 47  0  0  0  0  0  0  0  0  3 V2000
  145.1796  131.7569  149.8531 C   0  0  0  0  0  0  0  0  0  0  0  0
  145.9381  132.6839  150.8136 C   0  0  0  0  0  0  0  0  0  0  0  0
  146.8106  131.9399  151.7556 N   0  3  0  0  0  0  0  0  0  0  0  0
  146.0587  130.9360  152.5477 C   0  0  0  0  0  0  0  0  0  0  0  0
  147.0116  130.1505  153.4729 C   0  0  0  0  0  0  0  0  0  0  0  0
  147.7285  131.0371  154.3990 N   0  0  0  0  0  0  0  0  0  0  0  0
  146.8934  131.6667  155.4456 C   0  0  1  0  0  0  0  0  0  0  0  0
  146.1600  130.6030  156.2908 C   0  0  0  0  0  0  0  0  0  0  0  0
  147.7167  132.5924  156.3744 C   0  0  0  0  0  0  0  0  0  0  0  0
  146.9684  132.9712  157.5682 N   0  0  0  0  0  0  0  0  0  0  0  0
  147.3912  133.8278  158.5064 C   0  0  0  0  0  0  0  0  0  0  0  0
  148.4951  134.3653  158.3926 O   0  0  0  0  0  0  0  0  0  0  0  0
  146.5086  134.0083  159.5156 N   0  5  0  0  0  0  0  0  0  0  0  0
  146.4960  135.1593  160.2055 C   0  0  0  0  0  0  0  0  0  0  0  0
  145.9124  135.3586  161.4864 C   0  0  0  0  0  0  0  0  0  0  0  0
  146.1810  136.6714  161.7514 C   0  0  0  0  0  0  0  0  0  0  0  0
  145.8656  137.5550  162.9098 C   0  0  0  0  0  0  0  0  0  0  0  0
  146.8784  137.2269  160.7242 O   0  0  0  0  0  0  0  0  0  0  0  0
  147.0804  136.2509  159.7411 N   0  0  0  0  0  0  0  0  0  0  0  0
  148.5085  131.9691  153.5732 C   0  0  0  0  0  0  0  0  0  0  0  0
  147.6049  132.8165  152.6532 C   0  0  0  0  0  0  0  0  0  0  0  0
  144.4807  132.3291  149.2426 H   0  0  0  0  0  0  0  0  0  0  0  0
  144.6034  131.0084  150.3981 H   0  0  0  0  0  0  0  0  0  0  0  0
  145.8508  131.2359  149.1709 H   0  0  0  0  0  0  0  0  0  0  0  0
  146.5254  133.4162  150.2579 H   0  0  0  0  0  0  0  0  0  0  0  0
  145.1999  133.2484  151.3849 H   0  0  0  0  0  0  0  0  0  0  0  0
  145.2646  131.4204  153.1171 H   0  0  0  0  0  0  0  0  0  0  0  0
  145.5700  130.2371  151.8679 H   0  0  0  0  0  0  0  0  0  0  0  0
  146.4722  129.3718  154.0093 H   0  0  0  0  0  0  0  0  0  0  0  0
  147.7455  129.6194  152.8651 H   0  0  0  0  0  0  0  0  0  0  0  0
  146.1315  132.2868  154.9752 H   0  0  0  0  0  0  0  0  0  0  0  0
  145.6638  131.0608  157.1468 H   0  0  0  0  0  0  0  0  0  0  0  0
  146.8484  129.8502  156.6767 H   0  0  0  0  0  0  0  0  0  0  0  0
  145.3808  130.0934  155.7251 H   0  0  0  0  0  0  0  0  0  0  0  0
  148.6619  132.1306  156.6596 H   0  0  0  0  0  0  0  0  0  0  0  0
  147.9915  133.4990  155.8329 H   0  0  0  0  0  0  0  0  0  0  0  0
  146.0614  132.5465  157.6957 H   0  0  0  0  0  0  0  0  0  0  0  0
  145.3809  134.6530  162.1067 H   0  0  0  0  0  0  0  0  0  0  0  0
  146.3843  137.2140  163.8058 H   0  0  0  0  0  0  0  0  0  0  0  0
  144.7953  137.5523  163.1160 H   0  0  0  0  0  0  0  0  0  0  0  0
  146.1692  138.5838  162.7147 H   0  0  0  0  0  0  0  0  0  0  0  0
  149.1404  132.6084  154.1873 H   0  0  0  0  0  0  0  0  0  0  0  0
  149.2030  131.3915  152.9615 H   0  0  0  0  0  0  0  0  0  0  0  0
  148.2374  133.4759  152.0601 H   0  0  0  0  0  0  0  0  0  0  0  0
  146.9452  133.4618  153.2347 H   0  0  0  0  0  0  0  0  0  0  0  0
  147.4705  131.4186  151.1961 H   0  0  0  0  0  0  0  0  0  0  0  0
  1  2  1  0  0  0  0
  1 22  1  0  0  0  0
  1 23  1  0  0  0  0
  1 24  1  0  0  0  0
  2  3  1  0  0  0  0
  2 25  1  0  0  0  0
  2 26  1  0  0  0  0
  3 21  1  0  0  0  0
  3  4  1  0  0  0  0
  3 46  1  0  0  0  0
  4  5  1  0  0  0  0
  4 27  1  0  0  0  0
  4 28  1  0  0  0  0
  5  6  1  0  0  0  0
  5 29  1  0  0  0  0
  5 30  1  0  0  0  0
  6  7  1  0  0  0  0
  6 20  1  0  0  0  0
  7  8  1  0  0  0  0
  7  9  1  0  0  0  0
  7 31  1  0  0  0  0
  8 32  1  0  0  0  0
  8 33  1  0  0  0  0
  8 34  1  0  0  0  0
  9 10  1  0  0  0  0
  9 35  1  0  0  0  0
  9 36  1  0  0  0  0
 10 11  1  0  0  0  0
 10 37  1  0  0  0  0
 11 12  2  0  0  0  0
 11 13  1  0  0  0  0
 13 14  1  0  0  0  0
 14 19  2  0  0  0  0
 14 15  1  0  0  0  0
 15 16  2  0  0  0  0
 15 38  1  0  0  0  0
 16 17  1  0  0  0  0
 16 18  1  0  0  0  0
 17 39  1  0  0  0  0
 17 40  1  0  0  0  0
 17 41  1  0  0  0  0
 18 19  1  0  0  0  0
 20 21  1  0  0  0  0
 20 42  1  0  0  0  0
 20 43  1  0  0  0  0
 21 44  1  0  0  0  0
 21 45  1  0  0  0  0
M  CHG  1   3   1
M  CHG  1  13  -1
M  END
> <s_m_source_file>
AV-unprocessed.smi

> <i_m_source_file_index>
1586

> <i_lp_mmshare_version>
43012

> <i_f3d_flags>
0

> <s_epik_input>
W0NIM11bQ0gyXU4xW0NIMl1bQ0gyXU4oW0NIMl1bQ0gyXTEpW0NASF0oW0NIM10pW0NIMl1bTkhdQyg9TylbTkhdYzJbY0hdYyhbQ0gzXSlvbjI=

> <s_epik_cmdline>
J2VwaWtfcHl0aG9uJywgJy1waCcsICc3LjAnLCAnLXRuJywgJzgnLCAnLW1hJywgJzIwMCcsICctbWV0YWxfYmluZGluZycsICctaW1hZScsICc8aW5maWxlLm1hZT4nLCAnLW9tYWUnLCAnPG91dGZpbGUubWFlPic=

> <r_epik_Ionization_Penalty>
6.66134

> <r_epik_Ionization_Penalty_Charging>
6.66063

> <r_epik_Ionization_Penalty_Neutral>
0.000714131

> <r_epik_State_Penalty>
6.77843

> <r_epik_Charging_Adjusted_Penalty>
13.4391

> <i_epik_Tot_Q>
0

> <i_epik_Tot_abs_Q>
2

> <r_epik_Metal_State_Penalty>
2.70494

> <b_epik_Metal_Only>
1

> <s_lp_Force_Field>
OPLS_2005

> <r_lp_Energy>
15.0096

> <b_lp_Chiralities_Consistent>
1

> <s_lp_Variant>
AV-unprocessed.smi:1586-8

> <Gold.Version>
5.8.1

> <Gold.Id.Protein>
6NUR|6NUR_protein|mol2

> <Gold.PLP.Fitness>
42.7443

> <Gold.PLP.PLP>
-31.9063

> <Gold.PLP.part.hbond>
-4.0000

> <Gold.PLP.part.metal>
0.0000

> <Gold.PLP.part.buried>
-5.7427

> <Gold.PLP.part.nonpolar>
-23.2021

> <Gold.PLP.part.repulsive>
0.0902

> <Gold.PLP.ligand.clash>
0.0000

> <Gold.PLP.ligand.torsion>
0.3599

> <Gold.PLP.Chemscore.Hbond>
3.8080

> <Gold.PLP.Chemscore.CHOScore>
0.0000

> <Gold.PLP.Chemscore.Metal>
0.0000

> <Gold.Chemscore.Hbonds>
donor molecule, donor type, donor heavy atom, donor atom, acceptor molecule, acceptor atom, score
      L1  H     3    46       P1 10747  1.00
      P1  H  6896  6907       L1    12  0.06
      P1  H  6934  6947       L1    18  1.00

> <Gold.PLP.Chemscore.Internal.Correction>
0.1337

> <Gold.Rescore>
     Score         DG    S(hbond)    S(metal)    S(lipo)     H(rot)  DE(clash)    DE(int)     intcor
     18.04     -20.44       3.33        0.00      70.56       1.73       0.40       2.00       ----

> <Gold.Chemscore.Fitness>
18.0386

> <Gold.Chemscore.DG>
-20.4360

> <Gold.Chemscore.ZeroCoef>
-5.4800

> <Gold.Chemscore.Hbond>
3.3284

> <Gold.Chemscore.Metal>
0.0000

> <Gold.Chemscore.Lipo>
70.5580

> <Gold.Chemscore.Internal_Hbond>
0.0000

> <Gold.Chemscore.DEClash>
0.3991

> <Gold.Chemscore.DEInternal>
1.9983

> <Gold.Chemscore.Rot>
1.7250

> <Gold.Chemscore.Internal.Correction>
   9.000000E+99

> <Gold.Chemscore.Hbonds>
donor molecule, donor type, donor heavy atom, donor atom, acceptor molecule, acceptor atom, score
      L1  H     3    46       P1 10747  1.00
      P1  H  6896  6907       L1    12  0.10
      P1  H  6934  6947       L1    18  0.88

> <Gold.Chemscore.Hbond.Weighted>
-11.1168

> <Gold.Chemscore.Metal.Weighted>
-0.0000

> <Gold.Chemscore.Lipo.Weighted>
-8.2553

> <Gold.Chemscore.Internal_Hbond.Weighted>
0.0000

> <Gold.Chemscore.DEClash.Weighted>
0.3991

> <Gold.Chemscore.DEInternal.Weighted>
1.9983

> <Gold.Chemscore.Rot.Weighted>
4.4161

> <Gold.Chemscore.Internal.Correction.Weighted>
   9.000000E+99

> <Gold.Protein.RotatedTorsions>
[ 6907 6896 6895 6894 ] final -107.32 input  -60.11 | X-H torsion
[ 7974 7965 7964 7962 ] final  -40.82 input  175.53 | X-H torsion
[ 8008 7997 7996 7995 ] final   24.24 input   59.86 | X-H torsion
[ 10167 10162 10161 10158 ] final  148.43 input  -65.29 | X-H torsion
[ 10718 10713 10712 10709 ] final  -39.22 input   66.30 | X-H torsion
[ 10763 10752 10751 10750 ] final -131.47 input  -60.55 | X-H torsion
[ 11005 11000 10999 10996 ] final   35.41 input  -57.11 | X-H torsion

> <Gold.Protein.ActiveResidues>
 VAL166  LYS551  ARG553  GLY616  TRP617  ASP618  TYR619  PRO620  LYS621  CYS622 
 ASP623  PHE694  ASN695  SER759  ASP760  ASP761  ALA762  ILE779  LEU786  VAL792 
 PHE793  MET794  SER795  GLU796  ALA797  LYS798  CYS799  TRP800  GLU811  SER814 

> <Gold.Protein.RotatedAtoms>
  150.7437  133.9844  159.3586 H   0  0  0  0  0  0  0  0  0  0  0  0  # atno 6907 bound_to 6896
  151.7787  135.0765  160.0380 H   0  0  0  0  0  0  0  0  0  0  0  0  # atno 6908 bound_to 6896
  152.3289  133.5899  159.5832 H   0  0  0  0  0  0  0  0  0  0  0  0  # atno 6909 bound_to 6896
  146.0269  140.6780  142.9151 H   0  0  0  0  0  0  0  0  0  0  0  0  # atno 7974 bound_to 7965
  154.9932  140.3116  155.4897 H   0  0  0  0  0  0  0  0  0  0  0  0  # atno 8008 bound_to 7997
  156.2936  140.2245  156.4978 H   0  0  0  0  0  0  0  0  0  0  0  0  # atno 8009 bound_to 7997
  154.7684  140.0454  157.1019 H   0  0  0  0  0  0  0  0  0  0  0  0  # atno 8010 bound_to 7997
  139.4875  144.5680  151.7109 H   0  0  0  0  0  0  0  0  0  0  0  0  # atno 10167 bound_to 10162
  156.2949  130.4233  149.8201 H   0  0  0  0  0  0  0  0  0  0  0  0  # atno 10718 bound_to 10713
  154.8750  135.3829  154.4251 H   0  0  0  0  0  0  0  0  0  0  0  0  # atno 10763 bound_to 10752
  153.4951  135.7030  153.5868 H   0  0  0  0  0  0  0  0  0  0  0  0  # atno 10764 bound_to 10752
  153.4224  135.3898  155.2086 H   0  0  0  0  0  0  0  0  0  0  0  0  # atno 10765 bound_to 10752
  140.2429  134.3393  155.7919 H   0  0  0  0  0  0  0  0  0  0  0  0  # atno 11005 bound_to 11000
  144.7013  140.3666  143.7153 LP  0  0  0  0  0  0  0  0  0  0  0  0  # atno 17320 bound_to 7965
  145.7103  139.1683  143.2542 LP  0  0  0  0  0  0  0  0  0  0  0  0  # atno 17321 bound_to 7965
  140.5261  144.0803  150.6038 LP  0  0  0  0  0  0  0  0  0  0  0  0  # atno 17342 bound_to 10162
  140.3777  143.2819  152.0206 LP  0  0  0  0  0  0  0  0  0  0  0  0  # atno 17343 bound_to 10162
  156.5601  130.8379  151.3326 LP  0  0  0  0  0  0  0  0  0  0  0  0  # atno 17370 bound_to 10713
  157.7352  130.9759  150.2071 LP  0  0  0  0  0  0  0  0  0  0  0  0  # atno 17371 bound_to 10713
  141.2209  133.7309  156.8914 LP  0  0  0  0  0  0  0  0  0  0  0  0  # atno 17394 bound_to 11000
  140.1635  134.9149  157.2744 LP  0  0  0  0  0  0  0  0  0  0  0  0  # atno 17395 bound_to 11000

$$$$
