AV-unprocessed.smi:20|AV-procd|sdf|119|dock2
  -GOLD-   2262015293D 1   1.00000     0.00000
 Structure written by MMmdl.
 57 61  0  0  0  0  0  0  0  0  1 V2000
  143.9229  135.2799  150.9589 O   0  0  0  0  0  0  0  0  0  0  0  0
  144.5388  134.2169  150.9419 C   0  0  0  0  0  0  0  0  0  0  0  0
  144.1375  132.9949  151.7517 C   0  0  0  0  0  0  0  0  0  0  0  0
  145.3952  132.1013  151.6950 C   0  0  2  0  0  0  0  0  0  0  0  0
  145.0358  130.5987  151.6328 C   0  0  0  0  0  0  0  0  0  0  0  0
  146.2910  129.7130  151.6946 C   0  0  0  0  0  0  0  0  0  0  0  0
  147.1362  130.0441  152.9328 C   0  0  0  0  0  0  0  0  0  0  0  0
  147.4436  131.4715  152.9769 N   0  0  0  0  0  0  0  0  0  0  0  0
  148.4805  131.8113  153.7826 C   0  0  0  0  0  0  0  0  0  0  0  0
  149.3928  130.8712  154.1473 N   0  0  0  0  0  0  0  0  0  0  0  0
  150.4215  131.1999  154.9341 C   0  0  0  0  0  0  0  0  0  0  0  0
  150.7189  132.3867  155.4660 N   0  0  0  0  0  0  0  0  0  0  0  0
  149.8002  133.3313  155.1157 C   0  0  0  0  0  0  0  0  0  0  0  0
  148.6653  133.1318  154.2796 C   0  0  0  0  0  0  0  0  0  0  0  0
  147.9616  134.3227  154.1449 N   0  0  0  0  0  0  0  0  0  0  0  0
  148.6455  135.1792  154.8529 C   0  0  0  0  0  0  0  0  0  0  0  0
  149.7507  134.6631  155.4924 N   0  0  0  0  0  0  0  0  0  0  0  0
  150.6804  135.3957  156.3357 C   0  0  0  0  0  0  0  0  0  0  0  0
  150.2233  136.8260  156.7405 C   0  0  1  0  0  0  0  0  0  0  0  0
  150.4371  137.0118  158.2625 C   0  0  0  0  0  0  0  0  0  0  0  0
  149.7762  136.0063  159.0030 O   0  0  0  0  0  0  0  0  0  0  0  0
  150.9284  137.9604  155.9378 C   0  0  1  0  0  0  0  0  0  0  0  0
  150.6735  139.3834  156.4140 C   0  0  0  0  0  0  0  0  0  0  0  0
  151.8271  140.1596  155.7916 C   0  0  0  0  0  0  0  0  0  0  0  0
  152.9201  139.2534  155.7525 O   0  0  0  0  0  0  0  0  0  0  0  0
  152.4621  137.9331  156.0202 C   0  0  0  0  0  0  0  0  0  0  0  0
  146.2835  132.3643  152.9396 C   0  0  0  0  0  0  0  0  0  0  0  0
  146.1061  132.5989  150.4112 C   0  0  0  0  0  0  0  0  0  0  0  0
  145.6328  133.9572  150.2294 N   0  0  0  0  0  0  0  0  0  0  0  0
  143.8469  133.2612  152.7687 H   0  0  0  0  0  0  0  0  0  0  0  0
  143.2830  132.5229  151.2651 H   0  0  0  0  0  0  0  0  0  0  0  0
  144.3824  130.3480  152.4696 H   0  0  0  0  0  0  0  0  0  0  0  0
  144.4692  130.3771  150.7277 H   0  0  0  0  0  0  0  0  0  0  0  0
  146.0056  128.6609  151.7103 H   0  0  0  0  0  0  0  0  0  0  0  0
  146.8903  129.8564  150.7948 H   0  0  0  0  0  0  0  0  0  0  0  0
  146.5896  129.7770  153.8382 H   0  0  0  0  0  0  0  0  0  0  0  0
  148.0421  129.4387  152.9260 H   0  0  0  0  0  0  0  0  0  0  0  0
  151.1030  130.3967  155.1729 H   0  0  0  0  0  0  0  0  0  0  0  0
  148.3500  136.2144  154.9422 H   0  0  0  0  0  0  0  0  0  0  0  0
  150.8413  134.7813  157.2218 H   0  0  0  0  0  0  0  0  0  0  0  0
  151.6436  135.4484  155.8267 H   0  0  0  0  0  0  0  0  0  0  0  0
  149.1519  136.9154  156.5591 H   0  0  0  0  0  0  0  0  0  0  0  0
  151.4995  137.0020  158.5082 H   0  0  0  0  0  0  0  0  0  0  0  0
  150.0379  137.9629  158.6117 H   0  0  0  0  0  0  0  0  0  0  0  0
  148.8581  136.2244  159.0530 H   0  0  0  0  0  0  0  0  0  0  0  0
  150.6400  137.8907  154.8877 H   0  0  0  0  0  0  0  0  0  0  0  0
  149.7150  139.7882  156.0949 H   0  0  0  0  0  0  0  0  0  0  0  0
  150.7276  139.4395  157.5024 H   0  0  0  0  0  0  0  0  0  0  0  0
  151.5816  140.4509  154.7697 H   0  0  0  0  0  0  0  0  0  0  0  0
  152.0741  141.0616  156.3523 H   0  0  0  0  0  0  0  0  0  0  0  0
  152.7899  137.6604  157.0245 H   0  0  0  0  0  0  0  0  0  0  0  0
  152.9055  137.2267  155.3181 H   0  0  0  0  0  0  0  0  0  0  0  0
  146.6136  133.4044  152.9465 H   0  0  0  0  0  0  0  0  0  0  0  0
  145.7018  132.2110  153.8497 H   0  0  0  0  0  0  0  0  0  0  0  0
  147.1938  132.5669  150.4820 H   0  0  0  0  0  0  0  0  0  0  0  0
  145.8127  132.0149  149.5379 H   0  0  0  0  0  0  0  0  0  0  0  0
  146.0852  134.6186  149.6149 H   0  0  0  0  0  0  0  0  0  0  0  0
  1  2  2  0  0  0  0
  2 29  1  0  0  0  0
  2  3  1  0  0  0  0
  3  4  1  0  0  0  0
  3 30  1  0  0  0  0
  3 31  1  0  0  0  0
  4 27  1  0  0  0  0
  4  5  1  0  0  0  0
  4 28  1  0  0  0  0
  5  6  1  0  0  0  0
  5 32  1  0  0  0  0
  5 33  1  0  0  0  0
  6  7  1  0  0  0  0
  6 34  1  0  0  0  0
  6 35  1  0  0  0  0
  7  8  1  0  0  0  0
  7 36  1  0  0  0  0
  7 37  1  0  0  0  0
  8  9  1  0  0  0  0
  8 27  1  0  0  0  0
  9 14  1  0  0  0  0
  9 10  2  0  0  0  0
 10 11  1  0  0  0  0
 11 12  2  0  0  0  0
 11 38  1  0  0  0  0
 12 13  1  0  0  0  0
 13 17  1  0  0  0  0
 13 14  2  0  0  0  0
 14 15  1  0  0  0  0
 15 16  2  0  0  0  0
 16 17  1  0  0  0  0
 16 39  1  0  0  0  0
 17 18  1  0  0  0  0
 18 19  1  0  0  0  0
 18 40  1  0  0  0  0
 18 41  1  0  0  0  0
 19 20  1  0  0  0  0
 19 22  1  0  0  0  0
 19 42  1  0  0  0  0
 20 21  1  0  0  0  0
 20 43  1  0  0  0  0
 20 44  1  0  0  0  0
 21 45  1  0  0  0  0
 22 26  1  0  0  0  0
 22 23  1  0  0  0  0
 22 46  1  0  0  0  0
 23 24  1  0  0  0  0
 23 47  1  0  0  0  0
 23 48  1  0  0  0  0
 24 25  1  0  0  0  0
 24 49  1  0  0  0  0
 24 50  1  0  0  0  0
 25 26  1  0  0  0  0
 26 51  1  0  0  0  0
 26 52  1  0  0  0  0
 27 53  1  0  0  0  0
 27 54  1  0  0  0  0
 28 29  1  0  0  0  0
 28 55  1  0  0  0  0
 28 56  1  0  0  0  0
 29 57  1  0  0  0  0
M  END
> <s_m_source_file>
AV-unprocessed.smi

> <i_m_source_file_index>
20

> <i_lp_mmshare_version>
43012

> <i_f3d_flags>
0

> <s_epik_input>
W0NIMl0xW05IXUMoPU8pW0NIMl1bQ0BAXTEyW0NIMl1bQ0gyXVtDSDJdTihbQ0gyXTIpYyhuW2NIXW4zKWMoYzM0KW5bY0hdbjRbQ0gyXVtDQEhdKFtDSDJdW09IXSlbQ0BASF01W0NIMl1bQ0gyXU9bQ0gyXTU=

> <s_epik_cmdline>
J2VwaWtfcHl0aG9uJywgJy1waCcsICc3LjAnLCAnLXRuJywgJzgnLCAnLW1hJywgJzIwMCcsICctbWV0YWxfYmluZGluZycsICctaW1hZScsICc8aW5maWxlLm1hZT4nLCAnLW9tYWUnLCAnPG91dGZpbGUubWFlPic=

> <r_lp_tautomer_probability>
1

> <r_epik_Ionization_Penalty>
0.0019697

> <r_epik_Ionization_Penalty_Charging>
0

> <r_epik_Ionization_Penalty_Neutral>
0.0019697

> <r_epik_State_Penalty>
0.00113613

> <r_epik_Charging_Adjusted_Penalty>
0.00113613

> <i_epik_Tot_Q>
0

> <i_epik_Tot_abs_Q>
0

> <r_epik_Metal_State_Penalty>
-0

> <b_epik_Metal_Only>
0

> <s_lp_Force_Field>
OPLS_2005

> <r_lp_Energy>
59.3743

> <b_lp_Chiralities_Consistent>
1

> <s_lp_Variant>
AV-unprocessed.smi:20-7

> <Gold.Version>
5.8.1

> <Gold.Id.Protein>
6NUR|6NUR_protein|mol2

> <Gold.PLP.Fitness>
48.2415

> <Gold.PLP.PLP>
-42.3118

> <Gold.PLP.part.hbond>
-3.0000

> <Gold.PLP.part.metal>
0.0000

> <Gold.PLP.part.buried>
-6.1456

> <Gold.PLP.part.nonpolar>
-34.5655

> <Gold.PLP.part.repulsive>
1.1504

> <Gold.PLP.ligand.clash>
0.0000

> <Gold.PLP.ligand.torsion>
1.3431

> <Gold.PLP.Chemscore.Hbond>
2.7040

> <Gold.PLP.Chemscore.CHOScore>
0.0000

> <Gold.PLP.Chemscore.Metal>
0.0000

> <Gold.Chemscore.Hbonds>
donor molecule, donor type, donor heavy atom, donor atom, acceptor molecule, acceptor atom, score
      L1  H    29    57       P1  7921  0.67
      P1  H  6896  6908       L1    21  1.00
      P1  H  7997  8009       L1    25  1.00

> <Gold.PLP.Chemscore.Internal.Correction>
0.5039

> <Gold.Rescore>
     Score         DG    S(hbond)    S(metal)    S(lipo)     H(rot)  DE(clash)    DE(int)     intcor
     14.36     -17.36       2.50        0.00      90.28       2.74       0.20       2.80       ----

> <Gold.Chemscore.Fitness>
14.3588

> <Gold.Chemscore.DG>
-17.3598

> <Gold.Chemscore.ZeroCoef>
-5.4800

> <Gold.Chemscore.Hbond>
2.4956

> <Gold.Chemscore.Metal>
0.0000

> <Gold.Chemscore.Lipo>
90.2811

> <Gold.Chemscore.Internal_Hbond>
0.0000

> <Gold.Chemscore.DEClash>
0.2001

> <Gold.Chemscore.DEInternal>
2.8010

> <Gold.Chemscore.Rot>
2.7415

> <Gold.Chemscore.Internal.Correction>
   9.000000E+99

> <Gold.Chemscore.Hbonds>
donor molecule, donor type, donor heavy atom, donor atom, acceptor molecule, acceptor atom, score
      L1  H    29    57       P1  7921  0.33
      P1  H  6896  6908       L1    21  0.93
      P1  H  7997  8009       L1    25  0.69

> <Gold.Chemscore.Hbond.Weighted>
-8.3351

> <Gold.Chemscore.Metal.Weighted>
-0.0000

> <Gold.Chemscore.Lipo.Weighted>
-10.5629

> <Gold.Chemscore.Internal_Hbond.Weighted>
0.0000

> <Gold.Chemscore.DEClash.Weighted>
0.2001

> <Gold.Chemscore.DEInternal.Weighted>
2.8010

> <Gold.Chemscore.Rot.Weighted>
7.0182

> <Gold.Chemscore.Internal.Correction.Weighted>
   9.000000E+99

> <Gold.Protein.RotatedTorsions>
[ 6907 6896 6895 6894 ] final  168.14 input  -60.11 | X-H torsion
[ 7974 7965 7964 7962 ] final   84.49 input  175.53 | X-H torsion
[ 8008 7997 7996 7995 ] final -137.55 input   59.86 | X-H torsion
[ 10167 10162 10161 10158 ] final   59.03 input  -65.29 | X-H torsion
[ 10718 10713 10712 10709 ] final   38.20 input   66.30 | X-H torsion
[ 10763 10752 10751 10750 ] final   24.98 input  -60.55 | X-H torsion
[ 11005 11000 10999 10996 ] final  -34.49 input  -57.11 | X-H torsion

> <Gold.Protein.ActiveResidues>
 VAL166  LYS551  ARG553  GLY616  TRP617  ASP618  TYR619  PRO620  LYS621  CYS622 
 ASP623  PHE694  ASN695  SER759  ASP760  ASP761  ALA762  ILE779  LEU786  VAL792 
 PHE793  MET794  SER795  GLU796  ALA797  LYS798  CYS799  TRP800  GLU811  SER814 

> <Gold.Protein.RotatedAtoms>
  151.8523  133.3442  159.3676 H   0  0  0  0  0  0  0  0  0  0  0  0  # atno 6907 bound_to 6896
  150.7203  134.5287  159.5699 H   0  0  0  0  0  0  0  0  0  0  0  0  # atno 6908 bound_to 6896
  152.2783  134.7857  160.0452 H   0  0  0  0  0  0  0  0  0  0  0  0  # atno 6909 bound_to 6896
  145.5980  139.2348  143.2262 H   0  0  0  0  0  0  0  0  0  0  0  0  # atno 7974 bound_to 7965
  155.4136  140.0514  157.3030 H   0  0  0  0  0  0  0  0  0  0  0  0  # atno 8008 bound_to 7997
  154.4934  140.2129  155.9457 H   0  0  0  0  0  0  0  0  0  0  0  0  # atno 8009 bound_to 7997
  156.1374  140.3161  155.8446 H   0  0  0  0  0  0  0  0  0  0  0  0  # atno 8010 bound_to 7997
  140.1808  144.4184  150.6616 H   0  0  0  0  0  0  0  0  0  0  0  0  # atno 10167 bound_to 10162
  157.3560  130.7624  149.7013 H   0  0  0  0  0  0  0  0  0  0  0  0  # atno 10718 bound_to 10713
  153.0724  135.6593  154.0218 H   0  0  0  0  0  0  0  0  0  0  0  0  # atno 10763 bound_to 10752
  153.9860  135.2950  155.3417 H   0  0  0  0  0  0  0  0  0  0  0  0  # atno 10764 bound_to 10752
  154.7103  135.5208  153.8726 H   0  0  0  0  0  0  0  0  0  0  0  0  # atno 10765 bound_to 10752
  140.9720  133.7104  156.1540 H   0  0  0  0  0  0  0  0  0  0  0  0  # atno 11005 bound_to 11000
  146.1597  140.6805  142.9283 LP  0  0  0  0  0  0  0  0  0  0  0  0  # atno 17320 bound_to 7965
  144.7322  140.4705  143.6929 LP  0  0  0  0  0  0  0  0  0  0  0  0  # atno 17321 bound_to 7965
  140.6521  143.2227  151.6054 LP  0  0  0  0  0  0  0  0  0  0  0  0  # atno 17342 bound_to 10162
  139.5297  144.2953  152.1118 LP  0  0  0  0  0  0  0  0  0  0  0  0  # atno 17343 bound_to 10162
  155.9729  130.4127  150.4046 LP  0  0  0  0  0  0  0  0  0  0  0  0  # atno 17370 bound_to 10713
  157.2116  131.0461  151.2596 LP  0  0  0  0  0  0  0  0  0  0  0  0  # atno 17371 bound_to 10713
  140.7314  134.4250  157.5565 LP  0  0  0  0  0  0  0  0  0  0  0  0  # atno 17394 bound_to 11000
  139.8916  134.8776  156.2312 LP  0  0  0  0  0  0  0  0  0  0  0  0  # atno 17395 bound_to 11000

$$$$
