AV-unprocessed.smi:2169|AV-procd|sdf|8822|dock1
  -GOLD-   2272012 13D 1   1.00000     0.00000
 Structure written by MMmdl.
 44 45  0  0  0  0  0  0  0  0  1 V2000
  151.6531  141.3860  157.7334 C   0  0  0  0  0  0  0  0  0  0  0  0
  150.7708  140.3199  156.5213 S   0  0  0  0  0  0  0  0  0  0  0  0
  151.6142  140.1927  155.3229 O   0  0  0  0  0  0  0  0  0  0  0  0
  150.3138  139.1102  157.2225 O   0  0  0  0  0  0  0  0  0  0  0  0
  149.3629  141.2456  156.0856 N   0  0  0  0  0  0  0  0  0  0  0  0
  149.2042  141.7414  154.7037 C   0  0  0  0  0  0  0  0  0  0  0  0
  148.2248  140.8716  153.8956 C   0  0  0  0  0  0  0  0  0  0  0  0
  146.8733  140.7318  154.6165 C   0  0  0  0  0  0  0  0  0  0  0  0
  145.9768  139.8441  153.8815 N   0  0  0  0  0  0  0  0  0  0  0  0
  146.1058  138.5125  153.7981 C   0  0  0  0  0  0  0  0  0  0  0  0
  146.9956  137.8685  154.3541 O   0  0  0  0  0  0  0  0  0  0  0  0
  145.1517  137.9678  153.0305 N   0  0  0  0  0  0  0  0  0  0  0  0
  145.0292  136.5457  152.7329 C   0  0  0  0  0  0  0  0  0  0  0  0
  145.3784  136.2421  151.2665 C   0  0  0  0  0  0  0  0  0  0  0  0
  145.4128  134.7533  150.9828 C   0  0  0  0  0  0  0  0  0  0  0  0
  144.4204  134.1429  150.1883 C   0  0  0  0  0  0  0  0  0  0  0  0
  144.4968  132.7564  149.9541 C   0  0  0  0  0  0  0  0  0  0  0  0
  145.5650  132.0377  150.5273 C   0  0  0  0  0  0  0  0  0  0  0  0
  146.5200  132.6113  151.2906 N   0  0  0  0  0  0  0  0  0  0  0  0
  146.4398  133.9416  151.5094 C   0  0  0  0  0  0  0  0  0  0  0  0
  147.1075  140.1785  156.0297 C   0  0  0  0  0  0  0  0  0  0  0  0
  148.0961  141.0536  156.8199 C   0  0  0  0  0  0  0  0  0  0  0  0
  152.5616  140.8788  158.0569 H   0  0  0  0  0  0  0  0  0  0  0  0
  151.0203  141.5634  158.6013 H   0  0  0  0  0  0  0  0  0  0  0  0
  151.9239  142.3321  157.2685 H   0  0  0  0  0  0  0  0  0  0  0  0
  148.8304  142.7651  154.7472 H   0  0  0  0  0  0  0  0  0  0  0  0
  150.1711  141.7890  154.2033 H   0  0  0  0  0  0  0  0  0  0  0  0
  148.0801  141.3150  152.9099 H   0  0  0  0  0  0  0  0  0  0  0  0
  148.6572  139.8864  153.7237 H   0  0  0  0  0  0  0  0  0  0  0  0
  146.4097  141.7165  154.7043 H   0  0  0  0  0  0  0  0  0  0  0  0
  145.2104  140.2786  153.3890 H   0  0  0  0  0  0  0  0  0  0  0  0
  144.4641  138.5803  152.6169 H   0  0  0  0  0  0  0  0  0  0  0  0
  145.6630  135.9673  153.4072 H   0  0  0  0  0  0  0  0  0  0  0  0
  144.0010  136.2465  152.9388 H   0  0  0  0  0  0  0  0  0  0  0  0
  144.6534  136.7154  150.6030 H   0  0  0  0  0  0  0  0  0  0  0  0
  146.3503  136.6674  151.0124 H   0  0  0  0  0  0  0  0  0  0  0  0
  143.6142  134.7244  149.7658 H   0  0  0  0  0  0  0  0  0  0  0  0
  143.7554  132.2554  149.3496 H   0  0  0  0  0  0  0  0  0  0  0  0
  145.6542  130.9731  150.3684 H   0  0  0  0  0  0  0  0  0  0  0  0
  147.2174  134.3703  152.1247 H   0  0  0  0  0  0  0  0  0  0  0  0
  146.1611  140.1251  156.5692 H   0  0  0  0  0  0  0  0  0  0  0  0
  147.4816  139.1567  155.9717 H   0  0  0  0  0  0  0  0  0  0  0  0
  148.2866  140.6189  157.8007 H   0  0  0  0  0  0  0  0  0  0  0  0
  147.6519  142.0333  156.9995 H   0  0  0  0  0  0  0  0  0  0  0  0
  1  2  1  0  0  0  0
  1 23  1  0  0  0  0
  1 24  1  0  0  0  0
  1 25  1  0  0  0  0
  2  3  2  0  0  0  0
  2  4  2  0  0  0  0
  2  5  1  0  0  0  0
  5 22  1  0  0  0  0
  5  6  1  0  0  0  0
  6  7  1  0  0  0  0
  6 26  1  0  0  0  0
  6 27  1  0  0  0  0
  7  8  1  0  0  0  0
  7 28  1  0  0  0  0
  7 29  1  0  0  0  0
  8  9  1  0  0  0  0
  8 21  1  0  0  0  0
  8 30  1  0  0  0  0
  9 10  1  0  0  0  0
  9 31  1  0  0  0  0
 10 11  2  0  0  0  0
 10 12  1  0  0  0  0
 12 13  1  0  0  0  0
 12 32  1  0  0  0  0
 13 14  1  0  0  0  0
 13 33  1  0  0  0  0
 13 34  1  0  0  0  0
 14 15  1  0  0  0  0
 14 35  1  0  0  0  0
 14 36  1  0  0  0  0
 15 20  1  0  0  0  0
 15 16  2  0  0  0  0
 16 17  1  0  0  0  0
 16 37  1  0  0  0  0
 17 18  2  0  0  0  0
 17 38  1  0  0  0  0
 18 19  1  0  0  0  0
 18 39  1  0  0  0  0
 19 20  2  0  0  0  0
 20 40  1  0  0  0  0
 21 22  1  0  0  0  0
 21 41  1  0  0  0  0
 21 42  1  0  0  0  0
 22 43  1  0  0  0  0
 22 44  1  0  0  0  0
M  END
> <s_m_source_file>
AV-unprocessed.smi

> <i_m_source_file_index>
2169

> <i_lp_mmshare_version>
43012

> <i_f3d_flags>
0

> <s_epik_input>
W0NIM11TKD1PKSg9TylOMVtDSDJdW0NIMl1bQ0hdKFtDSDJdW0NIMl0xKVtOSF1DKD1PKVtOSF1bQ0gyXVtDSDJdYzJbY0hdW2NIXVtjSF1uW2NIXTI=

> <s_epik_cmdline>
J2VwaWtfcHl0aG9uJywgJy1waCcsICc3LjAnLCAnLXRuJywgJzgnLCAnLW1hJywgJzIwMCcsICctbWV0YWxfYmluZGluZycsICctaW1hZScsICc8aW5maWxlLm1hZT4nLCAnLW9tYWUnLCAnPG91dGZpbGUubWFlPic=

> <r_epik_Ionization_Penalty>
0.0144137

> <r_epik_Ionization_Penalty_Charging>
0

> <r_epik_Ionization_Penalty_Neutral>
0.0144137

> <r_epik_State_Penalty>
0.0112268

> <r_epik_Charging_Adjusted_Penalty>
0.0112268

> <i_epik_Tot_Q>
0

> <i_epik_Tot_abs_Q>
0

> <r_epik_Metal_State_Penalty>
0.0109605

> <b_epik_Metal_Only>
0

> <s_lp_Force_Field>
OPLS_2005

> <r_lp_Energy>
-3.92684

> <b_lp_Chiralities_Consistent>
1

> <s_lp_Variant>
AV-unprocessed.smi:2169-1

> <Gold.Version>
5.8.1

> <Gold.Id.Protein>
6NUR|6NUR_protein|mol2

> <Gold.PLP.Fitness>
45.2488

> <Gold.PLP.PLP>
-33.9397

> <Gold.PLP.part.hbond>
-3.0000

> <Gold.PLP.part.metal>
0.0000

> <Gold.PLP.part.buried>
-3.2459

> <Gold.PLP.part.nonpolar>
-27.3677

> <Gold.PLP.part.repulsive>
0.2917

> <Gold.PLP.ligand.clash>
0.0000

> <Gold.PLP.ligand.torsion>
1.3237

> <Gold.PLP.Chemscore.Hbond>
2.9360

> <Gold.PLP.Chemscore.CHOScore>
1.0000

> <Gold.PLP.Chemscore.Metal>
0.0000

> <Gold.Chemscore.Hbonds>
donor molecule, donor type, donor heavy atom, donor atom, acceptor molecule, acceptor atom, score
      L1  H     9    31       P1 10175  1.00
      L1  H    12    32       P1 10175  0.98
      P1  H  7989  7998       L1     3  0.93
      L1  C    20    40       P1  7948  1.00

> <Gold.PLP.Chemscore.Internal.Correction>
2.1485

> <Gold.Rescore>
     Score         DG    S(hbond)    S(metal)    S(lipo)     H(rot)  DE(clash)    DE(int)     intcor
     17.45     -20.13       2.87        0.00      79.06       1.64       0.04       2.63       ----

> <Gold.Chemscore.Fitness>
17.4535

> <Gold.Chemscore.DG>
-20.1278

> <Gold.Chemscore.ZeroCoef>
-5.4800

> <Gold.Chemscore.Hbond>
2.8749

> <Gold.Chemscore.Metal>
0.0000

> <Gold.Chemscore.Lipo>
79.0633

> <Gold.Chemscore.Internal_Hbond>
0.0000

> <Gold.Chemscore.DEClash>
0.0402

> <Gold.Chemscore.DEInternal>
2.6341

> <Gold.Chemscore.Rot>
1.6425

> <Gold.Chemscore.Internal.Correction>
   9.000000E+99

> <Gold.Chemscore.Hbonds>
donor molecule, donor type, donor heavy atom, donor atom, acceptor molecule, acceptor atom, score
      L1  H     9    31       P1 10175  1.00
      L1  H    12    32       P1 10175  0.86
      P1  H  7989  7998       L1     3  0.90

> <Gold.Chemscore.Hbond.Weighted>
-9.6021

> <Gold.Chemscore.Metal.Weighted>
-0.0000

> <Gold.Chemscore.Lipo.Weighted>
-9.2504

> <Gold.Chemscore.Internal_Hbond.Weighted>
0.0000

> <Gold.Chemscore.DEClash.Weighted>
0.0402

> <Gold.Chemscore.DEInternal.Weighted>
2.6341

> <Gold.Chemscore.Rot.Weighted>
4.2047

> <Gold.Chemscore.Internal.Correction.Weighted>
   9.000000E+99

> <Gold.Protein.RotatedTorsions>
[ 6907 6896 6895 6894 ] final -137.47 input  -60.11 | X-H torsion
[ 7974 7965 7964 7962 ] final  153.10 input  175.53 | X-H torsion
[ 8008 7997 7996 7995 ] final   58.28 input   59.86 | X-H torsion
[ 10167 10162 10161 10158 ] final   82.15 input  -65.29 | X-H torsion
[ 10718 10713 10712 10709 ] final -105.62 input   66.30 | X-H torsion
[ 10763 10752 10751 10750 ] final  -56.75 input  -60.55 | X-H torsion
[ 11005 11000 10999 10996 ] final  -63.31 input  -57.11 | X-H torsion

> <Gold.Protein.ActiveResidues>
 VAL166  LYS551  ARG553  GLY616  TRP617  ASP618  TYR619  PRO620  LYS621  CYS622 
 ASP623  PHE694  ASN695  SER759  ASP760  ASP761  ALA762  ILE779  LEU786  VAL792 
 PHE793  MET794  SER795  GLU796  ALA797  LYS798  CYS799  TRP800  GLU811  SER814 

> <Gold.Protein.RotatedAtoms>
  151.0229  133.5860  159.2669 H   0  0  0  0  0  0  0  0  0  0  0  0  # atno 6907 bound_to 6896
  151.2970  135.0757  159.9235 H   0  0  0  0  0  0  0  0  0  0  0  0  # atno 6908 bound_to 6896
  152.5327  133.9917  159.7908 H   0  0  0  0  0  0  0  0  0  0  0  0  # atno 6909 bound_to 6896
  144.8177  139.6756  143.6114 H   0  0  0  0  0  0  0  0  0  0  0  0  # atno 7974 bound_to 7965
  155.5474  140.3485  155.4460 H   0  0  0  0  0  0  0  0  0  0  0  0  # atno 8008 bound_to 7997
  156.0608  140.1339  156.9970 H   0  0  0  0  0  0  0  0  0  0  0  0  # atno 8009 bound_to 7997
  154.4478  140.0986  156.6498 H   0  0  0  0  0  0  0  0  0  0  0  0  # atno 8010 bound_to 7997
  139.9318  144.6147  150.8337 H   0  0  0  0  0  0  0  0  0  0  0  0  # atno 10167 bound_to 10162
  156.0354  130.5573  150.7565 H   0  0  0  0  0  0  0  0  0  0  0  0  # atno 10718 bound_to 10713
  154.2116  135.6393  153.5117 H   0  0  0  0  0  0  0  0  0  0  0  0  # atno 10763 bound_to 10752
  152.9988  135.5475  154.6209 H   0  0  0  0  0  0  0  0  0  0  0  0  # atno 10764 bound_to 10752
  154.5647  135.2912  155.0859 H   0  0  0  0  0  0  0  0  0  0  0  0  # atno 10765 bound_to 10752
  141.1389  133.6650  156.5660 H   0  0  0  0  0  0  0  0  0  0  0  0  # atno 11005 bound_to 11000
  146.2481  139.6142  142.9445 LP  0  0  0  0  0  0  0  0  0  0  0  0  # atno 17320 bound_to 7965
  145.5176  141.0433  143.2453 LP  0  0  0  0  0  0  0  0  0  0  0  0  # atno 17321 bound_to 7965
  140.7635  143.3225  151.2589 LP  0  0  0  0  0  0  0  0  0  0  0  0  # atno 17342 bound_to 10162
  139.6776  143.9910  152.2790 LP  0  0  0  0  0  0  0  0  0  0  0  0  # atno 17343 bound_to 10162
  157.5096  131.0924  151.0215 LP  0  0  0  0  0  0  0  0  0  0  0  0  # atno 17370 bound_to 10713
  157.0574  130.5811  149.5380 LP  0  0  0  0  0  0  0  0  0  0  0  0  # atno 17371 bound_to 10713
  140.3950  134.7407  157.4745 LP  0  0  0  0  0  0  0  0  0  0  0  0  # atno 17394 bound_to 11000
  140.0538  134.6093  155.8830 LP  0  0  0  0  0  0  0  0  0  0  0  0  # atno 17395 bound_to 11000

$$$$
