AV-unprocessed.smi:25|AV-procd|sdf|181|dock9
  -GOLD-   2262015443D 1   1.00000     0.00000
 Structure written by MMmdl.
 47 50  0  0  0  0  0  0  0  0  1 V2000
  150.2477  140.4474  155.0721 C   0  0  0  0  0  0  0  0  0  0  0  0
  149.7856  140.9289  156.4619 C   0  0  2  0  0  0  0  0  0  0  0  0
  149.7725  142.4717  156.5493 C   0  0  0  0  0  0  0  0  0  0  0  0
  150.8332  142.7645  157.5649 C   0  0  0  0  0  0  0  0  0  0  0  0
  151.2922  144.0402  157.9358 C   0  0  0  0  0  0  0  0  0  0  0  0
  152.3255  144.1277  158.8897 C   0  0  0  0  0  0  0  0  0  0  0  0
  152.8824  142.9530  159.4410 C   0  0  0  0  0  0  0  0  0  0  0  0
  152.4092  141.6795  159.0555 C   0  0  0  0  0  0  0  0  0  0  0  0
  151.3568  141.5941  158.1122 C   0  0  0  0  0  0  0  0  0  0  0  0
  150.6925  140.4679  157.5386 N   0  0  0  0  0  0  0  0  0  0  0  0
  150.6797  139.1673  157.9422 C   0  0  0  0  0  0  0  0  0  0  0  0
  151.3983  138.7843  158.8689 O   0  0  0  0  0  0  0  0  0  0  0  0
  149.7930  138.1199  157.2408 C   0  0  0  0  0  0  0  0  0  0  0  0
  148.5888  137.7417  158.0175 N   0  0  0  0  0  0  0  0  0  0  0  0
  147.3112  137.9989  157.4606 C   0  0  0  0  0  0  0  0  0  0  0  0
  147.1889  138.5425  156.3618 O   0  0  0  0  0  0  0  0  0  0  0  0
  146.1761  137.5759  158.2709 C   0  0  0  0  0  0  0  0  0  0  0  0
  144.9277  137.7216  157.7955 F   0  0  0  0  0  0  0  0  0  0  0  0
  146.3584  137.0220  159.4869 C   0  0  0  0  0  0  0  0  0  0  0  0
  147.6079  136.8432  160.0540 N   0  0  0  0  0  0  0  0  0  0  0  0
  147.7854  136.1395  161.3844 C   0  0  1  0  0  0  0  0  0  0  0  0
  146.9409  136.7288  162.5279 C   0  0  0  0  0  0  0  0  0  0  0  0
  145.8352  135.7020  162.6764 C   0  0  0  0  0  0  0  0  0  0  0  0
  146.5544  134.4186  162.2809 C   0  0  0  0  0  0  0  0  0  0  0  0
  147.4020  134.8083  161.2081 O   0  0  0  0  0  0  0  0  0  0  0  0
  148.7594  137.1564  159.2960 C   0  0  0  0  0  0  0  0  0  0  0  0
  149.8880  136.9345  159.7404 O   0  0  0  0  0  0  0  0  0  0  0  0
  149.6000  140.8430  154.2896 H   0  0  0  0  0  0  0  0  0  0  0  0
  150.2266  139.3613  154.9877 H   0  0  0  0  0  0  0  0  0  0  0  0
  151.2651  140.7769  154.8587 H   0  0  0  0  0  0  0  0  0  0  0  0
  148.7733  140.5638  156.6463 H   0  0  0  0  0  0  0  0  0  0  0  0
  150.0025  142.9548  155.5989 H   0  0  0  0  0  0  0  0  0  0  0  0
  148.8109  142.8442  156.9040 H   0  0  0  0  0  0  0  0  0  0  0  0
  150.8688  144.9313  157.4962 H   0  0  0  0  0  0  0  0  0  0  0  0
  152.6997  145.0947  159.1919 H   0  0  0  0  0  0  0  0  0  0  0  0
  153.6833  143.0294  160.1613 H   0  0  0  0  0  0  0  0  0  0  0  0
  152.8882  140.8223  159.4928 H   0  0  0  0  0  0  0  0  0  0  0  0
  149.4969  138.5164  156.2697 H   0  0  0  0  0  0  0  0  0  0  0  0
  150.3895  137.2318  157.0304 H   0  0  0  0  0  0  0  0  0  0  0  0
  145.4762  136.7078  160.0209 H   0  0  0  0  0  0  0  0  0  0  0  0
  148.8467  136.2107  161.6268 H   0  0  0  0  0  0  0  0  0  0  0  0
  147.5548  136.7408  163.4294 H   0  0  0  0  0  0  0  0  0  0  0  0
  146.6032  137.7479  162.3406 H   0  0  0  0  0  0  0  0  0  0  0  0
  145.4205  135.6635  163.6839 H   0  0  0  0  0  0  0  0  0  0  0  0
  145.0209  135.9055  161.9809 H   0  0  0  0  0  0  0  0  0  0  0  0
  147.1680  134.0527  163.1057 H   0  0  0  0  0  0  0  0  0  0  0  0
  145.8694  133.6242  161.9840 H   0  0  0  0  0  0  0  0  0  0  0  0
  1  2  1  0  0  0  0
  1 28  1  0  0  0  0
  1 29  1  0  0  0  0
  1 30  1  0  0  0  0
  2 10  1  0  0  0  0
  2  3  1  0  0  0  0
  2 31  1  0  0  0  0
  3  4  1  0  0  0  0
  3 32  1  0  0  0  0
  3 33  1  0  0  0  0
  4  9  2  0  0  0  0
  4  5  1  0  0  0  0
  5  6  2  0  0  0  0
  5 34  1  0  0  0  0
  6  7  1  0  0  0  0
  6 35  1  0  0  0  0
  7  8  2  0  0  0  0
  7 36  1  0  0  0  0
  8  9  1  0  0  0  0
  8 37  1  0  0  0  0
  9 10  1  0  0  0  0
 10 11  1  0  0  0  0
 11 12  2  0  0  0  0
 11 13  1  0  0  0  0
 13 14  1  0  0  0  0
 13 38  1  0  0  0  0
 13 39  1  0  0  0  0
 14 26  1  0  0  0  0
 14 15  1  0  0  0  0
 15 16  2  0  0  0  0
 15 17  1  0  0  0  0
 17 18  1  0  0  0  0
 17 19  2  0  0  0  0
 19 20  1  0  0  0  0
 19 40  1  0  0  0  0
 20 21  1  0  0  0  0
 20 26  1  0  0  0  0
 21 25  1  0  0  0  0
 21 22  1  0  0  0  0
 21 41  1  0  0  0  0
 22 23  1  0  0  0  0
 22 42  1  0  0  0  0
 22 43  1  0  0  0  0
 23 24  1  0  0  0  0
 23 44  1  0  0  0  0
 23 45  1  0  0  0  0
 24 25  1  0  0  0  0
 24 46  1  0  0  0  0
 24 47  1  0  0  0  0
 26 27  2  0  0  0  0
M  END
> <s_m_source_file>
AV-unprocessed.smi

> <i_m_source_file_index>
25

> <i_lp_mmshare_version>
43012

> <i_f3d_flags>
0

> <s_epik_input>
W2NIXTFbY0hdW2NIXVtjSF1jKGMxMilOKFtDQEhdKFtDSDNdKVtDSDJdMilDKD1PKVtDSDJdbjNjKD1PKWMoRilbY0hdbihjMz1PKVtDQEBIXTRbQ0gyXVtDSDJdW0NIMl1PNA==

> <s_epik_cmdline>
J2VwaWtfcHl0aG9uJywgJy1waCcsICc3LjAnLCAnLXRuJywgJzgnLCAnLW1hJywgJzIwMCcsICctbWV0YWxfYmluZGluZycsICctaW1hZScsICc8aW5maWxlLm1hZT4nLCAnLW9tYWUnLCAnPG91dGZpbGUubWFlPic=

> <r_lp_tautomer_probability>
1

> <r_epik_Ionization_Penalty>
1.67943e-06

> <r_epik_Ionization_Penalty_Charging>
3.79603e-09

> <r_epik_Ionization_Penalty_Neutral>
1.67563e-06

> <r_epik_State_Penalty>
-0

> <r_epik_Charging_Adjusted_Penalty>
3.79603e-09

> <i_epik_Tot_Q>
0

> <i_epik_Tot_abs_Q>
0

> <r_epik_Metal_State_Penalty>
-0

> <b_epik_Metal_Only>
0

> <s_epik_Chemistry_Notes>
This compound contains an acetal/aminal-like group ( X-CH(R)-Y where X, Y are N, S, or O) that may be acid/base labile, releasing an aldehyde.

> <s_lp_Force_Field>
OPLS_2005

> <r_lp_Energy>
54.5982

> <b_lp_Chiralities_Consistent>
1

> <s_lp_Variant>
AV-unprocessed.smi:25-3

> <Gold.Version>
5.8.1

> <Gold.Id.Protein>
6NUR|6NUR_protein|mol2

> <Gold.PLP.Fitness>
49.7209

> <Gold.PLP.PLP>
-47.4858

> <Gold.PLP.part.hbond>
-1.9949

> <Gold.PLP.part.metal>
0.0000

> <Gold.PLP.part.buried>
-4.0159

> <Gold.PLP.part.nonpolar>
-42.5557

> <Gold.PLP.part.repulsive>
0.0201

> <Gold.PLP.ligand.clash>
0.0000

> <Gold.PLP.ligand.torsion>
0.4334

> <Gold.PLP.Chemscore.Hbond>
1.0000

> <Gold.PLP.Chemscore.CHOScore>
0.0000

> <Gold.PLP.Chemscore.Metal>
0.0000

> <Gold.Chemscore.Hbonds>
donor molecule, donor type, donor heavy atom, donor atom, acceptor molecule, acceptor atom, score
      P1  H  6896  6909       L1    27  0.54

> <Gold.PLP.Chemscore.Internal.Correction>
0.1018

> <Gold.Rescore>
     Score         DG    S(hbond)    S(metal)    S(lipo)     H(rot)  DE(clash)    DE(int)     intcor
     13.64     -17.71       0.99        0.00     110.06       1.55       0.30       3.77       ----

> <Gold.Chemscore.Fitness>
13.6360

> <Gold.Chemscore.DG>
-17.7058

> <Gold.Chemscore.ZeroCoef>
-5.4800

> <Gold.Chemscore.Hbond>
0.9922

> <Gold.Chemscore.Metal>
0.0000

> <Gold.Chemscore.Lipo>
110.0606

> <Gold.Chemscore.Internal_Hbond>
0.0000

> <Gold.Chemscore.DEClash>
0.3028

> <Gold.Chemscore.DEInternal>
3.7670

> <Gold.Chemscore.Rot>
1.5489

> <Gold.Chemscore.Internal.Correction>
   9.000000E+99

> <Gold.Chemscore.Hbonds>
donor molecule, donor type, donor heavy atom, donor atom, acceptor molecule, acceptor atom, score
      P1  H  6896  6909       L1    27  0.54

> <Gold.Chemscore.Hbond.Weighted>
-3.3138

> <Gold.Chemscore.Metal.Weighted>
-0.0000

> <Gold.Chemscore.Lipo.Weighted>
-12.8771

> <Gold.Chemscore.Internal_Hbond.Weighted>
0.0000

> <Gold.Chemscore.DEClash.Weighted>
0.3028

> <Gold.Chemscore.DEInternal.Weighted>
3.7670

> <Gold.Chemscore.Rot.Weighted>
3.9651

> <Gold.Chemscore.Internal.Correction.Weighted>
   9.000000E+99

> <Gold.Protein.RotatedTorsions>
[ 6907 6896 6895 6894 ] final   85.13 input  -60.11 | X-H torsion
[ 7974 7965 7964 7962 ] final  -45.01 input  175.53 | X-H torsion
[ 8008 7997 7996 7995 ] final   27.37 input   59.86 | X-H torsion
[ 10167 10162 10161 10158 ] final  105.34 input  -65.29 | X-H torsion
[ 10718 10713 10712 10709 ] final   95.89 input   66.30 | X-H torsion
[ 10763 10752 10751 10750 ] final  126.99 input  -60.55 | X-H torsion
[ 11005 11000 10999 10996 ] final  137.89 input  -57.11 | X-H torsion

> <Gold.Protein.ActiveResidues>
 VAL166  LYS551  ARG553  GLY616  TRP617  ASP618  TYR619  PRO620  LYS621  CYS622 
 ASP623  PHE694  ASN695  SER759  ASP760  ASP761  ALA762  ILE779  LEU786  VAL792 
 PHE793  MET794  SER795  GLU796  ALA797  LYS798  CYS799  TRP800  GLU811  SER814 

> <Gold.Protein.RotatedAtoms>
  152.5368  134.2634  159.8943 H   0  0  0  0  0  0  0  0  0  0  0  0  # atno 6907 bound_to 6896
  151.2593  133.4303  159.2623 H   0  0  0  0  0  0  0  0  0  0  0  0  # atno 6908 bound_to 6896
  151.0468  134.9659  159.8247 H   0  0  0  0  0  0  0  0  0  0  0  0  # atno 6909 bound_to 6896
  145.9863  140.7229  142.9339 H   0  0  0  0  0  0  0  0  0  0  0  0  # atno 7974 bound_to 7965
  155.0419  140.3170  155.4722 H   0  0  0  0  0  0  0  0  0  0  0  0  # atno 8008 bound_to 7997
  156.2853  140.2161  156.5486 H   0  0  0  0  0  0  0  0  0  0  0  0  # atno 8009 bound_to 7997
  154.7283  140.0483  157.0691 H   0  0  0  0  0  0  0  0  0  0  0  0  # atno 8010 bound_to 7997
  139.7101  144.7079  151.1041 H   0  0  0  0  0  0  0  0  0  0  0  0  # atno 10167 bound_to 10162
  157.6933  131.0560  150.4408 H   0  0  0  0  0  0  0  0  0  0  0  0  # atno 10718 bound_to 10713
  153.7021  135.3282  155.3227 H   0  0  0  0  0  0  0  0  0  0  0  0  # atno 10763 bound_to 10752
  154.8410  135.4457  154.1400 H   0  0  0  0  0  0  0  0  0  0  0  0  # atno 10764 bound_to 10752
  153.2470  135.6977  153.7799 H   0  0  0  0  0  0  0  0  0  0  0  0  # atno 10765 bound_to 10752
  140.0145  134.9424  157.0348 H   0  0  0  0  0  0  0  0  0  0  0  0  # atno 11005 bound_to 11000
  144.6876  140.2994  143.7265 LP  0  0  0  0  0  0  0  0  0  0  0  0  # atno 17320 bound_to 7965
  145.7695  139.1852  143.2220 LP  0  0  0  0  0  0  0  0  0  0  0  0  # atno 17321 bound_to 7965
  140.7731  143.5305  150.9429 LP  0  0  0  0  0  0  0  0  0  0  0  0  # atno 17342 bound_to 10162
  139.8989  143.6860  152.3134 LP  0  0  0  0  0  0  0  0  0  0  0  0  # atno 17343 bound_to 10162
  156.4767  130.4064  149.6486 LP  0  0  0  0  0  0  0  0  0  0  0  0  # atno 17370 bound_to 10713
  156.3546  130.7450  151.2414 LP  0  0  0  0  0  0  0  0  0  0  0  0  # atno 17371 bound_to 10713
  140.4495  134.1597  155.7180 LP  0  0  0  0  0  0  0  0  0  0  0  0  # atno 17394 bound_to 11000
  141.1734  133.8564  157.1500 LP  0  0  0  0  0  0  0  0  0  0  0  0  # atno 17395 bound_to 11000

$$$$
