AV-unprocessed.smi:2279|AV-procd|sdf|9190|dock4
  -GOLD-   2272012403D 1   1.00000     0.00000
 Structure written by MMmdl.
 57 59  0  0  0  0  0  0  0  0  2 V2000
  146.3055  132.8324  161.9113 C   0  0  0  0  0  0  0  0  0  0  0  0
  146.9402  134.1960  161.7349 C   0  0  0  0  0  0  0  0  0  0  0  0
  147.0744  135.0780  162.8243 C   0  0  0  0  0  0  0  0  0  0  0  0
  147.6745  136.3313  162.5943 C   0  0  0  0  0  0  0  0  0  0  0  0
  147.8494  137.3292  163.7195 C   0  0  0  0  0  0  0  0  0  0  0  0
  148.1191  136.7236  161.3814 N   0  0  0  0  0  0  0  0  0  0  0  0
  147.9933  135.8836  160.3244 C   0  0  0  0  0  0  0  0  0  0  0  0
  148.4208  136.2049  159.0082 N   0  0  0  0  0  0  0  0  0  0  0  0
  149.1623  137.2541  158.6108 C   0  0  0  0  0  0  0  0  0  0  0  0
  149.6410  138.1113  159.3540 O   0  0  0  0  0  0  0  0  0  0  0  0
  149.3239  137.2632  157.2790 N   0  0  0  0  0  0  0  0  0  0  0  0
  150.0688  138.2754  156.5351 C   0  0  2  0  0  0  0  0  0  0  0  0
  151.4384  138.5482  157.1910 C   0  0  0  0  0  0  0  0  0  0  0  0
  152.1647  139.7107  156.4892 C   0  0  0  0  0  0  0  0  0  0  0  0
  151.3477  140.9575  156.4988 N   0  3  2  0  0  0  0  0  0  0  0  0
  151.2161  141.6335  157.8342 C   0  0  0  0  0  0  0  0  0  0  0  0
  150.8497  143.1302  157.6920 C   0  0  0  0  0  0  0  0  0  0  0  0
  150.8273  143.8551  159.0482 C   0  0  0  0  0  0  0  0  0  0  0  0
  152.1306  143.7477  159.6971 N   0  0  0  0  0  0  0  0  0  0  0  0
  152.1103  144.4994  160.9442 C   0  0  0  0  0  0  0  0  0  0  0  0
  152.4153  142.3448  159.9837 C   0  0  0  0  0  0  0  0  0  0  0  0
  152.5144  141.5468  158.6727 C   0  0  0  0  0  0  0  0  0  0  0  0
  150.0615  140.7053  155.7868 C   0  0  0  0  0  0  0  0  0  0  0  0
  149.2478  139.5751  156.4486 C   0  0  0  0  0  0  0  0  0  0  0  0
  147.4072  134.6062  160.4699 C   0  0  0  0  0  0  0  0  0  0  0  0
  146.0034  132.6656  162.9457 H   0  0  0  0  0  0  0  0  0  0  0  0
  147.0100  132.0489  161.6313 H   0  0  0  0  0  0  0  0  0  0  0  0
  145.4219  132.7423  161.2790 H   0  0  0  0  0  0  0  0  0  0  0  0
  146.7271  134.8017  163.8094 H   0  0  0  0  0  0  0  0  0  0  0  0
  147.6690  136.8655  164.6898 H   0  0  0  0  0  0  0  0  0  0  0  0
  147.1509  138.1578  163.6004 H   0  0  0  0  0  0  0  0  0  0  0  0
  148.8630  137.7317  163.7199 H   0  0  0  0  0  0  0  0  0  0  0  0
  148.1084  135.5737  158.2855 H   0  0  0  0  0  0  0  0  0  0  0  0
  148.9024  136.5188  156.7426 H   0  0  0  0  0  0  0  0  0  0  0  0
  150.2328  137.9132  155.5182 H   0  0  0  0  0  0  0  0  0  0  0  0
  151.3125  138.7706  158.2512 H   0  0  0  0  0  0  0  0  0  0  0  0
  152.0614  137.6546  157.1418 H   0  0  0  0  0  0  0  0  0  0  0  0
  153.1569  139.8641  156.9089 H   0  0  0  0  0  0  0  0  0  0  0  0
  152.3479  139.4337  155.4500 H   0  0  0  0  0  0  0  0  0  0  0  0
  150.4240  141.1453  158.4019 H   0  0  0  0  0  0  0  0  0  0  0  0
  151.5560  143.6269  157.0248 H   0  0  0  0  0  0  0  0  0  0  0  0
  149.8622  143.2512  157.2499 H   0  0  0  0  0  0  0  0  0  0  0  0
  150.5851  144.9072  158.8912 H   0  0  0  0  0  0  0  0  0  0  0  0
  150.0478  143.4393  159.6892 H   0  0  0  0  0  0  0  0  0  0  0  0
  153.0768  144.4357  161.4455 H   0  0  0  0  0  0  0  0  0  0  0  0
  151.3463  144.1222  161.6256 H   0  0  0  0  0  0  0  0  0  0  0  0
  151.9068  145.5535  160.7522 H   0  0  0  0  0  0  0  0  0  0  0  0
  153.3592  142.2685  160.5252 H   0  0  0  0  0  0  0  0  0  0  0  0
  151.6418  141.9235  160.6283 H   0  0  0  0  0  0  0  0  0  0  0  0
  152.7336  140.5153  158.9457 H   0  0  0  0  0  0  0  0  0  0  0  0
  153.3630  141.9074  158.0893 H   0  0  0  0  0  0  0  0  0  0  0  0
  149.4626  141.6078  155.6878 H   0  0  0  0  0  0  0  0  0  0  0  0
  150.2944  140.4162  154.7609 H   0  0  0  0  0  0  0  0  0  0  0  0
  148.3377  139.3976  155.8743 H   0  0  0  0  0  0  0  0  0  0  0  0
  148.9212  139.8833  157.4424 H   0  0  0  0  0  0  0  0  0  0  0  0
  147.3124  133.9456  159.6201 H   0  0  0  0  0  0  0  0  0  0  0  0
  151.8543  141.6165  155.9246 H   0  0  0  0  0  0  0  0  0  0  0  0
  1  2  1  0  0  0  0
  1 26  1  0  0  0  0
  1 27  1  0  0  0  0
  1 28  1  0  0  0  0
  2 25  1  0  0  0  0
  2  3  2  0  0  0  0
  3  4  1  0  0  0  0
  3 29  1  0  0  0  0
  4  5  1  0  0  0  0
  4  6  2  0  0  0  0
  5 30  1  0  0  0  0
  5 31  1  0  0  0  0
  5 32  1  0  0  0  0
  6  7  1  0  0  0  0
  7  8  1  0  0  0  0
  7 25  2  0  0  0  0
  8  9  1  0  0  0  0
  8 33  1  0  0  0  0
  9 10  2  0  0  0  0
  9 11  1  0  0  0  0
 11 12  1  0  0  0  0
 11 34  1  0  0  0  0
 12 24  1  0  0  0  0
 12 13  1  0  0  0  0
 12 35  1  0  0  0  0
 13 14  1  0  0  0  0
 13 36  1  0  0  0  0
 13 37  1  0  0  0  0
 14 15  1  0  0  0  0
 14 38  1  0  0  0  0
 14 39  1  0  0  0  0
 15 16  1  0  0  0  0
 15 23  1  0  0  0  0
 15 57  1  0  0  0  0
 16 22  1  0  0  0  0
 16 17  1  0  0  0  0
 16 40  1  0  0  0  0
 17 18  1  0  0  0  0
 17 41  1  0  0  0  0
 17 42  1  0  0  0  0
 18 19  1  0  0  0  0
 18 43  1  0  0  0  0
 18 44  1  0  0  0  0
 19 20  1  0  0  0  0
 19 21  1  0  0  0  0
 20 45  1  0  0  0  0
 20 46  1  0  0  0  0
 20 47  1  0  0  0  0
 21 22  1  0  0  0  0
 21 48  1  0  0  0  0
 21 49  1  0  0  0  0
 22 50  1  0  0  0  0
 22 51  1  0  0  0  0
 23 24  1  0  0  0  0
 23 52  1  0  0  0  0
 23 53  1  0  0  0  0
 24 54  1  0  0  0  0
 24 55  1  0  0  0  0
 25 56  1  0  0  0  0
M  CHG  1  15   1
M  END
> <s_m_source_file>
AV-unprocessed.smi

> <i_m_source_file_index>
2279

> <i_lp_mmshare_version>
43012

> <i_f3d_flags>
0

> <s_epik_input>
W0NIM11jMVtjSF1jKFtDSDNdKW5jKFtjSF0xKVtOSF1DKD1PKVtOSF1bQ0hdMltDSDJdW0NIMl1OKFtDSDJdW0NIMl0yKVtDSF0zW0NIMl1bQ0gyXU4oW0NIM10pW0NIMl1bQ0gyXTM=

> <s_epik_cmdline>
J2VwaWtfcHl0aG9uJywgJy1waCcsICc3LjAnLCAnLXRuJywgJzgnLCAnLW1hJywgJzIwMCcsICctbWV0YWxfYmluZGluZycsICctaW1hZScsICc8aW5maWxlLm1hZT4nLCAnLW9tYWUnLCAnPG91dGZpbGUubWFlPic=

> <r_epik_Ionization_Penalty>
1.37263

> <r_epik_Ionization_Penalty_Charging>
0.00081195

> <r_epik_Ionization_Penalty_Neutral>
1.37182

> <r_epik_State_Penalty>
1.55149

> <r_epik_Charging_Adjusted_Penalty>
1.5523

> <i_epik_Tot_Q>
1

> <i_epik_Tot_abs_Q>
1

> <r_epik_Metal_State_Penalty>
1.5515

> <b_epik_Metal_Only>
0

> <s_lp_Force_Field>
OPLS_2005

> <r_lp_Energy>
33.7825

> <b_lp_Chiralities_Consistent>
1

> <s_lp_Variant>
AV-unprocessed.smi:2279-8

> <Gold.Version>
5.8.1

> <Gold.Id.Protein>
6NUR|6NUR_protein|mol2

> <Gold.PLP.Fitness>
46.7733

> <Gold.PLP.PLP>
-44.9046

> <Gold.PLP.part.hbond>
-2.1022

> <Gold.PLP.part.metal>
0.0000

> <Gold.PLP.part.buried>
-4.5793

> <Gold.PLP.part.nonpolar>
-38.4666

> <Gold.PLP.part.repulsive>
0.2684

> <Gold.PLP.ligand.clash>
0.0000

> <Gold.PLP.ligand.torsion>
0.5145

> <Gold.PLP.Chemscore.Hbond>
0.9500

> <Gold.PLP.Chemscore.CHOScore>
0.0000

> <Gold.PLP.Chemscore.Metal>
0.0000

> <Gold.Chemscore.Hbonds>
donor molecule, donor type, donor heavy atom, donor atom, acceptor molecule, acceptor atom, score
      P1  H  6931  6943       L1     6  0.90

> <Gold.PLP.Chemscore.Internal.Correction>
0.0476

> <Gold.Rescore>
     Score         DG    S(hbond)    S(metal)    S(lipo)     H(rot)  DE(clash)    DE(int)     intcor
     16.57     -19.43       0.68        0.00     125.87       1.19       0.32       2.55       ----

> <Gold.Chemscore.Fitness>
16.5652

> <Gold.Chemscore.DG>
-19.4326

> <Gold.Chemscore.ZeroCoef>
-5.4800

> <Gold.Chemscore.Hbond>
0.6812

> <Gold.Chemscore.Metal>
0.0000

> <Gold.Chemscore.Lipo>
125.8735

> <Gold.Chemscore.Internal_Hbond>
0.0000

> <Gold.Chemscore.DEClash>
0.3211

> <Gold.Chemscore.DEInternal>
2.5463

> <Gold.Chemscore.Rot>
1.1913

> <Gold.Chemscore.Internal.Correction>
   9.000000E+99

> <Gold.Chemscore.Hbonds>
donor molecule, donor type, donor heavy atom, donor atom, acceptor molecule, acceptor atom, score
      P1  H  6931  6943       L1     6  0.18

> <Gold.Chemscore.Hbond.Weighted>
-2.2751

> <Gold.Chemscore.Metal.Weighted>
-0.0000

> <Gold.Chemscore.Lipo.Weighted>
-14.7272

> <Gold.Chemscore.Internal_Hbond.Weighted>
0.0000

> <Gold.Chemscore.DEClash.Weighted>
0.3211

> <Gold.Chemscore.DEInternal.Weighted>
2.5463

> <Gold.Chemscore.Rot.Weighted>
3.0497

> <Gold.Chemscore.Internal.Correction.Weighted>
   9.000000E+99

> <Gold.Protein.RotatedTorsions>
[ 6907 6896 6895 6894 ] final -161.35 input  -60.11 | X-H torsion
[ 7974 7965 7964 7962 ] final   88.57 input  175.53 | X-H torsion
[ 8008 7997 7996 7995 ] final -161.95 input   59.86 | X-H torsion
[ 10167 10162 10161 10158 ] final  -90.43 input  -65.29 | X-H torsion
[ 10718 10713 10712 10709 ] final -152.40 input   66.30 | X-H torsion
[ 10763 10752 10751 10750 ] final -145.81 input  -60.55 | X-H torsion
[ 11005 11000 10999 10996 ] final -120.62 input  -57.11 | X-H torsion

> <Gold.Protein.ActiveResidues>
 VAL166  LYS551  ARG553  GLY616  TRP617  ASP618  TYR619  PRO620  LYS621  CYS622 
 ASP623  PHE694  ASN695  SER759  ASP760  ASP761  ALA762  ILE779  LEU786  VAL792 
 PHE793  MET794  SER795  GLU796  ALA797  LYS798  CYS799  TRP800  GLU811  SER814 

> <Gold.Protein.RotatedAtoms>
  151.3632  133.3881  159.2691 H   0  0  0  0  0  0  0  0  0  0  0  0  # atno 6907 bound_to 6896
  150.9709  134.9083  159.7797 H   0  0  0  0  0  0  0  0  0  0  0  0  # atno 6908 bound_to 6896
  152.5184  134.3594  159.9332 H   0  0  0  0  0  0  0  0  0  0  0  0  # atno 6909 bound_to 6896
  145.5438  139.2290  143.2550 H   0  0  0  0  0  0  0  0  0  0  0  0  # atno 7974 bound_to 7965
  155.7997  140.0890  157.1964 H   0  0  0  0  0  0  0  0  0  0  0  0  # atno 8008 bound_to 7997
  154.3982  140.1474  156.3318 H   0  0  0  0  0  0  0  0  0  0  0  0  # atno 8009 bound_to 7997
  155.8475  140.3436  155.5674 H   0  0  0  0  0  0  0  0  0  0  0  0  # atno 8010 bound_to 7997
  140.3549  143.2871  151.9682 H   0  0  0  0  0  0  0  0  0  0  0  0  # atno 10167 bound_to 10162
  156.4720  130.8263  151.2492 H   0  0  0  0  0  0  0  0  0  0  0  0  # atno 10718 bound_to 10713
  154.8366  135.3403  154.6563 H   0  0  0  0  0  0  0  0  0  0  0  0  # atno 10763 bound_to 10752
  153.7177  135.6960  153.5025 H   0  0  0  0  0  0  0  0  0  0  0  0  # atno 10764 bound_to 10752
  153.2404  135.4386  155.0645 H   0  0  0  0  0  0  0  0  0  0  0  0  # atno 10765 bound_to 10752
  141.0130  134.0237  157.3388 H   0  0  0  0  0  0  0  0  0  0  0  0  # atno 11005 bound_to 11000
  146.1963  140.6259  142.9123 LP  0  0  0  0  0  0  0  0  0  0  0  0  # atno 17320 bound_to 7965
  144.7563  140.5316  143.6766 LP  0  0  0  0  0  0  0  0  0  0  0  0  # atno 17321 bound_to 7965
  139.4821  144.6043  151.7549 LP  0  0  0  0  0  0  0  0  0  0  0  0  # atno 17342 bound_to 10162
  140.5183  144.0919  150.6015 LP  0  0  0  0  0  0  0  0  0  0  0  0  # atno 17343 bound_to 10162
  157.7490  131.0073  150.3184 LP  0  0  0  0  0  0  0  0  0  0  0  0  # atno 17370 bound_to 10713
  156.3608  130.3847  149.7252 LP  0  0  0  0  0  0  0  0  0  0  0  0  # atno 17371 bound_to 10713
  139.9101  135.0188  156.7653 LP  0  0  0  0  0  0  0  0  0  0  0  0  # atno 17394 bound_to 11000
  140.6702  133.9566  155.7852 LP  0  0  0  0  0  0  0  0  0  0  0  0  # atno 17395 bound_to 11000

$$$$
