AV-unprocessed.smi:1378|AV-procd|sdf|5596|dock9
  -GOLD-   22720 5203D 1   1.00000     0.00000
 Structure written by MMmdl.
 46 48  0  0  0  0  0  0  0  0  1 V2000
  157.1911  140.5382  159.6048 C   0  0  0  0  0  0  0  0  0  0  0  0
  156.6074  140.8008  160.8681 O   0  0  0  0  0  0  0  0  0  0  0  0
  155.6648  139.8119  161.2497 C   0  0  0  0  0  0  0  0  0  0  0  0
  155.1641  140.1007  162.6711 C   0  0  0  0  0  0  0  0  0  0  0  0
  154.3842  141.3274  162.7343 N   0  0  0  0  0  0  0  0  0  0  0  0
  154.2772  142.1929  163.7715 C   0  0  0  0  0  0  0  0  0  0  0  0
  155.1525  141.9516  165.2834 S   0  0  0  0  0  0  0  0  0  0  0  0
  155.2023  143.6826  165.8420 C   0  0  0  0  0  0  0  0  0  0  0  0
  155.4516  143.8152  167.3449 C   0  0  0  0  0  0  0  0  0  0  0  0
  154.8168  143.1228  168.1396 O   0  0  0  0  0  0  0  0  0  0  0  0
  156.4015  144.6884  167.7132 N   0  0  0  0  0  0  0  0  0  0  0  0
  156.8904  144.8919  169.0725 C   0  0  0  0  0  0  0  0  0  0  0  0
  158.0518  145.9029  169.1011 C   0  0  0  0  0  0  0  0  0  0  0  0
  159.3140  145.0815  169.3649 C   0  0  0  0  0  0  0  0  0  0  0  0
  158.8273  143.9156  170.2198 C   0  0  0  0  0  0  0  0  0  0  0  0
  157.4506  143.5759  169.6469 C   0  0  0  0  0  0  0  0  0  0  0  0
  153.4996  143.2550  163.5616 N   0  0  0  0  0  0  0  0  0  0  0  0
  153.0639  143.0611  162.2655 C   0  0  0  0  0  0  0  0  0  0  0  0
  152.2171  143.8492  161.4537 C   0  0  0  0  0  0  0  0  0  0  0  0
  151.9146  143.4465  160.1364 C   0  0  0  0  0  0  0  0  0  0  0  0
  152.4521  142.2526  159.6134 C   0  0  0  0  0  0  0  0  0  0  0  0
  153.2979  141.4529  160.4054 C   0  0  0  0  0  0  0  0  0  0  0  0
  153.5988  141.8609  161.7185 C   0  0  0  0  0  0  0  0  0  0  0  0
  157.9094  141.3218  159.3642 H   0  0  0  0  0  0  0  0  0  0  0  0
  156.4361  140.5206  158.8179 H   0  0  0  0  0  0  0  0  0  0  0  0
  157.7204  139.5844  159.6049 H   0  0  0  0  0  0  0  0  0  0  0  0
  154.8256  139.8064  160.5521 H   0  0  0  0  0  0  0  0  0  0  0  0
  156.1255  138.8238  161.2139 H   0  0  0  0  0  0  0  0  0  0  0  0
  154.5623  139.2706  163.0417 H   0  0  0  0  0  0  0  0  0  0  0  0
  156.0091  140.1892  163.3544 H   0  0  0  0  0  0  0  0  0  0  0  0
  155.9686  144.2223  165.2841 H   0  0  0  0  0  0  0  0  0  0  0  0
  154.2491  144.1523  165.5981 H   0  0  0  0  0  0  0  0  0  0  0  0
  156.8615  145.2154  166.9849 H   0  0  0  0  0  0  0  0  0  0  0  0
  156.0815  145.2484  169.7129 H   0  0  0  0  0  0  0  0  0  0  0  0
  158.1320  146.4983  168.1907 H   0  0  0  0  0  0  0  0  0  0  0  0
  157.8989  146.6001  169.9259 H   0  0  0  0  0  0  0  0  0  0  0  0
  159.7115  144.7049  168.4215 H   0  0  0  0  0  0  0  0  0  0  0  0
  160.0991  145.6609  169.8513 H   0  0  0  0  0  0  0  0  0  0  0  0
  159.5106  143.0659  170.2017 H   0  0  0  0  0  0  0  0  0  0  0  0
  158.7247  144.2395  171.2562 H   0  0  0  0  0  0  0  0  0  0  0  0
  156.7913  143.1405  170.3985 H   0  0  0  0  0  0  0  0  0  0  0  0
  157.5717  142.8310  168.8588 H   0  0  0  0  0  0  0  0  0  0  0  0
  151.8005  144.7656  161.8445 H   0  0  0  0  0  0  0  0  0  0  0  0
  151.2660  144.0561  159.5246 H   0  0  0  0  0  0  0  0  0  0  0  0
  152.2142  141.9510  158.6038 H   0  0  0  0  0  0  0  0  0  0  0  0
  153.7107  140.5371  160.0088 H   0  0  0  0  0  0  0  0  0  0  0  0
  1  2  1  0  0  0  0
  1 24  1  0  0  0  0
  1 25  1  0  0  0  0
  1 26  1  0  0  0  0
  2  3  1  0  0  0  0
  3  4  1  0  0  0  0
  3 27  1  0  0  0  0
  3 28  1  0  0  0  0
  4  5  1  0  0  0  0
  4 29  1  0  0  0  0
  4 30  1  0  0  0  0
  5 23  1  0  0  0  0
  5  6  1  0  0  0  0
  6  7  1  0  0  0  0
  6 17  2  0  0  0  0
  7  8  1  0  0  0  0
  8  9  1  0  0  0  0
  8 31  1  0  0  0  0
  8 32  1  0  0  0  0
  9 10  2  0  0  0  0
  9 11  1  0  0  0  0
 11 12  1  0  0  0  0
 11 33  1  0  0  0  0
 12 16  1  0  0  0  0
 12 13  1  0  0  0  0
 12 34  1  0  0  0  0
 13 14  1  0  0  0  0
 13 35  1  0  0  0  0
 13 36  1  0  0  0  0
 14 15  1  0  0  0  0
 14 37  1  0  0  0  0
 14 38  1  0  0  0  0
 15 16  1  0  0  0  0
 15 39  1  0  0  0  0
 15 40  1  0  0  0  0
 16 41  1  0  0  0  0
 16 42  1  0  0  0  0
 17 18  1  0  0  0  0
 18 23  2  0  0  0  0
 18 19  1  0  0  0  0
 19 20  2  0  0  0  0
 19 43  1  0  0  0  0
 20 21  1  0  0  0  0
 20 44  1  0  0  0  0
 21 22  2  0  0  0  0
 21 45  1  0  0  0  0
 22 23  1  0  0  0  0
 22 46  1  0  0  0  0
M  END
> <s_m_source_file>
AV-unprocessed.smi

> <i_m_source_file_index>
1378

> <i_lp_mmshare_version>
43012

> <i_f3d_flags>
0

> <s_epik_input>
W2NIXTFbY0hdW2NIXVtjSF1jKGMxMiluKFtDSDJdW0NIMl1PW0NIM10pYyhuMilTW0NIMl1DKD1PKVtOSF1bQ0hdM1tDSDJdW0NIMl1bQ0gyXVtDSDJdMw==

> <s_epik_cmdline>
J2VwaWtfcHl0aG9uJywgJy1waCcsICc3LjAnLCAnLXRuJywgJzgnLCAnLW1hJywgJzIwMCcsICctbWV0YWxfYmluZGluZycsICctaW1hZScsICc8aW5maWxlLm1hZT4nLCAnLW9tYWUnLCAnPG91dGZpbGUubWFlPic=

> <r_epik_Ionization_Penalty>
0.0369383

> <r_epik_Ionization_Penalty_Charging>
0

> <r_epik_Ionization_Penalty_Neutral>
0.0369383

> <r_epik_State_Penalty>
0.0308874

> <r_epik_Charging_Adjusted_Penalty>
0.0308874

> <i_epik_Tot_Q>
0

> <i_epik_Tot_abs_Q>
0

> <r_epik_Metal_State_Penalty>
0.0290628

> <b_epik_Metal_Only>
0

> <s_lp_Force_Field>
OPLS_2005

> <r_lp_Energy>
18.5214

> <b_lp_Chiralities_Consistent>
1

> <s_lp_Variant>
AV-unprocessed.smi:1378-1

> <Gold.Version>
5.8.1

> <Gold.Id.Protein>
6NUR|6NUR_protein|mol2

> <Gold.PLP.Fitness>
49.8082

> <Gold.PLP.PLP>
-51.6341

> <Gold.PLP.part.hbond>
-2.0000

> <Gold.PLP.part.metal>
0.0000

> <Gold.PLP.part.buried>
-2.4999

> <Gold.PLP.part.nonpolar>
-45.0593

> <Gold.PLP.part.repulsive>
0.2432

> <Gold.PLP.ligand.clash>
0.0000

> <Gold.PLP.ligand.torsion>
0.9722

> <Gold.PLP.Chemscore.Hbond>
0.0000

> <Gold.PLP.Chemscore.CHOScore>
0.0000

> <Gold.PLP.Chemscore.Metal>
0.0000

> <Gold.PLP.Chemscore.Internal.Correction>
0.1185

> <Gold.Rescore>
     Score         DG    S(hbond)    S(metal)    S(lipo)     H(rot)  DE(clash)    DE(int)     intcor
     11.14     -14.84       0.00        0.00     123.32       1.98       1.72       1.98       ----

> <Gold.Chemscore.Fitness>
11.1372

> <Gold.Chemscore.DG>
-14.8421

> <Gold.Chemscore.ZeroCoef>
-5.4800

> <Gold.Chemscore.Hbond>
0.0000

> <Gold.Chemscore.Metal>
0.0000

> <Gold.Chemscore.Lipo>
123.3240

> <Gold.Chemscore.Internal_Hbond>
0.0000

> <Gold.Chemscore.DEClash>
1.7214

> <Gold.Chemscore.DEInternal>
1.9834

> <Gold.Chemscore.Rot>
1.9792

> <Gold.Chemscore.Internal.Correction>
   9.000000E+99

> <Gold.Chemscore.Hbond.Weighted>
-0.0000

> <Gold.Chemscore.Metal.Weighted>
-0.0000

> <Gold.Chemscore.Lipo.Weighted>
-14.4289

> <Gold.Chemscore.Internal_Hbond.Weighted>
0.0000

> <Gold.Chemscore.DEClash.Weighted>
1.7214

> <Gold.Chemscore.DEInternal.Weighted>
1.9834

> <Gold.Chemscore.Rot.Weighted>
5.0669

> <Gold.Chemscore.Internal.Correction.Weighted>
   9.000000E+99

> <Gold.Protein.RotatedTorsions>
[ 6907 6896 6895 6894 ] final -116.40 input  -60.11 | X-H torsion
[ 7974 7965 7964 7962 ] final   89.75 input  175.53 | X-H torsion
[ 8008 7997 7996 7995 ] final   63.42 input   59.86 | X-H torsion
[ 10167 10162 10161 10158 ] final   86.97 input  -65.29 | X-H torsion
[ 10718 10713 10712 10709 ] final  170.18 input   66.30 | X-H torsion
[ 10763 10752 10751 10750 ] final  -82.23 input  -60.55 | X-H torsion
[ 11005 11000 10999 10996 ] final  170.47 input  -57.11 | X-H torsion

> <Gold.Protein.ActiveResidues>
 VAL166  LYS551  ARG553  GLY616  TRP617  ASP618  TYR619  PRO620  LYS621  CYS622 
 ASP623  PHE694  ASN695  SER759  ASP760  ASP761  ALA762  ILE779  LEU786  VAL792 
 PHE793  MET794  SER795  GLU796  ALA797  LYS798  CYS799  TRP800  GLU811  SER814 

> <Gold.Protein.RotatedAtoms>
  150.8053  133.8521  159.3208 H   0  0  0  0  0  0  0  0  0  0  0  0  # atno 6907 bound_to 6896
  151.6322  135.1020  160.0133 H   0  0  0  0  0  0  0  0  0  0  0  0  # atno 6908 bound_to 6896
  152.4143  133.6974  159.6460 H   0  0  0  0  0  0  0  0  0  0  0  0  # atno 6909 bound_to 6896
  145.5281  139.2282  143.2634 H   0  0  0  0  0  0  0  0  0  0  0  0  # atno 7974 bound_to 7965
  155.6299  140.3496  155.4679 H   0  0  0  0  0  0  0  0  0  0  0  0  # atno 8008 bound_to 7997
  156.0012  140.1213  157.0569 H   0  0  0  0  0  0  0  0  0  0  0  0  # atno 8009 bound_to 7997
  154.4249  140.1100  156.5685 H   0  0  0  0  0  0  0  0  0  0  0  0  # atno 8010 bound_to 7997
  139.8821  144.6434  150.8832 H   0  0  0  0  0  0  0  0  0  0  0  0  # atno 10167 bound_to 10162
  157.0118  131.0206  151.2801 H   0  0  0  0  0  0  0  0  0  0  0  0  # atno 10718 bound_to 10713
  154.5732  135.5598  153.7115 H   0  0  0  0  0  0  0  0  0  0  0  0  # atno 10763 bound_to 10752
  153.0056  135.6302  154.2085 H   0  0  0  0  0  0  0  0  0  0  0  0  # atno 10764 bound_to 10752
  154.2025  135.2877  155.2966 H   0  0  0  0  0  0  0  0  0  0  0  0  # atno 10765 bound_to 10752
  140.3086  134.7535  157.3974 H   0  0  0  0  0  0  0  0  0  0  0  0  # atno 11005 bound_to 11000
  146.2062  140.6097  142.9080 LP  0  0  0  0  0  0  0  0  0  0  0  0  # atno 17320 bound_to 7965
  144.7640  140.5488  143.6716 LP  0  0  0  0  0  0  0  0  0  0  0  0  # atno 17321 bound_to 7965
  140.7742  143.3578  151.1888 LP  0  0  0  0  0  0  0  0  0  0  0  0  # atno 17342 bound_to 10162
  139.7187  143.9259  152.2977 LP  0  0  0  0  0  0  0  0  0  0  0  0  # atno 17343 bound_to 10162
  157.5315  130.8061  149.7922 LP  0  0  0  0  0  0  0  0  0  0  0  0  # atno 17370 bound_to 10713
  156.0133  130.3824  150.2192 LP  0  0  0  0  0  0  0  0  0  0  0  0  # atno 17371 bound_to 10713
  140.1044  134.5429  155.8322 LP  0  0  0  0  0  0  0  0  0  0  0  0  # atno 17394 bound_to 11000
  141.2113  133.6705  156.6571 LP  0  0  0  0  0  0  0  0  0  0  0  0  # atno 17395 bound_to 11000

$$$$
