AV-unprocessed.smi:2044|AV-procd|sdf|8300|dock10
  -GOLD-   2272010563D 1   1.00000     0.00000
 Structure written by MMmdl.
 40 41  0  0  0  0  0  0  0  0  2 V2000
  153.6625  142.3561  160.5691 C   0  0  0  0  0  0  0  0  0  0  0  0
  152.7638  142.7518  159.4484 C   0  0  0  0  0  0  0  0  0  0  0  0
  151.8961  142.0496  158.6607 C   0  0  0  0  0  0  0  0  0  0  0  0
  151.3723  143.0507  157.7918 C   0  0  0  0  0  0  0  0  0  0  0  0
  150.4225  142.8524  156.7567 N   0  0  0  0  0  0  0  0  0  0  0  0
  150.1976  141.7439  156.0319 C   0  0  0  0  0  0  0  0  0  0  0  0
  150.7901  140.6733  156.1635 O   0  0  0  0  0  0  0  0  0  0  0  0
  149.2195  141.9403  155.1346 N   0  0  0  0  0  0  0  0  0  0  0  0
  148.7333  140.9457  154.1802 C   0  0  0  0  0  0  0  0  0  0  0  0
  147.3827  141.3372  153.5231 C   0  0  2  0  0  0  0  0  0  0  0  0
  146.5846  142.3024  154.4345 C   0  0  0  0  0  0  0  0  0  0  0  0
  146.6157  140.1020  153.1514 N   0  3  0  0  0  0  0  0  0  0  0  0
  147.1748  139.3100  152.0205 C   0  0  0  0  0  0  0  0  0  0  0  0
  146.2890  138.0926  151.7031 C   0  0  0  0  0  0  0  0  0  0  0  0
  146.1387  137.2870  152.8621 O   0  0  0  0  0  0  0  0  0  0  0  0
  145.5045  138.0015  153.9123 C   0  0  0  0  0  0  0  0  0  0  0  0
  146.3762  139.2023  154.3131 C   0  0  0  0  0  0  0  0  0  0  0  0
  151.8758  144.2474  158.0324 N   0  0  0  0  0  0  0  0  0  0  0  0
  152.7685  144.0655  159.0952 O   0  0  0  0  0  0  0  0  0  0  0  0
  153.6431  141.2766  160.7209 H   0  0  0  0  0  0  0  0  0  0  0  0
  153.3539  142.8343  161.4986 H   0  0  0  0  0  0  0  0  0  0  0  0
  154.6917  142.6493  160.3619 H   0  0  0  0  0  0  0  0  0  0  0  0
  151.6865  140.9917  158.7105 H   0  0  0  0  0  0  0  0  0  0  0  0
  149.8448  143.6527  156.5460 H   0  0  0  0  0  0  0  0  0  0  0  0
  148.7874  142.8523  155.0990 H   0  0  0  0  0  0  0  0  0  0  0  0
  149.5194  140.8486  153.4340 H   0  0  0  0  0  0  0  0  0  0  0  0
  148.6474  139.9639  154.6493 H   0  0  0  0  0  0  0  0  0  0  0  0
  147.5935  141.8845  152.6028 H   0  0  0  0  0  0  0  0  0  0  0  0
  147.1621  143.1904  154.6884 H   0  0  0  0  0  0  0  0  0  0  0  0
  146.2959  141.8214  155.3696 H   0  0  0  0  0  0  0  0  0  0  0  0
  145.6844  142.6785  153.9486 H   0  0  0  0  0  0  0  0  0  0  0  0
  147.2325  139.9114  151.1138 H   0  0  0  0  0  0  0  0  0  0  0  0
  148.1870  138.9839  152.2654 H   0  0  0  0  0  0  0  0  0  0  0  0
  145.3111  138.4082  151.3354 H   0  0  0  0  0  0  0  0  0  0  0  0
  146.7455  137.4938  150.9147 H   0  0  0  0  0  0  0  0  0  0  0  0
  144.5083  138.3249  153.6053 H   0  0  0  0  0  0  0  0  0  0  0  0
  145.3739  137.3334  154.7636 H   0  0  0  0  0  0  0  0  0  0  0  0
  147.3318  138.8480  154.7032 H   0  0  0  0  0  0  0  0  0  0  0  0
  145.8794  139.7283  155.1258 H   0  0  0  0  0  0  0  0  0  0  0  0
  145.7101  140.4209  152.8369 H   0  0  0  0  0  0  0  0  0  0  0  0
  1  2  1  0  0  0  0
  1 20  1  0  0  0  0
  1 21  1  0  0  0  0
  1 22  1  0  0  0  0
  2 19  1  0  0  0  0
  2  3  2  0  0  0  0
  3  4  1  0  0  0  0
  3 23  1  0  0  0  0
  4  5  1  0  0  0  0
  4 18  2  0  0  0  0
  5  6  1  0  0  0  0
  5 24  1  0  0  0  0
  6  7  2  0  0  0  0
  6  8  1  0  0  0  0
  8  9  1  0  0  0  0
  8 25  1  0  0  0  0
  9 10  1  0  0  0  0
  9 26  1  0  0  0  0
  9 27  1  0  0  0  0
 10 11  1  0  0  0  0
 10 12  1  0  0  0  0
 10 28  1  0  0  0  0
 11 29  1  0  0  0  0
 11 30  1  0  0  0  0
 11 31  1  0  0  0  0
 12 17  1  0  0  0  0
 12 13  1  0  0  0  0
 12 40  1  0  0  0  0
 13 14  1  0  0  0  0
 13 32  1  0  0  0  0
 13 33  1  0  0  0  0
 14 15  1  0  0  0  0
 14 34  1  0  0  0  0
 14 35  1  0  0  0  0
 15 16  1  0  0  0  0
 16 17  1  0  0  0  0
 16 36  1  0  0  0  0
 16 37  1  0  0  0  0
 17 38  1  0  0  0  0
 17 39  1  0  0  0  0
 18 19  1  0  0  0  0
M  CHG  1  12   1
M  END
> <s_m_source_file>
AV-unprocessed.smi

> <i_m_source_file_index>
2044

> <i_lp_mmshare_version>
43012

> <i_f3d_flags>
0

> <s_epik_input>
W0NIM11jMVtjSF1jKG5vMSlbTkhdQyg9TylbTkhdW0NIMl1bQ0BIXShbQ0gzXSlOMltDSDJdW0NIMl1PW0NIMl1bQ0gyXTI=

> <s_epik_cmdline>
J2VwaWtfcHl0aG9uJywgJy1waCcsICc3LjAnLCAnLXRuJywgJzgnLCAnLW1hJywgJzIwMCcsICctbWV0YWxfYmluZGluZycsICctaW1hZScsICc8aW5maWxlLm1hZT4nLCAnLW9tYWUnLCAnPG91dGZpbGUubWFlPic=

> <r_epik_Ionization_Penalty>
0.707076

> <r_epik_Ionization_Penalty_Charging>
0.707039

> <r_epik_Ionization_Penalty_Neutral>
3.67886e-05

> <r_epik_State_Penalty>
0.730276

> <r_epik_Charging_Adjusted_Penalty>
1.43732

> <i_epik_Tot_Q>
1

> <i_epik_Tot_abs_Q>
1

> <r_epik_Metal_State_Penalty>
0.743216

> <b_epik_Metal_Only>
0

> <s_lp_Force_Field>
OPLS_2005

> <r_lp_Energy>
20.903

> <b_lp_Chiralities_Consistent>
1

> <s_lp_Variant>
AV-unprocessed.smi:2044-3

> <Gold.Version>
5.8.1

> <Gold.Id.Protein>
6NUR|6NUR_protein|mol2

> <Gold.PLP.Fitness>
46.6643

> <Gold.PLP.PLP>
-36.2115

> <Gold.PLP.part.hbond>
-3.0000

> <Gold.PLP.part.metal>
0.0000

> <Gold.PLP.part.buried>
-3.0463

> <Gold.PLP.part.nonpolar>
-31.2110

> <Gold.PLP.part.repulsive>
0.5512

> <Gold.PLP.ligand.clash>
0.0000

> <Gold.PLP.ligand.torsion>
0.7622

> <Gold.PLP.Chemscore.Hbond>
3.9760

> <Gold.PLP.Chemscore.CHOScore>
0.0000

> <Gold.PLP.Chemscore.Metal>
0.0000

> <Gold.Chemscore.Hbonds>
donor molecule, donor type, donor heavy atom, donor atom, acceptor molecule, acceptor atom, score
      L1  H     5    24       P1  8028  1.00
      L1  H     8    25       P1  8028  0.94
      L1  H    12    40       P1 10175  1.89

> <Gold.PLP.Chemscore.Internal.Correction>
0.0491

> <Gold.Rescore>
     Score         DG    S(hbond)    S(metal)    S(lipo)     H(rot)  DE(clash)    DE(int)     intcor
     18.49     -19.43       2.86        0.00      72.97       1.62       0.07       0.86       ----

> <Gold.Chemscore.Fitness>
18.4896

> <Gold.Chemscore.DG>
-19.4259

> <Gold.Chemscore.ZeroCoef>
-5.4800

> <Gold.Chemscore.Hbond>
2.8619

> <Gold.Chemscore.Metal>
0.0000

> <Gold.Chemscore.Lipo>
72.9722

> <Gold.Chemscore.Internal_Hbond>
0.0000

> <Gold.Chemscore.DEClash>
0.0722

> <Gold.Chemscore.DEInternal>
0.8642

> <Gold.Chemscore.Rot>
1.6213

> <Gold.Chemscore.Internal.Correction>
   9.000000E+99

> <Gold.Chemscore.Hbonds>
donor molecule, donor type, donor heavy atom, donor atom, acceptor molecule, acceptor atom, score
      L1  H     5    24       P1  8028  0.99
      L1  H     8    25       P1  8028  0.90
      L1  H    12    40       P1 10175  0.74

> <Gold.Chemscore.Hbond.Weighted>
-9.5588

> <Gold.Chemscore.Metal.Weighted>
-0.0000

> <Gold.Chemscore.Lipo.Weighted>
-8.5378

> <Gold.Chemscore.Internal_Hbond.Weighted>
0.0000

> <Gold.Chemscore.DEClash.Weighted>
0.0722

> <Gold.Chemscore.DEInternal.Weighted>
0.8642

> <Gold.Chemscore.Rot.Weighted>
4.1506

> <Gold.Chemscore.Internal.Correction.Weighted>
   9.000000E+99

> <Gold.Protein.RotatedTorsions>
[ 6907 6896 6895 6894 ] final  136.25 input  -60.11 | X-H torsion
[ 7974 7965 7964 7962 ] final  104.76 input  175.53 | X-H torsion
[ 8008 7997 7996 7995 ] final   67.30 input   59.86 | X-H torsion
[ 10167 10162 10161 10158 ] final  -50.57 input  -65.29 | X-H torsion
[ 10718 10713 10712 10709 ] final -165.37 input   66.30 | X-H torsion
[ 10763 10752 10751 10750 ] final  132.36 input  -60.55 | X-H torsion
[ 11005 11000 10999 10996 ] final   80.96 input  -57.11 | X-H torsion

> <Gold.Protein.ActiveResidues>
 VAL166  LYS551  ARG553  GLY616  TRP617  ASP618  TYR619  PRO620  LYS621  CYS622 
 ASP623  PHE694  ASN695  SER759  ASP760  ASP761  ALA762  ILE779  LEU786  VAL792 
 PHE793  MET794  SER795  GLU796  ALA797  LYS798  CYS799  TRP800  GLU811  SER814 

> <Gold.Protein.RotatedAtoms>
  152.2914  133.5565  159.5559 H   0  0  0  0  0  0  0  0  0  0  0  0  # atno 6907 bound_to 6896
  150.7237  134.0423  159.3779 H   0  0  0  0  0  0  0  0  0  0  0  0  # atno 6908 bound_to 6896
  151.8329  135.0616  160.0490 H   0  0  0  0  0  0  0  0  0  0  0  0  # atno 6909 bound_to 6896
  145.3286  139.2493  143.3673 H   0  0  0  0  0  0  0  0  0  0  0  0  # atno 7974 bound_to 7965
  155.6907  140.3496  155.4892 H   0  0  0  0  0  0  0  0  0  0  0  0  # atno 8008 bound_to 7997
  155.9526  140.1122  157.0986 H   0  0  0  0  0  0  0  0  0  0  0  0  # atno 8009 bound_to 7997
  154.4125  140.1191  156.5059 H   0  0  0  0  0  0  0  0  0  0  0  0  # atno 8010 bound_to 7997
  140.6631  143.2652  151.4378 H   0  0  0  0  0  0  0  0  0  0  0  0  # atno 10167 bound_to 10162
  156.6525  130.9013  151.3015 H   0  0  0  0  0  0  0  0  0  0  0  0  # atno 10718 bound_to 10713
  153.7894  135.3157  155.3376 H   0  0  0  0  0  0  0  0  0  0  0  0  # atno 10763 bound_to 10752
  154.8131  135.4654  154.0573 H   0  0  0  0  0  0  0  0  0  0  0  0  # atno 10764 bound_to 10752
  153.1887  135.6905  153.8468 H   0  0  0  0  0  0  0  0  0  0  0  0  # atno 10765 bound_to 10752
  139.9115  134.7960  156.1978 H   0  0  0  0  0  0  0  0  0  0  0  0  # atno 11005 bound_to 11000
  146.3054  140.3859  142.8689 LP  0  0  0  0  0  0  0  0  0  0  0  0  # atno 17320 bound_to 7965
  144.8882  140.7489  143.5943 LP  0  0  0  0  0  0  0  0  0  0  0  0  # atno 17321 bound_to 7965
  139.5871  144.1581  152.2042 LP  0  0  0  0  0  0  0  0  0  0  0  0  # atno 17342 bound_to 10162
  140.0924  144.5609  150.7045 LP  0  0  0  0  0  0  0  0  0  0  0  0  # atno 17343 bound_to 10162
  157.7136  130.9470  150.1176 LP  0  0  0  0  0  0  0  0  0  0  0  0  # atno 17370 bound_to 10713
  156.2073  130.3664  149.8713 LP  0  0  0  0  0  0  0  0  0  0  0  0  # atno 17371 bound_to 10713
  141.0543  133.6873  156.1831 LP  0  0  0  0  0  0  0  0  0  0  0  0  # atno 17394 bound_to 11000
  140.6761  134.4817  157.5588 LP  0  0  0  0  0  0  0  0  0  0  0  0  # atno 17395 bound_to 11000

$$$$
