AV-unprocessed.smi:594|AV-procd|sdf|3014|dock3
  -GOLD-   2262023523D 1   1.00000     0.00000
 Structure written by MMmdl.
 40 41  0  0  0  0  0  0  0  0  3 V2000
  151.5738  144.3683  156.9409 C   0  0  0  0  0  0  0  0  0  0  0  0
  151.5266  144.0726  158.4508 C   0  0  2  0  0  0  0  0  0  0  0  0
  152.2252  145.1959  159.2440 C   0  0  0  0  0  0  0  0  0  0  0  0
  152.1900  144.9359  160.7574 C   0  0  0  0  0  0  0  0  0  0  0  0
  152.8120  143.5749  161.0970 C   0  0  0  0  0  0  0  0  0  0  0  0
  152.1153  142.4439  160.3271 C   0  0  0  0  0  0  0  0  0  0  0  0
  152.1373  142.6933  158.8043 C   0  0  1  0  0  0  0  0  0  0  0  0
  151.4127  141.6255  158.1186 N   0  0  0  0  0  0  0  0  0  0  0  0
  151.8694  140.3807  157.9148 C   0  0  0  0  0  0  0  0  0  0  0  0
  152.9659  139.9887  158.3163 O   0  0  0  0  0  0  0  0  0  0  0  0
  150.9253  139.4361  157.1576 C   0  0  0  0  0  0  0  0  0  0  0  0
  149.8149  140.1374  156.4915 N   0  0  0  0  0  0  0  0  0  0  0  0
  148.7362  140.5450  157.3012 C   0  0  0  0  0  0  0  0  0  0  0  0
  147.6651  141.1878  156.7965 C   0  0  0  0  0  0  0  0  0  0  0  0
  146.5642  141.5947  157.6421 N   0  3  0  0  0  0  0  0  0  0  0  0
  146.7072  141.5439  158.8595 O   0  0  0  0  0  0  0  0  0  0  0  0
  145.5214  141.9770  157.1196 O   0  5  0  0  0  0  0  0  0  0  0  0
  147.6497  141.4566  155.3715 C   0  0  0  0  0  0  0  0  0  0  0  0
  148.6766  141.0663  154.5911 C   0  0  0  0  0  0  0  0  0  0  0  0
  149.8397  140.3632  155.1421 C   0  0  0  0  0  0  0  0  0  0  0  0
  150.7789  139.9998  154.4340 O   0  0  0  0  0  0  0  0  0  0  0  0
  152.5987  144.3583  156.5686 H   0  0  0  0  0  0  0  0  0  0  0  0
  151.1510  145.3487  156.7207 H   0  0  0  0  0  0  0  0  0  0  0  0
  151.0047  143.6363  156.3673 H   0  0  0  0  0  0  0  0  0  0  0  0
  150.4769  144.0640  158.7493 H   0  0  0  0  0  0  0  0  0  0  0  0
  153.2619  145.2881  158.9166 H   0  0  0  0  0  0  0  0  0  0  0  0
  151.7497  146.1540  159.0308 H   0  0  0  0  0  0  0  0  0  0  0  0
  152.7224  145.7290  161.2833 H   0  0  0  0  0  0  0  0  0  0  0  0
  151.1589  144.9668  161.1116 H   0  0  0  0  0  0  0  0  0  0  0  0
  153.8746  143.5848  160.8511 H   0  0  0  0  0  0  0  0  0  0  0  0
  152.7436  143.3916  162.1696 H   0  0  0  0  0  0  0  0  0  0  0  0
  152.6000  141.4950  160.5604 H   0  0  0  0  0  0  0  0  0  0  0  0
  151.0841  142.3554  160.6720 H   0  0  0  0  0  0  0  0  0  0  0  0
  153.1762  142.6910  158.4679 H   0  0  0  0  0  0  0  0  0  0  0  0
  150.4975  141.8576  157.7603 H   0  0  0  0  0  0  0  0  0  0  0  0
  151.5164  138.8766  156.4314 H   0  0  0  0  0  0  0  0  0  0  0  0
  150.5348  138.6840  157.8460 H   0  0  0  0  0  0  0  0  0  0  0  0
  148.8402  140.2918  158.3465 H   0  0  0  0  0  0  0  0  0  0  0  0
  146.8145  141.9714  154.9196 H   0  0  0  0  0  0  0  0  0  0  0  0
  148.6444  141.2758  153.5320 H   0  0  0  0  0  0  0  0  0  0  0  0
  1  2  1  0  0  0  0
  1 22  1  0  0  0  0
  1 23  1  0  0  0  0
  1 24  1  0  0  0  0
  2  7  1  0  0  0  0
  2  3  1  0  0  0  0
  2 25  1  0  0  0  0
  3  4  1  0  0  0  0
  3 26  1  0  0  0  0
  3 27  1  0  0  0  0
  4  5  1  0  0  0  0
  4 28  1  0  0  0  0
  4 29  1  0  0  0  0
  5  6  1  0  0  0  0
  5 30  1  0  0  0  0
  5 31  1  0  0  0  0
  6  7  1  0  0  0  0
  6 32  1  0  0  0  0
  6 33  1  0  0  0  0
  7  8  1  0  0  0  0
  7 34  1  0  0  0  0
  8  9  1  0  0  0  0
  8 35  1  0  0  0  0
  9 10  2  0  0  0  0
  9 11  1  0  0  0  0
 11 12  1  0  0  0  0
 11 36  1  0  0  0  0
 11 37  1  0  0  0  0
 12 20  1  0  0  0  0
 12 13  1  0  0  0  0
 13 14  2  0  0  0  0
 13 38  1  0  0  0  0
 14 15  1  0  0  0  0
 14 18  1  0  0  0  0
 15 16  2  0  0  0  0
 15 17  1  0  0  0  0
 18 19  2  0  0  0  0
 18 39  1  0  0  0  0
 19 20  1  0  0  0  0
 19 40  1  0  0  0  0
 20 21  2  0  0  0  0
M  CHG  1  15   1
M  CHG  1  17  -1
M  END
> <s_m_source_file>
AV-unprocessed.smi

> <i_m_source_file_index>
594

> <i_lp_mmshare_version>
43012

> <i_f3d_flags>
0

> <s_epik_input>
W0NIM11bQ0BASF0xW0NIMl1bQ0gyXVtDSDJdW0NIMl1bQ0BIXTFbTkhdQyg9TylbQ0gyXW4yW2NIXWMoW04rXSg9TylbTy1dKVtjSF1bY0hdYzI9Tw==

> <s_epik_cmdline>
J2VwaWtfcHl0aG9uJywgJy1waCcsICc3LjAnLCAnLXRuJywgJzgnLCAnLW1hJywgJzIwMCcsICctbWV0YWxfYmluZGluZycsICctaW1hZScsICc8aW5maWxlLm1hZT4nLCAnLW9tYWUnLCAnPG91dGZpbGUubWFlPic=

> <r_lp_tautomer_probability>
1

> <r_epik_Ionization_Penalty>
1.91305e-08

> <r_epik_Ionization_Penalty_Charging>
8.35811e-11

> <r_epik_Ionization_Penalty_Neutral>
1.90469e-08

> <r_epik_State_Penalty>
-0

> <r_epik_Charging_Adjusted_Penalty>
8.35811e-11

> <i_epik_Tot_Q>
0

> <i_epik_Tot_abs_Q>
2

> <r_epik_Metal_State_Penalty>
-0

> <b_epik_Metal_Only>
0

> <s_lp_Force_Field>
OPLS_2005

> <r_lp_Energy>
21.501

> <b_lp_Chiralities_Consistent>
1

> <s_lp_Variant>
AV-unprocessed.smi:594-1

> <Gold.Version>
5.8.1

> <Gold.Id.Protein>
6NUR|6NUR_protein|mol2

> <Gold.PLP.Fitness>
42.6817

> <Gold.PLP.PLP>
-36.4682

> <Gold.PLP.part.hbond>
-2.8668

> <Gold.PLP.part.metal>
0.0000

> <Gold.PLP.part.buried>
-5.1305

> <Gold.PLP.part.nonpolar>
-29.5946

> <Gold.PLP.part.repulsive>
0.2268

> <Gold.PLP.ligand.clash>
0.0051

> <Gold.PLP.ligand.torsion>
0.6896

> <Gold.PLP.Chemscore.Hbond>
2.5255

> <Gold.PLP.Chemscore.CHOScore>
0.0000

> <Gold.PLP.Chemscore.Metal>
0.0000

> <Gold.Chemscore.Hbonds>
donor molecule, donor type, donor heavy atom, donor atom, acceptor molecule, acceptor atom, score
      P1  H  6934  6946       L1    16  0.59
      P1  H  7989  7998       L1    21  1.00
      P1  H  7997  8008       L1    10  0.89

> <Gold.PLP.Chemscore.Internal.Correction>
0.0213

> <Gold.Rescore>
     Score         DG    S(hbond)    S(metal)    S(lipo)     H(rot)  DE(clash)    DE(int)     intcor
     20.05     -22.29       2.61        0.00     103.02       1.55       0.37       1.87       ----

> <Gold.Chemscore.Fitness>
20.0500

> <Gold.Chemscore.DG>
-22.2871

> <Gold.Chemscore.ZeroCoef>
-5.4800

> <Gold.Chemscore.Hbond>
2.6117

> <Gold.Chemscore.Metal>
0.0000

> <Gold.Chemscore.Lipo>
103.0177

> <Gold.Chemscore.Internal_Hbond>
0.0000

> <Gold.Chemscore.DEClash>
0.3662

> <Gold.Chemscore.DEInternal>
1.8708

> <Gold.Chemscore.Rot>
1.5505

> <Gold.Chemscore.Internal.Correction>
   9.000000E+99

> <Gold.Chemscore.Hbonds>
donor molecule, donor type, donor heavy atom, donor atom, acceptor molecule, acceptor atom, score
      P1  H  6934  6946       L1    16  0.59
      P1  H  7989  7998       L1    21  0.93
      P1  H  7997  8008       L1    10  0.80

> <Gold.Chemscore.Hbond.Weighted>
-8.7232

> <Gold.Chemscore.Metal.Weighted>
-0.0000

> <Gold.Chemscore.Lipo.Weighted>
-12.0531

> <Gold.Chemscore.Internal_Hbond.Weighted>
0.0000

> <Gold.Chemscore.DEClash.Weighted>
0.3662

> <Gold.Chemscore.DEInternal.Weighted>
1.8708

> <Gold.Chemscore.Rot.Weighted>
3.9692

> <Gold.Chemscore.Internal.Correction.Weighted>
   9.000000E+99

> <Gold.Protein.RotatedTorsions>
[ 6907 6896 6895 6894 ] final  130.46 input  -60.11 | X-H torsion
[ 7974 7965 7964 7962 ] final -125.37 input  175.53 | X-H torsion
[ 8008 7997 7996 7995 ] final  -79.88 input   59.86 | X-H torsion
[ 10167 10162 10161 10158 ] final  123.38 input  -65.29 | X-H torsion
[ 10718 10713 10712 10709 ] final    8.13 input   66.30 | X-H torsion
[ 10763 10752 10751 10750 ] final  149.75 input  -60.55 | X-H torsion
[ 11005 11000 10999 10996 ] final -121.34 input  -57.11 | X-H torsion

> <Gold.Protein.ActiveResidues>
 VAL166  LYS551  ARG553  GLY616  TRP617  ASP618  TYR619  PRO620  LYS621  CYS622 
 ASP623  PHE694  ASN695  SER759  ASP760  ASP761  ALA762  ILE779  LEU786  VAL792 
 PHE793  MET794  SER795  GLU796  ALA797  LYS798  CYS799  TRP800  GLU811  SER814 

> <Gold.Protein.RotatedAtoms>
  152.3524  133.6195  159.5954 H   0  0  0  0  0  0  0  0  0  0  0  0  # atno 6907 bound_to 6896
  150.7546  133.9554  159.3507 H   0  0  0  0  0  0  0  0  0  0  0  0  # atno 6908 bound_to 6896
  151.7404  135.0856  160.0366 H   0  0  0  0  0  0  0  0  0  0  0  0  # atno 6909 bound_to 6896
  144.9983  140.7796  143.4512 H   0  0  0  0  0  0  0  0  0  0  0  0  # atno 7974 bound_to 7965
  154.5828  140.0671  156.9129 H   0  0  0  0  0  0  0  0  0  0  0  0  # atno 8008 bound_to 7997
  155.2432  140.3346  155.4272 H   0  0  0  0  0  0  0  0  0  0  0  0  # atno 8009 bound_to 7997
  156.2202  140.1795  156.7480 H   0  0  0  0  0  0  0  0  0  0  0  0  # atno 8010 bound_to 7997
  139.5803  144.6983  151.3546 H   0  0  0  0  0  0  0  0  0  0  0  0  # atno 10167 bound_to 10162
  156.9470  130.5883  149.5655 H   0  0  0  0  0  0  0  0  0  0  0  0  # atno 10718 bound_to 10713
  154.0763  135.2863  155.3299 H   0  0  0  0  0  0  0  0  0  0  0  0  # atno 10763 bound_to 10752
  154.6713  135.5298  153.8146 H   0  0  0  0  0  0  0  0  0  0  0  0  # atno 10764 bound_to 10752
  153.0466  135.6558  154.0941 H   0  0  0  0  0  0  0  0  0  0  0  0  # atno 10765 bound_to 10752
  141.0077  134.0310  157.3455 H   0  0  0  0  0  0  0  0  0  0  0  0  # atno 11005 bound_to 11000
  145.2189  139.2168  143.5103 LP  0  0  0  0  0  0  0  0  0  0  0  0  # atno 17320 bound_to 7965
  146.3446  140.2043  142.8589 LP  0  0  0  0  0  0  0  0  0  0  0  0  # atno 17321 bound_to 7965
  140.7082  143.7460  150.7519 LP  0  0  0  0  0  0  0  0  0  0  0  0  # atno 17342 bound_to 10162
  140.0990  143.4805  152.2436 LP  0  0  0  0  0  0  0  0  0  0  0  0  # atno 17343 bound_to 10162
  156.0379  130.5465  150.8699 LP  0  0  0  0  0  0  0  0  0  0  0  0  # atno 17370 bound_to 10713
  157.5747  131.0946  150.9364 LP  0  0  0  0  0  0  0  0  0  0  0  0  # atno 17371 bound_to 10713
  139.9072  135.0182  156.7539 LP  0  0  0  0  0  0  0  0  0  0  0  0  # atno 17394 bound_to 11000
  140.6785  133.9496  155.7896 LP  0  0  0  0  0  0  0  0  0  0  0  0  # atno 17395 bound_to 11000

$$$$
