AV-unprocessed.smi:2124|AV-procd|sdf|8663|dock10
  -GOLD-   2272011413D 1   1.00000     0.00000
 Structure written by MMmdl.
 47 49  0  0  0  0  0  0  0  0  1 V2000
  147.2115  134.9657  154.9603 C   0  0  0  0  0  0  0  0  0  0  0  0
  148.3009  136.0159  154.9724 C   0  0  0  0  0  0  0  0  0  0  0  0
  147.8726  137.2660  154.5568 N   0  0  0  0  0  0  0  0  0  0  0  0
  148.7988  138.2936  154.5357 C   0  0  0  0  0  0  0  0  0  0  0  0
  148.2490  139.6290  154.0655 C   0  0  0  0  0  0  0  0  0  0  0  0
  150.0875  138.0855  154.9076 C   0  0  0  0  0  0  0  0  0  0  0  0
  151.1433  139.1904  154.8903 C   0  0  0  0  0  0  0  0  0  0  0  0
  151.7155  139.6014  156.2498 C   0  0  0  0  0  0  0  0  0  0  0  0
  152.8905  139.3670  156.5340 O   0  0  0  0  0  0  0  0  0  0  0  0
  150.8643  140.2198  157.0823 N   0  0  0  0  0  0  0  0  0  0  0  0
  151.1850  140.6891  158.4286 C   0  0  1  0  0  0  0  0  0  0  0  0
  152.0397  139.6256  159.1421 C   0  0  0  0  0  0  0  0  0  0  0  0
  151.8993  142.0607  158.3536 C   0  0  2  0  0  0  0  0  0  0  0  0
  152.3563  142.5969  159.7325 C   0  0  0  0  0  0  0  0  0  0  0  0
  151.7277  144.0006  159.7954 C   0  0  1  0  0  0  0  0  0  0  0  0
  152.4324  144.9270  158.7883 C   0  0  0  0  0  0  0  0  0  0  0  0
  151.9209  144.4028  157.4336 C   0  0  0  0  0  0  0  0  0  0  0  0
  151.0128  143.2273  157.8442 C   0  0  2  0  0  0  0  0  0  0  0  0
  150.3815  143.7646  159.1245 C   0  0  0  0  0  0  0  0  0  0  0  0
  150.4873  136.7250  155.3380 C   0  0  0  0  0  0  0  0  0  0  0  0
  151.6426  136.4702  155.6754 O   0  0  0  0  0  0  0  0  0  0  0  0
  149.5080  135.7186  155.3472 N   0  0  0  0  0  0  0  0  0  0  0  0
  146.9252  137.4634  154.2684 H   0  0  0  0  0  0  0  0  0  0  0  0
  147.6075  133.9893  155.2418 H   0  0  0  0  0  0  0  0  0  0  0  0
  146.7757  134.8811  153.9642 H   0  0  0  0  0  0  0  0  0  0  0  0
  146.4219  135.2300  155.6642 H   0  0  0  0  0  0  0  0  0  0  0  0
  148.8081  139.9894  153.2017 H   0  0  0  0  0  0  0  0  0  0  0  0
  148.3238  140.3721  154.8597 H   0  0  0  0  0  0  0  0  0  0  0  0
  147.1998  139.5524  153.7768 H   0  0  0  0  0  0  0  0  0  0  0  0
  150.7552  140.0813  154.3948 H   0  0  0  0  0  0  0  0  0  0  0  0
  151.9735  138.8643  154.2634 H   0  0  0  0  0  0  0  0  0  0  0  0
  149.9178  140.3691  156.7639 H   0  0  0  0  0  0  0  0  0  0  0  0
  150.2562  140.8160  158.9875 H   0  0  0  0  0  0  0  0  0  0  0  0
  152.2701  139.9149  160.1671 H   0  0  0  0  0  0  0  0  0  0  0  0
  152.9850  139.4636  158.6233 H   0  0  0  0  0  0  0  0  0  0  0  0
  151.5195  138.6682  159.1880 H   0  0  0  0  0  0  0  0  0  0  0  0
  152.7639  141.9528  157.6962 H   0  0  0  0  0  0  0  0  0  0  0  0
  151.9701  141.9858  160.5493 H   0  0  0  0  0  0  0  0  0  0  0  0
  153.4424  142.6240  159.8272 H   0  0  0  0  0  0  0  0  0  0  0  0
  151.6744  144.4103  160.8045 H   0  0  0  0  0  0  0  0  0  0  0  0
  152.1307  145.9646  158.9364 H   0  0  0  0  0  0  0  0  0  0  0  0
  153.5187  144.8780  158.8717 H   0  0  0  0  0  0  0  0  0  0  0  0
  151.3464  145.1734  156.9178 H   0  0  0  0  0  0  0  0  0  0  0  0
  152.7316  144.0950  156.7722 H   0  0  0  0  0  0  0  0  0  0  0  0
  150.3001  142.9546  157.0661 H   0  0  0  0  0  0  0  0  0  0  0  0
  149.7585  143.0354  159.6448 H   0  0  0  0  0  0  0  0  0  0  0  0
  149.8074  144.6806  158.9727 H   0  0  0  0  0  0  0  0  0  0  0  0
  1 24  1  0  0  0  0
  1 25  1  0  0  0  0
  1 26  1  0  0  0  0
  1  2  1  0  0  0  0
  2  3  1  0  0  0  0
  2 22  2  0  0  0  0
  3  4  1  0  0  0  0
  3 23  1  0  0  0  0
  4  6  2  0  0  0  0
  4  5  1  0  0  0  0
  5 27  1  0  0  0  0
  5 28  1  0  0  0  0
  5 29  1  0  0  0  0
  6 20  1  0  0  0  0
  6  7  1  0  0  0  0
  7  8  1  0  0  0  0
  7 30  1  0  0  0  0
  7 31  1  0  0  0  0
  8  9  2  0  0  0  0
  8 10  1  0  0  0  0
 10 11  1  0  0  0  0
 10 32  1  0  0  0  0
 11 12  1  0  0  0  0
 11 13  1  0  0  0  0
 11 33  1  0  0  0  0
 12 34  1  0  0  0  0
 12 35  1  0  0  0  0
 12 36  1  0  0  0  0
 13 18  1  0  0  0  0
 13 14  1  0  0  0  0
 13 37  1  0  0  0  0
 14 15  1  0  0  0  0
 14 38  1  0  0  0  0
 14 39  1  0  0  0  0
 15 19  1  0  0  0  0
 15 16  1  0  0  0  0
 15 40  1  0  0  0  0
 16 17  1  0  0  0  0
 16 41  1  0  0  0  0
 16 42  1  0  0  0  0
 17 18  1  0  0  0  0
 17 43  1  0  0  0  0
 17 44  1  0  0  0  0
 18 19  1  0  0  0  0
 18 45  1  0  0  0  0
 19 46  1  0  0  0  0
 19 47  1  0  0  0  0
 20 21  2  0  0  0  0
 20 22  1  0  0  0  0
M  END
> <s_m_source_file>
AV-unprocessed.smi

> <i_m_source_file_index>
2124

> <i_lp_mmshare_version>
43012

> <i_f3d_flags>
0

> <s_epik_input>
W0NIM11jMW5jKFtDSDNdKWMoYyg9TylbbkhdMSlbQ0gyXUMoPU8pW05IXVtDQEhdKFtDSDNdKVtDQEhdKFtDSDJdW0NASF0yMylbQ0BIXShbQ0gyXTMpW0NIMl1bQ0gyXTI=

> <s_epik_cmdline>
J2VwaWtfcHl0aG9uJywgJy1waCcsICc3LjAnLCAnLXRuJywgJzgnLCAnLW1hJywgJzIwMCcsICctbWV0YWxfYmluZGluZycsICctaW1hZScsICc8aW5maWxlLm1hZT4nLCAnLW9tYWUnLCAnPG91dGZpbGUubWFlPic=

> <r_lp_tautomer_probability>
0.156392

> <r_epik_Ionization_Penalty>
0.0139374

> <r_epik_Ionization_Penalty_Charging>
0.0138122

> <r_epik_Ionization_Penalty_Neutral>
0.000125146

> <r_epik_State_Penalty>
1.15342

> <r_epik_Charging_Adjusted_Penalty>
1.16723

> <i_epik_Tot_Q>
0

> <i_epik_Tot_abs_Q>
0

> <r_epik_Metal_State_Penalty>
1.3173

> <b_epik_Metal_Only>
0

> <s_lp_Force_Field>
OPLS_2005

> <r_lp_Energy>
55.952

> <b_lp_Chiralities_Consistent>
1

> <s_lp_Variant>
AV-unprocessed.smi:2124-14

> <Gold.Version>
5.8.1

> <Gold.Id.Protein>
6NUR|6NUR_protein|mol2

> <Gold.PLP.Fitness>
45.6894

> <Gold.PLP.PLP>
-40.4785

> <Gold.PLP.part.hbond>
-2.7868

> <Gold.PLP.part.metal>
0.0000

> <Gold.PLP.part.buried>
-5.1626

> <Gold.PLP.part.nonpolar>
-33.9245

> <Gold.PLP.part.repulsive>
0.2210

> <Gold.PLP.ligand.clash>
0.0000

> <Gold.PLP.ligand.torsion>
0.4050

> <Gold.PLP.Chemscore.Hbond>
2.0000

> <Gold.PLP.Chemscore.CHOScore>
0.0000

> <Gold.PLP.Chemscore.Metal>
0.0000

> <Gold.Chemscore.Hbonds>
donor molecule, donor type, donor heavy atom, donor atom, acceptor molecule, acceptor atom, score
      P1  H  7997  8008       L1     9  1.00
      P1  H 10752 10764       L1    21  1.00

> <Gold.PLP.Chemscore.Internal.Correction>
0.0209

> <Gold.Rescore>
     Score         DG    S(hbond)    S(metal)    S(lipo)     H(rot)  DE(clash)    DE(int)     intcor
     19.44     -21.29       2.00        0.00     114.35       1.65       0.04       1.81       ----

> <Gold.Chemscore.Fitness>
19.4432

> <Gold.Chemscore.DG>
-21.2919

> <Gold.Chemscore.ZeroCoef>
-5.4800

> <Gold.Chemscore.Hbond>
1.9956

> <Gold.Chemscore.Metal>
0.0000

> <Gold.Chemscore.Lipo>
114.3519

> <Gold.Chemscore.Internal_Hbond>
0.0000

> <Gold.Chemscore.DEClash>
0.0377

> <Gold.Chemscore.DEInternal>
1.8110

> <Gold.Chemscore.Rot>
1.6534

> <Gold.Chemscore.Internal.Correction>
   9.000000E+99

> <Gold.Chemscore.Hbonds>
donor molecule, donor type, donor heavy atom, donor atom, acceptor molecule, acceptor atom, score
      P1  H  7997  8008       L1     9  0.96
      P1  H 10752 10764       L1    21  0.99

> <Gold.Chemscore.Hbond.Weighted>
-6.6653

> <Gold.Chemscore.Metal.Weighted>
-0.0000

> <Gold.Chemscore.Lipo.Weighted>
-13.3792

> <Gold.Chemscore.Internal_Hbond.Weighted>
0.0000

> <Gold.Chemscore.DEClash.Weighted>
0.0377

> <Gold.Chemscore.DEInternal.Weighted>
1.8110

> <Gold.Chemscore.Rot.Weighted>
4.2326

> <Gold.Chemscore.Internal.Correction.Weighted>
   9.000000E+99

> <Gold.Protein.RotatedTorsions>
[ 6907 6896 6895 6894 ] final -140.44 input  -60.11 | X-H torsion
[ 7974 7965 7964 7962 ] final   43.26 input  175.53 | X-H torsion
[ 8008 7997 7996 7995 ] final  -31.63 input   59.86 | X-H torsion
[ 10167 10162 10161 10158 ] final   -9.12 input  -65.29 | X-H torsion
[ 10718 10713 10712 10709 ] final  -71.60 input   66.30 | X-H torsion
[ 10763 10752 10751 10750 ] final  -31.10 input  -60.55 | X-H torsion
[ 11005 11000 10999 10996 ] final  -10.78 input  -57.11 | X-H torsion

> <Gold.Protein.ActiveResidues>
 VAL166  LYS551  ARG553  GLY616  TRP617  ASP618  TYR619  PRO620  LYS621  CYS622 
 ASP623  PHE694  ASN695  SER759  ASP760  ASP761  ALA762  ILE779  LEU786  VAL792 
 PHE793  MET794  SER795  GLU796  ALA797  LYS798  CYS799  TRP800  GLU811  SER814 

> <Gold.Protein.RotatedAtoms>
  151.0608  133.5546  159.2634 H   0  0  0  0  0  0  0  0  0  0  0  0  # atno 6907 bound_to 6896
  151.2522  135.0625  159.9076 H   0  0  0  0  0  0  0  0  0  0  0  0  # atno 6908 bound_to 6896
  152.5397  134.0366  159.8103 H   0  0  0  0  0  0  0  0  0  0  0  0  # atno 6909 bound_to 6896
  146.0670  139.5207  142.9622 H   0  0  0  0  0  0  0  0  0  0  0  0  # atno 7974 bound_to 7965
  154.4207  140.1759  156.1597 H   0  0  0  0  0  0  0  0  0  0  0  0  # atno 8008 bound_to 7997
  155.9848  140.3374  155.6673 H   0  0  0  0  0  0  0  0  0  0  0  0  # atno 8009 bound_to 7997
  155.6452  140.0684  157.2596 H   0  0  0  0  0  0  0  0  0  0  0  0  # atno 8010 bound_to 7997
  140.7078  143.5893  150.8910 H   0  0  0  0  0  0  0  0  0  0  0  0  # atno 10167 bound_to 10162
  156.0356  130.4354  150.2467 H   0  0  0  0  0  0  0  0  0  0  0  0  # atno 10718 bound_to 10713
  153.7919  135.6897  153.4870 H   0  0  0  0  0  0  0  0  0  0  0  0  # atno 10763 bound_to 10752
  153.1744  135.4530  154.9944 H   0  0  0  0  0  0  0  0  0  0  0  0  # atno 10764 bound_to 10752
  154.8041  135.3349  154.7414 H   0  0  0  0  0  0  0  0  0  0  0  0  # atno 10765 bound_to 10752
  140.7484  133.8613  155.9024 H   0  0  0  0  0  0  0  0  0  0  0  0  # atno 11005 bound_to 11000
  145.6459  141.0274  143.1787 LP  0  0  0  0  0  0  0  0  0  0  0  0  # atno 17320 bound_to 7965
  144.7209  139.8035  143.7382 LP  0  0  0  0  0  0  0  0  0  0  0  0  # atno 17321 bound_to 7965
  139.9618  143.6155  152.3000 LP  0  0  0  0  0  0  0  0  0  0  0  0  # atno 17342 bound_to 10162
  139.6710  144.7661  151.1783 LP  0  0  0  0  0  0  0  0  0  0  0  0  # atno 17343 bound_to 10162
  157.0567  131.0078  151.3236 LP  0  0  0  0  0  0  0  0  0  0  0  0  # atno 17370 bound_to 10713
  157.5101  130.7933  149.7695 LP  0  0  0  0  0  0  0  0  0  0  0  0  # atno 17371 bound_to 10713
  140.9773  134.1451  157.4525 LP  0  0  0  0  0  0  0  0  0  0  0  0  # atno 17394 bound_to 11000
  139.8792  134.9999  156.5980 LP  0  0  0  0  0  0  0  0  0  0  0  0  # atno 17395 bound_to 11000

$$$$
