AV-unprocessed.smi:234|AV-procd|sdf|1788|dock9
  -GOLD-   2262020343D 1   1.00000     0.00000
 Structure written by MMmdl.
 59 62  0  0  0  0  0  0  0  0  1 V2000
  152.8674  144.5909  158.3773 C   0  0  0  0  0  0  0  0  0  0  0  0
  151.3778  144.7169  158.7241 C   0  0  0  0  0  0  0  0  0  0  0  0
  150.7188  143.4615  158.6337 O   0  0  0  0  0  0  0  0  0  0  0  0
  151.0195  142.7226  157.4536 C   0  0  1  0  0  0  0  0  0  0  0  0
  151.9685  141.5546  157.7371 C   0  0  0  0  0  0  0  0  0  0  0  0
  150.7110  140.7219  158.0250 C   0  0  2  0  0  0  0  0  0  0  0  0
  150.7865  139.3362  157.5483 N   0  0  0  0  0  0  0  0  0  0  0  0
  151.6289  139.0634  156.3891 C   0  0  0  0  0  0  0  0  0  0  0  0
  149.6336  138.6228  157.5002 C   0  0  0  0  0  0  0  0  0  0  0  0
  148.8410  138.6760  156.3964 N   0  0  0  0  0  0  0  0  0  0  0  0
  147.7152  137.9586  156.3416 C   0  0  0  0  0  0  0  0  0  0  0  0
  147.2047  137.1353  157.2596 N   0  0  0  0  0  0  0  0  0  0  0  0
  147.9969  137.0771  158.3681 C   0  0  0  0  0  0  0  0  0  0  0  0
  149.2195  137.7781  158.5667 C   0  0  0  0  0  0  0  0  0  0  0  0
  149.7470  137.4691  159.8145 N   0  0  0  0  0  0  0  0  0  0  0  0
  148.8869  136.6300  160.3235 C   0  0  0  0  0  0  0  0  0  0  0  0
  147.7999  136.3463  159.5271 N   0  0  0  0  0  0  0  0  0  0  0  0
  146.6962  135.4541  159.8493 C   0  0  0  0  0  0  0  0  0  0  0  0
  145.9486  135.8406  161.1528 C   0  0  1  0  0  0  0  0  0  0  0  0
  146.1347  137.2300  161.3681 O   0  0  0  0  0  0  0  0  0  0  0  0
  144.4467  135.5750  161.1003 C   0  0  0  0  0  0  0  0  0  0  0  0
  144.0912  135.3293  162.5583 C   0  0  0  0  0  0  0  0  0  0  0  0
  145.1944  134.5668  163.0139 O   0  0  0  0  0  0  0  0  0  0  0  0
  146.3890  135.0998  162.4476 C   0  0  1  0  0  0  0  0  0  0  0  0
  147.3802  133.9379  162.2779 C   0  0  0  0  0  0  0  0  0  0  0  0
  149.9177  141.6904  157.1026 C   0  0  0  0  0  0  0  0  0  0  0  0
  148.4982  142.0587  157.5447 C   0  0  0  0  0  0  0  0  0  0  0  0
  149.8396  141.3455  155.6058 C   0  0  0  0  0  0  0  0  0  0  0  0
  153.3457  145.5704  158.3689 H   0  0  0  0  0  0  0  0  0  0  0  0
  153.0015  144.1472  157.3906 H   0  0  0  0  0  0  0  0  0  0  0  0
  153.4018  143.9727  159.0981 H   0  0  0  0  0  0  0  0  0  0  0  0
  151.2406  145.1675  159.7079 H   0  0  0  0  0  0  0  0  0  0  0  0
  150.9051  145.3880  158.0070 H   0  0  0  0  0  0  0  0  0  0  0  0
  151.3130  143.3431  156.6063 H   0  0  0  0  0  0  0  0  0  0  0  0
  152.5202  141.2315  156.8528 H   0  0  0  0  0  0  0  0  0  0  0  0
  152.6289  141.6884  158.5941 H   0  0  0  0  0  0  0  0  0  0  0  0
  150.4023  140.8088  159.0686 H   0  0  0  0  0  0  0  0  0  0  0  0
  151.0367  139.0044  155.4747 H   0  0  0  0  0  0  0  0  0  0  0  0
  152.1581  138.1191  156.5171 H   0  0  0  0  0  0  0  0  0  0  0  0
  152.3751  139.8429  156.2463 H   0  0  0  0  0  0  0  0  0  0  0  0
  147.1420  138.0575  155.4315 H   0  0  0  0  0  0  0  0  0  0  0  0
  149.0188  136.1962  161.3044 H   0  0  0  0  0  0  0  0  0  0  0  0
  146.0121  135.4521  159.0004 H   0  0  0  0  0  0  0  0  0  0  0  0
  147.0945  134.4416  159.9272 H   0  0  0  0  0  0  0  0  0  0  0  0
  145.5232  137.5139  162.0302 H   0  0  0  0  0  0  0  0  0  0  0  0
  143.8692  136.3807  160.6449 H   0  0  0  0  0  0  0  0  0  0  0  0
  144.2459  134.6627  160.5376 H   0  0  0  0  0  0  0  0  0  0  0  0
  144.0318  136.2660  163.1145 H   0  0  0  0  0  0  0  0  0  0  0  0
  143.1513  134.7909  162.6803 H   0  0  0  0  0  0  0  0  0  0  0  0
  146.8088  135.8066  163.1662 H   0  0  0  0  0  0  0  0  0  0  0  0
  148.3280  134.2795  161.8621 H   0  0  0  0  0  0  0  0  0  0  0  0
  146.9793  133.1615  161.6259 H   0  0  0  0  0  0  0  0  0  0  0  0
  147.5959  133.4750  163.2410 H   0  0  0  0  0  0  0  0  0  0  0  0
  147.7735  141.2910  157.2746 H   0  0  0  0  0  0  0  0  0  0  0  0
  148.1705  142.9921  157.0859 H   0  0  0  0  0  0  0  0  0  0  0  0
  148.4337  142.1897  158.6252 H   0  0  0  0  0  0  0  0  0  0  0  0
  149.1389  140.5329  155.4124 H   0  0  0  0  0  0  0  0  0  0  0  0
  150.8052  141.0364  155.2045 H   0  0  0  0  0  0  0  0  0  0  0  0
  149.5099  142.2036  155.0190 H   0  0  0  0  0  0  0  0  0  0  0  0
  1  2  1  0  0  0  0
  1 29  1  0  0  0  0
  1 30  1  0  0  0  0
  1 31  1  0  0  0  0
  2  3  1  0  0  0  0
  2 32  1  0  0  0  0
  2 33  1  0  0  0  0
  3  4  1  0  0  0  0
  4 26  1  0  0  0  0
  4  5  1  0  0  0  0
  4 34  1  0  0  0  0
  5  6  1  0  0  0  0
  5 35  1  0  0  0  0
  5 36  1  0  0  0  0
  6  7  1  0  0  0  0
  6 26  1  0  0  0  0
  6 37  1  0  0  0  0
  7  8  1  0  0  0  0
  7  9  1  0  0  0  0
  8 38  1  0  0  0  0
  8 39  1  0  0  0  0
  8 40  1  0  0  0  0
  9 14  1  0  0  0  0
  9 10  2  0  0  0  0
 10 11  1  0  0  0  0
 11 12  2  0  0  0  0
 11 41  1  0  0  0  0
 12 13  1  0  0  0  0
 13 17  1  0  0  0  0
 13 14  2  0  0  0  0
 14 15  1  0  0  0  0
 15 16  2  0  0  0  0
 16 17  1  0  0  0  0
 16 42  1  0  0  0  0
 17 18  1  0  0  0  0
 18 19  1  0  0  0  0
 18 43  1  0  0  0  0
 18 44  1  0  0  0  0
 19 24  1  0  0  0  0
 19 20  1  0  0  0  0
 19 21  1  0  0  0  0
 20 45  1  0  0  0  0
 21 22  1  0  0  0  0
 21 46  1  0  0  0  0
 21 47  1  0  0  0  0
 22 23  1  0  0  0  0
 22 48  1  0  0  0  0
 22 49  1  0  0  0  0
 23 24  1  0  0  0  0
 24 25  1  0  0  0  0
 24 50  1  0  0  0  0
 25 51  1  0  0  0  0
 25 52  1  0  0  0  0
 25 53  1  0  0  0  0
 26 27  1  0  0  0  0
 26 28  1  0  0  0  0
 27 54  1  0  0  0  0
 27 55  1  0  0  0  0
 27 56  1  0  0  0  0
 28 57  1  0  0  0  0
 28 58  1  0  0  0  0
 28 59  1  0  0  0  0
M  END
> <s_m_source_file>
AV-unprocessed.smi

> <i_m_source_file_index>
234

> <i_lp_mmshare_version>
43012

> <i_f3d_flags>
0

> <s_epik_input>
W0NIM11bQ0gyXU9bQ0BASF0oQzEoW0NIM10pW0NIM10pW0NIMl1bQ0BIXTFOKFtDSDNdKWMobltjSF1uMiljKGMyMyluW2NIXW4zW0NIMl1bQ0BAXTQoW09IXSlbQ0gyXVtDSDJdT1tDQEhdNFtDSDNd

> <s_epik_cmdline>
J2VwaWtfcHl0aG9uJywgJy1waCcsICc3LjAnLCAnLXRuJywgJzgnLCAnLW1hJywgJzIwMCcsICctbWV0YWxfYmluZGluZycsICctaW1hZScsICc8aW5maWxlLm1hZT4nLCAnLW9tYWUnLCAnPG91dGZpbGUubWFlPic=

> <r_lp_tautomer_probability>
1

> <r_epik_Ionization_Penalty>
0.00349132

> <r_epik_Ionization_Penalty_Charging>
0

> <r_epik_Ionization_Penalty_Neutral>
0.00349132

> <r_epik_State_Penalty>
0.00242418

> <r_epik_Charging_Adjusted_Penalty>
0.00242418

> <i_epik_Tot_Q>
0

> <i_epik_Tot_abs_Q>
0

> <r_epik_Metal_State_Penalty>
-0

> <b_epik_Metal_Only>
0

> <s_lp_Force_Field>
OPLS_2005

> <r_lp_Energy>
49.5598

> <b_lp_Chiralities_Consistent>
1

> <s_lp_Variant>
AV-unprocessed.smi:234-4

> <Gold.Version>
5.8.1

> <Gold.Id.Protein>
6NUR|6NUR_protein|mol2

> <Gold.PLP.Fitness>
41.5900

> <Gold.PLP.PLP>
-42.2587

> <Gold.PLP.part.hbond>
-2.4968

> <Gold.PLP.part.metal>
0.0000

> <Gold.PLP.part.buried>
-6.5793

> <Gold.PLP.part.nonpolar>
-33.5683

> <Gold.PLP.part.repulsive>
0.1605

> <Gold.PLP.ligand.clash>
0.0000

> <Gold.PLP.ligand.torsion>
1.9120

> <Gold.PLP.Chemscore.Hbond>
0.7313

> <Gold.PLP.Chemscore.CHOScore>
0.0000

> <Gold.PLP.Chemscore.Metal>
0.0000

> <Gold.Chemscore.Hbonds>
donor molecule, donor type, donor heavy atom, donor atom, acceptor molecule, acceptor atom, score
      P1  H  6934  6947       L1    20  0.80

> <Gold.PLP.Chemscore.Internal.Correction>
0.9617

> <Gold.Rescore>
     Score         DG    S(hbond)    S(metal)    S(lipo)     H(rot)  DE(clash)    DE(int)     intcor
      9.15     -12.06       0.22        0.00     107.18       2.62       0.06       2.84       ----

> <Gold.Chemscore.Fitness>
9.1489

> <Gold.Chemscore.DG>
-12.0550

> <Gold.Chemscore.ZeroCoef>
-5.4800

> <Gold.Chemscore.Hbond>
0.2238

> <Gold.Chemscore.Metal>
0.0000

> <Gold.Chemscore.Lipo>
107.1754

> <Gold.Chemscore.Internal_Hbond>
0.0000

> <Gold.Chemscore.DEClash>
0.0638

> <Gold.Chemscore.DEInternal>
2.8423

> <Gold.Chemscore.Rot>
2.6219

> <Gold.Chemscore.Internal.Correction>
   9.000000E+99

> <Gold.Chemscore.Hbonds>
donor molecule, donor type, donor heavy atom, donor atom, acceptor molecule, acceptor atom, score
      P1  H  6934  6947       L1    20  0.23

> <Gold.Chemscore.Hbond.Weighted>
-0.7476

> <Gold.Chemscore.Metal.Weighted>
-0.0000

> <Gold.Chemscore.Lipo.Weighted>
-12.5395

> <Gold.Chemscore.Internal_Hbond.Weighted>
0.0000

> <Gold.Chemscore.DEClash.Weighted>
0.0638

> <Gold.Chemscore.DEInternal.Weighted>
2.8423

> <Gold.Chemscore.Rot.Weighted>
6.7121

> <Gold.Chemscore.Internal.Correction.Weighted>
   9.000000E+99

> <Gold.Protein.RotatedTorsions>
[ 6907 6896 6895 6894 ] final -143.88 input  -60.11 | X-H torsion
[ 7974 7965 7964 7962 ] final  160.86 input  175.53 | X-H torsion
[ 8008 7997 7996 7995 ] final  102.48 input   59.86 | X-H torsion
[ 10167 10162 10161 10158 ] final -174.09 input  -65.29 | X-H torsion
[ 10718 10713 10712 10709 ] final   81.58 input   66.30 | X-H torsion
[ 10763 10752 10751 10750 ] final   71.10 input  -60.55 | X-H torsion
[ 11005 11000 10999 10996 ] final   62.57 input  -57.11 | X-H torsion

> <Gold.Protein.ActiveResidues>
 VAL166  LYS551  ARG553  GLY616  TRP617  ASP618  TYR619  PRO620  LYS621  CYS622 
 ASP623  PHE694  ASN695  SER759  ASP760  ASP761  ALA762  ILE779  LEU786  VAL792 
 PHE793  MET794  SER795  GLU796  ALA797  LYS798  CYS799  TRP800  GLU811  SER814 

> <Gold.Protein.RotatedAtoms>
  151.1065  133.5205  159.2607 H   0  0  0  0  0  0  0  0  0  0  0  0  # atno 6907 bound_to 6896
  151.2015  135.0444  159.8884 H   0  0  0  0  0  0  0  0  0  0  0  0  # atno 6908 bound_to 6896
  152.5447  134.0892  159.8323 H   0  0  0  0  0  0  0  0  0  0  0  0  # atno 6909 bound_to 6896
  144.7715  139.7817  143.6295 H   0  0  0  0  0  0  0  0  0  0  0  0  # atno 7974 bound_to 7965
  156.1396  140.3180  155.8475 H   0  0  0  0  0  0  0  0  0  0  0  0  # atno 8008 bound_to 7997
  155.4179  140.0510  157.3044 H   0  0  0  0  0  0  0  0  0  0  0  0  # atno 8009 bound_to 7997
  154.4965  140.2113  155.9448 H   0  0  0  0  0  0  0  0  0  0  0  0  # atno 8010 bound_to 7997
  139.5653  144.1771  152.1302 H   0  0  0  0  0  0  0  0  0  0  0  0  # atno 10167 bound_to 10162
  157.6836  131.0010  150.2248 H   0  0  0  0  0  0  0  0  0  0  0  0  # atno 10718 bound_to 10713
  153.0379  135.5149  154.7542 H   0  0  0  0  0  0  0  0  0  0  0  0  # atno 10763 bound_to 10752
  154.6503  135.2924  154.9997 H   0  0  0  0  0  0  0  0  0  0  0  0  # atno 10764 bound_to 10752
  154.0884  135.6654  153.4901 H   0  0  0  0  0  0  0  0  0  0  0  0  # atno 10765 bound_to 10752
  140.0083  134.6336  155.9820 H   0  0  0  0  0  0  0  0  0  0  0  0  # atno 11005 bound_to 11000
  146.1864  139.5082  142.9833 LP  0  0  0  0  0  0  0  0  0  0  0  0  # atno 17320 bound_to 7965
  145.6311  141.0304  143.1863 LP  0  0  0  0  0  0  0  0  0  0  0  0  # atno 17321 bound_to 7965
  140.1293  144.5303  150.6813 LP  0  0  0  0  0  0  0  0  0  0  0  0  # atno 17342 bound_to 10162
  140.6936  143.2390  151.5064 LP  0  0  0  0  0  0  0  0  0  0  0  0  # atno 17343 bound_to 10162
  156.2892  130.3743  149.7858 LP  0  0  0  0  0  0  0  0  0  0  0  0  # atno 17370 bound_to 10713
  156.5523  130.8347  151.3303 LP  0  0  0  0  0  0  0  0  0  0  0  0  # atno 17371 bound_to 10713
  141.1693  133.6537  156.4592 LP  0  0  0  0  0  0  0  0  0  0  0  0  # atno 17394 bound_to 11000
  140.4601  134.6849  157.5081 LP  0  0  0  0  0  0  0  0  0  0  0  0  # atno 17395 bound_to 11000

$$$$
