AV-unprocessed.smi:1754|AV-procd|sdf|7068|dock9
  -GOLD-   22720 8283D 1   1.00000     0.00000
 Structure written by MMmdl.
 44 45  0  0  0  0  0  0  0  0  3 V2000
  151.1801  143.1868  157.2447 C   0  0  0  0  0  0  0  0  0  0  0  0
  152.0579  144.0622  158.1526 C   0  0  0  0  0  0  0  0  0  0  0  0
  151.6100  144.0644  159.5451 N   0  0  0  0  0  0  0  0  0  0  0  0
  150.9989  145.2985  160.0444 C   0  0  0  0  0  0  0  0  0  0  0  0
  149.5182  145.1278  160.4203 C   0  0  0  0  0  0  0  0  0  0  0  0
  152.3963  143.2898  160.4285 C   0  0  0  0  0  0  0  0  0  0  0  0
  153.1735  142.1942  159.9826 C   0  0  0  0  0  0  0  0  0  0  0  0
  153.9530  141.4654  160.9037 C   0  0  0  0  0  0  0  0  0  0  0  0
  153.9644  141.8417  162.2621 C   0  0  0  0  0  0  0  0  0  0  0  0
  154.7464  141.0681  163.1600 N   0  0  0  0  0  0  0  0  0  0  0  0
  155.3500  141.4454  164.3142 C   0  0  0  0  0  0  0  0  0  0  0  0
  155.3109  142.6291  164.6464 O   0  0  0  0  0  0  0  0  0  0  0  0
  156.0105  140.5167  165.0711 N   0  5  0  0  0  0  0  0  0  0  0  0
  156.0054  140.3392  166.5319 C   0  0  2  0  0  0  0  0  0  0  0  0
  155.3868  141.5610  167.2422 C   0  0  0  0  0  0  0  0  0  0  0  0
  155.7293  141.4860  168.7369 C   0  0  0  0  0  0  0  0  0  0  0  0
  157.3654  140.6607  168.8332 S   0  0  0  0  0  0  0  0  0  0  0  0
  158.4084  141.6644  169.0950 O   0  0  0  0  0  0  0  0  0  0  0  0
  157.2455  139.4619  169.6781 O   0  0  0  0  0  0  0  0  0  0  0  0
  157.4341  140.1684  167.0657 C   0  0  0  0  0  0  0  0  0  0  0  0
  153.1585  142.9325  162.6632 C   0  0  0  0  0  0  0  0  0  0  0  0
  152.4248  143.6011  161.7478 N   0  3  0  0  0  0  0  0  0  0  0  0
  151.5555  143.1979  156.2214 H   0  0  0  0  0  0  0  0  0  0  0  0
  150.1499  143.5434  157.2214 H   0  0  0  0  0  0  0  0  0  0  0  0
  151.1689  142.1495  157.5798 H   0  0  0  0  0  0  0  0  0  0  0  0
  153.0839  143.6941  158.1215 H   0  0  0  0  0  0  0  0  0  0  0  0
  152.1036  145.0759  157.7569 H   0  0  0  0  0  0  0  0  0  0  0  0
  151.5642  145.6734  160.8985 H   0  0  0  0  0  0  0  0  0  0  0  0
  151.0754  146.0677  159.2751 H   0  0  0  0  0  0  0  0  0  0  0  0
  149.0943  146.0779  160.7455 H   0  0  0  0  0  0  0  0  0  0  0  0
  149.3766  144.4136  161.2311 H   0  0  0  0  0  0  0  0  0  0  0  0
  148.9356  144.7827  159.5658 H   0  0  0  0  0  0  0  0  0  0  0  0
  153.1709  141.8939  158.9457 H   0  0  0  0  0  0  0  0  0  0  0  0
  154.5417  140.6252  160.5650 H   0  0  0  0  0  0  0  0  0  0  0  0
  154.9146  140.1133  162.8787 H   0  0  0  0  0  0  0  0  0  0  0  0
  155.4360  139.4576  166.8313 H   0  0  0  0  0  0  0  0  0  0  0  0
  155.8186  142.4753  166.8317 H   0  0  0  0  0  0  0  0  0  0  0  0
  154.3097  141.6206  167.0845 H   0  0  0  0  0  0  0  0  0  0  0  0
  155.7761  142.4679  169.2076 H   0  0  0  0  0  0  0  0  0  0  0  0
  155.0065  140.8758  169.2806 H   0  0  0  0  0  0  0  0  0  0  0  0
  157.8053  139.1482  166.9706 H   0  0  0  0  0  0  0  0  0  0  0  0
  158.1288  140.8409  166.5609 H   0  0  0  0  0  0  0  0  0  0  0  0
  153.0607  143.2896  163.6776 H   0  0  0  0  0  0  0  0  0  0  0  0
  151.8593  144.3860  162.0707 H   0  0  0  0  0  0  0  0  0  0  0  0
  1  2  1  0  0  0  0
  1 23  1  0  0  0  0
  1 24  1  0  0  0  0
  1 25  1  0  0  0  0
  2  3  1  0  0  0  0
  2 26  1  0  0  0  0
  2 27  1  0  0  0  0
  3  4  1  0  0  0  0
  3  6  1  0  0  0  0
  4  5  1  0  0  0  0
  4 28  1  0  0  0  0
  4 29  1  0  0  0  0
  5 30  1  0  0  0  0
  5 31  1  0  0  0  0
  5 32  1  0  0  0  0
  6 22  1  0  0  0  0
  6  7  2  0  0  0  0
  7  8  1  0  0  0  0
  7 33  1  0  0  0  0
  8  9  2  0  0  0  0
  8 34  1  0  0  0  0
  9 10  1  0  0  0  0
  9 21  1  0  0  0  0
 10 11  1  0  0  0  0
 10 35  1  0  0  0  0
 11 12  2  0  0  0  0
 11 13  1  0  0  0  0
 13 14  1  0  0  0  0
 14 20  1  0  0  0  0
 14 15  1  0  0  0  0
 14 36  1  0  0  0  0
 15 16  1  0  0  0  0
 15 37  1  0  0  0  0
 15 38  1  0  0  0  0
 16 17  1  0  0  0  0
 16 39  1  0  0  0  0
 16 40  1  0  0  0  0
 17 18  2  0  0  0  0
 17 19  2  0  0  0  0
 17 20  1  0  0  0  0
 20 41  1  0  0  0  0
 20 42  1  0  0  0  0
 21 22  2  0  0  0  0
 21 43  1  0  0  0  0
 22 44  1  0  0  0  0
M  CHG  1  13  -1
M  CHG  1  22   1
M  END
> <s_m_source_file>
AV-unprocessed.smi

> <i_m_source_file_index>
1754

> <i_lp_mmshare_version>
43012

> <i_f3d_flags>
0

> <s_epik_input>
W0NIM11bQ0gyXU4oW0NIMl1bQ0gzXSljMVtjSF1bY0hdYyhbY0hdbjEpW05IXUMoPU8pW05IXVtDQEBIXShbQ0gyXTIpW0NIMl1bQ0gyXVMyKD1PKT1P

> <s_epik_cmdline>
J2VwaWtfcHl0aG9uJywgJy1waCcsICc3LjAnLCAnLXRuJywgJzgnLCAnLW1hJywgJzIwMCcsICctbWV0YWxfYmluZGluZycsICctaW1hZScsICc8aW5maWxlLm1hZT4nLCAnLW9tYWUnLCAnPG91dGZpbGUubWFlPic=

> <r_lp_tautomer_probability>
0.999994

> <r_epik_Ionization_Penalty>
7.1175

> <r_epik_Ionization_Penalty_Charging>
7.11749

> <r_epik_Ionization_Penalty_Neutral>
3.13064e-06

> <r_epik_State_Penalty>
6.65299

> <r_epik_Charging_Adjusted_Penalty>
13.7705

> <i_epik_Tot_Q>
0

> <i_epik_Tot_abs_Q>
2

> <r_epik_Metal_State_Penalty>
2.60496

> <b_epik_Metal_Only>
1

> <s_lp_Force_Field>
OPLS_2005

> <r_lp_Energy>
20.9126

> <b_lp_Chiralities_Consistent>
1

> <s_lp_Variant>
AV-unprocessed.smi:1754-5

> <Gold.Version>
5.8.1

> <Gold.Id.Protein>
6NUR|6NUR_protein|mol2

> <Gold.PLP.Fitness>
46.9548

> <Gold.PLP.PLP>
-48.3664

> <Gold.PLP.part.hbond>
-2.7397

> <Gold.PLP.part.metal>
0.0000

> <Gold.PLP.part.buried>
-5.2029

> <Gold.PLP.part.nonpolar>
-40.9889

> <Gold.PLP.part.repulsive>
0.1213

> <Gold.PLP.ligand.clash>
0.0000

> <Gold.PLP.ligand.torsion>
1.1486

> <Gold.PLP.Chemscore.Hbond>
0.0000

> <Gold.PLP.Chemscore.CHOScore>
0.0000

> <Gold.PLP.Chemscore.Metal>
0.0000

> <Gold.PLP.Chemscore.Internal.Correction>
0.8855

> <Gold.Rescore>
     Score         DG    S(hbond)    S(metal)    S(lipo)     H(rot)  DE(clash)    DE(int)     intcor
     10.44     -14.05       0.00        0.00     103.63       1.39       0.46       3.15       ----

> <Gold.Chemscore.Fitness>
10.4413

> <Gold.Chemscore.DG>
-14.0529

> <Gold.Chemscore.ZeroCoef>
-5.4800

> <Gold.Chemscore.Hbond>
0.0000

> <Gold.Chemscore.Metal>
0.0000

> <Gold.Chemscore.Lipo>
103.6348

> <Gold.Chemscore.Internal_Hbond>
0.0000

> <Gold.Chemscore.DEClash>
0.4627

> <Gold.Chemscore.DEInternal>
3.1489

> <Gold.Chemscore.Rot>
1.3876

> <Gold.Chemscore.Internal.Correction>
   9.000000E+99

> <Gold.Chemscore.Hbond.Weighted>
-0.0000

> <Gold.Chemscore.Metal.Weighted>
-0.0000

> <Gold.Chemscore.Lipo.Weighted>
-12.1253

> <Gold.Chemscore.Internal_Hbond.Weighted>
0.0000

> <Gold.Chemscore.DEClash.Weighted>
0.4627

> <Gold.Chemscore.DEInternal.Weighted>
3.1489

> <Gold.Chemscore.Rot.Weighted>
3.5524

> <Gold.Chemscore.Internal.Correction.Weighted>
   9.000000E+99

> <Gold.Protein.RotatedTorsions>
[ 6907 6896 6895 6894 ] final  126.51 input  -60.11 | X-H torsion
[ 7974 7965 7964 7962 ] final   63.05 input  175.53 | X-H torsion
[ 8008 7997 7996 7995 ] final -121.98 input   59.86 | X-H torsion
[ 10167 10162 10161 10158 ] final   86.74 input  -65.29 | X-H torsion
[ 10718 10713 10712 10709 ] final   87.04 input   66.30 | X-H torsion
[ 10763 10752 10751 10750 ] final  -79.45 input  -60.55 | X-H torsion
[ 11005 11000 10999 10996 ] final  -47.70 input  -57.11 | X-H torsion

> <Gold.Protein.ActiveResidues>
 VAL166  LYS551  ARG553  GLY616  TRP617  ASP618  TYR619  PRO620  LYS621  CYS622 
 ASP623  PHE694  ASN695  SER759  ASP760  ASP761  ALA762  ILE779  LEU786  VAL792 
 PHE793  MET794  SER795  GLU796  ALA797  LYS798  CYS799  TRP800  GLU811  SER814 

> <Gold.Protein.RotatedAtoms>
  152.3896  133.6660  159.6226 H   0  0  0  0  0  0  0  0  0  0  0  0  # atno 6907 bound_to 6896
  150.7807  133.8976  159.3340 H   0  0  0  0  0  0  0  0  0  0  0  0  # atno 6908 bound_to 6896
  151.6765  135.0969  160.0259 H   0  0  0  0  0  0  0  0  0  0  0  0  # atno 6909 bound_to 6896
  145.8663  139.3348  143.0789 H   0  0  0  0  0  0  0  0  0  0  0  0  # atno 7974 bound_to 7965
  155.1568  140.0405  157.2833 H   0  0  0  0  0  0  0  0  0  0  0  0  # atno 8008 bound_to 7997
  154.6365  140.2536  155.7345 H   0  0  0  0  0  0  0  0  0  0  0  0  # atno 8009 bound_to 7997
  156.2511  140.2864  156.0739 H   0  0  0  0  0  0  0  0  0  0  0  0  # atno 8010 bound_to 7997
  139.8845  144.6421  150.8806 H   0  0  0  0  0  0  0  0  0  0  0  0  # atno 10167 bound_to 10162
  157.6936  131.0240  150.3063 H   0  0  0  0  0  0  0  0  0  0  0  0  # atno 10718 bound_to 10713
  154.5388  135.5695  153.6821 H   0  0  0  0  0  0  0  0  0  0  0  0  # atno 10763 bound_to 10752
  152.9958  135.6222  154.2530 H   0  0  0  0  0  0  0  0  0  0  0  0  # atno 10764 bound_to 10752
  154.2460  135.2860  155.2815 H   0  0  0  0  0  0  0  0  0  0  0  0  # atno 10765 bound_to 10752
  141.0657  133.6694  156.3336 H   0  0  0  0  0  0  0  0  0  0  0  0  # atno 11005 bound_to 11000
  145.9189  140.9129  143.0415 LP  0  0  0  0  0  0  0  0  0  0  0  0  # atno 17320 bound_to 7965
  144.6726  140.1262  143.7446 LP  0  0  0  0  0  0  0  0  0  0  0  0  # atno 17321 bound_to 7965
  140.7738  143.3559  151.1922 LP  0  0  0  0  0  0  0  0  0  0  0  0  # atno 17342 bound_to 10162
  139.7166  143.9291  152.2969 LP  0  0  0  0  0  0  0  0  0  0  0  0  # atno 17343 bound_to 10162
  156.3571  130.3841  149.7281 LP  0  0  0  0  0  0  0  0  0  0  0  0  # atno 17370 bound_to 10713
  156.4739  130.8009  151.3026 LP  0  0  0  0  0  0  0  0  0  0  0  0  # atno 17371 bound_to 10713
  140.5779  134.5775  157.5473 LP  0  0  0  0  0  0  0  0  0  0  0  0  # atno 17394 bound_to 11000
  139.9474  134.7678  156.0530 LP  0  0  0  0  0  0  0  0  0  0  0  0  # atno 17395 bound_to 11000

$$$$
