AV-unprocessed.smi:2002|AV-procd|sdf|8114|dock2
  -GOLD-   2272010343D 1   1.00000     0.00000
 Structure written by MMmdl.
 39 40  0  0  0  0  0  0  0  0  2 V2000
  144.4734  131.5980  151.0723 C   0  0  0  0  0  0  0  0  0  0  0  0
  143.1859  132.4148  150.8971 C   0  0  0  0  0  0  0  0  0  0  0  0
  143.4473  133.8731  150.9054 N   0  3  2  0  0  0  0  0  0  0  0  0
  144.4842  134.3064  149.9444 C   0  0  0  0  0  0  0  0  0  0  0  0
  145.1103  135.5546  150.5601 C   0  0  0  0  0  0  0  0  0  0  0  0
  145.1098  135.2232  152.0494 C   0  0  1  0  0  0  0  0  0  0  0  0
  145.2763  136.4518  152.9642 C   0  0  0  0  0  0  0  0  0  0  0  0
  146.6663  136.8928  153.0417 N   0  0  0  0  0  0  0  0  0  0  0  0
  147.1191  137.9207  153.7744 C   0  0  0  0  0  0  0  0  0  0  0  0
  146.3944  138.6169  154.4850 O   0  0  0  0  0  0  0  0  0  0  0  0
  148.4464  138.0726  153.6311 N   0  0  0  0  0  0  0  0  0  0  0  0
  149.2966  139.0249  154.2508 C   0  0  0  0  0  0  0  0  0  0  0  0
  148.8869  140.2213  154.9083 C   0  0  0  0  0  0  0  0  0  0  0  0
  150.0708  140.7649  155.3201 C   0  0  0  0  0  0  0  0  0  0  0  0
  150.4094  142.0089  156.0672 C   0  0  0  0  0  0  0  0  0  0  0  0
  151.1115  139.9716  154.9489 O   0  0  0  0  0  0  0  0  0  0  0  0
  150.6065  138.8599  154.2645 N   0  0  0  0  0  0  0  0  0  0  0  0
  143.7969  134.4434  152.2294 C   0  0  0  0  0  0  0  0  0  0  0  0
  144.2508  130.5314  151.1069 H   0  0  0  0  0  0  0  0  0  0  0  0
  144.9831  131.8595  152.0001 H   0  0  0  0  0  0  0  0  0  0  0  0
  145.1703  131.7600  150.2499 H   0  0  0  0  0  0  0  0  0  0  0  0
  142.6749  132.1332  149.9754 H   0  0  0  0  0  0  0  0  0  0  0  0
  142.5083  132.1758  151.7180 H   0  0  0  0  0  0  0  0  0  0  0  0
  145.2459  133.5306  149.8460 H   0  0  0  0  0  0  0  0  0  0  0  0
  144.0631  134.4910  148.9556 H   0  0  0  0  0  0  0  0  0  0  0  0
  146.1081  135.7612  150.1716 H   0  0  0  0  0  0  0  0  0  0  0  0
  144.4822  136.4246  150.3625 H   0  0  0  0  0  0  0  0  0  0  0  0
  145.9386  134.5363  152.2314 H   0  0  0  0  0  0  0  0  0  0  0  0
  144.6923  137.2817  152.5660 H   0  0  0  0  0  0  0  0  0  0  0  0
  144.8761  136.2503  153.9595 H   0  0  0  0  0  0  0  0  0  0  0  0
  147.3344  136.3787  152.4856 H   0  0  0  0  0  0  0  0  0  0  0  0
  148.9085  137.4256  153.0092 H   0  0  0  0  0  0  0  0  0  0  0  0
  147.8994  140.6290  155.0617 H   0  0  0  0  0  0  0  0  0  0  0  0
  149.5351  142.6521  156.1685 H   0  0  0  0  0  0  0  0  0  0  0  0
  151.1853  142.5730  155.5493 H   0  0  0  0  0  0  0  0  0  0  0  0
  150.7728  141.7713  157.0669 H   0  0  0  0  0  0  0  0  0  0  0  0
  142.9835  135.1080  152.5213 H   0  0  0  0  0  0  0  0  0  0  0  0
  143.8974  133.6851  153.0071 H   0  0  0  0  0  0  0  0  0  0  0  0
  142.5922  134.3286  150.6192 H   0  0  0  0  0  0  0  0  0  0  0  0
  1  2  1  0  0  0  0
  1 19  1  0  0  0  0
  1 20  1  0  0  0  0
  1 21  1  0  0  0  0
  2  3  1  0  0  0  0
  2 22  1  0  0  0  0
  2 23  1  0  0  0  0
  3 18  1  0  0  0  0
  3  4  1  0  0  0  0
  3 39  1  0  0  0  0
  4  5  1  0  0  0  0
  4 24  1  0  0  0  0
  4 25  1  0  0  0  0
  5  6  1  0  0  0  0
  5 26  1  0  0  0  0
  5 27  1  0  0  0  0
  6  7  1  0  0  0  0
  6 18  1  0  0  0  0
  6 28  1  0  0  0  0
  7  8  1  0  0  0  0
  7 29  1  0  0  0  0
  7 30  1  0  0  0  0
  8  9  1  0  0  0  0
  8 31  1  0  0  0  0
  9 10  2  0  0  0  0
  9 11  1  0  0  0  0
 11 12  1  0  0  0  0
 11 32  1  0  0  0  0
 12 17  2  0  0  0  0
 12 13  1  0  0  0  0
 13 14  2  0  0  0  0
 13 33  1  0  0  0  0
 14 15  1  0  0  0  0
 14 16  1  0  0  0  0
 15 34  1  0  0  0  0
 15 35  1  0  0  0  0
 15 36  1  0  0  0  0
 16 17  1  0  0  0  0
 18 37  1  0  0  0  0
 18 38  1  0  0  0  0
M  CHG  1   3   1
M  END
> <s_m_source_file>
AV-unprocessed.smi

> <i_m_source_file_index>
2002

> <i_lp_mmshare_version>
43012

> <i_f3d_flags>
0

> <s_epik_input>
W0NIM11bQ0gyXU4xW0NIMl1bQ0gyXVtDQEhdKFtDSDJdMSlbQ0gyXVtOSF1DKD1PKVtOSF1jMltjSF1jKFtDSDNdKW9uMg==

> <s_epik_cmdline>
J2VwaWtfcHl0aG9uJywgJy1waCcsICc3LjAnLCAnLXRuJywgJzgnLCAnLW1hJywgJzIwMCcsICctbWV0YWxfYmluZGluZycsICctaW1hZScsICc8aW5maWxlLm1hZT4nLCAnLW9tYWUnLCAnPG91dGZpbGUubWFlPic=

> <r_epik_Ionization_Penalty>
0.000632871

> <r_epik_Ionization_Penalty_Charging>
0.000610951

> <r_epik_Ionization_Penalty_Neutral>
2.19198e-05

> <r_epik_State_Penalty>
0.000385263

> <r_epik_Charging_Adjusted_Penalty>
0.000996214

> <i_epik_Tot_Q>
1

> <i_epik_Tot_abs_Q>
1

> <r_epik_Metal_State_Penalty>
-0

> <b_epik_Metal_Only>
0

> <s_lp_Force_Field>
OPLS_2005

> <r_lp_Energy>
27.554

> <b_lp_Chiralities_Consistent>
1

> <s_lp_Variant>
AV-unprocessed.smi:2002-2

> <Gold.Version>
5.8.1

> <Gold.Id.Protein>
6NUR|6NUR_protein|mol2

> <Gold.PLP.Fitness>
42.3390

> <Gold.PLP.PLP>
-28.4587

> <Gold.PLP.part.hbond>
-4.0916

> <Gold.PLP.part.metal>
0.0000

> <Gold.PLP.part.buried>
-0.0161

> <Gold.PLP.part.nonpolar>
-24.3828

> <Gold.PLP.part.repulsive>
0.3848

> <Gold.PLP.ligand.clash>
0.0000

> <Gold.PLP.ligand.torsion>
0.2649

> <Gold.PLP.Chemscore.Hbond>
4.8000

> <Gold.PLP.Chemscore.CHOScore>
0.0000

> <Gold.PLP.Chemscore.Metal>
0.0000

> <Gold.Chemscore.Hbonds>
donor molecule, donor type, donor heavy atom, donor atom, acceptor molecule, acceptor atom, score
      L1  H     3    39       P1 10186  2.00
      L1  H     8    31       P1  7948  0.99
      L1  H    11    32       P1  7948  1.00
      P1  H  7989  7998       L1    16  0.76

> <Gold.PLP.Chemscore.Internal.Correction>
0.0101

> <Gold.Rescore>
     Score         DG    S(hbond)    S(metal)    S(lipo)     H(rot)  DE(clash)    DE(int)     intcor
     15.77     -18.64       2.81        0.00      65.67       1.52       1.48       1.39       ----

> <Gold.Chemscore.Fitness>
15.7685

> <Gold.Chemscore.DG>
-18.6356

> <Gold.Chemscore.ZeroCoef>
-5.4800

> <Gold.Chemscore.Hbond>
2.8053

> <Gold.Chemscore.Metal>
0.0000

> <Gold.Chemscore.Lipo>
65.6665

> <Gold.Chemscore.Internal_Hbond>
0.0000

> <Gold.Chemscore.DEClash>
1.4774

> <Gold.Chemscore.DEInternal>
1.3897

> <Gold.Chemscore.Rot>
1.5223

> <Gold.Chemscore.Internal.Correction>
   9.000000E+99

> <Gold.Chemscore.Hbonds>
donor molecule, donor type, donor heavy atom, donor atom, acceptor molecule, acceptor atom, score
      L1  H     3    39       P1 10186  0.43
      L1  H     8    31       P1  7948  0.94
      L1  H    11    32       P1  7948  0.98
      P1  H  7989  7998       L1    16  0.03

> <Gold.Chemscore.Hbond.Weighted>
-9.3697

> <Gold.Chemscore.Metal.Weighted>
-0.0000

> <Gold.Chemscore.Lipo.Weighted>
-7.6830

> <Gold.Chemscore.Internal_Hbond.Weighted>
0.0000

> <Gold.Chemscore.DEClash.Weighted>
1.4774

> <Gold.Chemscore.DEInternal.Weighted>
1.3897

> <Gold.Chemscore.Rot.Weighted>
3.8971

> <Gold.Chemscore.Internal.Correction.Weighted>
   9.000000E+99

> <Gold.Protein.RotatedTorsions>
[ 6907 6896 6895 6894 ] final -174.55 input  -60.11 | X-H torsion
[ 7974 7965 7964 7962 ] final  -13.64 input  175.53 | X-H torsion
[ 8008 7997 7996 7995 ] final -101.39 input   59.86 | X-H torsion
[ 10167 10162 10161 10158 ] final -134.92 input  -65.29 | X-H torsion
[ 10718 10713 10712 10709 ] final -172.46 input   66.30 | X-H torsion
[ 10763 10752 10751 10750 ] final  -85.77 input  -60.55 | X-H torsion
[ 11005 11000 10999 10996 ] final  156.06 input  -57.11 | X-H torsion

> <Gold.Protein.ActiveResidues>
 VAL166  LYS551  ARG553  GLY616  TRP617  ASP618  TYR619  PRO620  LYS621  CYS622 
 ASP623  PHE694  ASN695  SER759  ASP760  ASP761  ALA762  ILE779  LEU786  VAL792 
 PHE793  MET794  SER795  GLU796  ALA797  LYS798  CYS799  TRP800  GLU811  SER814 

> <Gold.Protein.RotatedAtoms>
  151.5742  133.3386  159.2995 H   0  0  0  0  0  0  0  0  0  0  0  0  # atno 6907 bound_to 6896
  150.8350  134.7623  159.6897 H   0  0  0  0  0  0  0  0  0  0  0  0  # atno 6908 bound_to 6896
  152.4428  134.5563  159.9933 H   0  0  0  0  0  0  0  0  0  0  0  0  # atno 6909 bound_to 6896
  146.2106  140.3232  142.8392 H   0  0  0  0  0  0  0  0  0  0  0  0  # atno 7974 bound_to 7965
  154.8419  140.0435  157.1547 H   0  0  0  0  0  0  0  0  0  0  0  0  # atno 8008 bound_to 7997
  154.9037  140.3004  155.5283 H   0  0  0  0  0  0  0  0  0  0  0  0  # atno 8009 bound_to 7997
  156.2992  140.2371  156.4068 H   0  0  0  0  0  0  0  0  0  0  0  0  # atno 8010 bound_to 7997
  139.8831  143.6814  152.2624 H   0  0  0  0  0  0  0  0  0  0  0  0  # atno 10167 bound_to 10162
  156.7559  130.9395  151.3116 H   0  0  0  0  0  0  0  0  0  0  0  0  # atno 10718 bound_to 10713
  154.6148  135.5473  153.7512 H   0  0  0  0  0  0  0  0  0  0  0  0  # atno 10763 bound_to 10752
  153.0211  135.6398  154.1526 H   0  0  0  0  0  0  0  0  0  0  0  0  # atno 10764 bound_to 10752
  154.1462  135.2905  155.3127 H   0  0  0  0  0  0  0  0  0  0  0  0  # atno 10765 bound_to 10752
  140.1640  134.8590  157.2609 H   0  0  0  0  0  0  0  0  0  0  0  0  # atno 11005 bound_to 11000
  144.8905  140.7517  143.5930 LP  0  0  0  0  0  0  0  0  0  0  0  0  # atno 17320 bound_to 7965
  145.3155  139.1805  143.4616 LP  0  0  0  0  0  0  0  0  0  0  0  0  # atno 17321 bound_to 7965
  139.7178  144.7608  151.1006 LP  0  0  0  0  0  0  0  0  0  0  0  0  # atno 17342 bound_to 10162
  140.7741  143.5247  150.9494 LP  0  0  0  0  0  0  0  0  0  0  0  0  # atno 17343 bound_to 10162
  157.6756  130.9092  150.0143 LP  0  0  0  0  0  0  0  0  0  0  0  0  # atno 17370 bound_to 10713
  156.1371  130.3642  149.9640 LP  0  0  0  0  0  0  0  0  0  0  0  0  # atno 17371 bound_to 10713
  140.2456  134.3744  155.7463 LP  0  0  0  0  0  0  0  0  0  0  0  0  # atno 17394 bound_to 11000
  141.2212  133.7289  156.8856 LP  0  0  0  0  0  0  0  0  0  0  0  0  # atno 17395 bound_to 11000

$$$$
