AV-unprocessed.smi:873|AV-procd|sdf|4016|dock9
  -GOLD-   22720 1503D 1   1.00000     0.00000
 Structure written by MMmdl.
 45 48  0  0  0  0  0  0  0  0  1 V2000
  148.7887  135.2887  156.1219 O   0  0  0  0  0  0  0  0  0  0  0  0
  148.9773  135.5067  154.9257 C   0  0  0  0  0  0  0  0  0  0  0  0
  149.4687  136.6453  154.4073 N   0  0  0  0  0  0  0  0  0  0  0  0
  149.9264  137.8100  155.0814 C   0  0  0  0  0  0  0  0  0  0  0  0
  149.8965  138.0170  156.4833 C   0  0  0  0  0  0  0  0  0  0  0  0
  150.3693  139.1519  157.0429 N   0  0  0  0  0  0  0  0  0  0  0  0
  150.8805  140.0691  156.2173 C   0  0  0  0  0  0  0  0  0  0  0  0
  151.3686  141.3392  156.8423 C   0  0  0  0  0  0  0  0  0  0  0  0
  151.4121  141.4966  158.3489 C   0  0  0  0  0  0  0  0  0  0  0  0
  150.4075  142.2754  157.5464 C   0  0  0  0  0  0  0  0  0  0  0  0
  150.9545  139.9883  154.8862 N   0  0  0  0  0  0  0  0  0  0  0  0
  150.4842  138.8573  154.3183 C   0  0  0  0  0  0  0  0  0  0  0  0
  148.6992  134.6195  153.9601 N   0  0  0  0  0  0  0  0  0  0  0  0
  148.1499  133.2840  154.1749 C   0  0  0  0  0  0  0  0  0  0  0  0
  149.0915  132.2029  153.6148 C   0  0  0  0  0  0  0  0  0  0  0  0
  148.4457  130.8088  153.7018 C   0  0  0  0  0  0  0  0  0  0  0  0
  147.1793  130.7901  152.9693 N   0  0  0  0  0  0  0  0  0  0  0  0
  146.6171  129.4510  153.0373 C   0  0  0  0  0  0  0  0  0  0  0  0
  147.0138  128.4689  151.9587 C   0  0  0  0  0  0  0  0  0  0  0  0
  145.6226  129.0546  151.9699 C   0  0  0  0  0  0  0  0  0  0  0  0
  146.2377  131.7284  153.5801 C   0  0  0  0  0  0  0  0  0  0  0  0
  146.7821  133.1646  153.4846 C   0  0  0  0  0  0  0  0  0  0  0  0
  149.5096  136.6888  153.3996 H   0  0  0  0  0  0  0  0  0  0  0  0
  149.5126  137.2882  157.1790 H   0  0  0  0  0  0  0  0  0  0  0  0
  152.1759  141.7815  156.2617 H   0  0  0  0  0  0  0  0  0  0  0  0
  151.0375  140.6757  158.9571 H   0  0  0  0  0  0  0  0  0  0  0  0
  152.2512  142.0448  158.7720 H   0  0  0  0  0  0  0  0  0  0  0  0
  150.5743  143.3440  157.4297 H   0  0  0  0  0  0  0  0  0  0  0  0
  149.3651  141.9722  157.6226 H   0  0  0  0  0  0  0  0  0  0  0  0
  150.5539  138.7896  153.2425 H   0  0  0  0  0  0  0  0  0  0  0  0
  148.8838  134.8848  153.0039 H   0  0  0  0  0  0  0  0  0  0  0  0
  148.0107  133.1181  155.2450 H   0  0  0  0  0  0  0  0  0  0  0  0
  149.3378  132.4235  152.5748 H   0  0  0  0  0  0  0  0  0  0  0  0
  150.0348  132.2035  154.1622 H   0  0  0  0  0  0  0  0  0  0  0  0
  149.1229  130.0679  153.2751 H   0  0  0  0  0  0  0  0  0  0  0  0
  148.2828  130.5311  154.7447 H   0  0  0  0  0  0  0  0  0  0  0  0
  146.4403  129.0131  154.0186 H   0  0  0  0  0  0  0  0  0  0  0  0
  147.6953  128.8108  151.1818 H   0  0  0  0  0  0  0  0  0  0  0  0
  147.1222  127.4252  152.2467 H   0  0  0  0  0  0  0  0  0  0  0  0
  144.8039  128.4018  152.2660 H   0  0  0  0  0  0  0  0  0  0  0  0
  145.3805  129.7856  151.2004 H   0  0  0  0  0  0  0  0  0  0  0  0
  145.2788  131.6692  153.0638 H   0  0  0  0  0  0  0  0  0  0  0  0
  146.0578  131.4589  154.6222 H   0  0  0  0  0  0  0  0  0  0  0  0
  146.0729  133.8582  153.9374 H   0  0  0  0  0  0  0  0  0  0  0  0
  146.8660  133.4490  152.4344 H   0  0  0  0  0  0  0  0  0  0  0  0
  1  2  2  0  0  0  0
  2  3  1  0  0  0  0
  2 13  1  0  0  0  0
  3  4  1  0  0  0  0
  3 23  1  0  0  0  0
  4 12  1  0  0  0  0
  4  5  2  0  0  0  0
  5  6  1  0  0  0  0
  5 24  1  0  0  0  0
  6  7  2  0  0  0  0
  7  8  1  0  0  0  0
  7 11  1  0  0  0  0
  8 10  1  0  0  0  0
  8  9  1  0  0  0  0
  8 25  1  0  0  0  0
  9 10  1  0  0  0  0
  9 26  1  0  0  0  0
  9 27  1  0  0  0  0
 10 28  1  0  0  0  0
 10 29  1  0  0  0  0
 11 12  2  0  0  0  0
 12 30  1  0  0  0  0
 13 14  1  0  0  0  0
 13 31  1  0  0  0  0
 14 22  1  0  0  0  0
 14 15  1  0  0  0  0
 14 32  1  0  0  0  0
 15 16  1  0  0  0  0
 15 33  1  0  0  0  0
 15 34  1  0  0  0  0
 16 17  1  0  0  0  0
 16 35  1  0  0  0  0
 16 36  1  0  0  0  0
 17 18  1  0  0  0  0
 17 21  1  0  0  0  0
 18 20  1  0  0  0  0
 18 19  1  0  0  0  0
 18 37  1  0  0  0  0
 19 20  1  0  0  0  0
 19 38  1  0  0  0  0
 19 39  1  0  0  0  0
 20 40  1  0  0  0  0
 20 41  1  0  0  0  0
 21 22  1  0  0  0  0
 21 42  1  0  0  0  0
 21 43  1  0  0  0  0
 22 44  1  0  0  0  0
 22 45  1  0  0  0  0
M  END
> <s_m_source_file>
AV-unprocessed.smi

> <i_m_source_file_index>
873

> <i_lp_mmshare_version>
43012

> <i_f3d_flags>
0

> <s_epik_input>
W0NIMl0xW0NIMl1bQ0hdMU4oW0NIMl1bQ0gyXTIpW0NIMl1bQ0gyXVtDSF0yW05IXUMoPU8pW05IXWMzW2NIXW5jKG5bY0hdMylbQ0hdNFtDSDJdW0NIMl00

> <s_epik_cmdline>
J2VwaWtfcHl0aG9uJywgJy1waCcsICc3LjAnLCAnLXRuJywgJzgnLCAnLW1hJywgJzIwMCcsICctbWV0YWxfYmluZGluZycsICctaW1hZScsICc8aW5maWxlLm1hZT4nLCAnLW9tYWUnLCAnPG91dGZpbGUubWFlPic=

> <r_lp_tautomer_probability>
1

> <r_epik_Ionization_Penalty>
0.990889

> <r_epik_Ionization_Penalty_Charging>
0

> <r_epik_Ionization_Penalty_Neutral>
0.990889

> <r_epik_State_Penalty>
1.03856

> <r_epik_Charging_Adjusted_Penalty>
1.03856

> <i_epik_Tot_Q>
0

> <i_epik_Tot_abs_Q>
0

> <r_epik_Metal_State_Penalty>
1.03856

> <b_epik_Metal_Only>
0

> <s_lp_Force_Field>
OPLS_2005

> <r_lp_Energy>
20.0784

> <b_lp_Chiralities_Consistent>
1

> <s_lp_Variant>
AV-unprocessed.smi:873-3

> <Gold.Version>
5.8.1

> <Gold.Id.Protein>
6NUR|6NUR_protein|mol2

> <Gold.PLP.Fitness>
46.2212

> <Gold.PLP.PLP>
-34.2351

> <Gold.PLP.part.hbond>
-3.0000

> <Gold.PLP.part.metal>
0.0000

> <Gold.PLP.part.buried>
-5.2732

> <Gold.PLP.part.nonpolar>
-26.0227

> <Gold.PLP.part.repulsive>
0.2229

> <Gold.PLP.ligand.clash>
0.0000

> <Gold.PLP.ligand.torsion>
0.6492

> <Gold.PLP.Chemscore.Hbond>
3.0000

> <Gold.PLP.Chemscore.CHOScore>
1.0000

> <Gold.PLP.Chemscore.Metal>
0.0000

> <Gold.Chemscore.Hbonds>
donor molecule, donor type, donor heavy atom, donor atom, acceptor molecule, acceptor atom, score
      L1  H     3    23       P1  7948  1.00
      L1  H    13    31       P1  7948  0.80
      P1  H  7989  7998       L1    11  1.00
      L1  C    12    30       P1  7957  0.86

> <Gold.PLP.Chemscore.Internal.Correction>
1.2845

> <Gold.Rescore>
     Score         DG    S(hbond)    S(metal)    S(lipo)     H(rot)  DE(clash)    DE(int)     intcor
     17.60     -19.48       2.36        0.00      81.52       1.33       0.07       1.80       ----

> <Gold.Chemscore.Fitness>
17.6040

> <Gold.Chemscore.DG>
-19.4773

> <Gold.Chemscore.ZeroCoef>
-5.4800

> <Gold.Chemscore.Hbond>
2.3552

> <Gold.Chemscore.Metal>
0.0000

> <Gold.Chemscore.Lipo>
81.5243

> <Gold.Chemscore.Internal_Hbond>
0.0000

> <Gold.Chemscore.DEClash>
0.0727

> <Gold.Chemscore.DEInternal>
1.8007

> <Gold.Chemscore.Rot>
1.3310

> <Gold.Chemscore.Internal.Correction>
   9.000000E+99

> <Gold.Chemscore.Hbonds>
donor molecule, donor type, donor heavy atom, donor atom, acceptor molecule, acceptor atom, score
      L1  H     3    23       P1  7948  0.72
      L1  H    13    31       P1  7948  0.13
      P1  H  7989  7998       L1    11  0.40

> <Gold.Chemscore.Hbond.Weighted>
-7.8665

> <Gold.Chemscore.Metal.Weighted>
-0.0000

> <Gold.Chemscore.Lipo.Weighted>
-9.5383

> <Gold.Chemscore.Internal_Hbond.Weighted>
0.0000

> <Gold.Chemscore.DEClash.Weighted>
0.0727

> <Gold.Chemscore.DEInternal.Weighted>
1.8007

> <Gold.Chemscore.Rot.Weighted>
3.4075

> <Gold.Chemscore.Internal.Correction.Weighted>
   9.000000E+99

> <Gold.Protein.RotatedTorsions>
[ 6907 6896 6895 6894 ] final -146.29 input  -60.11 | X-H torsion
[ 7974 7965 7964 7962 ] final -163.02 input  175.53 | X-H torsion
[ 8008 7997 7996 7995 ] final  165.24 input   59.86 | X-H torsion
[ 10167 10162 10161 10158 ] final   38.41 input  -65.29 | X-H torsion
[ 10718 10713 10712 10709 ] final  132.40 input   66.30 | X-H torsion
[ 10763 10752 10751 10750 ] final -164.73 input  -60.55 | X-H torsion
[ 11005 11000 10999 10996 ] final  176.80 input  -57.11 | X-H torsion

> <Gold.Protein.ActiveResidues>
 VAL166  LYS551  ARG553  GLY616  TRP617  ASP618  TYR619  PRO620  LYS621  CYS622 
 ASP623  PHE694  ASN695  SER759  ASP760  ASP761  ALA762  ILE779  LEU786  VAL792 
 PHE793  MET794  SER795  GLU796  ALA797  LYS798  CYS799  TRP800  GLU811  SER814 

> <Gold.Protein.RotatedAtoms>
  151.1395  133.4981  159.2596 H   0  0  0  0  0  0  0  0  0  0  0  0  # atno 6907 bound_to 6896
  151.1670  135.0300  159.8745 H   0  0  0  0  0  0  0  0  0  0  0  0  # atno 6908 bound_to 6896
  152.5462  134.1263  159.8473 H   0  0  0  0  0  0  0  0  0  0  0  0  # atno 6909 bound_to 6896
  144.7339  140.3168  143.6178 H   0  0  0  0  0  0  0  0  0  0  0  0  # atno 7974 bound_to 7965
  156.1816  140.1675  156.8263 H   0  0  0  0  0  0  0  0  0  0  0  0  # atno 8008 bound_to 7997
  154.5367  140.0745  156.8472 H   0  0  0  0  0  0  0  0  0  0  0  0  # atno 8009 bound_to 7997
  155.3298  140.3378  155.4242 H   0  0  0  0  0  0  0  0  0  0  0  0  # atno 8010 bound_to 7997
  140.3939  144.1815  150.6131 H   0  0  0  0  0  0  0  0  0  0  0  0  # atno 10167 bound_to 10162
  157.4875  131.1089  150.9601 H   0  0  0  0  0  0  0  0  0  0  0  0  # atno 10718 bound_to 10713
  154.7000  135.2986  154.9355 H   0  0  0  0  0  0  0  0  0  0  0  0  # atno 10763 bound_to 10752
  154.0290  135.6672  153.4783 H   0  0  0  0  0  0  0  0  0  0  0  0  # atno 10764 bound_to 10752
  153.0674  135.5080  154.8139 H   0  0  0  0  0  0  0  0  0  0  0  0  # atno 10765 bound_to 10752
  140.3771  134.6979  157.4428 H   0  0  0  0  0  0  0  0  0  0  0  0  # atno 11005 bound_to 11000
  145.7609  139.1824  143.2267 LP  0  0  0  0  0  0  0  0  0  0  0  0  # atno 17320 bound_to 7965
  146.0987  140.7570  142.9560 LP  0  0  0  0  0  0  0  0  0  0  0  0  # atno 17321 bound_to 7965
  140.4811  143.2379  151.8954 LP  0  0  0  0  0  0  0  0  0  0  0  0  # atno 17342 bound_to 10162
  139.4787  144.5268  151.8723 LP  0  0  0  0  0  0  0  0  0  0  0  0  # atno 17343 bound_to 10162
  157.0314  130.5713  149.5343 LP  0  0  0  0  0  0  0  0  0  0  0  0  # atno 17370 bound_to 10713
  156.0155  130.5248  150.8120 LP  0  0  0  0  0  0  0  0  0  0  0  0  # atno 17371 bound_to 10713
  140.0507  134.6135  155.8866 LP  0  0  0  0  0  0  0  0  0  0  0  0  # atno 17394 bound_to 11000
  141.1935  133.6579  156.5554 LP  0  0  0  0  0  0  0  0  0  0  0  0  # atno 17395 bound_to 11000

$$$$
