AV-unprocessed.smi:1491|AV-procd|sdf|6034|dock10
  -GOLD-   22720 6143D 1   1.00000     0.00000
 Structure written by MMmdl.
 38 39  0  0  0  0  0  0  0  0  1 V2000
  146.4707  134.4534  155.0090 O   0  0  0  0  0  0  0  0  0  0  0  0
  147.1559  134.8501  154.0663 C   0  0  0  0  0  0  0  0  0  0  0  0
  148.2613  135.5963  154.2035 N   0  0  0  0  0  0  0  0  0  0  0  0
  148.8377  136.0216  155.4757 C   0  0  0  0  0  0  0  0  0  0  0  0
  150.3745  136.1019  155.4141 C   0  0  0  0  0  0  0  0  0  0  0  0
  150.8580  137.4594  155.2418 N   0  0  0  0  0  0  0  0  0  0  0  0
  151.7065  138.1617  156.0878 C   0  0  0  0  0  0  0  0  0  0  0  0
  151.8808  139.4058  155.5252 C   0  0  0  0  0  0  0  0  0  0  0  0
  151.1595  139.4884  154.3366 N   0  0  0  0  0  0  0  0  0  0  0  0
  150.5814  138.2986  154.2342 C   0  0  0  0  0  0  0  0  0  0  0  0
  146.8993  134.5805  152.7788 N   0  0  0  0  0  0  0  0  0  0  0  0
  145.7904  133.7719  152.2804 C   0  0  2  0  0  0  0  0  0  0  0  0
  146.3195  132.7228  151.2834 C   0  0  0  0  0  0  0  0  0  0  0  0
  145.1732  131.9077  150.6628 C   0  0  0  0  0  0  0  0  0  0  0  0
  144.1353  132.8285  149.9986 C   0  0  1  0  0  0  0  0  0  0  0  0
  143.0658  132.0524  149.5014 O   0  0  0  0  0  0  0  0  0  0  0  0
  143.5961  133.8668  150.9974 C   0  0  0  0  0  0  0  0  0  0  0  0
  144.7403  134.6841  151.6183 C   0  0  0  0  0  0  0  0  0  0  0  0
  148.7527  135.8750  153.3668 H   0  0  0  0  0  0  0  0  0  0  0  0
  148.4369  137.0102  155.7005 H   0  0  0  0  0  0  0  0  0  0  0  0
  148.5159  135.3730  156.2925 H   0  0  0  0  0  0  0  0  0  0  0  0
  150.8165  135.6801  156.3179 H   0  0  0  0  0  0  0  0  0  0  0  0
  150.7418  135.5051  154.5787 H   0  0  0  0  0  0  0  0  0  0  0  0
  152.0994  137.7329  156.9976 H   0  0  0  0  0  0  0  0  0  0  0  0
  152.4654  140.2412  155.8811 H   0  0  0  0  0  0  0  0  0  0  0  0
  149.9356  138.0328  153.4101 H   0  0  0  0  0  0  0  0  0  0  0  0
  147.5307  134.9533  152.0852 H   0  0  0  0  0  0  0  0  0  0  0  0
  145.3061  133.2428  153.1036 H   0  0  0  0  0  0  0  0  0  0  0  0
  146.8800  133.2173  150.4886 H   0  0  0  0  0  0  0  0  0  0  0  0
  147.0187  132.0512  151.7835 H   0  0  0  0  0  0  0  0  0  0  0  0
  145.5748  131.2057  149.9311 H   0  0  0  0  0  0  0  0  0  0  0  0
  144.6954  131.3078  151.4389 H   0  0  0  0  0  0  0  0  0  0  0  0
  144.5964  133.3438  149.1548 H   0  0  0  0  0  0  0  0  0  0  0  0
  142.3390  132.6269  149.3148 H   0  0  0  0  0  0  0  0  0  0  0  0
  142.8931  134.5364  150.5001 H   0  0  0  0  0  0  0  0  0  0  0  0
  143.0388  133.3655  151.7901 H   0  0  0  0  0  0  0  0  0  0  0  0
  144.3360  135.3817  152.3527 H   0  0  0  0  0  0  0  0  0  0  0  0
  145.2116  135.2901  150.8432 H   0  0  0  0  0  0  0  0  0  0  0  0
  1  2  2  0  0  0  0
  2  3  1  0  0  0  0
  2 11  1  0  0  0  0
  3  4  1  0  0  0  0
  3 19  1  0  0  0  0
  4  5  1  0  0  0  0
  4 20  1  0  0  0  0
  4 21  1  0  0  0  0
  5  6  1  0  0  0  0
  5 22  1  0  0  0  0
  5 23  1  0  0  0  0
  6 10  1  0  0  0  0
  6  7  1  0  0  0  0
  7  8  2  0  0  0  0
  7 24  1  0  0  0  0
  8  9  1  0  0  0  0
  8 25  1  0  0  0  0
  9 10  2  0  0  0  0
 10 26  1  0  0  0  0
 11 12  1  0  0  0  0
 11 27  1  0  0  0  0
 12 18  1  0  0  0  0
 12 13  1  0  0  0  0
 12 28  1  0  0  0  0
 13 14  1  0  0  0  0
 13 29  1  0  0  0  0
 13 30  1  0  0  0  0
 14 15  1  0  0  0  0
 14 31  1  0  0  0  0
 14 32  1  0  0  0  0
 15 16  1  0  0  0  0
 15 17  1  0  0  0  0
 15 33  1  0  0  0  0
 16 34  1  0  0  0  0
 17 18  1  0  0  0  0
 17 35  1  0  0  0  0
 17 36  1  0  0  0  0
 18 37  1  0  0  0  0
 18 38  1  0  0  0  0
M  END
> <s_m_source_file>
AV-unprocessed.smi

> <i_m_source_file_index>
1491

> <i_lp_mmshare_version>
43012

> <i_f3d_flags>
0

> <s_epik_input>
W0NIMl0xW0NIMl1bQ0BIXShbT0hdKVtDSDJdW0NIMl1bQ0BIXTFbTkhdQyg9TylbTkhdW0NIMl1bQ0gyXW4yW2NIXVtjSF1uW2NIXTI=

> <s_epik_cmdline>
J2VwaWtfcHl0aG9uJywgJy1waCcsICc3LjAnLCAnLXRuJywgJzgnLCAnLW1hJywgJzIwMCcsICctbWV0YWxfYmluZGluZycsICctaW1hZScsICc8aW5maWxlLm1hZT4nLCAnLW9tYWUnLCAnPG91dGZpbGUubWFlPic=

> <r_lp_tautomer_probability>
1

> <r_epik_Ionization_Penalty>
0.623245

> <r_epik_Ionization_Penalty_Charging>
0.623187

> <r_epik_Ionization_Penalty_Neutral>
5.75214e-05

> <r_epik_State_Penalty>
0.639392

> <r_epik_Charging_Adjusted_Penalty>
1.26258

> <i_epik_Tot_Q>
0

> <i_epik_Tot_abs_Q>
0

> <r_epik_Metal_State_Penalty>
0.307266

> <b_epik_Metal_Only>
0

> <s_lp_Force_Field>
OPLS_2005

> <r_lp_Energy>
7.54437

> <b_lp_Chiralities_Consistent>
1

> <s_lp_Variant>
AV-unprocessed.smi:1491-3

> <Gold.Version>
5.8.1

> <Gold.Id.Protein>
6NUR|6NUR_protein|mol2

> <Gold.PLP.Fitness>
46.2551

> <Gold.PLP.PLP>
-31.3530

> <Gold.PLP.part.hbond>
-5.6079

> <Gold.PLP.part.metal>
0.0000

> <Gold.PLP.part.buried>
-3.5920

> <Gold.PLP.part.nonpolar>
-22.4451

> <Gold.PLP.part.repulsive>
0.1760

> <Gold.PLP.ligand.clash>
0.0000

> <Gold.PLP.ligand.torsion>
0.5911

> <Gold.PLP.Chemscore.Hbond>
4.3588

> <Gold.PLP.Chemscore.CHOScore>
0.9999

> <Gold.PLP.Chemscore.Metal>
0.0000

> <Gold.Chemscore.Hbonds>
donor molecule, donor type, donor heavy atom, donor atom, acceptor molecule, acceptor atom, score
      L1  H     3    19       P1  7948  1.00
      L1  H    11    27       P1  7948  0.88
      L1  H    16    34       P1 10186  0.49
      P1  H  7989  7998       L1     9  1.00
      P1  H 10785 10796       L1    16  0.93
      L1  C    10    26       P1  7948  1.00

> <Gold.PLP.Chemscore.Internal.Correction>
0.0084

> <Gold.Rescore>
     Score         DG    S(hbond)    S(metal)    S(lipo)     H(rot)  DE(clash)    DE(int)     intcor
     19.20     -20.12       4.29        0.00      58.92       2.57       0.07       0.85       ----

> <Gold.Chemscore.Fitness>
19.1984

> <Gold.Chemscore.DG>
-20.1190

> <Gold.Chemscore.ZeroCoef>
-5.4800

> <Gold.Chemscore.Hbond>
4.2916

> <Gold.Chemscore.Metal>
0.0000

> <Gold.Chemscore.Lipo>
58.9249

> <Gold.Chemscore.Internal_Hbond>
0.0000

> <Gold.Chemscore.DEClash>
0.0727

> <Gold.Chemscore.DEInternal>
0.8479

> <Gold.Chemscore.Rot>
2.5738

> <Gold.Chemscore.Internal.Correction>
   9.000000E+99

> <Gold.Chemscore.Hbonds>
donor molecule, donor type, donor heavy atom, donor atom, acceptor molecule, acceptor atom, score
      L1  H     3    19       P1  7948  0.93
      L1  H    11    27       P1  7948  0.78
      L1  H    16    34       P1 10186  0.47
      P1  H  7989  7998       L1     9  0.70
      P1  H 10785 10796       L1    16  0.88

> <Gold.Chemscore.Hbond.Weighted>
-14.3338

> <Gold.Chemscore.Metal.Weighted>
-0.0000

> <Gold.Chemscore.Lipo.Weighted>
-6.8942

> <Gold.Chemscore.Internal_Hbond.Weighted>
0.0000

> <Gold.Chemscore.DEClash.Weighted>
0.0727

> <Gold.Chemscore.DEInternal.Weighted>
0.8479

> <Gold.Chemscore.Rot.Weighted>
6.5890

> <Gold.Chemscore.Internal.Correction.Weighted>
   9.000000E+99

> <Gold.Protein.RotatedTorsions>
[ 6907 6896 6895 6894 ] final   87.85 input  -60.11 | X-H torsion
[ 7974 7965 7964 7962 ] final  -59.33 input  175.53 | X-H torsion
[ 8008 7997 7996 7995 ] final    4.49 input   59.86 | X-H torsion
[ 10167 10162 10161 10158 ] final  176.56 input  -65.29 | X-H torsion
[ 10718 10713 10712 10709 ] final  169.08 input   66.30 | X-H torsion
[ 10763 10752 10751 10750 ] final  -55.98 input  -60.55 | X-H torsion
[ 11005 11000 10999 10996 ] final  131.75 input  -57.11 | X-H torsion

> <Gold.Protein.ActiveResidues>
 VAL166  LYS551  ARG553  GLY616  TRP617  ASP618  TYR619  PRO620  LYS621  CYS622 
 ASP623  PHE694  ASN695  SER759  ASP760  ASP761  ALA762  ILE779  LEU786  VAL792 
 PHE793  MET794  SER795  GLU796  ALA797  LYS798  CYS799  TRP800  GLU811  SER814 

> <Gold.Protein.RotatedAtoms>
  152.5417  134.2212  159.8788 H   0  0  0  0  0  0  0  0  0  0  0  0  # atno 6907 bound_to 6896
  151.2189  133.4507  159.2607 H   0  0  0  0  0  0  0  0  0  0  0  0  # atno 6908 bound_to 6896
  151.0825  134.9880  159.8418 H   0  0  0  0  0  0  0  0  0  0  0  0  # atno 6909 bound_to 6896
  145.8287  140.8493  143.0094 H   0  0  0  0  0  0  0  0  0  0  0  0  # atno 7974 bound_to 7965
  154.7166  140.2703  155.6579 H   0  0  0  0  0  0  0  0  0  0  0  0  # atno 8008 bound_to 7997
  156.2811  140.2742  156.1749 H   0  0  0  0  0  0  0  0  0  0  0  0  # atno 8009 bound_to 7997
  155.0563  140.0371  157.2551 H   0  0  0  0  0  0  0  0  0  0  0  0  # atno 8010 bound_to 7997
  139.5219  144.2901  152.0471 H   0  0  0  0  0  0  0  0  0  0  0  0  # atno 10167 bound_to 10162
  157.0278  131.0250  151.2754 H   0  0  0  0  0  0  0  0  0  0  0  0  # atno 10718 bound_to 10713
  154.1994  135.6413  153.5082 H   0  0  0  0  0  0  0  0  0  0  0  0  # atno 10763 bound_to 10752
  153.0016  135.5447  154.6332 H   0  0  0  0  0  0  0  0  0  0  0  0  # atno 10764 bound_to 10752
  154.5741  135.2919  155.0771 H   0  0  0  0  0  0  0  0  0  0  0  0  # atno 10765 bound_to 10752
  139.9749  134.9566  156.9483 H   0  0  0  0  0  0  0  0  0  0  0  0  # atno 11005 bound_to 11000
  144.6741  140.0641  143.7475 LP  0  0  0  0  0  0  0  0  0  0  0  0  # atno 17320 bound_to 7965
  145.9594  139.2790  143.1164 LP  0  0  0  0  0  0  0  0  0  0  0  0  # atno 17321 bound_to 7965
  140.2353  144.4326  150.6283 LP  0  0  0  0  0  0  0  0  0  0  0  0  # atno 17342 bound_to 10162
  140.6328  143.2190  151.6460 LP  0  0  0  0  0  0  0  0  0  0  0  0  # atno 17343 bound_to 10162
  157.5201  130.7992  149.7799 LP  0  0  0  0  0  0  0  0  0  0  0  0  # atno 17370 bound_to 10713
  156.0080  130.3846  150.2363 LP  0  0  0  0  0  0  0  0  0  0  0  0  # atno 17371 bound_to 10713
  140.5216  134.0902  155.7293 LP  0  0  0  0  0  0  0  0  0  0  0  0  # atno 17394 bound_to 11000
  141.1426  133.9111  157.2289 LP  0  0  0  0  0  0  0  0  0  0  0  0  # atno 17395 bound_to 11000

$$$$
