AV-unprocessed.smi:2352|AV-procd|sdf|9379|dock2
  -GOLD-   2272013 03D 1   1.00000     0.00000
 Structure written by MMmdl.
 37 38  0  0  0  0  0  0  0  0  1 V2000
  151.2683  144.3246  159.7104 C   0  0  0  0  0  0  0  0  0  0  0  0
  151.5038  143.1079  158.8326 C   0  0  0  0  0  0  0  0  0  0  0  0
  150.7668  143.0683  157.6454 N   0  0  0  0  0  0  0  0  0  0  0  0
  150.9043  142.0711  156.8340 C   0  0  0  0  0  0  0  0  0  0  0  0
  151.7846  141.0119  157.1092 N   0  0  0  0  0  0  0  0  0  0  0  0
  151.8494  139.9388  156.1025 C   0  0  0  0  0  0  0  0  0  0  0  0
  150.4668  139.6260  155.4880 C   0  0  1  0  0  0  0  0  0  0  0  0
  150.4190  140.1668  154.1821 O   0  0  0  0  0  0  0  0  0  0  0  0
  150.2014  138.1279  155.4775 C   0  0  0  0  0  0  0  0  0  0  0  0
  151.0527  137.2685  154.7516 C   0  0  0  0  0  0  0  0  0  0  0  0
  150.8121  135.8811  154.7304 C   0  0  0  0  0  0  0  0  0  0  0  0
  149.7185  135.3345  155.4357 C   0  0  0  0  0  0  0  0  0  0  0  0
  149.4593  133.8353  155.4033 C   0  0  0  0  0  0  0  0  0  0  0  0
  148.3168  133.5306  156.0201 F   0  0  0  0  0  0  0  0  0  0  0  0
  149.3831  133.4312  154.1359 F   0  0  0  0  0  0  0  0  0  0  0  0
  150.4474  133.1738  156.0066 F   0  0  0  0  0  0  0  0  0  0  0  0
  148.8593  136.1966  156.1511 C   0  0  0  0  0  0  0  0  0  0  0  0
  149.0993  137.5842  156.1724 C   0  0  0  0  0  0  0  0  0  0  0  0
  152.5335  140.9667  158.2490 C   0  0  0  0  0  0  0  0  0  0  0  0
  153.2915  140.0244  158.4879 O   0  0  0  0  0  0  0  0  0  0  0  0
  152.3695  142.1102  159.1611 C   0  0  0  0  0  0  0  0  0  0  0  0
  153.1985  142.0994  160.4395 C   0  0  0  0  0  0  0  0  0  0  0  0
  152.1958  144.8804  159.8502 H   0  0  0  0  0  0  0  0  0  0  0  0
  150.8904  144.0233  160.6878 H   0  0  0  0  0  0  0  0  0  0  0  0
  150.5377  145.0008  159.2649 H   0  0  0  0  0  0  0  0  0  0  0  0
  150.3492  141.9898  155.8980 H   0  0  0  0  0  0  0  0  0  0  0  0
  152.5799  140.1466  155.3176 H   0  0  0  0  0  0  0  0  0  0  0  0
  152.2332  139.0426  156.5943 H   0  0  0  0  0  0  0  0  0  0  0  0
  149.6783  140.1053  156.0695 H   0  0  0  0  0  0  0  0  0  0  0  0
  149.5170  140.1907  153.9013 H   0  0  0  0  0  0  0  0  0  0  0  0
  151.8931  137.6705  154.2046 H   0  0  0  0  0  0  0  0  0  0  0  0
  151.4710  135.2370  154.1668 H   0  0  0  0  0  0  0  0  0  0  0  0
  148.0092  135.7991  156.6857 H   0  0  0  0  0  0  0  0  0  0  0  0
  148.4305  138.2301  156.7226 H   0  0  0  0  0  0  0  0  0  0  0  0
  152.9496  141.2247  161.0415 H   0  0  0  0  0  0  0  0  0  0  0  0
  153.0421  142.9801  161.0602 H   0  0  0  0  0  0  0  0  0  0  0  0
  154.2611  142.0532  160.1982 H   0  0  0  0  0  0  0  0  0  0  0  0
  1  2  1  0  0  0  0
  1 23  1  0  0  0  0
  1 24  1  0  0  0  0
  1 25  1  0  0  0  0
  2 21  2  0  0  0  0
  2  3  1  0  0  0  0
  3  4  2  0  0  0  0
  4  5  1  0  0  0  0
  4 26  1  0  0  0  0
  5  6  1  0  0  0  0
  5 19  1  0  0  0  0
  6  7  1  0  0  0  0
  6 27  1  0  0  0  0
  6 28  1  0  0  0  0
  7  8  1  0  0  0  0
  7  9  1  0  0  0  0
  7 29  1  0  0  0  0
  8 30  1  0  0  0  0
  9 18  1  0  0  0  0
  9 10  2  0  0  0  0
 10 11  1  0  0  0  0
 10 31  1  0  0  0  0
 11 12  2  0  0  0  0
 11 32  1  0  0  0  0
 12 13  1  0  0  0  0
 12 17  1  0  0  0  0
 13 14  1  0  0  0  0
 13 15  1  0  0  0  0
 13 16  1  0  0  0  0
 17 18  2  0  0  0  0
 17 33  1  0  0  0  0
 18 34  1  0  0  0  0
 19 20  2  0  0  0  0
 19 21  1  0  0  0  0
 21 22  1  0  0  0  0
 22 35  1  0  0  0  0
 22 36  1  0  0  0  0
 22 37  1  0  0  0  0
M  END
> <s_m_source_file>
AV-unprocessed.smi

> <i_m_source_file_index>
2352

> <i_lp_mmshare_version>
43012

> <i_f3d_flags>
0

> <s_epik_input>
W0NIM11jMW5bY0hdbihjKD1PKWMxW0NIM10pW0NIMl1bQ0BIXShbT0hdKWMyW2NIXVtjSF1jKEMoRikoRilGKVtjSF1bY0hdMg==

> <s_epik_cmdline>
J2VwaWtfcHl0aG9uJywgJy1waCcsICc3LjAnLCAnLXRuJywgJzgnLCAnLW1hJywgJzIwMCcsICctbWV0YWxfYmluZGluZycsICctaW1hZScsICc8aW5maWxlLm1hZT4nLCAnLW9tYWUnLCAnPG91dGZpbGUubWFlPic=

> <r_lp_tautomer_probability>
1

> <r_epik_Ionization_Penalty>
5.07001e-05

> <r_epik_Ionization_Penalty_Charging>
7.56727e-08

> <r_epik_Ionization_Penalty_Neutral>
5.06244e-05

> <r_epik_State_Penalty>
-0

> <r_epik_Charging_Adjusted_Penalty>
7.56727e-08

> <i_epik_Tot_Q>
0

> <i_epik_Tot_abs_Q>
0

> <r_epik_Metal_State_Penalty>
-0

> <b_epik_Metal_Only>
0

> <s_lp_Force_Field>
OPLS_2005

> <r_lp_Energy>
21.4472

> <b_lp_Chiralities_Consistent>
1

> <s_lp_Variant>
AV-unprocessed.smi:2352-2

> <Gold.Version>
5.8.1

> <Gold.Id.Protein>
6NUR|6NUR_protein|mol2

> <Gold.PLP.Fitness>
42.6511

> <Gold.PLP.PLP>
-38.6676

> <Gold.PLP.part.hbond>
-2.6674

> <Gold.PLP.part.metal>
0.0000

> <Gold.PLP.part.buried>
-5.1461

> <Gold.PLP.part.nonpolar>
-31.2361

> <Gold.PLP.part.repulsive>
0.1474

> <Gold.PLP.ligand.clash>
0.9504

> <Gold.PLP.ligand.torsion>
1.0566

> <Gold.PLP.Chemscore.Hbond>
2.0000

> <Gold.PLP.Chemscore.CHOScore>
0.0000

> <Gold.PLP.Chemscore.Metal>
0.0000

> <Gold.Chemscore.Hbonds>
donor molecule, donor type, donor heavy atom, donor atom, acceptor molecule, acceptor atom, score
      P1  H  7989  7998       L1     8  1.00
      P1  H  7997  8008       L1    20  1.00

> <Gold.PLP.Chemscore.Internal.Correction>
1.0470

> <Gold.Rescore>
     Score         DG    S(hbond)    S(metal)    S(lipo)     H(rot)  DE(clash)    DE(int)     intcor
     14.44     -15.74       1.82        0.00      82.38       2.13       0.29       1.02       ----

> <Gold.Chemscore.Fitness>
14.4364

> <Gold.Chemscore.DG>
-15.7395

> <Gold.Chemscore.ZeroCoef>
-5.4800

> <Gold.Chemscore.Hbond>
1.8220

> <Gold.Chemscore.Metal>
0.0000

> <Gold.Chemscore.Lipo>
82.3833

> <Gold.Chemscore.Internal_Hbond>
0.0000

> <Gold.Chemscore.DEClash>
0.2878

> <Gold.Chemscore.DEInternal>
1.0153

> <Gold.Chemscore.Rot>
2.1347

> <Gold.Chemscore.Internal.Correction>
   9.000000E+99

> <Gold.Chemscore.Hbonds>
donor molecule, donor type, donor heavy atom, donor atom, acceptor molecule, acceptor atom, score
      P1  H  7989  7998       L1     8  0.92
      P1  H  7997  8008       L1    20  0.53

> <Gold.Chemscore.Hbond.Weighted>
-6.0855

> <Gold.Chemscore.Metal.Weighted>
-0.0000

> <Gold.Chemscore.Lipo.Weighted>
-9.6388

> <Gold.Chemscore.Internal_Hbond.Weighted>
0.0000

> <Gold.Chemscore.DEClash.Weighted>
0.2878

> <Gold.Chemscore.DEInternal.Weighted>
1.0153

> <Gold.Chemscore.Rot.Weighted>
5.4649

> <Gold.Chemscore.Internal.Correction.Weighted>
   9.000000E+99

> <Gold.Protein.RotatedTorsions>
[ 6907 6896 6895 6894 ] final   -9.26 input  -60.11 | X-H torsion
[ 7974 7965 7964 7962 ] final   67.66 input  175.53 | X-H torsion
[ 8008 7997 7996 7995 ] final  -88.55 input   59.86 | X-H torsion
[ 10167 10162 10161 10158 ] final  141.03 input  -65.29 | X-H torsion
[ 10718 10713 10712 10709 ] final  -97.84 input   66.30 | X-H torsion
[ 10763 10752 10751 10750 ] final -116.74 input  -60.55 | X-H torsion
[ 11005 11000 10999 10996 ] final  155.03 input  -57.11 | X-H torsion

> <Gold.Protein.ActiveResidues>
 VAL166  LYS551  ARG553  GLY616  TRP617  ASP618  TYR619  PRO620  LYS621  CYS622 
 ASP623  PHE694  ASN695  SER759  ASP760  ASP761  ALA762  ILE779  LEU786  VAL792 
 PHE793  MET794  SER795  GLU796  ALA797  LYS798  CYS799  TRP800  GLU811  SER814 

> <Gold.Protein.RotatedAtoms>
  151.4206  135.0997  159.9612 H   0  0  0  0  0  0  0  0  0  0  0  0  # atno 6907 bound_to 6896
  152.4990  133.8711  159.7309 H   0  0  0  0  0  0  0  0  0  0  0  0  # atno 6908 bound_to 6896
  150.9226  133.6805  159.2856 H   0  0  0  0  0  0  0  0  0  0  0  0  # atno 6909 bound_to 6896
  145.8120  139.3037  143.1093 H   0  0  0  0  0  0  0  0  0  0  0  0  # atno 7974 bound_to 7965
  154.6761  140.0552  157.0217 H   0  0  0  0  0  0  0  0  0  0  0  0  # atno 8008 bound_to 7997
  155.1019  140.3229  155.4526 H   0  0  0  0  0  0  0  0  0  0  0  0  # atno 8009 bound_to 7997
  156.2676  140.2029  156.6145 H   0  0  0  0  0  0  0  0  0  0  0  0  # atno 8010 bound_to 7997
  139.5032  144.6197  151.6081 H   0  0  0  0  0  0  0  0  0  0  0  0  # atno 10167 bound_to 10162
  156.0093  130.5212  150.6434 H   0  0  0  0  0  0  0  0  0  0  0  0  # atno 10718 bound_to 10713
  154.8530  135.4334  154.1869 H   0  0  0  0  0  0  0  0  0  0  0  0  # atno 10763 bound_to 10752
  153.2947  135.6964  153.7266 H   0  0  0  0  0  0  0  0  0  0  0  0  # atno 10764 bound_to 10752
  153.6419  135.3466  155.3048 H   0  0  0  0  0  0  0  0  0  0  0  0  # atno 10765 bound_to 10752
  140.1543  134.8653  157.2495 H   0  0  0  0  0  0  0  0  0  0  0  0  # atno 11005 bound_to 11000
  145.9767  140.8716  143.0135 LP  0  0  0  0  0  0  0  0  0  0  0  0  # atno 17320 bound_to 7965
  144.6756  140.2022  143.7386 LP  0  0  0  0  0  0  0  0  0  0  0  0  # atno 17321 bound_to 7965
  140.5895  143.9804  150.6316 LP  0  0  0  0  0  0  0  0  0  0  0  0  # atno 17342 bound_to 10162
  140.2980  143.3279  152.0999 LP  0  0  0  0  0  0  0  0  0  0  0  0  # atno 17343 bound_to 10162
  157.4210  131.0836  151.1131 LP  0  0  0  0  0  0  0  0  0  0  0  0  # atno 17370 bound_to 10713
  157.1733  130.6277  149.5647 LP  0  0  0  0  0  0  0  0  0  0  0  0  # atno 17371 bound_to 10713
  140.2566  134.3620  155.7422 LP  0  0  0  0  0  0  0  0  0  0  0  0  # atno 17394 bound_to 11000
  141.2202  133.7346  156.9017 LP  0  0  0  0  0  0  0  0  0  0  0  0  # atno 17395 bound_to 11000

$$$$
