AV-unprocessed.smi:2208|AV-procd|sdf|8945|dock7
  -GOLD-   2272012163D 1   1.00000     0.00000
 Structure written by MMmdl.
 35 36  0  0  0  0  0  0  0  0  1 V2000
  151.2940  145.5805  160.0737 C   0  0  0  0  0  0  0  0  0  0  0  0
  151.9292  144.2509  160.3644 C   0  0  0  0  0  0  0  0  0  0  0  0
  152.1881  143.9255  161.6193 N   0  0  0  0  0  0  0  0  0  0  0  0
  152.7604  142.6510  161.5756 O   0  0  0  0  0  0  0  0  0  0  0  0
  152.8216  142.2523  160.2801 C   0  0  0  0  0  0  0  0  0  0  0  0
  153.3952  140.8997  160.0259 C   0  0  0  0  0  0  0  0  0  0  0  0
  152.3108  143.2189  159.4575 C   0  0  0  0  0  0  0  0  0  0  0  0
  152.1663  143.1881  157.9563 C   0  0  0  0  0  0  0  0  0  0  0  0
  151.2468  142.0315  157.5668 C   0  0  0  0  0  0  0  0  0  0  0  0
  151.5451  140.8773  157.8722 O   0  0  0  0  0  0  0  0  0  0  0  0
  150.1165  142.3622  156.9240 N   0  0  0  0  0  0  0  0  0  0  0  0
  149.0211  141.4478  156.6192 C   0  0  0  0  0  0  0  0  0  0  0  0
  149.1390  140.8500  155.2024 C   0  0  2  0  0  0  0  0  0  0  0  0
  148.1210  139.7552  154.8575 C   0  0  0  0  0  0  0  0  0  0  0  0
  148.8844  138.9232  153.8526 C   0  0  0  0  0  0  0  0  0  0  0  0
  150.2943  138.9704  154.4292 C   0  0  0  0  0  0  0  0  0  0  0  0
  150.4268  140.2726  154.9893 O   0  0  0  0  0  0  0  0  0  0  0  0
  151.1575  145.7362  159.0041 H   0  0  0  0  0  0  0  0  0  0  0  0
  151.9086  146.3988  160.4495 H   0  0  0  0  0  0  0  0  0  0  0  0
  150.3137  145.6572  160.5443 H   0  0  0  0  0  0  0  0  0  0  0  0
  153.0893  140.1959  160.8003 H   0  0  0  0  0  0  0  0  0  0  0  0
  154.4842  140.9389  160.0131 H   0  0  0  0  0  0  0  0  0  0  0  0
  153.0591  140.5071  159.0660 H   0  0  0  0  0  0  0  0  0  0  0  0
  151.7584  144.1208  157.5663 H   0  0  0  0  0  0  0  0  0  0  0  0
  153.1330  143.0553  157.4687 H   0  0  0  0  0  0  0  0  0  0  0  0
  149.9658  143.3369  156.7088 H   0  0  0  0  0  0  0  0  0  0  0  0
  149.0451  140.6439  157.3550 H   0  0  0  0  0  0  0  0  0  0  0  0
  148.0579  141.9454  156.7420 H   0  0  0  0  0  0  0  0  0  0  0  0
  149.0397  141.6543  154.4723 H   0  0  0  0  0  0  0  0  0  0  0  0
  147.8812  139.1391  155.7239 H   0  0  0  0  0  0  0  0  0  0  0  0
  147.1877  140.1545  154.4599 H   0  0  0  0  0  0  0  0  0  0  0  0
  148.4981  137.9084  153.7531 H   0  0  0  0  0  0  0  0  0  0  0  0
  148.8605  139.3999  152.8718 H   0  0  0  0  0  0  0  0  0  0  0  0
  150.4020  138.2354  155.2271 H   0  0  0  0  0  0  0  0  0  0  0  0
  151.0626  138.7747  153.6812 H   0  0  0  0  0  0  0  0  0  0  0  0
  1  2  1  0  0  0  0
  1 18  1  0  0  0  0
  1 19  1  0  0  0  0
  1 20  1  0  0  0  0
  2  7  1  0  0  0  0
  2  3  2  0  0  0  0
  3  4  1  0  0  0  0
  4  5  1  0  0  0  0
  5  6  1  0  0  0  0
  5  7  2  0  0  0  0
  6 21  1  0  0  0  0
  6 22  1  0  0  0  0
  6 23  1  0  0  0  0
  7  8  1  0  0  0  0
  8  9  1  0  0  0  0
  8 24  1  0  0  0  0
  8 25  1  0  0  0  0
  9 10  2  0  0  0  0
  9 11  1  0  0  0  0
 11 12  1  0  0  0  0
 11 26  1  0  0  0  0
 12 13  1  0  0  0  0
 12 27  1  0  0  0  0
 12 28  1  0  0  0  0
 13 17  1  0  0  0  0
 13 14  1  0  0  0  0
 13 29  1  0  0  0  0
 14 15  1  0  0  0  0
 14 30  1  0  0  0  0
 14 31  1  0  0  0  0
 15 16  1  0  0  0  0
 15 32  1  0  0  0  0
 15 33  1  0  0  0  0
 16 17  1  0  0  0  0
 16 34  1  0  0  0  0
 16 35  1  0  0  0  0
M  END
> <s_m_source_file>
AV-unprocessed.smi

> <i_m_source_file_index>
2208

> <i_lp_mmshare_version>
43012

> <i_f3d_flags>
0

> <s_epik_input>
W0NIM11jMW5vYyhbQ0gzXSljMVtDSDJdQyg9TylbTkhdW0NIMl1bQ0BASF0yW0NIMl1bQ0gyXVtDSDJdTzI=

> <s_epik_cmdline>
J2VwaWtfcHl0aG9uJywgJy1waCcsICc3LjAnLCAnLXRuJywgJzgnLCAnLW1hJywgJzIwMCcsICctbWV0YWxfYmluZGluZycsICctaW1hZScsICc8aW5maWxlLm1hZT4nLCAnLW9tYWUnLCAnPG91dGZpbGUubWFlPic=

> <r_lp_tautomer_probability>
1

> <r_epik_Ionization_Penalty>
3.13901e-08

> <r_epik_Ionization_Penalty_Charging>
0

> <r_epik_Ionization_Penalty_Neutral>
3.13901e-08

> <r_epik_State_Penalty>
-0

> <r_epik_Charging_Adjusted_Penalty>
0

> <i_epik_Tot_Q>
0

> <i_epik_Tot_abs_Q>
0

> <r_epik_Metal_State_Penalty>
-0

> <b_epik_Metal_Only>
0

> <s_lp_Force_Field>
OPLS_2005

> <r_lp_Energy>
11.1183

> <b_lp_Chiralities_Consistent>
1

> <s_lp_Variant>
AV-unprocessed.smi:2208-1

> <Gold.Version>
5.8.1

> <Gold.Id.Protein>
6NUR|6NUR_protein|mol2

> <Gold.PLP.Fitness>
39.0411

> <Gold.PLP.PLP>
-34.6695

> <Gold.PLP.part.hbond>
-2.0000

> <Gold.PLP.part.metal>
0.0000

> <Gold.PLP.part.buried>
-5.9308

> <Gold.PLP.part.nonpolar>
-28.4347

> <Gold.PLP.part.repulsive>
0.3235

> <Gold.PLP.ligand.clash>
0.0000

> <Gold.PLP.ligand.torsion>
0.2077

> <Gold.PLP.Chemscore.Hbond>
1.5940

> <Gold.PLP.Chemscore.CHOScore>
0.0000

> <Gold.PLP.Chemscore.Metal>
0.0000

> <Gold.Chemscore.Hbonds>
donor molecule, donor type, donor heavy atom, donor atom, acceptor molecule, acceptor atom, score
      L1  H    11    26       P1  8028  0.94
      P1  H  7989  7998       L1    17  0.60

> <Gold.PLP.Chemscore.Internal.Correction>
0.0049

> <Gold.Rescore>
     Score         DG    S(hbond)    S(metal)    S(lipo)     H(rot)  DE(clash)    DE(int)     intcor
     15.54     -15.96       1.06        0.00      93.18       1.56       0.09       0.33       ----

> <Gold.Chemscore.Fitness>
15.5426

> <Gold.Chemscore.DG>
-15.9562

> <Gold.Chemscore.ZeroCoef>
-5.4800

> <Gold.Chemscore.Hbond>
1.0644

> <Gold.Chemscore.Metal>
0.0000

> <Gold.Chemscore.Lipo>
93.1789

> <Gold.Chemscore.Internal_Hbond>
0.0000

> <Gold.Chemscore.DEClash>
0.0858

> <Gold.Chemscore.DEInternal>
0.3278

> <Gold.Chemscore.Rot>
1.5551

> <Gold.Chemscore.Internal.Correction>
   9.000000E+99

> <Gold.Chemscore.Hbonds>
donor molecule, donor type, donor heavy atom, donor atom, acceptor molecule, acceptor atom, score
      L1  H    11    26       P1  8028  0.85
      P1  H  7989  7998       L1    17  0.04

> <Gold.Chemscore.Hbond.Weighted>
-3.5552

> <Gold.Chemscore.Metal.Weighted>
-0.0000

> <Gold.Chemscore.Lipo.Weighted>
-10.9019

> <Gold.Chemscore.Internal_Hbond.Weighted>
0.0000

> <Gold.Chemscore.DEClash.Weighted>
0.0858

> <Gold.Chemscore.DEInternal.Weighted>
0.3278

> <Gold.Chemscore.Rot.Weighted>
3.9809

> <Gold.Chemscore.Internal.Correction.Weighted>
   9.000000E+99

> <Gold.Protein.RotatedTorsions>
[ 6907 6896 6895 6894 ] final   22.14 input  -60.11 | X-H torsion
[ 7974 7965 7964 7962 ] final  122.37 input  175.53 | X-H torsion
[ 8008 7997 7996 7995 ] final    6.79 input   59.86 | X-H torsion
[ 10167 10162 10161 10158 ] final  -56.36 input  -65.29 | X-H torsion
[ 10718 10713 10712 10709 ] final  146.32 input   66.30 | X-H torsion
[ 10763 10752 10751 10750 ] final  -91.57 input  -60.55 | X-H torsion
[ 11005 11000 10999 10996 ] final   21.93 input  -57.11 | X-H torsion

> <Gold.Protein.ActiveResidues>
 VAL166  LYS551  ARG553  GLY616  TRP617  ASP618  TYR619  PRO620  LYS621  CYS622 
 ASP623  PHE694  ASN695  SER759  ASP760  ASP761  ALA762  ILE779  LEU786  VAL792 
 PHE793  MET794  SER795  GLU796  ALA797  LYS798  CYS799  TRP800  GLU811  SER814 

> <Gold.Protein.RotatedAtoms>
  151.9226  135.0291  160.0522 H   0  0  0  0  0  0  0  0  0  0  0  0  # atno 6907 bound_to 6896
  152.2186  133.4962  159.5158 H   0  0  0  0  0  0  0  0  0  0  0  0  # atno 6908 bound_to 6896
  150.6994  134.1288  159.4105 H   0  0  0  0  0  0  0  0  0  0  0  0  # atno 6909 bound_to 6896
  145.1084  139.3470  143.4776 H   0  0  0  0  0  0  0  0  0  0  0  0  # atno 7974 bound_to 7965
  154.7455  140.2757  155.6337 H   0  0  0  0  0  0  0  0  0  0  0  0  # atno 8008 bound_to 7997
  156.2883  140.2689  156.2120 H   0  0  0  0  0  0  0  0  0  0  0  0  # atno 8009 bound_to 7997
  155.0204  140.0371  157.2425 H   0  0  0  0  0  0  0  0  0  0  0  0  # atno 8010 bound_to 7997
  140.6322  143.2464  151.5212 H   0  0  0  0  0  0  0  0  0  0  0  0  # atno 10167 bound_to 10162
  157.3347  131.0926  151.1133 H   0  0  0  0  0  0  0  0  0  0  0  0  # atno 10718 bound_to 10713
  154.6773  135.5263  153.8217 H   0  0  0  0  0  0  0  0  0  0  0  0  # atno 10763 bound_to 10752
  153.0541  135.6544  154.0630 H   0  0  0  0  0  0  0  0  0  0  0  0  # atno 10764 bound_to 10752
  154.0522  135.2968  155.3318 H   0  0  0  0  0  0  0  0  0  0  0  0  # atno 10765 bound_to 10752
  140.3861  134.1868  155.7663 H   0  0  0  0  0  0  0  0  0  0  0  0  # atno 11005 bound_to 11000
  146.3527  140.0992  142.8609 LP  0  0  0  0  0  0  0  0  0  0  0  0  # atno 17320 bound_to 7965
  145.0875  140.9262  143.4789 LP  0  0  0  0  0  0  0  0  0  0  0  0  # atno 17321 bound_to 7965
  139.5535  144.2335  152.1571 LP  0  0  0  0  0  0  0  0  0  0  0  0  # atno 17342 bound_to 10162
  140.1582  144.5051  150.6648 LP  0  0  0  0  0  0  0  0  0  0  0  0  # atno 17343 bound_to 10162
  157.2368  130.6551  149.5873 LP  0  0  0  0  0  0  0  0  0  0  0  0  # atno 17370 bound_to 10713
  155.9700  130.4581  150.5987 LP  0  0  0  0  0  0  0  0  0  0  0  0  # atno 17371 bound_to 10713
  141.1907  133.8212  157.0909 LP  0  0  0  0  0  0  0  0  0  0  0  0  # atno 17394 bound_to 11000
  140.0441  134.9839  157.1017 LP  0  0  0  0  0  0  0  0  0  0  0  0  # atno 17395 bound_to 11000

$$$$
