AV-unprocessed.smi:195|AV-procd|sdf|1525|dock7
  -GOLD-   2262019373D 1   1.00000     0.00000
 Structure written by MMmdl.
 45 48  0  0  0  0  0  0  0  0  1 V2000
  146.5645  131.4536  152.4936 N   0  0  0  0  0  0  0  0  0  0  0  0
  146.5288  132.4994  151.9996 C   0  0  0  0  0  0  0  0  0  0  0  0
  146.4835  133.8292  151.3706 C   0  0  0  0  0  0  0  0  0  0  0  0
  145.0981  134.2008  150.8344 C   0  0  0  0  0  0  0  0  0  0  0  0
  144.8888  133.2918  149.7736 O   0  0  0  0  0  0  0  0  0  0  0  0
  143.9483  134.2922  151.8414 C   0  0  0  0  0  0  0  0  0  0  0  0
  143.8884  135.7305  151.6034 N   0  0  0  0  0  0  0  0  0  0  0  0
  144.3041  136.5129  152.7183 C   0  0  0  0  0  0  0  0  0  0  0  0
  143.7577  136.3456  153.9533 N   0  0  0  0  0  0  0  0  0  0  0  0
  144.1573  137.0905  154.9883 C   0  0  0  0  0  0  0  0  0  0  0  0
  145.0822  138.0509  155.0154 N   0  0  0  0  0  0  0  0  0  0  0  0
  145.6385  138.2282  153.7839 C   0  0  0  0  0  0  0  0  0  0  0  0
  145.3072  137.5126  152.5986 C   0  0  0  0  0  0  0  0  0  0  0  0
  146.0771  137.9722  151.5373 N   0  0  0  0  0  0  0  0  0  0  0  0
  146.8251  138.9027  152.0654 C   0  0  0  0  0  0  0  0  0  0  0  0
  146.6263  139.1216  153.4095 N   0  0  0  0  0  0  0  0  0  0  0  0
  147.3214  140.0886  154.2415 C   0  0  0  0  0  0  0  0  0  0  0  0
  148.8266  140.1677  153.9220 C   0  0  1  0  0  0  0  0  0  0  0  0
  149.0683  141.2814  153.0834 O   0  0  0  0  0  0  0  0  0  0  0  0
  149.6823  140.3087  155.1939 C   0  0  2  0  0  0  0  0  0  0  0  0
  149.6441  141.6975  155.8368 C   0  0  0  0  0  0  0  0  0  0  0  0
  150.9830  141.8075  156.5519 C   0  0  0  0  0  0  0  0  0  0  0  0
  151.7915  140.6235  156.0167 C   0  0  0  0  0  0  0  0  0  0  0  0
  151.0612  140.1661  154.8884 O   0  0  0  0  0  0  0  0  0  0  0  0
  144.8268  135.6682  150.4862 C   0  0  0  0  0  0  0  0  0  0  0  0
  146.8309  134.5578  152.1041 H   0  0  0  0  0  0  0  0  0  0  0  0
  147.2261  133.8268  150.5745 H   0  0  0  0  0  0  0  0  0  0  0  0
  145.2502  133.6879  148.9951 H   0  0  0  0  0  0  0  0  0  0  0  0
  143.0382  133.7893  151.5122 H   0  0  0  0  0  0  0  0  0  0  0  0
  144.2199  134.0104  152.8602 H   0  0  0  0  0  0  0  0  0  0  0  0
  143.6654  136.8878  155.9283 H   0  0  0  0  0  0  0  0  0  0  0  0
  147.5467  139.4602  151.4858 H   0  0  0  0  0  0  0  0  0  0  0  0
  146.8516  141.0651  154.1160 H   0  0  0  0  0  0  0  0  0  0  0  0
  147.1710  139.8045  155.2836 H   0  0  0  0  0  0  0  0  0  0  0  0
  149.1274  139.2688  153.3821 H   0  0  0  0  0  0  0  0  0  0  0  0
  149.0557  140.9878  152.1854 H   0  0  0  0  0  0  0  0  0  0  0  0
  149.4043  139.5501  155.9289 H   0  0  0  0  0  0  0  0  0  0  0  0
  149.5784  142.4693  155.0689 H   0  0  0  0  0  0  0  0  0  0  0  0
  148.7944  141.8221  156.5087 H   0  0  0  0  0  0  0  0  0  0  0  0
  151.4653  142.7575  156.3193 H   0  0  0  0  0  0  0  0  0  0  0  0
  150.8711  141.7432  157.6348 H   0  0  0  0  0  0  0  0  0  0  0  0
  152.8106  140.8987  155.7438 H   0  0  0  0  0  0  0  0  0  0  0  0
  151.8408  139.8256  156.7592 H   0  0  0  0  0  0  0  0  0  0  0  0
  145.6924  136.3267  150.5692 H   0  0  0  0  0  0  0  0  0  0  0  0
  144.3194  135.7980  149.5296 H   0  0  0  0  0  0  0  0  0  0  0  0
  1  2  3  0  0  0  0
  2  3  1  0  0  0  0
  3  4  1  0  0  0  0
  3 26  1  0  0  0  0
  3 27  1  0  0  0  0
  4 25  1  0  0  0  0
  4  5  1  0  0  0  0
  4  6  1  0  0  0  0
  5 28  1  0  0  0  0
  6  7  1  0  0  0  0
  6 29  1  0  0  0  0
  6 30  1  0  0  0  0
  7  8  1  0  0  0  0
  7 25  1  0  0  0  0
  8 13  1  0  0  0  0
  8  9  2  0  0  0  0
  9 10  1  0  0  0  0
 10 11  2  0  0  0  0
 10 31  1  0  0  0  0
 11 12  1  0  0  0  0
 12 16  1  0  0  0  0
 12 13  2  0  0  0  0
 13 14  1  0  0  0  0
 14 15  2  0  0  0  0
 15 16  1  0  0  0  0
 15 32  1  0  0  0  0
 16 17  1  0  0  0  0
 17 18  1  0  0  0  0
 17 33  1  0  0  0  0
 17 34  1  0  0  0  0
 18 19  1  0  0  0  0
 18 20  1  0  0  0  0
 18 35  1  0  0  0  0
 19 36  1  0  0  0  0
 20 24  1  0  0  0  0
 20 21  1  0  0  0  0
 20 37  1  0  0  0  0
 21 22  1  0  0  0  0
 21 38  1  0  0  0  0
 21 39  1  0  0  0  0
 22 23  1  0  0  0  0
 22 40  1  0  0  0  0
 22 41  1  0  0  0  0
 23 24  1  0  0  0  0
 23 42  1  0  0  0  0
 23 43  1  0  0  0  0
 25 44  1  0  0  0  0
 25 45  1  0  0  0  0
M  END
> <s_m_source_file>
AV-unprocessed.smi

> <i_m_source_file_index>
195

> <i_lp_mmshare_version>
43012

> <i_f3d_flags>
0

> <s_epik_input>
TiNDW0NIMl1DMShbT0hdKVtDSDJdTihbQ0gyXTEpYyhuW2NIXW4yKWMoYzIzKW5bY0hdbjNbQ0gyXVtDQEhdKFtPSF0pW0NAQEhdNFtDSDJdW0NIMl1bQ0gyXU80

> <s_epik_cmdline>
J2VwaWtfcHl0aG9uJywgJy1waCcsICc3LjAnLCAnLXRuJywgJzgnLCAnLW1hJywgJzIwMCcsICctbWV0YWxfYmluZGluZycsICctaW1hZScsICc8aW5maWxlLm1hZT4nLCAnLW9tYWUnLCAnPG91dGZpbGUubWFlPic=

> <r_lp_tautomer_probability>
1

> <r_epik_Ionization_Penalty>
0.00307146

> <r_epik_Ionization_Penalty_Charging>
0

> <r_epik_Ionization_Penalty_Neutral>
0.00307146

> <r_epik_State_Penalty>
0.0020279

> <r_epik_Charging_Adjusted_Penalty>
0.0020279

> <i_epik_Tot_Q>
0

> <i_epik_Tot_abs_Q>
0

> <r_epik_Metal_State_Penalty>
-0

> <b_epik_Metal_Only>
0

> <s_lp_Force_Field>
OPLS_2005

> <r_lp_Energy>
44.0633

> <b_lp_Chiralities_Consistent>
1

> <s_lp_Variant>
AV-unprocessed.smi:195-2

> <Gold.Version>
5.8.1

> <Gold.Id.Protein>
6NUR|6NUR_protein|mol2

> <Gold.PLP.Fitness>
46.4305

> <Gold.PLP.PLP>
-36.8669

> <Gold.PLP.part.hbond>
-4.5528

> <Gold.PLP.part.metal>
0.0000

> <Gold.PLP.part.buried>
-5.1244

> <Gold.PLP.part.nonpolar>
-29.8409

> <Gold.PLP.part.repulsive>
2.3002

> <Gold.PLP.ligand.clash>
0.0000

> <Gold.PLP.ligand.torsion>
1.3643

> <Gold.PLP.Chemscore.Hbond>
3.0000

> <Gold.PLP.Chemscore.CHOScore>
1.0000

> <Gold.PLP.Chemscore.Metal>
0.0000

> <Gold.Chemscore.Hbonds>
donor molecule, donor type, donor heavy atom, donor atom, acceptor molecule, acceptor atom, score
      L1  H     5    28       P1  7921  1.00
      L1  H    19    36       P1  7957  0.86
      P1  H  7989  7998       L1    24  1.00
      L1  C    15    32       P1  7957  1.00

> <Gold.PLP.Chemscore.Internal.Correction>
0.2920

> <Gold.Rescore>
     Score         DG    S(hbond)    S(metal)    S(lipo)     H(rot)  DE(clash)    DE(int)     intcor
      9.14     -12.64       2.92        0.00      59.11       3.72       0.76       2.74       ----

> <Gold.Chemscore.Fitness>
9.1375

> <Gold.Chemscore.DG>
-12.6391

> <Gold.Chemscore.ZeroCoef>
-5.4800

> <Gold.Chemscore.Hbond>
2.9248

> <Gold.Chemscore.Metal>
0.0000

> <Gold.Chemscore.Lipo>
59.1101

> <Gold.Chemscore.Internal_Hbond>
0.0000

> <Gold.Chemscore.DEClash>
0.7629

> <Gold.Chemscore.DEInternal>
2.7387

> <Gold.Chemscore.Rot>
3.7210

> <Gold.Chemscore.Internal.Correction>
   9.000000E+99

> <Gold.Chemscore.Hbonds>
donor molecule, donor type, donor heavy atom, donor atom, acceptor molecule, acceptor atom, score
      L1  H     5    28       P1  7921  0.73
      L1  H    19    36       P1  7957  0.80
      P1  H  7989  7998       L1    24  0.71

> <Gold.Chemscore.Hbond.Weighted>
-9.7688

> <Gold.Chemscore.Metal.Weighted>
-0.0000

> <Gold.Chemscore.Lipo.Weighted>
-6.9159

> <Gold.Chemscore.Internal_Hbond.Weighted>
0.0000

> <Gold.Chemscore.DEClash.Weighted>
0.7629

> <Gold.Chemscore.DEInternal.Weighted>
2.7387

> <Gold.Chemscore.Rot.Weighted>
9.5256

> <Gold.Chemscore.Internal.Correction.Weighted>
   9.000000E+99

> <Gold.Protein.RotatedTorsions>
[ 6907 6896 6895 6894 ] final  -53.41 input  -60.11 | X-H torsion
[ 7974 7965 7964 7962 ] final  170.25 input  175.53 | X-H torsion
[ 8008 7997 7996 7995 ] final  -55.63 input   59.86 | X-H torsion
[ 10167 10162 10161 10158 ] final  151.86 input  -65.29 | X-H torsion
[ 10718 10713 10712 10709 ] final -107.03 input   66.30 | X-H torsion
[ 10763 10752 10751 10750 ] final   -5.92 input  -60.55 | X-H torsion
[ 11005 11000 10999 10996 ] final   34.68 input  -57.11 | X-H torsion

> <Gold.Protein.ActiveResidues>
 VAL166  LYS551  ARG553  GLY616  TRP617  ASP618  TYR619  PRO620  LYS621  CYS622 
 ASP623  PHE694  ASN695  SER759  ASP760  ASP761  ALA762  ILE779  LEU786  VAL792 
 PHE793  MET794  SER795  GLU796  ALA797  LYS798  CYS799  TRP800  GLU811  SER814 

> <Gold.Protein.RotatedAtoms>
  150.8429  134.7728  159.6946 H   0  0  0  0  0  0  0  0  0  0  0  0  # atno 6907 bound_to 6896
  152.4512  134.5385  159.9842 H   0  0  0  0  0  0  0  0  0  0  0  0  # atno 6908 bound_to 6896
  151.5522  133.3378  159.2991 H   0  0  0  0  0  0  0  0  0  0  0  0  # atno 6909 bound_to 6896
  144.7329  139.9174  143.6418 H   0  0  0  0  0  0  0  0  0  0  0  0  # atno 7974 bound_to 7965
  154.4202  140.1148  156.5508 H   0  0  0  0  0  0  0  0  0  0  0  0  # atno 8008 bound_to 7997
  155.6412  140.3496  155.4696 H   0  0  0  0  0  0  0  0  0  0  0  0  # atno 8009 bound_to 7997
  155.9869  140.1171  157.0664 H   0  0  0  0  0  0  0  0  0  0  0  0  # atno 8010 bound_to 7997
  139.4837  144.5406  151.7572 H   0  0  0  0  0  0  0  0  0  0  0  0  # atno 10167 bound_to 10162
  156.0417  130.5642  150.7764 H   0  0  0  0  0  0  0  0  0  0  0  0  # atno 10718 bound_to 10713
  153.4052  135.7006  153.6398 H   0  0  0  0  0  0  0  0  0  0  0  0  # atno 10763 bound_to 10752
  153.4914  135.3672  155.2494 H   0  0  0  0  0  0  0  0  0  0  0  0  # atno 10764 bound_to 10752
  154.8713  135.4090  154.3394 H   0  0  0  0  0  0  0  0  0  0  0  0  # atno 10765 bound_to 10752
  140.2504  134.3310  155.7892 H   0  0  0  0  0  0  0  0  0  0  0  0  # atno 11005 bound_to 11000
  146.0955  139.3947  143.0379 LP  0  0  0  0  0  0  0  0  0  0  0  0  # atno 17320 bound_to 7965
  145.7651  140.9919  143.1179 LP  0  0  0  0  0  0  0  0  0  0  0  0  # atno 17321 bound_to 7965
  140.4944  144.1262  150.5957 LP  0  0  0  0  0  0  0  0  0  0  0  0  # atno 17342 bound_to 10162
  140.4134  143.2646  151.9805 LP  0  0  0  0  0  0  0  0  0  0  0  0  # atno 17343 bound_to 10162
  157.5244  131.0933  151.0037 LP  0  0  0  0  0  0  0  0  0  0  0  0  # atno 17370 bound_to 10713
  157.0359  130.5730  149.5349 LP  0  0  0  0  0  0  0  0  0  0  0  0  # atno 17371 bound_to 10713
  141.2202  133.7350  156.9027 LP  0  0  0  0  0  0  0  0  0  0  0  0  # atno 17394 bound_to 11000
  140.1564  134.9195  157.2659 LP  0  0  0  0  0  0  0  0  0  0  0  0  # atno 17395 bound_to 11000

$$$$
