AV-unprocessed.smi:94|AV-procd|sdf|854|dock5
  -GOLD-   2262017303D 1   1.00000     0.00000
 Structure written by MMmdl.
 53 55  0  0  0  0  0  0  0  0  1 V2000
  149.7045  141.2171  155.6872 C   0  0  0  0  0  0  0  0  0  0  0  0
  150.3967  140.1793  156.3656 O   0  0  0  0  0  0  0  0  0  0  0  0
  151.1394  140.5032  157.4834 C   0  0  0  0  0  0  0  0  0  0  0  0
  151.2246  141.8205  158.0029 C   0  0  0  0  0  0  0  0  0  0  0  0
  152.0090  142.0977  159.1372 C   0  0  0  0  0  0  0  0  0  0  0  0
  152.7268  141.0659  159.7684 C   0  0  0  0  0  0  0  0  0  0  0  0
  153.5809  141.3599  160.9844 C   0  0  0  0  0  0  0  0  0  0  0  0
  152.6457  139.7543  159.2644 C   0  0  0  0  0  0  0  0  0  0  0  0
  151.8500  139.4606  158.1317 C   0  0  0  0  0  0  0  0  0  0  0  0
  151.7835  138.0320  157.5883 C   0  0  1  0  0  0  0  0  0  0  0  0
  152.7760  137.1199  158.3283 C   0  0  0  0  0  0  0  0  0  0  0  0
  150.4336  137.4718  157.6542 N   0  0  0  0  0  0  0  0  0  0  0  0
  149.8023  137.0720  158.7690 C   0  0  0  0  0  0  0  0  0  0  0  0
  150.3014  137.1481  159.8927 O   0  0  0  0  0  0  0  0  0  0  0  0
  148.3965  136.4869  158.5660 C   0  0  0  0  0  0  0  0  0  0  0  0
  148.0013  135.5247  159.6178 N   0  0  0  0  0  0  0  0  0  0  0  0
  147.8509  135.9995  160.9446 C   0  0  0  0  0  0  0  0  0  0  0  0
  148.0356  137.1852  161.2233 O   0  0  0  0  0  0  0  0  0  0  0  0
  147.4770  134.9958  161.9347 C   0  0  0  0  0  0  0  0  0  0  0  0
  147.3182  135.3552  163.2198 F   0  0  0  0  0  0  0  0  0  0  0  0
  147.2912  133.7077  161.5815 C   0  0  0  0  0  0  0  0  0  0  0  0
  147.4386  133.2589  160.2821 N   0  0  0  0  0  0  0  0  0  0  0  0
  147.2403  131.8012  159.9344 C   0  0  1  0  0  0  0  0  0  0  0  0
  148.5605  131.1859  159.4548 C   0  0  0  0  0  0  0  0  0  0  0  0
  149.0704  130.5124  160.7112 C   0  0  0  0  0  0  0  0  0  0  0  0
  147.7698  130.0720  161.3715 C   0  0  0  0  0  0  0  0  0  0  0  0
  146.8402  131.1122  161.0843 O   0  0  0  0  0  0  0  0  0  0  0  0
  147.8163  134.1656  159.2677 C   0  0  0  0  0  0  0  0  0  0  0  0
  147.9915  133.7793  158.1099 O   0  0  0  0  0  0  0  0  0  0  0  0
  149.1746  140.7963  154.8328 H   0  0  0  0  0  0  0  0  0  0  0  0
  150.3918  141.9742  155.3073 H   0  0  0  0  0  0  0  0  0  0  0  0
  148.9634  141.6905  156.3326 H   0  0  0  0  0  0  0  0  0  0  0  0
  150.6974  142.6441  157.5462 H   0  0  0  0  0  0  0  0  0  0  0  0
  152.0611  143.1079  159.5167 H   0  0  0  0  0  0  0  0  0  0  0  0
  154.5110  140.7920  160.9468 H   0  0  0  0  0  0  0  0  0  0  0  0
  153.0466  141.0853  161.8940 H   0  0  0  0  0  0  0  0  0  0  0  0
  153.8348  142.4188  161.0408 H   0  0  0  0  0  0  0  0  0  0  0  0
  153.2088  138.9735  159.7540 H   0  0  0  0  0  0  0  0  0  0  0  0
  152.0648  138.0632  156.5345 H   0  0  0  0  0  0  0  0  0  0  0  0
  153.7951  137.4977  158.2394 H   0  0  0  0  0  0  0  0  0  0  0  0
  152.7675  136.1079  157.9227 H   0  0  0  0  0  0  0  0  0  0  0  0
  152.5374  137.0548  159.3903 H   0  0  0  0  0  0  0  0  0  0  0  0
  149.9462  137.3684  156.7762 H   0  0  0  0  0  0  0  0  0  0  0  0
  147.6760  137.3046  158.5046 H   0  0  0  0  0  0  0  0  0  0  0  0
  148.3597  136.0295  157.5763 H   0  0  0  0  0  0  0  0  0  0  0  0
  147.0210  133.0056  162.3561 H   0  0  0  0  0  0  0  0  0  0  0  0
  146.4410  131.7619  159.1929 H   0  0  0  0  0  0  0  0  0  0  0  0
  148.3389  130.4436  158.6871 H   0  0  0  0  0  0  0  0  0  0  0  0
  149.2410  131.9312  159.0406 H   0  0  0  0  0  0  0  0  0  0  0  0
  149.7479  129.6826  160.5086 H   0  0  0  0  0  0  0  0  0  0  0  0
  149.5916  131.2333  161.3424 H   0  0  0  0  0  0  0  0  0  0  0  0
  147.4103  129.1453  160.9220 H   0  0  0  0  0  0  0  0  0  0  0  0
  147.8742  129.9126  162.4448 H   0  0  0  0  0  0  0  0  0  0  0  0
  1  2  1  0  0  0  0
  1 30  1  0  0  0  0
  1 31  1  0  0  0  0
  1 32  1  0  0  0  0
  2  3  1  0  0  0  0
  3  9  1  0  0  0  0
  3  4  2  0  0  0  0
  4  5  1  0  0  0  0
  4 33  1  0  0  0  0
  5  6  2  0  0  0  0
  5 34  1  0  0  0  0
  6  7  1  0  0  0  0
  6  8  1  0  0  0  0
  7 35  1  0  0  0  0
  7 36  1  0  0  0  0
  7 37  1  0  0  0  0
  8  9  2  0  0  0  0
  8 38  1  0  0  0  0
  9 10  1  0  0  0  0
 10 11  1  0  0  0  0
 10 12  1  0  0  0  0
 10 39  1  0  0  0  0
 11 40  1  0  0  0  0
 11 41  1  0  0  0  0
 11 42  1  0  0  0  0
 12 13  1  0  0  0  0
 12 43  1  0  0  0  0
 13 14  2  0  0  0  0
 13 15  1  0  0  0  0
 15 16  1  0  0  0  0
 15 44  1  0  0  0  0
 15 45  1  0  0  0  0
 16 28  1  0  0  0  0
 16 17  1  0  0  0  0
 17 18  2  0  0  0  0
 17 19  1  0  0  0  0
 19 20  1  0  0  0  0
 19 21  2  0  0  0  0
 21 22  1  0  0  0  0
 21 46  1  0  0  0  0
 22 23  1  0  0  0  0
 22 28  1  0  0  0  0
 23 27  1  0  0  0  0
 23 24  1  0  0  0  0
 23 47  1  0  0  0  0
 24 25  1  0  0  0  0
 24 48  1  0  0  0  0
 24 49  1  0  0  0  0
 25 26  1  0  0  0  0
 25 50  1  0  0  0  0
 25 51  1  0  0  0  0
 26 27  1  0  0  0  0
 26 52  1  0  0  0  0
 26 53  1  0  0  0  0
 28 29  2  0  0  0  0
M  END
> <s_m_source_file>
AV-unprocessed.smi

> <i_m_source_file_index>
94

> <i_lp_mmshare_version>
43012

> <i_f3d_flags>
0

> <s_epik_input>
W0NIM11PYzFbY0hdW2NIXWMoW0NIM10pW2NIXWMxW0NASF0oW0NIM10pW05IXUMoPU8pW0NIMl1uMmMoPU8pYyhGKVtjSF1uKGMyPU8pW0NAQEhdM1tDSDJdW0NIMl1bQ0gyXU8z

> <s_epik_cmdline>
J2VwaWtfcHl0aG9uJywgJy1waCcsICc3LjAnLCAnLXRuJywgJzgnLCAnLW1hJywgJzIwMCcsICctbWV0YWxfYmluZGluZycsICctaW1hZScsICc8aW5maWxlLm1hZT4nLCAnLW9tYWUnLCAnPG91dGZpbGUubWFlPic=

> <r_lp_tautomer_probability>
1

> <r_epik_Ionization_Penalty>
3.37009e-08

> <r_epik_Ionization_Penalty_Charging>
3.59856e-09

> <r_epik_Ionization_Penalty_Neutral>
3.01024e-08

> <r_epik_State_Penalty>
-0

> <r_epik_Charging_Adjusted_Penalty>
3.59856e-09

> <i_epik_Tot_Q>
0

> <i_epik_Tot_abs_Q>
0

> <r_epik_Metal_State_Penalty>
-0

> <b_epik_Metal_Only>
0

> <s_epik_Chemistry_Notes>
This compound contains an acetal/aminal-like group ( X-CH(R)-Y where X, Y are N, S, or O) that may be acid/base labile, releasing an aldehyde.

> <s_lp_Force_Field>
OPLS_2005

> <r_lp_Energy>
32.8189

> <b_lp_Chiralities_Consistent>
1

> <s_lp_Variant>
AV-unprocessed.smi:94-4

> <Gold.Version>
5.8.1

> <Gold.Id.Protein>
6NUR|6NUR_protein|mol2

> <Gold.PLP.Fitness>
51.8430

> <Gold.PLP.PLP>
-47.2050

> <Gold.PLP.part.hbond>
-3.2396

> <Gold.PLP.part.metal>
0.0000

> <Gold.PLP.part.buried>
-6.0877

> <Gold.PLP.part.nonpolar>
-38.3525

> <Gold.PLP.part.repulsive>
0.0510

> <Gold.PLP.ligand.clash>
0.0000

> <Gold.PLP.ligand.torsion>
0.5873

> <Gold.PLP.Chemscore.Hbond>
1.9160

> <Gold.PLP.Chemscore.CHOScore>
0.0000

> <Gold.PLP.Chemscore.Metal>
0.0000

> <Gold.Chemscore.Hbonds>
donor molecule, donor type, donor heavy atom, donor atom, acceptor molecule, acceptor atom, score
      P1  H  6896  6909       L1    14  0.37
      P1  H  6931  6943       L1    18  1.00
      P1  H  6934  6947       L1    18  0.67

> <Gold.PLP.Chemscore.Internal.Correction>
0.0646

> <Gold.Rescore>
     Score         DG    S(hbond)    S(metal)    S(lipo)     H(rot)  DE(clash)    DE(int)     intcor
     12.72     -16.02       1.70        0.00      92.68       2.34       0.02       3.28       ----

> <Gold.Chemscore.Fitness>
12.7226

> <Gold.Chemscore.DG>
-16.0191

> <Gold.Chemscore.ZeroCoef>
-5.4800

> <Gold.Chemscore.Hbond>
1.7001

> <Gold.Chemscore.Metal>
0.0000

> <Gold.Chemscore.Lipo>
92.6784

> <Gold.Chemscore.Internal_Hbond>
0.0000

> <Gold.Chemscore.DEClash>
0.0170

> <Gold.Chemscore.DEInternal>
3.2795

> <Gold.Chemscore.Rot>
2.3370

> <Gold.Chemscore.Internal.Correction>
   9.000000E+99

> <Gold.Chemscore.Hbonds>
donor molecule, donor type, donor heavy atom, donor atom, acceptor molecule, acceptor atom, score
      P1  H  6896  6909       L1    14  0.09
      P1  H  6931  6943       L1    18  0.95
      P1  H  6934  6947       L1    18  0.63

> <Gold.Chemscore.Hbond.Weighted>
-5.6784

> <Gold.Chemscore.Metal.Weighted>
-0.0000

> <Gold.Chemscore.Lipo.Weighted>
-10.8434

> <Gold.Chemscore.Internal_Hbond.Weighted>
0.0000

> <Gold.Chemscore.DEClash.Weighted>
0.0170

> <Gold.Chemscore.DEInternal.Weighted>
3.2795

> <Gold.Chemscore.Rot.Weighted>
5.9827

> <Gold.Chemscore.Internal.Correction.Weighted>
   9.000000E+99

> <Gold.Protein.RotatedTorsions>
[ 6907 6896 6895 6894 ] final  113.40 input  -60.11 | X-H torsion
[ 7974 7965 7964 7962 ] final -174.17 input  175.53 | X-H torsion
[ 8008 7997 7996 7995 ] final  -51.00 input   59.86 | X-H torsion
[ 10167 10162 10161 10158 ] final  127.36 input  -65.29 | X-H torsion
[ 10718 10713 10712 10709 ] final  131.81 input   66.30 | X-H torsion
[ 10763 10752 10751 10750 ] final  -17.87 input  -60.55 | X-H torsion
[ 11005 11000 10999 10996 ] final  170.18 input  -57.11 | X-H torsion

> <Gold.Protein.ActiveResidues>
 VAL166  LYS551  ARG553  GLY616  TRP617  ASP618  TYR619  PRO620  LYS621  CYS622 
 ASP623  PHE694  ASN695  SER759  ASP760  ASP761  ALA762  ILE779  LEU786  VAL792 
 PHE793  MET794  SER795  GLU796  ALA797  LYS798  CYS799  TRP800  GLU811  SER814 

> <Gold.Protein.RotatedAtoms>
  152.4863  133.8380  159.7137 H   0  0  0  0  0  0  0  0  0  0  0  0  # atno 6907 bound_to 6896
  150.8952  133.7181  159.2900 H   0  0  0  0  0  0  0  0  0  0  0  0  # atno 6908 bound_to 6896
  151.4641  135.1044  159.9785 H   0  0  0  0  0  0  0  0  0  0  0  0  # atno 6909 bound_to 6896
  144.7133  140.1511  143.6384 H   0  0  0  0  0  0  0  0  0  0  0  0  # atno 7974 bound_to 7965
  154.4073  140.1258  156.4758 H   0  0  0  0  0  0  0  0  0  0  0  0  # atno 8008 bound_to 7997
  155.7134  140.3493  155.4964 H   0  0  0  0  0  0  0  0  0  0  0  0  # atno 8009 bound_to 7997
  155.9280  140.1064  157.1145 H   0  0  0  0  0  0  0  0  0  0  0  0  # atno 8010 bound_to 7997
  139.5582  144.6863  151.4120 H   0  0  0  0  0  0  0  0  0  0  0  0  # atno 10167 bound_to 10162
  157.4932  131.1091  150.9528 H   0  0  0  0  0  0  0  0  0  0  0  0  # atno 10718 bound_to 10713
  153.5805  135.7005  153.5465 H   0  0  0  0  0  0  0  0  0  0  0  0  # atno 10763 bound_to 10752
  153.3265  135.4059  155.1460 H   0  0  0  0  0  0  0  0  0  0  0  0  # atno 10764 bound_to 10752
  154.8618  135.3708  154.5333 H   0  0  0  0  0  0  0  0  0  0  0  0  # atno 10765 bound_to 10752
  140.3056  134.7559  157.3951 H   0  0  0  0  0  0  0  0  0  0  0  0  # atno 11005 bound_to 11000
  145.9115  139.2490  143.1434 LP  0  0  0  0  0  0  0  0  0  0  0  0  # atno 17320 bound_to 7965
  145.9711  140.8759  143.0162 LP  0  0  0  0  0  0  0  0  0  0  0  0  # atno 17321 bound_to 7965
  140.6858  143.7977  150.7184 LP  0  0  0  0  0  0  0  0  0  0  0  0  # atno 17342 bound_to 10162
  140.1444  143.4413  152.2173 LP  0  0  0  0  0  0  0  0  0  0  0  0  # atno 17343 bound_to 10162
  157.0223  130.5679  149.5333 LP  0  0  0  0  0  0  0  0  0  0  0  0  # atno 17370 bound_to 10713
  156.0185  130.5280  150.8207 LP  0  0  0  0  0  0  0  0  0  0  0  0  # atno 17371 bound_to 10713
  140.1070  134.5396  155.8300 LP  0  0  0  0  0  0  0  0  0  0  0  0  # atno 17394 bound_to 11000
  141.2119  133.6712  156.6617 LP  0  0  0  0  0  0  0  0  0  0  0  0  # atno 17395 bound_to 11000

$$$$
