AV-unprocessed.smi:3284|AV-procd|sdf|12576|dock1
  -GOLD-   2272018493D 1   1.00000     0.00000
 Structure written by MMmdl.
 45 46  0  0  0  0  0  0  0  0  3 V2000
  151.3158  139.4932  154.8978 C   0  0  0  0  0  0  0  0  0  0  0  0
  149.8657  139.1006  154.6688 C   0  0  0  0  0  0  0  0  0  0  0  0
  149.4119  137.8894  155.0473 C   0  0  0  0  0  0  0  0  0  0  0  0
  147.9983  137.3833  154.8199 C   0  0  0  0  0  0  0  0  0  0  0  0
  147.0513  138.4612  154.2668 C   0  0  0  0  0  0  0  0  0  0  0  0
  147.7722  139.3898  153.2743 C   0  0  1  0  0  0  0  0  0  0  0  0
  146.7938  140.3215  152.5384 C   0  0  0  0  0  0  0  0  0  0  0  0
  148.9639  140.1184  153.9576 C   0  0  1  0  0  0  0  0  0  0  0  0
  148.5131  141.2628  154.9030 C   0  0  0  0  0  0  0  0  0  0  0  0
  149.6455  142.0396  155.4443 N   0  3  0  0  0  0  0  0  0  0  0  0
  149.9761  141.7262  156.8494 C   0  0  0  0  0  0  0  0  0  0  0  0
  151.4166  142.1284  157.2049 C   0  0  0  0  0  0  0  0  0  0  0  0
  151.5083  143.3093  158.1265 C   0  0  0  0  0  0  0  0  0  0  0  0
  150.7680  144.4207  158.0313 N   0  3  0  0  0  0  0  0  0  0  0  0
  151.1002  145.3034  159.0227 C   0  0  0  0  0  0  0  0  0  0  0  0
  152.0915  144.7061  159.7559 C   0  0  0  0  0  0  0  0  0  0  0  0
  152.3225  143.4820  159.1824 N   0  0  0  0  0  0  0  0  0  0  0  0
  153.2993  142.4867  159.6292 C   0  0  0  0  0  0  0  0  0  0  0  0
  151.7404  139.9408  153.9991 H   0  0  0  0  0  0  0  0  0  0  0  0
  151.9208  138.6215  155.1499 H   0  0  0  0  0  0  0  0  0  0  0  0
  151.4096  140.1991  155.7212 H   0  0  0  0  0  0  0  0  0  0  0  0
  150.0851  137.1923  155.5249 H   0  0  0  0  0  0  0  0  0  0  0  0
  148.0594  136.5530  154.1156 H   0  0  0  0  0  0  0  0  0  0  0  0
  147.6024  136.9773  155.7510 H   0  0  0  0  0  0  0  0  0  0  0  0
  146.1980  137.9788  153.7885 H   0  0  0  0  0  0  0  0  0  0  0  0
  146.6421  139.0473  155.0899 H   0  0  0  0  0  0  0  0  0  0  0  0
  148.2016  138.7492  152.5017 H   0  0  0  0  0  0  0  0  0  0  0  0
  146.1899  140.9097  153.2292 H   0  0  0  0  0  0  0  0  0  0  0  0
  146.1031  139.7446  151.9227 H   0  0  0  0  0  0  0  0  0  0  0  0
  147.3234  141.0087  151.8779 H   0  0  0  0  0  0  0  0  0  0  0  0
  149.5537  140.5629  153.1545 H   0  0  0  0  0  0  0  0  0  0  0  0
  147.8705  141.9675  154.3771 H   0  0  0  0  0  0  0  0  0  0  0  0
  147.9318  140.8589  155.7323 H   0  0  0  0  0  0  0  0  0  0  0  0
  150.4569  141.8494  154.8732 H   0  0  0  0  0  0  0  0  0  0  0  0
  149.2713  142.2302  157.5120 H   0  0  0  0  0  0  0  0  0  0  0  0
  149.8518  140.6543  157.0075 H   0  0  0  0  0  0  0  0  0  0  0  0
  151.9203  141.3042  157.7112 H   0  0  0  0  0  0  0  0  0  0  0  0
  151.9952  142.3457  156.3072 H   0  0  0  0  0  0  0  0  0  0  0  0
  150.6184  146.2646  159.1301 H   0  0  0  0  0  0  0  0  0  0  0  0
  152.6340  145.0536  160.6238 H   0  0  0  0  0  0  0  0  0  0  0  0
  153.8140  142.8545  160.5174 H   0  0  0  0  0  0  0  0  0  0  0  0
  154.0281  142.3141  158.8381 H   0  0  0  0  0  0  0  0  0  0  0  0
  152.7855  141.5565  159.8736 H   0  0  0  0  0  0  0  0  0  0  0  0
  149.4210  143.0215  155.3716 H   0  0  0  0  0  0  0  0  0  0  0  0
  150.0557  144.5817  157.3299 H   0  0  0  0  0  0  0  0  0  0  0  0
  1  2  1  0  0  0  0
  1 19  1  0  0  0  0
  1 20  1  0  0  0  0
  1 21  1  0  0  0  0
  2  8  1  0  0  0  0
  2  3  2  0  0  0  0
  3  4  1  0  0  0  0
  3 22  1  0  0  0  0
  4  5  1  0  0  0  0
  4 23  1  0  0  0  0
  4 24  1  0  0  0  0
  5  6  1  0  0  0  0
  5 25  1  0  0  0  0
  5 26  1  0  0  0  0
  6  7  1  0  0  0  0
  6  8  1  0  0  0  0
  6 27  1  0  0  0  0
  7 28  1  0  0  0  0
  7 29  1  0  0  0  0
  7 30  1  0  0  0  0
  8  9  1  0  0  0  0
  8 31  1  0  0  0  0
  9 10  1  0  0  0  0
  9 32  1  0  0  0  0
  9 33  1  0  0  0  0
 10 11  1  0  0  0  0
 10 34  1  0  0  0  0
 10 44  1  0  0  0  0
 11 12  1  0  0  0  0
 11 35  1  0  0  0  0
 11 36  1  0  0  0  0
 12 13  1  0  0  0  0
 12 37  1  0  0  0  0
 12 38  1  0  0  0  0
 13 17  1  0  0  0  0
 13 14  2  0  0  0  0
 14 15  1  0  0  0  0
 14 45  1  0  0  0  0
 15 16  2  0  0  0  0
 15 39  1  0  0  0  0
 16 17  1  0  0  0  0
 16 40  1  0  0  0  0
 17 18  1  0  0  0  0
 18 41  1  0  0  0  0
 18 42  1  0  0  0  0
 18 43  1  0  0  0  0
M  CHG  1  10   1
M  CHG  1  14   1
M  END
> <s_m_source_file>
AV-unprocessed.smi

> <i_m_source_file_index>
3284

> <i_lp_mmshare_version>
43012

> <i_f3d_flags>
0

> <s_epik_input>
W0NIM11DMT1bQ0hdW0NIMl1bQ0gyXVtDQEBIXShbQ0gzXSlbQ0BIXTFbQ0gyXVtOSF1bQ0gyXVtDSDJdYzJuW2NIXVtjSF1uMltDSDNd

> <s_epik_cmdline>
J2VwaWtfcHl0aG9uJywgJy1waCcsICc3LjAnLCAnLXRuJywgJzgnLCAnLW1hJywgJzIwMCcsICctbWV0YWxfYmluZGluZycsICctaW1hZScsICc8aW5maWxlLm1hZT4nLCAnLW9tYWUnLCAnPG91dGZpbGUubWFlPic=

> <r_lp_tautomer_probability>
1

> <r_epik_Ionization_Penalty>
0.892846

> <r_epik_Ionization_Penalty_Charging>
0.00275802

> <r_epik_Ionization_Penalty_Neutral>
0.890088

> <r_epik_State_Penalty>
0.485211

> <r_epik_Charging_Adjusted_Penalty>
0.487969

> <i_epik_Tot_Q>
2

> <i_epik_Tot_abs_Q>
2

> <r_epik_Metal_State_Penalty>
4.22898

> <b_epik_Metal_Only>
0

> <s_lp_Force_Field>
OPLS_2005

> <r_lp_Energy>
25.5845

> <b_lp_Chiralities_Consistent>
1

> <s_lp_Variant>
AV-unprocessed.smi:3284-5

> <Gold.Version>
5.8.1

> <Gold.Id.Protein>
6NUR|6NUR_protein|mol2

> <Gold.PLP.Fitness>
48.2157

> <Gold.PLP.PLP>
-37.9921

> <Gold.PLP.part.hbond>
-2.0000

> <Gold.PLP.part.metal>
0.0000

> <Gold.PLP.part.buried>
0.8794

> <Gold.PLP.part.nonpolar>
-36.1707

> <Gold.PLP.part.repulsive>
0.2386

> <Gold.PLP.ligand.clash>
0.0000

> <Gold.PLP.ligand.torsion>
1.0094

> <Gold.PLP.Chemscore.Hbond>
4.0000

> <Gold.PLP.Chemscore.CHOScore>
0.0000

> <Gold.PLP.Chemscore.Metal>
0.0000

> <Gold.Chemscore.Hbonds>
donor molecule, donor type, donor heavy atom, donor atom, acceptor molecule, acceptor atom, score
      L1  H    10    44       P1  8028  2.00
      L1  H    14    45       P1  8028  2.00

> <Gold.PLP.Chemscore.Internal.Correction>
0.2425

> <Gold.Rescore>
     Score         DG    S(hbond)    S(metal)    S(lipo)     H(rot)  DE(clash)    DE(int)     intcor
     17.02     -18.77       1.78        0.00      99.87       1.70       0.82       0.93       ----

> <Gold.Chemscore.Fitness>
17.0245

> <Gold.Chemscore.DG>
-18.7692

> <Gold.Chemscore.ZeroCoef>
-5.4800

> <Gold.Chemscore.Hbond>
1.7831

> <Gold.Chemscore.Metal>
0.0000

> <Gold.Chemscore.Lipo>
99.8698

> <Gold.Chemscore.Internal_Hbond>
0.0000

> <Gold.Chemscore.DEClash>
0.8182

> <Gold.Chemscore.DEInternal>
0.9265

> <Gold.Chemscore.Rot>
1.6997

> <Gold.Chemscore.Internal.Correction>
   9.000000E+99

> <Gold.Chemscore.Hbonds>
donor molecule, donor type, donor heavy atom, donor atom, acceptor molecule, acceptor atom, score
      L1  H    10    44       P1  8028  1.00
      L1  H    14    45       P1  8028  0.29

> <Gold.Chemscore.Hbond.Weighted>
-5.9557

> <Gold.Chemscore.Metal.Weighted>
-0.0000

> <Gold.Chemscore.Lipo.Weighted>
-11.6848

> <Gold.Chemscore.Internal_Hbond.Weighted>
0.0000

> <Gold.Chemscore.DEClash.Weighted>
0.8182

> <Gold.Chemscore.DEInternal.Weighted>
0.9265

> <Gold.Chemscore.Rot.Weighted>
4.3512

> <Gold.Chemscore.Internal.Correction.Weighted>
   9.000000E+99

> <Gold.Protein.RotatedTorsions>
[ 6907 6896 6895 6894 ] final  128.16 input  -60.11 | X-H torsion
[ 7974 7965 7964 7962 ] final   55.92 input  175.53 | X-H torsion
[ 8008 7997 7996 7995 ] final  -75.74 input   59.86 | X-H torsion
[ 10167 10162 10161 10158 ] final  111.00 input  -65.29 | X-H torsion
[ 10718 10713 10712 10709 ] final  152.38 input   66.30 | X-H torsion
[ 10763 10752 10751 10750 ] final  109.27 input  -60.55 | X-H torsion
[ 11005 11000 10999 10996 ] final -129.43 input  -57.11 | X-H torsion

> <Gold.Protein.ActiveResidues>
 VAL166  LYS551  ARG553  GLY616  TRP617  ASP618  TYR619  PRO620  LYS621  CYS622 
 ASP623  PHE694  ASN695  SER759  ASP760  ASP761  ALA762  ILE779  LEU786  VAL792 
 PHE793  MET794  SER795  GLU796  ALA797  LYS798  CYS799  TRP800  GLU811  SER814 

> <Gold.Protein.RotatedAtoms>
  152.3745  133.6463  159.6112 H   0  0  0  0  0  0  0  0  0  0  0  0  # atno 6907 bound_to 6896
  150.7693  133.9216  159.3408 H   0  0  0  0  0  0  0  0  0  0  0  0  # atno 6908 bound_to 6896
  151.7032  135.0927  160.0306 H   0  0  0  0  0  0  0  0  0  0  0  0  # atno 6909 bound_to 6896
  145.9452  139.3924  143.0339 H   0  0  0  0  0  0  0  0  0  0  0  0  # atno 7974 bound_to 7965
  154.5443  140.0739  156.8563 H   0  0  0  0  0  0  0  0  0  0  0  0  # atno 8008 bound_to 7997
  155.3118  140.3390  155.4225 H   0  0  0  0  0  0  0  0  0  0  0  0  # atno 8009 bound_to 7997
  156.1904  140.1684  156.8090 H   0  0  0  0  0  0  0  0  0  0  0  0  # atno 8010 bound_to 7997
  139.6645  144.7128  151.1803 H   0  0  0  0  0  0  0  0  0  0  0  0  # atno 10167 bound_to 10162
  157.2585  131.0793  151.1682 H   0  0  0  0  0  0  0  0  0  0  0  0  # atno 10718 bound_to 10713
  153.4324  135.3785  155.2178 H   0  0  0  0  0  0  0  0  0  0  0  0  # atno 10763 bound_to 10752
  154.8750  135.3843  154.4252 H   0  0  0  0  0  0  0  0  0  0  0  0  # atno 10764 bound_to 10752
  153.4787  135.7088  153.6014 H   0  0  0  0  0  0  0  0  0  0  0  0  # atno 10765 bound_to 10752
  140.9432  134.1165  157.4132 H   0  0  0  0  0  0  0  0  0  0  0  0  # atno 11005 bound_to 11000
  145.8245  140.9662  143.0881 LP  0  0  0  0  0  0  0  0  0  0  0  0  # atno 17320 bound_to 7965
  144.6786  140.0084  143.7484 LP  0  0  0  0  0  0  0  0  0  0  0  0  # atno 17321 bound_to 7965
  140.7593  143.5941  150.8766 LP  0  0  0  0  0  0  0  0  0  0  0  0  # atno 17342 bound_to 10162
  139.9602  143.6173  152.3004 LP  0  0  0  0  0  0  0  0  0  0  0  0  # atno 17343 bound_to 10162
  157.3201  130.6933  149.6264 LP  0  0  0  0  0  0  0  0  0  0  0  0  # atno 17370 bound_to 10713
  155.9664  130.4338  150.5021 LP  0  0  0  0  0  0  0  0  0  0  0  0  # atno 17371 bound_to 10713
  139.8826  135.0043  156.6241 LP  0  0  0  0  0  0  0  0  0  0  0  0  # atno 17394 bound_to 11000
  140.7706  133.8742  155.8488 LP  0  0  0  0  0  0  0  0  0  0  0  0  # atno 17395 bound_to 11000

$$$$
