AV-unprocessed.smi:1803|AV-procd|sdf|7294|dock4
  -GOLD-   22720 8553D 1   1.00000     0.00000
 Structure written by MMmdl.
 35 37  0  0  0  0  0  0  0  0  3 V2000
  147.4302  132.5939  154.1264 O   0  0  0  0  0  0  0  0  0  0  0  0
  148.0645  133.5972  153.8035 C   0  0  0  0  0  0  0  0  0  0  0  0
  149.3054  133.8825  154.2770 N   0  5  0  0  0  0  0  0  0  0  0  0
  149.8830  133.1791  155.2687 C   0  0  0  0  0  0  0  0  0  0  0  0
  150.3348  133.7562  156.3938 N   0  0  0  0  0  0  0  0  0  0  0  0
  150.9031  132.8519  157.2805 N   0  0  0  0  0  0  0  0  0  0  0  0
  150.8507  131.6076  156.8061 C   0  0  0  0  0  0  0  0  0  0  0  0
  150.1135  131.4291  155.2280 S   0  0  0  0  0  0  0  0  0  0  0  0
  147.5095  134.4656  152.9374 N   0  0  0  0  0  0  0  0  0  0  0  0
  146.1988  134.3300  152.3140 C   0  0  1  0  0  0  0  0  0  0  0  0
  145.4558  135.6618  152.1229 C   0  0  0  0  0  0  0  0  0  0  0  0
  144.7719  135.5532  150.7459 C   0  0  0  0  0  0  0  0  0  0  0  0
  145.0345  134.1836  150.2469 N   0  3  2  0  0  0  0  0  0  0  0  0
  143.8968  133.2618  150.5157 C   0  0  0  0  0  0  0  0  0  0  0  0
  144.2549  131.7997  150.2190 C   0  0  0  0  0  0  0  0  0  0  0  0
  145.4664  131.3728  151.0517 C   0  0  0  0  0  0  0  0  0  0  0  0
  146.6520  132.2916  150.7376 C   0  0  0  0  0  0  0  0  0  0  0  0
  146.3135  133.7919  150.8858 C   0  0  2  0  0  0  0  0  0  0  0  0
  151.2500  130.7905  157.3881 H   0  0  0  0  0  0  0  0  0  0  0  0
  148.0477  135.2849  152.6956 H   0  0  0  0  0  0  0  0  0  0  0  0
  145.5809  133.6546  152.9082 H   0  0  0  0  0  0  0  0  0  0  0  0
  144.7321  135.8203  152.9231 H   0  0  0  0  0  0  0  0  0  0  0  0
  146.1429  136.5093  152.1307 H   0  0  0  0  0  0  0  0  0  0  0  0
  143.7072  135.7874  150.7885 H   0  0  0  0  0  0  0  0  0  0  0  0
  145.2301  136.2616  150.0549 H   0  0  0  0  0  0  0  0  0  0  0  0
  143.5830  133.3523  151.5569 H   0  0  0  0  0  0  0  0  0  0  0  0
  143.0442  133.5650  149.9070 H   0  0  0  0  0  0  0  0  0  0  0  0
  143.4041  131.1557  150.4437 H   0  0  0  0  0  0  0  0  0  0  0  0
  144.4682  131.6752  149.1565 H   0  0  0  0  0  0  0  0  0  0  0  0
  145.2256  131.4164  152.1144 H   0  0  0  0  0  0  0  0  0  0  0  0
  145.7277  130.3368  150.8341 H   0  0  0  0  0  0  0  0  0  0  0  0
  147.5049  132.0337  151.3665 H   0  0  0  0  0  0  0  0  0  0  0  0
  146.9701  132.1056  149.7110 H   0  0  0  0  0  0  0  0  0  0  0  0
  147.0993  134.3568  150.3796 H   0  0  0  0  0  0  0  0  0  0  0  0
  145.1682  134.2116  149.2463 H   0  0  0  0  0  0  0  0  0  0  0  0
  1  2  2  0  0  0  0
  2  3  1  0  0  0  0
  2  9  1  0  0  0  0
  3  4  1  0  0  0  0
  4  8  1  0  0  0  0
  4  5  2  0  0  0  0
  5  6  1  0  0  0  0
  6  7  2  0  0  0  0
  7  8  1  0  0  0  0
  7 19  1  0  0  0  0
  9 10  1  0  0  0  0
  9 20  1  0  0  0  0
 10 18  1  0  0  0  0
 10 11  1  0  0  0  0
 10 21  1  0  0  0  0
 11 12  1  0  0  0  0
 11 22  1  0  0  0  0
 11 23  1  0  0  0  0
 12 13  1  0  0  0  0
 12 24  1  0  0  0  0
 12 25  1  0  0  0  0
 13 18  1  0  0  0  0
 13 14  1  0  0  0  0
 13 35  1  0  0  0  0
 14 15  1  0  0  0  0
 14 26  1  0  0  0  0
 14 27  1  0  0  0  0
 15 16  1  0  0  0  0
 15 28  1  0  0  0  0
 15 29  1  0  0  0  0
 16 17  1  0  0  0  0
 16 30  1  0  0  0  0
 16 31  1  0  0  0  0
 17 18  1  0  0  0  0
 17 32  1  0  0  0  0
 17 33  1  0  0  0  0
 18 34  1  0  0  0  0
M  CHG  1   3  -1
M  CHG  1  13   1
M  END
> <s_m_source_file>
AV-unprocessed.smi

> <i_m_source_file_index>
1803

> <i_lp_mmshare_version>
43012

> <i_f3d_flags>
0

> <s_epik_input>
czFbY0hdbm5jMVtOSF1DKD1PKVtOSF1bQ0BIXShbQ0gyXVtDSDJdMilbQ0BASF0oTjIzKVtDSDJdW0NIMl1bQ0gyXVtDSDJdMw==

> <s_epik_cmdline>
J2VwaWtfcHl0aG9uJywgJy1waCcsICc3LjAnLCAnLXRuJywgJzgnLCAnLW1hJywgJzIwMCcsICctbWV0YWxfYmluZGluZycsICctaW1hZScsICc8aW5maWxlLm1hZT4nLCAnLW9tYWUnLCAnPG91dGZpbGUubWFlPic=

> <r_lp_tautomer_probability>
1

> <r_epik_Ionization_Penalty>
3.78828

> <r_epik_Ionization_Penalty_Charging>
3.7591

> <r_epik_Ionization_Penalty_Neutral>
0.0291838

> <r_epik_State_Penalty>
3.757

> <r_epik_Charging_Adjusted_Penalty>
7.51609

> <i_epik_Tot_Q>
0

> <i_epik_Tot_abs_Q>
2

> <r_epik_Metal_State_Penalty>
0.558016

> <b_epik_Metal_Only>
1

> <s_lp_Force_Field>
OPLS_2005

> <r_lp_Energy>
31.4395

> <b_lp_Chiralities_Consistent>
1

> <s_lp_Variant>
AV-unprocessed.smi:1803-16

> <Gold.Version>
5.8.1

> <Gold.Id.Protein>
6NUR|6NUR_protein|mol2

> <Gold.PLP.Fitness>
35.9609

> <Gold.PLP.PLP>
-28.6817

> <Gold.PLP.part.hbond>
-2.8556

> <Gold.PLP.part.metal>
0.0000

> <Gold.PLP.part.buried>
-1.1865

> <Gold.PLP.part.nonpolar>
-25.8642

> <Gold.PLP.part.repulsive>
0.2570

> <Gold.PLP.ligand.clash>
0.0000

> <Gold.PLP.ligand.torsion>
0.8389

> <Gold.PLP.Chemscore.Hbond>
2.9825

> <Gold.PLP.Chemscore.CHOScore>
0.0000

> <Gold.PLP.Chemscore.Metal>
0.0000

> <Gold.Chemscore.Hbonds>
donor molecule, donor type, donor heavy atom, donor atom, acceptor molecule, acceptor atom, score
      L1  H     9    20       P1  7948  0.99
      L1  H    13    35       P1  7921  1.00
      P1  H  6896  6907       L1     6  0.99

> <Gold.PLP.Chemscore.Internal.Correction>
0.0095

> <Gold.Rescore>
     Score         DG    S(hbond)    S(metal)    S(lipo)     H(rot)  DE(clash)    DE(int)     intcor
     18.54     -20.62       2.89        0.00      68.72       1.00       1.22       0.87       ----

> <Gold.Chemscore.Fitness>
18.5395

> <Gold.Chemscore.DG>
-20.6228

> <Gold.Chemscore.ZeroCoef>
-5.4800

> <Gold.Chemscore.Hbond>
2.8930

> <Gold.Chemscore.Metal>
0.0000

> <Gold.Chemscore.Lipo>
68.7190

> <Gold.Chemscore.Internal_Hbond>
0.0000

> <Gold.Chemscore.DEClash>
1.2161

> <Gold.Chemscore.DEInternal>
0.8671

> <Gold.Chemscore.Rot>
1.0000

> <Gold.Chemscore.Internal.Correction>
   9.000000E+99

> <Gold.Chemscore.Hbonds>
donor molecule, donor type, donor heavy atom, donor atom, acceptor molecule, acceptor atom, score
      L1  H     9    20       P1  7948  0.90
      L1  H    13    35       P1  7921  0.93
      P1  H  6896  6907       L1     6  0.87

> <Gold.Chemscore.Hbond.Weighted>
-9.6626

> <Gold.Chemscore.Metal.Weighted>
-0.0000

> <Gold.Chemscore.Lipo.Weighted>
-8.0401

> <Gold.Chemscore.Internal_Hbond.Weighted>
0.0000

> <Gold.Chemscore.DEClash.Weighted>
1.2161

> <Gold.Chemscore.DEInternal.Weighted>
0.8671

> <Gold.Chemscore.Rot.Weighted>
2.5600

> <Gold.Chemscore.Internal.Correction.Weighted>
   9.000000E+99

> <Gold.Protein.RotatedTorsions>
[ 6907 6896 6895 6894 ] final -158.34 input  -60.11 | X-H torsion
[ 7974 7965 7964 7962 ] final   34.26 input  175.53 | X-H torsion
[ 8008 7997 7996 7995 ] final   76.66 input   59.86 | X-H torsion
[ 10167 10162 10161 10158 ] final  -42.51 input  -65.29 | X-H torsion
[ 10718 10713 10712 10709 ] final   26.64 input   66.30 | X-H torsion
[ 10763 10752 10751 10750 ] final   63.27 input  -60.55 | X-H torsion
[ 11005 11000 10999 10996 ] final   18.38 input  -57.11 | X-H torsion

> <Gold.Protein.ActiveResidues>
 VAL166  LYS551  ARG553  GLY616  TRP617  ASP618  TYR619  PRO620  LYS621  CYS622 
 ASP623  PHE694  ASN695  SER759  ASP760  ASP761  ALA762  ILE779  LEU786  VAL792 
 PHE793  MET794  SER795  GLU796  ALA797  LYS798  CYS799  TRP800  GLU811  SER814 

> <Gold.Protein.RotatedAtoms>
  151.3167  133.4057  159.2650 H   0  0  0  0  0  0  0  0  0  0  0  0  # atno 6907 bound_to 6896
  151.0068  134.9366  159.7995 H   0  0  0  0  0  0  0  0  0  0  0  0  # atno 6908 bound_to 6896
  152.5290  134.3132  159.9173 H   0  0  0  0  0  0  0  0  0  0  0  0  # atno 6909 bound_to 6896
  146.1365  139.6292  142.9192 H   0  0  0  0  0  0  0  0  0  0  0  0  # atno 7974 bound_to 7965
  155.8305  140.3466  155.5569 H   0  0  0  0  0  0  0  0  0  0  0  0  # atno 8008 bound_to 7997
  155.8247  140.0918  157.1848 H   0  0  0  0  0  0  0  0  0  0  0  0  # atno 8009 bound_to 7997
  154.4004  140.1423  156.3529 H   0  0  0  0  0  0  0  0  0  0  0  0  # atno 8010 bound_to 7997
  140.6966  143.3034  151.3219 H   0  0  0  0  0  0  0  0  0  0  0  0  # atno 10167 bound_to 10162
  157.2095  130.6927  149.6222 H   0  0  0  0  0  0  0  0  0  0  0  0  # atno 10718 bound_to 10713
  153.0012  135.5435  154.6326 H   0  0  0  0  0  0  0  0  0  0  0  0  # atno 10763 bound_to 10752
  154.5600  135.2833  155.0931 H   0  0  0  0  0  0  0  0  0  0  0  0  # atno 10764 bound_to 10752
  154.2137  135.6463  153.5176 H   0  0  0  0  0  0  0  0  0  0  0  0  # atno 10765 bound_to 10752
  140.4254  134.1475  155.7676 H   0  0  0  0  0  0  0  0  0  0  0  0  # atno 11005 bound_to 11000
  145.5144  141.0434  143.2470 LP  0  0  0  0  0  0  0  0  0  0  0  0  # atno 17320 bound_to 7965
  144.7745  139.6660  143.7180 LP  0  0  0  0  0  0  0  0  0  0  0  0  # atno 17321 bound_to 7965
  139.6430  144.0503  152.2569 LP  0  0  0  0  0  0  0  0  0  0  0  0  # atno 17342 bound_to 10162
  140.0015  144.6290  150.7726 LP  0  0  0  0  0  0  0  0  0  0  0  0  # atno 17343 bound_to 10162
  155.9692  130.4556  150.5893 LP  0  0  0  0  0  0  0  0  0  0  0  0  # atno 17370 bound_to 10713
  157.3687  131.0762  151.1576 LP  0  0  0  0  0  0  0  0  0  0  0  0  # atno 17371 bound_to 10713
  141.1767  133.8499  157.1397 LP  0  0  0  0  0  0  0  0  0  0  0  0  # atno 17394 bound_to 11000
  140.0171  134.9962  157.0515 LP  0  0  0  0  0  0  0  0  0  0  0  0  # atno 17395 bound_to 11000

$$$$
