AV-unprocessed.smi:379|AV-procd|sdf|2459|dock4
  -GOLD-   2262022403D 1   1.00000     0.00000
 Structure written by MMmdl.
 39 40  0  0  0  0  0  0  0  0  1 V2000
  157.0918  137.5917  162.9957 C   0  0  0  0  0  0  0  0  0  0  0  0
  156.7170  138.4687  161.7918 C   0  0  0  0  0  0  0  0  0  0  0  0
  156.6379  137.7061  160.4536 C   0  0  1  0  0  0  0  0  0  0  0  0
  156.1273  136.2722  160.6523 C   0  0  0  0  0  0  0  0  0  0  0  0
  155.7612  138.3978  159.5099 N   0  0  0  0  0  0  0  0  0  0  0  0
  156.1552  139.2275  158.5310 C   0  0  0  0  0  0  0  0  0  0  0  0
  157.3360  139.4932  158.3013 O   0  0  0  0  0  0  0  0  0  0  0  0
  155.0322  139.8445  157.6843 C   0  0  0  0  0  0  0  0  0  0  0  0
  154.7323  141.2462  158.0496 N   0  0  0  0  0  0  0  0  0  0  0  0
  155.7437  142.2225  157.8588 C   0  0  0  0  0  0  0  0  0  0  0  0
  156.8540  141.9093  157.4248 O   0  0  0  0  0  0  0  0  0  0  0  0
  155.3667  143.5932  158.1947 C   0  0  0  0  0  0  0  0  0  0  0  0
  156.3460  144.6074  157.9857 C   0  0  0  0  0  0  0  0  0  0  0  0
  157.1587  145.4137  157.8155 N   0  0  0  0  0  0  0  0  0  0  0  0
  154.1392  143.8781  158.6760 C   0  0  0  0  0  0  0  0  0  0  0  0
  153.1837  142.9089  158.8907 N   0  0  0  0  0  0  0  0  0  0  0  0
  151.8375  143.2526  159.2525 C   0  0  0  0  0  0  0  0  0  0  0  0
  151.4787  144.7101  159.4445 C   0  0  0  0  0  0  0  0  0  0  0  0
  151.5304  143.7875  160.6378 C   0  0  0  0  0  0  0  0  0  0  0  0
  153.4399  141.5675  158.5306 C   0  0  0  0  0  0  0  0  0  0  0  0
  152.5631  140.7044  158.6208 O   0  0  0  0  0  0  0  0  0  0  0  0
  157.0553  138.1690  163.9197 H   0  0  0  0  0  0  0  0  0  0  0  0
  158.1010  137.1900  162.9017 H   0  0  0  0  0  0  0  0  0  0  0  0
  156.4044  136.7520  163.1007 H   0  0  0  0  0  0  0  0  0  0  0  0
  155.7501  138.9322  161.9916 H   0  0  0  0  0  0  0  0  0  0  0  0
  157.4325  139.2879  161.7090 H   0  0  0  0  0  0  0  0  0  0  0  0
  157.6461  137.6345  160.0416 H   0  0  0  0  0  0  0  0  0  0  0  0
  156.7784  135.7142  161.3259 H   0  0  0  0  0  0  0  0  0  0  0  0
  156.0939  135.7316  159.7057 H   0  0  0  0  0  0  0  0  0  0  0  0
  155.1229  136.2625  161.0773 H   0  0  0  0  0  0  0  0  0  0  0  0
  154.7697  138.2409  159.6192 H   0  0  0  0  0  0  0  0  0  0  0  0
  155.3097  139.7530  156.6335 H   0  0  0  0  0  0  0  0  0  0  0  0
  154.1344  139.2301  157.7747 H   0  0  0  0  0  0  0  0  0  0  0  0
  153.8941  144.9046  158.9077 H   0  0  0  0  0  0  0  0  0  0  0  0
  151.0645  142.6311  158.8038 H   0  0  0  0  0  0  0  0  0  0  0  0
  152.2713  145.4504  159.3537 H   0  0  0  0  0  0  0  0  0  0  0  0
  150.4981  145.0342  159.1016 H   0  0  0  0  0  0  0  0  0  0  0  0
  150.5850  143.4945  161.0896 H   0  0  0  0  0  0  0  0  0  0  0  0
  152.3566  143.9220  161.3337 H   0  0  0  0  0  0  0  0  0  0  0  0
  1  2  1  0  0  0  0
  1 22  1  0  0  0  0
  1 23  1  0  0  0  0
  1 24  1  0  0  0  0
  2  3  1  0  0  0  0
  2 25  1  0  0  0  0
  2 26  1  0  0  0  0
  3  4  1  0  0  0  0
  3  5  1  0  0  0  0
  3 27  1  0  0  0  0
  4 28  1  0  0  0  0
  4 29  1  0  0  0  0
  4 30  1  0  0  0  0
  5  6  1  0  0  0  0
  5 31  1  0  0  0  0
  6  7  2  0  0  0  0
  6  8  1  0  0  0  0
  8  9  1  0  0  0  0
  8 32  1  0  0  0  0
  8 33  1  0  0  0  0
  9 20  1  0  0  0  0
  9 10  1  0  0  0  0
 10 11  2  0  0  0  0
 10 12  1  0  0  0  0
 12 13  1  0  0  0  0
 12 15  2  0  0  0  0
 13 14  3  0  0  0  0
 15 16  1  0  0  0  0
 15 34  1  0  0  0  0
 16 17  1  0  0  0  0
 16 20  1  0  0  0  0
 17 19  1  0  0  0  0
 17 18  1  0  0  0  0
 17 35  1  0  0  0  0
 18 19  1  0  0  0  0
 18 36  1  0  0  0  0
 18 37  1  0  0  0  0
 19 38  1  0  0  0  0
 19 39  1  0  0  0  0
 20 21  2  0  0  0  0
M  END
> <s_m_source_file>
AV-unprocessed.smi

> <i_m_source_file_index>
379

> <i_lp_mmshare_version>
43012

> <i_f3d_flags>
0

> <s_epik_input>
W0NIM11bQ0gyXVtDQEhdKFtDSDNdKVtOSF1DKD1PKVtDSDJdbjFjKD1PKWMoQyNOKVtjSF1uKGMxPU8pW0NIXTJbQ0gyXVtDSDJdMg==

> <s_epik_cmdline>
J2VwaWtfcHl0aG9uJywgJy1waCcsICc3LjAnLCAnLXRuJywgJzgnLCAnLW1hJywgJzIwMCcsICctbWV0YWxfYmluZGluZycsICctaW1hZScsICc8aW5maWxlLm1hZT4nLCAnLW9tYWUnLCAnPG91dGZpbGUubWFlPic=

> <r_lp_tautomer_probability>
1

> <r_epik_Ionization_Penalty>
1.93863e-08

> <r_epik_Ionization_Penalty_Charging>
8.45512e-11

> <r_epik_Ionization_Penalty_Neutral>
1.93017e-08

> <r_epik_State_Penalty>
-0

> <r_epik_Charging_Adjusted_Penalty>
8.45512e-11

> <i_epik_Tot_Q>
0

> <i_epik_Tot_abs_Q>
0

> <r_epik_Metal_State_Penalty>
-0

> <b_epik_Metal_Only>
0

> <s_lp_Force_Field>
OPLS_2005

> <r_lp_Energy>
29.1248

> <b_lp_Chiralities_Consistent>
1

> <s_lp_Variant>
AV-unprocessed.smi:379-2

> <Gold.Version>
5.8.1

> <Gold.Id.Protein>
6NUR|6NUR_protein|mol2

> <Gold.PLP.Fitness>
50.2768

> <Gold.PLP.PLP>
-45.2176

> <Gold.PLP.part.hbond>
-3.5530

> <Gold.PLP.part.metal>
0.0000

> <Gold.PLP.part.buried>
-5.4784

> <Gold.PLP.part.nonpolar>
-35.3988

> <Gold.PLP.part.repulsive>
0.1372

> <Gold.PLP.ligand.clash>
0.0000

> <Gold.PLP.ligand.torsion>
0.9266

> <Gold.PLP.Chemscore.Hbond>
2.2269

> <Gold.PLP.Chemscore.CHOScore>
0.0000

> <Gold.PLP.Chemscore.Metal>
0.0000

> <Gold.PLP.Chemscore.Internal.Correction>
0.2318

> <Gold.Rescore>
     Score         DG    S(hbond)    S(metal)    S(lipo)     H(rot)  DE(clash)    DE(int)     intcor
     12.77     -15.93       1.89        0.00      78.71       1.98       0.10       3.06       ----

> <Gold.Chemscore.Fitness>
12.7701

> <Gold.Chemscore.DG>
-15.9276

> <Gold.Chemscore.ZeroCoef>
-5.4800

> <Gold.Chemscore.Hbond>
1.8864

> <Gold.Chemscore.Metal>
0.0000

> <Gold.Chemscore.Lipo>
78.7124

> <Gold.Chemscore.Internal_Hbond>
0.0000

> <Gold.Chemscore.DEClash>
0.0965

> <Gold.Chemscore.DEInternal>
3.0610

> <Gold.Chemscore.Rot>
1.9774

> <Gold.Chemscore.Internal.Correction>
   9.000000E+99

> <Gold.Chemscore.Hbond.Weighted>
-6.3005

> <Gold.Chemscore.Metal.Weighted>
-0.0000

> <Gold.Chemscore.Lipo.Weighted>
-9.2093

> <Gold.Chemscore.Internal_Hbond.Weighted>
0.0000

> <Gold.Chemscore.DEClash.Weighted>
0.0965

> <Gold.Chemscore.DEInternal.Weighted>
3.0610

> <Gold.Chemscore.Rot.Weighted>
5.0623

> <Gold.Chemscore.Internal.Correction.Weighted>
   9.000000E+99

> <Gold.Protein.RotatedTorsions>
[ 6907 6896 6895 6894 ] final -128.58 input  -60.11 | X-H torsion
[ 7974 7965 7964 7962 ] final  140.57 input  175.53 | X-H torsion
[ 8008 7997 7996 7995 ] final -175.98 input   59.86 | X-H torsion
[ 10167 10162 10161 10158 ] final   60.87 input  -65.29 | X-H torsion
[ 10718 10713 10712 10709 ] final   -9.15 input   66.30 | X-H torsion
[ 10763 10752 10751 10750 ] final  -72.81 input  -60.55 | X-H torsion
[ 11005 11000 10999 10996 ] final  164.82 input  -57.11 | X-H torsion

> <Gold.Protein.ActiveResidues>
 VAL166  LYS551  ARG553  GLY616  TRP617  ASP618  TYR619  PRO620  LYS621  CYS622 
 ASP623  PHE694  ASN695  SER759  ASP760  ASP761  ALA762  ILE779  LEU786  VAL792 
 PHE793  MET794  SER795  GLU796  ALA797  LYS798  CYS799  TRP800  GLU811  SER814 

> <Gold.Protein.RotatedAtoms>
  150.9194  133.6899  159.2835 H   0  0  0  0  0  0  0  0  0  0  0  0  # atno 6907 bound_to 6896
  151.4358  135.1013  159.9665 H   0  0  0  0  0  0  0  0  0  0  0  0  # atno 6908 bound_to 6896
  152.4972  133.8614  159.7307 H   0  0  0  0  0  0  0  0  0  0  0  0  # atno 6909 bound_to 6896
  144.9175  139.5212  143.5679 H   0  0  0  0  0  0  0  0  0  0  0  0  # atno 7974 bound_to 7965
  155.9892  140.1197  157.0654 H   0  0  0  0  0  0  0  0  0  0  0  0  # atno 8008 bound_to 7997
  154.4206  140.1129  156.5610 H   0  0  0  0  0  0  0  0  0  0  0  0  # atno 8009 bound_to 7997
  155.6365  140.3473  155.4703 H   0  0  0  0  0  0  0  0  0  0  0  0  # atno 8010 bound_to 7997
  140.1609  144.4371  150.6710 H   0  0  0  0  0  0  0  0  0  0  0  0  # atno 10167 bound_to 10162
  156.6922  130.5068  149.5940 H   0  0  0  0  0  0  0  0  0  0  0  0  # atno 10718 bound_to 10713
  154.4509  135.5918  153.6191 H   0  0  0  0  0  0  0  0  0  0  0  0  # atno 10763 bound_to 10752
  152.9813  135.6020  154.3606 H   0  0  0  0  0  0  0  0  0  0  0  0  # atno 10764 bound_to 10752
  154.3467  135.2841  155.2372 H   0  0  0  0  0  0  0  0  0  0  0  0  # atno 10765 bound_to 10752
  140.2499  134.7985  157.3491 H   0  0  0  0  0  0  0  0  0  0  0  0  # atno 11005 bound_to 11000
  146.3188  139.8028  142.8962 LP  0  0  0  0  0  0  0  0  0  0  0  0  # atno 17320 bound_to 7965
  145.3352  141.0275  143.3424 LP  0  0  0  0  0  0  0  0  0  0  0  0  # atno 17321 bound_to 7965
  140.6643  143.2262  151.5780 LP  0  0  0  0  0  0  0  0  0  0  0  0  # atno 17342 bound_to 10162
  139.5381  144.2723  152.1295 LP  0  0  0  0  0  0  0  0  0  0  0  0  # atno 17343 bound_to 10162
  156.1789  130.6486  151.0928 LP  0  0  0  0  0  0  0  0  0  0  0  0  # atno 17370 bound_to 10713
  157.7004  131.0778  150.6837 LP  0  0  0  0  0  0  0  0  0  0  0  0  # atno 17371 bound_to 10713
  140.1569  134.4778  155.7922 LP  0  0  0  0  0  0  0  0  0  0  0  0  # atno 17394 bound_to 11000
  141.2202  133.6885  156.7476 LP  0  0  0  0  0  0  0  0  0  0  0  0  # atno 17395 bound_to 11000

$$$$
