AV-unprocessed.smi:2042|AV-procd|sdf|8294|dock2
  -GOLD-   2272010563D 1   1.00000     0.00000
 Structure written by MMmdl.
 30 31  0  0  0  0  0  0  0  0  1 V2000
  146.4090  133.1699  153.8183 O   0  0  0  0  0  0  0  0  0  0  0  0
  147.2656  132.6991  153.0738 C   0  0  0  0  0  0  0  0  0  0  0  0
  147.0656  132.3697  151.7824 N   0  0  0  0  0  0  0  0  0  0  0  0
  145.8668  132.4260  151.0205 C   0  0  0  0  0  0  0  0  0  0  0  0
  144.5778  132.6395  151.5671 C   0  0  0  0  0  0  0  0  0  0  0  0
  143.4662  132.6530  150.7024 C   0  0  0  0  0  0  0  0  0  0  0  0
  143.6813  132.4469  149.3261 C   0  0  0  0  0  0  0  0  0  0  0  0
  144.9019  132.2309  148.7929 N   0  0  0  0  0  0  0  0  0  0  0  0
  145.9627  132.2184  149.6281 C   0  0  0  0  0  0  0  0  0  0  0  0
  148.5242  132.5007  153.5056 N   0  0  0  0  0  0  0  0  0  0  0  0
  149.0783  132.7503  154.8373 C   0  0  2  0  0  0  0  0  0  0  0  0
  149.9755  134.0022  154.8348 C   0  0  0  0  0  0  0  0  0  0  0  0
  150.8026  134.0176  156.1263 C   0  0  0  0  0  0  0  0  0  0  0  0
  151.0764  132.2614  156.5751 S   0  0  0  0  0  0  0  0  0  0  0  0
  152.4513  131.8712  156.2279 O   0  0  0  0  0  0  0  0  0  0  0  0
  150.5397  132.0254  157.9239 O   0  0  0  0  0  0  0  0  0  0  0  0
  149.9249  131.5660  155.3315 C   0  0  0  0  0  0  0  0  0  0  0  0
  147.8856  132.0760  151.2721 H   0  0  0  0  0  0  0  0  0  0  0  0
  144.4144  132.7782  152.6242 H   0  0  0  0  0  0  0  0  0  0  0  0
  142.4699  132.8130  151.0872 H   0  0  0  0  0  0  0  0  0  0  0  0
  142.8501  132.4501  148.6364 H   0  0  0  0  0  0  0  0  0  0  0  0
  146.9229  132.0385  149.1666 H   0  0  0  0  0  0  0  0  0  0  0  0
  149.1804  132.1586  152.8183 H   0  0  0  0  0  0  0  0  0  0  0  0
  148.2733  132.9316  155.5520 H   0  0  0  0  0  0  0  0  0  0  0  0
  150.6584  133.9539  153.9852 H   0  0  0  0  0  0  0  0  0  0  0  0
  149.3939  134.9179  154.7225 H   0  0  0  0  0  0  0  0  0  0  0  0
  151.7567  134.5330  156.0150 H   0  0  0  0  0  0  0  0  0  0  0  0
  150.2451  134.4879  156.9365 H   0  0  0  0  0  0  0  0  0  0  0  0
  149.3310  130.7675  155.7764 H   0  0  0  0  0  0  0  0  0  0  0  0
  150.5245  131.1446  154.5236 H   0  0  0  0  0  0  0  0  0  0  0  0
  1  2  2  0  0  0  0
  2  3  1  0  0  0  0
  2 10  1  0  0  0  0
  3  4  1  0  0  0  0
  3 18  1  0  0  0  0
  4  9  1  0  0  0  0
  4  5  2  0  0  0  0
  5  6  1  0  0  0  0
  5 19  1  0  0  0  0
  6  7  2  0  0  0  0
  6 20  1  0  0  0  0
  7  8  1  0  0  0  0
  7 21  1  0  0  0  0
  8  9  2  0  0  0  0
  9 22  1  0  0  0  0
 10 11  1  0  0  0  0
 10 23  1  0  0  0  0
 11 17  1  0  0  0  0
 11 12  1  0  0  0  0
 11 24  1  0  0  0  0
 12 13  1  0  0  0  0
 12 25  1  0  0  0  0
 12 26  1  0  0  0  0
 13 14  1  0  0  0  0
 13 27  1  0  0  0  0
 13 28  1  0  0  0  0
 14 15  2  0  0  0  0
 14 16  2  0  0  0  0
 14 17  1  0  0  0  0
 17 29  1  0  0  0  0
 17 30  1  0  0  0  0
M  END
> <s_m_source_file>
AV-unprocessed.smi

> <i_m_source_file_index>
2042

> <i_lp_mmshare_version>
43012

> <i_f3d_flags>
0

> <s_epik_input>
Tz1TMSg9TylbQ0gyXVtDSDJdW0NASF0oW0NIMl0xKVtOSF1DKD1PKVtOSF1jMltjSF1bY0hdW2NIXW5bY0hdMg==

> <s_epik_cmdline>
J2VwaWtfcHl0aG9uJywgJy1waCcsICc3LjAnLCAnLXRuJywgJzgnLCAnLW1hJywgJzIwMCcsICctbWV0YWxfYmluZGluZycsICctaW1hZScsICc8aW5maWxlLm1hZT4nLCAnLW9tYWUnLCAnPG91dGZpbGUubWFlPic=

> <r_epik_Ionization_Penalty>
0.00421056

> <r_epik_Ionization_Penalty_Charging>
0

> <r_epik_Ionization_Penalty_Neutral>
0.00421056

> <r_epik_State_Penalty>
0.00300625

> <r_epik_Charging_Adjusted_Penalty>
0.00300625

> <i_epik_Tot_Q>
0

> <i_epik_Tot_abs_Q>
0

> <r_epik_Metal_State_Penalty>
-0

> <b_epik_Metal_Only>
0

> <s_lp_Force_Field>
OPLS_2005

> <r_lp_Energy>
18.6302

> <b_lp_Chiralities_Consistent>
1

> <s_lp_Variant>
AV-unprocessed.smi:2042-1

> <Gold.Version>
5.8.1

> <Gold.Id.Protein>
6NUR|6NUR_protein|mol2

> <Gold.PLP.Fitness>
39.8985

> <Gold.PLP.PLP>
-30.8082

> <Gold.PLP.part.hbond>
-3.0152

> <Gold.PLP.part.metal>
0.0000

> <Gold.PLP.part.buried>
-4.6562

> <Gold.PLP.part.nonpolar>
-24.1458

> <Gold.PLP.part.repulsive>
0.3030

> <Gold.PLP.ligand.clash>
0.0000

> <Gold.PLP.ligand.torsion>
0.1872

> <Gold.PLP.Chemscore.Hbond>
2.0000

> <Gold.PLP.Chemscore.CHOScore>
1.1547

> <Gold.PLP.Chemscore.Metal>
0.0000

> <Gold.Chemscore.Hbonds>
donor molecule, donor type, donor heavy atom, donor atom, acceptor molecule, acceptor atom, score
      L1  H     3    18       P1 10747  1.00
      P1  H  6896  6908       L1    16  1.00
      L1  C     7    21       P1 10186  0.13
      L1  C     9    22       P1 10747  0.81

> <Gold.PLP.Chemscore.Internal.Correction>
0.0005

> <Gold.Rescore>
     Score         DG    S(hbond)    S(metal)    S(lipo)     H(rot)  DE(clash)    DE(int)     intcor
     15.98     -17.36       1.96        0.00      67.42       1.00       0.05       1.34       ----

> <Gold.Chemscore.Fitness>
15.9768

> <Gold.Chemscore.DG>
-17.3593

> <Gold.Chemscore.ZeroCoef>
-5.4800

> <Gold.Chemscore.Hbond>
1.9615

> <Gold.Chemscore.Metal>
0.0000

> <Gold.Chemscore.Lipo>
67.4179

> <Gold.Chemscore.Internal_Hbond>
0.0000

> <Gold.Chemscore.DEClash>
0.0455

> <Gold.Chemscore.DEInternal>
1.3370

> <Gold.Chemscore.Rot>
1.0000

> <Gold.Chemscore.Internal.Correction>
   9.000000E+99

> <Gold.Chemscore.Hbonds>
donor molecule, donor type, donor heavy atom, donor atom, acceptor molecule, acceptor atom, score
      L1  H     3    18       P1 10747  0.98
      P1  H  6896  6908       L1    16  0.69

> <Gold.Chemscore.Hbond.Weighted>
-6.5514

> <Gold.Chemscore.Metal.Weighted>
-0.0000

> <Gold.Chemscore.Lipo.Weighted>
-7.8879

> <Gold.Chemscore.Internal_Hbond.Weighted>
0.0000

> <Gold.Chemscore.DEClash.Weighted>
0.0455

> <Gold.Chemscore.DEInternal.Weighted>
1.3370

> <Gold.Chemscore.Rot.Weighted>
2.5600

> <Gold.Chemscore.Internal.Correction.Weighted>
   9.000000E+99

> <Gold.Protein.RotatedTorsions>
[ 6907 6896 6895 6894 ] final   75.34 input  -60.11 | X-H torsion
[ 7974 7965 7964 7962 ] final -103.13 input  175.53 | X-H torsion
[ 8008 7997 7996 7995 ] final  107.00 input   59.86 | X-H torsion
[ 10167 10162 10161 10158 ] final -103.84 input  -65.29 | X-H torsion
[ 10718 10713 10712 10709 ] final  157.50 input   66.30 | X-H torsion
[ 10763 10752 10751 10750 ] final  133.32 input  -60.55 | X-H torsion
[ 11005 11000 10999 10996 ] final  128.08 input  -57.11 | X-H torsion

> <Gold.Protein.ActiveResidues>
 VAL166  LYS551  ARG553  GLY616  TRP617  ASP618  TYR619  PRO620  LYS621  CYS622 
 ASP623  PHE694  ASN695  SER759  ASP760  ASP761  ALA762  ILE779  LEU786  VAL792 
 PHE793  MET794  SER795  GLU796  ALA797  LYS798  CYS799  TRP800  GLU811  SER814 

> <Gold.Protein.RotatedAtoms>
  152.5021  134.4135  159.9456 H   0  0  0  0  0  0  0  0  0  0  0  0  # atno 6907 bound_to 6896
  151.4105  133.3723  159.2751 H   0  0  0  0  0  0  0  0  0  0  0  0  # atno 6908 bound_to 6896
  150.9295  134.8733  159.7601 H   0  0  0  0  0  0  0  0  0  0  0  0  # atno 6909 bound_to 6896
  145.2599  140.9266  143.3047 H   0  0  0  0  0  0  0  0  0  0  0  0  # atno 7974 bound_to 7965
  156.1788  140.3103  155.9110 H   0  0  0  0  0  0  0  0  0  0  0  0  # atno 8008 bound_to 7997
  155.3428  140.0467  157.3062 H   0  0  0  0  0  0  0  0  0  0  0  0  # atno 8009 bound_to 7997
  154.5320  140.2233  155.8798 H   0  0  0  0  0  0  0  0  0  0  0  0  # atno 8010 bound_to 7997
  140.2157  143.3713  152.1013 H   0  0  0  0  0  0  0  0  0  0  0  0  # atno 10167 bound_to 10162
  157.1907  131.0654  151.2081 H   0  0  0  0  0  0  0  0  0  0  0  0  # atno 10718 bound_to 10713
  153.8051  135.3136  155.3394 H   0  0  0  0  0  0  0  0  0  0  0  0  # atno 10763 bound_to 10752
  154.8073  135.4689  154.0429 H   0  0  0  0  0  0  0  0  0  0  0  0  # atno 10764 bound_to 10752
  153.1789  135.6890  153.8592 H   0  0  0  0  0  0  0  0  0  0  0  0  # atno 10765 bound_to 10752
  139.9541  134.9616  156.8949 H   0  0  0  0  0  0  0  0  0  0  0  0  # atno 11005 bound_to 11000
  144.9428  139.4170  143.6441 LP  0  0  0  0  0  0  0  0  0  0  0  0  # atno 17320 bound_to 7965
  146.3278  139.8396  142.8893 LP  0  0  0  0  0  0  0  0  0  0  0  0  # atno 17321 bound_to 7965
  139.5163  144.6975  151.5588 LP  0  0  0  0  0  0  0  0  0  0  0  0  # atno 17342 bound_to 10162
  140.6291  143.9110  150.6590 LP  0  0  0  0  0  0  0  0  0  0  0  0  # atno 17343 bound_to 10162
  157.3864  130.7258  149.6666 LP  0  0  0  0  0  0  0  0  0  0  0  0  # atno 17370 bound_to 10713
  155.9712  130.4158  150.4201 LP  0  0  0  0  0  0  0  0  0  0  0  0  # atno 17371 bound_to 10713
  140.5650  134.0499  155.7411 LP  0  0  0  0  0  0  0  0  0  0  0  0  # atno 17394 bound_to 11000
  141.1210  133.9462  157.2730 LP  0  0  0  0  0  0  0  0  0  0  0  0  # atno 17395 bound_to 11000

$$$$
