AV-unprocessed.smi:2822|AV-procd|sdf|10881|dock1
  -GOLD-   2272015323D 1   1.00000     0.00000
 Structure written by MMmdl.
 39 41  0  0  0  0  0  0  0  0  1 V2000
  146.6015  142.0375  154.3295 Cl  0  0  0  0  0  0  0  0  0  0  0  0
  147.5174  140.5705  154.3233 C   0  0  0  0  0  0  0  0  0  0  0  0
  147.1796  139.5401  153.4222 C   0  0  0  0  0  0  0  0  0  0  0  0
  147.8423  138.3664  153.3512 N   0  0  0  0  0  0  0  0  0  0  0  0
  148.8804  138.1800  154.1926 C   0  0  0  0  0  0  0  0  0  0  0  0
  149.3006  139.1426  155.1320 C   0  0  0  0  0  0  0  0  0  0  0  0
  148.6064  140.3734  155.2037 C   0  0  0  0  0  0  0  0  0  0  0  0
  148.9579  141.3868  156.1083 N   0  0  0  0  0  0  0  0  0  0  0  0
  149.8564  141.1187  157.2206 C   0  0  0  0  0  0  0  0  0  0  0  0
  151.2618  141.6929  156.9597 C   0  0  1  0  0  0  0  0  0  0  0  0
  151.4550  143.1011  157.5543 C   0  0  0  0  0  0  0  0  0  0  0  0
  151.5489  143.0928  159.0094 N   0  0  0  0  0  0  0  0  0  0  0  0
  151.7567  144.4438  159.5295 C   0  0  0  0  0  0  0  0  0  0  0  0
  151.8315  144.4801  161.0640 C   0  0  0  0  0  0  0  0  0  0  0  0
  152.9367  143.5404  161.5658 C   0  0  0  0  0  0  0  0  0  0  0  0
  152.7402  142.1354  160.9764 C   0  0  0  0  0  0  0  0  0  0  0  0
  152.6221  142.1917  159.4389 C   0  0  1  0  0  0  0  0  0  0  0  0
  152.4195  140.7761  158.8633 C   0  0  0  0  0  0  0  0  0  0  0  0
  152.2917  140.8290  157.4446 O   0  0  0  0  0  0  0  0  0  0  0  0
  146.3531  139.6616  152.7376 H   0  0  0  0  0  0  0  0  0  0  0  0
  149.3939  137.2330  154.1157 H   0  0  0  0  0  0  0  0  0  0  0  0
  150.1390  138.9214  155.7752 H   0  0  0  0  0  0  0  0  0  0  0  0
  148.7700  142.3493  155.8652 H   0  0  0  0  0  0  0  0  0  0  0  0
  149.4398  141.5820  158.1155 H   0  0  0  0  0  0  0  0  0  0  0  0
  149.9028  140.0471  157.4138 H   0  0  0  0  0  0  0  0  0  0  0  0
  151.3937  141.7697  155.8797 H   0  0  0  0  0  0  0  0  0  0  0  0
  152.3653  143.5344  157.1367 H   0  0  0  0  0  0  0  0  0  0  0  0
  150.6357  143.7478  157.2379 H   0  0  0  0  0  0  0  0  0  0  0  0
  152.6739  144.8638  159.1133 H   0  0  0  0  0  0  0  0  0  0  0  0
  150.9442  145.0918  159.1989 H   0  0  0  0  0  0  0  0  0  0  0  0
  152.0189  145.4977  161.4075 H   0  0  0  0  0  0  0  0  0  0  0  0
  150.8714  144.1794  161.4852 H   0  0  0  0  0  0  0  0  0  0  0  0
  153.9115  143.9288  161.2682 H   0  0  0  0  0  0  0  0  0  0  0  0
  152.9345  143.4991  162.6553 H   0  0  0  0  0  0  0  0  0  0  0  0
  153.5722  141.4937  161.2683 H   0  0  0  0  0  0  0  0  0  0  0  0
  151.8397  141.6876  161.3993 H   0  0  0  0  0  0  0  0  0  0  0  0
  153.5676  142.5711  159.0472 H   0  0  0  0  0  0  0  0  0  0  0  0
  153.2740  140.1446  159.1073 H   0  0  0  0  0  0  0  0  0  0  0  0
  151.5449  140.2954  159.3025 H   0  0  0  0  0  0  0  0  0  0  0  0
  1  2  1  0  0  0  0
  2  7  1  0  0  0  0
  2  3  2  0  0  0  0
  3  4  1  0  0  0  0
  3 20  1  0  0  0  0
  4  5  2  0  0  0  0
  5  6  1  0  0  0  0
  5 21  1  0  0  0  0
  6  7  2  0  0  0  0
  6 22  1  0  0  0  0
  7  8  1  0  0  0  0
  8  9  1  0  0  0  0
  8 23  1  0  0  0  0
  9 10  1  0  0  0  0
  9 24  1  0  0  0  0
  9 25  1  0  0  0  0
 10 19  1  0  0  0  0
 10 11  1  0  0  0  0
 10 26  1  0  0  0  0
 11 12  1  0  0  0  0
 11 27  1  0  0  0  0
 11 28  1  0  0  0  0
 12 17  1  0  0  0  0
 12 13  1  0  0  0  0
 13 14  1  0  0  0  0
 13 29  1  0  0  0  0
 13 30  1  0  0  0  0
 14 15  1  0  0  0  0
 14 31  1  0  0  0  0
 14 32  1  0  0  0  0
 15 16  1  0  0  0  0
 15 33  1  0  0  0  0
 15 34  1  0  0  0  0
 16 17  1  0  0  0  0
 16 35  1  0  0  0  0
 16 36  1  0  0  0  0
 17 18  1  0  0  0  0
 17 37  1  0  0  0  0
 18 19  1  0  0  0  0
 18 38  1  0  0  0  0
 18 39  1  0  0  0  0
M  END
> <s_m_source_file>
AV-unprocessed.smi

> <i_m_source_file_index>
2822

> <i_lp_mmshare_version>
43012

> <i_f3d_flags>
0

> <s_epik_input>
Q2xjMVtjSF1uW2NIXVtjSF1jMVtOSF1bQ0gyXVtDQEhdKFtDSDJdMilPW0NIMl1bQ0BASF0oTjIzKVtDSDJdW0NIMl1bQ0gyXVtDSDJdMw==

> <s_epik_cmdline>
J2VwaWtfcHl0aG9uJywgJy1waCcsICc3LjAnLCAnLXRuJywgJzgnLCAnLW1hJywgJzIwMCcsICctbWV0YWxfYmluZGluZycsICctaW1hZScsICc8aW5maWxlLm1hZT4nLCAnLW9tYWUnLCAnPG91dGZpbGUubWFlPic=

> <r_lp_tautomer_probability>
0.999999

> <r_epik_Ionization_Penalty>
2.10064

> <r_epik_Ionization_Penalty_Charging>
0

> <r_epik_Ionization_Penalty_Neutral>
2.10064

> <r_epik_State_Penalty>
2.1757

> <r_epik_Charging_Adjusted_Penalty>
2.1757

> <i_epik_Tot_Q>
0

> <i_epik_Tot_abs_Q>
0

> <r_epik_Metal_State_Penalty>
1.25425

> <b_epik_Metal_Only>
0

> <s_lp_Force_Field>
OPLS_2005

> <r_lp_Energy>
40.854

> <b_lp_Chiralities_Consistent>
1

> <s_lp_Variant>
AV-unprocessed.smi:2822-22

> <Gold.Version>
5.8.1

> <Gold.Id.Protein>
6NUR|6NUR_protein|mol2

> <Gold.PLP.Fitness>
47.0728

> <Gold.PLP.PLP>
-39.3320

> <Gold.PLP.part.hbond>
-1.0000

> <Gold.PLP.part.metal>
0.0000

> <Gold.PLP.part.buried>
-4.3876

> <Gold.PLP.part.nonpolar>
-35.7291

> <Gold.PLP.part.repulsive>
1.1317

> <Gold.PLP.ligand.clash>
0.0000

> <Gold.PLP.ligand.torsion>
0.6342

> <Gold.PLP.Chemscore.Hbond>
1.0000

> <Gold.PLP.Chemscore.CHOScore>
2.0000

> <Gold.PLP.Chemscore.Metal>
0.0000

> <Gold.Chemscore.Hbonds>
donor molecule, donor type, donor heavy atom, donor atom, acceptor molecule, acceptor atom, score
      L1  H     8    23       P1  8028  0.13
      P1  H  7997  8009       L1    19  0.15
      L1  C     3    20       P1 10175  0.33
      L1  C     5    21       P1  7948  0.60

> <Gold.PLP.Chemscore.Internal.Correction>
0.0092

> <Gold.Rescore>
     Score         DG    S(hbond)    S(metal)    S(lipo)     H(rot)  DE(clash)    DE(int)     intcor
     19.35     -20.09       1.00        0.00     121.47       1.15       0.17       0.57       ----

> <Gold.Chemscore.Fitness>
19.3471

> <Gold.Chemscore.DG>
-20.0851

> <Gold.Chemscore.ZeroCoef>
-5.4800

> <Gold.Chemscore.Hbond>
1.0007

> <Gold.Chemscore.Metal>
0.0000

> <Gold.Chemscore.Lipo>
121.4673

> <Gold.Chemscore.Internal_Hbond>
0.0000

> <Gold.Chemscore.DEClash>
0.1689

> <Gold.Chemscore.DEInternal>
0.5691

> <Gold.Chemscore.Rot>
1.1519

> <Gold.Chemscore.Internal.Correction>
   9.000000E+99

> <Gold.Chemscore.Hbonds>
donor molecule, donor type, donor heavy atom, donor atom, acceptor molecule, acceptor atom, score
      L1  H     8    23       P1  8028  0.16
      P1  H  7997  8009       L1    19  0.09

> <Gold.Chemscore.Hbond.Weighted>
-3.3422

> <Gold.Chemscore.Metal.Weighted>
-0.0000

> <Gold.Chemscore.Lipo.Weighted>
-14.2117

> <Gold.Chemscore.Internal_Hbond.Weighted>
0.0000

> <Gold.Chemscore.DEClash.Weighted>
0.1689

> <Gold.Chemscore.DEInternal.Weighted>
0.5691

> <Gold.Chemscore.Rot.Weighted>
2.9487

> <Gold.Chemscore.Internal.Correction.Weighted>
   9.000000E+99

> <Gold.Protein.RotatedTorsions>
[ 6907 6896 6895 6894 ] final  -51.36 input  -60.11 | X-H torsion
[ 7974 7965 7964 7962 ] final   58.10 input  175.53 | X-H torsion
[ 8008 7997 7996 7995 ] final -173.91 input   59.86 | X-H torsion
[ 10167 10162 10161 10158 ] final -146.94 input  -65.29 | X-H torsion
[ 10718 10713 10712 10709 ] final  -70.79 input   66.30 | X-H torsion
[ 10763 10752 10751 10750 ] final  -30.43 input  -60.55 | X-H torsion
[ 11005 11000 10999 10996 ] final -101.69 input  -57.11 | X-H torsion

> <Gold.Protein.ActiveResidues>
 VAL166  LYS551  ARG553  GLY616  TRP617  ASP618  TYR619  PRO620  LYS621  CYS622 
 ASP623  PHE694  ASN695  SER759  ASP760  ASP761  ALA762  ILE779  LEU786  VAL792 
 PHE793  MET794  SER795  GLU796  ALA797  LYS798  CYS799  TRP800  GLU811  SER814 

> <Gold.Protein.RotatedAtoms>
  150.8619  134.7973  159.7088 H   0  0  0  0  0  0  0  0  0  0  0  0  # atno 6907 bound_to 6896
  152.4653  134.5086  159.9757 H   0  0  0  0  0  0  0  0  0  0  0  0  # atno 6908 bound_to 6896
  151.5189  133.3432  159.2933 H   0  0  0  0  0  0  0  0  0  0  0  0  # atno 6909 bound_to 6896
  145.9219  139.3736  143.0473 H   0  0  0  0  0  0  0  0  0  0  0  0  # atno 7974 bound_to 7965
  155.9634  140.1149  157.0875 H   0  0  0  0  0  0  0  0  0  0  0  0  # atno 8008 bound_to 7997
  154.4138  140.1177  156.5277 H   0  0  0  0  0  0  0  0  0  0  0  0  # atno 8009 bound_to 7997
  155.6690  140.3473  155.4813 H   0  0  0  0  0  0  0  0  0  0  0  0  # atno 8010 bound_to 7997
  139.7668  143.8297  152.2617 H   0  0  0  0  0  0  0  0  0  0  0  0  # atno 10167 bound_to 10162
  156.0392  130.4338  150.2347 H   0  0  0  0  0  0  0  0  0  0  0  0  # atno 10718 bound_to 10713
  153.7809  135.6905  153.4889 H   0  0  0  0  0  0  0  0  0  0  0  0  # atno 10763 bound_to 10752
  153.1812  135.4505  155.0029 H   0  0  0  0  0  0  0  0  0  0  0  0  # atno 10764 bound_to 10752
  154.8082  135.3366  154.7312 H   0  0  0  0  0  0  0  0  0  0  0  0  # atno 10765 bound_to 10752
  141.1220  133.8498  157.1264 H   0  0  0  0  0  0  0  0  0  0  0  0  # atno 11005 bound_to 11000
  145.8539  140.9513  143.0735 LP  0  0  0  0  0  0  0  0  0  0  0  0  # atno 17320 bound_to 7965
  144.6754  140.0443  143.7480 LP  0  0  0  0  0  0  0  0  0  0  0  0  # atno 17321 bound_to 7965
  139.8319  144.7250  150.9440 LP  0  0  0  0  0  0  0  0  0  0  0  0  # atno 17342 bound_to 10162
  140.7811  143.4062  151.1067 LP  0  0  0  0  0  0  0  0  0  0  0  0  # atno 17343 bound_to 10162
  157.0444  131.0044  151.3273 LP  0  0  0  0  0  0  0  0  0  0  0  0  # atno 17370 bound_to 10713
  157.5186  130.7984  149.7784 LP  0  0  0  0  0  0  0  0  0  0  0  0  # atno 17371 bound_to 10713
  140.0186  134.9956  157.0545 LP  0  0  0  0  0  0  0  0  0  0  0  0  # atno 17394 bound_to 11000
  140.4478  134.1614  155.7179 LP  0  0  0  0  0  0  0  0  0  0  0  0  # atno 17395 bound_to 11000

$$$$
