AV-unprocessed.smi:3167|AV-procd|sdf|12098|dock3
  -GOLD-   2272017533D 1   1.00000     0.00000
 Structure written by MMmdl.
 37 38  0  0  0  0  0  0  0  0  2 V2000
  144.8795  137.4736  153.8691 C   0  0  0  0  0  0  0  0  0  0  0  0
  146.1101  138.2080  153.2899 C   0  0  1  0  0  0  0  0  0  0  0  0
  146.2448  137.9389  151.7716 C   0  0  0  0  0  0  0  0  0  0  0  0
  146.4074  136.5194  151.4796 N   0  0  0  0  0  0  0  0  0  0  0  0
  145.3908  135.6643  151.3083 C   0  0  0  0  0  0  0  0  0  0  0  0
  144.2076  135.9970  151.3775 O   0  0  0  0  0  0  0  0  0  0  0  0
  145.8328  134.4212  151.0566 N   0  0  0  0  0  0  0  0  0  0  0  0
  145.0518  133.2613  150.8222 C   0  0  0  0  0  0  0  0  0  0  0  0
  145.5769  131.9492  150.6698 C   0  0  0  0  0  0  0  0  0  0  0  0
  144.6133  131.0636  150.4611 N   0  0  0  0  0  0  0  0  0  0  0  0
  143.4780  131.7977  150.4779 N   0  0  0  0  0  0  0  0  0  0  0  0
  143.6964  133.1405  150.6942 C   0  0  0  0  0  0  0  0  0  0  0  0
  146.0424  139.6737  153.5611 N   0  3  0  0  0  0  0  0  0  0  0  0
  146.0404  140.0648  154.9881 C   0  0  0  0  0  0  0  0  0  0  0  0
  146.4683  141.5274  154.9994 C   0  0  0  0  0  0  0  0  0  0  0  0
  147.5099  141.5877  153.8888 C   0  0  0  0  0  0  0  0  0  0  0  0
  147.0937  140.4897  152.9003 C   0  0  0  0  0  0  0  0  0  0  0  0
  142.5720  131.3729  150.3408 H   0  0  0  0  0  0  0  0  0  0  0  0
  144.9161  136.4028  153.6693 H   0  0  0  0  0  0  0  0  0  0  0  0
  143.9531  137.8559  153.4396 H   0  0  0  0  0  0  0  0  0  0  0  0
  144.8133  137.5761  154.9520 H   0  0  0  0  0  0  0  0  0  0  0  0
  146.9987  137.8189  153.7901 H   0  0  0  0  0  0  0  0  0  0  0  0
  145.3636  138.3138  151.2482 H   0  0  0  0  0  0  0  0  0  0  0  0
  147.1052  138.4629  151.3540 H   0  0  0  0  0  0  0  0  0  0  0  0
  147.3505  136.1661  151.4069 H   0  0  0  0  0  0  0  0  0  0  0  0
  146.8332  134.2886  151.0304 H   0  0  0  0  0  0  0  0  0  0  0  0
  146.6038  131.6167  150.7030 H   0  0  0  0  0  0  0  0  0  0  0  0
  142.8906  133.8580  150.7345 H   0  0  0  0  0  0  0  0  0  0  0  0
  145.0627  139.9237  155.4499 H   0  0  0  0  0  0  0  0  0  0  0  0
  146.7686  139.4648  155.5364 H   0  0  0  0  0  0  0  0  0  0  0  0
  145.6195  142.1650  154.7481 H   0  0  0  0  0  0  0  0  0  0  0  0
  146.8582  141.8490  155.9656 H   0  0  0  0  0  0  0  0  0  0  0  0
  147.5662  142.5724  153.4240 H   0  0  0  0  0  0  0  0  0  0  0  0
  148.4949  141.3585  154.2976 H   0  0  0  0  0  0  0  0  0  0  0  0
  147.9650  139.8897  152.6339 H   0  0  0  0  0  0  0  0  0  0  0  0
  146.6900  140.9161  151.9814 H   0  0  0  0  0  0  0  0  0  0  0  0
  145.1628  140.0019  153.1883 H   0  0  0  0  0  0  0  0  0  0  0  0
  1  2  1  0  0  0  0
  1 19  1  0  0  0  0
  1 20  1  0  0  0  0
  1 21  1  0  0  0  0
  2  3  1  0  0  0  0
  2 13  1  0  0  0  0
  2 22  1  0  0  0  0
  3  4  1  0  0  0  0
  3 23  1  0  0  0  0
  3 24  1  0  0  0  0
  4  5  1  0  0  0  0
  4 25  1  0  0  0  0
  5  6  2  0  0  0  0
  5  7  1  0  0  0  0
  7  8  1  0  0  0  0
  7 26  1  0  0  0  0
  8 12  2  0  0  0  0
  8  9  1  0  0  0  0
  9 10  2  0  0  0  0
  9 27  1  0  0  0  0
 10 11  1  0  0  0  0
 11 18  1  0  0  0  0
 11 12  1  0  0  0  0
 12 28  1  0  0  0  0
 13 17  1  0  0  0  0
 13 14  1  0  0  0  0
 13 37  1  0  0  0  0
 14 15  1  0  0  0  0
 14 29  1  0  0  0  0
 14 30  1  0  0  0  0
 15 16  1  0  0  0  0
 15 31  1  0  0  0  0
 15 32  1  0  0  0  0
 16 17  1  0  0  0  0
 16 33  1  0  0  0  0
 16 34  1  0  0  0  0
 17 35  1  0  0  0  0
 17 36  1  0  0  0  0
M  CHG  1  13   1
M  END
> <s_m_source_file>
AV-unprocessed.smi

> <i_m_source_file_index>
3167

> <i_lp_mmshare_version>
43012

> <i_f3d_flags>
0

> <s_epik_input>
W0NIMl0xW0NIMl1bQ0gyXVtDSDJdTjFbQ0BIXShbQ0gzXSlbQ0gyXVtOSF1DKD1PKVtOSF1jMltjSF1uW25IXVtjSF0y

> <s_epik_cmdline>
J2VwaWtfcHl0aG9uJywgJy1waCcsICc3LjAnLCAnLXRuJywgJzgnLCAnLW1hJywgJzIwMCcsICctbWV0YWxfYmluZGluZycsICctaW1hZScsICc8aW5maWxlLm1hZT4nLCAnLW9tYWUnLCAnPG91dGZpbGUubWFlPic=

> <r_lp_tautomer_probability>
0.5

> <r_epik_Ionization_Penalty>
0.000801258

> <r_epik_Ionization_Penalty_Charging>
0.000761583

> <r_epik_Ionization_Penalty_Neutral>
3.96747e-05

> <r_epik_State_Penalty>
0.000487427

> <r_epik_Charging_Adjusted_Penalty>
0.00124901

> <i_epik_Tot_Q>
1

> <i_epik_Tot_abs_Q>
1

> <r_epik_Metal_State_Penalty>
-0

> <b_epik_Metal_Only>
0

> <s_lp_Force_Field>
OPLS_2005

> <r_lp_Energy>
33.9812

> <b_lp_Chiralities_Consistent>
1

> <s_lp_Variant>
AV-unprocessed.smi:3167-2

> <Gold.Version>
5.8.1

> <Gold.Id.Protein>
6NUR|6NUR_protein|mol2

> <Gold.PLP.Fitness>
42.6281

> <Gold.PLP.PLP>
-26.0773

> <Gold.PLP.part.hbond>
-3.5701

> <Gold.PLP.part.metal>
0.0000

> <Gold.PLP.part.buried>
-1.7285

> <Gold.PLP.part.nonpolar>
-22.1621

> <Gold.PLP.part.repulsive>
1.2125

> <Gold.PLP.ligand.clash>
0.0000

> <Gold.PLP.ligand.torsion>
0.2438

> <Gold.PLP.Chemscore.Hbond>
3.6663

> <Gold.PLP.Chemscore.CHOScore>
2.0000

> <Gold.PLP.Chemscore.Metal>
0.0000

> <Gold.Chemscore.Hbonds>
donor molecule, donor type, donor heavy atom, donor atom, acceptor molecule, acceptor atom, score
      L1  H     4    25       P1  7948  1.00
      L1  H    11    18       P1 10952  0.65
      L1  H    13    37       P1 10175  2.00
      L1  C     9    27       P1 10747  1.00
      L1  C    12    28       P1 10186  1.00

> <Gold.PLP.Chemscore.Internal.Correction>
0.0397

> <Gold.Rescore>
     Score         DG    S(hbond)    S(metal)    S(lipo)     H(rot)  DE(clash)    DE(int)     intcor
     14.38     -17.25       2.61        0.00      61.73       1.63       0.58       2.29       ----

> <Gold.Chemscore.Fitness>
14.3825

> <Gold.Chemscore.DG>
-17.2457

> <Gold.Chemscore.ZeroCoef>
-5.4800

> <Gold.Chemscore.Hbond>
2.6106

> <Gold.Chemscore.Metal>
0.0000

> <Gold.Chemscore.Lipo>
61.7258

> <Gold.Chemscore.Internal_Hbond>
0.0000

> <Gold.Chemscore.DEClash>
0.5763

> <Gold.Chemscore.DEInternal>
2.2868

> <Gold.Chemscore.Rot>
1.6311

> <Gold.Chemscore.Internal.Correction>
   9.000000E+99

> <Gold.Chemscore.Hbonds>
donor molecule, donor type, donor heavy atom, donor atom, acceptor molecule, acceptor atom, score
      L1  H     4    25       P1  7948  0.96
      L1  H    11    18       P1 10952  0.42
      L1  H    13    37       P1 10175  1.00

> <Gold.Chemscore.Hbond.Weighted>
-8.7195

> <Gold.Chemscore.Metal.Weighted>
-0.0000

> <Gold.Chemscore.Lipo.Weighted>
-7.2219

> <Gold.Chemscore.Internal_Hbond.Weighted>
0.0000

> <Gold.Chemscore.DEClash.Weighted>
0.5763

> <Gold.Chemscore.DEInternal.Weighted>
2.2868

> <Gold.Chemscore.Rot.Weighted>
4.1757

> <Gold.Chemscore.Internal.Correction.Weighted>
   9.000000E+99

> <Gold.Protein.RotatedTorsions>
[ 6907 6896 6895 6894 ] final -138.78 input  -60.11 | X-H torsion
[ 7974 7965 7964 7962 ] final  -36.77 input  175.53 | X-H torsion
[ 8008 7997 7996 7995 ] final  178.60 input   59.86 | X-H torsion
[ 10167 10162 10161 10158 ] final  -58.10 input  -65.29 | X-H torsion
[ 10718 10713 10712 10709 ] final   73.67 input   66.30 | X-H torsion
[ 10763 10752 10751 10750 ] final   58.64 input  -60.55 | X-H torsion
[ 11005 11000 10999 10996 ] final  -99.15 input  -57.11 | X-H torsion

> <Gold.Protein.ActiveResidues>
 VAL166  LYS551  ARG553  GLY616  TRP617  ASP618  TYR619  PRO620  LYS621  CYS622 
 ASP623  PHE694  ASN695  SER759  ASP760  ASP761  ALA762  ILE779  LEU786  VAL792 
 PHE793  MET794  SER795  GLU796  ALA797  LYS798  CYS799  TRP800  GLU811  SER814 

> <Gold.Protein.RotatedAtoms>
  151.0394  133.5719  159.2652 H   0  0  0  0  0  0  0  0  0  0  0  0  # atno 6907 bound_to 6896
  151.2771  135.0702  159.9165 H   0  0  0  0  0  0  0  0  0  0  0  0  # atno 6908 bound_to 6896
  152.5361  134.0115  159.7994 H   0  0  0  0  0  0  0  0  0  0  0  0  # atno 6909 bound_to 6896
  146.0633  140.6318  142.8987 H   0  0  0  0  0  0  0  0  0  0  0  0  # atno 7974 bound_to 7965
  156.0528  140.1329  157.0030 H   0  0  0  0  0  0  0  0  0  0  0  0  # atno 8008 bound_to 7997
  154.4443  140.1007  156.6472 H   0  0  0  0  0  0  0  0  0  0  0  0  # atno 8009 bound_to 7997
  155.5497  140.3462  155.4468 H   0  0  0  0  0  0  0  0  0  0  0  0  # atno 8010 bound_to 7997
  140.6218  143.2422  151.5462 H   0  0  0  0  0  0  0  0  0  0  0  0  # atno 10167 bound_to 10162
  157.6558  130.9640  150.1103 H   0  0  0  0  0  0  0  0  0  0  0  0  # atno 10718 bound_to 10713
  152.9875  135.5599  154.5585 H   0  0  0  0  0  0  0  0  0  0  0  0  # atno 10763 bound_to 10752
  154.5008  135.2797  155.1424 H   0  0  0  0  0  0  0  0  0  0  0  0  # atno 10764 bound_to 10752
  154.2855  135.6336  153.5417 H   0  0  0  0  0  0  0  0  0  0  0  0  # atno 10765 bound_to 10752
  141.1319  133.8299  157.0933 H   0  0  0  0  0  0  0  0  0  0  0  0  # atno 11005 bound_to 11000
  144.7187  140.4300  143.7024 LP  0  0  0  0  0  0  0  0  0  0  0  0  # atno 17320 bound_to 7965
  145.6522  139.1567  143.2855 LP  0  0  0  0  0  0  0  0  0  0  0  0  # atno 17321 bound_to 7965
  139.5445  144.2558  152.1415 LP  0  0  0  0  0  0  0  0  0  0  0  0  # atno 17342 bound_to 10162
  140.1780  144.4872  150.6543 LP  0  0  0  0  0  0  0  0  0  0  0  0  # atno 17343 bound_to 10162
  156.2001  130.3660  149.8799 LP  0  0  0  0  0  0  0  0  0  0  0  0  # atno 17370 bound_to 10713
  156.6705  130.8818  151.3561 LP  0  0  0  0  0  0  0  0  0  0  0  0  # atno 17371 bound_to 10713
  140.0379  134.9869  157.0905 LP  0  0  0  0  0  0  0  0  0  0  0  0  # atno 17394 bound_to 11000
  140.4182  134.1909  155.7164 LP  0  0  0  0  0  0  0  0  0  0  0  0  # atno 17395 bound_to 11000

$$$$
