AV-unprocessed.smi:630|AV-procd|sdf|3122|dock3
  -GOLD-   22720 0 43D 1   1.00000     0.00000
 Structure written by MMmdl.
 36 37  0  0  0  0  0  0  0  0  2 V2000
  150.0384  138.2911  153.8341 N   0  0  0  0  0  0  0  0  0  0  0  0
  151.1089  137.9849  154.5719 C   0  0  0  0  0  0  0  0  0  0  0  0
  151.7365  136.9410  154.4018 O   0  0  0  0  0  0  0  0  0  0  0  0
  151.5186  138.9902  155.6646 C   0  0  1  0  0  0  0  0  0  0  0  0
  150.6332  140.2551  155.5836 C   0  0  0  0  0  0  0  0  0  0  0  0
  151.0338  141.3908  156.5421 C   0  0  0  0  0  0  0  0  0  0  0  0
  150.6020  141.1311  157.9938 C   0  0  0  0  0  0  0  0  0  0  0  0
  151.5649  140.2725  158.8344 C   0  0  0  0  0  0  0  0  0  0  0  0
  152.3390  139.1591  158.0994 C   0  0  0  0  0  0  0  0  0  0  0  0
  151.5567  138.3164  157.0648 C   0  0  1  0  0  0  0  0  0  0  0  0
  150.2249  137.9365  157.5457 N   0  0  0  0  0  0  0  0  0  0  0  0
  149.9455  137.3146  158.7001 C   0  0  0  0  0  0  0  0  0  0  0  0
  150.8595  136.9966  159.4647 O   0  0  0  0  0  0  0  0  0  0  0  0
  148.6244  137.1066  158.9009 N   0  5  0  0  0  0  0  0  0  0  0  0
  148.2026  136.5170  160.0313 C   0  0  0  0  0  0  0  0  0  0  0  0
  147.9015  137.1995  161.1417 N   0  0  0  0  0  0  0  0  0  0  0  0
  147.4879  136.3863  162.1983 C   0  0  0  0  0  0  0  0  0  0  0  0
  147.4814  135.0525  161.8877 C   0  0  0  0  0  0  0  0  0  0  0  0
  148.0013  134.7762  160.2498 S   0  0  0  0  0  0  0  0  0  0  0  0
  149.7419  137.6640  153.1006 H   0  0  0  0  0  0  0  0  0  0  0  0
  149.5370  139.1503  154.0051 H   0  0  0  0  0  0  0  0  0  0  0  0
  152.5365  139.3039  155.4259 H   0  0  0  0  0  0  0  0  0  0  0  0
  150.6871  140.6456  154.5663 H   0  0  0  0  0  0  0  0  0  0  0  0
  149.5836  140.0010  155.7397 H   0  0  0  0  0  0  0  0  0  0  0  0
  152.1013  141.6045  156.4802 H   0  0  0  0  0  0  0  0  0  0  0  0
  150.5300  142.2971  156.2039 H   0  0  0  0  0  0  0  0  0  0  0  0
  150.4762  142.0873  158.5026 H   0  0  0  0  0  0  0  0  0  0  0  0
  149.6102  140.6771  157.9984 H   0  0  0  0  0  0  0  0  0  0  0  0
  152.2965  140.9273  159.3084 H   0  0  0  0  0  0  0  0  0  0  0  0
  150.9983  139.8326  159.6561 H   0  0  0  0  0  0  0  0  0  0  0  0
  153.2154  139.5928  157.6169 H   0  0  0  0  0  0  0  0  0  0  0  0
  152.7456  138.4892  158.8581 H   0  0  0  0  0  0  0  0  0  0  0  0
  152.1264  137.3931  156.9375 H   0  0  0  0  0  0  0  0  0  0  0  0
  149.4448  138.1693  156.9487 H   0  0  0  0  0  0  0  0  0  0  0  0
  147.2164  136.8426  163.1382 H   0  0  0  0  0  0  0  0  0  0  0  0
  147.2067  134.2204  162.5176 H   0  0  0  0  0  0  0  0  0  0  0  0
  1  2  1  0  0  0  0
  1 20  1  0  0  0  0
  1 21  1  0  0  0  0
  2  3  2  0  0  0  0
  2  4  1  0  0  0  0
  4 10  1  0  0  0  0
  4  5  1  0  0  0  0
  4 22  1  0  0  0  0
  5  6  1  0  0  0  0
  5 23  1  0  0  0  0
  5 24  1  0  0  0  0
  6  7  1  0  0  0  0
  6 25  1  0  0  0  0
  6 26  1  0  0  0  0
  7  8  1  0  0  0  0
  7 27  1  0  0  0  0
  7 28  1  0  0  0  0
  8  9  1  0  0  0  0
  8 29  1  0  0  0  0
  8 30  1  0  0  0  0
  9 10  1  0  0  0  0
  9 31  1  0  0  0  0
  9 32  1  0  0  0  0
 10 11  1  0  0  0  0
 10 33  1  0  0  0  0
 11 12  1  0  0  0  0
 11 34  1  0  0  0  0
 12 13  2  0  0  0  0
 12 14  1  0  0  0  0
 14 15  1  0  0  0  0
 15 19  1  0  0  0  0
 15 16  2  0  0  0  0
 16 17  1  0  0  0  0
 17 18  2  0  0  0  0
 17 35  1  0  0  0  0
 18 19  1  0  0  0  0
 18 36  1  0  0  0  0
M  CHG  1  14  -1
M  END
> <s_m_source_file>
AV-unprocessed.smi

> <i_m_source_file_index>
630

> <i_lp_mmshare_version>
43012

> <i_f3d_flags>
0

> <s_epik_input>
W05IMl1DKD1PKVtDQEBIXTFbQ0gyXVtDSDJdW0NIMl1bQ0gyXVtDSDJdW0NASF0xW05IXUMoPU8pW05IXWMybltjSF1bY0hdczI=

> <s_epik_cmdline>
J2VwaWtfcHl0aG9uJywgJy1waCcsICc3LjAnLCAnLXRuJywgJzgnLCAnLW1hJywgJzIwMCcsICctbWV0YWxfYmluZGluZycsICctaW1hZScsICc8aW5maWxlLm1hZT4nLCAnLW9tYWUnLCAnPG91dGZpbGUubWFlPic=

> <r_lp_tautomer_probability>
0.999

> <r_epik_Ionization_Penalty>
8.29606

> <r_epik_Ionization_Penalty_Charging>
6.67551

> <r_epik_Ionization_Penalty_Neutral>
1.62055

> <r_epik_State_Penalty>
6.67568

> <r_epik_Charging_Adjusted_Penalty>
13.3512

> <i_epik_Tot_Q>
-1

> <i_epik_Tot_abs_Q>
1

> <r_epik_Metal_State_Penalty>
2.59802

> <b_epik_Metal_Only>
1

> <s_lp_Force_Field>
OPLS_2005

> <r_lp_Energy>
11.1014

> <b_lp_Chiralities_Consistent>
1

> <s_lp_Variant>
AV-unprocessed.smi:630-6

> <Gold.Version>
5.8.1

> <Gold.Id.Protein>
6NUR|6NUR_protein|mol2

> <Gold.PLP.Fitness>
45.5943

> <Gold.PLP.PLP>
-34.7659

> <Gold.PLP.part.hbond>
-5.4226

> <Gold.PLP.part.metal>
0.0000

> <Gold.PLP.part.buried>
-5.8364

> <Gold.PLP.part.nonpolar>
-24.6013

> <Gold.PLP.part.repulsive>
0.3423

> <Gold.PLP.ligand.clash>
1.9226

> <Gold.PLP.ligand.torsion>
0.8073

> <Gold.PLP.Chemscore.Hbond>
4.7440

> <Gold.PLP.Chemscore.CHOScore>
0.0000

> <Gold.PLP.Chemscore.Metal>
0.0000

> <Gold.Chemscore.Hbonds>
donor molecule, donor type, donor heavy atom, donor atom, acceptor molecule, acceptor atom, score
      L1  H     1    20       P1  7948  1.00
      P1  H  6896  6907       L1    13  1.00
      P1  H  6931  6943       L1    16  0.98
      P1  H  6934  6947       L1    16  0.75
      P1  H 10752 10765       L1     3  1.00

> <Gold.PLP.Chemscore.Internal.Correction>
0.1336

> <Gold.Rescore>
     Score         DG    S(hbond)    S(metal)    S(lipo)     H(rot)  DE(clash)    DE(int)     intcor
     20.68     -22.70       4.13        0.00      62.09       1.50       0.16       1.86       ----

> <Gold.Chemscore.Fitness>
20.6786

> <Gold.Chemscore.DG>
-22.7030

> <Gold.Chemscore.ZeroCoef>
-5.4800

> <Gold.Chemscore.Hbond>
4.1347

> <Gold.Chemscore.Metal>
0.0000

> <Gold.Chemscore.Lipo>
62.0870

> <Gold.Chemscore.Internal_Hbond>
0.0000

> <Gold.Chemscore.DEClash>
0.1644

> <Gold.Chemscore.DEInternal>
1.8600

> <Gold.Chemscore.Rot>
1.5044

> <Gold.Chemscore.Internal.Correction>
   9.000000E+99

> <Gold.Chemscore.Hbonds>
donor molecule, donor type, donor heavy atom, donor atom, acceptor molecule, acceptor atom, score
      L1  H     1    20       P1  7948  0.58
      P1  H  6896  6907       L1    13  0.98
      P1  H  6931  6943       L1    16  0.37
      P1  H  6934  6947       L1    16  0.70
      P1  H 10752 10765       L1     3  0.99

> <Gold.Chemscore.Hbond.Weighted>
-13.8100

> <Gold.Chemscore.Metal.Weighted>
-0.0000

> <Gold.Chemscore.Lipo.Weighted>
-7.2642

> <Gold.Chemscore.Internal_Hbond.Weighted>
0.0000

> <Gold.Chemscore.DEClash.Weighted>
0.1644

> <Gold.Chemscore.DEInternal.Weighted>
1.8600

> <Gold.Chemscore.Rot.Weighted>
3.8512

> <Gold.Chemscore.Internal.Correction.Weighted>
   9.000000E+99

> <Gold.Protein.RotatedTorsions>
[ 6907 6896 6895 6894 ] final  -15.62 input  -60.11 | X-H torsion
[ 7974 7965 7964 7962 ] final -120.88 input  175.53 | X-H torsion
[ 8008 7997 7996 7995 ] final  163.64 input   59.86 | X-H torsion
[ 10167 10162 10161 10158 ] final -103.77 input  -65.29 | X-H torsion
[ 10718 10713 10712 10709 ] final -118.65 input   66.30 | X-H torsion
[ 10763 10752 10751 10750 ] final  159.86 input  -60.55 | X-H torsion
[ 11005 11000 10999 10996 ] final   70.65 input  -57.11 | X-H torsion

> <Gold.Protein.ActiveResidues>
 VAL166  LYS551  ARG553  GLY616  TRP617  ASP618  TYR619  PRO620  LYS621  CYS622 
 ASP623  PHE694  ASN695  SER759  ASP760  ASP761  ALA762  ILE779  LEU786  VAL792 
 PHE793  MET794  SER795  GLU796  ALA797  LYS798  CYS799  TRP800  GLU811  SER814 

> <Gold.Protein.RotatedAtoms>
  151.3212  135.0819  159.9306 H   0  0  0  0  0  0  0  0  0  0  0  0  # atno 6907 bound_to 6896
  152.5256  133.9637  159.7739 H   0  0  0  0  0  0  0  0  0  0  0  0  # atno 6908 bound_to 6896
  150.9958  133.6052  159.2732 H   0  0  0  0  0  0  0  0  0  0  0  0  # atno 6909 bound_to 6896
  145.0465  140.8185  143.4235 H   0  0  0  0  0  0  0  0  0  0  0  0  # atno 7974 bound_to 7965
  156.1941  140.1718  156.8033 H   0  0  0  0  0  0  0  0  0  0  0  0  # atno 8008 bound_to 7997
  154.5508  140.0718  156.8695 H   0  0  0  0  0  0  0  0  0  0  0  0  # atno 8009 bound_to 7997
  155.3033  140.3363  155.4249 H   0  0  0  0  0  0  0  0  0  0  0  0  # atno 8010 bound_to 7997
  140.2165  143.3708  152.1006 H   0  0  0  0  0  0  0  0  0  0  0  0  # atno 10167 bound_to 10162
  156.1122  130.6258  150.9318 H   0  0  0  0  0  0  0  0  0  0  0  0  # atno 10718 bound_to 10713
  154.2383  135.2775  155.2863 H   0  0  0  0  0  0  0  0  0  0  0  0  # atno 10763 bound_to 10752
  154.5566  135.5659  153.6973 H   0  0  0  0  0  0  0  0  0  0  0  0  # atno 10764 bound_to 10752
  153.0005  135.6287  154.2527 H   0  0  0  0  0  0  0  0  0  0  0  0  # atno 10765 bound_to 10752
  139.9586  134.7100  156.0697 H   0  0  0  0  0  0  0  0  0  0  0  0  # atno 11005 bound_to 11000
  145.1581  139.2474  143.5406 LP  0  0  0  0  0  0  0  0  0  0  0  0  # atno 17320 bound_to 7965
  146.3514  140.1301  142.8597 LP  0  0  0  0  0  0  0  0  0  0  0  0  # atno 17321 bound_to 7965
  139.5160  144.6971  151.5599 LP  0  0  0  0  0  0  0  0  0  0  0  0  # atno 17342 bound_to 10162
  140.6286  143.9120  150.6586 LP  0  0  0  0  0  0  0  0  0  0  0  0  # atno 17343 bound_to 10162
  157.6304  131.0921  150.8452 LP  0  0  0  0  0  0  0  0  0  0  0  0  # atno 17370 bound_to 10713
  156.8561  130.5097  149.5307 LP  0  0  0  0  0  0  0  0  0  0  0  0  # atno 17371 bound_to 10713
  141.1261  133.6599  156.3339 LP  0  0  0  0  0  0  0  0  0  0  0  0  # atno 17394 bound_to 11000
  140.5552  134.5988  157.5419 LP  0  0  0  0  0  0  0  0  0  0  0  0  # atno 17395 bound_to 11000

$$$$
