AV-unprocessed.smi:3193|AV-procd|sdf|12204|dock6
  -GOLD-   2272018 43D 1   1.00000     0.00000
 Structure written by MMmdl.
 40 41  0  0  0  0  0  0  0  0  2 V2000
  153.4235  141.7108  159.0756 C   0  0  0  0  0  0  0  0  0  0  0  0
  152.3935  142.8087  159.4023 C   0  0  1  0  0  0  0  0  0  0  0  0
  152.6296  143.3232  160.8384 C   0  0  0  0  0  0  0  0  0  0  0  0
  151.5961  144.3801  161.2498 C   0  0  0  0  0  0  0  0  0  0  0  0
  151.5894  145.5488  160.2589 C   0  0  0  0  0  0  0  0  0  0  0  0
  151.3444  145.0502  158.8281 C   0  0  0  0  0  0  0  0  0  0  0  0
  152.3835  143.9938  158.3898 C   0  0  2  0  0  0  0  0  0  0  0  0
  152.0922  143.5654  156.9338 C   0  0  0  0  0  0  0  0  0  0  0  0
  150.7687  142.9260  156.8025 N   0  3  0  0  0  0  0  0  0  0  0  0
  150.7452  141.7438  155.9187 C   0  0  0  0  0  0  0  0  0  0  0  0
  151.8608  140.7531  156.2857 C   0  0  0  0  0  0  0  0  0  0  0  0
  151.9600  139.6731  155.3212 N   0  0  0  0  0  0  0  0  0  0  0  0
  150.9431  139.1680  154.5216 C   0  0  0  0  0  0  0  0  0  0  0  0
  151.4945  138.1448  153.7838 C   0  0  0  0  0  0  0  0  0  0  0  0
  152.8416  138.0065  154.1091 N   0  0  0  0  0  0  0  0  0  0  0  0
  153.0470  138.9493  155.0190 C   0  0  0  0  0  0  0  0  0  0  0  0
  154.4261  142.1242  158.9623 H   0  0  0  0  0  0  0  0  0  0  0  0
  153.1692  141.1752  158.1615 H   0  0  0  0  0  0  0  0  0  0  0  0
  153.4641  140.9635  159.8686 H   0  0  0  0  0  0  0  0  0  0  0  0
  151.4083  142.3399  159.3827 H   0  0  0  0  0  0  0  0  0  0  0  0
  152.5905  142.4929  161.5445 H   0  0  0  0  0  0  0  0  0  0  0  0
  153.6321  143.7461  160.9184 H   0  0  0  0  0  0  0  0  0  0  0  0
  150.6045  143.9279  161.2927 H   0  0  0  0  0  0  0  0  0  0  0  0
  151.8149  144.7444  162.2539 H   0  0  0  0  0  0  0  0  0  0  0  0
  150.8204  146.2694  160.5390 H   0  0  0  0  0  0  0  0  0  0  0  0
  152.5421  146.0778  160.3064 H   0  0  0  0  0  0  0  0  0  0  0  0
  150.3397  144.6303  158.7579 H   0  0  0  0  0  0  0  0  0  0  0  0
  151.3676  145.9027  158.1484 H   0  0  0  0  0  0  0  0  0  0  0  0
  153.3613  144.4784  158.4134 H   0  0  0  0  0  0  0  0  0  0  0  0
  152.1646  144.4263  156.2678 H   0  0  0  0  0  0  0  0  0  0  0  0
  152.8348  142.8421  156.5942 H   0  0  0  0  0  0  0  0  0  0  0  0
  150.4378  142.6610  157.7192 H   0  0  0  0  0  0  0  0  0  0  0  0
  149.7755  141.2496  155.9940 H   0  0  0  0  0  0  0  0  0  0  0  0
  150.8576  142.0699  154.8842 H   0  0  0  0  0  0  0  0  0  0  0  0
  152.8219  141.2673  156.3221 H   0  0  0  0  0  0  0  0  0  0  0  0
  151.6908  140.3313  157.2773 H   0  0  0  0  0  0  0  0  0  0  0  0
  149.9382  139.5634  154.5450 H   0  0  0  0  0  0  0  0  0  0  0  0
  151.0289  137.5025  153.0505 H   0  0  0  0  0  0  0  0  0  0  0  0
  154.0086  139.1082  155.4852 H   0  0  0  0  0  0  0  0  0  0  0  0
  150.1348  143.6117  156.4173 H   0  0  0  0  0  0  0  0  0  0  0  0
  1  2  1  0  0  0  0
  1 17  1  0  0  0  0
  1 18  1  0  0  0  0
  1 19  1  0  0  0  0
  2  7  1  0  0  0  0
  2  3  1  0  0  0  0
  2 20  1  0  0  0  0
  3  4  1  0  0  0  0
  3 21  1  0  0  0  0
  3 22  1  0  0  0  0
  4  5  1  0  0  0  0
  4 23  1  0  0  0  0
  4 24  1  0  0  0  0
  5  6  1  0  0  0  0
  5 25  1  0  0  0  0
  5 26  1  0  0  0  0
  6  7  1  0  0  0  0
  6 27  1  0  0  0  0
  6 28  1  0  0  0  0
  7  8  1  0  0  0  0
  7 29  1  0  0  0  0
  8  9  1  0  0  0  0
  8 30  1  0  0  0  0
  8 31  1  0  0  0  0
  9 10  1  0  0  0  0
  9 32  1  0  0  0  0
  9 40  1  0  0  0  0
 10 11  1  0  0  0  0
 10 33  1  0  0  0  0
 10 34  1  0  0  0  0
 11 12  1  0  0  0  0
 11 35  1  0  0  0  0
 11 36  1  0  0  0  0
 12 16  1  0  0  0  0
 12 13  1  0  0  0  0
 13 14  2  0  0  0  0
 13 37  1  0  0  0  0
 14 15  1  0  0  0  0
 14 38  1  0  0  0  0
 15 16  2  0  0  0  0
 16 39  1  0  0  0  0
M  CHG  1   9   1
M  END
> <s_m_source_file>
AV-unprocessed.smi

> <i_m_source_file_index>
3193

> <i_lp_mmshare_version>
43012

> <i_f3d_flags>
0

> <s_epik_input>
W0NIM11bQ0BASF0xW0NIMl1bQ0gyXVtDSDJdW0NIMl1bQ0BIXTFbQ0gyXVtOSF1bQ0gyXVtDSDJdbjJbY0hdW2NIXW5bY0hdMg==

> <s_epik_cmdline>
J2VwaWtfcHl0aG9uJywgJy1waCcsICc3LjAnLCAnLXRuJywgJzgnLCAnLW1hJywgJzIwMCcsICctbWV0YWxfYmluZGluZycsICctaW1hZScsICc8aW5maWxlLm1hZT4nLCAnLW9tYWUnLCAnPG91dGZpbGUubWFlPic=

> <r_lp_tautomer_probability>
1

> <r_epik_Ionization_Penalty>
0.0503046

> <r_epik_Ionization_Penalty_Charging>
0.0503046

> <r_epik_Ionization_Penalty_Neutral>
0

> <r_epik_State_Penalty>
0.0981804

> <r_epik_Charging_Adjusted_Penalty>
0.148485

> <i_epik_Tot_Q>
1

> <i_epik_Tot_abs_Q>
1

> <r_epik_Metal_State_Penalty>
0.000105854

> <b_epik_Metal_Only>
0

> <s_lp_Force_Field>
OPLS_2005

> <r_lp_Energy>
18.894

> <b_lp_Chiralities_Consistent>
1

> <s_lp_Variant>
AV-unprocessed.smi:3193-4

> <Gold.Version>
5.8.1

> <Gold.Id.Protein>
6NUR|6NUR_protein|mol2

> <Gold.PLP.Fitness>
53.7408

> <Gold.PLP.PLP>
-44.4507

> <Gold.PLP.part.hbond>
-2.0000

> <Gold.PLP.part.metal>
0.0000

> <Gold.PLP.part.buried>
-4.5709

> <Gold.PLP.part.nonpolar>
-39.0411

> <Gold.PLP.part.repulsive>
0.1398

> <Gold.PLP.ligand.clash>
0.0000

> <Gold.PLP.ligand.torsion>
0.6984

> <Gold.PLP.Chemscore.Hbond>
2.5223

> <Gold.PLP.Chemscore.CHOScore>
1.0354

> <Gold.PLP.Chemscore.Metal>
0.0000

> <Gold.Chemscore.Hbonds>
donor molecule, donor type, donor heavy atom, donor atom, acceptor molecule, acceptor atom, score
      L1  H     9    40       P1  8028  2.00
      P1  H 10752 10764       L1    15  0.11
      L1  C    14    38       P1  7948  0.01
      L1  C    14    38       P1  7949  1.00

> <Gold.PLP.Chemscore.Internal.Correction>
0.0136

> <Gold.Rescore>
     Score         DG    S(hbond)    S(metal)    S(lipo)     H(rot)  DE(clash)    DE(int)     intcor
     18.82     -21.18       1.80        0.00     124.01       1.89       1.66       0.71       ----

> <Gold.Chemscore.Fitness>
18.8172

> <Gold.Chemscore.DG>
-21.1798

> <Gold.Chemscore.ZeroCoef>
-5.4800

> <Gold.Chemscore.Hbond>
1.8047

> <Gold.Chemscore.Metal>
0.0000

> <Gold.Chemscore.Lipo>
124.0099

> <Gold.Chemscore.Internal_Hbond>
0.0000

> <Gold.Chemscore.DEClash>
1.6566

> <Gold.Chemscore.DEInternal>
0.7060

> <Gold.Chemscore.Rot>
1.8895

> <Gold.Chemscore.Internal.Correction>
   9.000000E+99

> <Gold.Chemscore.Hbonds>
donor molecule, donor type, donor heavy atom, donor atom, acceptor molecule, acceptor atom, score
      L1  H     9    40       P1  8028  1.00
      P1  H 10752 10764       L1    15  0.03

> <Gold.Chemscore.Hbond.Weighted>
-6.0277

> <Gold.Chemscore.Metal.Weighted>
-0.0000

> <Gold.Chemscore.Lipo.Weighted>
-14.5092

> <Gold.Chemscore.Internal_Hbond.Weighted>
0.0000

> <Gold.Chemscore.DEClash.Weighted>
1.6566

> <Gold.Chemscore.DEInternal.Weighted>
0.7060

> <Gold.Chemscore.Rot.Weighted>
4.8371

> <Gold.Chemscore.Internal.Correction.Weighted>
   9.000000E+99

> <Gold.Protein.RotatedTorsions>
[ 6907 6896 6895 6894 ] final  -88.77 input  -60.11 | X-H torsion
[ 7974 7965 7964 7962 ] final -146.74 input  175.53 | X-H torsion
[ 8008 7997 7996 7995 ] final  151.79 input   59.86 | X-H torsion
[ 10167 10162 10161 10158 ] final -177.56 input  -65.29 | X-H torsion
[ 10718 10713 10712 10709 ] final   71.00 input   66.30 | X-H torsion
[ 10763 10752 10751 10750 ] final  -78.82 input  -60.55 | X-H torsion
[ 11005 11000 10999 10996 ] final -171.18 input  -57.11 | X-H torsion

> <Gold.Protein.ActiveResidues>
 VAL166  LYS551  ARG553  GLY616  TRP617  ASP618  TYR619  PRO620  LYS621  CYS622 
 ASP623  PHE694  ASN695  SER759  ASP760  ASP761  ALA762  ILE779  LEU786  VAL792 
 PHE793  MET794  SER795  GLU796  ALA797  LYS798  CYS799  TRP800  GLU811  SER814 

> <Gold.Protein.RotatedAtoms>
  150.6870  134.2690  159.4580 H   0  0  0  0  0  0  0  0  0  0  0  0  # atno 6907 bound_to 6896
  152.0614  134.9589  160.0584 H   0  0  0  0  0  0  0  0  0  0  0  0  # atno 6908 bound_to 6896
  152.1015  133.4217  159.4626 H   0  0  0  0  0  0  0  0  0  0  0  0  # atno 6909 bound_to 6896
  144.8139  140.5417  143.5624 H   0  0  0  0  0  0  0  0  0  0  0  0  # atno 7974 bound_to 7965
  156.2658  140.2038  156.6231 H   0  0  0  0  0  0  0  0  0  0  0  0  # atno 8008 bound_to 7997
  154.6741  140.0547  157.0221 H   0  0  0  0  0  0  0  0  0  0  0  0  # atno 8009 bound_to 7997
  155.1094  140.3214  155.4528 H   0  0  0  0  0  0  0  0  0  0  0  0  # atno 8010 bound_to 7997
  139.5474  144.2198  152.1014 H   0  0  0  0  0  0  0  0  0  0  0  0  # atno 10167 bound_to 10162
  157.6429  130.9506  150.0728 H   0  0  0  0  0  0  0  0  0  0  0  0  # atno 10718 bound_to 10713
  154.5308  135.5717  153.6757 H   0  0  0  0  0  0  0  0  0  0  0  0  # atno 10763 bound_to 10752
  152.9939  135.6204  154.2632 H   0  0  0  0  0  0  0  0  0  0  0  0  # atno 10764 bound_to 10752
  154.2558  135.2857  155.2778 H   0  0  0  0  0  0  0  0  0  0  0  0  # atno 10765 bound_to 10752
  140.5111  134.5800  157.5019 H   0  0  0  0  0  0  0  0  0  0  0  0  # atno 11005 bound_to 11000
  145.5259  139.1476  143.3526 LP  0  0  0  0  0  0  0  0  0  0  0  0  # atno 17320 bound_to 7965
  146.2440  140.5400  142.8921 LP  0  0  0  0  0  0  0  0  0  0  0  0  # atno 17321 bound_to 7965
  140.1687  144.4956  150.6591 LP  0  0  0  0  0  0  0  0  0  0  0  0  # atno 17342 bound_to 10162
  140.6727  143.2292  151.5585 LP  0  0  0  0  0  0  0  0  0  0  0  0  # atno 17343 bound_to 10162
  156.1727  130.3647  149.9142 LP  0  0  0  0  0  0  0  0  0  0  0  0  # atno 17370 bound_to 10713
  156.7114  130.8971  151.3609 LP  0  0  0  0  0  0  0  0  0  0  0  0  # atno 17371 bound_to 10713
  139.9658  134.7375  156.0141 LP  0  0  0  0  0  0  0  0  0  0  0  0  # atno 17394 bound_to 11000
  141.1385  133.6570  156.3661 LP  0  0  0  0  0  0  0  0  0  0  0  0  # atno 17395 bound_to 11000

$$$$
