AV-unprocessed.smi:2809|AV-procd|sdf|10826|dock8
  -GOLD-   2272015263D 1   1.00000     0.00000
 Structure written by MMmdl.
 44 45  0  0  0  0  0  0  0  0  1 V2000
  152.1025  145.4652  158.8483 C   0  0  0  0  0  0  0  0  0  0  0  0
  151.3148  144.4793  159.7176 C   0  0  0  0  0  0  0  0  0  0  0  0
  152.2136  143.4586  160.3896 C   0  0  0  0  0  0  0  0  0  0  0  0
  153.0130  142.5960  159.6137 C   0  0  0  0  0  0  0  0  0  0  0  0
  153.8435  141.6475  160.2407 C   0  0  0  0  0  0  0  0  0  0  0  0
  153.8896  141.5442  161.6460 C   0  0  0  0  0  0  0  0  0  0  0  0
  154.7248  140.5834  162.1735 O   0  0  0  0  0  0  0  0  0  0  0  0
  155.5443  139.8364  161.2825 C   0  0  0  0  0  0  0  0  0  0  0  0
  155.6609  138.3857  161.7791 C   0  0  1  0  0  0  0  0  0  0  0  0
  156.4461  138.3995  162.9544 O   0  0  0  0  0  0  0  0  0  0  0  0
  154.2915  137.7245  162.0527 C   0  0  0  0  0  0  0  0  0  0  0  0
  154.4174  136.2822  162.3202 N   0  0  0  0  0  0  0  0  0  0  0  0
  153.9762  135.8428  163.5790 C   0  0  0  0  0  0  0  0  0  0  0  0
  154.0450  134.5995  163.9271 N   0  0  0  0  0  0  0  0  0  0  0  0
  154.5737  133.6560  163.0414 C   0  0  0  0  0  0  0  0  0  0  0  0
  154.6136  132.2266  163.5523 C   0  0  0  0  0  0  0  0  0  0  0  0
  155.0219  134.0174  161.8081 C   0  0  0  0  0  0  0  0  0  0  0  0
  155.6134  133.0353  160.8046 C   0  0  0  0  0  0  0  0  0  0  0  0
  154.9517  135.4295  161.3989 C   0  0  0  0  0  0  0  0  0  0  0  0
  155.3493  135.8283  160.3024 O   0  0  0  0  0  0  0  0  0  0  0  0
  153.0879  142.4187  162.4219 C   0  0  0  0  0  0  0  0  0  0  0  0
  152.2565  143.3676  161.7954 C   0  0  0  0  0  0  0  0  0  0  0  0
  151.4344  146.1871  158.3782 H   0  0  0  0  0  0  0  0  0  0  0  0
  152.6432  144.9471  158.0559 H   0  0  0  0  0  0  0  0  0  0  0  0
  152.8285  146.0214  159.4420 H   0  0  0  0  0  0  0  0  0  0  0  0
  150.7571  145.0229  160.4812 H   0  0  0  0  0  0  0  0  0  0  0  0
  150.5736  143.9603  159.1085 H   0  0  0  0  0  0  0  0  0  0  0  0
  152.9918  142.6583  158.5354 H   0  0  0  0  0  0  0  0  0  0  0  0
  154.4510  140.9904  159.6358 H   0  0  0  0  0  0  0  0  0  0  0  0
  155.0826  139.8354  160.2937 H   0  0  0  0  0  0  0  0  0  0  0  0
  156.5358  140.2825  161.1849 H   0  0  0  0  0  0  0  0  0  0  0  0
  156.2104  137.8191  161.0266 H   0  0  0  0  0  0  0  0  0  0  0  0
  156.9144  137.5803  163.0098 H   0  0  0  0  0  0  0  0  0  0  0  0
  153.7680  138.2461  162.8569 H   0  0  0  0  0  0  0  0  0  0  0  0
  153.6466  137.8597  161.1823 H   0  0  0  0  0  0  0  0  0  0  0  0
  153.5797  136.6193  164.2355 H   0  0  0  0  0  0  0  0  0  0  0  0
  154.0085  131.5778  162.9189 H   0  0  0  0  0  0  0  0  0  0  0  0
  154.2250  132.1565  164.5692 H   0  0  0  0  0  0  0  0  0  0  0  0
  155.6375  131.8521  163.5599 H   0  0  0  0  0  0  0  0  0  0  0  0
  156.6547  133.2879  160.6031 H   0  0  0  0  0  0  0  0  0  0  0  0
  155.0647  133.0811  159.8632 H   0  0  0  0  0  0  0  0  0  0  0  0
  155.5851  132.0023  161.1475 H   0  0  0  0  0  0  0  0  0  0  0  0
  153.0921  142.3825  163.5005 H   0  0  0  0  0  0  0  0  0  0  0  0
  151.6506  144.0271  162.3995 H   0  0  0  0  0  0  0  0  0  0  0  0
  1  2  1  0  0  0  0
  1 23  1  0  0  0  0
  1 24  1  0  0  0  0
  1 25  1  0  0  0  0
  2  3  1  0  0  0  0
  2 26  1  0  0  0  0
  2 27  1  0  0  0  0
  3 22  1  0  0  0  0
  3  4  2  0  0  0  0
  4  5  1  0  0  0  0
  4 28  1  0  0  0  0
  5  6  2  0  0  0  0
  5 29  1  0  0  0  0
  6  7  1  0  0  0  0
  6 21  1  0  0  0  0
  7  8  1  0  0  0  0
  8  9  1  0  0  0  0
  8 30  1  0  0  0  0
  8 31  1  0  0  0  0
  9 10  1  0  0  0  0
  9 11  1  0  0  0  0
  9 32  1  0  0  0  0
 10 33  1  0  0  0  0
 11 12  1  0  0  0  0
 11 34  1  0  0  0  0
 11 35  1  0  0  0  0
 12 19  1  0  0  0  0
 12 13  1  0  0  0  0
 13 14  2  0  0  0  0
 13 36  1  0  0  0  0
 14 15  1  0  0  0  0
 15 16  1  0  0  0  0
 15 17  2  0  0  0  0
 16 37  1  0  0  0  0
 16 38  1  0  0  0  0
 16 39  1  0  0  0  0
 17 18  1  0  0  0  0
 17 19  1  0  0  0  0
 18 40  1  0  0  0  0
 18 41  1  0  0  0  0
 18 42  1  0  0  0  0
 19 20  2  0  0  0  0
 21 22  2  0  0  0  0
 21 43  1  0  0  0  0
 22 44  1  0  0  0  0
M  END
> <s_m_source_file>
AV-unprocessed.smi

> <i_m_source_file_index>
2809

> <i_lp_mmshare_version>
43012

> <i_f3d_flags>
0

> <s_epik_input>
W0NIM11bQ0gyXWMxW2NIXVtjSF1jKFtjSF1bY0hdMSlPW0NIMl1bQ0BIXShbT0hdKVtDSDJdbjJbY0hdbmMoW0NIM10pYyhbQ0gzXSljMj1P

> <s_epik_cmdline>
J2VwaWtfcHl0aG9uJywgJy1waCcsICc3LjAnLCAnLXRuJywgJzgnLCAnLW1hJywgJzIwMCcsICctbWV0YWxfYmluZGluZycsICctaW1hZScsICc8aW5maWxlLm1hZT4nLCAnLW9tYWUnLCAnPG91dGZpbGUubWFlPic=

> <r_lp_tautomer_probability>
1

> <r_epik_Ionization_Penalty>
3.74127e-05

> <r_epik_Ionization_Penalty_Charging>
8.43242e-08

> <r_epik_Ionization_Penalty_Neutral>
3.73284e-05

> <r_epik_State_Penalty>
-0

> <r_epik_Charging_Adjusted_Penalty>
8.43242e-08

> <i_epik_Tot_Q>
0

> <i_epik_Tot_abs_Q>
0

> <r_epik_Metal_State_Penalty>
-0

> <b_epik_Metal_Only>
0

> <s_lp_Force_Field>
OPLS_2005

> <r_lp_Energy>
23.3526

> <b_lp_Chiralities_Consistent>
1

> <s_lp_Variant>
AV-unprocessed.smi:2809-2

> <Gold.Version>
5.8.1

> <Gold.Id.Protein>
6NUR|6NUR_protein|mol2

> <Gold.PLP.Fitness>
50.9129

> <Gold.PLP.PLP>
-53.5647

> <Gold.PLP.part.hbond>
-0.6744

> <Gold.PLP.part.metal>
0.0000

> <Gold.PLP.part.buried>
-5.6640

> <Gold.PLP.part.nonpolar>
-46.9705

> <Gold.PLP.part.repulsive>
0.6468

> <Gold.PLP.ligand.clash>
2.0125

> <Gold.PLP.ligand.torsion>
0.3477

> <Gold.PLP.Chemscore.Hbond>
0.0000

> <Gold.PLP.Chemscore.CHOScore>
0.0000

> <Gold.PLP.Chemscore.Metal>
0.0000

> <Gold.PLP.Chemscore.Internal.Correction>
0.0562

> <Gold.Rescore>
     Score         DG    S(hbond)    S(metal)    S(lipo)     H(rot)  DE(clash)    DE(int)     intcor
     16.55     -17.48       0.97        0.00     128.70       2.47       0.17       0.76       ----

> <Gold.Chemscore.Fitness>
16.5459

> <Gold.Chemscore.DG>
-17.4807

> <Gold.Chemscore.ZeroCoef>
-5.4800

> <Gold.Chemscore.Hbond>
0.9746

> <Gold.Chemscore.Metal>
0.0000

> <Gold.Chemscore.Lipo>
128.6972

> <Gold.Chemscore.Internal_Hbond>
0.0000

> <Gold.Chemscore.DEClash>
0.1739

> <Gold.Chemscore.DEInternal>
0.7609

> <Gold.Chemscore.Rot>
2.4657

> <Gold.Chemscore.Internal.Correction>
   9.000000E+99

> <Gold.Chemscore.Hbond.Weighted>
-3.2552

> <Gold.Chemscore.Metal.Weighted>
-0.0000

> <Gold.Chemscore.Lipo.Weighted>
-15.0576

> <Gold.Chemscore.Internal_Hbond.Weighted>
0.0000

> <Gold.Chemscore.DEClash.Weighted>
0.1739

> <Gold.Chemscore.DEInternal.Weighted>
0.7609

> <Gold.Chemscore.Rot.Weighted>
6.3121

> <Gold.Chemscore.Internal.Correction.Weighted>
   9.000000E+99

> <Gold.Protein.RotatedTorsions>
[ 6907 6896 6895 6894 ] final  -85.98 input  -60.11 | X-H torsion
[ 7974 7965 7964 7962 ] final  -95.10 input  175.53 | X-H torsion
[ 8008 7997 7996 7995 ] final  -20.06 input   59.86 | X-H torsion
[ 10167 10162 10161 10158 ] final  -92.16 input  -65.29 | X-H torsion
[ 10718 10713 10712 10709 ] final   41.54 input   66.30 | X-H torsion
[ 10763 10752 10751 10750 ] final  119.87 input  -60.55 | X-H torsion
[ 11005 11000 10999 10996 ] final -137.30 input  -57.11 | X-H torsion

> <Gold.Protein.ActiveResidues>
 VAL166  LYS551  ARG553  GLY616  TRP617  ASP618  TYR619  PRO620  LYS621  CYS622 
 ASP623  PHE694  ASN695  SER759  ASP760  ASP761  ALA762  ILE779  LEU786  VAL792 
 PHE793  MET794  SER795  GLU796  ALA797  LYS798  CYS799  TRP800  GLU811  SER814 

> <Gold.Protein.RotatedAtoms>
  150.6868  134.3122  159.4750 H   0  0  0  0  0  0  0  0  0  0  0  0  # atno 6907 bound_to 6896
  152.1006  134.9341  160.0579 H   0  0  0  0  0  0  0  0  0  0  0  0  # atno 6908 bound_to 6896
  152.0622  133.4032  159.4459 H   0  0  0  0  0  0  0  0  0  0  0  0  # atno 6909 bound_to 6896
  145.3646  140.9497  143.2481 H   0  0  0  0  0  0  0  0  0  0  0  0  # atno 7974 bound_to 7965
  154.4795  140.2072  155.9797 H   0  0  0  0  0  0  0  0  0  0  0  0  # atno 8008 bound_to 7997
  156.1142  140.3224  155.8086 H   0  0  0  0  0  0  0  0  0  0  0  0  # atno 8009 bound_to 7997
  155.4581  140.0522  157.2984 H   0  0  0  0  0  0  0  0  0  0  0  0  # atno 8010 bound_to 7997
  140.3376  143.2960  151.9871 H   0  0  0  0  0  0  0  0  0  0  0  0  # atno 10167 bound_to 10162
  157.3947  130.7826  149.7298 H   0  0  0  0  0  0  0  0  0  0  0  0  # atno 10718 bound_to 10713
  153.5897  135.3468  155.2906 H   0  0  0  0  0  0  0  0  0  0  0  0  # atno 10763 bound_to 10752
  154.8654  135.4202  154.2530 H   0  0  0  0  0  0  0  0  0  0  0  0  # atno 10764 bound_to 10752
  153.3334  135.7045  153.6999 H   0  0  0  0  0  0  0  0  0  0  0  0  # atno 10765 bound_to 10752
  140.8724  134.2034  157.4643 H   0  0  0  0  0  0  0  0  0  0  0  0  # atno 11005 bound_to 11000
  144.8621  139.5162  143.6807 LP  0  0  0  0  0  0  0  0  0  0  0  0  # atno 17320 bound_to 7965
  146.2912  139.7146  142.9159 LP  0  0  0  0  0  0  0  0  0  0  0  0  # atno 17321 bound_to 7965
  139.4846  144.6183  151.7303 LP  0  0  0  0  0  0  0  0  0  0  0  0  # atno 17342 bound_to 10162
  140.5339  144.0687  150.6063 LP  0  0  0  0  0  0  0  0  0  0  0  0  # atno 17343 bound_to 10162
  155.9807  130.4026  150.3512 LP  0  0  0  0  0  0  0  0  0  0  0  0  # atno 17370 bound_to 10713
  157.1632  131.0350  151.2831 LP  0  0  0  0  0  0  0  0  0  0  0  0  # atno 17371 bound_to 10713
  139.8713  134.9780  156.4981 LP  0  0  0  0  0  0  0  0  0  0  0  0  # atno 17394 bound_to 11000
  140.8558  133.8097  155.9214 LP  0  0  0  0  0  0  0  0  0  0  0  0  # atno 17395 bound_to 11000

$$$$
