AV-unprocessed.smi:1824|AV-procd|sdf|7407|dock8
  -GOLD-   22720 9 83D 1   1.00000     0.00000
 Structure written by MMmdl.
 45 47  0  0  0  0  0  0  0  0  2 V2000
  149.4405  141.0846  156.5609 C   0  0  0  0  0  0  0  0  0  0  0  0
  149.7594  140.6326  155.1256 C   0  0  2  0  0  0  0  0  0  0  0  0
  148.7322  139.6314  154.5591 C   0  0  0  0  0  0  0  0  0  0  0  0
  148.8666  138.2950  155.1371 N   0  0  0  0  0  0  0  0  0  0  0  0
  147.9134  137.3360  154.5757 C   0  0  0  0  0  0  0  0  0  0  0  0
  146.4991  137.3682  155.1891 C   0  0  2  0  0  0  0  0  0  0  0  0
  146.6256  137.4075  156.5969 O   0  0  0  0  0  0  0  0  0  0  0  0
  145.6797  136.1288  154.7792 C   0  0  0  0  0  0  0  0  0  0  0  0
  145.2554  136.1623  153.3718 N   0  0  0  0  0  0  0  0  0  0  0  0
  144.8226  137.2113  152.6212 C   0  0  0  0  0  0  0  0  0  0  0  0
  144.5486  136.7397  151.3734 N   0  3  0  0  0  0  0  0  0  0  0  0
  144.8075  135.3682  151.3259 C   0  0  0  0  0  0  0  0  0  0  0  0
  144.6813  134.4528  150.2860 C   0  0  0  0  0  0  0  0  0  0  0  0
  145.0279  133.1158  150.5711 C   0  0  0  0  0  0  0  0  0  0  0  0
  144.9227  132.1836  149.5947 F   0  0  0  0  0  0  0  0  0  0  0  0
  145.4794  132.7318  151.8515 C   0  0  0  0  0  0  0  0  0  0  0  0
  145.7995  131.4368  152.0836 F   0  0  0  0  0  0  0  0  0  0  0  0
  145.6047  133.6697  152.8973 C   0  0  0  0  0  0  0  0  0  0  0  0
  145.2613  134.9896  152.6069 C   0  0  0  0  0  0  0  0  0  0  0  0
  150.2370  137.8362  154.9461 C   0  0  0  0  0  0  0  0  0  0  0  0
  151.2611  138.8003  155.5709 C   0  0  1  0  0  0  0  0  0  0  0  0
  152.7045  138.3628  155.2999 C   0  0  0  0  0  0  0  0  0  0  0  0
  151.0815  140.1028  155.0183 O   0  0  0  0  0  0  0  0  0  0  0  0
  148.4753  141.5897  156.6024 H   0  0  0  0  0  0  0  0  0  0  0  0
  150.1946  141.7826  156.9247 H   0  0  0  0  0  0  0  0  0  0  0  0
  149.3984  140.2461  157.2555 H   0  0  0  0  0  0  0  0  0  0  0  0
  149.7363  141.5249  154.4996 H   0  0  0  0  0  0  0  0  0  0  0  0
  147.7317  140.0269  154.7275 H   0  0  0  0  0  0  0  0  0  0  0  0
  148.8609  139.5712  153.4773 H   0  0  0  0  0  0  0  0  0  0  0  0
  147.8417  137.4959  153.4988 H   0  0  0  0  0  0  0  0  0  0  0  0
  148.3066  136.3253  154.6964 H   0  0  0  0  0  0  0  0  0  0  0  0
  145.9566  138.2565  154.8682 H   0  0  0  0  0  0  0  0  0  0  0  0
  145.7575  137.4206  156.9715 H   0  0  0  0  0  0  0  0  0  0  0  0
  146.2831  135.2292  154.9077 H   0  0  0  0  0  0  0  0  0  0  0  0
  144.8049  136.0012  155.4175 H   0  0  0  0  0  0  0  0  0  0  0  0
  144.7165  138.2336  152.9550 H   0  0  0  0  0  0  0  0  0  0  0  0
  144.3344  134.7419  149.3048 H   0  0  0  0  0  0  0  0  0  0  0  0
  145.9451  133.3626  153.8748 H   0  0  0  0  0  0  0  0  0  0  0  0
  150.3600  136.8485  155.3918 H   0  0  0  0  0  0  0  0  0  0  0  0
  150.4431  137.7243  153.8802 H   0  0  0  0  0  0  0  0  0  0  0  0
  151.1123  138.8406  156.6504 H   0  0  0  0  0  0  0  0  0  0  0  0
  152.8985  137.3724  155.7122 H   0  0  0  0  0  0  0  0  0  0  0  0
  153.4131  139.0562  155.7535 H   0  0  0  0  0  0  0  0  0  0  0  0
  152.9116  138.3275  154.2301 H   0  0  0  0  0  0  0  0  0  0  0  0
  144.2088  137.3142  150.6125 H   0  0  0  0  0  0  0  0  0  0  0  0
  1  2  1  0  0  0  0
  1 24  1  0  0  0  0
  1 25  1  0  0  0  0
  1 26  1  0  0  0  0
  2 23  1  0  0  0  0
  2  3  1  0  0  0  0
  2 27  1  0  0  0  0
  3  4  1  0  0  0  0
  3 28  1  0  0  0  0
  3 29  1  0  0  0  0
  4  5  1  0  0  0  0
  4 20  1  0  0  0  0
  5  6  1  0  0  0  0
  5 30  1  0  0  0  0
  5 31  1  0  0  0  0
  6  7  1  0  0  0  0
  6  8  1  0  0  0  0
  6 32  1  0  0  0  0
  7 33  1  0  0  0  0
  8  9  1  0  0  0  0
  8 34  1  0  0  0  0
  8 35  1  0  0  0  0
  9 19  1  0  0  0  0
  9 10  1  0  0  0  0
 10 11  2  0  0  0  0
 10 36  1  0  0  0  0
 11 12  1  0  0  0  0
 11 45  1  0  0  0  0
 12 19  2  0  0  0  0
 12 13  1  0  0  0  0
 13 14  2  0  0  0  0
 13 37  1  0  0  0  0
 14 15  1  0  0  0  0
 14 16  1  0  0  0  0
 16 17  1  0  0  0  0
 16 18  2  0  0  0  0
 18 19  1  0  0  0  0
 18 38  1  0  0  0  0
 20 21  1  0  0  0  0
 20 39  1  0  0  0  0
 20 40  1  0  0  0  0
 21 22  1  0  0  0  0
 21 23  1  0  0  0  0
 21 41  1  0  0  0  0
 22 42  1  0  0  0  0
 22 43  1  0  0  0  0
 22 44  1  0  0  0  0
M  CHG  1  11   1
M  END
> <s_m_source_file>
AV-unprocessed.smi

> <i_m_source_file_index>
1824

> <i_lp_mmshare_version>
43012

> <i_f3d_flags>
0

> <s_epik_input>
W0NIM11bQ0BASF0xW0NIMl1OKFtDSDJdW0NASF0oTzEpW0NIM10pW0NIMl1bQ0BIXShbT0hdKVtDSDJdbihbY0hdbjIpYyhjMjMpW2NIXWMoRiljKEYpW2NIXTM=

> <s_epik_cmdline>
J2VwaWtfcHl0aG9uJywgJy1waCcsICc3LjAnLCAnLXRuJywgJzgnLCAnLW1hJywgJzIwMCcsICctbWV0YWxfYmluZGluZycsICctaW1hZScsICc8aW5maWxlLm1hZT4nLCAnLW9tYWUnLCAnPG91dGZpbGUubWFlPic=

> <r_epik_Ionization_Penalty>
2.58709

> <r_epik_Ionization_Penalty_Charging>
2.37273

> <r_epik_Ionization_Penalty_Neutral>
0.214359

> <r_epik_State_Penalty>
2.71799

> <r_epik_Charging_Adjusted_Penalty>
5.09071

> <i_epik_Tot_Q>
1

> <i_epik_Tot_abs_Q>
1

> <r_epik_Metal_State_Penalty>
6.80217

> <b_epik_Metal_Only>
0

> <s_lp_Force_Field>
OPLS_2005

> <r_lp_Energy>
35.5782

> <b_lp_Chiralities_Consistent>
1

> <s_lp_Variant>
AV-unprocessed.smi:1824-15

> <Gold.Version>
5.8.1

> <Gold.Id.Protein>
6NUR|6NUR_protein|mol2

> <Gold.PLP.Fitness>
42.4340

> <Gold.PLP.PLP>
-34.8673

> <Gold.PLP.part.hbond>
-1.8394

> <Gold.PLP.part.metal>
0.0000

> <Gold.PLP.part.buried>
-4.8779

> <Gold.PLP.part.nonpolar>
-29.3864

> <Gold.PLP.part.repulsive>
0.2385

> <Gold.PLP.ligand.clash>
0.0000

> <Gold.PLP.ligand.torsion>
0.7133

> <Gold.PLP.Chemscore.Hbond>
1.9913

> <Gold.PLP.Chemscore.CHOScore>
1.0000

> <Gold.PLP.Chemscore.Metal>
0.0000

> <Gold.Chemscore.Hbonds>
donor molecule, donor type, donor heavy atom, donor atom, acceptor molecule, acceptor atom, score
      L1  H    11    45       P1 10171  1.00
      P1  H  7989  7998       L1    23  1.00
      L1  C    10    36       P1 10175  1.00

> <Gold.PLP.Chemscore.Internal.Correction>
0.0197

> <Gold.Rescore>
     Score         DG    S(hbond)    S(metal)    S(lipo)     H(rot)  DE(clash)    DE(int)     intcor
     13.16     -14.03       1.81        0.00      72.20       2.32       0.17       0.70       ----

> <Gold.Chemscore.Fitness>
13.1647

> <Gold.Chemscore.DG>
-14.0334

> <Gold.Chemscore.ZeroCoef>
-5.4800

> <Gold.Chemscore.Hbond>
1.8107

> <Gold.Chemscore.Metal>
0.0000

> <Gold.Chemscore.Lipo>
72.1992

> <Gold.Chemscore.Internal_Hbond>
0.0000

> <Gold.Chemscore.DEClash>
0.1659

> <Gold.Chemscore.DEInternal>
0.7028

> <Gold.Chemscore.Rot>
2.3210

> <Gold.Chemscore.Internal.Correction>
   9.000000E+99

> <Gold.Chemscore.Hbonds>
donor molecule, donor type, donor heavy atom, donor atom, acceptor molecule, acceptor atom, score
      L1  H    11    45       P1 10171  0.93
      P1  H  7989  7998       L1    23  0.30

> <Gold.Chemscore.Hbond.Weighted>
-6.0477

> <Gold.Chemscore.Metal.Weighted>
-0.0000

> <Gold.Chemscore.Lipo.Weighted>
-8.4473

> <Gold.Chemscore.Internal_Hbond.Weighted>
0.0000

> <Gold.Chemscore.DEClash.Weighted>
0.1659

> <Gold.Chemscore.DEInternal.Weighted>
0.7028

> <Gold.Chemscore.Rot.Weighted>
5.9416

> <Gold.Chemscore.Internal.Correction.Weighted>
   9.000000E+99

> <Gold.Protein.RotatedTorsions>
[ 6907 6896 6895 6894 ] final  -81.60 input  -60.11 | X-H torsion
[ 7974 7965 7964 7962 ] final  159.88 input  175.53 | X-H torsion
[ 8008 7997 7996 7995 ] final   40.15 input   59.86 | X-H torsion
[ 10167 10162 10161 10158 ] final   83.58 input  -65.29 | X-H torsion
[ 10718 10713 10712 10709 ] final -138.18 input   66.30 | X-H torsion
[ 10763 10752 10751 10750 ] final  -30.88 input  -60.55 | X-H torsion
[ 11005 11000 10999 10996 ] final -140.46 input  -57.11 | X-H torsion

> <Gold.Protein.ActiveResidues>
 VAL166  LYS551  ARG553  GLY616  TRP617  ASP618  TYR619  PRO620  LYS621  CYS622 
 ASP623  PHE694  ASN695  SER759  ASP760  ASP761  ALA762  ILE779  LEU786  VAL792 
 PHE793  MET794  SER795  GLU796  ALA797  LYS798  CYS799  TRP800  GLU811  SER814 

> <Gold.Protein.RotatedAtoms>
  150.6909  134.3793  159.5026 H   0  0  0  0  0  0  0  0  0  0  0  0  # atno 6907 bound_to 6896
  152.1598  134.8919  160.0551 H   0  0  0  0  0  0  0  0  0  0  0  0  # atno 6908 bound_to 6896
  151.9985  133.3782  159.4209 H   0  0  0  0  0  0  0  0  0  0  0  0  # atno 6909 bound_to 6896
  144.7766  139.7679  143.6276 H   0  0  0  0  0  0  0  0  0  0  0  0  # atno 7974 bound_to 7965
  155.2484  140.3350  155.4285 H   0  0  0  0  0  0  0  0  0  0  0  0  # atno 8008 bound_to 7997
  156.2226  140.1815  156.7484 H   0  0  0  0  0  0  0  0  0  0  0  0  # atno 8009 bound_to 7997
  154.5849  140.0647  156.9142 H   0  0  0  0  0  0  0  0  0  0  0  0  # atno 8010 bound_to 7997
  139.9169  144.6237  150.8479 H   0  0  0  0  0  0  0  0  0  0  0  0  # atno 10167 bound_to 10162
  156.2964  130.7404  151.1444 H   0  0  0  0  0  0  0  0  0  0  0  0  # atno 10718 bound_to 10713
  153.7882  135.6900  153.4876 H   0  0  0  0  0  0  0  0  0  0  0  0  # atno 10763 bound_to 10752
  153.1767  135.4522  154.9972 H   0  0  0  0  0  0  0  0  0  0  0  0  # atno 10764 bound_to 10752
  154.8055  135.3355  154.7380 H   0  0  0  0  0  0  0  0  0  0  0  0  # atno 10765 bound_to 10752
  140.8420  134.2390  157.4805 H   0  0  0  0  0  0  0  0  0  0  0  0  # atno 11005 bound_to 11000
  146.1950  139.5211  142.9780 LP  0  0  0  0  0  0  0  0  0  0  0  0  # atno 17320 bound_to 7965
  145.6168  141.0330  143.1937 LP  0  0  0  0  0  0  0  0  0  0  0  0  # atno 17321 bound_to 7965
  140.7672  143.3325  151.2380 LP  0  0  0  0  0  0  0  0  0  0  0  0  # atno 17342 bound_to 10162
  139.6894  143.9717  152.2851 LP  0  0  0  0  0  0  0  0  0  0  0  0  # atno 17343 bound_to 10162
  157.7356  131.0570  150.5458 LP  0  0  0  0  0  0  0  0  0  0  0  0  # atno 17370 bound_to 10713
  156.5581  130.4248  149.6076 LP  0  0  0  0  0  0  0  0  0  0  0  0  # atno 17371 bound_to 10713
  139.8703  134.9640  156.4481 LP  0  0  0  0  0  0  0  0  0  0  0  0  # atno 17394 bound_to 11000
  140.8884  133.7866  155.9545 LP  0  0  0  0  0  0  0  0  0  0  0  0  # atno 17395 bound_to 11000

$$$$
