AV-unprocessed.smi:509|AV-procd|sdf|2760|dock1
  -GOLD-   2262023223D 1   1.00000     0.00000
 Structure written by MMmdl.
 46 48  0  0  0  0  0  0  0  0  2 V2000
  150.2949  137.1848  158.4934 C   0  0  0  0  0  0  0  0  0  0  0  0
  150.8388  138.4879  158.3847 O   0  0  0  0  0  0  0  0  0  0  0  0
  151.9844  138.5310  157.5495 C   0  0  0  0  0  0  0  0  0  0  0  0
  152.3876  139.9920  157.3084 C   0  0  0  0  0  0  0  0  0  0  0  0
  152.2687  140.7980  158.5230 N   0  0  0  0  0  0  0  0  0  0  0  0
  151.3774  141.7861  158.8160 C   0  0  0  0  0  0  0  0  0  0  0  0
  150.3596  142.1723  157.9410 N   0  0  0  0  0  0  0  0  0  0  0  0
  149.1224  142.8672  158.2951 C   0  0  0  0  0  0  0  0  0  0  0  0
  147.8939  142.1923  157.6577 C   0  0  0  0  0  0  0  0  0  0  0  0
  148.0503  142.1206  156.1902 N   0  3  0  0  0  0  0  0  0  0  0  0
  149.3289  141.5013  155.7844 C   0  0  0  0  0  0  0  0  0  0  0  0
  150.5148  142.1871  156.4875 C   0  0  0  0  0  0  0  0  0  0  0  0
  151.5893  142.3913  159.9871 N   0  0  0  0  0  0  0  0  0  0  0  0
  152.6894  141.7199  160.4962 C   0  0  0  0  0  0  0  0  0  0  0  0
  153.1179  140.7696  159.6336 C   0  0  0  0  0  0  0  0  0  0  0  0
  154.2988  139.9372  159.8983 C   0  0  0  0  0  0  0  0  0  0  0  0
  154.6940  139.1016  159.0840 O   0  0  0  0  0  0  0  0  0  0  0  0
  154.9034  140.1877  161.1014 N   0  0  0  0  0  0  0  0  0  0  0  0
  156.0912  139.3711  161.4157 C   0  0  0  0  0  0  0  0  0  0  0  0
  154.5057  141.1571  162.0065 C   0  0  0  0  0  0  0  0  0  0  0  0
  155.1268  141.3554  163.0541 O   0  0  0  0  0  0  0  0  0  0  0  0
  153.3973  141.9099  161.7107 N   0  0  0  0  0  0  0  0  0  0  0  0
  152.9405  142.9409  162.6473 C   0  0  0  0  0  0  0  0  0  0  0  0
  149.4244  137.2051  159.1489 H   0  0  0  0  0  0  0  0  0  0  0  0
  151.0198  136.4887  158.9170 H   0  0  0  0  0  0  0  0  0  0  0  0
  149.9749  136.8095  157.5204 H   0  0  0  0  0  0  0  0  0  0  0  0
  152.8084  137.9940  158.0210 H   0  0  0  0  0  0  0  0  0  0  0  0
  151.7746  138.0374  156.5994 H   0  0  0  0  0  0  0  0  0  0  0  0
  153.4003  140.0266  156.9223 H   0  0  0  0  0  0  0  0  0  0  0  0
  151.7761  140.4338  156.5232 H   0  0  0  0  0  0  0  0  0  0  0  0
  149.0138  142.9355  159.3768 H   0  0  0  0  0  0  0  0  0  0  0  0
  149.1941  143.8986  157.9469 H   0  0  0  0  0  0  0  0  0  0  0  0
  147.7653  141.1830  158.0507 H   0  0  0  0  0  0  0  0  0  0  0  0
  146.9861  142.7469  157.8956 H   0  0  0  0  0  0  0  0  0  0  0  0
  147.2822  141.5978  155.7945 H   0  0  0  0  0  0  0  0  0  0  0  0
  149.3049  140.4406  156.0360 H   0  0  0  0  0  0  0  0  0  0  0  0
  149.4350  141.5695  154.7016 H   0  0  0  0  0  0  0  0  0  0  0  0
  150.6130  143.2190  156.1474 H   0  0  0  0  0  0  0  0  0  0  0  0
  151.4408  141.6805  156.2120 H   0  0  0  0  0  0  0  0  0  0  0  0
  156.3727  139.3738  162.4693 H   0  0  0  0  0  0  0  0  0  0  0  0
  156.9504  139.7297  160.8473 H   0  0  0  0  0  0  0  0  0  0  0  0
  155.9366  138.3209  161.1615 H   0  0  0  0  0  0  0  0  0  0  0  0
  152.7856  142.5199  163.6418 H   0  0  0  0  0  0  0  0  0  0  0  0
  151.9986  143.3982  162.3448 H   0  0  0  0  0  0  0  0  0  0  0  0
  153.6815  143.7373  162.7259 H   0  0  0  0  0  0  0  0  0  0  0  0
  148.0287  143.0621  155.8252 H   0  0  0  0  0  0  0  0  0  0  0  0
  1  2  1  0  0  0  0
  1 24  1  0  0  0  0
  1 25  1  0  0  0  0
  1 26  1  0  0  0  0
  2  3  1  0  0  0  0
  3  4  1  0  0  0  0
  3 27  1  0  0  0  0
  3 28  1  0  0  0  0
  4  5  1  0  0  0  0
  4 29  1  0  0  0  0
  4 30  1  0  0  0  0
  5 15  1  0  0  0  0
  5  6  1  0  0  0  0
  6  7  1  0  0  0  0
  6 13  2  0  0  0  0
  7 12  1  0  0  0  0
  7  8  1  0  0  0  0
  8  9  1  0  0  0  0
  8 31  1  0  0  0  0
  8 32  1  0  0  0  0
  9 10  1  0  0  0  0
  9 33  1  0  0  0  0
  9 34  1  0  0  0  0
 10 11  1  0  0  0  0
 10 35  1  0  0  0  0
 10 46  1  0  0  0  0
 11 12  1  0  0  0  0
 11 36  1  0  0  0  0
 11 37  1  0  0  0  0
 12 38  1  0  0  0  0
 12 39  1  0  0  0  0
 13 14  1  0  0  0  0
 14 22  1  0  0  0  0
 14 15  2  0  0  0  0
 15 16  1  0  0  0  0
 16 17  2  0  0  0  0
 16 18  1  0  0  0  0
 18 19  1  0  0  0  0
 18 20  1  0  0  0  0
 19 40  1  0  0  0  0
 19 41  1  0  0  0  0
 19 42  1  0  0  0  0
 20 21  2  0  0  0  0
 20 22  1  0  0  0  0
 22 23  1  0  0  0  0
 23 43  1  0  0  0  0
 23 44  1  0  0  0  0
 23 45  1  0  0  0  0
M  CHG  1  10   1
M  END
> <s_m_source_file>
AV-unprocessed.smi

> <i_m_source_file_index>
509

> <i_lp_mmshare_version>
43012

> <i_f3d_flags>
0

> <s_epik_input>
W0NIM11uMWMoPU8pbihbQ0gzXSljKD1PKWMoYzEyKW4oW0NIMl1bQ0gyXU9bQ0gzXSljKG4yKU4zW0NIMl1bQ0gyXVtOSF1bQ0gyXVtDSDJdMw==

> <s_epik_cmdline>
J2VwaWtfcHl0aG9uJywgJy1waCcsICc3LjAnLCAnLXRuJywgJzgnLCAnLW1hJywgJzIwMCcsICctbWV0YWxfYmluZGluZycsICctaW1hZScsICc8aW5maWxlLm1hZT4nLCAnLW9tYWUnLCAnPG91dGZpbGUubWFlPic=

> <r_epik_Ionization_Penalty>
0.00857468

> <r_epik_Ionization_Penalty_Charging>
0.00857162

> <r_epik_Ionization_Penalty_Neutral>
3.06002e-06

> <r_epik_State_Penalty>
0.00646614

> <r_epik_Charging_Adjusted_Penalty>
0.0150378

> <i_epik_Tot_Q>
1

> <i_epik_Tot_abs_Q>
1

> <r_epik_Metal_State_Penalty>
0.00646904

> <b_epik_Metal_Only>
0

> <s_lp_Force_Field>
OPLS_2005

> <r_lp_Energy>
52.9694

> <b_lp_Chiralities_Consistent>
1

> <s_lp_Variant>
AV-unprocessed.smi:509-1

> <Gold.Version>
5.8.1

> <Gold.Id.Protein>
6NUR|6NUR_protein|mol2

> <Gold.PLP.Fitness>
47.9928

> <Gold.PLP.PLP>
-39.8565

> <Gold.PLP.part.hbond>
-3.4627

> <Gold.PLP.part.metal>
0.0000

> <Gold.PLP.part.buried>
-0.6289

> <Gold.PLP.part.nonpolar>
-34.7687

> <Gold.PLP.part.repulsive>
0.0354

> <Gold.PLP.ligand.clash>
0.0001

> <Gold.PLP.ligand.torsion>
0.6147

> <Gold.PLP.Chemscore.Hbond>
2.9753

> <Gold.PLP.Chemscore.CHOScore>
0.0000

> <Gold.PLP.Chemscore.Metal>
0.0000

> <Gold.Chemscore.Hbonds>
donor molecule, donor type, donor heavy atom, donor atom, acceptor molecule, acceptor atom, score
      L1  H    10    46       P1  8028  1.98
      P1  H  7997  8008       L1    17  1.00

> <Gold.PLP.Chemscore.Internal.Correction>
0.4400

> <Gold.Rescore>
     Score         DG    S(hbond)    S(metal)    S(lipo)     H(rot)  DE(clash)    DE(int)     intcor
     10.78     -13.63       1.58        0.00      57.46       1.51       1.12       1.73       ----

> <Gold.Chemscore.Fitness>
10.7805

> <Gold.Chemscore.DG>
-13.6291

> <Gold.Chemscore.ZeroCoef>
-5.4800

> <Gold.Chemscore.Hbond>
1.5834

> <Gold.Chemscore.Metal>
0.0000

> <Gold.Chemscore.Lipo>
57.4573

> <Gold.Chemscore.Internal_Hbond>
0.0000

> <Gold.Chemscore.DEClash>
1.1159

> <Gold.Chemscore.DEInternal>
1.7327

> <Gold.Chemscore.Rot>
1.5086

> <Gold.Chemscore.Internal.Correction>
   9.000000E+99

> <Gold.Chemscore.Hbonds>
donor molecule, donor type, donor heavy atom, donor atom, acceptor molecule, acceptor atom, score
      L1  H    10    46       P1  8028  0.65
      P1  H  7997  8008       L1    17  0.67

> <Gold.Chemscore.Hbond.Weighted>
-5.2886

> <Gold.Chemscore.Metal.Weighted>
-0.0000

> <Gold.Chemscore.Lipo.Weighted>
-6.7225

> <Gold.Chemscore.Internal_Hbond.Weighted>
0.0000

> <Gold.Chemscore.DEClash.Weighted>
1.1159

> <Gold.Chemscore.DEInternal.Weighted>
1.7327

> <Gold.Chemscore.Rot.Weighted>
3.8620

> <Gold.Chemscore.Internal.Correction.Weighted>
   9.000000E+99

> <Gold.Protein.RotatedTorsions>
[ 6907 6896 6895 6894 ] final  -50.92 input  -60.11 | X-H torsion
[ 7974 7965 7964 7962 ] final  178.95 input  175.53 | X-H torsion
[ 8008 7997 7996 7995 ] final -118.87 input   59.86 | X-H torsion
[ 10167 10162 10161 10158 ] final  -83.36 input  -65.29 | X-H torsion
[ 10718 10713 10712 10709 ] final  -58.03 input   66.30 | X-H torsion
[ 10763 10752 10751 10750 ] final -127.95 input  -60.55 | X-H torsion
[ 11005 11000 10999 10996 ] final   46.90 input  -57.11 | X-H torsion

> <Gold.Protein.ActiveResidues>
 VAL166  LYS551  ARG553  GLY616  TRP617  ASP618  TYR619  PRO620  LYS621  CYS622 
 ASP623  PHE694  ASN695  SER759  ASP760  ASP761  ALA762  ILE779  LEU786  VAL792 
 PHE793  MET794  SER795  GLU796  ALA797  LYS798  CYS799  TRP800  GLU811  SER814 

> <Gold.Protein.RotatedAtoms>
  150.8660  134.8024  159.7118 H   0  0  0  0  0  0  0  0  0  0  0  0  # atno 6907 bound_to 6896
  152.4681  134.5022  159.9738 H   0  0  0  0  0  0  0  0  0  0  0  0  # atno 6908 bound_to 6896
  151.5118  133.3445  159.2922 H   0  0  0  0  0  0  0  0  0  0  0  0  # atno 6909 bound_to 6896
  144.7150  140.0474  143.6436 H   0  0  0  0  0  0  0  0  0  0  0  0  # atno 7974 bound_to 7965
  155.1066  140.0396  157.2712 H   0  0  0  0  0  0  0  0  0  0  0  0  # atno 8008 bound_to 7997
  154.6717  140.2614  155.6974 H   0  0  0  0  0  0  0  0  0  0  0  0  # atno 8009 bound_to 7997
  156.2661  140.2796  156.1229 H   0  0  0  0  0  0  0  0  0  0  0  0  # atno 8010 bound_to 7997
  140.4233  143.2576  151.8859 H   0  0  0  0  0  0  0  0  0  0  0  0  # atno 10167 bound_to 10162
  156.1166  130.4170  150.0521 H   0  0  0  0  0  0  0  0  0  0  0  0  # atno 10718 bound_to 10713
  154.8754  135.3945  154.3677 H   0  0  0  0  0  0  0  0  0  0  0  0  # atno 10763 bound_to 10752
  153.4440  135.7027  153.6156 H   0  0  0  0  0  0  0  0  0  0  0  0  # atno 10764 bound_to 10752
  153.4724  135.3787  155.2367 H   0  0  0  0  0  0  0  0  0  0  0  0  # atno 10765 bound_to 10752
  140.1327  134.4684  155.8509 H   0  0  0  0  0  0  0  0  0  0  0  0  # atno 11005 bound_to 11000
  145.9973  139.3062  143.0949 LP  0  0  0  0  0  0  0  0  0  0  0  0  # atno 17320 bound_to 7965
  145.8834  140.9348  143.0589 LP  0  0  0  0  0  0  0  0  0  0  0  0  # atno 17321 bound_to 7965
  139.4783  144.5413  151.8523 LP  0  0  0  0  0  0  0  0  0  0  0  0  # atno 17342 bound_to 10162
  140.4509  144.1857  150.5897 LP  0  0  0  0  0  0  0  0  0  0  0  0  # atno 17343 bound_to 10162
  156.8471  130.9446  151.3628 LP  0  0  0  0  0  0  0  0  0  0  0  0  # atno 17370 bound_to 10713
  157.6349  130.8759  149.9341 LP  0  0  0  0  0  0  0  0  0  0  0  0  # atno 17371 bound_to 10713
  141.2173  133.6802  156.7100 LP  0  0  0  0  0  0  0  0  0  0  0  0  # atno 17394 bound_to 11000
  140.2821  134.8308  157.3943 LP  0  0  0  0  0  0  0  0  0  0  0  0  # atno 17395 bound_to 11000

$$$$
