AV-unprocessed.smi:3349|AV-procd|sdf|12933|dock8
  -GOLD-   2272019363D 1   1.00000     0.00000
 Structure written by MMmdl.
 40 41  0  0  0  0  0  0  0  0  1 V2000
  141.2789  137.6853  153.4454 C   0  0  0  0  0  0  0  0  0  0  0  0
  141.3022  136.4988  154.4443 C   0  0  2  0  0  0  0  0  0  0  0  0
  141.2755  135.1680  153.6427 C   0  0  0  0  0  0  0  0  0  0  0  0
  142.1564  135.2076  152.4815 N   0  0  0  0  0  0  0  0  0  0  0  0
  143.4846  135.0207  152.5153 C   0  0  0  0  0  0  0  0  0  0  0  0
  144.1100  134.8489  153.5622 O   0  0  0  0  0  0  0  0  0  0  0  0
  144.2045  135.0313  151.1555 C   0  0  1  0  0  0  0  0  0  0  0  0
  145.3670  136.0433  151.0938 C   0  0  0  0  0  0  0  0  0  0  0  0
  144.6365  133.6848  150.7971 N   0  0  0  0  0  0  0  0  0  0  0  0
  143.9168  132.5813  150.5822 C   0  0  0  0  0  0  0  0  0  0  0  0
  144.6454  131.5049  150.3218 N   0  0  0  0  0  0  0  0  0  0  0  0
  145.8950  132.0501  150.4045 C   0  0  0  0  0  0  0  0  0  0  0  0
  145.9471  133.3498  150.6955 N   0  0  0  0  0  0  0  0  0  0  0  0
  140.2322  136.5896  155.4650 N   0  0  0  0  0  0  0  0  0  0  0  0
  140.3917  137.7452  156.3558 C   0  0  0  0  0  0  0  0  0  0  0  0
  139.2636  137.8594  157.3961 C   0  0  0  0  0  0  0  0  0  0  0  0
  138.0067  137.9197  156.7367 O   0  0  0  0  0  0  0  0  0  0  0  0
  137.7766  136.7773  155.9242 C   0  0  0  0  0  0  0  0  0  0  0  0
  138.8919  136.6582  154.8711 C   0  0  0  0  0  0  0  0  0  0  0  0
  142.0338  137.5929  152.6651 H   0  0  0  0  0  0  0  0  0  0  0  0
  141.4898  138.6381  153.9290 H   0  0  0  0  0  0  0  0  0  0  0  0
  140.3096  137.7650  152.9522 H   0  0  0  0  0  0  0  0  0  0  0  0
  142.2623  136.5379  154.9617 H   0  0  0  0  0  0  0  0  0  0  0  0
  141.6191  134.3269  154.2425 H   0  0  0  0  0  0  0  0  0  0  0  0
  140.2524  134.9463  153.3329 H   0  0  0  0  0  0  0  0  0  0  0  0
  141.7187  135.3492  151.5830 H   0  0  0  0  0  0  0  0  0  0  0  0
  143.4678  135.3391  150.4117 H   0  0  0  0  0  0  0  0  0  0  0  0
  145.0165  137.0579  151.2860 H   0  0  0  0  0  0  0  0  0  0  0  0
  145.8310  136.0414  150.1072 H   0  0  0  0  0  0  0  0  0  0  0  0
  146.1451  135.8178  151.8246 H   0  0  0  0  0  0  0  0  0  0  0  0
  142.8376  132.5631  150.6242 H   0  0  0  0  0  0  0  0  0  0  0  0
  146.7936  131.4707  150.2512 H   0  0  0  0  0  0  0  0  0  0  0  0
  141.3250  137.6782  156.9110 H   0  0  0  0  0  0  0  0  0  0  0  0
  140.4356  138.6630  155.7674 H   0  0  0  0  0  0  0  0  0  0  0  0
  139.2834  137.0108  158.0821 H   0  0  0  0  0  0  0  0  0  0  0  0
  139.3930  138.7595  157.9973 H   0  0  0  0  0  0  0  0  0  0  0  0
  137.7333  135.8810  156.5449 H   0  0  0  0  0  0  0  0  0  0  0  0
  136.8062  136.8769  155.4377 H   0  0  0  0  0  0  0  0  0  0  0  0
  138.8339  137.5055  154.1860 H   0  0  0  0  0  0  0  0  0  0  0  0
  138.6836  135.7634  154.2874 H   0  0  0  0  0  0  0  0  0  0  0  0
  1  2  1  0  0  0  0
  1 20  1  0  0  0  0
  1 21  1  0  0  0  0
  1 22  1  0  0  0  0
  2  3  1  0  0  0  0
  2 14  1  0  0  0  0
  2 23  1  0  0  0  0
  3  4  1  0  0  0  0
  3 24  1  0  0  0  0
  3 25  1  0  0  0  0
  4  5  1  0  0  0  0
  4 26  1  0  0  0  0
  5  6  2  0  0  0  0
  5  7  1  0  0  0  0
  7  8  1  0  0  0  0
  7  9  1  0  0  0  0
  7 27  1  0  0  0  0
  8 28  1  0  0  0  0
  8 29  1  0  0  0  0
  8 30  1  0  0  0  0
  9 13  1  0  0  0  0
  9 10  1  0  0  0  0
 10 11  2  0  0  0  0
 10 31  1  0  0  0  0
 11 12  1  0  0  0  0
 12 13  2  0  0  0  0
 12 32  1  0  0  0  0
 14 19  1  0  0  0  0
 14 15  1  0  0  0  0
 15 16  1  0  0  0  0
 15 33  1  0  0  0  0
 15 34  1  0  0  0  0
 16 17  1  0  0  0  0
 16 35  1  0  0  0  0
 16 36  1  0  0  0  0
 17 18  1  0  0  0  0
 18 19  1  0  0  0  0
 18 37  1  0  0  0  0
 18 38  1  0  0  0  0
 19 39  1  0  0  0  0
 19 40  1  0  0  0  0
M  END
> <s_m_source_file>
AV-unprocessed.smi

> <i_m_source_file_index>
3349

> <i_lp_mmshare_version>
43012

> <i_f3d_flags>
0

> <s_epik_input>
W0NIMl0xW0NIMl1PW0NIMl1bQ0gyXU4xW0NASF0oW0NIM10pW0NIMl1bTkhdQyg9TylbQ0BIXShbQ0gzXSluMltjSF1uW2NIXW4y

> <s_epik_cmdline>
J2VwaWtfcHl0aG9uJywgJy1waCcsICc3LjAnLCAnLXRuJywgJzgnLCAnLW1hJywgJzIwMCcsICctbWV0YWxfYmluZGluZycsICctaW1hZScsICc8aW5maWxlLm1hZT4nLCAnLW9tYWUnLCAnPG91dGZpbGUubWFlPic=

> <r_lp_tautomer_probability>
1

> <r_epik_Ionization_Penalty>
0.211373

> <r_epik_Ionization_Penalty_Charging>
0

> <r_epik_Ionization_Penalty_Neutral>
0.211373

> <r_epik_State_Penalty>
0.201459

> <r_epik_Charging_Adjusted_Penalty>
0.201459

> <i_epik_Tot_Q>
0

> <i_epik_Tot_abs_Q>
0

> <r_epik_Metal_State_Penalty>
0.201458

> <b_epik_Metal_Only>
0

> <s_lp_Force_Field>
OPLS_2005

> <r_lp_Energy>
35.2026

> <b_lp_Chiralities_Consistent>
1

> <s_lp_Variant>
AV-unprocessed.smi:3349-3

> <Gold.Version>
5.8.1

> <Gold.Id.Protein>
6NUR|6NUR_protein|mol2

> <Gold.PLP.Fitness>
37.5737

> <Gold.PLP.PLP>
-29.1060

> <Gold.PLP.part.hbond>
-2.8141

> <Gold.PLP.part.metal>
0.0000

> <Gold.PLP.part.buried>
-2.1097

> <Gold.PLP.part.nonpolar>
-25.2120

> <Gold.PLP.part.repulsive>
0.3967

> <Gold.PLP.ligand.clash>
0.0000

> <Gold.PLP.ligand.torsion>
0.5618

> <Gold.PLP.Chemscore.Hbond>
1.1469

> <Gold.PLP.Chemscore.CHOScore>
2.0000

> <Gold.PLP.Chemscore.Metal>
0.0000

> <Gold.Chemscore.Hbonds>
donor molecule, donor type, donor heavy atom, donor atom, acceptor molecule, acceptor atom, score
      P1  H 11000 11005       L1    14  0.59
      L1  C    10    31       P1 10186  0.28
      L1  C    12    32       P1 10747  1.00

> <Gold.PLP.Chemscore.Internal.Correction>
0.1508

> <Gold.Rescore>
     Score         DG    S(hbond)    S(metal)    S(lipo)     H(rot)  DE(clash)    DE(int)     intcor
      4.55      -4.90       0.19        0.00      45.66       2.56       0.04       0.31       ----

> <Gold.Chemscore.Fitness>
4.5515

> <Gold.Chemscore.DG>
-4.8989

> <Gold.Chemscore.ZeroCoef>
-5.4800

> <Gold.Chemscore.Hbond>
0.1864

> <Gold.Chemscore.Metal>
0.0000

> <Gold.Chemscore.Lipo>
45.6612

> <Gold.Chemscore.Internal_Hbond>
0.0000

> <Gold.Chemscore.DEClash>
0.0371

> <Gold.Chemscore.DEInternal>
0.3104

> <Gold.Chemscore.Rot>
2.5570

> <Gold.Chemscore.Internal.Correction>
   9.000000E+99

> <Gold.Chemscore.Hbonds>
donor molecule, donor type, donor heavy atom, donor atom, acceptor molecule, acceptor atom, score
      P1  H 11000 11005       L1    14  0.05

> <Gold.Chemscore.Hbond.Weighted>
-0.6224

> <Gold.Chemscore.Metal.Weighted>
-0.0000

> <Gold.Chemscore.Lipo.Weighted>
-5.3424

> <Gold.Chemscore.Internal_Hbond.Weighted>
0.0000

> <Gold.Chemscore.DEClash.Weighted>
0.0371

> <Gold.Chemscore.DEInternal.Weighted>
0.3104

> <Gold.Chemscore.Rot.Weighted>
6.5459

> <Gold.Chemscore.Internal.Correction.Weighted>
   9.000000E+99

> <Gold.Protein.RotatedTorsions>
[ 6907 6896 6895 6894 ] final -151.85 input  -60.11 | X-H torsion
[ 7974 7965 7964 7962 ] final -111.09 input  175.53 | X-H torsion
[ 8008 7997 7996 7995 ] final -119.34 input   59.86 | X-H torsion
[ 10167 10162 10161 10158 ] final   32.52 input  -65.29 | X-H torsion
[ 10718 10713 10712 10709 ] final  146.87 input   66.30 | X-H torsion
[ 10763 10752 10751 10750 ] final   10.75 input  -60.55 | X-H torsion
[ 11005 11000 10999 10996 ] final   94.19 input  -57.11 | X-H torsion

> <Gold.Protein.ActiveResidues>
 VAL166  LYS551  ARG553  GLY616  TRP617  ASP618  TYR619  PRO620  LYS621  CYS622 
 ASP623  PHE694  ASN695  SER759  ASP760  ASP761  ALA762  ILE779  LEU786  VAL792 
 PHE793  MET794  SER795  GLU796  ALA797  LYS798  CYS799  TRP800  GLU811  SER814 

> <Gold.Protein.RotatedAtoms>
  151.2192  133.4512  159.2599 H   0  0  0  0  0  0  0  0  0  0  0  0  # atno 6907 bound_to 6896
  151.0901  134.9911  159.8409 H   0  0  0  0  0  0  0  0  0  0  0  0  # atno 6908 bound_to 6896
  152.5434  134.2126  159.8809 H   0  0  0  0  0  0  0  0  0  0  0  0  # atno 6909 bound_to 6896
  145.1603  140.8875  143.3595 H   0  0  0  0  0  0  0  0  0  0  0  0  # atno 7974 bound_to 7965
  155.1142  140.0397  157.2732 H   0  0  0  0  0  0  0  0  0  0  0  0  # atno 8008 bound_to 7997
  154.6662  140.2602  155.7030 H   0  0  0  0  0  0  0  0  0  0  0  0  # atno 8009 bound_to 7997
  156.2640  140.2807  156.1154 H   0  0  0  0  0  0  0  0  0  0  0  0  # atno 8010 bound_to 7997
  140.4491  144.1074  150.6188 H   0  0  0  0  0  0  0  0  0  0  0  0  # atno 10167 bound_to 10162
  157.3279  131.0915  151.1187 H   0  0  0  0  0  0  0  0  0  0  0  0  # atno 10718 bound_to 10713
  153.1999  135.6854  153.8244 H   0  0  0  0  0  0  0  0  0  0  0  0  # atno 10763 bound_to 10752
  153.7514  135.3223  155.3323 H   0  0  0  0  0  0  0  0  0  0  0  0  # atno 10764 bound_to 10752
  154.8165  135.4682  154.0760 H   0  0  0  0  0  0  0  0  0  0  0  0  # atno 10765 bound_to 10752
  139.8801  134.8832  156.3828 H   0  0  0  0  0  0  0  0  0  0  0  0  # atno 11005 bound_to 11000
  145.0338  139.3318  143.6011 LP  0  0  0  0  0  0  0  0  0  0  0  0  # atno 17320 bound_to 7965
  146.3483  139.9686  142.8709 LP  0  0  0  0  0  0  0  0  0  0  0  0  # atno 17321 bound_to 7965
  140.4228  143.2603  151.9694 LP  0  0  0  0  0  0  0  0  0  0  0  0  # atno 17342 bound_to 10162
  139.4795  144.5815  151.7924 LP  0  0  0  0  0  0  0  0  0  0  0  0  # atno 17343 bound_to 10162
  157.2446  130.6585  149.5904 LP  0  0  0  0  0  0  0  0  0  0  0  0  # atno 17370 bound_to 10713
  155.9692  130.4557  150.5899 LP  0  0  0  0  0  0  0  0  0  0  0  0  # atno 17371 bound_to 10713
  140.9387  133.7529  156.0118 LP  0  0  0  0  0  0  0  0  0  0  0  0  # atno 17394 bound_to 11000
  140.8245  134.3250  157.5370 LP  0  0  0  0  0  0  0  0  0  0  0  0  # atno 17395 bound_to 11000

$$$$
