AV-unprocessed.smi:713|AV-procd|sdf|3479|dock1
  -GOLD-   22720 0473D 1   1.00000     0.00000
 Structure written by MMmdl.
 41 42  0  0  0  0  0  0  0  0  1 V2000
  152.8163  144.2198  158.0322 C   0  0  0  0  0  0  0  0  0  0  0  0
  151.6140  143.6634  158.8226 C   0  0  1  0  0  0  0  0  0  0  0  0
  150.8391  142.5978  158.0333 C   0  0  0  0  0  0  0  0  0  0  0  0
  149.9233  141.9674  158.5633 O   0  0  0  0  0  0  0  0  0  0  0  0
  151.2143  142.4134  156.7575 N   0  0  0  0  0  0  0  0  0  0  0  0
  150.6028  141.4698  155.8275 C   0  0  2  0  0  0  0  0  0  0  0  0
  149.1383  141.8700  155.5742 C   0  0  0  0  0  0  0  0  0  0  0  0
  148.4398  140.8682  154.6425 C   0  0  0  0  0  0  0  0  0  0  0  0
  148.5297  139.4383  155.1966 C   0  0  0  0  0  0  0  0  0  0  0  0
  149.9902  139.0221  155.4508 C   0  0  2  0  0  0  0  0  0  0  0  0
  150.0360  137.3137  156.1606 S   0  0  0  0  0  0  0  0  0  0  0  0
  150.9050  137.5593  157.7651 C   0  0  0  0  0  0  0  0  0  0  0  0
  148.6582  136.8888  156.4517 O   0  0  0  0  0  0  0  0  0  0  0  0
  150.8843  136.4789  155.2963 O   0  0  0  0  0  0  0  0  0  0  0  0
  150.6927  140.0327  156.3794 C   0  0  0  0  0  0  0  0  0  0  0  0
  151.9960  143.1390  160.1294 N   0  0  0  0  0  0  0  0  0  0  0  0
  152.8833  142.1181  160.4054 C   0  0  0  0  0  0  0  0  0  0  0  0
  152.9655  141.9993  161.7632 C   0  0  0  0  0  0  0  0  0  0  0  0
  152.0928  143.0141  162.2440 C   0  0  0  0  0  0  0  0  0  0  0  0
  151.5239  143.7007  161.2671 N   0  0  0  0  0  0  0  0  0  0  0  0
  152.4944  144.6572  157.0866 H   0  0  0  0  0  0  0  0  0  0  0  0
  153.5528  143.4486  157.8030 H   0  0  0  0  0  0  0  0  0  0  0  0
  153.3234  145.0025  158.5972 H   0  0  0  0  0  0  0  0  0  0  0  0
  150.9364  144.5000  159.0019 H   0  0  0  0  0  0  0  0  0  0  0  0
  151.9739  142.9750  156.4014 H   0  0  0  0  0  0  0  0  0  0  0  0
  151.1334  141.5153  154.8744 H   0  0  0  0  0  0  0  0  0  0  0  0
  148.5983  141.9203  156.5209 H   0  0  0  0  0  0  0  0  0  0  0  0
  149.0933  142.8690  155.1385 H   0  0  0  0  0  0  0  0  0  0  0  0
  147.3948  141.1502  154.5104 H   0  0  0  0  0  0  0  0  0  0  0  0
  148.8977  140.9066  153.6534 H   0  0  0  0  0  0  0  0  0  0  0  0
  147.9622  139.3723  156.1260 H   0  0  0  0  0  0  0  0  0  0  0  0
  148.0593  138.7453  154.4984 H   0  0  0  0  0  0  0  0  0  0  0  0
  150.5174  138.9843  154.4968 H   0  0  0  0  0  0  0  0  0  0  0  0
  151.0798  136.5893  158.2300 H   0  0  0  0  0  0  0  0  0  0  0  0
  150.2938  138.1654  158.4325 H   0  0  0  0  0  0  0  0  0  0  0  0
  151.8612  138.0526  157.5926 H   0  0  0  0  0  0  0  0  0  0  0  0
  151.7395  139.7580  156.5053 H   0  0  0  0  0  0  0  0  0  0  0  0
  150.2415  139.9941  157.3719 H   0  0  0  0  0  0  0  0  0  0  0  0
  153.3780  141.5663  159.6199 H   0  0  0  0  0  0  0  0  0  0  0  0
  153.5626  141.2982  162.3272 H   0  0  0  0  0  0  0  0  0  0  0  0
  151.8619  143.2747  163.2665 H   0  0  0  0  0  0  0  0  0  0  0  0
  1  2  1  0  0  0  0
  1 21  1  0  0  0  0
  1 22  1  0  0  0  0
  1 23  1  0  0  0  0
  2  3  1  0  0  0  0
  2 16  1  0  0  0  0
  2 24  1  0  0  0  0
  3  4  2  0  0  0  0
  3  5  1  0  0  0  0
  5  6  1  0  0  0  0
  5 25  1  0  0  0  0
  6 15  1  0  0  0  0
  6  7  1  0  0  0  0
  6 26  1  0  0  0  0
  7  8  1  0  0  0  0
  7 27  1  0  0  0  0
  7 28  1  0  0  0  0
  8  9  1  0  0  0  0
  8 29  1  0  0  0  0
  8 30  1  0  0  0  0
  9 10  1  0  0  0  0
  9 31  1  0  0  0  0
  9 32  1  0  0  0  0
 10 11  1  0  0  0  0
 10 15  1  0  0  0  0
 10 33  1  0  0  0  0
 11 12  1  0  0  0  0
 11 13  2  0  0  0  0
 11 14  2  0  0  0  0
 12 34  1  0  0  0  0
 12 35  1  0  0  0  0
 12 36  1  0  0  0  0
 15 37  1  0  0  0  0
 15 38  1  0  0  0  0
 16 20  1  0  0  0  0
 16 17  1  0  0  0  0
 17 18  2  0  0  0  0
 17 39  1  0  0  0  0
 18 19  1  0  0  0  0
 18 40  1  0  0  0  0
 19 20  2  0  0  0  0
 19 41  1  0  0  0  0
M  END
> <s_m_source_file>
AV-unprocessed.smi

> <i_m_source_file_index>
713

> <i_lp_mmshare_version>
43012

> <i_f3d_flags>
0

> <s_epik_input>
bjFbY0hdW2NIXVtjSF1uMVtDQEhdKFtDSDNdKUMoPU8pW05IXVtDQEBIXTJbQ0gyXVtDSDJdW0NIMl1bQ0BIXShbQ0gyXTIpUyg9TykoPU8pW0NIM10=

> <s_epik_cmdline>
J2VwaWtfcHl0aG9uJywgJy1waCcsICc3LjAnLCAnLXRuJywgJzgnLCAnLW1hJywgJzIwMCcsICctbWV0YWxfYmluZGluZycsICctaW1hZScsICc8aW5maWxlLm1hZT4nLCAnLW9tYWUnLCAnPG91dGZpbGUubWFlPic=

> <r_lp_tautomer_probability>
1

> <r_epik_Ionization_Penalty>
4.07816e-05

> <r_epik_Ionization_Penalty_Charging>
0

> <r_epik_Ionization_Penalty_Neutral>
4.07816e-05

> <r_epik_State_Penalty>
-0

> <r_epik_Charging_Adjusted_Penalty>
0

> <i_epik_Tot_Q>
0

> <i_epik_Tot_abs_Q>
0

> <r_epik_Metal_State_Penalty>
-0

> <b_epik_Metal_Only>
0

> <s_lp_Force_Field>
OPLS_2005

> <r_lp_Energy>
7.30822

> <b_lp_Chiralities_Consistent>
1

> <s_lp_Variant>
AV-unprocessed.smi:713-6

> <Gold.Version>
5.8.1

> <Gold.Id.Protein>
6NUR|6NUR_protein|mol2

> <Gold.PLP.Fitness>
45.4286

> <Gold.PLP.PLP>
-44.0940

> <Gold.PLP.part.hbond>
-2.7797

> <Gold.PLP.part.metal>
0.0000

> <Gold.PLP.part.buried>
-4.0783

> <Gold.PLP.part.nonpolar>
-37.7506

> <Gold.PLP.part.repulsive>
0.4606

> <Gold.PLP.ligand.clash>
0.7121

> <Gold.PLP.ligand.torsion>
0.2969

> <Gold.PLP.Chemscore.Hbond>
0.7882

> <Gold.PLP.Chemscore.CHOScore>
0.0000

> <Gold.PLP.Chemscore.Metal>
0.0000

> <Gold.PLP.Chemscore.Internal.Correction>
0.2757

> <Gold.Rescore>
     Score         DG    S(hbond)    S(metal)    S(lipo)     H(rot)  DE(clash)    DE(int)     intcor
     13.34     -15.98       0.96        0.00     100.04       1.72       0.71       1.93       ----

> <Gold.Chemscore.Fitness>
13.3372

> <Gold.Chemscore.DG>
-15.9808

> <Gold.Chemscore.ZeroCoef>
-5.4800

> <Gold.Chemscore.Hbond>
0.9616

> <Gold.Chemscore.Metal>
0.0000

> <Gold.Chemscore.Lipo>
100.0402

> <Gold.Chemscore.Internal_Hbond>
0.0000

> <Gold.Chemscore.DEClash>
0.7118

> <Gold.Chemscore.DEInternal>
1.9318

> <Gold.Chemscore.Rot>
1.7249

> <Gold.Chemscore.Internal.Correction>
   9.000000E+99

> <Gold.Chemscore.Hbond.Weighted>
-3.2118

> <Gold.Chemscore.Metal.Weighted>
-0.0000

> <Gold.Chemscore.Lipo.Weighted>
-11.7047

> <Gold.Chemscore.Internal_Hbond.Weighted>
0.0000

> <Gold.Chemscore.DEClash.Weighted>
0.7118

> <Gold.Chemscore.DEInternal.Weighted>
1.9318

> <Gold.Chemscore.Rot.Weighted>
4.4157

> <Gold.Chemscore.Internal.Correction.Weighted>
   9.000000E+99

> <Gold.Protein.RotatedTorsions>
[ 6907 6896 6895 6894 ] final  124.78 input  -60.11 | X-H torsion
[ 7974 7965 7964 7962 ] final -127.17 input  175.53 | X-H torsion
[ 8008 7997 7996 7995 ] final  -83.91 input   59.86 | X-H torsion
[ 10167 10162 10161 10158 ] final -110.58 input  -65.29 | X-H torsion
[ 10718 10713 10712 10709 ] final  141.72 input   66.30 | X-H torsion
[ 10763 10752 10751 10750 ] final  -88.65 input  -60.55 | X-H torsion
[ 11005 11000 10999 10996 ] final   26.04 input  -57.11 | X-H torsion

> <Gold.Protein.ActiveResidues>
 VAL166  LYS551  ARG553  GLY616  TRP617  ASP618  TYR619  PRO620  LYS621  CYS622 
 ASP623  PHE694  ASN695  SER759  ASP760  ASP761  ALA762  ILE779  LEU786  VAL792 
 PHE793  MET794  SER795  GLU796  ALA797  LYS798  CYS799  TRP800  GLU811  SER814 

> <Gold.Protein.RotatedAtoms>
  152.4049  133.6874  159.6347 H   0  0  0  0  0  0  0  0  0  0  0  0  # atno 6907 bound_to 6896
  150.7935  133.8726  159.3272 H   0  0  0  0  0  0  0  0  0  0  0  0  # atno 6908 bound_to 6896
  151.6483  135.1006  160.0207 H   0  0  0  0  0  0  0  0  0  0  0  0  # atno 6909 bound_to 6896
  144.9797  140.7628  143.4619 H   0  0  0  0  0  0  0  0  0  0  0  0  # atno 7974 bound_to 7965
  154.6241  140.0612  156.9652 H   0  0  0  0  0  0  0  0  0  0  0  0  # atno 8008 bound_to 7997
  155.1770  140.3296  155.4363 H   0  0  0  0  0  0  0  0  0  0  0  0  # atno 8009 bound_to 7997
  156.2448  140.1904  156.6869 H   0  0  0  0  0  0  0  0  0  0  0  0  # atno 8010 bound_to 7997
  140.1429  143.4264  152.1550 H   0  0  0  0  0  0  0  0  0  0  0  0  # atno 10167 bound_to 10162
  157.3888  131.1002  151.0667 H   0  0  0  0  0  0  0  0  0  0  0  0  # atno 10718 bound_to 10713
  154.6469  135.5369  153.7855 H   0  0  0  0  0  0  0  0  0  0  0  0  # atno 10763 bound_to 10752
  153.0364  135.6473  154.1076 H   0  0  0  0  0  0  0  0  0  0  0  0  # atno 10764 bound_to 10752
  154.0996  135.2934  155.3234 H   0  0  0  0  0  0  0  0  0  0  0  0  # atno 10765 bound_to 10752
  140.3413  134.2329  155.7689 H   0  0  0  0  0  0  0  0  0  0  0  0  # atno 11005 bound_to 11000
  145.2438  139.2061  143.4978 LP  0  0  0  0  0  0  0  0  0  0  0  0  # atno 17320 bound_to 7965
  146.3405  140.2338  142.8594 LP  0  0  0  0  0  0  0  0  0  0  0  0  # atno 17321 bound_to 7965
  139.5463  144.7301  151.4572 LP  0  0  0  0  0  0  0  0  0  0  0  0  # atno 17342 bound_to 10162
  140.6750  143.8211  150.7046 LP  0  0  0  0  0  0  0  0  0  0  0  0  # atno 17343 bound_to 10162
  157.1709  130.6267  149.5640 LP  0  0  0  0  0  0  0  0  0  0  0  0  # atno 17370 bound_to 10713
  155.9793  130.4785  150.6707 LP  0  0  0  0  0  0  0  0  0  0  0  0  # atno 17371 bound_to 10713
  141.2037  133.7904  157.0323 LP  0  0  0  0  0  0  0  0  0  0  0  0  # atno 17394 bound_to 11000
  140.0778  134.9665  157.1575 LP  0  0  0  0  0  0  0  0  0  0  0  0  # atno 17395 bound_to 11000

$$$$
