AV-unprocessed.smi:3163|AV-procd|sdf|12072|dock4
  -GOLD-   2272017503D 1   1.00000     0.00000
 Structure written by MMmdl.
 36 37  0  0  0  0  0  0  0  0  2 V2000
  142.2550  133.7690  152.5614 C   0  0  0  0  0  0  0  0  0  0  0  0
  143.1451  134.4703  151.6128 N   0  3  2  0  0  0  0  0  0  0  0  0
  144.4370  133.7899  151.3788 C   0  0  0  0  0  0  0  0  0  0  0  0
  145.4304  134.9055  151.0653 C   0  0  0  0  0  0  0  0  0  0  0  0
  144.9584  136.0344  151.9774 C   0  0  1  0  0  0  0  0  0  0  0  0
  145.4727  137.4285  151.5679 C   0  0  0  0  0  0  0  0  0  0  0  0
  146.8240  137.6856  152.0556 N   0  0  0  0  0  0  0  0  0  0  0  0
  147.1532  138.6305  152.9483 C   0  0  0  0  0  0  0  0  0  0  0  0
  146.3318  139.3945  153.4540 O   0  0  0  0  0  0  0  0  0  0  0  0
  148.4726  138.6132  153.2071 N   0  0  0  0  0  0  0  0  0  0  0  0
  149.2318  139.4465  154.0747 C   0  0  0  0  0  0  0  0  0  0  0  0
  150.4710  138.9503  154.5303 C   0  0  0  0  0  0  0  0  0  0  0  0
  151.2549  139.7538  155.3820 C   0  0  0  0  0  0  0  0  0  0  0  0
  150.8857  140.9878  155.7841 N   0  0  0  0  0  0  0  0  0  0  0  0
  149.7049  141.4666  155.3392 C   0  0  0  0  0  0  0  0  0  0  0  0
  148.8452  140.7457  154.4862 C   0  0  0  0  0  0  0  0  0  0  0  0
  143.4295  135.8812  151.9664 C   0  0  0  0  0  0  0  0  0  0  0  0
  142.7017  133.7189  153.5555 H   0  0  0  0  0  0  0  0  0  0  0  0
  142.0605  132.7518  152.2201 H   0  0  0  0  0  0  0  0  0  0  0  0
  141.2986  134.2865  152.6398 H   0  0  0  0  0  0  0  0  0  0  0  0
  144.7528  133.2685  152.2843 H   0  0  0  0  0  0  0  0  0  0  0  0
  144.3636  133.0549  150.5766 H   0  0  0  0  0  0  0  0  0  0  0  0
  146.4648  134.6139  151.2507 H   0  0  0  0  0  0  0  0  0  0  0  0
  145.3426  135.1985  150.0179 H   0  0  0  0  0  0  0  0  0  0  0  0
  145.3113  135.8059  152.9848 H   0  0  0  0  0  0  0  0  0  0  0  0
  145.4461  137.5370  150.4823 H   0  0  0  0  0  0  0  0  0  0  0  0
  144.8183  138.2026  151.9698 H   0  0  0  0  0  0  0  0  0  0  0  0
  147.5583  137.0924  151.6970 H   0  0  0  0  0  0  0  0  0  0  0  0
  148.9993  137.8833  152.7504 H   0  0  0  0  0  0  0  0  0  0  0  0
  150.8180  137.9696  154.2386 H   0  0  0  0  0  0  0  0  0  0  0  0
  152.2053  139.3950  155.7483 H   0  0  0  0  0  0  0  0  0  0  0  0
  149.4380  142.4598  155.6689 H   0  0  0  0  0  0  0  0  0  0  0  0
  147.9253  141.2082  154.1663 H   0  0  0  0  0  0  0  0  0  0  0  0
  142.9792  136.5148  151.2013 H   0  0  0  0  0  0  0  0  0  0  0  0
  142.9976  136.1704  152.9260 H   0  0  0  0  0  0  0  0  0  0  0  0
  142.6692  134.4968  150.7222 H   0  0  0  0  0  0  0  0  0  0  0  0
  1  2  1  0  0  0  0
  1 18  1  0  0  0  0
  1 19  1  0  0  0  0
  1 20  1  0  0  0  0
  2 17  1  0  0  0  0
  2  3  1  0  0  0  0
  2 36  1  0  0  0  0
  3  4  1  0  0  0  0
  3 21  1  0  0  0  0
  3 22  1  0  0  0  0
  4  5  1  0  0  0  0
  4 23  1  0  0  0  0
  4 24  1  0  0  0  0
  5  6  1  0  0  0  0
  5 17  1  0  0  0  0
  5 25  1  0  0  0  0
  6  7  1  0  0  0  0
  6 26  1  0  0  0  0
  6 27  1  0  0  0  0
  7  8  1  0  0  0  0
  7 28  1  0  0  0  0
  8  9  2  0  0  0  0
  8 10  1  0  0  0  0
 10 11  1  0  0  0  0
 10 29  1  0  0  0  0
 11 16  1  0  0  0  0
 11 12  2  0  0  0  0
 12 13  1  0  0  0  0
 12 30  1  0  0  0  0
 13 14  2  0  0  0  0
 13 31  1  0  0  0  0
 14 15  1  0  0  0  0
 15 16  2  0  0  0  0
 15 32  1  0  0  0  0
 16 33  1  0  0  0  0
 17 34  1  0  0  0  0
 17 35  1  0  0  0  0
M  CHG  1   2   1
M  END
> <s_m_source_file>
AV-unprocessed.smi

> <i_m_source_file_index>
3163

> <i_lp_mmshare_version>
43012

> <i_f3d_flags>
0

> <s_epik_input>
W0NIM11OMVtDSDJdW0NIMl1bQ0BIXShbQ0gyXTEpW0NIMl1bTkhdQyg9TylbTkhdYzJbY0hdW2NIXW5bY0hdW2NIXTI=

> <s_epik_cmdline>
J2VwaWtfcHl0aG9uJywgJy1waCcsICc3LjAnLCAnLXRuJywgJzgnLCAnLW1hJywgJzIwMCcsICctbWV0YWxfYmluZGluZycsICctaW1hZScsICc8aW5maWxlLm1hZT4nLCAnLW9tYWUnLCAnPG91dGZpbGUubWFlPic=

> <r_epik_Ionization_Penalty>
0.103936

> <r_epik_Ionization_Penalty_Charging>
0.0012301

> <r_epik_Ionization_Penalty_Neutral>
0.102706

> <r_epik_State_Penalty>
0.0926275

> <r_epik_Charging_Adjusted_Penalty>
0.0938576

> <i_epik_Tot_Q>
1

> <i_epik_Tot_abs_Q>
1

> <r_epik_Metal_State_Penalty>
0.0788376

> <b_epik_Metal_Only>
0

> <s_lp_Force_Field>
OPLS_2005

> <r_lp_Energy>
31.7685

> <b_lp_Chiralities_Consistent>
1

> <s_lp_Variant>
AV-unprocessed.smi:3163-2

> <Gold.Version>
5.8.1

> <Gold.Id.Protein>
6NUR|6NUR_protein|mol2

> <Gold.PLP.Fitness>
42.3721

> <Gold.PLP.PLP>
-28.1282

> <Gold.PLP.part.hbond>
-4.6454

> <Gold.PLP.part.metal>
0.0000

> <Gold.PLP.part.buried>
2.7334

> <Gold.PLP.part.nonpolar>
-29.4325

> <Gold.PLP.part.repulsive>
1.0990

> <Gold.PLP.ligand.clash>
0.0000

> <Gold.PLP.ligand.torsion>
0.3429

> <Gold.PLP.Chemscore.Hbond>
3.9760

> <Gold.PLP.Chemscore.CHOScore>
1.0000

> <Gold.PLP.Chemscore.Metal>
0.0000

> <Gold.Chemscore.Hbonds>
donor molecule, donor type, donor heavy atom, donor atom, acceptor molecule, acceptor atom, score
      L1  H     2    36       P1 10186  2.00
      L1  H     7    28       P1  7948  1.00
      L1  H    10    29       P1  7948  0.96
      L1  C    15    32       P1  8028  1.00

> <Gold.PLP.Chemscore.Internal.Correction>
0.0017

> <Gold.Rescore>
     Score         DG    S(hbond)    S(metal)    S(lipo)     H(rot)  DE(clash)    DE(int)     intcor
     15.08     -18.06       2.27        0.00      70.08       1.26       1.68       1.30       ----

> <Gold.Chemscore.Fitness>
15.0841

> <Gold.Chemscore.DG>
-18.0576

> <Gold.Chemscore.ZeroCoef>
-5.4800

> <Gold.Chemscore.Hbond>
2.2736

> <Gold.Chemscore.Metal>
0.0000

> <Gold.Chemscore.Lipo>
70.0767

> <Gold.Chemscore.Internal_Hbond>
0.0000

> <Gold.Chemscore.DEClash>
1.6765

> <Gold.Chemscore.DEInternal>
1.2970

> <Gold.Chemscore.Rot>
1.2559

> <Gold.Chemscore.Internal.Correction>
   9.000000E+99

> <Gold.Chemscore.Hbonds>
donor molecule, donor type, donor heavy atom, donor atom, acceptor molecule, acceptor atom, score
      L1  H     2    36       P1 10186  0.23
      L1  H     7    28       P1  7948  0.97
      L1  H    10    29       P1  7948  0.92

> <Gold.Chemscore.Hbond.Weighted>
-7.5938

> <Gold.Chemscore.Metal.Weighted>
-0.0000

> <Gold.Chemscore.Lipo.Weighted>
-8.1990

> <Gold.Chemscore.Internal_Hbond.Weighted>
0.0000

> <Gold.Chemscore.DEClash.Weighted>
1.6765

> <Gold.Chemscore.DEInternal.Weighted>
1.2970

> <Gold.Chemscore.Rot.Weighted>
3.2151

> <Gold.Chemscore.Internal.Correction.Weighted>
   9.000000E+99

> <Gold.Protein.RotatedTorsions>
[ 6907 6896 6895 6894 ] final  -77.83 input  -60.11 | X-H torsion
[ 7974 7965 7964 7962 ] final   66.38 input  175.53 | X-H torsion
[ 8008 7997 7996 7995 ] final   -4.65 input   59.86 | X-H torsion
[ 10167 10162 10161 10158 ] final   33.92 input  -65.29 | X-H torsion
[ 10718 10713 10712 10709 ] final  -83.12 input   66.30 | X-H torsion
[ 10763 10752 10751 10750 ] final  -49.66 input  -60.55 | X-H torsion
[ 11005 11000 10999 10996 ] final  -98.60 input  -57.11 | X-H torsion

> <Gold.Protein.ActiveResidues>
 VAL166  LYS551  ARG553  GLY616  TRP617  ASP618  TYR619  PRO620  LYS621  CYS622 
 ASP623  PHE694  ASN695  SER759  ASP760  ASP761  ALA762  ILE779  LEU786  VAL792 
 PHE793  MET794  SER795  GLU796  ALA797  LYS798  CYS799  TRP800  GLU811  SER814 

> <Gold.Protein.RotatedAtoms>
  150.6988  134.4363  159.5271 H   0  0  0  0  0  0  0  0  0  0  0  0  # atno 6907 bound_to 6896
  152.2081  134.8524  160.0509 H   0  0  0  0  0  0  0  0  0  0  0  0  # atno 6908 bound_to 6896
  151.9419  133.3605  159.4005 H   0  0  0  0  0  0  0  0  0  0  0  0  # atno 6909 bound_to 6896
  145.8273  139.3119  143.1008 H   0  0  0  0  0  0  0  0  0  0  0  0  # atno 7974 bound_to 7965
  154.6121  140.2478  155.7656 H   0  0  0  0  0  0  0  0  0  0  0  0  # atno 8008 bound_to 7997
  156.2377  140.2944  156.0307 H   0  0  0  0  0  0  0  0  0  0  0  0  # atno 8009 bound_to 7997
  155.2035  140.0395  157.2912 H   0  0  0  0  0  0  0  0  0  0  0  0  # atno 8010 bound_to 7997
  140.4363  144.1253  150.6167 H   0  0  0  0  0  0  0  0  0  0  0  0  # atno 10167 bound_to 10162
  156.0023  130.4656  150.4210 H   0  0  0  0  0  0  0  0  0  0  0  0  # atno 10718 bound_to 10713
  154.0977  135.6568  153.4863 H   0  0  0  0  0  0  0  0  0  0  0  0  # atno 10763 bound_to 10752
  153.0299  135.5217  154.7317 H   0  0  0  0  0  0  0  0  0  0  0  0  # atno 10764 bound_to 10752
  154.6460  135.2994  155.0014 H   0  0  0  0  0  0  0  0  0  0  0  0  # atno 10765 bound_to 10752
  141.1339  133.8258  157.0861 H   0  0  0  0  0  0  0  0  0  0  0  0  # atno 11005 bound_to 11000
  145.9609  140.8836  143.0211 LP  0  0  0  0  0  0  0  0  0  0  0  0  # atno 17320 bound_to 7965
  144.6742  140.1811  143.7405 LP  0  0  0  0  0  0  0  0  0  0  0  0  # atno 17321 bound_to 7965
  140.4370  143.2543  151.9522 LP  0  0  0  0  0  0  0  0  0  0  0  0  # atno 17342 bound_to 10162
  139.4787  144.5690  151.8118 LP  0  0  0  0  0  0  0  0  0  0  0  0  # atno 17343 bound_to 10162
  157.2266  131.0494  151.2516 LP  0  0  0  0  0  0  0  0  0  0  0  0  # atno 17370 bound_to 10713
  157.3751  130.7201  149.6591 LP  0  0  0  0  0  0  0  0  0  0  0  0  # atno 17371 bound_to 10713
  140.0421  134.9849  157.0981 LP  0  0  0  0  0  0  0  0  0  0  0  0  # atno 17394 bound_to 11000
  140.4119  134.1972  155.7163 LP  0  0  0  0  0  0  0  0  0  0  0  0  # atno 17395 bound_to 11000

$$$$
