AV-unprocessed.smi:1991|AV-procd|sdf|8067|dock5
  -GOLD-   2272010273D 1   1.00000     0.00000
 Structure written by MMmdl.
 44 45  0  0  0  0  0  0  0  0  1 V2000
  148.2218  136.3028  161.3390 C   0  0  0  0  0  0  0  0  0  0  0  0
  147.4088  136.4109  160.0401 C   0  0  2  0  0  0  0  0  0  0  0  0
  146.4845  135.3261  160.0197 O   0  0  0  0  0  0  0  0  0  0  0  0
  145.4749  135.3584  161.0238 C   0  0  0  0  0  0  0  0  0  0  0  0
  145.5322  134.0629  161.8420 C   0  0  0  0  0  0  0  0  0  0  0  0
  145.3844  133.0211  161.0244 F   0  0  0  0  0  0  0  0  0  0  0  0
  146.7085  133.9594  162.4596 F   0  0  0  0  0  0  0  0  0  0  0  0
  144.5497  134.0423  162.7422 F   0  0  0  0  0  0  0  0  0  0  0  0
  148.3176  136.3681  158.8008 C   0  0  0  0  0  0  0  0  0  0  0  0
  149.5364  136.2489  158.9272 O   0  0  0  0  0  0  0  0  0  0  0  0
  147.7036  136.4593  157.6105 N   0  0  0  0  0  0  0  0  0  0  0  0
  148.3604  136.4476  156.3072 C   0  0  0  0  0  0  0  0  0  0  0  0
  147.7287  137.4281  155.3226 C   0  0  0  0  0  0  0  0  0  0  0  0
  146.3903  137.2348  154.9153 C   0  0  0  0  0  0  0  0  0  0  0  0
  145.8067  138.1373  154.0081 C   0  0  0  0  0  0  0  0  0  0  0  0
  146.5866  139.2101  153.5411 C   0  0  0  0  0  0  0  0  0  0  0  0
  147.8643  139.4139  153.9224 N   0  0  0  0  0  0  0  0  0  0  0  0
  148.4301  138.5456  154.7962 C   0  0  0  0  0  0  0  0  0  0  0  0
  149.7629  138.7904  155.1626 N   0  0  0  0  0  0  0  0  0  0  0  0
  150.0148  140.1549  155.6086 C   0  0  0  0  0  0  0  0  0  0  0  0
  151.4581  140.2779  156.1261 C   0  0  0  0  0  0  0  0  0  0  0  0
  152.3670  139.8589  155.1117 O   0  0  0  0  0  0  0  0  0  0  0  0
  152.1605  138.5004  154.7341 C   0  0  0  0  0  0  0  0  0  0  0  0
  150.7356  138.3295  154.1803 C   0  0  0  0  0  0  0  0  0  0  0  0
  148.9722  137.0917  161.4040 H   0  0  0  0  0  0  0  0  0  0  0  0
  148.7354  135.3433  161.4128 H   0  0  0  0  0  0  0  0  0  0  0  0
  147.5721  136.3941  162.2096 H   0  0  0  0  0  0  0  0  0  0  0  0
  146.8607  137.3549  160.0610 H   0  0  0  0  0  0  0  0  0  0  0  0
  145.6300  136.2149  161.6813 H   0  0  0  0  0  0  0  0  0  0  0  0
  144.4852  135.4644  160.5782 H   0  0  0  0  0  0  0  0  0  0  0  0
  146.6983  136.5507  157.6072 H   0  0  0  0  0  0  0  0  0  0  0  0
  149.4204  136.6889  156.3984 H   0  0  0  0  0  0  0  0  0  0  0  0
  148.3279  135.4229  155.9403 H   0  0  0  0  0  0  0  0  0  0  0  0
  145.8128  136.4044  155.2933 H   0  0  0  0  0  0  0  0  0  0  0  0
  144.7858  138.0103  153.6797 H   0  0  0  0  0  0  0  0  0  0  0  0
  146.1740  139.9243  152.8441 H   0  0  0  0  0  0  0  0  0  0  0  0
  149.8574  140.8497  154.7823 H   0  0  0  0  0  0  0  0  0  0  0  0
  149.3095  140.4223  156.3965 H   0  0  0  0  0  0  0  0  0  0  0  0
  151.6754  141.3120  156.3940 H   0  0  0  0  0  0  0  0  0  0  0  0
  151.6009  139.6782  157.0266 H   0  0  0  0  0  0  0  0  0  0  0  0
  152.8946  138.2258  153.9766 H   0  0  0  0  0  0  0  0  0  0  0  0
  152.3256  137.8452  155.5909 H   0  0  0  0  0  0  0  0  0  0  0  0
  150.5499  137.2823  153.9388 H   0  0  0  0  0  0  0  0  0  0  0  0
  150.6257  138.8995  153.2566 H   0  0  0  0  0  0  0  0  0  0  0  0
  1  2  1  0  0  0  0
  1 25  1  0  0  0  0
  1 26  1  0  0  0  0
  1 27  1  0  0  0  0
  2  3  1  0  0  0  0
  2  9  1  0  0  0  0
  2 28  1  0  0  0  0
  3  4  1  0  0  0  0
  4  5  1  0  0  0  0
  4 29  1  0  0  0  0
  4 30  1  0  0  0  0
  5  6  1  0  0  0  0
  5  7  1  0  0  0  0
  5  8  1  0  0  0  0
  9 10  2  0  0  0  0
  9 11  1  0  0  0  0
 11 12  1  0  0  0  0
 11 31  1  0  0  0  0
 12 13  1  0  0  0  0
 12 32  1  0  0  0  0
 12 33  1  0  0  0  0
 13 18  1  0  0  0  0
 13 14  2  0  0  0  0
 14 15  1  0  0  0  0
 14 34  1  0  0  0  0
 15 16  2  0  0  0  0
 15 35  1  0  0  0  0
 16 17  1  0  0  0  0
 16 36  1  0  0  0  0
 17 18  2  0  0  0  0
 18 19  1  0  0  0  0
 19 24  1  0  0  0  0
 19 20  1  0  0  0  0
 20 21  1  0  0  0  0
 20 37  1  0  0  0  0
 20 38  1  0  0  0  0
 21 22  1  0  0  0  0
 21 39  1  0  0  0  0
 21 40  1  0  0  0  0
 22 23  1  0  0  0  0
 23 24  1  0  0  0  0
 23 41  1  0  0  0  0
 23 42  1  0  0  0  0
 24 43  1  0  0  0  0
 24 44  1  0  0  0  0
M  END
> <s_m_source_file>
AV-unprocessed.smi

> <i_m_source_file_index>
1991

> <i_lp_mmshare_version>
43012

> <i_f3d_flags>
0

> <s_epik_input>
RkMoRikoRilbQ0gyXU9bQ0BASF0oW0NIM10pQyg9TylbTkhdW0NIMl1jMVtjSF1bY0hdW2NIXW5jMU4yW0NIMl1bQ0gyXU9bQ0gyXVtDSDJdMg==

> <s_epik_cmdline>
J2VwaWtfcHl0aG9uJywgJy1waCcsICc3LjAnLCAnLXRuJywgJzgnLCAnLW1hJywgJzIwMCcsICctbWV0YWxfYmluZGluZycsICctaW1hZScsICc8aW5maWxlLm1hZT4nLCAnLW9tYWUnLCAnPG91dGZpbGUubWFlPic=

> <r_lp_tautomer_probability>
1

> <r_epik_Ionization_Penalty>
0.00436412

> <r_epik_Ionization_Penalty_Charging>
0

> <r_epik_Ionization_Penalty_Neutral>
0.00436412

> <r_epik_State_Penalty>
0.00314317

> <r_epik_Charging_Adjusted_Penalty>
0.00314317

> <i_epik_Tot_Q>
0

> <i_epik_Tot_abs_Q>
0

> <r_epik_Metal_State_Penalty>
-0

> <b_epik_Metal_Only>
0

> <s_lp_Force_Field>
OPLS_2005

> <r_lp_Energy>
21.8151

> <b_lp_Chiralities_Consistent>
1

> <s_lp_Variant>
AV-unprocessed.smi:1991-1

> <Gold.Version>
5.8.1

> <Gold.Id.Protein>
6NUR|6NUR_protein|mol2

> <Gold.PLP.Fitness>
39.5091

> <Gold.PLP.PLP>
-32.0757

> <Gold.PLP.part.hbond>
-2.2754

> <Gold.PLP.part.metal>
0.0000

> <Gold.PLP.part.buried>
-5.4450

> <Gold.PLP.part.nonpolar>
-25.2637

> <Gold.PLP.part.repulsive>
0.2747

> <Gold.PLP.ligand.clash>
0.0000

> <Gold.PLP.ligand.torsion>
0.9432

> <Gold.PLP.Chemscore.Hbond>
2.1270

> <Gold.PLP.Chemscore.CHOScore>
0.9081

> <Gold.PLP.Chemscore.Metal>
0.0000

> <Gold.Chemscore.Hbonds>
donor molecule, donor type, donor heavy atom, donor atom, acceptor molecule, acceptor atom, score
      P1  H  6896  6909       L1    10  0.94
      P1  H  7989  7998       L1    22  0.69
      P1  H  7997  8008       L1    22  0.47
      L1  C    16    36       P1 10175  0.85

> <Gold.PLP.Chemscore.Internal.Correction>
0.2145

> <Gold.Rescore>
     Score         DG    S(hbond)    S(metal)    S(lipo)     H(rot)  DE(clash)    DE(int)     intcor
     11.78     -12.50       1.93        0.00      59.42       2.49       0.01       0.71       ----

> <Gold.Chemscore.Fitness>
11.7819

> <Gold.Chemscore.DG>
-12.5022

> <Gold.Chemscore.ZeroCoef>
-5.4800

> <Gold.Chemscore.Hbond>
1.9294

> <Gold.Chemscore.Metal>
0.0000

> <Gold.Chemscore.Lipo>
59.4212

> <Gold.Chemscore.Internal_Hbond>
0.0000

> <Gold.Chemscore.DEClash>
0.0060

> <Gold.Chemscore.DEInternal>
0.7143

> <Gold.Chemscore.Rot>
2.4899

> <Gold.Chemscore.Internal.Correction>
   9.000000E+99

> <Gold.Chemscore.Hbonds>
donor molecule, donor type, donor heavy atom, donor atom, acceptor molecule, acceptor atom, score
      P1  H  6896  6909       L1    10  0.90
      P1  H  7989  7998       L1    22  0.09
      P1  H  7997  8008       L1    22  0.20

> <Gold.Chemscore.Hbond.Weighted>
-6.4441

> <Gold.Chemscore.Metal.Weighted>
-0.0000

> <Gold.Chemscore.Lipo.Weighted>
-6.9523

> <Gold.Chemscore.Internal_Hbond.Weighted>
0.0000

> <Gold.Chemscore.DEClash.Weighted>
0.0060

> <Gold.Chemscore.DEInternal.Weighted>
0.7143

> <Gold.Chemscore.Rot.Weighted>
6.3741

> <Gold.Chemscore.Internal.Correction.Weighted>
   9.000000E+99

> <Gold.Protein.RotatedTorsions>
[ 6907 6896 6895 6894 ] final   72.22 input  -60.11 | X-H torsion
[ 7974 7965 7964 7962 ] final -179.66 input  175.53 | X-H torsion
[ 8008 7997 7996 7995 ] final  -21.32 input   59.86 | X-H torsion
[ 10167 10162 10161 10158 ] final   95.48 input  -65.29 | X-H torsion
[ 10718 10713 10712 10709 ] final  -31.31 input   66.30 | X-H torsion
[ 10763 10752 10751 10750 ] final   84.35 input  -60.55 | X-H torsion
[ 11005 11000 10999 10996 ] final  108.03 input  -57.11 | X-H torsion

> <Gold.Protein.ActiveResidues>
 VAL166  LYS551  ARG553  GLY616  TRP617  ASP618  TYR619  PRO620  LYS621  CYS622 
 ASP623  PHE694  ASN695  SER759  ASP760  ASP761  ALA762  ILE779  LEU786  VAL792 
 PHE793  MET794  SER795  GLU796  ALA797  LYS798  CYS799  TRP800  GLU811  SER814 

> <Gold.Protein.RotatedAtoms>
  152.4856  134.4603  159.9602 H   0  0  0  0  0  0  0  0  0  0  0  0  # atno 6907 bound_to 6896
  151.4600  133.3589  159.2815 H   0  0  0  0  0  0  0  0  0  0  0  0  # atno 6908 bound_to 6896
  150.8963  134.8396  159.7389 H   0  0  0  0  0  0  0  0  0  0  0  0  # atno 6909 bound_to 6896
  144.7138  140.0684  143.6430 H   0  0  0  0  0  0  0  0  0  0  0  0  # atno 7974 bound_to 7965
  154.4713  140.2038  155.9988 H   0  0  0  0  0  0  0  0  0  0  0  0  # atno 8008 bound_to 7997
  156.1015  140.3243  155.7919 H   0  0  0  0  0  0  0  0  0  0  0  0  # atno 8009 bound_to 7997
  155.4789  140.0537  157.2960 H   0  0  0  0  0  0  0  0  0  0  0  0  # atno 8010 bound_to 7997
  139.7985  144.6823  150.9797 H   0  0  0  0  0  0  0  0  0  0  0  0  # atno 10167 bound_to 10162
  156.3888  130.4369  149.7411 H   0  0  0  0  0  0  0  0  0  0  0  0  # atno 10718 bound_to 10713
  153.1374  135.4657  154.9443 H   0  0  0  0  0  0  0  0  0  0  0  0  # atno 10763 bound_to 10752
  154.7718  135.3161  154.8177 H   0  0  0  0  0  0  0  0  0  0  0  0  # atno 10764 bound_to 10752
  153.8707  135.6904  153.4828 H   0  0  0  0  0  0  0  0  0  0  0  0  # atno 10765 bound_to 10752
  139.8837  134.9418  156.5909 H   0  0  0  0  0  0  0  0  0  0  0  0  # atno 11005 bound_to 11000
  145.9804  139.2937  143.1045 LP  0  0  0  0  0  0  0  0  0  0  0  0  # atno 17320 bound_to 7965
  145.9017  140.9238  143.0499 LP  0  0  0  0  0  0  0  0  0  0  0  0  # atno 17321 bound_to 7965
  140.7820  143.4306  151.0700 LP  0  0  0  0  0  0  0  0  0  0  0  0  # atno 17342 bound_to 10162
  139.7980  143.8125  152.3160 LP  0  0  0  0  0  0  0  0  0  0  0  0  # atno 17343 bound_to 10162
  156.4472  130.7889  151.2911 LP  0  0  0  0  0  0  0  0  0  0  0  0  # atno 17370 bound_to 10713
  157.7497  131.0106  150.3314 LP  0  0  0  0  0  0  0  0  0  0  0  0  # atno 17371 bound_to 10713
  140.7956  133.8547  155.8683 LP  0  0  0  0  0  0  0  0  0  0  0  0  # atno 17394 bound_to 11000
  140.9638  134.1620  157.4632 LP  0  0  0  0  0  0  0  0  0  0  0  0  # atno 17395 bound_to 11000

$$$$
