AV-unprocessed.smi:1199|AV-procd|sdf|5021|dock5
  -GOLD-   22720 4 43D 1   1.00000     0.00000
 Structure written by MMmdl.
 42 43  0  0  0  0  0  0  0  0  2 V2000
  143.7571  136.4456  152.3397 C   0  0  0  0  0  0  0  0  0  0  0  0
  145.2389  136.6325  151.9881 C   0  0  1  0  0  0  0  0  0  0  0  0
  145.5654  136.0817  150.5804 C   0  0  0  0  0  0  0  0  0  0  0  0
  145.5504  134.5972  150.5234 N   0  3  0  0  0  0  0  0  0  0  0  0
  146.4612  133.9545  151.5002 C   0  0  0  0  0  0  0  0  0  0  0  0
  146.4605  132.4312  151.2941 C   0  0  0  0  0  0  0  0  0  0  0  0
  145.1338  131.9368  151.4331 O   0  0  0  0  0  0  0  0  0  0  0  0
  144.2522  132.4897  150.4632 C   0  0  0  0  0  0  0  0  0  0  0  0
  144.1906  134.0187  150.6231 C   0  0  0  0  0  0  0  0  0  0  0  0
  145.5841  138.0511  152.0742 N   0  0  0  0  0  0  0  0  0  0  0  0
  146.3838  138.6101  152.9967 C   0  0  0  0  0  0  0  0  0  0  0  0
  146.8560  137.9966  153.9530 O   0  0  0  0  0  0  0  0  0  0  0  0
  146.7449  140.0803  152.7742 C   0  0  0  0  0  0  0  0  0  0  0  0
  147.5382  140.6000  153.8970 N   0  0  0  0  0  0  0  0  0  0  0  0
  148.8551  140.1651  153.9026 N   0  0  0  0  0  0  0  0  0  0  0  0
  149.6553  140.5381  154.8434 C   0  0  0  0  0  0  0  0  0  0  0  0
  150.9492  140.0799  154.8102 O   0  0  0  0  0  0  0  0  0  0  0  0
  149.2059  141.4115  155.9047 C   0  0  0  0  0  0  0  0  0  0  0  0
  147.9191  141.8226  155.8970 C   0  0  0  0  0  0  0  0  0  0  0  0
  146.9811  141.4062  154.8529 C   0  0  0  0  0  0  0  0  0  0  0  0
  145.7968  141.7390  154.8417 O   0  0  0  0  0  0  0  0  0  0  0  0
  150.9735  139.3459  155.4047 H   0  0  0  0  0  0  0  0  0  0  0  0
  143.4762  135.3927  152.3030 H   0  0  0  0  0  0  0  0  0  0  0  0
  143.1110  136.9862  151.6470 H   0  0  0  0  0  0  0  0  0  0  0  0
  143.5438  136.8078  153.3459 H   0  0  0  0  0  0  0  0  0  0  0  0
  145.8130  136.0712  152.7267 H   0  0  0  0  0  0  0  0  0  0  0  0
  144.8841  136.4916  149.8334 H   0  0  0  0  0  0  0  0  0  0  0  0
  146.5622  136.4311  150.3063 H   0  0  0  0  0  0  0  0  0  0  0  0
  147.4750  134.3365  151.3856 H   0  0  0  0  0  0  0  0  0  0  0  0
  146.1430  134.1951  152.5156 H   0  0  0  0  0  0  0  0  0  0  0  0
  146.8611  132.1704  150.3127 H   0  0  0  0  0  0  0  0  0  0  0  0
  147.0971  131.9508  152.0372 H   0  0  0  0  0  0  0  0  0  0  0  0
  144.5852  132.2187  149.4611 H   0  0  0  0  0  0  0  0  0  0  0  0
  143.2610  132.0562  150.5968 H   0  0  0  0  0  0  0  0  0  0  0  0
  143.7497  134.2809  151.5860 H   0  0  0  0  0  0  0  0  0  0  0  0
  143.5498  134.4399  149.8478 H   0  0  0  0  0  0  0  0  0  0  0  0
  145.2375  138.6460  151.3350 H   0  0  0  0  0  0  0  0  0  0  0  0
  147.2946  140.1813  151.8363 H   0  0  0  0  0  0  0  0  0  0  0  0
  145.8318  140.6639  152.6424 H   0  0  0  0  0  0  0  0  0  0  0  0
  149.8892  141.7231  156.6810 H   0  0  0  0  0  0  0  0  0  0  0  0
  147.5696  142.4745  156.6841 H   0  0  0  0  0  0  0  0  0  0  0  0
  145.8909  134.3510  149.6047 H   0  0  0  0  0  0  0  0  0  0  0  0
  1  2  1  0  0  0  0
  1 23  1  0  0  0  0
  1 24  1  0  0  0  0
  1 25  1  0  0  0  0
  2  3  1  0  0  0  0
  2 10  1  0  0  0  0
  2 26  1  0  0  0  0
  3  4  1  0  0  0  0
  3 27  1  0  0  0  0
  3 28  1  0  0  0  0
  4  9  1  0  0  0  0
  4  5  1  0  0  0  0
  4 42  1  0  0  0  0
  5  6  1  0  0  0  0
  5 29  1  0  0  0  0
  5 30  1  0  0  0  0
  6  7  1  0  0  0  0
  6 31  1  0  0  0  0
  6 32  1  0  0  0  0
  7  8  1  0  0  0  0
  8  9  1  0  0  0  0
  8 33  1  0  0  0  0
  8 34  1  0  0  0  0
  9 35  1  0  0  0  0
  9 36  1  0  0  0  0
 10 11  1  0  0  0  0
 10 37  1  0  0  0  0
 11 12  2  0  0  0  0
 11 13  1  0  0  0  0
 13 38  1  0  0  0  0
 13 39  1  0  0  0  0
 13 14  1  0  0  0  0
 14 15  1  0  0  0  0
 14 20  1  0  0  0  0
 15 16  2  0  0  0  0
 16 17  1  0  0  0  0
 16 18  1  0  0  0  0
 17 22  1  0  0  0  0
 18 40  1  0  0  0  0
 18 19  2  0  0  0  0
 19 41  1  0  0  0  0
 19 20  1  0  0  0  0
 20 21  2  0  0  0  0
M  CHG  1   4   1
M  END
> <s_m_source_file>
AV-unprocessed.smi

> <i_m_source_file_index>
1199

> <i_lp_mmshare_version>
43012

> <i_f3d_flags>
0

> <s_epik_input>
W0NIMl0xW0NIMl1PW0NIMl1bQ0gyXU4xW0NIMl1bQ0BASF0oW0NIM10pW05IXUMoPU8pW0NIMl1uMltuSF1jKD1PKVtjSF1bY0hdYzI9Tw==

> <s_epik_cmdline>
J2VwaWtfcHl0aG9uJywgJy1waCcsICc3LjAnLCAnLXRuJywgJzgnLCAnLW1hJywgJzIwMCcsICctbWV0YWxfYmluZGluZycsICctaW1hZScsICc8aW5maWxlLm1hZT4nLCAnLW9tYWUnLCAnPG91dGZpbGUubWFlPic=

> <r_lp_tautomer_probability>
0.9996

> <r_epik_Ionization_Penalty>
2.86815

> <r_epik_Ionization_Penalty_Charging>
0.656653

> <r_epik_Ionization_Penalty_Neutral>
2.21149

> <r_epik_State_Penalty>
2.43136

> <r_epik_Charging_Adjusted_Penalty>
3.08801

> <i_epik_Tot_Q>
1

> <i_epik_Tot_abs_Q>
1

> <r_epik_Metal_State_Penalty>
2.43136

> <b_epik_Metal_Only>
0

> <s_lp_Force_Field>
OPLS_2005

> <r_lp_Energy>
31.569

> <b_lp_Chiralities_Consistent>
1

> <s_lp_Variant>
AV-unprocessed.smi:1199-8

> <Gold.Version>
5.8.1

> <Gold.Id.Protein>
6NUR|6NUR_protein|mol2

> <Gold.PLP.Fitness>
39.6407

> <Gold.PLP.PLP>
-32.0280

> <Gold.PLP.part.hbond>
-3.7458

> <Gold.PLP.part.metal>
0.0000

> <Gold.PLP.part.buried>
-1.1456

> <Gold.PLP.part.nonpolar>
-29.7463

> <Gold.PLP.part.repulsive>
2.9678

> <Gold.PLP.ligand.clash>
0.0000

> <Gold.PLP.ligand.torsion>
0.4094

> <Gold.PLP.Chemscore.Hbond>
2.7771

> <Gold.PLP.Chemscore.CHOScore>
0.0000

> <Gold.PLP.Chemscore.Metal>
0.0000

> <Gold.Chemscore.Hbonds>
donor molecule, donor type, donor heavy atom, donor atom, acceptor molecule, acceptor atom, score
      L1  H     4    42       P1  7921  0.99
      L1  H    10    37       P1 10171  0.79
      P1  H  7989  7998       L1    17  1.00

> <Gold.PLP.Chemscore.Internal.Correction>
0.1002

> <Gold.Rescore>
     Score         DG    S(hbond)    S(metal)    S(lipo)     H(rot)  DE(clash)    DE(int)     intcor
     10.36     -12.76       2.31        0.00      62.60       3.03       0.58       1.82       ----

> <Gold.Chemscore.Fitness>
10.3598

> <Gold.Chemscore.DG>
-12.7555

> <Gold.Chemscore.ZeroCoef>
-5.4800

> <Gold.Chemscore.Hbond>
2.3106

> <Gold.Chemscore.Metal>
0.0000

> <Gold.Chemscore.Lipo>
62.5984

> <Gold.Chemscore.Internal_Hbond>
0.0000

> <Gold.Chemscore.DEClash>
0.5755

> <Gold.Chemscore.DEInternal>
1.8201

> <Gold.Chemscore.Rot>
3.0336

> <Gold.Chemscore.Internal.Correction>
   9.000000E+99

> <Gold.Chemscore.Hbonds>
donor molecule, donor type, donor heavy atom, donor atom, acceptor molecule, acceptor atom, score
      L1  H     4    42       P1  7921  0.48
      L1  H    10    37       P1 10171  0.73
      P1  H  7989  7998       L1    17  0.45

> <Gold.Chemscore.Hbond.Weighted>
-7.7175

> <Gold.Chemscore.Metal.Weighted>
-0.0000

> <Gold.Chemscore.Lipo.Weighted>
-7.3240

> <Gold.Chemscore.Internal_Hbond.Weighted>
0.0000

> <Gold.Chemscore.DEClash.Weighted>
0.5755

> <Gold.Chemscore.DEInternal.Weighted>
1.8201

> <Gold.Chemscore.Rot.Weighted>
7.7661

> <Gold.Chemscore.Internal.Correction.Weighted>
   9.000000E+99

> <Gold.Protein.RotatedTorsions>
[ 6907 6896 6895 6894 ] final  -39.82 input  -60.11 | X-H torsion
[ 7974 7965 7964 7962 ] final   41.89 input  175.53 | X-H torsion
[ 8008 7997 7996 7995 ] final  -69.21 input   59.86 | X-H torsion
[ 10167 10162 10161 10158 ] final -144.32 input  -65.29 | X-H torsion
[ 10718 10713 10712 10709 ] final    7.77 input   66.30 | X-H torsion
[ 10763 10752 10751 10750 ] final   96.07 input  -60.55 | X-H torsion
[ 11005 11000 10999 10996 ] final  -11.25 input  -57.11 | X-H torsion

> <Gold.Protein.ActiveResidues>
 VAL166  LYS551  ARG553  GLY616  TRP617  ASP618  TYR619  PRO620  LYS621  CYS622 
 ASP623  PHE694  ASN695  SER759  ASP760  ASP761  ALA762  ILE779  LEU786  VAL792 
 PHE793  MET794  SER795  GLU796  ALA797  LYS798  CYS799  TRP800  GLU811  SER814 

> <Gold.Protein.RotatedAtoms>
  150.9857  134.9203  159.7870 H   0  0  0  0  0  0  0  0  0  0  0  0  # atno 6907 bound_to 6896
  152.5236  134.3349  159.9206 H   0  0  0  0  0  0  0  0  0  0  0  0  # atno 6908 bound_to 6896
  151.3356  133.3942  159.2701 H   0  0  0  0  0  0  0  0  0  0  0  0  # atno 6909 bound_to 6896
  146.0786  139.5363  142.9552 H   0  0  0  0  0  0  0  0  0  0  0  0  # atno 7974 bound_to 7965
  154.4922  140.0858  156.7619 H   0  0  0  0  0  0  0  0  0  0  0  0  # atno 8008 bound_to 7997
  155.4203  140.3445  155.4252 H   0  0  0  0  0  0  0  0  0  0  0  0  # atno 8009 bound_to 7997
  156.1345  140.1511  156.9003 H   0  0  0  0  0  0  0  0  0  0  0  0  # atno 8010 bound_to 7997
  139.7910  143.7966  152.2650 H   0  0  0  0  0  0  0  0  0  0  0  0  # atno 10167 bound_to 10162
  156.9418  130.5864  149.5653 H   0  0  0  0  0  0  0  0  0  0  0  0  # atno 10718 bound_to 10713
  153.2606  135.4231  155.0890 H   0  0  0  0  0  0  0  0  0  0  0  0  # atno 10763 bound_to 10752
  154.8418  135.3448  154.6383 H   0  0  0  0  0  0  0  0  0  0  0  0  # atno 10764 bound_to 10752
  153.6803  135.7039  153.5177 H   0  0  0  0  0  0  0  0  0  0  0  0  # atno 10765 bound_to 10752
  140.7533  133.8574  155.9063 H   0  0  0  0  0  0  0  0  0  0  0  0  # atno 11005 bound_to 11000
  145.6260  141.0313  143.1889 LP  0  0  0  0  0  0  0  0  0  0  0  0  # atno 17320 bound_to 7965
  144.7278  139.7821  143.7358 LP  0  0  0  0  0  0  0  0  0  0  0  0  # atno 17321 bound_to 7965
  139.8057  144.7356  150.9764 LP  0  0  0  0  0  0  0  0  0  0  0  0  # atno 17342 bound_to 10162
  140.7820  143.4300  151.0709 LP  0  0  0  0  0  0  0  0  0  0  0  0  # atno 17343 bound_to 10162
  156.0401  130.5484  150.8750 LP  0  0  0  0  0  0  0  0  0  0  0  0  # atno 17370 bound_to 10713
  157.5780  131.0946  150.9315 LP  0  0  0  0  0  0  0  0  0  0  0  0  # atno 17371 bound_to 10713
  140.9730  134.1506  157.4560 LP  0  0  0  0  0  0  0  0  0  0  0  0  # atno 17394 bound_to 11000
  139.8783  134.9985  156.5904 LP  0  0  0  0  0  0  0  0  0  0  0  0  # atno 17395 bound_to 11000

$$$$
