AV-unprocessed.smi:317|AV-procd|sdf|2328|dock1
  -GOLD-   2262022233D 1   1.00000     0.00000
 Structure written by MMmdl.
 40 41  0  0  0  0  0  0  0  0  2 V2000
  149.9064  138.8794  154.5044 C   0  0  0  0  0  0  0  0  0  0  0  0
  151.1839  138.3590  155.1809 C   0  0  2  0  0  0  0  0  0  0  0  0
  151.0992  136.8550  155.5089 C   0  0  0  0  0  0  0  0  0  0  0  0
  152.2534  136.4371  156.2063 O   0  0  0  0  0  0  0  0  0  0  0  0
  151.4286  139.1323  156.3956 N   0  0  0  0  0  0  0  0  0  0  0  0
  151.4803  140.4701  156.4686 C   0  0  0  0  0  0  0  0  0  0  0  0
  151.3440  141.2120  155.4963 O   0  0  0  0  0  0  0  0  0  0  0  0
  151.7191  140.8784  157.7262 N   0  0  0  0  0  0  0  0  0  0  0  0
  151.8596  142.2099  158.2125 C   0  0  0  0  0  0  0  0  0  0  0  0
  151.3601  143.3197  157.4824 C   0  0  0  0  0  0  0  0  0  0  0  0
  151.5330  144.6250  157.9796 C   0  0  0  0  0  0  0  0  0  0  0  0
  152.1995  144.8037  159.2035 C   0  0  0  0  0  0  0  0  0  0  0  0
  152.6442  143.7278  159.8847 N   0  3  0  0  0  0  0  0  0  0  0  0
  152.4954  142.4458  159.4669 C   0  0  0  0  0  0  0  0  0  0  0  0
  153.0021  141.4209  160.2985 N   0  0  0  0  0  0  0  0  0  0  0  0
  153.8797  140.3924  159.7513 C   0  0  0  0  0  0  0  0  0  0  0  0
  154.4833  139.6982  160.9690 C   0  0  0  0  0  0  0  0  0  0  0  0
  154.6285  140.8470  161.9625 C   0  0  0  0  0  0  0  0  0  0  0  0
  153.4276  141.7484  161.6556 C   0  0  0  0  0  0  0  0  0  0  0  0
  149.7135  138.3553  153.5680 H   0  0  0  0  0  0  0  0  0  0  0  0
  149.9893  139.9417  154.2722 H   0  0  0  0  0  0  0  0  0  0  0  0
  149.0340  138.7454  155.1450 H   0  0  0  0  0  0  0  0  0  0  0  0
  152.0188  138.5248  154.4966 H   0  0  0  0  0  0  0  0  0  0  0  0
  150.2374  136.6447  156.1433 H   0  0  0  0  0  0  0  0  0  0  0  0
  150.9836  136.2607  154.6019 H   0  0  0  0  0  0  0  0  0  0  0  0
  152.0366  136.3485  157.1219 H   0  0  0  0  0  0  0  0  0  0  0  0
  151.5582  138.6037  157.2458 H   0  0  0  0  0  0  0  0  0  0  0  0
  151.9085  140.1490  158.3975 H   0  0  0  0  0  0  0  0  0  0  0  0
  150.8379  143.1917  156.5466 H   0  0  0  0  0  0  0  0  0  0  0  0
  151.1602  145.4760  157.4281 H   0  0  0  0  0  0  0  0  0  0  0  0
  152.3813  145.7655  159.6609 H   0  0  0  0  0  0  0  0  0  0  0  0
  153.3311  139.6945  159.1181 H   0  0  0  0  0  0  0  0  0  0  0  0
  154.6747  140.8458  159.1579 H   0  0  0  0  0  0  0  0  0  0  0  0
  153.7873  138.9543  161.3591 H   0  0  0  0  0  0  0  0  0  0  0  0
  155.4275  139.1991  160.7502 H   0  0  0  0  0  0  0  0  0  0  0  0
  154.6533  140.5125  162.9998 H   0  0  0  0  0  0  0  0  0  0  0  0
  155.5543  141.3880  161.7623 H   0  0  0  0  0  0  0  0  0  0  0  0
  153.6861  142.8028  161.7628 H   0  0  0  0  0  0  0  0  0  0  0  0
  152.6107  141.5253  162.3424 H   0  0  0  0  0  0  0  0  0  0  0  0
  153.1144  143.8898  160.7755 H   0  0  0  0  0  0  0  0  0  0  0  0
  1  2  1  0  0  0  0
  1 20  1  0  0  0  0
  1 21  1  0  0  0  0
  1 22  1  0  0  0  0
  2  3  1  0  0  0  0
  2  5  1  0  0  0  0
  2 23  1  0  0  0  0
  3  4  1  0  0  0  0
  3 24  1  0  0  0  0
  3 25  1  0  0  0  0
  4 26  1  0  0  0  0
  5  6  1  0  0  0  0
  5 27  1  0  0  0  0
  6  7  2  0  0  0  0
  6  8  1  0  0  0  0
  8  9  1  0  0  0  0
  8 28  1  0  0  0  0
  9 14  1  0  0  0  0
  9 10  2  0  0  0  0
 10 11  1  0  0  0  0
 10 29  1  0  0  0  0
 11 12  2  0  0  0  0
 11 30  1  0  0  0  0
 12 13  1  0  0  0  0
 12 31  1  0  0  0  0
 13 14  2  0  0  0  0
 13 40  1  0  0  0  0
 14 15  1  0  0  0  0
 15 19  1  0  0  0  0
 15 16  1  0  0  0  0
 16 17  1  0  0  0  0
 16 32  1  0  0  0  0
 16 33  1  0  0  0  0
 17 18  1  0  0  0  0
 17 34  1  0  0  0  0
 17 35  1  0  0  0  0
 18 19  1  0  0  0  0
 18 36  1  0  0  0  0
 18 37  1  0  0  0  0
 19 38  1  0  0  0  0
 19 39  1  0  0  0  0
M  CHG  1  13   1
M  END
> <s_m_source_file>
AV-unprocessed.smi

> <i_m_source_file_index>
317

> <i_lp_mmshare_version>
43012

> <i_f3d_flags>
0

> <s_epik_input>
W09IXVtDSDJdW0NAQEhdKFtDSDNdKVtOSF1DKD1PKVtOSF1jMVtjSF1bY0hdW2NIXW5jMU4yW0NIMl1bQ0gyXVtDSDJdW0NIMl0y

> <s_epik_cmdline>
J2VwaWtfcHl0aG9uJywgJy1waCcsICc3LjAnLCAnLXRuJywgJzgnLCAnLW1hJywgJzIwMCcsICctbWV0YWxfYmluZGluZycsICctaW1hZScsICc8aW5maWxlLm1hZT4nLCAnLW9tYWUnLCAnPG91dGZpbGUubWFlPic=

> <r_lp_tautomer_probability>
0.999994

> <r_epik_Ionization_Penalty>
1.11558

> <r_epik_Ionization_Penalty_Charging>
1.11556

> <r_epik_Ionization_Penalty_Neutral>
2.02999e-05

> <r_epik_State_Penalty>
1.17393

> <r_epik_Charging_Adjusted_Penalty>
2.28949

> <i_epik_Tot_Q>
1

> <i_epik_Tot_abs_Q>
1

> <r_epik_Metal_State_Penalty>
1.25924

> <b_epik_Metal_Only>
0

> <s_lp_Force_Field>
OPLS_2005

> <r_lp_Energy>
37.9657

> <b_lp_Chiralities_Consistent>
1

> <s_lp_Variant>
AV-unprocessed.smi:317-3

> <Gold.Version>
5.8.1

> <Gold.Id.Protein>
6NUR|6NUR_protein|mol2

> <Gold.PLP.Fitness>
41.9914

> <Gold.PLP.PLP>
-37.6393

> <Gold.PLP.part.hbond>
-2.0000

> <Gold.PLP.part.metal>
0.0000

> <Gold.PLP.part.buried>
-2.6842

> <Gold.PLP.part.nonpolar>
-32.6588

> <Gold.PLP.part.repulsive>
0.2195

> <Gold.PLP.ligand.clash>
0.0000

> <Gold.PLP.ligand.torsion>
0.3245

> <Gold.PLP.Chemscore.Hbond>
1.5280

> <Gold.PLP.Chemscore.CHOScore>
0.0000

> <Gold.PLP.Chemscore.Metal>
0.0000

> <Gold.Chemscore.Hbonds>
donor molecule, donor type, donor heavy atom, donor atom, acceptor molecule, acceptor atom, score
      P1  H  7989  7998       L1     7  0.51
      P1  H 10752 10765       L1     4  1.00

> <Gold.PLP.Chemscore.Internal.Correction>
0.4171

> <Gold.Rescore>
     Score         DG    S(hbond)    S(metal)    S(lipo)     H(rot)  DE(clash)    DE(int)     intcor
     14.39     -16.55       1.59        0.00      95.57       2.11       0.49       1.68       ----

> <Gold.Chemscore.Fitness>
14.3927

> <Gold.Chemscore.DG>
-16.5544

> <Gold.Chemscore.ZeroCoef>
-5.4800

> <Gold.Chemscore.Hbond>
1.5852

> <Gold.Chemscore.Metal>
0.0000

> <Gold.Chemscore.Lipo>
95.5675

> <Gold.Chemscore.Internal_Hbond>
0.0000

> <Gold.Chemscore.DEClash>
0.4863

> <Gold.Chemscore.DEInternal>
1.6753

> <Gold.Chemscore.Rot>
2.1099

> <Gold.Chemscore.Internal.Correction>
   9.000000E+99

> <Gold.Chemscore.Hbonds>
donor molecule, donor type, donor heavy atom, donor atom, acceptor molecule, acceptor atom, score
      P1  H  7989  7998       L1     7  0.49
      P1  H 10752 10765       L1     4  0.25

> <Gold.Chemscore.Hbond.Weighted>
-5.2944

> <Gold.Chemscore.Metal.Weighted>
-0.0000

> <Gold.Chemscore.Lipo.Weighted>
-11.1814

> <Gold.Chemscore.Internal_Hbond.Weighted>
0.0000

> <Gold.Chemscore.DEClash.Weighted>
0.4863

> <Gold.Chemscore.DEInternal.Weighted>
1.6753

> <Gold.Chemscore.Rot.Weighted>
5.4015

> <Gold.Chemscore.Internal.Correction.Weighted>
   9.000000E+99

> <Gold.Protein.RotatedTorsions>
[ 6907 6896 6895 6894 ] final -175.07 input  -60.11 | X-H torsion
[ 7974 7965 7964 7962 ] final -148.76 input  175.53 | X-H torsion
[ 8008 7997 7996 7995 ] final  -80.35 input   59.86 | X-H torsion
[ 10167 10162 10161 10158 ] final  -69.03 input  -65.29 | X-H torsion
[ 10718 10713 10712 10709 ] final -137.43 input   66.30 | X-H torsion
[ 10763 10752 10751 10750 ] final -159.75 input  -60.55 | X-H torsion
[ 11005 11000 10999 10996 ] final -148.58 input  -57.11 | X-H torsion

> <Gold.Protein.ActiveResidues>
 VAL166  LYS551  ARG553  GLY616  TRP617  ASP618  TYR619  PRO620  LYS621  CYS622 
 ASP623  PHE694  ASN695  SER759  ASP760  ASP761  ALA762  ILE779  LEU786  VAL792 
 PHE793  MET794  SER795  GLU796  ALA797  LYS798  CYS799  TRP800  GLU811  SER814 

> <Gold.Protein.RotatedAtoms>
  151.5825  133.3376  159.3011 H   0  0  0  0  0  0  0  0  0  0  0  0  # atno 6907 bound_to 6896
  150.8305  134.7559  159.6861 H   0  0  0  0  0  0  0  0  0  0  0  0  # atno 6908 bound_to 6896
  152.4389  134.5637  159.9953 H   0  0  0  0  0  0  0  0  0  0  0  0  # atno 6909 bound_to 6896
  144.8009  140.5154  143.5708 H   0  0  0  0  0  0  0  0  0  0  0  0  # atno 7974 bound_to 7965
  154.5875  140.0664  156.9191 H   0  0  0  0  0  0  0  0  0  0  0  0  # atno 8008 bound_to 7997
  155.2354  140.3340  155.4280 H   0  0  0  0  0  0  0  0  0  0  0  0  # atno 8009 bound_to 7997
  156.2233  140.1808  156.7410 H   0  0  0  0  0  0  0  0  0  0  0  0  # atno 8010 bound_to 7997
  140.5462  143.2313  151.6998 H   0  0  0  0  0  0  0  0  0  0  0  0  # atno 10167 bound_to 10162
  156.2880  130.7359  151.1376 H   0  0  0  0  0  0  0  0  0  0  0  0  # atno 10718 bound_to 10713
  154.7449  135.3077  154.8663 H   0  0  0  0  0  0  0  0  0  0  0  0  # atno 10763 bound_to 10752
  153.9467  135.6768  153.4748 H   0  0  0  0  0  0  0  0  0  0  0  0  # atno 10764 bound_to 10752
  153.1046  135.4895  154.8854 H   0  0  0  0  0  0  0  0  0  0  0  0  # atno 10765 bound_to 10752
  140.7597  134.3312  157.5105 H   0  0  0  0  0  0  0  0  0  0  0  0  # atno 11005 bound_to 11000
  145.5555  139.1478  143.3370 LP  0  0  0  0  0  0  0  0  0  0  0  0  # atno 17320 bound_to 7965
  146.2290  140.5692  142.8983 LP  0  0  0  0  0  0  0  0  0  0  0  0  # atno 17321 bound_to 7965
  139.5008  144.3891  152.0298 LP  0  0  0  0  0  0  0  0  0  0  0  0  # atno 17342 bound_to 10162
  140.3004  144.3653  150.6062 LP  0  0  0  0  0  0  0  0  0  0  0  0  # atno 17343 bound_to 10162
  157.7334  131.0591  150.5578 LP  0  0  0  0  0  0  0  0  0  0  0  0  # atno 17370 bound_to 10713
  156.5691  130.4275  149.6027 LP  0  0  0  0  0  0  0  0  0  0  0  0  # atno 17371 bound_to 10713
  139.8773  134.9194  156.3227 LP  0  0  0  0  0  0  0  0  0  0  0  0  # atno 17394 bound_to 11000
  140.9674  133.7349  156.0486 LP  0  0  0  0  0  0  0  0  0  0  0  0  # atno 17395 bound_to 11000

$$$$
