AV-unprocessed.smi:2424|AV-procd|sdf|9560|dock9
  -GOLD-   2272013193D 1   1.00000     0.00000
 Structure written by MMmdl.
 50 51  0  0  0  0  0  0  0  0  1 V2000
  145.1464  139.1813  156.4705 C   0  0  0  0  0  0  0  0  0  0  0  0
  146.5393  138.5326  156.4348 C   0  0  0  0  0  0  0  0  0  0  0  0
  147.3950  138.8746  155.1933 C   0  0  0  0  0  0  0  0  0  0  0  0
  148.6720  137.9929  155.2030 C   0  0  0  0  0  0  0  0  0  0  0  0
  149.8349  138.5117  154.3410 C   0  0  0  0  0  0  0  0  0  0  0  0
  146.6016  138.9363  153.8599 C   0  0  2  0  0  0  0  0  0  0  0  0
  146.8050  137.7871  152.9815 N   0  0  0  0  0  0  0  0  0  0  0  0
  145.8342  136.9940  152.5096 C   0  0  0  0  0  0  0  0  0  0  0  0
  144.6412  137.1685  152.7539 O   0  0  0  0  0  0  0  0  0  0  0  0
  146.3497  136.0100  151.7506 N   0  0  0  0  0  0  0  0  0  0  0  0
  145.6935  134.9522  151.1061 C   0  0  0  0  0  0  0  0  0  0  0  0
  144.5184  135.2165  150.5091 C   0  0  0  0  0  0  0  0  0  0  0  0
  143.7958  134.2251  149.8415 N   0  0  0  0  0  0  0  0  0  0  0  0
  144.1959  132.9384  149.7288 C   0  0  0  0  0  0  0  0  0  0  0  0
  143.5022  132.1209  149.1266 O   0  0  0  0  0  0  0  0  0  0  0  0
  145.4853  132.6188  150.3630 C   0  0  0  0  0  0  0  0  0  0  0  0
  145.9965  131.1927  150.2595 C   0  0  0  0  0  0  0  0  0  0  0  0
  146.1834  133.5804  151.0108 C   0  0  0  0  0  0  0  0  0  0  0  0
  147.4336  140.1487  153.4337 C   0  0  1  0  0  0  0  0  0  0  0  0
  146.8050  141.2364  152.5716 C   0  0  0  0  0  0  0  0  0  0  0  0
  147.6683  140.3867  154.9341 C   0  0  1  0  0  0  0  0  0  0  0  0
  146.6750  141.2582  155.4625 O   0  0  0  0  0  0  0  0  0  0  0  0
  146.9160  141.6172  156.8127 C   0  0  0  0  0  0  0  0  0  0  0  0
  142.9186  134.4993  149.4232 H   0  0  0  0  0  0  0  0  0  0  0  0
  144.6493  138.9618  157.4153 H   0  0  0  0  0  0  0  0  0  0  0  0
  144.5002  138.8106  155.6758 H   0  0  0  0  0  0  0  0  0  0  0  0
  145.2081  140.2649  156.3806 H   0  0  0  0  0  0  0  0  0  0  0  0
  147.0579  138.8602  157.3358 H   0  0  0  0  0  0  0  0  0  0  0  0
  146.4355  137.4552  156.5541 H   0  0  0  0  0  0  0  0  0  0  0  0
  149.0291  137.8351  156.2203 H   0  0  0  0  0  0  0  0  0  0  0  0
  148.4341  136.9923  154.8429 H   0  0  0  0  0  0  0  0  0  0  0  0
  150.6403  137.7777  154.3089 H   0  0  0  0  0  0  0  0  0  0  0  0
  150.2596  139.4316  154.7418 H   0  0  0  0  0  0  0  0  0  0  0  0
  149.5242  138.7017  153.3139 H   0  0  0  0  0  0  0  0  0  0  0  0
  145.5555  139.2115  154.0147 H   0  0  0  0  0  0  0  0  0  0  0  0
  147.7584  137.5749  152.7270 H   0  0  0  0  0  0  0  0  0  0  0  0
  147.3510  136.0246  151.6239 H   0  0  0  0  0  0  0  0  0  0  0  0
  144.0440  136.1872  150.4978 H   0  0  0  0  0  0  0  0  0  0  0  0
  146.9607  131.0770  150.7556 H   0  0  0  0  0  0  0  0  0  0  0  0
  146.1192  130.9068  149.2143 H   0  0  0  0  0  0  0  0  0  0  0  0
  145.2932  130.5013  150.7250 H   0  0  0  0  0  0  0  0  0  0  0  0
  147.1265  133.2974  151.4481 H   0  0  0  0  0  0  0  0  0  0  0  0
  148.3725  139.8192  152.9849 H   0  0  0  0  0  0  0  0  0  0  0  0
  145.8311  141.5416  152.9549 H   0  0  0  0  0  0  0  0  0  0  0  0
  146.6585  140.8886  151.5491 H   0  0  0  0  0  0  0  0  0  0  0  0
  147.4377  142.1232  152.5324 H   0  0  0  0  0  0  0  0  0  0  0  0
  148.6878  140.7189  155.1372 H   0  0  0  0  0  0  0  0  0  0  0  0
  146.0994  142.2399  157.1772 H   0  0  0  0  0  0  0  0  0  0  0  0
  147.8404  142.1885  156.9042 H   0  0  0  0  0  0  0  0  0  0  0  0
  146.9853  140.7408  157.4572 H   0  0  0  0  0  0  0  0  0  0  0  0
  1  2  1  0  0  0  0
  1 25  1  0  0  0  0
  1 26  1  0  0  0  0
  1 27  1  0  0  0  0
  2  3  1  0  0  0  0
  2 28  1  0  0  0  0
  2 29  1  0  0  0  0
  3 21  1  0  0  0  0
  3  4  1  0  0  0  0
  3  6  1  0  0  0  0
  4  5  1  0  0  0  0
  4 30  1  0  0  0  0
  4 31  1  0  0  0  0
  5 32  1  0  0  0  0
  5 33  1  0  0  0  0
  5 34  1  0  0  0  0
  6  7  1  0  0  0  0
  6 19  1  0  0  0  0
  6 35  1  0  0  0  0
  7  8  1  0  0  0  0
  7 36  1  0  0  0  0
  8  9  2  0  0  0  0
  8 10  1  0  0  0  0
 10 11  1  0  0  0  0
 10 37  1  0  0  0  0
 11 18  1  0  0  0  0
 11 12  2  0  0  0  0
 12 13  1  0  0  0  0
 12 38  1  0  0  0  0
 13 24  1  0  0  0  0
 13 14  1  0  0  0  0
 14 15  2  0  0  0  0
 14 16  1  0  0  0  0
 16 17  1  0  0  0  0
 16 18  2  0  0  0  0
 17 39  1  0  0  0  0
 17 40  1  0  0  0  0
 17 41  1  0  0  0  0
 18 42  1  0  0  0  0
 19 20  1  0  0  0  0
 19 21  1  0  0  0  0
 19 43  1  0  0  0  0
 20 44  1  0  0  0  0
 20 45  1  0  0  0  0
 20 46  1  0  0  0  0
 21 22  1  0  0  0  0
 21 47  1  0  0  0  0
 22 23  1  0  0  0  0
 23 48  1  0  0  0  0
 23 49  1  0  0  0  0
 23 50  1  0  0  0  0
M  END
> <s_m_source_file>
AV-unprocessed.smi

> <i_m_source_file_index>
2424

> <i_lp_mmshare_version>
43012

> <i_f3d_flags>
0

> <s_epik_input>
W0NIM11PW0NAQEhdMVtDQEhdKFtDSDNdKVtDQEBIXShDMShbQ0gyXVtDSDNdKVtDSDJdW0NIM10pW05IXUMoPU8pW05IXWMyW2NIXVtuSF1jKD1PKWMoW0NIM10pW2NIXTI=

> <s_epik_cmdline>
J2VwaWtfcHl0aG9uJywgJy1waCcsICc3LjAnLCAnLXRuJywgJzgnLCAnLW1hJywgJzIwMCcsICctbWV0YWxfYmluZGluZycsICctaW1hZScsICc8aW5maWxlLm1hZT4nLCAnLW9tYWUnLCAnPG91dGZpbGUubWFlPic=

> <r_lp_tautomer_probability>
1

> <r_epik_Ionization_Penalty>
4.7326e-05

> <r_epik_Ionization_Penalty_Charging>
2.70169e-05

> <r_epik_Ionization_Penalty_Neutral>
2.0309e-05

> <r_epik_State_Penalty>
-0

> <r_epik_Charging_Adjusted_Penalty>
2.70169e-05

> <i_epik_Tot_Q>
0

> <i_epik_Tot_abs_Q>
0

> <r_epik_Metal_State_Penalty>
0.0198736

> <b_epik_Metal_Only>
0

> <s_lp_Force_Field>
OPLS_2005

> <r_lp_Energy>
37.5965

> <b_lp_Chiralities_Consistent>
1

> <s_lp_Variant>
AV-unprocessed.smi:2424-2

> <Gold.Version>
5.8.1

> <Gold.Id.Protein>
6NUR|6NUR_protein|mol2

> <Gold.PLP.Fitness>
41.7897

> <Gold.PLP.PLP>
-28.7483

> <Gold.PLP.part.hbond>
-4.2015

> <Gold.PLP.part.metal>
0.0000

> <Gold.PLP.part.buried>
-5.2704

> <Gold.PLP.part.nonpolar>
-21.3815

> <Gold.PLP.part.repulsive>
0.6979

> <Gold.PLP.ligand.clash>
0.0000

> <Gold.PLP.ligand.torsion>
1.0205

> <Gold.PLP.Chemscore.Hbond>
3.7917

> <Gold.PLP.Chemscore.CHOScore>
1.0000

> <Gold.PLP.Chemscore.Metal>
0.0000

> <Gold.Chemscore.Hbonds>
donor molecule, donor type, donor heavy atom, donor atom, acceptor molecule, acceptor atom, score
      L1  H     7    36       P1  7948  0.90
      L1  H    10    37       P1  7948  1.00
      L1  H    13    24       P1 10186  0.94
      P1  H 10785 10796       L1    15  0.92
      L1  C    12    38       P1 10171  1.00

> <Gold.PLP.Chemscore.Internal.Correction>
0.7072

> <Gold.Rescore>
     Score         DG    S(hbond)    S(metal)    S(lipo)     H(rot)  DE(clash)    DE(int)     intcor
     17.92     -22.92       3.91        0.00      71.34       1.55       1.26       3.74       ----

> <Gold.Chemscore.Fitness>
17.9168

> <Gold.Chemscore.DG>
-22.9177

> <Gold.Chemscore.ZeroCoef>
-5.4800

> <Gold.Chemscore.Hbond>
3.9099

> <Gold.Chemscore.Metal>
0.0000

> <Gold.Chemscore.Lipo>
71.3425

> <Gold.Chemscore.Internal_Hbond>
0.0000

> <Gold.Chemscore.DEClash>
1.2637

> <Gold.Chemscore.DEInternal>
3.7371

> <Gold.Chemscore.Rot>
1.5502

> <Gold.Chemscore.Internal.Correction>
   9.000000E+99

> <Gold.Chemscore.Hbonds>
donor molecule, donor type, donor heavy atom, donor atom, acceptor molecule, acceptor atom, score
      L1  H     7    36       P1  7948  0.86
      L1  H    10    37       P1  7948  0.98
      L1  H    13    24       P1 10186  0.90
      P1  H 10785 10796       L1    15  0.84

> <Gold.Chemscore.Hbond.Weighted>
-13.0591

> <Gold.Chemscore.Metal.Weighted>
-0.0000

> <Gold.Chemscore.Lipo.Weighted>
-8.3471

> <Gold.Chemscore.Internal_Hbond.Weighted>
0.0000

> <Gold.Chemscore.DEClash.Weighted>
1.2637

> <Gold.Chemscore.DEInternal.Weighted>
3.7371

> <Gold.Chemscore.Rot.Weighted>
3.9685

> <Gold.Chemscore.Internal.Correction.Weighted>
   9.000000E+99

> <Gold.Protein.RotatedTorsions>
[ 6907 6896 6895 6894 ] final  111.00 input  -60.11 | X-H torsion
[ 7974 7965 7964 7962 ] final  159.67 input  175.53 | X-H torsion
[ 8008 7997 7996 7995 ] final   13.67 input   59.86 | X-H torsion
[ 10167 10162 10161 10158 ] final  107.60 input  -65.29 | X-H torsion
[ 10718 10713 10712 10709 ] final -145.81 input   66.30 | X-H torsion
[ 10763 10752 10751 10750 ] final  169.26 input  -60.55 | X-H torsion
[ 11005 11000 10999 10996 ] final -154.21 input  -57.11 | X-H torsion

> <Gold.Protein.ActiveResidues>
 VAL166  LYS551  ARG553  GLY616  TRP617  ASP618  TYR619  PRO620  LYS621  CYS622 
 ASP623  PHE694  ASN695  SER759  ASP760  ASP761  ALA762  ILE779  LEU786  VAL792 
 PHE793  MET794  SER795  GLU796  ALA797  LYS798  CYS799  TRP800  GLU811  SER814 

> <Gold.Protein.RotatedAtoms>
  152.4992  133.8720  159.7303 H   0  0  0  0  0  0  0  0  0  0  0  0  # atno 6907 bound_to 6896
  150.9204  133.6878  159.2840 H   0  0  0  0  0  0  0  0  0  0  0  0  # atno 6908 bound_to 6896
  151.4257  135.1008  159.9679 H   0  0  0  0  0  0  0  0  0  0  0  0  # atno 6909 bound_to 6896
  144.7778  139.7650  143.6272 H   0  0  0  0  0  0  0  0  0  0  0  0  # atno 7974 bound_to 7965
  154.8378  140.2910  155.5679 H   0  0  0  0  0  0  0  0  0  0  0  0  # atno 8008 bound_to 7997
  156.3010  140.2520  156.3246 H   0  0  0  0  0  0  0  0  0  0  0  0  # atno 8009 bound_to 7997
  154.9159  140.0387  157.1961 H   0  0  0  0  0  0  0  0  0  0  0  0  # atno 8010 bound_to 7997
  139.6914  144.7107  151.1342 H   0  0  0  0  0  0  0  0  0  0  0  0  # atno 10167 bound_to 10162
  156.3871  130.7866  151.2065 H   0  0  0  0  0  0  0  0  0  0  0  0  # atno 10718 bound_to 10713
  154.3805  135.2753  155.2214 H   0  0  0  0  0  0  0  0  0  0  0  0  # atno 10763 bound_to 10752
  154.4322  135.5974  153.6080 H   0  0  0  0  0  0  0  0  0  0  0  0  # atno 10764 bound_to 10752
  152.9835  135.5998  154.4047 H   0  0  0  0  0  0  0  0  0  0  0  0  # atno 10765 bound_to 10752
  140.6998  134.3950  157.5211 H   0  0  0  0  0  0  0  0  0  0  0  0  # atno 11005 bound_to 11000
  146.1968  139.5238  142.9769 LP  0  0  0  0  0  0  0  0  0  0  0  0  # atno 17320 bound_to 7965
  145.6137  141.0335  143.1952 LP  0  0  0  0  0  0  0  0  0  0  0  0  # atno 17321 bound_to 7965
  140.7683  143.5554  150.9158 LP  0  0  0  0  0  0  0  0  0  0  0  0  # atno 17342 bound_to 10162
  139.9231  143.6582  152.3092 LP  0  0  0  0  0  0  0  0  0  0  0  0  # atno 17343 bound_to 10162
  157.7496  131.0327  150.4237 LP  0  0  0  0  0  0  0  0  0  0  0  0  # atno 17370 bound_to 10713
  156.4492  130.4008  149.6647 LP  0  0  0  0  0  0  0  0  0  0  0  0  # atno 17371 bound_to 10713
  139.8900  134.8816  156.2393 LP  0  0  0  0  0  0  0  0  0  0  0  0  # atno 17394 bound_to 11000
  141.0173  133.7061  156.1210 LP  0  0  0  0  0  0  0  0  0  0  0  0  # atno 17395 bound_to 11000

$$$$
