AV-unprocessed.smi:1406|AV-procd|sdf|5717|dock10
  -GOLD-   22720 5353D 1   1.00000     0.00000
 Structure written by MMmdl.
 41 43  0  0  0  0  0  0  0  0  2 V2000
  151.3642  137.7118  158.8946 C   0  0  0  0  0  0  0  0  0  0  0  0
  152.3893  138.3467  157.9329 C   0  0  2  0  0  0  0  0  0  0  0  0
  153.2960  139.3788  158.6225 C   0  0  0  0  0  0  0  0  0  0  0  0
  154.5129  139.2040  158.6915 O   0  0  0  0  0  0  0  0  0  0  0  0
  152.6854  140.4643  159.1251 N   0  0  0  0  0  0  0  0  0  0  0  0
  153.3491  141.5476  159.8478 C   0  0  2  0  0  0  0  0  0  0  0  0
  153.1921  141.4351  161.3760 C   0  0  0  0  0  0  0  0  0  0  0  0
  152.9752  142.8765  161.8483 C   0  0  0  0  0  0  0  0  0  0  0  0
  152.2314  143.4764  160.7347 N   0  3  1  0  0  0  0  0  0  0  0  0
  152.0432  144.9410  160.7157 C   0  0  0  0  0  0  0  0  0  0  0  0
  151.0772  145.2920  159.5637 C   0  0  0  0  0  0  0  0  0  0  0  0
  151.5279  144.6855  158.2148 C   0  0  0  0  0  0  0  0  0  0  0  0
  151.8353  143.1769  158.3358 C   0  0  0  0  0  0  0  0  0  0  0  0
  152.8295  142.9612  159.4908 C   0  0  2  0  0  0  0  0  0  0  0  0
  151.7505  138.9354  156.7624 N   0  0  0  0  0  0  0  0  0  0  0  0
  152.2932  139.4887  155.6757 C   0  0  0  0  0  0  0  0  0  0  0  0
  151.4064  139.9688  154.8155 N   0  0  0  0  0  0  0  0  0  0  0  0
  150.2538  139.6652  155.4828 C   0  0  0  0  0  0  0  0  0  0  0  0
  150.4033  139.0555  156.6585 N   0  0  0  0  0  0  0  0  0  0  0  0
  151.8617  137.2258  159.7345 H   0  0  0  0  0  0  0  0  0  0  0  0
  150.7719  136.9522  158.3836 H   0  0  0  0  0  0  0  0  0  0  0  0
  150.6718  138.4496  159.3025 H   0  0  0  0  0  0  0  0  0  0  0  0
  153.0340  137.5422  157.5745 H   0  0  0  0  0  0  0  0  0  0  0  0
  151.6830  140.5302  159.0232 H   0  0  0  0  0  0  0  0  0  0  0  0
  154.4175  141.5121  159.6240 H   0  0  0  0  0  0  0  0  0  0  0  0
  152.3111  140.8407  161.6236 H   0  0  0  0  0  0  0  0  0  0  0  0
  154.0516  140.9643  161.8541 H   0  0  0  0  0  0  0  0  0  0  0  0
  152.4237  142.9342  162.7871 H   0  0  0  0  0  0  0  0  0  0  0  0
  153.9304  143.3889  161.9732 H   0  0  0  0  0  0  0  0  0  0  0  0
  151.6284  145.2722  161.6683 H   0  0  0  0  0  0  0  0  0  0  0  0
  153.0036  145.4426  160.5874 H   0  0  0  0  0  0  0  0  0  0  0  0
  150.0822  144.9162  159.8056 H   0  0  0  0  0  0  0  0  0  0  0  0
  150.9809  146.3745  159.4733 H   0  0  0  0  0  0  0  0  0  0  0  0
  150.7641  144.8522  157.4546 H   0  0  0  0  0  0  0  0  0  0  0  0
  152.4216  145.2072  157.8699 H   0  0  0  0  0  0  0  0  0  0  0  0
  150.9149  142.6195  158.5154 H   0  0  0  0  0  0  0  0  0  0  0  0
  152.2514  142.8122  157.3964 H   0  0  0  0  0  0  0  0  0  0  0  0
  153.7160  143.5639  159.2808 H   0  0  0  0  0  0  0  0  0  0  0  0
  153.3595  139.5451  155.5118 H   0  0  0  0  0  0  0  0  0  0  0  0
  149.2755  139.9062  155.0934 H   0  0  0  0  0  0  0  0  0  0  0  0
  151.3070  143.0724  160.7846 H   0  0  0  0  0  0  0  0  0  0  0  0
  1  2  1  0  0  0  0
  1 20  1  0  0  0  0
  1 21  1  0  0  0  0
  1 22  1  0  0  0  0
  2  3  1  0  0  0  0
  2 15  1  0  0  0  0
  2 23  1  0  0  0  0
  3  4  2  0  0  0  0
  3  5  1  0  0  0  0
  5  6  1  0  0  0  0
  5 24  1  0  0  0  0
  6 14  1  0  0  0  0
  6  7  1  0  0  0  0
  6 25  1  0  0  0  0
  7  8  1  0  0  0  0
  7 26  1  0  0  0  0
  7 27  1  0  0  0  0
  8  9  1  0  0  0  0
  8 28  1  0  0  0  0
  8 29  1  0  0  0  0
  9 14  1  0  0  0  0
  9 10  1  0  0  0  0
  9 41  1  0  0  0  0
 10 11  1  0  0  0  0
 10 30  1  0  0  0  0
 10 31  1  0  0  0  0
 11 12  1  0  0  0  0
 11 32  1  0  0  0  0
 11 33  1  0  0  0  0
 12 13  1  0  0  0  0
 12 34  1  0  0  0  0
 12 35  1  0  0  0  0
 13 14  1  0  0  0  0
 13 36  1  0  0  0  0
 13 37  1  0  0  0  0
 14 38  1  0  0  0  0
 15 19  1  0  0  0  0
 15 16  1  0  0  0  0
 16 17  2  0  0  0  0
 16 39  1  0  0  0  0
 17 18  1  0  0  0  0
 18 19  2  0  0  0  0
 18 40  1  0  0  0  0
M  CHG  1   9   1
M  END
> <s_m_source_file>
AV-unprocessed.smi

> <i_m_source_file_index>
1406

> <i_lp_mmshare_version>
43012

> <i_f3d_flags>
0

> <s_epik_input>
bjFbY0hdbltjSF1uMVtDQEhdKFtDSDNdKUMoPU8pW05IXVtDQEhdKFtDSDJdW0NIMl0yKVtDQEBIXShOMjMpW0NIMl1bQ0gyXVtDSDJdW0NIMl0z

> <s_epik_cmdline>
J2VwaWtfcHl0aG9uJywgJy1waCcsICc3LjAnLCAnLXRuJywgJzgnLCAnLW1hJywgJzIwMCcsICctbWV0YWxfYmluZGluZycsICctaW1hZScsICc8aW5maWxlLm1hZT4nLCAnLW9tYWUnLCAnPG91dGZpbGUubWFlPic=

> <r_lp_tautomer_probability>
1

> <r_epik_Ionization_Penalty>
0.00197066

> <r_epik_Ionization_Penalty_Charging>
0.00196223

> <r_epik_Ionization_Penalty_Neutral>
8.43107e-06

> <r_epik_State_Penalty>
0.00133866

> <r_epik_Charging_Adjusted_Penalty>
0.00330089

> <i_epik_Tot_Q>
1

> <i_epik_Tot_abs_Q>
1

> <r_epik_Metal_State_Penalty>
-0

> <b_epik_Metal_Only>
0

> <s_lp_Force_Field>
OPLS_2005

> <r_lp_Energy>
47.4686

> <b_lp_Chiralities_Consistent>
1

> <s_lp_Variant>
AV-unprocessed.smi:1406-9

> <Gold.Version>
5.8.1

> <Gold.Id.Protein>
6NUR|6NUR_protein|mol2

> <Gold.PLP.Fitness>
46.3990

> <Gold.PLP.PLP>
-40.9953

> <Gold.PLP.part.hbond>
-2.0000

> <Gold.PLP.part.metal>
0.0000

> <Gold.PLP.part.buried>
-5.8012

> <Gold.PLP.part.nonpolar>
-32.8131

> <Gold.PLP.part.repulsive>
0.2385

> <Gold.PLP.ligand.clash>
0.0000

> <Gold.PLP.ligand.torsion>
0.3464

> <Gold.PLP.Chemscore.Hbond>
2.0000

> <Gold.PLP.Chemscore.CHOScore>
0.0000

> <Gold.PLP.Chemscore.Metal>
0.0000

> <Gold.Chemscore.Hbonds>
donor molecule, donor type, donor heavy atom, donor atom, acceptor molecule, acceptor atom, score
      P1  H  7989  7998       L1    17  1.00
      P1  H  7997  8008       L1     4  1.00

> <Gold.PLP.Chemscore.Internal.Correction>
0.0966

> <Gold.Rescore>
     Score         DG    S(hbond)    S(metal)    S(lipo)     H(rot)  DE(clash)    DE(int)     intcor
     17.99     -18.40       1.77        0.00     101.04       1.89       0.05       0.36       ----

> <Gold.Chemscore.Fitness>
17.9877

> <Gold.Chemscore.DG>
-18.3982

> <Gold.Chemscore.ZeroCoef>
-5.4800

> <Gold.Chemscore.Hbond>
1.7741

> <Gold.Chemscore.Metal>
0.0000

> <Gold.Chemscore.Lipo>
101.0447

> <Gold.Chemscore.Internal_Hbond>
0.0000

> <Gold.Chemscore.DEClash>
0.0512

> <Gold.Chemscore.DEInternal>
0.3593

> <Gold.Chemscore.Rot>
1.8865

> <Gold.Chemscore.Internal.Correction>
   9.000000E+99

> <Gold.Chemscore.Hbonds>
donor molecule, donor type, donor heavy atom, donor atom, acceptor molecule, acceptor atom, score
      P1  H  7989  7998       L1    17  0.99
      P1  H  7997  8008       L1     4  0.50

> <Gold.Chemscore.Hbond.Weighted>
-5.9255

> <Gold.Chemscore.Metal.Weighted>
-0.0000

> <Gold.Chemscore.Lipo.Weighted>
-11.8222

> <Gold.Chemscore.Internal_Hbond.Weighted>
0.0000

> <Gold.Chemscore.DEClash.Weighted>
0.0512

> <Gold.Chemscore.DEInternal.Weighted>
0.3593

> <Gold.Chemscore.Rot.Weighted>
4.8295

> <Gold.Chemscore.Internal.Correction.Weighted>
   9.000000E+99

> <Gold.Protein.RotatedTorsions>
[ 6907 6896 6895 6894 ] final   48.74 input  -60.11 | X-H torsion
[ 7974 7965 7964 7962 ] final  107.28 input  175.53 | X-H torsion
[ 8008 7997 7996 7995 ] final -122.12 input   59.86 | X-H torsion
[ 10167 10162 10161 10158 ] final  -81.86 input  -65.29 | X-H torsion
[ 10718 10713 10712 10709 ] final    9.99 input   66.30 | X-H torsion
[ 10763 10752 10751 10750 ] final   40.29 input  -60.55 | X-H torsion
[ 11005 11000 10999 10996 ] final  163.20 input  -57.11 | X-H torsion

> <Gold.Protein.ActiveResidues>
 VAL166  LYS551  ARG553  GLY616  TRP617  ASP618  TYR619  PRO620  LYS621  CYS622 
 ASP623  PHE694  ASN695  SER759  ASP760  ASP761  ALA762  ILE779  LEU786  VAL792 
 PHE793  MET794  SER795  GLU796  ALA797  LYS798  CYS799  TRP800  GLU811  SER814 

> <Gold.Protein.RotatedAtoms>
  152.2830  134.7808  160.0392 H   0  0  0  0  0  0  0  0  0  0  0  0  # atno 6907 bound_to 6896
  151.8380  133.3414  159.3642 H   0  0  0  0  0  0  0  0  0  0  0  0  # atno 6908 bound_to 6896
  150.7197  134.5347  159.5762 H   0  0  0  0  0  0  0  0  0  0  0  0  # atno 6909 bound_to 6896
  145.2956  139.2586  143.3841 H   0  0  0  0  0  0  0  0  0  0  0  0  # atno 7974 bound_to 7965
  155.1591  140.0405  157.2838 H   0  0  0  0  0  0  0  0  0  0  0  0  # atno 8008 bound_to 7997
  154.6349  140.2533  155.7363 H   0  0  0  0  0  0  0  0  0  0  0  0  # atno 8009 bound_to 7997
  156.2503  140.2867  156.0717 H   0  0  0  0  0  0  0  0  0  0  0  0  # atno 8010 bound_to 7997
  140.4373  143.2527  151.8676 H   0  0  0  0  0  0  0  0  0  0  0  0  # atno 10167 bound_to 10162
  156.9745  130.5982  149.5671 H   0  0  0  0  0  0  0  0  0  0  0  0  # atno 10718 bound_to 10713
  152.9941  135.6196  154.2602 H   0  0  0  0  0  0  0  0  0  0  0  0  # atno 10763 bound_to 10752
  154.2338  135.2791  155.2881 H   0  0  0  0  0  0  0  0  0  0  0  0  # atno 10764 bound_to 10752
  154.5427  135.5756  153.6911 H   0  0  0  0  0  0  0  0  0  0  0  0  # atno 10765 bound_to 10752
  140.2334  134.8107  157.3339 H   0  0  0  0  0  0  0  0  0  0  0  0  # atno 11005 bound_to 11000
  146.3170  140.3458  142.8652 LP  0  0  0  0  0  0  0  0  0  0  0  0  # atno 17320 bound_to 7965
  144.9136  140.7786  143.5792 LP  0  0  0  0  0  0  0  0  0  0  0  0  # atno 17321 bound_to 7965
  139.4787  144.5269  151.8723 LP  0  0  0  0  0  0  0  0  0  0  0  0  # atno 17342 bound_to 10162
  140.4359  144.2052  150.5889 LP  0  0  0  0  0  0  0  0  0  0  0  0  # atno 17343 bound_to 10162
  156.0269  130.5363  150.8431 LP  0  0  0  0  0  0  0  0  0  0  0  0  # atno 17370 bound_to 10713
  157.5570  131.0945  150.9615 LP  0  0  0  0  0  0  0  0  0  0  0  0  # atno 17371 bound_to 10713
  140.1727  134.4588  155.7821 LP  0  0  0  0  0  0  0  0  0  0  0  0  # atno 17394 bound_to 11000
  141.2216  133.6949  156.7735 LP  0  0  0  0  0  0  0  0  0  0  0  0  # atno 17395 bound_to 11000

$$$$
