AV-unprocessed.smi:2838|AV-procd|sdf|10929|dock1
  -GOLD-   2272015373D 1   1.00000     0.00000
 Structure written by MMmdl.
 48 49  0  0  0  0  0  0  0  0  1 V2000
  146.7113  141.8352  153.7398 C   0  0  0  0  0  0  0  0  0  0  0  0
  146.6940  140.3971  154.2864 C   0  0  1  0  0  0  0  0  0  0  0  0
  146.1438  139.5251  153.2473 N   0  0  0  0  0  0  0  0  0  0  0  0
  146.1999  138.1848  153.2314 C   0  0  0  0  0  0  0  0  0  0  0  0
  146.7332  137.5133  154.1137 O   0  0  0  0  0  0  0  0  0  0  0  0
  145.5917  137.6894  152.1402 N   0  0  0  0  0  0  0  0  0  0  0  0
  145.4506  136.3315  151.7461 C   0  0  0  0  0  0  0  0  0  0  0  0
  145.9730  135.3216  152.5785 C   0  0  0  0  0  0  0  0  0  0  0  0
  145.8620  134.0123  152.2712 N   0  0  0  0  0  0  0  0  0  0  0  0
  145.1949  133.6900  151.1552 C   0  0  0  0  0  0  0  0  0  0  0  0
  145.2008  132.2099  150.7340 C   0  0  0  0  0  0  0  0  0  0  0  0
  145.9334  131.3373  151.7803 C   0  0  0  0  0  0  0  0  0  0  0  0
  145.9635  132.0111  149.4029 C   0  0  0  0  0  0  0  0  0  0  0  0
  143.7513  131.7163  150.5726 C   0  0  0  0  0  0  0  0  0  0  0  0
  144.6870  134.5698  150.2820 N   0  0  0  0  0  0  0  0  0  0  0  0
  144.7928  135.8833  150.5758 C   0  0  0  0  0  0  0  0  0  0  0  0
  148.0915  139.8960  154.7400 C   0  0  0  0  0  0  0  0  0  0  0  0
  148.9005  140.9790  155.4868 C   0  0  0  0  0  0  0  0  0  0  0  0
  150.3077  140.4782  155.8489 C   0  0  0  0  0  0  0  0  0  0  0  0
  150.9935  140.0646  154.6742 O   0  0  0  0  0  0  0  0  0  0  0  0
  150.3525  138.9757  154.0222 C   0  0  0  0  0  0  0  0  0  0  0  0
  148.9462  139.3900  153.5600 C   0  0  0  0  0  0  0  0  0  0  0  0
  146.9849  142.5576  154.5083 H   0  0  0  0  0  0  0  0  0  0  0  0
  145.7260  142.1248  153.3725 H   0  0  0  0  0  0  0  0  0  0  0  0
  147.4166  141.9393  152.9147 H   0  0  0  0  0  0  0  0  0  0  0  0
  146.0357  140.3904  155.1567 H   0  0  0  0  0  0  0  0  0  0  0  0
  145.6824  139.9839  152.4757 H   0  0  0  0  0  0  0  0  0  0  0  0
  145.1410  138.3632  151.5387 H   0  0  0  0  0  0  0  0  0  0  0  0
  146.4926  135.5633  153.4943 H   0  0  0  0  0  0  0  0  0  0  0  0
  145.9801  130.2945  151.4648 H   0  0  0  0  0  0  0  0  0  0  0  0
  145.4307  131.3499  152.7480 H   0  0  0  0  0  0  0  0  0  0  0  0
  146.9577  131.6787  151.9352 H   0  0  0  0  0  0  0  0  0  0  0  0
  146.9895  132.3745  149.4738 H   0  0  0  0  0  0  0  0  0  0  0  0
  145.4836  132.5338  148.5748 H   0  0  0  0  0  0  0  0  0  0  0  0
  146.0079  130.9574  149.1247 H   0  0  0  0  0  0  0  0  0  0  0  0
  143.7187  130.6674  150.2762 H   0  0  0  0  0  0  0  0  0  0  0  0
  143.2207  132.2902  149.8121 H   0  0  0  0  0  0  0  0  0  0  0  0
  143.1939  131.8124  151.5051 H   0  0  0  0  0  0  0  0  0  0  0  0
  144.3334  136.5541  149.8674 H   0  0  0  0  0  0  0  0  0  0  0  0
  147.9441  139.0617  155.4278 H   0  0  0  0  0  0  0  0  0  0  0  0
  148.9830  141.8713  154.8648 H   0  0  0  0  0  0  0  0  0  0  0  0
  148.3910  141.2837  156.4011 H   0  0  0  0  0  0  0  0  0  0  0  0
  150.8768  141.2766  156.3251 H   0  0  0  0  0  0  0  0  0  0  0  0
  150.2571  139.6553  156.5636 H   0  0  0  0  0  0  0  0  0  0  0  0
  150.9546  138.6783  153.1635 H   0  0  0  0  0  0  0  0  0  0  0  0
  150.3044  138.1142  154.6900 H   0  0  0  0  0  0  0  0  0  0  0  0
  148.4728  138.5361  153.0766 H   0  0  0  0  0  0  0  0  0  0  0  0
  149.0302  140.1711  152.8031 H   0  0  0  0  0  0  0  0  0  0  0  0
  1  2  1  0  0  0  0
  1 23  1  0  0  0  0
  1 24  1  0  0  0  0
  1 25  1  0  0  0  0
  2  3  1  0  0  0  0
  2 17  1  0  0  0  0
  2 26  1  0  0  0  0
  3  4  1  0  0  0  0
  3 27  1  0  0  0  0
  4  5  2  0  0  0  0
  4  6  1  0  0  0  0
  6  7  1  0  0  0  0
  6 28  1  0  0  0  0
  7 16  1  0  0  0  0
  7  8  2  0  0  0  0
  8  9  1  0  0  0  0
  8 29  1  0  0  0  0
  9 10  2  0  0  0  0
 10 11  1  0  0  0  0
 10 15  1  0  0  0  0
 11 12  1  0  0  0  0
 11 13  1  0  0  0  0
 11 14  1  0  0  0  0
 12 30  1  0  0  0  0
 12 31  1  0  0  0  0
 12 32  1  0  0  0  0
 13 33  1  0  0  0  0
 13 34  1  0  0  0  0
 13 35  1  0  0  0  0
 14 36  1  0  0  0  0
 14 37  1  0  0  0  0
 14 38  1  0  0  0  0
 15 16  2  0  0  0  0
 16 39  1  0  0  0  0
 17 22  1  0  0  0  0
 17 18  1  0  0  0  0
 17 40  1  0  0  0  0
 18 19  1  0  0  0  0
 18 41  1  0  0  0  0
 18 42  1  0  0  0  0
 19 20  1  0  0  0  0
 19 43  1  0  0  0  0
 19 44  1  0  0  0  0
 20 21  1  0  0  0  0
 21 22  1  0  0  0  0
 21 45  1  0  0  0  0
 21 46  1  0  0  0  0
 22 47  1  0  0  0  0
 22 48  1  0  0  0  0
M  END
> <s_m_source_file>
AV-unprocessed.smi

> <i_m_source_file_index>
2838

> <i_lp_mmshare_version>
43012

> <i_f3d_flags>
0

> <s_epik_input>
W0NIMl0xW0NIMl1PW0NIMl1bQ0gyXVtDSF0xW0NASF0oW0NIM10pW05IXUMoPU8pW05IXWMyW2NIXW5jKEMoW0NIM10pKFtDSDNdKVtDSDNdKW5bY0hdMg==

> <s_epik_cmdline>
J2VwaWtfcHl0aG9uJywgJy1waCcsICc3LjAnLCAnLXRuJywgJzgnLCAnLW1hJywgJzIwMCcsICctbWV0YWxfYmluZGluZycsICctaW1hZScsICc8aW5maWxlLm1hZT4nLCAnLW9tYWUnLCAnPG91dGZpbGUubWFlPic=

> <r_lp_tautomer_probability>
1

> <r_epik_Ionization_Penalty>
2.74753e-05

> <r_epik_Ionization_Penalty_Charging>
0

> <r_epik_Ionization_Penalty_Neutral>
2.74753e-05

> <r_epik_State_Penalty>
-0

> <r_epik_Charging_Adjusted_Penalty>
0

> <i_epik_Tot_Q>
0

> <i_epik_Tot_abs_Q>
0

> <r_epik_Metal_State_Penalty>
-0

> <b_epik_Metal_Only>
0

> <s_lp_Force_Field>
OPLS_2005

> <r_lp_Energy>
9.11835

> <b_lp_Chiralities_Consistent>
1

> <s_lp_Variant>
AV-unprocessed.smi:2838-2

> <Gold.Version>
5.8.1

> <Gold.Id.Protein>
6NUR|6NUR_protein|mol2

> <Gold.PLP.Fitness>
43.1286

> <Gold.PLP.PLP>
-35.1002

> <Gold.PLP.part.hbond>
-3.0000

> <Gold.PLP.part.metal>
0.0000

> <Gold.PLP.part.buried>
-1.2797

> <Gold.PLP.part.nonpolar>
-32.0382

> <Gold.PLP.part.repulsive>
1.4812

> <Gold.PLP.ligand.clash>
0.0000

> <Gold.PLP.ligand.torsion>
0.6405

> <Gold.PLP.Chemscore.Hbond>
2.0509

> <Gold.PLP.Chemscore.CHOScore>
1.0000

> <Gold.PLP.Chemscore.Metal>
0.0000

> <Gold.Chemscore.Hbonds>
donor molecule, donor type, donor heavy atom, donor atom, acceptor molecule, acceptor atom, score
      L1  H     3    27       P1 10175  0.47
      L1  H     6    28       P1 10171  0.63
      P1  H  7989  7998       L1    20  1.00
      L1  C    16    39       P1 10171  1.00

> <Gold.PLP.Chemscore.Internal.Correction>
0.1567

> <Gold.Rescore>
     Score         DG    S(hbond)    S(metal)    S(lipo)     H(rot)  DE(clash)    DE(int)     intcor
     13.55     -21.65       2.38        0.00      99.40       1.34       1.99       6.11       ----

> <Gold.Chemscore.Fitness>
13.5476

> <Gold.Chemscore.DG>
-21.6478

> <Gold.Chemscore.ZeroCoef>
-5.4800

> <Gold.Chemscore.Hbond>
2.3824

> <Gold.Chemscore.Metal>
0.0000

> <Gold.Chemscore.Lipo>
99.3953

> <Gold.Chemscore.Internal_Hbond>
0.0000

> <Gold.Chemscore.DEClash>
1.9931

> <Gold.Chemscore.DEInternal>
6.1071

> <Gold.Chemscore.Rot>
1.3354

> <Gold.Chemscore.Internal.Correction>
   9.000000E+99

> <Gold.Chemscore.Hbonds>
donor molecule, donor type, donor heavy atom, donor atom, acceptor molecule, acceptor atom, score
      L1  H     3    27       P1 10175  0.40
      L1  H     6    28       P1 10171  0.62
      P1  H  7989  7998       L1    20  0.43

> <Gold.Chemscore.Hbond.Weighted>
-7.9571

> <Gold.Chemscore.Metal.Weighted>
-0.0000

> <Gold.Chemscore.Lipo.Weighted>
-11.6293

> <Gold.Chemscore.Internal_Hbond.Weighted>
0.0000

> <Gold.Chemscore.DEClash.Weighted>
1.9931

> <Gold.Chemscore.DEInternal.Weighted>
6.1071

> <Gold.Chemscore.Rot.Weighted>
3.4185

> <Gold.Chemscore.Internal.Correction.Weighted>
   9.000000E+99

> <Gold.Protein.RotatedTorsions>
[ 6907 6896 6895 6894 ] final -178.85 input  -60.11 | X-H torsion
[ 7974 7965 7964 7962 ] final -106.22 input  175.53 | X-H torsion
[ 8008 7997 7996 7995 ] final   13.45 input   59.86 | X-H torsion
[ 10167 10162 10161 10158 ] final -161.30 input  -65.29 | X-H torsion
[ 10718 10713 10712 10709 ] final   16.21 input   66.30 | X-H torsion
[ 10763 10752 10751 10750 ] final -158.38 input  -60.55 | X-H torsion
[ 11005 11000 10999 10996 ] final  -24.86 input  -57.11 | X-H torsion

> <Gold.Protein.ActiveResidues>
 VAL166  LYS551  ARG553  GLY616  TRP617  ASP618  TYR619  PRO620  LYS621  CYS622 
 ASP623  PHE694  ASN695  SER759  ASP760  ASP761  ALA762  ILE779  LEU786  VAL792 
 PHE793  MET794  SER795  GLU796  ALA797  LYS798  CYS799  TRP800  GLU811  SER814 

> <Gold.Protein.RotatedAtoms>
  151.6440  133.3324  159.3136 H   0  0  0  0  0  0  0  0  0  0  0  0  # atno 6907 bound_to 6896
  150.7994  134.7080  159.6597 H   0  0  0  0  0  0  0  0  0  0  0  0  # atno 6908 bound_to 6896
  152.4084  134.6171  160.0092 H   0  0  0  0  0  0  0  0  0  0  0  0  # atno 6909 bound_to 6896
  145.2206  140.9132  143.3262 H   0  0  0  0  0  0  0  0  0  0  0  0  # atno 7974 bound_to 7965
  154.8347  140.2905  155.5699 H   0  0  0  0  0  0  0  0  0  0  0  0  # atno 8008 bound_to 7997
  156.3008  140.2525  156.3210 H   0  0  0  0  0  0  0  0  0  0  0  0  # atno 8009 bound_to 7997
  154.9192  140.0386  157.1978 H   0  0  0  0  0  0  0  0  0  0  0  0  # atno 8010 bound_to 7997
  139.6475  144.0145  152.2138 H   0  0  0  0  0  0  0  0  0  0  0  0  # atno 10167 bound_to 10162
  157.0646  130.6323  149.5793 H   0  0  0  0  0  0  0  0  0  0  0  0  # atno 10718 bound_to 10713
  154.7561  135.3105  154.8468 H   0  0  0  0  0  0  0  0  0  0  0  0  # atno 10763 bound_to 10752
  153.9241  135.6792  153.4751 H   0  0  0  0  0  0  0  0  0  0  0  0  # atno 10764 bound_to 10752
  153.1158  135.4845  154.9043 H   0  0  0  0  0  0  0  0  0  0  0  0  # atno 10765 bound_to 10752
  140.8885  133.7605  156.0390 H   0  0  0  0  0  0  0  0  0  0  0  0  # atno 11005 bound_to 11000
  144.9769  139.3822  143.6281 LP  0  0  0  0  0  0  0  0  0  0  0  0  # atno 17320 bound_to 7965
  146.3377  139.8893  142.8811 LP  0  0  0  0  0  0  0  0  0  0  0  0  # atno 17321 bound_to 7965
  139.9850  144.6401  150.7865 LP  0  0  0  0  0  0  0  0  0  0  0  0  # atno 17342 bound_to 10162
  140.7522  143.2985  151.3141 LP  0  0  0  0  0  0  0  0  0  0  0  0  # atno 17343 bound_to 10162
  155.9968  130.5038  150.7511 LP  0  0  0  0  0  0  0  0  0  0  0  0  # atno 17370 bound_to 10713
  157.4927  131.0912  151.0407 LP  0  0  0  0  0  0  0  0  0  0  0  0  # atno 17371 bound_to 10713
  140.8376  134.3105  157.5326 LP  0  0  0  0  0  0  0  0  0  0  0  0  # atno 17394 bound_to 11000
  139.8727  134.9398  156.3752 LP  0  0  0  0  0  0  0  0  0  0  0  0  # atno 17395 bound_to 11000

$$$$
