AV-unprocessed.smi:1240|AV-procd|sdf|5213|dock3
  -GOLD-   22720 4303D 1   1.00000     0.00000
 Structure written by MMmdl.
 48 50  0  0  0  0  0  0  0  0  4 V2000
  155.4603  137.5890  158.7406 O   0  0  0  0  0  0  0  0  0  0  0  0
  154.5221  138.2032  159.2613 C   0  0  0  0  0  0  0  0  0  0  0  0
  153.7772  139.2006  158.7147 N   0  5  0  0  0  0  0  0  0  0  0  0
  152.4178  139.5483  159.1283 C   0  0  0  0  0  0  0  0  0  0  0  0
  151.7651  140.5684  158.1289 C   0  0  2  0  0  0  0  0  0  0  0  0
  152.0041  140.2074  156.6279 C   0  0  1  0  0  0  0  0  0  0  0  0
  151.9873  138.7224  156.2740 C   0  0  0  0  0  0  0  0  0  0  0  0
  151.7479  138.7402  154.7681 C   0  0  0  0  0  0  0  0  0  0  0  0
  150.9811  139.9106  154.5113 O   0  0  0  0  0  0  0  0  0  0  0  0
  150.8912  140.6985  155.6921 C   0  0  0  0  0  0  0  0  0  0  0  0
  152.1181  142.0179  158.3480 N   0  3  0  0  0  0  0  0  0  0  0  0
  151.3542  143.0144  157.5530 C   0  0  0  0  0  0  0  0  0  0  0  0
  152.0618  144.3776  157.6115 C   0  0  0  0  0  0  0  0  0  0  0  0
  152.2061  144.7863  158.9674 O   0  0  0  0  0  0  0  0  0  0  0  0
  152.9994  143.8776  159.7230 C   0  0  0  0  0  0  0  0  0  0  0  0
  152.3282  142.4947  159.7436 C   0  0  0  0  0  0  0  0  0  0  0  0
  154.1533  137.9313  160.5258 N   0  0  0  0  0  0  0  0  0  0  0  0
  154.6480  136.9287  161.4024 C   0  0  0  0  0  0  0  0  0  0  0  0
  154.2423  136.9775  162.7543 C   0  0  0  0  0  0  0  0  0  0  0  0
  154.6915  135.9860  163.6498 C   0  0  0  0  0  0  0  0  0  0  0  0
  155.4922  134.9925  163.2073 N   0  3  0  0  0  0  0  0  0  0  0  0
  155.8910  134.8944  161.9206 C   0  0  0  0  0  0  0  0  0  0  0  0
  155.4747  135.8575  160.9794 C   0  0  0  0  0  0  0  0  0  0  0  0
  151.7689  138.6758  159.2138 H   0  0  0  0  0  0  0  0  0  0  0  0
  152.4324  139.9910  160.1238 H   0  0  0  0  0  0  0  0  0  0  0  0
  150.6854  140.4965  158.2703 H   0  0  0  0  0  0  0  0  0  0  0  0
  152.9473  140.6317  156.2771 H   0  0  0  0  0  0  0  0  0  0  0  0
  152.9086  138.2003  156.5344 H   0  0  0  0  0  0  0  0  0  0  0  0
  151.1591  138.2204  156.7768 H   0  0  0  0  0  0  0  0  0  0  0  0
  152.6946  138.8232  154.2332 H   0  0  0  0  0  0  0  0  0  0  0  0
  151.2376  137.8427  154.4179 H   0  0  0  0  0  0  0  0  0  0  0  0
  149.9100  140.5331  156.1396 H   0  0  0  0  0  0  0  0  0  0  0  0
  150.9783  141.7597  155.4575 H   0  0  0  0  0  0  0  0  0  0  0  0
  151.2721  142.6877  156.5161 H   0  0  0  0  0  0  0  0  0  0  0  0
  150.3413  143.1203  157.9412 H   0  0  0  0  0  0  0  0  0  0  0  0
  153.0388  144.3304  157.1276 H   0  0  0  0  0  0  0  0  0  0  0  0
  151.4777  145.1268  157.0770 H   0  0  0  0  0  0  0  0  0  0  0  0
  154.0040  143.8159  159.3013 H   0  0  0  0  0  0  0  0  0  0  0  0
  153.1038  144.2598  160.7385 H   0  0  0  0  0  0  0  0  0  0  0  0
  151.3755  142.5672  160.2703 H   0  0  0  0  0  0  0  0  0  0  0  0
  152.9531  141.7942  160.2972 H   0  0  0  0  0  0  0  0  0  0  0  0
  153.4625  138.5535  160.9189 H   0  0  0  0  0  0  0  0  0  0  0  0
  153.5982  137.7708  163.1051 H   0  0  0  0  0  0  0  0  0  0  0  0
  154.4336  135.9567  164.6982 H   0  0  0  0  0  0  0  0  0  0  0  0
  156.5207  134.0503  161.6814 H   0  0  0  0  0  0  0  0  0  0  0  0
  155.7827  135.7532  159.9499 H   0  0  0  0  0  0  0  0  0  0  0  0
  153.0396  142.0712  157.9399 H   0  0  0  0  0  0  0  0  0  0  0  0
  155.8041  134.2833  163.8710 H   0  0  0  0  0  0  0  0  0  0  0  0
  1  2  2  0  0  0  0
  2  3  1  0  0  0  0
  2 17  1  0  0  0  0
  3  4  1  0  0  0  0
  4  5  1  0  0  0  0
  4 24  1  0  0  0  0
  4 25  1  0  0  0  0
  5  6  1  0  0  0  0
  5 11  1  0  0  0  0
  5 26  1  0  0  0  0
  6 10  1  0  0  0  0
  6  7  1  0  0  0  0
  6 27  1  0  0  0  0
  7  8  1  0  0  0  0
  7 28  1  0  0  0  0
  7 29  1  0  0  0  0
  8  9  1  0  0  0  0
  8 30  1  0  0  0  0
  8 31  1  0  0  0  0
  9 10  1  0  0  0  0
 10 32  1  0  0  0  0
 10 33  1  0  0  0  0
 11 16  1  0  0  0  0
 11 12  1  0  0  0  0
 11 47  1  0  0  0  0
 12 13  1  0  0  0  0
 12 34  1  0  0  0  0
 12 35  1  0  0  0  0
 13 14  1  0  0  0  0
 13 36  1  0  0  0  0
 13 37  1  0  0  0  0
 14 15  1  0  0  0  0
 15 16  1  0  0  0  0
 15 38  1  0  0  0  0
 15 39  1  0  0  0  0
 16 40  1  0  0  0  0
 16 41  1  0  0  0  0
 17 18  1  0  0  0  0
 17 42  1  0  0  0  0
 18 23  1  0  0  0  0
 18 19  2  0  0  0  0
 19 20  1  0  0  0  0
 19 43  1  0  0  0  0
 20 21  2  0  0  0  0
 20 44  1  0  0  0  0
 21 22  1  0  0  0  0
 21 48  1  0  0  0  0
 22 23  2  0  0  0  0
 22 45  1  0  0  0  0
 23 46  1  0  0  0  0
M  CHG  1   3  -1
M  CHG  1  11   1
M  CHG  1  21   1
M  END
> <s_m_source_file>
AV-unprocessed.smi

> <i_m_source_file_index>
1240

> <i_lp_mmshare_version>
43012

> <i_f3d_flags>
0

> <s_epik_input>
W2NIXTFbY0hdbltjSF1bY0hdYzFbTkhdQyg9TylbTkhdW0NIMl1bQ0BIXShbQ0BASF0yW0NIMl1bQ0gyXU9bQ0gyXTIpTjNbQ0gyXVtDSDJdT1tDSDJdW0NIMl0z

> <s_epik_cmdline>
J2VwaWtfcHl0aG9uJywgJy1waCcsICc3LjAnLCAnLXRuJywgJzgnLCAnLW1hJywgJzIwMCcsICctbWV0YWxfYmluZGluZycsICctaW1hZScsICc8aW5maWxlLm1hZT4nLCAnLW9tYWUnLCAnPG91dGZpbGUubWFlPic=

> <r_epik_Ionization_Penalty>
8.41087

> <r_epik_Ionization_Penalty_Charging>
8.41087

> <r_epik_Ionization_Penalty_Neutral>
3.12936e-06

> <r_epik_State_Penalty>
8.81894

> <r_epik_Charging_Adjusted_Penalty>
17.2298

> <i_epik_Tot_Q>
1

> <i_epik_Tot_abs_Q>
3

> <r_epik_Metal_State_Penalty>
4.82983

> <b_epik_Metal_Only>
1

> <s_lp_Force_Field>
OPLS_2005

> <r_lp_Energy>
48.3521

> <b_lp_Chiralities_Consistent>
1

> <s_lp_Variant>
AV-unprocessed.smi:1240-19

> <Gold.Version>
5.8.1

> <Gold.Id.Protein>
6NUR|6NUR_protein|mol2

> <Gold.PLP.Fitness>
49.3761

> <Gold.PLP.PLP>
-41.9458

> <Gold.PLP.part.hbond>
-1.9582

> <Gold.PLP.part.metal>
0.0000

> <Gold.PLP.part.buried>
-5.7576

> <Gold.PLP.part.nonpolar>
-33.8287

> <Gold.PLP.part.repulsive>
0.2505

> <Gold.PLP.ligand.clash>
0.0000

> <Gold.PLP.ligand.torsion>
1.0294

> <Gold.PLP.Chemscore.Hbond>
2.9575

> <Gold.PLP.Chemscore.CHOScore>
0.0000

> <Gold.PLP.Chemscore.Metal>
0.0000

> <Gold.Chemscore.Hbonds>
donor molecule, donor type, donor heavy atom, donor atom, acceptor molecule, acceptor atom, score
      P1  H  7989  7998       L1     9  1.00
      P1  H  7997  8008       L1     3  2.00

> <Gold.PLP.Chemscore.Internal.Correction>
0.6165

> <Gold.Rescore>
     Score         DG    S(hbond)    S(metal)    S(lipo)     H(rot)  DE(clash)    DE(int)     intcor
     15.15     -18.73       1.42        0.00     110.08       1.70       0.04       3.55       ----

> <Gold.Chemscore.Fitness>
15.1458

> <Gold.Chemscore.DG>
-18.7277

> <Gold.Chemscore.ZeroCoef>
-5.4800

> <Gold.Chemscore.Hbond>
1.4150

> <Gold.Chemscore.Metal>
0.0000

> <Gold.Chemscore.Lipo>
110.0770

> <Gold.Chemscore.Internal_Hbond>
0.0000

> <Gold.Chemscore.DEClash>
0.0358

> <Gold.Chemscore.DEInternal>
3.5461

> <Gold.Chemscore.Rot>
1.7021

> <Gold.Chemscore.Internal.Correction>
   9.000000E+99

> <Gold.Chemscore.Hbonds>
donor molecule, donor type, donor heavy atom, donor atom, acceptor molecule, acceptor atom, score
      P1  H  7989  7998       L1     9  0.37
      P1  H  7997  8008       L1     3  0.71

> <Gold.Chemscore.Hbond.Weighted>
-4.7262

> <Gold.Chemscore.Metal.Weighted>
-0.0000

> <Gold.Chemscore.Lipo.Weighted>
-12.8790

> <Gold.Chemscore.Internal_Hbond.Weighted>
0.0000

> <Gold.Chemscore.DEClash.Weighted>
0.0358

> <Gold.Chemscore.DEInternal.Weighted>
3.5461

> <Gold.Chemscore.Rot.Weighted>
4.3575

> <Gold.Chemscore.Internal.Correction.Weighted>
   9.000000E+99

> <Gold.Protein.RotatedTorsions>
[ 6907 6896 6895 6894 ] final  -52.21 input  -60.11 | X-H torsion
[ 7974 7965 7964 7962 ] final -167.21 input  175.53 | X-H torsion
[ 8008 7997 7996 7995 ] final  -96.19 input   59.86 | X-H torsion
[ 10167 10162 10161 10158 ] final  -78.37 input  -65.29 | X-H torsion
[ 10718 10713 10712 10709 ] final -144.11 input   66.30 | X-H torsion
[ 10763 10752 10751 10750 ] final    1.49 input  -60.55 | X-H torsion
[ 11005 11000 10999 10996 ] final -102.49 input  -57.11 | X-H torsion

> <Gold.Protein.ActiveResidues>
 VAL166  LYS551  ARG553  GLY616  TRP617  ASP618  TYR619  PRO620  LYS621  CYS622 
 ASP623  PHE694  ASN695  SER759  ASP760  ASP761  ALA762  ILE779  LEU786  VAL792 
 PHE793  MET794  SER795  GLU796  ALA797  LYS798  CYS799  TRP800  GLU811  SER814 

> <Gold.Protein.RotatedAtoms>
  150.8539  134.7872  159.7030 H   0  0  0  0  0  0  0  0  0  0  0  0  # atno 6907 bound_to 6896
  152.4596  134.5210  159.9792 H   0  0  0  0  0  0  0  0  0  0  0  0  # atno 6908 bound_to 6896
  151.5326  133.3408  159.2956 H   0  0  0  0  0  0  0  0  0  0  0  0  # atno 6909 bound_to 6896
  144.7228  140.2552  143.6273 H   0  0  0  0  0  0  0  0  0  0  0  0  # atno 7974 bound_to 7965
  154.7713  140.0473  157.1053 H   0  0  0  0  0  0  0  0  0  0  0  0  # atno 8008 bound_to 7997
  154.9817  140.3102  155.4924 H   0  0  0  0  0  0  0  0  0  0  0  0  # atno 8009 bound_to 7997
  156.2921  140.2234  156.4917 H   0  0  0  0  0  0  0  0  0  0  0  0  # atno 8010 bound_to 7997
  140.4688  143.2432  151.8236 H   0  0  0  0  0  0  0  0  0  0  0  0  # atno 10167 bound_to 10162
  156.3662  130.7764  151.1938 H   0  0  0  0  0  0  0  0  0  0  0  0  # atno 10718 bound_to 10713
  153.3074  135.6960  153.7147 H   0  0  0  0  0  0  0  0  0  0  0  0  # atno 10763 bound_to 10752
  153.6037  135.3457  155.2955 H   0  0  0  0  0  0  0  0  0  0  0  0  # atno 10764 bound_to 10752
  154.8566  135.4347  154.2203 H   0  0  0  0  0  0  0  0  0  0  0  0  # atno 10765 bound_to 10752
  141.1187  133.8562  157.1366 H   0  0  0  0  0  0  0  0  0  0  0  0  # atno 11005 bound_to 11000
  145.8189  139.2035  143.1949 LP  0  0  0  0  0  0  0  0  0  0  0  0  # atno 17320 bound_to 7965
  146.0531  140.8049  142.9772 LP  0  0  0  0  0  0  0  0  0  0  0  0  # atno 17321 bound_to 7965
  139.4815  144.4917  151.9176 LP  0  0  0  0  0  0  0  0  0  0  0  0  # atno 17342 bound_to 10162
  140.4002  144.2503  150.5893 LP  0  0  0  0  0  0  0  0  0  0  0  0  # atno 17343 bound_to 10162
  157.7479  131.0386  150.4509 LP  0  0  0  0  0  0  0  0  0  0  0  0  # atno 17370 bound_to 10713
  156.4728  130.4056  149.6508 LP  0  0  0  0  0  0  0  0  0  0  0  0  # atno 17371 bound_to 10713
  140.0128  134.9981  157.0430 LP  0  0  0  0  0  0  0  0  0  0  0  0  # atno 17394 bound_to 11000
  140.4571  134.1522  155.7187 LP  0  0  0  0  0  0  0  0  0  0  0  0  # atno 17395 bound_to 11000

$$$$
