AV-unprocessed.smi:286|AV-procd|sdf|2175|dock10
  -GOLD-   2262021533D 1   1.00000     0.00000
 Structure written by MMmdl.
 46 48  0  0  0  0  0  0  0  0  1 V2000
  154.6184  139.8814  162.9195 O   0  0  0  0  0  0  0  0  0  0  0  0
  154.1543  140.5504  161.9945 C   0  0  0  0  0  0  0  0  0  0  0  0
  153.7464  141.9431  162.1381 C   0  0  0  0  0  0  0  0  0  0  0  0
  153.9122  142.5667  163.3168 F   0  0  0  0  0  0  0  0  0  0  0  0
  153.2051  142.6206  161.1029 C   0  0  0  0  0  0  0  0  0  0  0  0
  152.9868  142.0578  159.8582 N   0  0  0  0  0  0  0  0  0  0  0  0
  152.3992  142.9185  158.7608 C   0  0  2  0  0  0  0  0  0  0  0  0
  152.3028  144.4076  159.1256 C   0  0  0  0  0  0  0  0  0  0  0  0
  151.0227  144.8006  158.4204 C   0  0  0  0  0  0  0  0  0  0  0  0
  150.1819  143.5357  158.5577 C   0  0  0  0  0  0  0  0  0  0  0  0
  151.1129  142.4613  158.4571 O   0  0  0  0  0  0  0  0  0  0  0  0
  153.3910  140.7234  159.6155 C   0  0  0  0  0  0  0  0  0  0  0  0
  153.2416  140.2019  158.5094 O   0  0  0  0  0  0  0  0  0  0  0  0
  153.9660  140.0137  160.6969 N   0  0  0  0  0  0  0  0  0  0  0  0
  154.3465  138.6272  160.4792 C   0  0  0  0  0  0  0  0  0  0  0  0
  153.5888  137.6409  161.4049 C   0  0  1  0  0  0  0  0  0  0  0  0
  152.8250  136.8095  160.5511 O   0  0  0  0  0  0  0  0  0  0  0  0
  154.5155  136.7424  162.2698 C   0  0  0  0  0  0  0  0  0  0  0  0
  155.1069  135.5631  161.4550 C   0  0  0  0  0  0  0  0  0  0  0  0
  156.0149  134.6606  162.3061 C   0  0  0  0  0  0  0  0  0  0  0  0
  155.2676  134.1178  163.5302 C   0  0  0  0  0  0  0  0  0  0  0  0
  154.6864  135.2682  164.3616 C   0  0  0  0  0  0  0  0  0  0  0  0
  153.7804  136.1715  163.5091 C   0  0  0  0  0  0  0  0  0  0  0  0
  152.9249  143.6509  161.2668 H   0  0  0  0  0  0  0  0  0  0  0  0
  153.0270  142.7585  157.8833 H   0  0  0  0  0  0  0  0  0  0  0  0
  152.2095  144.5537  160.2009 H   0  0  0  0  0  0  0  0  0  0  0  0
  153.1790  144.9529  158.7743 H   0  0  0  0  0  0  0  0  0  0  0  0
  150.5460  145.6796  158.8550 H   0  0  0  0  0  0  0  0  0  0  0  0
  151.2227  145.0042  157.3677 H   0  0  0  0  0  0  0  0  0  0  0  0
  149.6938  143.5037  159.5320 H   0  0  0  0  0  0  0  0  0  0  0  0
  149.4085  143.4630  157.7929 H   0  0  0  0  0  0  0  0  0  0  0  0
  154.2213  138.3914  159.4205 H   0  0  0  0  0  0  0  0  0  0  0  0
  155.4266  138.5872  160.6101 H   0  0  0  0  0  0  0  0  0  0  0  0
  152.9044  138.1782  162.0631 H   0  0  0  0  0  0  0  0  0  0  0  0
  152.5517  137.3183  159.8027 H   0  0  0  0  0  0  0  0  0  0  0  0
  155.3472  137.3554  162.6212 H   0  0  0  0  0  0  0  0  0  0  0  0
  154.2970  134.9672  161.0323 H   0  0  0  0  0  0  0  0  0  0  0  0
  155.6893  135.9305  160.6099 H   0  0  0  0  0  0  0  0  0  0  0  0
  156.3880  133.8329  161.7022 H   0  0  0  0  0  0  0  0  0  0  0  0
  156.8899  135.2249  162.6312 H   0  0  0  0  0  0  0  0  0  0  0  0
  154.4634  133.4560  163.2061 H   0  0  0  0  0  0  0  0  0  0  0  0
  155.9393  133.5154  164.1424 H   0  0  0  0  0  0  0  0  0  0  0  0
  154.1231  134.8679  165.2050 H   0  0  0  0  0  0  0  0  0  0  0  0
  155.4981  135.8605  164.7855 H   0  0  0  0  0  0  0  0  0  0  0  0
  153.4057  136.9680  164.1489 H   0  0  0  0  0  0  0  0  0  0  0  0
  152.9053  135.6055  163.1868 H   0  0  0  0  0  0  0  0  0  0  0  0
  1  2  2  0  0  0  0
  2 14  1  0  0  0  0
  2  3  1  0  0  0  0
  3  4  1  0  0  0  0
  3  5  2  0  0  0  0
  5  6  1  0  0  0  0
  5 24  1  0  0  0  0
  6  7  1  0  0  0  0
  6 12  1  0  0  0  0
  7 11  1  0  0  0  0
  7  8  1  0  0  0  0
  7 25  1  0  0  0  0
  8  9  1  0  0  0  0
  8 26  1  0  0  0  0
  8 27  1  0  0  0  0
  9 10  1  0  0  0  0
  9 28  1  0  0  0  0
  9 29  1  0  0  0  0
 10 11  1  0  0  0  0
 10 30  1  0  0  0  0
 10 31  1  0  0  0  0
 12 13  2  0  0  0  0
 12 14  1  0  0  0  0
 14 15  1  0  0  0  0
 15 16  1  0  0  0  0
 15 32  1  0  0  0  0
 15 33  1  0  0  0  0
 16 17  1  0  0  0  0
 16 18  1  0  0  0  0
 16 34  1  0  0  0  0
 17 35  1  0  0  0  0
 18 23  1  0  0  0  0
 18 19  1  0  0  0  0
 18 36  1  0  0  0  0
 19 20  1  0  0  0  0
 19 37  1  0  0  0  0
 19 38  1  0  0  0  0
 20 21  1  0  0  0  0
 20 39  1  0  0  0  0
 20 40  1  0  0  0  0
 21 22  1  0  0  0  0
 21 41  1  0  0  0  0
 21 42  1  0  0  0  0
 22 23  1  0  0  0  0
 22 43  1  0  0  0  0
 22 44  1  0  0  0  0
 23 45  1  0  0  0  0
 23 46  1  0  0  0  0
M  END
> <s_m_source_file>
AV-unprocessed.smi

> <i_m_source_file_index>
286

> <i_lp_mmshare_version>
43012

> <i_f3d_flags>
0

> <s_epik_input>
TzFbQ0gyXVtDSDJdW0NIMl1bQ0BIXTFuKFtjSF1jKEYpYzI9TyljKD1PKW4yW0NIMl1bQ0BIXShbT0hdKVtDSF0zW0NIMl1bQ0gyXVtDSDJdW0NIMl1bQ0gyXTM=

> <s_epik_cmdline>
J2VwaWtfcHl0aG9uJywgJy1waCcsICc3LjAnLCAnLXRuJywgJzgnLCAnLW1hJywgJzIwMCcsICctbWV0YWxfYmluZGluZycsICctaW1hZScsICc8aW5maWxlLm1hZT4nLCAnLW9tYWUnLCAnPG91dGZpbGUubWFlPic=

> <r_lp_tautomer_probability>
1

> <r_epik_Ionization_Penalty>
3.15564e-07

> <r_epik_Ionization_Penalty_Charging>
2.06416e-08

> <r_epik_Ionization_Penalty_Neutral>
2.94923e-07

> <r_epik_State_Penalty>
-0

> <r_epik_Charging_Adjusted_Penalty>
2.06416e-08

> <i_epik_Tot_Q>
0

> <i_epik_Tot_abs_Q>
0

> <r_epik_Metal_State_Penalty>
-0

> <b_epik_Metal_Only>
0

> <s_epik_Chemistry_Notes>
This compound contains an acetal/aminal-like group ( X-CH(R)-Y where X, Y are N, S, or O) that may be acid/base labile, releasing an aldehyde.

> <s_lp_Force_Field>
OPLS_2005

> <r_lp_Energy>
37.1896

> <b_lp_Chiralities_Consistent>
1

> <s_lp_Variant>
AV-unprocessed.smi:286-3

> <Gold.Version>
5.8.1

> <Gold.Id.Protein>
6NUR|6NUR_protein|mol2

> <Gold.PLP.Fitness>
49.6089

> <Gold.PLP.PLP>
-46.4916

> <Gold.PLP.part.hbond>
-1.9646

> <Gold.PLP.part.metal>
0.0000

> <Gold.PLP.part.buried>
-1.1897

> <Gold.PLP.part.nonpolar>
-43.3366

> <Gold.PLP.part.repulsive>
0.0377

> <Gold.PLP.ligand.clash>
0.0000

> <Gold.PLP.ligand.torsion>
1.3377

> <Gold.PLP.Chemscore.Hbond>
1.9193

> <Gold.PLP.Chemscore.CHOScore>
0.0000

> <Gold.PLP.Chemscore.Metal>
0.0000

> <Gold.Chemscore.Hbonds>
donor molecule, donor type, donor heavy atom, donor atom, acceptor molecule, acceptor atom, score
      P1  H  6896  6909       L1    17  1.00
      P1  H  7997  8010       L1    13  0.96

> <Gold.PLP.Chemscore.Internal.Correction>
0.0350

> <Gold.Rescore>
     Score         DG    S(hbond)    S(metal)    S(lipo)     H(rot)  DE(clash)    DE(int)     intcor
     13.74     -16.96       1.90        0.00      93.78       2.28       0.17       3.06       ----

> <Gold.Chemscore.Fitness>
13.7358

> <Gold.Chemscore.DG>
-16.9586

> <Gold.Chemscore.ZeroCoef>
-5.4800

> <Gold.Chemscore.Hbond>
1.8958

> <Gold.Chemscore.Metal>
0.0000

> <Gold.Chemscore.Lipo>
93.7788

> <Gold.Chemscore.Internal_Hbond>
0.0000

> <Gold.Chemscore.DEClash>
0.1678

> <Gold.Chemscore.DEInternal>
3.0550

> <Gold.Chemscore.Rot>
2.2756

> <Gold.Chemscore.Internal.Correction>
   9.000000E+99

> <Gold.Chemscore.Hbonds>
donor molecule, donor type, donor heavy atom, donor atom, acceptor molecule, acceptor atom, score
      P1  H  6896  6909       L1    17  0.25
      P1  H  7997  8010       L1    13  0.88

> <Gold.Chemscore.Hbond.Weighted>
-6.3319

> <Gold.Chemscore.Metal.Weighted>
-0.0000

> <Gold.Chemscore.Lipo.Weighted>
-10.9721

> <Gold.Chemscore.Internal_Hbond.Weighted>
0.0000

> <Gold.Chemscore.DEClash.Weighted>
0.1678

> <Gold.Chemscore.DEInternal.Weighted>
3.0550

> <Gold.Chemscore.Rot.Weighted>
5.8254

> <Gold.Chemscore.Internal.Correction.Weighted>
   9.000000E+99

> <Gold.Protein.RotatedTorsions>
[ 6907 6896 6895 6894 ] final  145.71 input  -60.11 | X-H torsion
[ 7974 7965 7964 7962 ] final  111.14 input  175.53 | X-H torsion
[ 8008 7997 7996 7995 ] final   30.99 input   59.86 | X-H torsion
[ 10167 10162 10161 10158 ] final -163.48 input  -65.29 | X-H torsion
[ 10718 10713 10712 10709 ] final  -63.91 input   66.30 | X-H torsion
[ 10763 10752 10751 10750 ] final   79.76 input  -60.55 | X-H torsion
[ 11005 11000 10999 10996 ] final  -88.82 input  -57.11 | X-H torsion

> <Gold.Protein.ActiveResidues>
 VAL166  LYS551  ARG553  GLY616  TRP617  ASP618  TYR619  PRO620  LYS621  CYS622 
 ASP623  PHE694  ASN695  SER759  ASP760  ASP761  ALA762  ILE779  LEU786  VAL792 
 PHE793  MET794  SER795  GLU796  ALA797  LYS798  CYS799  TRP800  GLU811  SER814 

> <Gold.Protein.RotatedAtoms>
  152.1774  133.4684  159.4939 H   0  0  0  0  0  0  0  0  0  0  0  0  # atno 6907 bound_to 6896
  150.6929  134.1877  159.4282 H   0  0  0  0  0  0  0  0  0  0  0  0  # atno 6908 bound_to 6896
  151.9787  135.0039  160.0607 H   0  0  0  0  0  0  0  0  0  0  0  0  # atno 6909 bound_to 6896
  145.2460  139.2759  143.4093 H   0  0  0  0  0  0  0  0  0  0  0  0  # atno 7974 bound_to 7965
  155.0992  140.3228  155.4552 H   0  0  0  0  0  0  0  0  0  0  0  0  # atno 8008 bound_to 7997
  156.2722  140.2064  156.6065 H   0  0  0  0  0  0  0  0  0  0  0  0  # atno 8009 bound_to 7997
  154.6842  140.0523  157.0285 H   0  0  0  0  0  0  0  0  0  0  0  0  # atno 8010 bound_to 7997
  139.6318  144.0425  152.2022 H   0  0  0  0  0  0  0  0  0  0  0  0  # atno 10167 bound_to 10162
  156.0761  130.4226  150.1345 H   0  0  0  0  0  0  0  0  0  0  0  0  # atno 10718 bound_to 10713
  153.0978  135.4828  154.8811 H   0  0  0  0  0  0  0  0  0  0  0  0  # atno 10763 bound_to 10752
  154.7345  135.3067  154.8838 H   0  0  0  0  0  0  0  0  0  0  0  0  # atno 10764 bound_to 10752
  153.9464  135.6828  153.4797 H   0  0  0  0  0  0  0  0  0  0  0  0  # atno 10765 bound_to 10752
  141.1595  133.7592  156.9506 H   0  0  0  0  0  0  0  0  0  0  0  0  # atno 11005 bound_to 11000
  146.3316  140.2837  142.8611 LP  0  0  0  0  0  0  0  0  0  0  0  0  # atno 17320 bound_to 7965
  144.9546  140.8213  143.5551 LP  0  0  0  0  0  0  0  0  0  0  0  0  # atno 17321 bound_to 7965
  140.0093  144.6236  150.7661 LP  0  0  0  0  0  0  0  0  0  0  0  0  # atno 17342 bound_to 10162
  140.7443  143.2859  151.3466 LP  0  0  0  0  0  0  0  0  0  0  0  0  # atno 17343 bound_to 10162
  156.9386  130.9737  151.3520 LP  0  0  0  0  0  0  0  0  0  0  0  0  # atno 17370 bound_to 10713
  157.5857  130.8408  149.8586 LP  0  0  0  0  0  0  0  0  0  0  0  0  # atno 17371 bound_to 10713
  140.1260  134.9386  157.2270 LP  0  0  0  0  0  0  0  0  0  0  0  0  # atno 17394 bound_to 11000
  140.3012  134.3129  155.7289 LP  0  0  0  0  0  0  0  0  0  0  0  0  # atno 17395 bound_to 11000

$$$$
