AV-unprocessed.smi:1248|AV-procd|sdf|5252|dock1
  -GOLD-   22720 4363D 1   1.00000     0.00000
 Structure written by MMmdl.
 43 45  0  0  0  0  0  0  0  0  1 V2000
  148.4166  128.5186  153.4689 C   0  0  0  0  0  0  0  0  0  0  0  0
  147.4138  129.6755  153.3820 C   0  0  0  0  0  0  0  0  0  0  0  0
  147.9041  130.8674  154.0471 N   0  0  0  0  0  0  0  0  0  0  0  0
  148.2894  132.0656  153.4792 C   0  0  0  0  0  0  0  0  0  0  0  0
  148.6712  132.8628  154.5160 C   0  0  0  0  0  0  0  0  0  0  0  0
  149.1432  134.1927  154.3840 N   0  0  0  0  0  0  0  0  0  0  0  0
  149.8854  134.8824  155.2654 C   0  0  0  0  0  0  0  0  0  0  0  0
  150.2808  134.4512  156.3483 O   0  0  0  0  0  0  0  0  0  0  0  0
  150.1466  136.1197  154.8200 N   0  0  0  0  0  0  0  0  0  0  0  0
  150.9221  137.1264  155.5390 C   0  0  0  0  0  0  0  0  0  0  0  0
  150.2576  137.4780  156.8823 C   0  0  0  0  0  0  0  0  0  0  0  0
  150.9825  138.6493  157.5682 C   0  0  0  0  0  0  0  0  0  0  0  0
  150.9886  139.8226  156.6944 N   0  0  0  0  0  0  0  0  0  0  0  0
  151.6369  140.9228  157.3892 C   0  0  0  0  0  0  0  0  0  0  0  0
  150.8431  141.6392  158.4580 C   0  0  0  0  0  0  0  0  0  0  0  0
  151.1099  142.3168  157.1357 C   0  0  0  0  0  0  0  0  0  0  0  0
  151.7366  139.5270  155.4724 C   0  0  0  0  0  0  0  0  0  0  0  0
  151.0436  138.3996  154.6870 C   0  0  0  0  0  0  0  0  0  0  0  0
  148.4941  132.0815  155.6927 C   0  0  0  0  0  0  0  0  0  0  0  0
  148.0313  130.8761  155.3971 N   0  0  0  0  0  0  0  0  0  0  0  0
  148.0233  127.6277  152.9793 H   0  0  0  0  0  0  0  0  0  0  0  0
  148.6319  128.2614  154.5062 H   0  0  0  0  0  0  0  0  0  0  0  0
  149.3589  128.7744  152.9841 H   0  0  0  0  0  0  0  0  0  0  0  0
  147.2032  129.9180  152.3397 H   0  0  0  0  0  0  0  0  0  0  0  0
  146.4664  129.3857  153.8376 H   0  0  0  0  0  0  0  0  0  0  0  0
  148.2576  132.2404  152.4137 H   0  0  0  0  0  0  0  0  0  0  0  0
  148.8854  134.6699  153.5329 H   0  0  0  0  0  0  0  0  0  0  0  0
  149.7805  136.3876  153.9184 H   0  0  0  0  0  0  0  0  0  0  0  0
  151.9267  136.7427  155.7273 H   0  0  0  0  0  0  0  0  0  0  0  0
  149.2111  137.7434  156.7241 H   0  0  0  0  0  0  0  0  0  0  0  0
  150.2598  136.6103  157.5427 H   0  0  0  0  0  0  0  0  0  0  0  0
  150.4737  138.8931  158.5016 H   0  0  0  0  0  0  0  0  0  0  0  0
  152.0042  138.3646  157.8251 H   0  0  0  0  0  0  0  0  0  0  0  0
  152.7079  140.8596  157.5745 H   0  0  0  0  0  0  0  0  0  0  0  0
  149.8265  141.3020  158.6517 H   0  0  0  0  0  0  0  0  0  0  0  0
  151.3873  142.0007  159.3280 H   0  0  0  0  0  0  0  0  0  0  0  0
  151.8312  143.1313  157.1249 H   0  0  0  0  0  0  0  0  0  0  0  0
  150.2705  142.4288  156.4518 H   0  0  0  0  0  0  0  0  0  0  0  0
  151.7896  140.4224  154.8522 H   0  0  0  0  0  0  0  0  0  0  0  0
  152.7625  139.2452  155.7164 H   0  0  0  0  0  0  0  0  0  0  0  0
  151.6037  138.1875  153.7756 H   0  0  0  0  0  0  0  0  0  0  0  0
  150.0543  138.7356  154.3718 H   0  0  0  0  0  0  0  0  0  0  0  0
  148.6786  132.3307  156.7269 H   0  0  0  0  0  0  0  0  0  0  0  0
  1  2  1  0  0  0  0
  1 21  1  0  0  0  0
  1 22  1  0  0  0  0
  1 23  1  0  0  0  0
  2  3  1  0  0  0  0
  2 24  1  0  0  0  0
  2 25  1  0  0  0  0
  3 20  1  0  0  0  0
  3  4  1  0  0  0  0
  4  5  2  0  0  0  0
  4 26  1  0  0  0  0
  5  6  1  0  0  0  0
  5 19  1  0  0  0  0
  6  7  1  0  0  0  0
  6 27  1  0  0  0  0
  7  8  2  0  0  0  0
  7  9  1  0  0  0  0
  9 10  1  0  0  0  0
  9 28  1  0  0  0  0
 10 18  1  0  0  0  0
 10 11  1  0  0  0  0
 10 29  1  0  0  0  0
 11 12  1  0  0  0  0
 11 30  1  0  0  0  0
 11 31  1  0  0  0  0
 12 13  1  0  0  0  0
 12 32  1  0  0  0  0
 12 33  1  0  0  0  0
 13 14  1  0  0  0  0
 13 17  1  0  0  0  0
 14 16  1  0  0  0  0
 14 15  1  0  0  0  0
 14 34  1  0  0  0  0
 15 16  1  0  0  0  0
 15 35  1  0  0  0  0
 15 36  1  0  0  0  0
 16 37  1  0  0  0  0
 16 38  1  0  0  0  0
 17 18  1  0  0  0  0
 17 39  1  0  0  0  0
 17 40  1  0  0  0  0
 18 41  1  0  0  0  0
 18 42  1  0  0  0  0
 19 20  2  0  0  0  0
 19 43  1  0  0  0  0
M  END
> <s_m_source_file>
AV-unprocessed.smi

> <i_m_source_file_index>
1248

> <i_lp_mmshare_version>
43012

> <i_f3d_flags>
0

> <s_epik_input>
W0NIM11bQ0gyXW4xW2NIXWMoW2NIXW4xKVtOSF1DKD1PKVtOSF1bQ0hdMltDSDJdW0NIMl1OKFtDSDJdW0NIMl0yKVtDSF0zW0NIMl1bQ0gyXTM=

> <s_epik_cmdline>
J2VwaWtfcHl0aG9uJywgJy1waCcsICc3LjAnLCAnLXRuJywgJzgnLCAnLW1hJywgJzIwMCcsICctbWV0YWxfYmluZGluZycsICctaW1hZScsICc8aW5maWxlLm1hZT4nLCAnLW9tYWUnLCAnPG91dGZpbGUubWFlPic=

> <r_lp_tautomer_probability>
1

> <r_epik_Ionization_Penalty>
1.02552

> <r_epik_Ionization_Penalty_Charging>
0

> <r_epik_Ionization_Penalty_Neutral>
1.02552

> <r_epik_State_Penalty>
1.07599

> <r_epik_Charging_Adjusted_Penalty>
1.07599

> <i_epik_Tot_Q>
0

> <i_epik_Tot_abs_Q>
0

> <r_epik_Metal_State_Penalty>
1.07597

> <b_epik_Metal_Only>
0

> <s_lp_Force_Field>
OPLS_2005

> <r_lp_Energy>
25.1211

> <b_lp_Chiralities_Consistent>
1

> <s_lp_Variant>
AV-unprocessed.smi:1248-3

> <Gold.Version>
5.8.1

> <Gold.Id.Protein>
6NUR|6NUR_protein|mol2

> <Gold.PLP.Fitness>
39.2095

> <Gold.PLP.PLP>
-30.9543

> <Gold.PLP.part.hbond>
-2.4836

> <Gold.PLP.part.metal>
0.0000

> <Gold.PLP.part.buried>
-2.1298

> <Gold.PLP.part.nonpolar>
-26.3272

> <Gold.PLP.part.repulsive>
0.1182

> <Gold.PLP.ligand.clash>
0.0000

> <Gold.PLP.ligand.torsion>
0.7728

> <Gold.PLP.Chemscore.Hbond>
2.0000

> <Gold.PLP.Chemscore.CHOScore>
0.8683

> <Gold.PLP.Chemscore.Metal>
0.0000

> <Gold.Chemscore.Hbonds>
donor molecule, donor type, donor heavy atom, donor atom, acceptor molecule, acceptor atom, score
      L1  H     6    27       P1  7948  0.46
      L1  H     9    28       P1  7948  0.60
      L1  C     4    26       P1 10747  0.74

> <Gold.PLP.Chemscore.Internal.Correction>
1.1959

> <Gold.Rescore>
     Score         DG    S(hbond)    S(metal)    S(lipo)     H(rot)  DE(clash)    DE(int)     intcor
     13.34     -16.03       1.42        0.00      78.43       1.32       0.02       2.67       ----

> <Gold.Chemscore.Fitness>
13.3392

> <Gold.Chemscore.DG>
-16.0310

> <Gold.Chemscore.ZeroCoef>
-5.4800

> <Gold.Chemscore.Hbond>
1.4208

> <Gold.Chemscore.Metal>
0.0000

> <Gold.Chemscore.Lipo>
78.4331

> <Gold.Chemscore.Internal_Hbond>
0.0000

> <Gold.Chemscore.DEClash>
0.0215

> <Gold.Chemscore.DEInternal>
2.6702

> <Gold.Chemscore.Rot>
1.3169

> <Gold.Chemscore.Internal.Correction>
   9.000000E+99

> <Gold.Chemscore.Hbonds>
donor molecule, donor type, donor heavy atom, donor atom, acceptor molecule, acceptor atom, score
      L1  H     6    27       P1  7948  0.12
      L1  H     9    28       P1  7948  0.27

> <Gold.Chemscore.Hbond.Weighted>
-4.7455

> <Gold.Chemscore.Metal.Weighted>
-0.0000

> <Gold.Chemscore.Lipo.Weighted>
-9.1767

> <Gold.Chemscore.Internal_Hbond.Weighted>
0.0000

> <Gold.Chemscore.DEClash.Weighted>
0.0215

> <Gold.Chemscore.DEInternal.Weighted>
2.6702

> <Gold.Chemscore.Rot.Weighted>
3.3712

> <Gold.Chemscore.Internal.Correction.Weighted>
   9.000000E+99

> <Gold.Protein.RotatedTorsions>
[ 6907 6896 6895 6894 ] final  -48.81 input  -60.11 | X-H torsion
[ 7974 7965 7964 7962 ] final   20.02 input  175.53 | X-H torsion
[ 8008 7997 7996 7995 ] final   29.57 input   59.86 | X-H torsion
[ 10167 10162 10161 10158 ] final  104.00 input  -65.29 | X-H torsion
[ 10718 10713 10712 10709 ] final   69.14 input   66.30 | X-H torsion
[ 10763 10752 10751 10750 ] final -106.70 input  -60.55 | X-H torsion
[ 11005 11000 10999 10996 ] final   46.69 input  -57.11 | X-H torsion

> <Gold.Protein.ActiveResidues>
 VAL166  LYS551  ARG553  GLY616  TRP617  ASP618  TYR619  PRO620  LYS621  CYS622 
 ASP623  PHE694  ASN695  SER759  ASP760  ASP761  ALA762  ILE779  LEU786  VAL792 
 PHE793  MET794  SER795  GLU796  ALA797  LYS798  CYS799  TRP800  GLU811  SER814 

> <Gold.Protein.RotatedAtoms>
  150.8868  134.8267  159.7264 H   0  0  0  0  0  0  0  0  0  0  0  0  # atno 6907 bound_to 6896
  152.4812  134.4710  159.9645 H   0  0  0  0  0  0  0  0  0  0  0  0  # atno 6908 bound_to 6896
  151.4778  133.3515  159.2869 H   0  0  0  0  0  0  0  0  0  0  0  0  # atno 6909 bound_to 6896
  146.2127  139.8229  142.8676 H   0  0  0  0  0  0  0  0  0  0  0  0  # atno 7974 bound_to 7965
  155.0766  140.3206  155.4614 H   0  0  0  0  0  0  0  0  0  0  0  0  # atno 8008 bound_to 7997
  156.2777  140.2102  156.5839 H   0  0  0  0  0  0  0  0  0  0  0  0  # atno 8009 bound_to 7997
  154.7012  140.0507  157.0447 H   0  0  0  0  0  0  0  0  0  0  0  0  # atno 8010 bound_to 7997
  139.7214  144.7057  151.0866 H   0  0  0  0  0  0  0  0  0  0  0  0  # atno 10167 bound_to 10162
  157.6329  130.9410  150.0472 H   0  0  0  0  0  0  0  0  0  0  0  0  # atno 10718 bound_to 10713
  154.8028  135.4702  154.0319 H   0  0  0  0  0  0  0  0  0  0  0  0  # atno 10763 bound_to 10752
  153.1811  135.6840  153.8484 H   0  0  0  0  0  0  0  0  0  0  0  0  # atno 10764 bound_to 10752
  153.8034  135.3227  155.3370 H   0  0  0  0  0  0  0  0  0  0  0  0  # atno 10765 bound_to 10752
  140.1346  134.4661  155.8495 H   0  0  0  0  0  0  0  0  0  0  0  0  # atno 11005 bound_to 11000
  145.3078  141.0211  143.3572 LP  0  0  0  0  0  0  0  0  0  0  0  0  # atno 17320 bound_to 7965
  144.8958  139.4714  143.6656 LP  0  0  0  0  0  0  0  0  0  0  0  0  # atno 17321 bound_to 7965
  140.7754  143.5161  150.9593 LP  0  0  0  0  0  0  0  0  0  0  0  0  # atno 17342 bound_to 10162
  139.8848  143.7027  152.3153 LP  0  0  0  0  0  0  0  0  0  0  0  0  # atno 17343 bound_to 10162
  156.1545  130.3643  149.9388 LP  0  0  0  0  0  0  0  0  0  0  0  0  # atno 17370 bound_to 10713
  156.7401  130.9076  151.3631 LP  0  0  0  0  0  0  0  0  0  0  0  0  # atno 17371 bound_to 10713
  141.2176  133.6809  156.7133 LP  0  0  0  0  0  0  0  0  0  0  0  0  # atno 17394 bound_to 11000
  140.2799  134.8325  157.3923 LP  0  0  0  0  0  0  0  0  0  0  0  0  # atno 17395 bound_to 11000

$$$$
