AV-unprocessed.smi:1638|AV-procd|sdf|6547|dock4
  -GOLD-   22720 7233D 1   1.00000     0.00000
 Structure written by MMmdl.
 40 41  0  0  0  0  0  0  0  0  3 V2000
  146.2899  136.4861  162.5595 C   0  0  0  0  0  0  0  0  0  0  0  0
  146.9620  136.2295  161.2543 C   0  0  0  0  0  0  0  0  0  0  0  0
  147.0273  137.1425  160.2818 N   0  0  0  0  0  0  0  0  0  0  0  0
  147.7041  136.6704  159.1675 N   0  0  0  0  0  0  0  0  0  0  0  0
  148.1543  135.4161  159.3182 C   0  0  0  0  0  0  0  0  0  0  0  0
  148.8505  134.7847  158.3588 N   0  5  0  0  0  0  0  0  0  0  0  0
  148.9270  135.3288  157.1252 C   0  0  0  0  0  0  0  0  0  0  0  0
  148.1580  136.1666  156.6496 O   0  0  0  0  0  0  0  0  0  0  0  0
  149.9231  134.8330  156.3773 N   0  0  0  0  0  0  0  0  0  0  0  0
  150.1083  135.0473  154.9427 C   0  0  0  0  0  0  0  0  0  0  0  0
  149.7647  133.7735  154.1427 C   0  0  0  0  0  0  0  0  0  0  0  0
  148.4774  133.9004  153.4061 N   0  3  0  0  0  0  0  0  0  0  0  0
  147.3078  134.2422  154.2540 C   0  0  0  0  0  0  0  0  0  0  0  0
  146.5178  135.3924  153.6067 C   0  0  0  0  0  0  0  0  0  0  0  0
  145.6669  134.9808  152.3948 C   0  0  0  0  0  0  0  0  0  0  0  0
  146.4419  134.2582  151.2787 C   0  0  0  0  0  0  0  0  0  0  0  0
  146.9012  132.8493  151.6947 C   0  0  0  0  0  0  0  0  0  0  0  0
  148.2464  132.7873  152.4476 C   0  0  0  0  0  0  0  0  0  0  0  0
  147.7399  134.7017  160.8750 S   0  0  0  0  0  0  0  0  0  0  0  0
  147.0023  136.9108  163.2671 H   0  0  0  0  0  0  0  0  0  0  0  0
  145.8990  135.5553  162.9711 H   0  0  0  0  0  0  0  0  0  0  0  0
  145.4623  137.1844  162.4310 H   0  0  0  0  0  0  0  0  0  0  0  0
  150.5418  134.1689  156.8203 H   0  0  0  0  0  0  0  0  0  0  0  0
  149.5193  135.8963  154.5929 H   0  0  0  0  0  0  0  0  0  0  0  0
  151.1508  135.3160  154.7714 H   0  0  0  0  0  0  0  0  0  0  0  0
  150.5726  133.5121  153.4581 H   0  0  0  0  0  0  0  0  0  0  0  0
  149.7080  132.9588  154.8651 H   0  0  0  0  0  0  0  0  0  0  0  0
  146.6800  133.3704  154.4427 H   0  0  0  0  0  0  0  0  0  0  0  0
  147.6321  134.5870  155.2358 H   0  0  0  0  0  0  0  0  0  0  0  0
  145.8543  135.8282  154.3543 H   0  0  0  0  0  0  0  0  0  0  0  0
  147.2043  136.1907  153.3194 H   0  0  0  0  0  0  0  0  0  0  0  0
  144.8394  134.3533  152.7276 H   0  0  0  0  0  0  0  0  0  0  0  0
  145.2081  135.8778  151.9773 H   0  0  0  0  0  0  0  0  0  0  0  0
  145.7744  134.1603  150.4220 H   0  0  0  0  0  0  0  0  0  0  0  0
  147.2821  134.8601  150.9319 H   0  0  0  0  0  0  0  0  0  0  0  0
  146.1205  132.3747  152.2901 H   0  0  0  0  0  0  0  0  0  0  0  0
  146.9916  132.2301  150.8017 H   0  0  0  0  0  0  0  0  0  0  0  0
  149.0558  132.7926  151.7180 H   0  0  0  0  0  0  0  0  0  0  0  0
  148.3146  131.8327  152.9708 H   0  0  0  0  0  0  0  0  0  0  0  0
  148.6042  134.7252  152.8353 H   0  0  0  0  0  0  0  0  0  0  0  0
  1  2  1  0  0  0  0
  1 20  1  0  0  0  0
  1 21  1  0  0  0  0
  1 22  1  0  0  0  0
  2 19  1  0  0  0  0
  2  3  2  0  0  0  0
  3  4  1  0  0  0  0
  4  5  2  0  0  0  0
  5  6  1  0  0  0  0
  5 19  1  0  0  0  0
  6  7  1  0  0  0  0
  7  8  2  0  0  0  0
  7  9  1  0  0  0  0
  9 10  1  0  0  0  0
  9 23  1  0  0  0  0
 10 11  1  0  0  0  0
 10 24  1  0  0  0  0
 10 25  1  0  0  0  0
 11 12  1  0  0  0  0
 11 26  1  0  0  0  0
 11 27  1  0  0  0  0
 12 18  1  0  0  0  0
 12 13  1  0  0  0  0
 12 40  1  0  0  0  0
 13 14  1  0  0  0  0
 13 28  1  0  0  0  0
 13 29  1  0  0  0  0
 14 15  1  0  0  0  0
 14 30  1  0  0  0  0
 14 31  1  0  0  0  0
 15 16  1  0  0  0  0
 15 32  1  0  0  0  0
 15 33  1  0  0  0  0
 16 17  1  0  0  0  0
 16 34  1  0  0  0  0
 16 35  1  0  0  0  0
 17 18  1  0  0  0  0
 17 36  1  0  0  0  0
 17 37  1  0  0  0  0
 18 38  1  0  0  0  0
 18 39  1  0  0  0  0
M  CHG  1   6  -1
M  CHG  1  12   1
M  END
> <s_m_source_file>
AV-unprocessed.smi

> <i_m_source_file_index>
1638

> <i_lp_mmshare_version>
43012

> <i_f3d_flags>
0

> <s_epik_input>
W0NIM11jMW5uYyhzMSlbTkhdQyg9TylbTkhdW0NIMl1bQ0gyXU4yW0NIMl1bQ0gyXVtDSDJdW0NIMl1bQ0gyXVtDSDJdMg==

> <s_epik_cmdline>
J2VwaWtfcHl0aG9uJywgJy1waCcsICc3LjAnLCAnLXRuJywgJzgnLCAnLW1hJywgJzIwMCcsICctbWV0YWxfYmluZGluZycsICctaW1hZScsICc8aW5maWxlLm1hZT4nLCAnLW9tYWUnLCAnPG91dGZpbGUubWFlPic=

> <r_lp_tautomer_probability>
1

> <r_epik_Ionization_Penalty>
3.03755

> <r_epik_Ionization_Penalty_Charging>
2.92994

> <r_epik_Ionization_Penalty_Neutral>
0.107609

> <r_epik_State_Penalty>
2.92594

> <r_epik_Charging_Adjusted_Penalty>
5.85589

> <i_epik_Tot_Q>
0

> <i_epik_Tot_abs_Q>
2

> <r_epik_Metal_State_Penalty>
0.448256

> <b_epik_Metal_Only>
1

> <s_lp_Force_Field>
OPLS_2005

> <r_lp_Energy>
18.025

> <b_lp_Chiralities_Consistent>
1

> <s_lp_Variant>
AV-unprocessed.smi:1638-2

> <Gold.Version>
5.8.1

> <Gold.Id.Protein>
6NUR|6NUR_protein|mol2

> <Gold.PLP.Fitness>
41.0463

> <Gold.PLP.PLP>
-27.0112

> <Gold.PLP.part.hbond>
-3.9832

> <Gold.PLP.part.metal>
0.0000

> <Gold.PLP.part.buried>
-1.9963

> <Gold.PLP.part.nonpolar>
-20.6906

> <Gold.PLP.part.repulsive>
0.0887

> <Gold.PLP.ligand.clash>
0.0000

> <Gold.PLP.ligand.torsion>
0.5454

> <Gold.PLP.Chemscore.Hbond>
5.0000

> <Gold.PLP.Chemscore.CHOScore>
0.0000

> <Gold.PLP.Chemscore.Metal>
0.0000

> <Gold.Chemscore.Hbonds>
donor molecule, donor type, donor heavy atom, donor atom, acceptor molecule, acceptor atom, score
      L1  H    12    40       P1  7948  1.90
      P1  H  6896  6907       L1     6  1.50
      P1  H  6934  6947       L1     3  1.00

> <Gold.PLP.Chemscore.Internal.Correction>
0.1260

> <Gold.Rescore>
     Score         DG    S(hbond)    S(metal)    S(lipo)     H(rot)  DE(clash)    DE(int)     intcor
     13.60     -16.16       2.38        0.00      57.57       1.57       0.37       2.19       ----

> <Gold.Chemscore.Fitness>
13.6043

> <Gold.Chemscore.DG>
-16.1608

> <Gold.Chemscore.ZeroCoef>
-5.4800

> <Gold.Chemscore.Hbond>
2.3836

> <Gold.Chemscore.Metal>
0.0000

> <Gold.Chemscore.Lipo>
57.5682

> <Gold.Chemscore.Internal_Hbond>
0.0000

> <Gold.Chemscore.DEClash>
0.3660

> <Gold.Chemscore.DEInternal>
2.1906

> <Gold.Chemscore.Rot>
1.5686

> <Gold.Chemscore.Internal.Correction>
   9.000000E+99

> <Gold.Chemscore.Hbonds>
donor molecule, donor type, donor heavy atom, donor atom, acceptor molecule, acceptor atom, score
      L1  H    12    40       P1  7948  0.22
      P1  H  6896  6907       L1     6  0.19
      P1  H  6934  6947       L1     3  0.87

> <Gold.Chemscore.Hbond.Weighted>
-7.9611

> <Gold.Chemscore.Metal.Weighted>
-0.0000

> <Gold.Chemscore.Lipo.Weighted>
-6.7355

> <Gold.Chemscore.Internal_Hbond.Weighted>
0.0000

> <Gold.Chemscore.DEClash.Weighted>
0.3660

> <Gold.Chemscore.DEInternal.Weighted>
2.1906

> <Gold.Chemscore.Rot.Weighted>
4.0157

> <Gold.Chemscore.Internal.Correction.Weighted>
   9.000000E+99

> <Gold.Protein.RotatedTorsions>
[ 6907 6896 6895 6894 ] final  -85.31 input  -60.11 | X-H torsion
[ 7974 7965 7964 7962 ] final   61.96 input  175.53 | X-H torsion
[ 8008 7997 7996 7995 ] final  -18.34 input   59.86 | X-H torsion
[ 10167 10162 10161 10158 ] final  157.51 input  -65.29 | X-H torsion
[ 10718 10713 10712 10709 ] final    5.21 input   66.30 | X-H torsion
[ 10763 10752 10751 10750 ] final -170.90 input  -60.55 | X-H torsion
[ 11005 11000 10999 10996 ] final  -60.60 input  -57.11 | X-H torsion

> <Gold.Protein.ActiveResidues>
 VAL166  LYS551  ARG553  GLY616  TRP617  ASP618  TYR619  PRO620  LYS621  CYS622 
 ASP623  PHE694  ASN695  SER759  ASP760  ASP761  ALA762  ILE779  LEU786  VAL792 
 PHE793  MET794  SER795  GLU796  ALA797  LYS798  CYS799  TRP800  GLU811  SER814 

> <Gold.Protein.RotatedAtoms>
  150.6871  134.3223  159.4791 H   0  0  0  0  0  0  0  0  0  0  0  0  # atno 6907 bound_to 6896
  152.1097  134.9280  160.0576 H   0  0  0  0  0  0  0  0  0  0  0  0  # atno 6908 bound_to 6896
  152.0527  133.3991  159.4421 H   0  0  0  0  0  0  0  0  0  0  0  0  # atno 6909 bound_to 6896
  145.8788  139.3428  143.0718 H   0  0  0  0  0  0  0  0  0  0  0  0  # atno 7974 bound_to 7965
  154.4913  140.2118  155.9542 H   0  0  0  0  0  0  0  0  0  0  0  0  # atno 8008 bound_to 7997
  156.1309  140.3197  155.8316 H   0  0  0  0  0  0  0  0  0  0  0  0  # atno 8009 bound_to 7997
  155.4298  140.0502  157.3010 H   0  0  0  0  0  0  0  0  0  0  0  0  # atno 8010 bound_to 7997
  139.4823  144.4911  151.8307 H   0  0  0  0  0  0  0  0  0  0  0  0  # atno 10167 bound_to 10162
  156.9041  130.5732  149.5647 H   0  0  0  0  0  0  0  0  0  0  0  0  # atno 10718 bound_to 10713
  154.6365  135.2893  155.0155 H   0  0  0  0  0  0  0  0  0  0  0  0  # atno 10763 bound_to 10752
  154.1297  135.6535  153.4923 H   0  0  0  0  0  0  0  0  0  0  0  0  # atno 10764 bound_to 10752
  153.0305  135.5307  154.7213 H   0  0  0  0  0  0  0  0  0  0  0  0  # atno 10765 bound_to 10752
  141.1293  133.6623  156.5247 H   0  0  0  0  0  0  0  0  0  0  0  0  # atno 11005 bound_to 11000
  145.9049  140.9218  143.0484 LP  0  0  0  0  0  0  0  0  0  0  0  0  # atno 17320 bound_to 7965
  144.6727  140.1082  143.7457 LP  0  0  0  0  0  0  0  0  0  0  0  0  # atno 17321 bound_to 7965
  140.4395  144.2005  150.5891 LP  0  0  0  0  0  0  0  0  0  0  0  0  # atno 17342 bound_to 10162
  140.4697  143.2417  151.9106 LP  0  0  0  0  0  0  0  0  0  0  0  0  # atno 17343 bound_to 10162
  156.0567  130.5628  150.9107 LP  0  0  0  0  0  0  0  0  0  0  0  0  # atno 17370 bound_to 10713
  157.6008  131.0941  150.8963 LP  0  0  0  0  0  0  0  0  0  0  0  0  # atno 17371 bound_to 10713
  140.4263  134.7141  157.4918 LP  0  0  0  0  0  0  0  0  0  0  0  0  # atno 17394 bound_to 11000
  140.0324  134.6386  155.9088 LP  0  0  0  0  0  0  0  0  0  0  0  0  # atno 17395 bound_to 11000

$$$$
