AV-unprocessed.smi:594|AV-procd|sdf|3016|dock9
  -GOLD-   2262023523D 1   1.00000     0.00000
 Structure written by MMmdl.
 40 41  0  0  0  0  0  0  0  0  3 V2000
  148.9812  140.7029  154.1075 C   0  0  0  0  0  0  0  0  0  0  0  0
  147.7570  141.1282  154.9368 C   0  0  2  0  0  0  0  0  0  0  0  0
  147.1153  142.4158  154.3794 C   0  0  0  0  0  0  0  0  0  0  0  0
  145.8545  142.8061  155.1674 C   0  0  0  0  0  0  0  0  0  0  0  0
  146.1554  142.9538  156.6663 C   0  0  0  0  0  0  0  0  0  0  0  0
  146.7987  141.6766  157.2344 C   0  0  0  0  0  0  0  0  0  0  0  0
  148.0605  141.2594  156.4520 C   0  0  2  0  0  0  0  0  0  0  0  0
  149.1431  142.2114  156.7103 N   0  0  0  0  0  0  0  0  0  0  0  0
  150.3318  141.9281  157.2649 C   0  0  0  0  0  0  0  0  0  0  0  0
  150.6555  140.7983  157.6340 O   0  0  0  0  0  0  0  0  0  0  0  0
  151.3002  143.1122  157.3975 C   0  0  0  0  0  0  0  0  0  0  0  0
  151.7147  143.3777  158.7853 N   0  0  0  0  0  0  0  0  0  0  0  0
  152.4995  142.3911  159.4142 C   0  0  0  0  0  0  0  0  0  0  0  0
  152.9250  142.5180  160.6863 C   0  0  0  0  0  0  0  0  0  0  0  0
  153.7209  141.4894  161.3192 N   0  3  0  0  0  0  0  0  0  0  0  0
  154.2447  141.7333  162.4016 O   0  0  0  0  0  0  0  0  0  0  0  0
  153.8499  140.4057  160.7569 O   0  5  0  0  0  0  0  0  0  0  0  0
  152.5511  143.7208  161.4051 C   0  0  0  0  0  0  0  0  0  0  0  0
  151.7967  144.6660  160.8104 C   0  0  0  0  0  0  0  0  0  0  0  0
  151.3276  144.5215  159.4283 C   0  0  0  0  0  0  0  0  0  0  0  0
  150.6292  145.3762  158.8830 O   0  0  0  0  0  0  0  0  0  0  0  0
  149.7507  141.4752  154.0957 H   0  0  0  0  0  0  0  0  0  0  0  0
  148.7016  140.5040  153.0727 H   0  0  0  0  0  0  0  0  0  0  0  0
  149.4283  139.7925  154.5078 H   0  0  0  0  0  0  0  0  0  0  0  0
  147.0196  140.3312  154.8303 H   0  0  0  0  0  0  0  0  0  0  0  0
  147.8346  143.2352  154.4111 H   0  0  0  0  0  0  0  0  0  0  0  0
  146.8566  142.2775  153.3290 H   0  0  0  0  0  0  0  0  0  0  0  0
  145.4457  143.7385  154.7771 H   0  0  0  0  0  0  0  0  0  0  0  0
  145.0844  142.0472  155.0232 H   0  0  0  0  0  0  0  0  0  0  0  0
  146.8192  143.8049  156.8242 H   0  0  0  0  0  0  0  0  0  0  0  0
  145.2363  143.1773  157.2085 H   0  0  0  0  0  0  0  0  0  0  0  0
  147.0374  141.8155  158.2895 H   0  0  0  0  0  0  0  0  0  0  0  0
  146.0702  140.8658  157.1946 H   0  0  0  0  0  0  0  0  0  0  0  0
  148.3537  140.2754  156.8223 H   0  0  0  0  0  0  0  0  0  0  0  0
  148.9717  143.1677  156.4356 H   0  0  0  0  0  0  0  0  0  0  0  0
  152.1753  142.9093  156.7781 H   0  0  0  0  0  0  0  0  0  0  0  0
  150.8400  143.9979  156.9555 H   0  0  0  0  0  0  0  0  0  0  0  0
  152.7158  141.5311  158.7964 H   0  0  0  0  0  0  0  0  0  0  0  0
  152.8732  143.8723  162.4250 H   0  0  0  0  0  0  0  0  0  0  0  0
  151.5296  145.5539  161.3649 H   0  0  0  0  0  0  0  0  0  0  0  0
  1  2  1  0  0  0  0
  1 22  1  0  0  0  0
  1 23  1  0  0  0  0
  1 24  1  0  0  0  0
  2  7  1  0  0  0  0
  2  3  1  0  0  0  0
  2 25  1  0  0  0  0
  3  4  1  0  0  0  0
  3 26  1  0  0  0  0
  3 27  1  0  0  0  0
  4  5  1  0  0  0  0
  4 28  1  0  0  0  0
  4 29  1  0  0  0  0
  5  6  1  0  0  0  0
  5 30  1  0  0  0  0
  5 31  1  0  0  0  0
  6  7  1  0  0  0  0
  6 32  1  0  0  0  0
  6 33  1  0  0  0  0
  7  8  1  0  0  0  0
  7 34  1  0  0  0  0
  8  9  1  0  0  0  0
  8 35  1  0  0  0  0
  9 10  2  0  0  0  0
  9 11  1  0  0  0  0
 11 12  1  0  0  0  0
 11 36  1  0  0  0  0
 11 37  1  0  0  0  0
 12 20  1  0  0  0  0
 12 13  1  0  0  0  0
 13 14  2  0  0  0  0
 13 38  1  0  0  0  0
 14 15  1  0  0  0  0
 14 18  1  0  0  0  0
 15 16  2  0  0  0  0
 15 17  1  0  0  0  0
 18 19  2  0  0  0  0
 18 39  1  0  0  0  0
 19 20  1  0  0  0  0
 19 40  1  0  0  0  0
 20 21  2  0  0  0  0
M  CHG  1  15   1
M  CHG  1  17  -1
M  END
> <s_m_source_file>
AV-unprocessed.smi

> <i_m_source_file_index>
594

> <i_lp_mmshare_version>
43012

> <i_f3d_flags>
0

> <s_epik_input>
W0NIM11bQ0BASF0xW0NIMl1bQ0gyXVtDSDJdW0NIMl1bQ0BIXTFbTkhdQyg9TylbQ0gyXW4yW2NIXWMoW04rXSg9TylbTy1dKVtjSF1bY0hdYzI9Tw==

> <s_epik_cmdline>
J2VwaWtfcHl0aG9uJywgJy1waCcsICc3LjAnLCAnLXRuJywgJzgnLCAnLW1hJywgJzIwMCcsICctbWV0YWxfYmluZGluZycsICctaW1hZScsICc8aW5maWxlLm1hZT4nLCAnLW9tYWUnLCAnPG91dGZpbGUubWFlPic=

> <r_lp_tautomer_probability>
1

> <r_epik_Ionization_Penalty>
1.91305e-08

> <r_epik_Ionization_Penalty_Charging>
8.35811e-11

> <r_epik_Ionization_Penalty_Neutral>
1.90469e-08

> <r_epik_State_Penalty>
-0

> <r_epik_Charging_Adjusted_Penalty>
8.35811e-11

> <i_epik_Tot_Q>
0

> <i_epik_Tot_abs_Q>
2

> <r_epik_Metal_State_Penalty>
-0

> <b_epik_Metal_Only>
0

> <s_lp_Force_Field>
OPLS_2005

> <r_lp_Energy>
20.6939

> <b_lp_Chiralities_Consistent>
1

> <s_lp_Variant>
AV-unprocessed.smi:594-3

> <Gold.Version>
5.8.1

> <Gold.Id.Protein>
6NUR|6NUR_protein|mol2

> <Gold.PLP.Fitness>
47.9316

> <Gold.PLP.PLP>
-45.1257

> <Gold.PLP.part.hbond>
-2.4051

> <Gold.PLP.part.metal>
0.0000

> <Gold.PLP.part.buried>
-5.4424

> <Gold.PLP.part.nonpolar>
-37.5635

> <Gold.PLP.part.repulsive>
0.2061

> <Gold.PLP.ligand.clash>
0.0000

> <Gold.PLP.ligand.torsion>
0.1026

> <Gold.PLP.Chemscore.Hbond>
1.0000

> <Gold.PLP.Chemscore.CHOScore>
0.0000

> <Gold.PLP.Chemscore.Metal>
0.0000

> <Gold.Chemscore.Hbonds>
donor molecule, donor type, donor heavy atom, donor atom, acceptor molecule, acceptor atom, score
      L1  H     8    35       P1  8028  1.00

> <Gold.PLP.Chemscore.Internal.Correction>
0.0112

> <Gold.Rescore>
     Score         DG    S(hbond)    S(metal)    S(lipo)     H(rot)  DE(clash)    DE(int)     intcor
     13.12     -15.39       1.00        0.00      90.06       1.55       1.49       0.78       ----

> <Gold.Chemscore.Fitness>
13.1168

> <Gold.Chemscore.DG>
-15.3874

> <Gold.Chemscore.ZeroCoef>
-5.4800

> <Gold.Chemscore.Hbond>
1.0000

> <Gold.Chemscore.Metal>
0.0000

> <Gold.Chemscore.Lipo>
90.0564

> <Gold.Chemscore.Internal_Hbond>
0.0000

> <Gold.Chemscore.DEClash>
1.4905

> <Gold.Chemscore.DEInternal>
0.7801

> <Gold.Chemscore.Rot>
1.5505

> <Gold.Chemscore.Internal.Correction>
   9.000000E+99

> <Gold.Chemscore.Hbonds>
donor molecule, donor type, donor heavy atom, donor atom, acceptor molecule, acceptor atom, score
      L1  H     8    35       P1  8028  0.99

> <Gold.Chemscore.Hbond.Weighted>
-3.3400

> <Gold.Chemscore.Metal.Weighted>
-0.0000

> <Gold.Chemscore.Lipo.Weighted>
-10.5366

> <Gold.Chemscore.Internal_Hbond.Weighted>
0.0000

> <Gold.Chemscore.DEClash.Weighted>
1.4905

> <Gold.Chemscore.DEInternal.Weighted>
0.7801

> <Gold.Chemscore.Rot.Weighted>
3.9692

> <Gold.Chemscore.Internal.Correction.Weighted>
   9.000000E+99

> <Gold.Protein.RotatedTorsions>
[ 6907 6896 6895 6894 ] final   95.16 input  -60.11 | X-H torsion
[ 7974 7965 7964 7962 ] final   33.99 input  175.53 | X-H torsion
[ 8008 7997 7996 7995 ] final  110.56 input   59.86 | X-H torsion
[ 10167 10162 10161 10158 ] final  101.82 input  -65.29 | X-H torsion
[ 10718 10713 10712 10709 ] final  -27.03 input   66.30 | X-H torsion
[ 10763 10752 10751 10750 ] final  159.77 input  -60.55 | X-H torsion
[ 11005 11000 10999 10996 ] final  -65.88 input  -57.11 | X-H torsion

> <Gold.Protein.ActiveResidues>
 VAL166  LYS551  ARG553  GLY616  TRP617  ASP618  TYR619  PRO620  LYS621  CYS622 
 ASP623  PHE694  ASN695  SER759  ASP760  ASP761  ALA762  ILE779  LEU786  VAL792 
 PHE793  MET794  SER795  GLU796  ALA797  LYS798  CYS799  TRP800  GLU811  SER814 

> <Gold.Protein.RotatedAtoms>
  152.5445  134.1082  159.8346 H   0  0  0  0  0  0  0  0  0  0  0  0  # atno 6907 bound_to 6896
  151.1152  133.5137  159.2611 H   0  0  0  0  0  0  0  0  0  0  0  0  # atno 6908 bound_to 6896
  151.1840  135.0383  159.8859 H   0  0  0  0  0  0  0  0  0  0  0  0  # atno 6909 bound_to 6896
  146.1383  139.6326  142.9180 H   0  0  0  0  0  0  0  0  0  0  0  0  # atno 7974 bound_to 7965
  156.2062  140.3036  155.9631 H   0  0  0  0  0  0  0  0  0  0  0  0  # atno 8008 bound_to 7997
  155.2836  140.0439  157.3034 H   0  0  0  0  0  0  0  0  0  0  0  0  # atno 8009 bound_to 7997
  154.5636  140.2327  155.8306 H   0  0  0  0  0  0  0  0  0  0  0  0  # atno 8010 bound_to 7997
  139.7404  144.7012  151.0584 H   0  0  0  0  0  0  0  0  0  0  0  0  # atno 10167 bound_to 10162
  156.4434  130.4469  149.7037 H   0  0  0  0  0  0  0  0  0  0  0  0  # atno 10718 bound_to 10713
  154.2369  135.2776  155.2869 H   0  0  0  0  0  0  0  0  0  0  0  0  # atno 10763 bound_to 10752
  154.5577  135.5656  153.6982 H   0  0  0  0  0  0  0  0  0  0  0  0  # atno 10764 bound_to 10752
  153.0008  135.6290  154.2512 H   0  0  0  0  0  0  0  0  0  0  0  0  # atno 10765 bound_to 10752
  141.1467  133.6689  156.6054 H   0  0  0  0  0  0  0  0  0  0  0  0  # atno 11005 bound_to 11000
  145.5105  141.0435  143.2490 LP  0  0  0  0  0  0  0  0  0  0  0  0  # atno 17320 bound_to 7965
  144.7764  139.6620  143.7173 LP  0  0  0  0  0  0  0  0  0  0  0  0  # atno 17321 bound_to 7965
  140.7785  143.4931  150.9867 LP  0  0  0  0  0  0  0  0  0  0  0  0  # atno 17342 bound_to 10162
  139.8620  143.7303  152.3173 LP  0  0  0  0  0  0  0  0  0  0  0  0  # atno 17343 bound_to 10162
  156.3893  130.7619  151.2618 LP  0  0  0  0  0  0  0  0  0  0  0  0  # atno 17370 bound_to 10713
  157.7505  131.0272  150.3997 LP  0  0  0  0  0  0  0  0  0  0  0  0  # atno 17371 bound_to 10713
  140.3656  134.7650  157.4563 LP  0  0  0  0  0  0  0  0  0  0  0  0  # atno 17394 bound_to 11000
  140.0751  134.5809  155.8600 LP  0  0  0  0  0  0  0  0  0  0  0  0  # atno 17395 bound_to 11000

$$$$
