AV-unprocessed.smi:1726|AV-procd|sdf|6960|dock9
  -GOLD-   22720 8173D 1   1.00000     0.00000
 Structure written by MMmdl.
 43 44  0  0  0  0  0  0  0  0  2 V2000
  144.0481  132.3771  149.6867 C   0  0  0  0  0  0  0  0  0  0  0  0
  145.4946  131.9198  149.4497 C   0  0  0  0  0  0  0  0  0  0  0  0
  146.2487  131.7308  150.7150 N   0  3  2  0  0  0  0  0  0  0  0  0
  145.4495  131.0071  151.7380 C   0  0  0  0  0  0  0  0  0  0  0  0
  146.2883  130.7039  152.9903 C   0  0  0  0  0  0  0  0  0  0  0  0
  146.8888  131.9880  153.5762 C   0  0  0  0  0  0  0  0  0  0  0  0
  147.6915  132.7318  152.4979 C   0  0  2  0  0  0  0  0  0  0  0  0
  148.2151  133.9818  153.0418 N   0  0  0  0  0  0  0  0  0  0  0  0
  148.7700  134.1223  154.2546 C   0  0  0  0  0  0  0  0  0  0  0  0
  148.9060  133.1868  155.0431 O   0  0  0  0  0  0  0  0  0  0  0  0
  149.1627  135.3927  154.4616 N   0  0  0  0  0  0  0  0  0  0  0  0
  149.7644  135.9631  155.5964 C   0  0  0  0  0  0  0  0  0  0  0  0
  150.7681  136.8787  155.5666 C   0  0  0  0  0  0  0  0  0  0  0  0
  151.3520  137.4234  156.7812 C   0  0  0  0  0  0  0  0  0  0  0  0
  152.5115  138.4069  156.7388 C   0  0  0  0  0  0  0  0  0  0  0  0
  152.8269  138.7270  155.4830 F   0  0  0  0  0  0  0  0  0  0  0  0
  152.2143  139.5290  157.3945 F   0  0  0  0  0  0  0  0  0  0  0  0
  153.5857  137.8645  157.3107 F   0  0  0  0  0  0  0  0  0  0  0  0
  150.8680  136.9499  157.9443 C   0  0  0  0  0  0  0  0  0  0  0  0
  149.8369  136.0088  157.9838 N   0  0  0  0  0  0  0  0  0  0  0  0
  149.2500  135.4780  156.8878 C   0  0  0  0  0  0  0  0  0  0  0  0
  148.3491  134.6481  157.0057 O   0  0  0  0  0  0  0  0  0  0  0  0
  146.8112  132.9966  151.2574 C   0  0  0  0  0  0  0  0  0  0  0  0
  149.5226  135.7108  158.8962 H   0  0  0  0  0  0  0  0  0  0  0  0
  143.5597  132.6055  148.7391 H   0  0  0  0  0  0  0  0  0  0  0  0
  144.0149  133.2784  150.2994 H   0  0  0  0  0  0  0  0  0  0  0  0
  143.4500  131.6111  150.1795 H   0  0  0  0  0  0  0  0  0  0  0  0
  145.5174  131.0031  148.8585 H   0  0  0  0  0  0  0  0  0  0  0  0
  145.9881  132.6856  148.8495 H   0  0  0  0  0  0  0  0  0  0  0  0
  144.5743  131.6017  152.0050 H   0  0  0  0  0  0  0  0  0  0  0  0
  145.0802  130.0687  151.3224 H   0  0  0  0  0  0  0  0  0  0  0  0
  145.6719  130.2061  153.7394 H   0  0  0  0  0  0  0  0  0  0  0  0
  147.0884  130.0075  152.7357 H   0  0  0  0  0  0  0  0  0  0  0  0
  146.0891  132.6258  153.9558 H   0  0  0  0  0  0  0  0  0  0  0  0
  147.5273  131.7458  154.4266 H   0  0  0  0  0  0  0  0  0  0  0  0
  148.5326  132.0995  152.2056 H   0  0  0  0  0  0  0  0  0  0  0  0
  148.1456  134.8001  152.4539 H   0  0  0  0  0  0  0  0  0  0  0  0
  149.0463  136.0307  153.6874 H   0  0  0  0  0  0  0  0  0  0  0  0
  151.1768  137.2236  154.6312 H   0  0  0  0  0  0  0  0  0  0  0  0
  151.2285  137.2463  158.9183 H   0  0  0  0  0  0  0  0  0  0  0  0
  147.4089  133.4918  150.4931 H   0  0  0  0  0  0  0  0  0  0  0  0
  145.9962  133.6776  151.5094 H   0  0  0  0  0  0  0  0  0  0  0  0
  147.0317  131.1322  150.4943 H   0  0  0  0  0  0  0  0  0  0  0  0
  1  2  1  0  0  0  0
  1 25  1  0  0  0  0
  1 26  1  0  0  0  0
  1 27  1  0  0  0  0
  2  3  1  0  0  0  0
  2 28  1  0  0  0  0
  2 29  1  0  0  0  0
  3 23  1  0  0  0  0
  3  4  1  0  0  0  0
  3 43  1  0  0  0  0
  4  5  1  0  0  0  0
  4 30  1  0  0  0  0
  4 31  1  0  0  0  0
  5  6  1  0  0  0  0
  5 32  1  0  0  0  0
  5 33  1  0  0  0  0
  6  7  1  0  0  0  0
  6 34  1  0  0  0  0
  6 35  1  0  0  0  0
  7  8  1  0  0  0  0
  7 23  1  0  0  0  0
  7 36  1  0  0  0  0
  8  9  1  0  0  0  0
  8 37  1  0  0  0  0
  9 10  2  0  0  0  0
  9 11  1  0  0  0  0
 11 12  1  0  0  0  0
 11 38  1  0  0  0  0
 12 21  1  0  0  0  0
 12 13  2  0  0  0  0
 13 14  1  0  0  0  0
 13 39  1  0  0  0  0
 14 15  1  0  0  0  0
 14 19  2  0  0  0  0
 15 16  1  0  0  0  0
 15 17  1  0  0  0  0
 15 18  1  0  0  0  0
 19 20  1  0  0  0  0
 19 40  1  0  0  0  0
 20 24  1  0  0  0  0
 20 21  1  0  0  0  0
 21 22  2  0  0  0  0
 23 41  1  0  0  0  0
 23 42  1  0  0  0  0
M  CHG  1   3   1
M  END
> <s_m_source_file>
AV-unprocessed.smi

> <i_m_source_file_index>
1726

> <i_lp_mmshare_version>
43012

> <i_f3d_flags>
0

> <s_epik_input>
W0NIM11bQ0gyXU4xW0NIMl1bQ0gyXVtDSDJdW0NASF0oW0NIMl0xKVtOSF1DKD1PKVtOSF1jMltjSF1jKEMoRikoRilGKVtjSF1bbkhdYzI9Tw==

> <s_epik_cmdline>
J2VwaWtfcHl0aG9uJywgJy1waCcsICc3LjAnLCAnLXRuJywgJzgnLCAnLW1hJywgJzIwMCcsICctbWV0YWxfYmluZGluZycsICctaW1hZScsICc8aW5maWxlLm1hZT4nLCAnLW9tYWUnLCAnPG91dGZpbGUubWFlPic=

> <r_lp_tautomer_probability>
1

> <r_epik_Ionization_Penalty>
0.00745721

> <r_epik_Ionization_Penalty_Charging>
0.00743804

> <r_epik_Ionization_Penalty_Neutral>
1.91703e-05

> <r_epik_State_Penalty>
-0

> <r_epik_Charging_Adjusted_Penalty>
0.00743804

> <i_epik_Tot_Q>
1

> <i_epik_Tot_abs_Q>
1

> <r_epik_Metal_State_Penalty>
0.37929

> <b_epik_Metal_Only>
0

> <s_lp_Force_Field>
OPLS_2005

> <r_lp_Energy>
26.6941

> <b_lp_Chiralities_Consistent>
1

> <s_lp_Variant>
AV-unprocessed.smi:1726-4

> <Gold.Version>
5.8.1

> <Gold.Id.Protein>
6NUR|6NUR_protein|mol2

> <Gold.PLP.Fitness>
38.9440

> <Gold.PLP.PLP>
-31.6890

> <Gold.PLP.part.hbond>
-3.0000

> <Gold.PLP.part.metal>
0.0000

> <Gold.PLP.part.buried>
-1.7921

> <Gold.PLP.part.nonpolar>
-26.4784

> <Gold.PLP.part.repulsive>
0.1999

> <Gold.PLP.ligand.clash>
0.0000

> <Gold.PLP.ligand.torsion>
0.7083

> <Gold.PLP.Chemscore.Hbond>
2.8720

> <Gold.PLP.Chemscore.CHOScore>
0.0000

> <Gold.PLP.Chemscore.Metal>
0.0000

> <Gold.Chemscore.Hbonds>
donor molecule, donor type, donor heavy atom, donor atom, acceptor molecule, acceptor atom, score
      L1  H     3    43       P1 10747  1.00
      L1  H     8    37       P1  7948  0.91
      L1  H    11    38       P1  7948  0.91

> <Gold.PLP.Chemscore.Internal.Correction>
0.0556

> <Gold.Rescore>
     Score         DG    S(hbond)    S(metal)    S(lipo)     H(rot)  DE(clash)    DE(int)     intcor
     12.33     -18.97       2.40        0.00      74.92       1.29       0.06       6.59       ----

> <Gold.Chemscore.Fitness>
12.3298

> <Gold.Chemscore.DG>
-18.9711

> <Gold.Chemscore.ZeroCoef>
-5.4800

> <Gold.Chemscore.Hbond>
2.4024

> <Gold.Chemscore.Metal>
0.0000

> <Gold.Chemscore.Lipo>
74.9190

> <Gold.Chemscore.Internal_Hbond>
0.0000

> <Gold.Chemscore.DEClash>
0.0552

> <Gold.Chemscore.DEInternal>
6.5860

> <Gold.Chemscore.Rot>
1.2884

> <Gold.Chemscore.Internal.Correction>
   9.000000E+99

> <Gold.Chemscore.Hbonds>
donor molecule, donor type, donor heavy atom, donor atom, acceptor molecule, acceptor atom, score
      L1  H     3    43       P1 10747  0.94
      L1  H     8    37       P1  7948  0.49
      L1  H    11    38       P1  7948  0.85

> <Gold.Chemscore.Hbond.Weighted>
-8.0239

> <Gold.Chemscore.Metal.Weighted>
-0.0000

> <Gold.Chemscore.Lipo.Weighted>
-8.7655

> <Gold.Chemscore.Internal_Hbond.Weighted>
0.0000

> <Gold.Chemscore.DEClash.Weighted>
0.0552

> <Gold.Chemscore.DEInternal.Weighted>
6.5860

> <Gold.Chemscore.Rot.Weighted>
3.2983

> <Gold.Chemscore.Internal.Correction.Weighted>
   9.000000E+99

> <Gold.Protein.RotatedTorsions>
[ 6907 6896 6895 6894 ] final   15.26 input  -60.11 | X-H torsion
[ 7974 7965 7964 7962 ] final    6.60 input  175.53 | X-H torsion
[ 8008 7997 7996 7995 ] final  -66.20 input   59.86 | X-H torsion
[ 10167 10162 10161 10158 ] final  145.47 input  -65.29 | X-H torsion
[ 10718 10713 10712 10709 ] final -157.03 input   66.30 | X-H torsion
[ 10763 10752 10751 10750 ] final -144.70 input  -60.55 | X-H torsion
[ 11005 11000 10999 10996 ] final  -82.20 input  -57.11 | X-H torsion

> <Gold.Protein.ActiveResidues>
 VAL166  LYS551  ARG553  GLY616  TRP617  ASP618  TYR619  PRO620  LYS621  CYS622 
 ASP623  PHE694  ASN695  SER759  ASP760  ASP761  ALA762  ILE779  LEU786  VAL792 
 PHE793  MET794  SER795  GLU796  ALA797  LYS798  CYS799  TRP800  GLU811  SER814 

> <Gold.Protein.RotatedAtoms>
  151.8152  135.0668  160.0417 H   0  0  0  0  0  0  0  0  0  0  0  0  # atno 6907 bound_to 6896
  152.2991  133.5633  159.5615 H   0  0  0  0  0  0  0  0  0  0  0  0  # atno 6908 bound_to 6896
  150.7265  134.0233  159.3751 H   0  0  0  0  0  0  0  0  0  0  0  0  # atno 6909 bound_to 6896
  146.2433  140.0208  142.8398 H   0  0  0  0  0  0  0  0  0  0  0  0  # atno 7974 bound_to 7965
  154.4719  140.0917  156.7166 H   0  0  0  0  0  0  0  0  0  0  0  0  # atno 8008 bound_to 7997
  155.4700  140.3464  155.4306 H   0  0  0  0  0  0  0  0  0  0  0  0  # atno 8009 bound_to 7997
  156.1053  140.1433  156.9400 H   0  0  0  0  0  0  0  0  0  0  0  0  # atno 8010 bound_to 7997
  139.4925  144.5899  151.6701 H   0  0  0  0  0  0  0  0  0  0  0  0  # atno 10167 bound_to 10162
  156.5346  130.8536  151.2728 H   0  0  0  0  0  0  0  0  0  0  0  0  # atno 10718 bound_to 10713
  154.8417  135.3433  154.6387 H   0  0  0  0  0  0  0  0  0  0  0  0  # atno 10763 bound_to 10752
  153.6998  135.6970  153.5071 H   0  0  0  0  0  0  0  0  0  0  0  0  # atno 10764 bound_to 10752
  153.2532  135.4347  155.0773 H   0  0  0  0  0  0  0  0  0  0  0  0  # atno 10765 bound_to 10752
  141.1664  133.7233  156.8536 H   0  0  0  0  0  0  0  0  0  0  0  0  # atno 11005 bound_to 11000
  145.1242  140.9480  143.4582 LP  0  0  0  0  0  0  0  0  0  0  0  0  # atno 17320 bound_to 7965
  145.0451  139.3228  143.5957 LP  0  0  0  0  0  0  0  0  0  0  0  0  # atno 17321 bound_to 7965
  140.5524  144.0403  150.6133 LP  0  0  0  0  0  0  0  0  0  0  0  0  # atno 17342 bound_to 10162
  140.3462  143.2990  152.0536 LP  0  0  0  0  0  0  0  0  0  0  0  0  # atno 17343 bound_to 10162
  157.7416  130.9873  150.2455 LP  0  0  0  0  0  0  0  0  0  0  0  0  # atno 17370 bound_to 10713
  156.3027  130.3761  149.7735 LP  0  0  0  0  0  0  0  0  0  0  0  0  # atno 17371 bound_to 10713
  140.1898  134.8974  157.3047 LP  0  0  0  0  0  0  0  0  0  0  0  0  # atno 17394 bound_to 11000
  140.2303  134.3917  155.7525 LP  0  0  0  0  0  0  0  0  0  0  0  0  # atno 17395 bound_to 11000

$$$$
