AV-unprocessed.smi:3049|AV-procd|sdf|11630|dock5
  -GOLD-   2272017 23D 1   1.00000     0.00000
 Structure written by MMmdl.
 52 53  0  0  0  0  0  0  0  0  2 V2000
  150.8490  142.8960  157.7368 C   0  0  0  0  0  0  0  0  0  0  0  0
  150.8293  142.1054  156.4183 C   0  0  0  0  0  0  0  0  0  0  0  0
  150.7449  140.5688  156.6022 C   0  0  0  0  0  0  0  0  0  0  0  0
  151.0978  139.8132  155.3007 C   0  0  0  0  0  0  0  0  0  0  0  0
  152.5339  139.2718  155.2660 C   0  0  0  0  0  0  0  0  0  0  0  0
  149.3497  140.1175  157.0957 C   0  0  0  0  0  0  0  0  0  0  0  0
  149.2550  139.6747  158.2418 O   0  0  0  0  0  0  0  0  0  0  0  0
  148.2784  140.1835  156.2654 N   0  0  0  0  0  0  0  0  0  0  0  0
  148.2552  140.7648  154.9181 C   0  0  0  0  0  0  0  0  0  0  0  0
  148.1858  139.6166  153.8967 C   0  0  0  0  0  0  0  0  0  0  0  0
  146.9481  138.7270  154.1516 C   0  0  0  0  0  0  0  0  0  0  0  0
  147.0138  137.5404  153.3044 N   0  0  0  0  0  0  0  0  0  0  0  0
  145.9778  136.7437  153.0054 C   0  0  0  0  0  0  0  0  0  0  0  0
  144.8341  136.9433  153.4138 O   0  0  0  0  0  0  0  0  0  0  0  0
  146.3727  135.7155  152.2330 N   0  0  0  0  0  0  0  0  0  0  0  0
  145.5988  134.6883  151.6759 C   0  0  0  0  0  0  0  0  0  0  0  0
  144.2533  134.4295  151.8996 C   0  0  0  0  0  0  0  0  0  0  0  0
  143.4853  133.4590  151.3562 N   0  5  0  0  0  0  0  0  0  0  0  0
  144.0590  132.6004  150.4653 C   0  0  0  0  0  0  0  0  0  0  0  0
  143.4182  131.6944  149.9336 O   0  0  0  0  0  0  0  0  0  0  0  0
  145.4877  132.7692  150.1345 C   0  0  0  0  0  0  0  0  0  0  0  0
  146.1274  131.8124  149.1430 C   0  0  0  0  0  0  0  0  0  0  0  0
  146.1949  133.7664  150.7208 C   0  0  0  0  0  0  0  0  0  0  0  0
  146.8307  138.3219  155.6411 C   0  0  0  0  0  0  0  0  0  0  0  0
  146.9990  139.5346  156.5752 C   0  0  0  0  0  0  0  0  0  0  0  0
  150.9667  143.9624  157.5442 H   0  0  0  0  0  0  0  0  0  0  0  0
  151.6782  142.5810  158.3709 H   0  0  0  0  0  0  0  0  0  0  0  0
  149.9264  142.7667  158.3030 H   0  0  0  0  0  0  0  0  0  0  0  0
  150.0084  142.4598  155.7935 H   0  0  0  0  0  0  0  0  0  0  0  0
  151.7384  142.3552  155.8721 H   0  0  0  0  0  0  0  0  0  0  0  0
  151.4890  140.3309  157.3603 H   0  0  0  0  0  0  0  0  0  0  0  0
  150.4225  138.9663  155.1679 H   0  0  0  0  0  0  0  0  0  0  0  0
  150.9337  140.4620  154.4391 H   0  0  0  0  0  0  0  0  0  0  0  0
  152.7062  138.6990  154.3546 H   0  0  0  0  0  0  0  0  0  0  0  0
  152.7264  138.6113  156.1119 H   0  0  0  0  0  0  0  0  0  0  0  0
  153.2708  140.0740  155.2905 H   0  0  0  0  0  0  0  0  0  0  0  0
  147.3721  141.3976  154.8168 H   0  0  0  0  0  0  0  0  0  0  0  0
  149.0918  141.4292  154.7094 H   0  0  0  0  0  0  0  0  0  0  0  0
  148.1549  140.0192  152.8837 H   0  0  0  0  0  0  0  0  0  0  0  0
  149.0968  139.0197  153.9661 H   0  0  0  0  0  0  0  0  0  0  0  0
  146.0651  139.3111  153.8851 H   0  0  0  0  0  0  0  0  0  0  0  0
  147.9188  137.2992  152.9283 H   0  0  0  0  0  0  0  0  0  0  0  0
  147.3593  135.6609  152.0275 H   0  0  0  0  0  0  0  0  0  0  0  0
  143.6923  135.0994  152.5810 H   0  0  0  0  0  0  0  0  0  0  0  0
  147.1785  132.0524  148.9807 H   0  0  0  0  0  0  0  0  0  0  0  0
  145.6176  131.8631  148.1806 H   0  0  0  0  0  0  0  0  0  0  0  0
  146.0686  130.7877  149.5112 H   0  0  0  0  0  0  0  0  0  0  0  0
  147.2403  133.8818  150.4745 H   0  0  0  0  0  0  0  0  0  0  0  0
  145.8686  137.8427  155.8262 H   0  0  0  0  0  0  0  0  0  0  0  0
  147.5948  137.5809  155.8818 H   0  0  0  0  0  0  0  0  0  0  0  0
  146.9239  139.2126  157.6146 H   0  0  0  0  0  0  0  0  0  0  0  0
  146.1816  140.2415  156.4258 H   0  0  0  0  0  0  0  0  0  0  0  0
  1  2  1  0  0  0  0
  1 26  1  0  0  0  0
  1 27  1  0  0  0  0
  1 28  1  0  0  0  0
  2  3  1  0  0  0  0
  2 29  1  0  0  0  0
  2 30  1  0  0  0  0
  3  4  1  0  0  0  0
  3  6  1  0  0  0  0
  3 31  1  0  0  0  0
  4  5  1  0  0  0  0
  4 32  1  0  0  0  0
  4 33  1  0  0  0  0
  5 34  1  0  0  0  0
  5 35  1  0  0  0  0
  5 36  1  0  0  0  0
  6  7  2  0  0  0  0
  6  8  1  0  0  0  0
  8 25  1  0  0  0  0
  8  9  1  0  0  0  0
  9 10  1  0  0  0  0
  9 37  1  0  0  0  0
  9 38  1  0  0  0  0
 10 11  1  0  0  0  0
 10 39  1  0  0  0  0
 10 40  1  0  0  0  0
 11 12  1  0  0  0  0
 11 24  1  0  0  0  0
 11 41  1  0  0  0  0
 12 13  1  0  0  0  0
 12 42  1  0  0  0  0
 13 14  2  0  0  0  0
 13 15  1  0  0  0  0
 15 16  1  0  0  0  0
 15 43  1  0  0  0  0
 16 23  1  0  0  0  0
 16 17  2  0  0  0  0
 17 18  1  0  0  0  0
 17 44  1  0  0  0  0
 18 19  1  0  0  0  0
 19 20  2  0  0  0  0
 19 21  1  0  0  0  0
 21 22  1  0  0  0  0
 21 23  2  0  0  0  0
 22 45  1  0  0  0  0
 22 46  1  0  0  0  0
 22 47  1  0  0  0  0
 23 48  1  0  0  0  0
 24 25  1  0  0  0  0
 24 49  1  0  0  0  0
 24 50  1  0  0  0  0
 25 51  1  0  0  0  0
 25 52  1  0  0  0  0
M  CHG  1  18  -1
M  END
> <s_m_source_file>
AV-unprocessed.smi

> <i_m_source_file_index>
3049

> <i_lp_mmshare_version>
43012

> <i_f3d_flags>
0

> <s_epik_input>
W0NIM11bQ0gyXVtDSF0oW0NIMl1bQ0gzXSlDKD1PKU4xW0NIMl1bQ0gyXVtDSF0oW0NIMl1bQ0gyXTEpW05IXUMoPU8pW05IXWMyW2NIXVtuSF1jKD1PKWMoW0NIM10pW2NIXTI=

> <s_epik_cmdline>
J2VwaWtfcHl0aG9uJywgJy1waCcsICc3LjAnLCAnLXRuJywgJzgnLCAnLW1hJywgJzIwMCcsICctbWV0YWxfYmluZGluZycsICctaW1hZScsICc8aW5maWxlLm1hZT4nLCAnLW9tYWUnLCAnPG91dGZpbGUubWFlPic=

> <r_lp_tautomer_probability>
1

> <r_epik_Ionization_Penalty>
7.58311

> <r_epik_Ionization_Penalty_Charging>
1.51652

> <r_epik_Ionization_Penalty_Neutral>
6.06659

> <r_epik_State_Penalty>
6.06654

> <r_epik_Charging_Adjusted_Penalty>
7.58305

> <i_epik_Tot_Q>
-1

> <i_epik_Tot_abs_Q>
1

> <r_epik_Metal_State_Penalty>
2.01464

> <b_epik_Metal_Only>
1

> <s_lp_Force_Field>
OPLS_2005

> <r_lp_Energy>
39.554

> <b_lp_Chiralities_Consistent>
1

> <s_lp_Variant>
AV-unprocessed.smi:3049-2

> <Gold.Version>
5.8.1

> <Gold.Id.Protein>
6NUR|6NUR_protein|mol2

> <Gold.PLP.Fitness>
43.0417

> <Gold.PLP.PLP>
-36.0124

> <Gold.PLP.part.hbond>
-3.2303

> <Gold.PLP.part.metal>
0.0000

> <Gold.PLP.part.buried>
-3.3885

> <Gold.PLP.part.nonpolar>
-31.1928

> <Gold.PLP.part.repulsive>
1.7046

> <Gold.PLP.ligand.clash>
0.0000

> <Gold.PLP.ligand.torsion>
1.0668

> <Gold.PLP.Chemscore.Hbond>
3.0000

> <Gold.PLP.Chemscore.CHOScore>
0.0000

> <Gold.PLP.Chemscore.Metal>
0.0000

> <Gold.Chemscore.Hbonds>
donor molecule, donor type, donor heavy atom, donor atom, acceptor molecule, acceptor atom, score
      L1  H    12    42       P1  7948  1.00
      L1  H    15    43       P1  7948  1.00
      P1  H 10785 10796       L1    20  1.00

> <Gold.PLP.Chemscore.Internal.Correction>
0.1630

> <Gold.Rescore>
     Score         DG    S(hbond)    S(metal)    S(lipo)     H(rot)  DE(clash)    DE(int)     intcor
     19.01     -21.28       2.86        0.00      87.06       1.54       0.23       2.04       ----

> <Gold.Chemscore.Fitness>
19.0115

> <Gold.Chemscore.DG>
-21.2796

> <Gold.Chemscore.ZeroCoef>
-5.4800

> <Gold.Chemscore.Hbond>
2.8586

> <Gold.Chemscore.Metal>
0.0000

> <Gold.Chemscore.Lipo>
87.0591

> <Gold.Chemscore.Internal_Hbond>
0.0000

> <Gold.Chemscore.DEClash>
0.2298

> <Gold.Chemscore.DEInternal>
2.0384

> <Gold.Chemscore.Rot>
1.5367

> <Gold.Chemscore.Internal.Correction>
   9.000000E+99

> <Gold.Chemscore.Hbonds>
donor molecule, donor type, donor heavy atom, donor atom, acceptor molecule, acceptor atom, score
      L1  H    12    42       P1  7948  0.94
      L1  H    15    43       P1  7948  0.99
      P1  H 10785 10796       L1    20  0.95

> <Gold.Chemscore.Hbond.Weighted>
-9.5477

> <Gold.Chemscore.Metal.Weighted>
-0.0000

> <Gold.Chemscore.Lipo.Weighted>
-10.1859

> <Gold.Chemscore.Internal_Hbond.Weighted>
0.0000

> <Gold.Chemscore.DEClash.Weighted>
0.2298

> <Gold.Chemscore.DEInternal.Weighted>
2.0384

> <Gold.Chemscore.Rot.Weighted>
3.9340

> <Gold.Chemscore.Internal.Correction.Weighted>
   9.000000E+99

> <Gold.Protein.RotatedTorsions>
[ 6907 6896 6895 6894 ] final   97.24 input  -60.11 | X-H torsion
[ 7974 7965 7964 7962 ] final  -58.06 input  175.53 | X-H torsion
[ 8008 7997 7996 7995 ] final -131.74 input   59.86 | X-H torsion
[ 10167 10162 10161 10158 ] final  -61.72 input  -65.29 | X-H torsion
[ 10718 10713 10712 10709 ] final  138.77 input   66.30 | X-H torsion
[ 10763 10752 10751 10750 ] final   36.38 input  -60.55 | X-H torsion
[ 11005 11000 10999 10996 ] final -148.01 input  -57.11 | X-H torsion

> <Gold.Protein.ActiveResidues>
 VAL166  LYS551  ARG553  GLY616  TRP617  ASP618  TYR619  PRO620  LYS621  CYS622 
 ASP623  PHE694  ASN695  SER759  ASP760  ASP761  ALA762  ILE779  LEU786  VAL792 
 PHE793  MET794  SER795  GLU796  ALA797  LYS798  CYS799  TRP800  GLU811  SER814 

> <Gold.Protein.RotatedAtoms>
  152.5426  134.0764  159.8215 H   0  0  0  0  0  0  0  0  0  0  0  0  # atno 6907 bound_to 6896
  151.0871  133.5337  159.2624 H   0  0  0  0  0  0  0  0  0  0  0  0  # atno 6908 bound_to 6896
  151.2142  135.0502  159.8978 H   0  0  0  0  0  0  0  0  0  0  0  0  # atno 6909 bound_to 6896
  145.8438  140.8399  143.0021 H   0  0  0  0  0  0  0  0  0  0  0  0  # atno 7974 bound_to 7965
  155.3173  140.0460  157.3037 H   0  0  0  0  0  0  0  0  0  0  0  0  # atno 8008 bound_to 7997
  154.5400  140.2284  155.8624 H   0  0  0  0  0  0  0  0  0  0  0  0  # atno 8009 bound_to 7997
  156.1871  140.3060  155.9266 H   0  0  0  0  0  0  0  0  0  0  0  0  # atno 8010 bound_to 7997
  140.5987  143.2356  151.5978 H   0  0  0  0  0  0  0  0  0  0  0  0  # atno 10167 bound_to 10162
  157.4217  131.1039  151.0346 H   0  0  0  0  0  0  0  0  0  0  0  0  # atno 10718 bound_to 10713
  153.0079  135.6307  154.1976 H   0  0  0  0  0  0  0  0  0  0  0  0  # atno 10763 bound_to 10752
  154.1719  135.2818  155.3080 H   0  0  0  0  0  0  0  0  0  0  0  0  # atno 10764 bound_to 10752
  154.5902  135.5620  153.7331 H   0  0  0  0  0  0  0  0  0  0  0  0  # atno 10765 bound_to 10752
  140.7657  134.3247  157.5089 H   0  0  0  0  0  0  0  0  0  0  0  0  # atno 11005 bound_to 11000
  144.6732  140.0851  143.7467 LP  0  0  0  0  0  0  0  0  0  0  0  0  # atno 17320 bound_to 7965
  145.9436  139.2685  143.1254 LP  0  0  0  0  0  0  0  0  0  0  0  0  # atno 17321 bound_to 7965
  139.5276  144.3012  152.1071 LP  0  0  0  0  0  0  0  0  0  0  0  0  # atno 17342 bound_to 10162
  140.2189  144.4486  150.6351 LP  0  0  0  0  0  0  0  0  0  0  0  0  # atno 17343 bound_to 10162
  157.1274  130.6088  149.5520 LP  0  0  0  0  0  0  0  0  0  0  0  0  # atno 17370 bound_to 10713
  155.9883  130.4925  150.7163 LP  0  0  0  0  0  0  0  0  0  0  0  0  # atno 17371 bound_to 10713
  139.8763  134.9229  156.3312 LP  0  0  0  0  0  0  0  0  0  0  0  0  # atno 17394 bound_to 11000
  140.9622  133.7381  156.0416 LP  0  0  0  0  0  0  0  0  0  0  0  0  # atno 17395 bound_to 11000

$$$$
