AV-unprocessed.smi:701|AV-procd|sdf|3413|dock6
  -GOLD-   22720 0393D 1   1.00000     0.00000
 Structure written by MMmdl.
 48 50  0  0  0  0  0  0  0  0  2 V2000
  145.1340  138.7162  157.8890 C   0  0  0  0  0  0  0  0  0  0  0  0
  144.8017  138.3243  159.3301 C   0  0  0  0  0  0  0  0  0  0  0  0
  145.9585  137.7591  159.9229 O   0  0  0  0  0  0  0  0  0  0  0  0
  146.0563  136.3521  159.7391 C   0  0  1  0  0  0  0  0  0  0  0  0
  146.4096  135.9789  158.2941 C   0  0  0  0  0  0  0  0  0  0  0  0
  147.8874  135.9857  158.7106 C   0  0  1  0  0  0  0  0  0  0  0  0
  148.5169  137.2824  158.4583 N   0  0  0  0  0  0  0  0  0  0  0  0
  149.7253  137.6462  158.9095 C   0  0  0  0  0  0  0  0  0  0  0  0
  150.4330  136.9107  159.5996 O   0  0  0  0  0  0  0  0  0  0  0  0
  150.2059  139.0404  158.4828 C   0  0  0  0  0  0  0  0  0  0  0  0
  151.1836  139.0087  157.3832 N   0  0  0  0  0  0  0  0  0  0  0  0
  150.7320  139.3671  156.1008 C   0  0  0  0  0  0  0  0  0  0  0  0
  151.5495  139.3568  155.0311 C   0  0  0  0  0  0  0  0  0  0  0  0
  152.9385  138.9616  155.2283 C   0  0  0  0  0  0  0  0  0  0  0  0
  153.7010  138.9517  154.2638 O   0  0  0  0  0  0  0  0  0  0  0  0
  153.3277  138.6181  156.4909 N   0  5  0  0  0  0  0  0  0  0  0  0
  152.4833  138.6280  157.5688 C   0  0  0  0  0  0  0  0  0  0  0  0
  152.8535  138.3072  158.6987 O   0  0  0  0  0  0  0  0  0  0  0  0
  147.4330  135.7901  160.1845 C   0  0  0  0  0  0  0  0  0  0  0  0
  148.1869  136.5696  161.2853 C   0  0  0  0  0  0  0  0  0  0  0  0
  147.5362  136.4241  162.6710 C   0  0  0  0  0  0  0  0  0  0  0  0
  147.4531  134.9519  163.0911 C   0  0  0  0  0  0  0  0  0  0  0  0
  146.7560  134.1100  162.0160 C   0  0  0  0  0  0  0  0  0  0  0  0
  147.4075  134.3141  160.6365 C   0  0  0  0  0  0  0  0  0  0  0  0
  144.2687  139.1586  157.3953 H   0  0  0  0  0  0  0  0  0  0  0  0
  145.4425  137.8460  157.3090 H   0  0  0  0  0  0  0  0  0  0  0  0
  145.9451  139.4443  157.8588 H   0  0  0  0  0  0  0  0  0  0  0  0
  144.4846  139.2033  159.8929 H   0  0  0  0  0  0  0  0  0  0  0  0
  143.9763  137.6119  159.3382 H   0  0  0  0  0  0  0  0  0  0  0  0
  145.2036  135.8075  160.1466 H   0  0  0  0  0  0  0  0  0  0  0  0
  146.0565  134.9842  158.0196 H   0  0  0  0  0  0  0  0  0  0  0  0
  146.1325  136.7143  157.5381 H   0  0  0  0  0  0  0  0  0  0  0  0
  148.4539  135.1416  158.3139 H   0  0  0  0  0  0  0  0  0  0  0  0
  148.0019  137.9399  157.8909 H   0  0  0  0  0  0  0  0  0  0  0  0
  149.3331  139.6263  158.1918 H   0  0  0  0  0  0  0  0  0  0  0  0
  150.6220  139.5599  159.3480 H   0  0  0  0  0  0  0  0  0  0  0  0
  149.6884  139.6390  156.0407 H   0  0  0  0  0  0  0  0  0  0  0  0
  151.1857  139.6302  154.0517 H   0  0  0  0  0  0  0  0  0  0  0  0
  149.2219  136.2293  161.3383 H   0  0  0  0  0  0  0  0  0  0  0  0
  148.2443  137.6322  161.0495 H   0  0  0  0  0  0  0  0  0  0  0  0
  148.1046  136.9885  163.4106 H   0  0  0  0  0  0  0  0  0  0  0  0
  146.5358  136.8585  162.6532 H   0  0  0  0  0  0  0  0  0  0  0  0
  148.4597  134.5658  163.2562 H   0  0  0  0  0  0  0  0  0  0  0  0
  146.9261  134.8601  164.0412 H   0  0  0  0  0  0  0  0  0  0  0  0
  146.7918  133.0557  162.2915 H   0  0  0  0  0  0  0  0  0  0  0  0
  145.7003  134.3783  161.9708 H   0  0  0  0  0  0  0  0  0  0  0  0
  146.8788  133.6980  159.9085 H   0  0  0  0  0  0  0  0  0  0  0  0
  148.4239  133.9189  160.6633 H   0  0  0  0  0  0  0  0  0  0  0  0
  1  2  1  0  0  0  0
  1 25  1  0  0  0  0
  1 26  1  0  0  0  0
  1 27  1  0  0  0  0
  2  3  1  0  0  0  0
  2 28  1  0  0  0  0
  2 29  1  0  0  0  0
  3  4  1  0  0  0  0
  4 19  1  0  0  0  0
  4  5  1  0  0  0  0
  4 30  1  0  0  0  0
  5  6  1  0  0  0  0
  5 31  1  0  0  0  0
  5 32  1  0  0  0  0
  6  7  1  0  0  0  0
  6 19  1  0  0  0  0
  6 33  1  0  0  0  0
  7  8  1  0  0  0  0
  7 34  1  0  0  0  0
  8  9  2  0  0  0  0
  8 10  1  0  0  0  0
 10 11  1  0  0  0  0
 10 35  1  0  0  0  0
 10 36  1  0  0  0  0
 11 17  1  0  0  0  0
 11 12  1  0  0  0  0
 12 13  2  0  0  0  0
 12 37  1  0  0  0  0
 13 14  1  0  0  0  0
 13 38  1  0  0  0  0
 14 15  2  0  0  0  0
 14 16  1  0  0  0  0
 16 17  1  0  0  0  0
 17 18  2  0  0  0  0
 19 24  1  0  0  0  0
 19 20  1  0  0  0  0
 20 21  1  0  0  0  0
 20 39  1  0  0  0  0
 20 40  1  0  0  0  0
 21 22  1  0  0  0  0
 21 41  1  0  0  0  0
 21 42  1  0  0  0  0
 22 23  1  0  0  0  0
 22 43  1  0  0  0  0
 22 44  1  0  0  0  0
 23 24  1  0  0  0  0
 23 45  1  0  0  0  0
 23 46  1  0  0  0  0
 24 47  1  0  0  0  0
 24 48  1  0  0  0  0
M  CHG  1  16  -1
M  END
> <s_m_source_file>
AV-unprocessed.smi

> <i_m_source_file_index>
701

> <i_lp_mmshare_version>
43012

> <i_f3d_flags>
0

> <s_epik_input>
W0NIMl0xW0NIMl1bQ0gyXVtDSDJdW0NIMl1DMTJbQ0BIXShPW0NIMl1bQ0gzXSlbQ0gyXVtDQEhdMltOSF1DKD1PKVtDSDJdbjNbY0hdW2NIXWMoPU8pW25IXWMzPU8=

> <s_epik_cmdline>
J2VwaWtfcHl0aG9uJywgJy1waCcsICc3LjAnLCAnLXRuJywgJzgnLCAnLW1hJywgJzIwMCcsICctbWV0YWxfYmluZGluZycsICctaW1hZScsICc8aW5maWxlLm1hZT4nLCAnLW9tYWUnLCAnPG91dGZpbGUubWFlPic=

> <r_lp_tautomer_probability>
0.999537

> <r_epik_Ionization_Penalty>
3.12423

> <r_epik_Ionization_Penalty_Charging>
2.92877e-08

> <r_epik_Ionization_Penalty_Neutral>
3.12423

> <r_epik_State_Penalty>
3.12332

> <r_epik_Charging_Adjusted_Penalty>
3.12332

> <i_epik_Tot_Q>
-1

> <i_epik_Tot_abs_Q>
1

> <r_epik_Metal_State_Penalty>
0.463873

> <b_epik_Metal_Only>
1

> <s_lp_Force_Field>
OPLS_2005

> <r_lp_Energy>
39.3964

> <b_lp_Chiralities_Consistent>
1

> <s_lp_Variant>
AV-unprocessed.smi:701-6

> <Gold.Version>
5.8.1

> <Gold.Id.Protein>
6NUR|6NUR_protein|mol2

> <Gold.PLP.Fitness>
41.2098

> <Gold.PLP.PLP>
-32.3763

> <Gold.PLP.part.hbond>
-4.0000

> <Gold.PLP.part.metal>
0.0000

> <Gold.PLP.part.buried>
0.3518

> <Gold.PLP.part.nonpolar>
-28.8474

> <Gold.PLP.part.repulsive>
0.1455

> <Gold.PLP.ligand.clash>
0.0000

> <Gold.PLP.ligand.torsion>
0.7728

> <Gold.PLP.Chemscore.Hbond>
3.3424

> <Gold.PLP.Chemscore.CHOScore>
0.0000

> <Gold.PLP.Chemscore.Metal>
0.0000

> <Gold.Chemscore.Hbonds>
donor molecule, donor type, donor heavy atom, donor atom, acceptor molecule, acceptor atom, score
      P1  H  6896  6907       L1     9  1.00
      P1  H  6934  6947       L1     3  0.98
      P1  H  7997  8009       L1    16  0.86
      P1  H  7997  8010       L1    15  0.16

> <Gold.PLP.Chemscore.Internal.Correction>
0.3518

> <Gold.Rescore>
     Score         DG    S(hbond)    S(metal)    S(lipo)     H(rot)  DE(clash)    DE(int)     intcor
     10.24     -14.26       1.75        0.00      69.63       2.04       1.24       2.77       ----

> <Gold.Chemscore.Fitness>
10.2440

> <Gold.Chemscore.DG>
-14.2564

> <Gold.Chemscore.ZeroCoef>
-5.4800

> <Gold.Chemscore.Hbond>
1.7522

> <Gold.Chemscore.Metal>
0.0000

> <Gold.Chemscore.Lipo>
69.6260

> <Gold.Chemscore.Internal_Hbond>
0.0000

> <Gold.Chemscore.DEClash>
1.2391

> <Gold.Chemscore.DEInternal>
2.7734

> <Gold.Chemscore.Rot>
2.0399

> <Gold.Chemscore.Internal.Correction>
   9.000000E+99

> <Gold.Chemscore.Hbonds>
donor molecule, donor type, donor heavy atom, donor atom, acceptor molecule, acceptor atom, score
      P1  H  6896  6907       L1     9  0.96
      P1  H  6934  6947       L1     3  0.81
      P1  H  7997  8009       L1    16  0.07

> <Gold.Chemscore.Hbond.Weighted>
-5.8523

> <Gold.Chemscore.Metal.Weighted>
-0.0000

> <Gold.Chemscore.Lipo.Weighted>
-8.1462

> <Gold.Chemscore.Internal_Hbond.Weighted>
0.0000

> <Gold.Chemscore.DEClash.Weighted>
1.2391

> <Gold.Chemscore.DEInternal.Weighted>
2.7734

> <Gold.Chemscore.Rot.Weighted>
5.2222

> <Gold.Chemscore.Internal.Correction.Weighted>
   9.000000E+99

> <Gold.Protein.RotatedTorsions>
[ 6907 6896 6895 6894 ] final  -12.89 input  -60.11 | X-H torsion
[ 7974 7965 7964 7962 ] final   70.75 input  175.53 | X-H torsion
[ 8008 7997 7996 7995 ] final  146.11 input   59.86 | X-H torsion
[ 10167 10162 10161 10158 ] final  148.22 input  -65.29 | X-H torsion
[ 10718 10713 10712 10709 ] final  128.00 input   66.30 | X-H torsion
[ 10763 10752 10751 10750 ] final  -90.32 input  -60.55 | X-H torsion
[ 11005 11000 10999 10996 ] final -142.05 input  -57.11 | X-H torsion

> <Gold.Protein.ActiveResidues>
 VAL166  LYS551  ARG553  GLY616  TRP617  ASP618  TYR619  PRO620  LYS621  CYS622 
 ASP623  PHE694  ASN695  SER759  ASP760  ASP761  ALA762  ILE779  LEU786  VAL792 
 PHE793  MET794  SER795  GLU796  ALA797  LYS798  CYS799  TRP800  GLU811  SER814 

> <Gold.Protein.RotatedAtoms>
  151.3634  135.0908  159.9441 H   0  0  0  0  0  0  0  0  0  0  0  0  # atno 6907 bound_to 6896
  152.5155  133.9235  159.7556 H   0  0  0  0  0  0  0  0  0  0  0  0  # atno 6908 bound_to 6896
  150.9634  133.6366  159.2779 H   0  0  0  0  0  0  0  0  0  0  0  0  # atno 6909 bound_to 6896
  145.7743  139.2857  143.1303 H   0  0  0  0  0  0  0  0  0  0  0  0  # atno 7974 bound_to 7965
  156.2865  140.2191  156.5323 H   0  0  0  0  0  0  0  0  0  0  0  0  # atno 8008 bound_to 7997
  154.7438  140.0485  157.0856 H   0  0  0  0  0  0  0  0  0  0  0  0  # atno 8009 bound_to 7997
  155.0197  140.3122  155.4801 H   0  0  0  0  0  0  0  0  0  0  0  0  # atno 8010 bound_to 7997
  139.4878  144.5696  151.7081 H   0  0  0  0  0  0  0  0  0  0  0  0  # atno 10167 bound_to 10162
  157.5284  131.1098  150.9048 H   0  0  0  0  0  0  0  0  0  0  0  0  # atno 10718 bound_to 10713
  154.6646  135.5308  153.8060 H   0  0  0  0  0  0  0  0  0  0  0  0  # atno 10763 bound_to 10752
  153.0463  135.6514  154.0820 H   0  0  0  0  0  0  0  0  0  0  0  0  # atno 10764 bound_to 10752
  154.0725  135.2953  155.3285 H   0  0  0  0  0  0  0  0  0  0  0  0  # atno 10765 bound_to 10752
  140.8263  134.2570  157.4877 H   0  0  0  0  0  0  0  0  0  0  0  0  # atno 11005 bound_to 11000
  146.0139  140.8411  142.9957 LP  0  0  0  0  0  0  0  0  0  0  0  0  # atno 17320 bound_to 7965
  144.6807  140.2529  143.7329 LP  0  0  0  0  0  0  0  0  0  0  0  0  # atno 17321 bound_to 7965
  140.5280  144.0775  150.6044 LP  0  0  0  0  0  0  0  0  0  0  0  0  # atno 17342 bound_to 10162
  140.3755  143.2831  152.0229 LP  0  0  0  0  0  0  0  0  0  0  0  0  # atno 17343 bound_to 10162
  156.9637  130.5465  149.5287 LP  0  0  0  0  0  0  0  0  0  0  0  0  # atno 17370 bound_to 10713
  156.0404  130.5487  150.8756 LP  0  0  0  0  0  0  0  0  0  0  0  0  # atno 17371 bound_to 10713
  139.8706  134.9562  156.4231 LP  0  0  0  0  0  0  0  0  0  0  0  0  # atno 17394 bound_to 11000
  140.9045  133.7755  155.9719 LP  0  0  0  0  0  0  0  0  0  0  0  0  # atno 17395 bound_to 11000

$$$$
