AV-unprocessed.smi:55|AV-procd|sdf|575|dock5
  -GOLD-   2262016473D 1   1.00000     0.00000
 Structure written by MMmdl.
 30 31  0  0  0  0  0  0  0  0  2 V2000
  151.9256  144.4513  157.8116 C   0  0  0  0  0  0  0  0  0  0  0  0
  151.4766  143.0295  158.1003 C   0  0  0  0  0  0  0  0  0  0  0  0
  150.6320  142.3599  157.2844 C   0  0  0  0  0  0  0  0  0  0  0  0
  150.2264  141.0627  157.5518 N   0  0  0  0  0  0  0  0  0  0  0  0
  149.2808  140.3160  156.6325 C   0  0  2  0  0  0  0  0  0  0  0  0
  149.8812  140.1945  155.2235 C   0  0  0  0  0  0  0  0  0  0  0  0
  148.7307  140.6389  154.3412 C   0  0  2  0  0  0  0  0  0  0  0  0
  149.2040  141.2065  153.1369 O   0  0  0  0  0  0  0  0  0  0  0  0
  148.0207  141.6591  155.2306 C   0  0  1  0  0  0  0  0  0  0  0  0
  146.5566  141.9063  154.8365 C   0  0  0  0  0  0  0  0  0  0  0  0
  145.9771  140.7165  154.3451 O   0  0  0  0  0  0  0  0  0  0  0  0
  148.0803  141.0238  156.5045 O   0  0  0  0  0  0  0  0  0  0  0  0
  150.7045  140.4065  158.7162 C   0  0  0  0  0  0  0  0  0  0  0  0
  150.3278  139.2527  158.9247 O   0  0  0  0  0  0  0  0  0  0  0  0
  151.5556  141.0746  159.5457 N   0  5  0  0  0  0  0  0  0  0  0  0
  151.9712  142.3508  159.3042 C   0  0  0  0  0  0  0  0  0  0  0  0
  152.7417  142.9414  160.0609 O   0  0  0  0  0  0  0  0  0  0  0  0
  149.0813  139.3601  157.1196 H   0  0  0  0  0  0  0  0  0  0  0  0
  148.0749  139.7935  154.1278 H   0  0  0  0  0  0  0  0  0  0  0  0
  148.5905  142.5904  155.2509 H   0  0  0  0  0  0  0  0  0  0  0  0
  151.4829  144.8276  156.8889 H   0  0  0  0  0  0  0  0  0  0  0  0
  153.0101  144.4943  157.7079 H   0  0  0  0  0  0  0  0  0  0  0  0
  151.6300  145.1161  158.6237 H   0  0  0  0  0  0  0  0  0  0  0  0
  150.2710  142.8643  156.4015 H   0  0  0  0  0  0  0  0  0  0  0  0
  150.7325  140.8711  155.1264 H   0  0  0  0  0  0  0  0  0  0  0  0
  150.2149  139.1758  155.0238 H   0  0  0  0  0  0  0  0  0  0  0  0
  149.1328  140.5587  152.4525 H   0  0  0  0  0  0  0  0  0  0  0  0
  145.9801  142.2128  155.7097 H   0  0  0  0  0  0  0  0  0  0  0  0
  146.4739  142.7038  154.0975 H   0  0  0  0  0  0  0  0  0  0  0  0
  145.2859  140.9457  153.7430 H   0  0  0  0  0  0  0  0  0  0  0  0
  1  2  1  0  0  0  0
  1 21  1  0  0  0  0
  1 22  1  0  0  0  0
  1 23  1  0  0  0  0
  2 16  1  0  0  0  0
  2  3  2  0  0  0  0
  3  4  1  0  0  0  0
  3 24  1  0  0  0  0
  4  5  1  0  0  0  0
  4 13  1  0  0  0  0
  5 18  1  0  0  0  0
  5 12  1  0  0  0  0
  5  6  1  0  0  0  0
  6  7  1  0  0  0  0
  6 25  1  0  0  0  0
  6 26  1  0  0  0  0
  7 19  1  0  0  0  0
  7  8  1  0  0  0  0
  7  9  1  0  0  0  0
  8 27  1  0  0  0  0
  9 20  1  0  0  0  0
  9 10  1  0  0  0  0
  9 12  1  0  0  0  0
 10 11  1  0  0  0  0
 10 28  1  0  0  0  0
 10 29  1  0  0  0  0
 11 30  1  0  0  0  0
 13 14  2  0  0  0  0
 13 15  1  0  0  0  0
 15 16  1  0  0  0  0
 16 17  2  0  0  0  0
M  CHG  1  15  -1
M  END
> <s_m_source_file>
AV-unprocessed.smi

> <i_m_source_file_index>
55

> <i_lp_mmshare_version>
43012

> <i_f3d_flags>
0

> <s_epik_input>
Tz1jMVtuSF1jKD1PKW4oW2NIXWMxW0NIM10pW0NAQEhdMltDSDJdW0NAQEhdKFtPSF0pW0NAQEhdKE8yKVtDSDJdW09IXQ==

> <s_epik_cmdline>
J2VwaWtfcHl0aG9uJywgJy1waCcsICc3LjAnLCAnLXRuJywgJzgnLCAnLW1hJywgJzIwMCcsICctbWV0YWxfYmluZGluZycsICctaW1hZScsICc8aW5maWxlLm1hZT4nLCAnLW9tYWUnLCAnPG91dGZpbGUubWFlPic=

> <r_lp_tautomer_probability>
0.999537

> <r_epik_Ionization_Penalty>
3.66603

> <r_epik_Ionization_Penalty_Charging>
1.09773e-07

> <r_epik_Ionization_Penalty_Neutral>
3.66603

> <r_epik_State_Penalty>
3.66562

> <r_epik_Charging_Adjusted_Penalty>
3.66562

> <i_epik_Tot_Q>
-1

> <i_epik_Tot_abs_Q>
1

> <r_epik_Metal_State_Penalty>
0.234536

> <b_epik_Metal_Only>
1

> <s_epik_Chemistry_Notes>
This compound contains an acetal/aminal-like group ( X-CH(R)-Y where X, Y are N, S, or O) that may be acid/base labile, releasing an aldehyde.

> <s_lp_Force_Field>
OPLS_2005

> <r_lp_Energy>
36.1714

> <b_lp_Chiralities_Consistent>
1

> <s_lp_Variant>
AV-unprocessed.smi:55-15

> <Gold.Version>
5.8.1

> <Gold.Id.Protein>
6NUR|6NUR_protein|mol2

> <Gold.PLP.Fitness>
39.7172

> <Gold.PLP.PLP>
-29.2628

> <Gold.PLP.part.hbond>
-3.6471

> <Gold.PLP.part.metal>
0.0000

> <Gold.PLP.part.buried>
-4.7931

> <Gold.PLP.part.nonpolar>
-22.5712

> <Gold.PLP.part.repulsive>
0.0580

> <Gold.PLP.ligand.clash>
0.0000

> <Gold.PLP.ligand.torsion>
0.2395

> <Gold.PLP.Chemscore.Hbond>
2.6390

> <Gold.PLP.Chemscore.CHOScore>
1.0000

> <Gold.PLP.Chemscore.Metal>
0.0000

> <Gold.Chemscore.Hbonds>
donor molecule, donor type, donor heavy atom, donor atom, acceptor molecule, acceptor atom, score
      L1  H     8    27       P1  7957  0.81
      L1  H    11    30       P1 10175  0.86
      P1  H  8011  8017       L1     8  1.00
      L1  C     3    24       P1  8028  1.00

> <Gold.PLP.Chemscore.Internal.Correction>
0.0163

> <Gold.Rescore>
     Score         DG    S(hbond)    S(metal)    S(lipo)     H(rot)  DE(clash)    DE(int)     intcor
     11.12     -11.46       2.02        0.00      52.40       2.69       0.08       0.26       ----

> <Gold.Chemscore.Fitness>
11.1227

> <Gold.Chemscore.DG>
-11.4632

> <Gold.Chemscore.ZeroCoef>
-5.4800

> <Gold.Chemscore.Hbond>
2.0155

> <Gold.Chemscore.Metal>
0.0000

> <Gold.Chemscore.Lipo>
52.3975

> <Gold.Chemscore.Internal_Hbond>
0.0000

> <Gold.Chemscore.DEClash>
0.0839

> <Gold.Chemscore.DEInternal>
0.2565

> <Gold.Chemscore.Rot>
2.6871

> <Gold.Chemscore.Internal.Correction>
   9.000000E+99

> <Gold.Chemscore.Hbonds>
donor molecule, donor type, donor heavy atom, donor atom, acceptor molecule, acceptor atom, score
      L1  H     8    27       P1  7957  0.76
      L1  H    11    30       P1 10175  0.67
      P1  H  8011  8017       L1     8  0.25

> <Gold.Chemscore.Hbond.Weighted>
-6.7317

> <Gold.Chemscore.Metal.Weighted>
-0.0000

> <Gold.Chemscore.Lipo.Weighted>
-6.1305

> <Gold.Chemscore.Internal_Hbond.Weighted>
0.0000

> <Gold.Chemscore.DEClash.Weighted>
0.0839

> <Gold.Chemscore.DEInternal.Weighted>
0.2565

> <Gold.Chemscore.Rot.Weighted>
6.8791

> <Gold.Chemscore.Internal.Correction.Weighted>
   9.000000E+99

> <Gold.Protein.RotatedTorsions>
[ 6907 6896 6895 6894 ] final  -94.48 input  -60.11 | X-H torsion
[ 7974 7965 7964 7962 ] final -166.45 input  175.53 | X-H torsion
[ 8008 7997 7996 7995 ] final  129.89 input   59.86 | X-H torsion
[ 10167 10162 10161 10158 ] final  -21.38 input  -65.29 | X-H torsion
[ 10718 10713 10712 10709 ] final  -78.19 input   66.30 | X-H torsion
[ 10763 10752 10751 10750 ] final  -52.24 input  -60.55 | X-H torsion
[ 11005 11000 10999 10996 ] final   -5.38 input  -57.11 | X-H torsion

> <Gold.Protein.ActiveResidues>
 VAL166  LYS551  ARG553  GLY616  TRP617  ASP618  TYR619  PRO620  LYS621  CYS622 
 ASP623  PHE694  ASN695  SER759  ASP760  ASP761  ALA762  ILE779  LEU786  VAL792 
 PHE793  MET794  SER795  GLU796  ALA797  LYS798  CYS799  TRP800  GLU811  SER814 

> <Gold.Protein.RotatedAtoms>
  150.6943  134.1806  159.4246 H   0  0  0  0  0  0  0  0  0  0  0  0  # atno 6907 bound_to 6896
  151.9780  135.0041  160.0565 H   0  0  0  0  0  0  0  0  0  0  0  0  # atno 6908 bound_to 6896
  152.1781  133.4653  159.4980 H   0  0  0  0  0  0  0  0  0  0  0  0  # atno 6909 bound_to 6896
  144.7245  140.2665  143.6257 H   0  0  0  0  0  0  0  0  0  0  0  0  # atno 7974 bound_to 7965
  156.2944  140.2609  156.2672 H   0  0  0  0  0  0  0  0  0  0  0  0  # atno 8008 bound_to 7997
  154.9730  140.0391  157.2262 H   0  0  0  0  0  0  0  0  0  0  0  0  # atno 8009 bound_to 7997
  154.7841  140.2800  155.6046 H   0  0  0  0  0  0  0  0  0  0  0  0  # atno 8010 bound_to 7997
  140.7281  143.4634  151.0348 H   0  0  0  0  0  0  0  0  0  0  0  0  # atno 10167 bound_to 10162
  156.0124  130.4511  150.3459 H   0  0  0  0  0  0  0  0  0  0  0  0  # atno 10718 bound_to 10713
  154.1396  135.6507  153.4939 H   0  0  0  0  0  0  0  0  0  0  0  0  # atno 10763 bound_to 10752
  153.0170  135.5312  154.6918 H   0  0  0  0  0  0  0  0  0  0  0  0  # atno 10764 bound_to 10752
  154.6176  135.2961  155.0333 H   0  0  0  0  0  0  0  0  0  0  0  0  # atno 10765 bound_to 10752
  140.6906  133.9075  155.8615 H   0  0  0  0  0  0  0  0  0  0  0  0  # atno 11005 bound_to 11000
  145.8085  139.1993  143.2007 LP  0  0  0  0  0  0  0  0  0  0  0  0  # atno 17320 bound_to 7965
  146.0616  140.7964  142.9732 LP  0  0  0  0  0  0  0  0  0  0  0  0  # atno 17321 bound_to 7965
  139.8320  143.7678  152.3180 LP  0  0  0  0  0  0  0  0  0  0  0  0  # atno 17342 bound_to 10162
  139.7797  144.7448  151.0106 LP  0  0  0  0  0  0  0  0  0  0  0  0  # atno 17343 bound_to 10162
  157.1553  131.0331  151.2866 LP  0  0  0  0  0  0  0  0  0  0  0  0  # atno 17370 bound_to 10713
  157.4357  130.7516  149.7027 LP  0  0  0  0  0  0  0  0  0  0  0  0  # atno 17371 bound_to 10713
  141.0245  134.0843  157.4084 LP  0  0  0  0  0  0  0  0  0  0  0  0  # atno 17394 bound_to 11000
  139.8925  135.0125  156.6847 LP  0  0  0  0  0  0  0  0  0  0  0  0  # atno 17395 bound_to 11000

$$$$
