AV-unprocessed.smi:2135|AV-procd|sdf|8700|dock6
  -GOLD-   2272011463D 1   1.00000     0.00000
 Structure written by MMmdl.
 43 44  0  0  0  0  0  0  0  0  2 V2000
  150.8887  134.0439  156.3086 C   0  0  0  0  0  0  0  0  0  0  0  0
  151.0938  135.8092  156.7792 S   0  0  0  0  0  0  0  0  0  0  0  0
  150.3356  136.0510  158.0162 O   0  0  0  0  0  0  0  0  0  0  0  0
  152.5300  136.1230  156.7281 O   0  0  0  0  0  0  0  0  0  0  0  0
  150.3269  136.6886  155.4882 N   0  0  0  0  0  0  0  0  0  0  0  0
  148.9131  137.0937  155.5924 C   0  0  0  0  0  0  0  0  0  0  0  0
  148.7764  138.6197  155.7204 C   0  0  0  0  0  0  0  0  0  0  0  0
  149.5337  139.3540  154.5985 C   0  0  0  0  0  0  0  0  0  0  0  0
  151.0156  138.9193  154.5212 C   0  0  1  0  0  0  0  0  0  0  0  0
  151.8937  139.5116  155.6402 C   0  0  0  0  0  0  0  0  0  0  0  0
  153.0953  139.2535  155.7199 O   0  0  0  0  0  0  0  0  0  0  0  0
  151.2610  140.2875  156.5350 N   0  0  0  0  0  0  0  0  0  0  0  0
  151.8951  140.9443  157.6715 C   0  0  0  0  0  0  0  0  0  0  0  0
  151.5593  142.4440  157.7195 C   0  0  0  0  0  0  0  0  0  0  0  0
  151.8066  143.0412  159.0908 C   0  0  0  0  0  0  0  0  0  0  0  0
  151.5768  144.4137  159.3322 C   0  0  0  0  0  0  0  0  0  0  0  0
  151.8194  144.9394  160.6185 C   0  0  0  0  0  0  0  0  0  0  0  0
  152.2872  144.0805  161.6342 C   0  0  0  0  0  0  0  0  0  0  0  0
  152.4964  142.7728  161.3656 N   0  3  0  0  0  0  0  0  0  0  0  0
  152.2754  142.2308  160.1478 C   0  0  0  0  0  0  0  0  0  0  0  0
  151.1014  137.3750  154.4324 C   0  0  0  0  0  0  0  0  0  0  0  0
  151.4841  133.4254  156.9794 H   0  0  0  0  0  0  0  0  0  0  0  0
  151.2280  133.8908  155.2847 H   0  0  0  0  0  0  0  0  0  0  0  0
  149.8453  133.7530  156.4031 H   0  0  0  0  0  0  0  0  0  0  0  0
  148.3886  136.7499  154.7002 H   0  0  0  0  0  0  0  0  0  0  0  0
  148.4395  136.6008  156.4413 H   0  0  0  0  0  0  0  0  0  0  0  0
  147.7218  138.8945  155.6893 H   0  0  0  0  0  0  0  0  0  0  0  0
  149.1352  138.9367  156.6986 H   0  0  0  0  0  0  0  0  0  0  0  0
  149.0511  139.1395  153.6441 H   0  0  0  0  0  0  0  0  0  0  0  0
  149.4526  140.4331  154.7365 H   0  0  0  0  0  0  0  0  0  0  0  0
  151.4215  139.3251  153.5932 H   0  0  0  0  0  0  0  0  0  0  0  0
  150.2712  140.4446  156.4100 H   0  0  0  0  0  0  0  0  0  0  0  0
  151.5948  140.4528  158.5987 H   0  0  0  0  0  0  0  0  0  0  0  0
  152.9732  140.8069  157.5826 H   0  0  0  0  0  0  0  0  0  0  0  0
  152.1519  142.9839  156.9798 H   0  0  0  0  0  0  0  0  0  0  0  0
  150.5140  142.6078  157.4534 H   0  0  0  0  0  0  0  0  0  0  0  0
  151.2198  145.0586  158.5422 H   0  0  0  0  0  0  0  0  0  0  0  0
  151.6491  145.9865  160.8224 H   0  0  0  0  0  0  0  0  0  0  0  0
  152.4988  144.3974  162.6452 H   0  0  0  0  0  0  0  0  0  0  0  0
  152.4810  141.1740  160.0559 H   0  0  0  0  0  0  0  0  0  0  0  0
  152.1382  137.0400  154.4488 H   0  0  0  0  0  0  0  0  0  0  0  0
  150.7090  137.0537  153.4669 H   0  0  0  0  0  0  0  0  0  0  0  0
  152.8356  142.1685  162.1146 H   0  0  0  0  0  0  0  0  0  0  0  0
  1  2  1  0  0  0  0
  1 22  1  0  0  0  0
  1 23  1  0  0  0  0
  1 24  1  0  0  0  0
  2  3  2  0  0  0  0
  2  4  2  0  0  0  0
  2  5  1  0  0  0  0
  5 21  1  0  0  0  0
  5  6  1  0  0  0  0
  6  7  1  0  0  0  0
  6 25  1  0  0  0  0
  6 26  1  0  0  0  0
  7  8  1  0  0  0  0
  7 27  1  0  0  0  0
  7 28  1  0  0  0  0
  8  9  1  0  0  0  0
  8 29  1  0  0  0  0
  8 30  1  0  0  0  0
  9 10  1  0  0  0  0
  9 21  1  0  0  0  0
  9 31  1  0  0  0  0
 10 11  2  0  0  0  0
 10 12  1  0  0  0  0
 12 13  1  0  0  0  0
 12 32  1  0  0  0  0
 13 14  1  0  0  0  0
 13 33  1  0  0  0  0
 13 34  1  0  0  0  0
 14 15  1  0  0  0  0
 14 35  1  0  0  0  0
 14 36  1  0  0  0  0
 15 20  1  0  0  0  0
 15 16  2  0  0  0  0
 16 17  1  0  0  0  0
 16 37  1  0  0  0  0
 17 18  2  0  0  0  0
 17 38  1  0  0  0  0
 18 19  1  0  0  0  0
 18 39  1  0  0  0  0
 19 20  2  0  0  0  0
 19 43  1  0  0  0  0
 20 40  1  0  0  0  0
 21 41  1  0  0  0  0
 21 42  1  0  0  0  0
M  CHG  1  19   1
M  END
> <s_m_source_file>
AV-unprocessed.smi

> <i_m_source_file_index>
2135

> <i_lp_mmshare_version>
43012

> <i_f3d_flags>
0

> <s_epik_input>
W0NIM11TKD1PKSg9TylOMVtDSDJdW0NIMl1bQ0gyXVtDQEhdKFtDSDJdMSlDKD1PKVtOSF1bQ0gyXVtDSDJdYzJbY0hdW2NIXVtjSF1uW2NIXTI=

> <s_epik_cmdline>
J2VwaWtfcHl0aG9uJywgJy1waCcsICc3LjAnLCAnLXRuJywgJzgnLCAnLW1hJywgJzIwMCcsICctbWV0YWxfYmluZGluZycsICctaW1hZScsICc8aW5maWxlLm1hZT4nLCAnLW9tYWUnLCAnPG91dGZpbGUubWFlPic=

> <r_epik_Ionization_Penalty>
2.24912

> <r_epik_Ionization_Penalty_Charging>
2.24912

> <r_epik_Ionization_Penalty_Neutral>
2.62834e-08

> <r_epik_State_Penalty>
2.39611

> <r_epik_Charging_Adjusted_Penalty>
4.64523

> <i_epik_Tot_Q>
1

> <i_epik_Tot_abs_Q>
1

> <r_epik_Metal_State_Penalty>
2.40934

> <b_epik_Metal_Only>
0

> <s_lp_Force_Field>
OPLS_2005

> <r_lp_Energy>
5.07519

> <b_lp_Chiralities_Consistent>
1

> <s_lp_Variant>
AV-unprocessed.smi:2135-3

> <Gold.Version>
5.8.1

> <Gold.Id.Protein>
6NUR|6NUR_protein|mol2

> <Gold.PLP.Fitness>
49.8825

> <Gold.PLP.PLP>
-42.1163

> <Gold.PLP.part.hbond>
-3.0000

> <Gold.PLP.part.metal>
0.0000

> <Gold.PLP.part.buried>
-6.9925

> <Gold.PLP.part.nonpolar>
-32.5041

> <Gold.PLP.part.repulsive>
0.1881

> <Gold.PLP.ligand.clash>
0.0000

> <Gold.PLP.ligand.torsion>
1.1723

> <Gold.PLP.Chemscore.Hbond>
2.6721

> <Gold.PLP.Chemscore.CHOScore>
0.0000

> <Gold.PLP.Chemscore.Metal>
0.0000

> <Gold.Chemscore.Hbonds>
donor molecule, donor type, donor heavy atom, donor atom, acceptor molecule, acceptor atom, score
      P1  H  6896  6908       L1     3  0.64
      P1  H  7997  8010       L1    11  1.00
      P1  H 10752 10765       L1     4  1.00

> <Gold.PLP.Chemscore.Internal.Correction>
2.0945

> <Gold.Rescore>
     Score         DG    S(hbond)    S(metal)    S(lipo)     H(rot)  DE(clash)    DE(int)     intcor
     20.70     -21.91       2.63        0.00     101.51       1.65       0.00       1.21       ----

> <Gold.Chemscore.Fitness>
20.6986

> <Gold.Chemscore.DG>
-21.9092

> <Gold.Chemscore.ZeroCoef>
-5.4800

> <Gold.Chemscore.Hbond>
2.6307

> <Gold.Chemscore.Metal>
0.0000

> <Gold.Chemscore.Lipo>
101.5082

> <Gold.Chemscore.Internal_Hbond>
0.0000

> <Gold.Chemscore.DEClash>
0.0038

> <Gold.Chemscore.DEInternal>
1.2068

> <Gold.Chemscore.Rot>
1.6538

> <Gold.Chemscore.Internal.Correction>
   9.000000E+99

> <Gold.Chemscore.Hbonds>
donor molecule, donor type, donor heavy atom, donor atom, acceptor molecule, acceptor atom, score
      P1  H  6896  6908       L1     3  0.59
      P1  H  7997  8010       L1    11  0.98
      P1  H 10752 10765       L1     4  0.60

> <Gold.Chemscore.Hbond.Weighted>
-8.7864

> <Gold.Chemscore.Metal.Weighted>
-0.0000

> <Gold.Chemscore.Lipo.Weighted>
-11.8765

> <Gold.Chemscore.Internal_Hbond.Weighted>
0.0000

> <Gold.Chemscore.DEClash.Weighted>
0.0038

> <Gold.Chemscore.DEInternal.Weighted>
1.2068

> <Gold.Chemscore.Rot.Weighted>
4.2337

> <Gold.Chemscore.Internal.Correction.Weighted>
   9.000000E+99

> <Gold.Protein.RotatedTorsions>
[ 6907 6896 6895 6894 ] final -171.52 input  -60.11 | X-H torsion
[ 7974 7965 7964 7962 ] final  -48.15 input  175.53 | X-H torsion
[ 8008 7997 7996 7995 ] final   74.19 input   59.86 | X-H torsion
[ 10167 10162 10161 10158 ] final  -90.86 input  -65.29 | X-H torsion
[ 10718 10713 10712 10709 ] final  176.92 input   66.30 | X-H torsion
[ 10763 10752 10751 10750 ] final -148.63 input  -60.55 | X-H torsion
[ 11005 11000 10999 10996 ] final  122.81 input  -57.11 | X-H torsion

> <Gold.Protein.ActiveResidues>
 VAL166  LYS551  ARG553  GLY616  TRP617  ASP618  TYR619  PRO620  LYS621  CYS622 
 ASP623  PHE694  ASN695  SER759  ASP760  ASP761  ALA762  ILE779  LEU786  VAL792 
 PHE793  MET794  SER795  GLU796  ALA797  LYS798  CYS799  TRP800  GLU811  SER814 

> <Gold.Protein.RotatedAtoms>
  151.5252  133.3459  159.2908 H   0  0  0  0  0  0  0  0  0  0  0  0  # atno 6907 bound_to 6896
  150.8627  134.7986  159.7106 H   0  0  0  0  0  0  0  0  0  0  0  0  # atno 6908 bound_to 6896
  152.4642  134.5124  159.9809 H   0  0  0  0  0  0  0  0  0  0  0  0  # atno 6909 bound_to 6896
  145.9542  140.7543  142.9489 H   0  0  0  0  0  0  0  0  0  0  0  0  # atno 7974 bound_to 7965
  155.7948  140.3478  155.5369 H   0  0  0  0  0  0  0  0  0  0  0  0  # atno 8008 bound_to 7997
  155.8598  140.0969  157.1641 H   0  0  0  0  0  0  0  0  0  0  0  0  # atno 8009 bound_to 7997
  154.4011  140.1361  156.3934 H   0  0  0  0  0  0  0  0  0  0  0  0  # atno 8010 bound_to 7997
  140.3506  143.2893  151.9730 H   0  0  0  0  0  0  0  0  0  0  0  0  # atno 10167 bound_to 10162
  156.9130  130.9916  151.3017 H   0  0  0  0  0  0  0  0  0  0  0  0  # atno 10718 bound_to 10713
  154.8222  135.3329  154.7004 H   0  0  0  0  0  0  0  0  0  0  0  0  # atno 10763 bound_to 10752
  153.7635  135.6931  153.4925 H   0  0  0  0  0  0  0  0  0  0  0  0  # atno 10764 bound_to 10752
  153.2094  135.4488  155.0310 H   0  0  0  0  0  0  0  0  0  0  0  0  # atno 10765 bound_to 10752
  139.9284  134.9641  156.8165 H   0  0  0  0  0  0  0  0  0  0  0  0  # atno 11005 bound_to 11000
  144.6801  140.2484  143.7335 LP  0  0  0  0  0  0  0  0  0  0  0  0  # atno 17320 bound_to 7965
  145.8130  139.2011  143.1982 LP  0  0  0  0  0  0  0  0  0  0  0  0  # atno 17321 bound_to 7965
  139.4827  144.6079  151.7488 LP  0  0  0  0  0  0  0  0  0  0  0  0  # atno 17342 bound_to 10162
  140.5222  144.0861  150.6026 LP  0  0  0  0  0  0  0  0  0  0  0  0  # atno 17343 bound_to 10162
  157.5955  130.8474  149.8723 LP  0  0  0  0  0  0  0  0  0  0  0  0  # atno 17370 bound_to 10713
  156.0527  130.3714  150.1164 LP  0  0  0  0  0  0  0  0  0  0  0  0  # atno 17371 bound_to 10713
  140.6269  133.9941  155.7644 LP  0  0  0  0  0  0  0  0  0  0  0  0  # atno 17394 bound_to 11000
  141.0858  133.9993  157.3316 LP  0  0  0  0  0  0  0  0  0  0  0  0  # atno 17395 bound_to 11000

$$$$
