AV-unprocessed.smi:1808|AV-procd|sdf|7308|dock9
  -GOLD-   22720 8563D 1   1.00000     0.00000
 Structure written by MMmdl.
 27 28  0  0  0  0  0  0  0  0  2 V2000
  149.2065  134.8680  158.1858 O   0  0  0  0  0  0  0  0  0  0  0  0
  148.8700  136.0506  158.0906 C   0  0  0  0  0  0  0  0  0  0  0  0
  148.9844  136.6830  156.9156 N   0  0  0  0  0  0  0  0  0  0  0  0
  149.4840  136.0835  155.6856 C   0  0  0  0  0  0  0  0  0  0  0  0
  150.4826  137.0212  154.9938 C   0  0  1  0  0  0  0  0  0  0  0  0
  150.2151  138.5031  155.2435 C   0  0  0  0  0  0  0  0  0  0  0  0
  151.5718  139.1458  155.0051 C   0  0  0  0  0  0  0  0  0  0  0  0
  152.5619  137.9832  155.1300 C   0  0  0  0  0  0  0  0  0  0  0  0
  151.7856  136.8629  155.5330 O   0  0  0  0  0  0  0  0  0  0  0  0
  148.3716  136.8252  159.0813 N   0  5  0  0  0  0  0  0  0  0  0  0
  148.0214  136.2732  160.2543 C   0  0  0  0  0  0  0  0  0  0  0  0
  147.8036  136.9899  161.3630 N   0  0  0  0  0  0  0  0  0  0  0  0
  147.4438  136.2122  162.4651 C   0  0  0  0  0  0  0  0  0  0  0  0
  147.3767  134.8729  162.1869 C   0  0  0  0  0  0  0  0  0  0  0  0
  147.7665  134.5465  160.5222 S   0  0  0  0  0  0  0  0  0  0  0  0
  148.6952  137.6491  156.8725 H   0  0  0  0  0  0  0  0  0  0  0  0
  149.9708  135.1380  155.9280 H   0  0  0  0  0  0  0  0  0  0  0  0
  148.6508  135.8577  155.0182 H   0  0  0  0  0  0  0  0  0  0  0  0
  150.5120  136.8265  153.9199 H   0  0  0  0  0  0  0  0  0  0  0  0
  149.4332  138.9062  154.5994 H   0  0  0  0  0  0  0  0  0  0  0  0
  149.9133  138.6612  156.2799 H   0  0  0  0  0  0  0  0  0  0  0  0
  151.6279  139.5861  154.0091 H   0  0  0  0  0  0  0  0  0  0  0  0
  151.7702  139.9334  155.7325 H   0  0  0  0  0  0  0  0  0  0  0  0
  153.0280  137.7711  154.1667 H   0  0  0  0  0  0  0  0  0  0  0  0
  153.3526  138.1842  155.8530 H   0  0  0  0  0  0  0  0  0  0  0  0
  147.2516  136.6966  163.4109 H   0  0  0  0  0  0  0  0  0  0  0  0
  147.1225  134.0632  162.8537 H   0  0  0  0  0  0  0  0  0  0  0  0
  1  2  2  0  0  0  0
  2  3  1  0  0  0  0
  2 10  1  0  0  0  0
  3  4  1  0  0  0  0
  3 16  1  0  0  0  0
  4  5  1  0  0  0  0
  4 17  1  0  0  0  0
  4 18  1  0  0  0  0
  5  9  1  0  0  0  0
  5  6  1  0  0  0  0
  5 19  1  0  0  0  0
  6  7  1  0  0  0  0
  6 20  1  0  0  0  0
  6 21  1  0  0  0  0
  7  8  1  0  0  0  0
  7 22  1  0  0  0  0
  7 23  1  0  0  0  0
  8  9  1  0  0  0  0
  8 24  1  0  0  0  0
  8 25  1  0  0  0  0
 10 11  1  0  0  0  0
 11 15  1  0  0  0  0
 11 12  2  0  0  0  0
 12 13  1  0  0  0  0
 13 14  2  0  0  0  0
 13 26  1  0  0  0  0
 14 15  1  0  0  0  0
 14 27  1  0  0  0  0
M  CHG  1  10  -1
M  END
> <s_m_source_file>
AV-unprocessed.smi

> <i_m_source_file_index>
1808

> <i_lp_mmshare_version>
43012

> <i_f3d_flags>
0

> <s_epik_input>
czFbY0hdW2NIXW5jMVtOSF1DKD1PKVtOSF1bQ0gyXVtDQEBIXTJbQ0gyXVtDSDJdW0NIMl1PMg==

> <s_epik_cmdline>
J2VwaWtfcHl0aG9uJywgJy1waCcsICc3LjAnLCAnLXRuJywgJzgnLCAnLW1hJywgJzIwMCcsICctbWV0YWxfYmluZGluZycsICctaW1hZScsICc8aW5maWxlLm1hZT4nLCAnLW9tYWUnLCAnPG91dGZpbGUubWFlPic=

> <r_lp_tautomer_probability>
0.999

> <r_epik_Ionization_Penalty>
8.26346

> <r_epik_Ionization_Penalty_Charging>
6.6559

> <r_epik_Ionization_Penalty_Neutral>
1.60756

> <r_epik_State_Penalty>
6.65607

> <r_epik_Charging_Adjusted_Penalty>
13.312

> <i_epik_Tot_Q>
-1

> <i_epik_Tot_abs_Q>
1

> <r_epik_Metal_State_Penalty>
2.5789

> <b_epik_Metal_Only>
1

> <s_lp_Force_Field>
OPLS_2005

> <r_lp_Energy>
13.0287

> <b_lp_Chiralities_Consistent>
1

> <s_lp_Variant>
AV-unprocessed.smi:1808-4

> <Gold.Version>
5.8.1

> <Gold.Id.Protein>
6NUR|6NUR_protein|mol2

> <Gold.PLP.Fitness>
37.5268

> <Gold.PLP.PLP>
-26.9386

> <Gold.PLP.part.hbond>
-4.0000

> <Gold.PLP.part.metal>
0.0000

> <Gold.PLP.part.buried>
-3.3791

> <Gold.PLP.part.nonpolar>
-20.2897

> <Gold.PLP.part.repulsive>
0.0553

> <Gold.PLP.ligand.clash>
0.0000

> <Gold.PLP.ligand.torsion>
0.4836

> <Gold.PLP.Chemscore.Hbond>
3.8480

> <Gold.PLP.Chemscore.CHOScore>
0.0000

> <Gold.PLP.Chemscore.Metal>
0.0000

> <Gold.Chemscore.Hbonds>
donor molecule, donor type, donor heavy atom, donor atom, acceptor molecule, acceptor atom, score
      P1  H  6896  6907       L1     1  1.00
      P1  H  6931  6943       L1    12  1.00
      P1  H  6934  6947       L1    12  0.53
      P1  H 10752 10763       L1     9  0.75

> <Gold.PLP.Chemscore.Internal.Correction>
0.0113

> <Gold.Rescore>
     Score         DG    S(hbond)    S(metal)    S(lipo)     H(rot)  DE(clash)    DE(int)     intcor
     15.78     -17.82       2.77        0.00      54.86       1.30       0.02       2.01       ----

> <Gold.Chemscore.Fitness>
15.7843

> <Gold.Chemscore.DG>
-17.8172

> <Gold.Chemscore.ZeroCoef>
-5.4800

> <Gold.Chemscore.Hbond>
2.7685

> <Gold.Chemscore.Metal>
0.0000

> <Gold.Chemscore.Lipo>
54.8589

> <Gold.Chemscore.Internal_Hbond>
0.0000

> <Gold.Chemscore.DEClash>
0.0202

> <Gold.Chemscore.DEInternal>
2.0126

> <Gold.Chemscore.Rot>
1.3000

> <Gold.Chemscore.Internal.Correction>
   9.000000E+99

> <Gold.Chemscore.Hbonds>
donor molecule, donor type, donor heavy atom, donor atom, acceptor molecule, acceptor atom, score
      P1  H  6896  6907       L1     1  0.90
      P1  H  6931  6943       L1    12  0.67
      P1  H  6934  6947       L1    12  0.45
      P1  H 10752 10763       L1     9  0.09

> <Gold.Chemscore.Hbond.Weighted>
-9.2467

> <Gold.Chemscore.Metal.Weighted>
-0.0000

> <Gold.Chemscore.Lipo.Weighted>
-6.4185

> <Gold.Chemscore.Internal_Hbond.Weighted>
0.0000

> <Gold.Chemscore.DEClash.Weighted>
0.0202

> <Gold.Chemscore.DEInternal.Weighted>
2.0126

> <Gold.Chemscore.Rot.Weighted>
3.3280

> <Gold.Chemscore.Internal.Correction.Weighted>
   9.000000E+99

> <Gold.Protein.RotatedTorsions>
[ 6907 6896 6895 6894 ] final  -76.84 input  -60.11 | X-H torsion
[ 7974 7965 7964 7962 ] final  -58.77 input  175.53 | X-H torsion
[ 8008 7997 7996 7995 ] final  -68.70 input   59.86 | X-H torsion
[ 10167 10162 10161 10158 ] final   23.87 input  -65.29 | X-H torsion
[ 10718 10713 10712 10709 ] final   91.26 input   66.30 | X-H torsion
[ 10763 10752 10751 10750 ] final   81.77 input  -60.55 | X-H torsion
[ 11005 11000 10999 10996 ] final   44.40 input  -57.11 | X-H torsion

> <Gold.Protein.ActiveResidues>
 VAL166  LYS551  ARG553  GLY616  TRP617  ASP618  TYR619  PRO620  LYS621  CYS622 
 ASP623  PHE694  ASN695  SER759  ASP760  ASP761  ALA762  ILE779  LEU786  VAL792 
 PHE793  MET794  SER795  GLU796  ALA797  LYS798  CYS799  TRP800  GLU811  SER814 

> <Gold.Protein.RotatedAtoms>
  150.7015  134.4511  159.5336 H   0  0  0  0  0  0  0  0  0  0  0  0  # atno 6907 bound_to 6896
  152.2204  134.8416  160.0496 H   0  0  0  0  0  0  0  0  0  0  0  0  # atno 6908 bound_to 6896
  151.9268  133.3565  159.3953 H   0  0  0  0  0  0  0  0  0  0  0  0  # atno 6909 bound_to 6896
  145.8354  140.8452  143.0062 H   0  0  0  0  0  0  0  0  0  0  0  0  # atno 7974 bound_to 7965
  154.4886  140.0868  156.7543 H   0  0  0  0  0  0  0  0  0  0  0  0  # atno 8008 bound_to 7997
  155.4287  140.3449  155.4260 H   0  0  0  0  0  0  0  0  0  0  0  0  # atno 8009 bound_to 7997
  156.1297  140.1498  156.9071 H   0  0  0  0  0  0  0  0  0  0  0  0  # atno 8010 bound_to 7997
  140.5234  143.9964  150.6428 H   0  0  0  0  0  0  0  0  0  0  0  0  # atno 10167 bound_to 10162
  157.6960  131.0401  150.3703 H   0  0  0  0  0  0  0  0  0  0  0  0  # atno 10718 bound_to 10713
  153.1145  135.4753  154.9092 H   0  0  0  0  0  0  0  0  0  0  0  0  # atno 10763 bound_to 10752
  154.7514  135.3107  154.8552 H   0  0  0  0  0  0  0  0  0  0  0  0  # atno 10764 bound_to 10752
  153.9133  135.6863  153.4804 H   0  0  0  0  0  0  0  0  0  0  0  0  # atno 10765 bound_to 10752
  140.1555  134.4407  155.8353 H   0  0  0  0  0  0  0  0  0  0  0  0  # atno 11005 bound_to 11000
  144.6737  140.0734  143.7472 LP  0  0  0  0  0  0  0  0  0  0  0  0  # atno 17320 bound_to 7965
  145.9524  139.2743  143.1204 LP  0  0  0  0  0  0  0  0  0  0  0  0  # atno 17321 bound_to 7965
  140.3319  143.3072  152.0678 LP  0  0  0  0  0  0  0  0  0  0  0  0  # atno 17342 bound_to 10162
  139.4930  144.6503  151.6690 LP  0  0  0  0  0  0  0  0  0  0  0  0  # atno 17343 bound_to 10162
  156.4129  130.3937  149.6879 LP  0  0  0  0  0  0  0  0  0  0  0  0  # atno 17370 bound_to 10713
  156.4157  130.7744  151.2759 LP  0  0  0  0  0  0  0  0  0  0  0  0  # atno 17371 bound_to 10713
  141.2204  133.6890  156.7499 LP  0  0  0  0  0  0  0  0  0  0  0  0  # atno 17394 bound_to 11000
  140.2553  134.8509  157.3707 LP  0  0  0  0  0  0  0  0  0  0  0  0  # atno 17395 bound_to 11000

$$$$
