AV-unprocessed.smi:3311|AV-procd|sdf|12725|dock9
  -GOLD-   2272019 63D 1   1.00000     0.00000
 Structure written by MMmdl.
 43 44  0  0  0  0  0  0  0  0  1 V2000
  152.5261  139.0775  155.1285 C   0  0  0  0  0  0  0  0  0  0  0  0
  151.3268  140.0484  155.0399 C   0  0  2  0  0  0  0  0  0  0  0  0
  150.9671  140.5629  156.3668 N   0  0  0  0  0  0  0  0  0  0  0  0
  151.1291  142.0064  156.5573 C   0  0  0  0  0  0  0  0  0  0  0  0
  151.1548  142.4037  158.0506 C   0  0  0  0  0  0  0  0  0  0  0  0
  149.8849  142.0810  158.5898 O   0  0  0  0  0  0  0  0  0  0  0  0
  152.2659  141.6676  158.8426 C   0  0  0  0  0  0  0  0  0  0  0  0
  152.3979  142.1619  160.2945 C   0  0  0  0  0  0  0  0  0  0  0  0
  152.6052  143.6813  160.3537 C   0  0  0  0  0  0  0  0  0  0  0  0
  151.4709  144.4168  159.6275 C   0  0  0  0  0  0  0  0  0  0  0  0
  151.3367  143.9358  158.1714 C   0  0  0  0  0  0  0  0  0  0  0  0
  150.0774  139.4085  154.3765 C   0  0  1  0  0  0  0  0  0  0  0  0
  149.6809  138.0708  155.0292 C   0  0  0  0  0  0  0  0  0  0  0  0
  148.9302  140.3087  154.3805 N   0  0  0  0  0  0  0  0  0  0  0  0
  147.6182  140.0331  154.7123 C   0  0  0  0  0  0  0  0  0  0  0  0
  146.9069  141.1890  154.5631 C   0  0  0  0  0  0  0  0  0  0  0  0
  147.8808  142.1301  154.1275 C   0  0  0  0  0  0  0  0  0  0  0  0
  149.0884  141.6010  154.0178 N   0  0  0  0  0  0  0  0  0  0  0  0
  152.8162  138.6980  154.1493 H   0  0  0  0  0  0  0  0  0  0  0  0
  152.2914  138.2186  155.7579 H   0  0  0  0  0  0  0  0  0  0  0  0
  153.4137  139.5590  155.5369 H   0  0  0  0  0  0  0  0  0  0  0  0
  151.6331  140.8871  154.4132 H   0  0  0  0  0  0  0  0  0  0  0  0
  150.0079  140.3067  156.5793 H   0  0  0  0  0  0  0  0  0  0  0  0
  152.0574  142.3386  156.0938 H   0  0  0  0  0  0  0  0  0  0  0  0
  150.3229  142.5410  156.0530 H   0  0  0  0  0  0  0  0  0  0  0  0
  149.4207  142.8862  158.7608 H   0  0  0  0  0  0  0  0  0  0  0  0
  152.0872  140.5918  158.8488 H   0  0  0  0  0  0  0  0  0  0  0  0
  153.2206  141.8119  158.3349 H   0  0  0  0  0  0  0  0  0  0  0  0
  151.5049  141.8916  160.8592 H   0  0  0  0  0  0  0  0  0  0  0  0
  153.2321  141.6562  160.7815 H   0  0  0  0  0  0  0  0  0  0  0  0
  152.6585  144.0101  161.3921 H   0  0  0  0  0  0  0  0  0  0  0  0
  153.5614  143.9397  159.8970 H   0  0  0  0  0  0  0  0  0  0  0  0
  150.5316  144.2595  160.1590 H   0  0  0  0  0  0  0  0  0  0  0  0
  151.6559  145.4910  159.6461 H   0  0  0  0  0  0  0  0  0  0  0  0
  152.2337  144.2337  157.6264 H   0  0  0  0  0  0  0  0  0  0  0  0
  150.5074  144.4551  157.6889 H   0  0  0  0  0  0  0  0  0  0  0  0
  150.3235  139.2024  153.3327 H   0  0  0  0  0  0  0  0  0  0  0  0
  150.4742  137.3286  154.9382 H   0  0  0  0  0  0  0  0  0  0  0  0
  148.7931  137.6526  154.5537 H   0  0  0  0  0  0  0  0  0  0  0  0
  149.4629  138.1935  156.0905 H   0  0  0  0  0  0  0  0  0  0  0  0
  147.3048  139.0481  155.0257 H   0  0  0  0  0  0  0  0  0  0  0  0
  145.8519  141.3395  154.7380 H   0  0  0  0  0  0  0  0  0  0  0  0
  147.7469  143.1750  153.8892 H   0  0  0  0  0  0  0  0  0  0  0  0
  1  2  1  0  0  0  0
  1 19  1  0  0  0  0
  1 20  1  0  0  0  0
  1 21  1  0  0  0  0
  2  3  1  0  0  0  0
  2 12  1  0  0  0  0
  2 22  1  0  0  0  0
  3  4  1  0  0  0  0
  3 23  1  0  0  0  0
  4  5  1  0  0  0  0
  4 24  1  0  0  0  0
  4 25  1  0  0  0  0
  5 11  1  0  0  0  0
  5  6  1  0  0  0  0
  5  7  1  0  0  0  0
  6 26  1  0  0  0  0
  7  8  1  0  0  0  0
  7 27  1  0  0  0  0
  7 28  1  0  0  0  0
  8  9  1  0  0  0  0
  8 29  1  0  0  0  0
  8 30  1  0  0  0  0
  9 10  1  0  0  0  0
  9 31  1  0  0  0  0
  9 32  1  0  0  0  0
 10 11  1  0  0  0  0
 10 33  1  0  0  0  0
 10 34  1  0  0  0  0
 11 35  1  0  0  0  0
 11 36  1  0  0  0  0
 12 13  1  0  0  0  0
 12 14  1  0  0  0  0
 12 37  1  0  0  0  0
 13 38  1  0  0  0  0
 13 39  1  0  0  0  0
 13 40  1  0  0  0  0
 14 18  1  0  0  0  0
 14 15  1  0  0  0  0
 15 16  2  0  0  0  0
 15 41  1  0  0  0  0
 16 17  1  0  0  0  0
 16 42  1  0  0  0  0
 17 18  2  0  0  0  0
 17 43  1  0  0  0  0
M  END
> <s_m_source_file>
AV-unprocessed.smi

> <i_m_source_file_index>
3311

> <i_lp_mmshare_version>
43012

> <i_f3d_flags>
0

> <s_epik_input>
bjFbY0hdW2NIXVtjSF1uMVtDQEBIXShbQ0gzXSlbQ0BIXShbQ0gzXSlbTkhdW0NIMl1DMihbT0hdKVtDSDJdW0NIMl1bQ0gyXVtDSDJdW0NIMl0y

> <s_epik_cmdline>
J2VwaWtfcHl0aG9uJywgJy1waCcsICc3LjAnLCAnLXRuJywgJzgnLCAnLW1hJywgJzIwMCcsICctbWV0YWxfYmluZGluZycsICctaW1hZScsICc8aW5maWxlLm1hZT4nLCAnLW9tYWUnLCAnPG91dGZpbGUubWFlPic=

> <r_lp_tautomer_probability>
1

> <r_epik_Ionization_Penalty>
2.222

> <r_epik_Ionization_Penalty_Charging>
0

> <r_epik_Ionization_Penalty_Neutral>
2.222

> <r_epik_State_Penalty>
2.36562

> <r_epik_Charging_Adjusted_Penalty>
2.36562

> <i_epik_Tot_Q>
0

> <i_epik_Tot_abs_Q>
0

> <r_epik_Metal_State_Penalty>
2.36435

> <b_epik_Metal_Only>
0

> <s_lp_Force_Field>
OPLS_2005

> <r_lp_Energy>
27.677

> <b_lp_Chiralities_Consistent>
1

> <s_lp_Variant>
AV-unprocessed.smi:3311-7

> <Gold.Version>
5.8.1

> <Gold.Id.Protein>
6NUR|6NUR_protein|mol2

> <Gold.PLP.Fitness>
41.9348

> <Gold.PLP.PLP>
-40.1618

> <Gold.PLP.part.hbond>
-1.8166

> <Gold.PLP.part.metal>
0.0000

> <Gold.PLP.part.buried>
-2.2690

> <Gold.PLP.part.nonpolar>
-35.8902

> <Gold.PLP.part.repulsive>
0.1873

> <Gold.PLP.ligand.clash>
0.0000

> <Gold.PLP.ligand.torsion>
1.1510

> <Gold.PLP.Chemscore.Hbond>
0.6880

> <Gold.PLP.Chemscore.CHOScore>
0.6395

> <Gold.PLP.Chemscore.Metal>
0.0000

> <Gold.Chemscore.Hbonds>
donor molecule, donor type, donor heavy atom, donor atom, acceptor molecule, acceptor atom, score
      P1  H  8011  8017       L1    18  0.64
      L1  C    17    43       P1  8028  0.61

> <Gold.PLP.Chemscore.Internal.Correction>
0.0926

> <Gold.Rescore>
     Score         DG    S(hbond)    S(metal)    S(lipo)     H(rot)  DE(clash)    DE(int)     intcor
     13.21     -15.88       0.57        0.00     117.92       2.07       1.79       0.87       ----

> <Gold.Chemscore.Fitness>
13.2141

> <Gold.Chemscore.DG>
-15.8788

> <Gold.Chemscore.ZeroCoef>
-5.4800

> <Gold.Chemscore.Hbond>
0.5682

> <Gold.Chemscore.Metal>
0.0000

> <Gold.Chemscore.Lipo>
117.9199

> <Gold.Chemscore.Internal_Hbond>
0.0000

> <Gold.Chemscore.DEClash>
1.7942

> <Gold.Chemscore.DEInternal>
0.8705

> <Gold.Chemscore.Rot>
2.0686

> <Gold.Chemscore.Internal.Correction>
   9.000000E+99

> <Gold.Chemscore.Hbonds>
donor molecule, donor type, donor heavy atom, donor atom, acceptor molecule, acceptor atom, score
      P1  H  8011  8017       L1    18  0.25

> <Gold.Chemscore.Hbond.Weighted>
-1.8979

> <Gold.Chemscore.Metal.Weighted>
-0.0000

> <Gold.Chemscore.Lipo.Weighted>
-13.7966

> <Gold.Chemscore.Internal_Hbond.Weighted>
0.0000

> <Gold.Chemscore.DEClash.Weighted>
1.7942

> <Gold.Chemscore.DEInternal.Weighted>
0.8705

> <Gold.Chemscore.Rot.Weighted>
5.2957

> <Gold.Chemscore.Internal.Correction.Weighted>
   9.000000E+99

> <Gold.Protein.RotatedTorsions>
[ 6907 6896 6895 6894 ] final  -73.09 input  -60.11 | X-H torsion
[ 7974 7965 7964 7962 ] final  -12.43 input  175.53 | X-H torsion
[ 8008 7997 7996 7995 ] final   76.93 input   59.86 | X-H torsion
[ 10167 10162 10161 10158 ] final  -85.44 input  -65.29 | X-H torsion
[ 10718 10713 10712 10709 ] final   28.20 input   66.30 | X-H torsion
[ 10763 10752 10751 10750 ] final   -3.17 input  -60.55 | X-H torsion
[ 11005 11000 10999 10996 ] final   34.36 input  -57.11 | X-H torsion

> <Gold.Protein.ActiveResidues>
 VAL166  LYS551  ARG553  GLY616  TRP617  ASP618  TYR619  PRO620  LYS621  CYS622 
 ASP623  PHE694  ASN695  SER759  ASP760  ASP761  ALA762  ILE779  LEU786  VAL792 
 PHE793  MET794  SER795  GLU796  ALA797  LYS798  CYS799  TRP800  GLU811  SER814 

> <Gold.Protein.RotatedAtoms>
  150.7144  134.5067  159.5587 H   0  0  0  0  0  0  0  0  0  0  0  0  # atno 6907 bound_to 6896
  152.2652  134.7988  160.0433 H   0  0  0  0  0  0  0  0  0  0  0  0  # atno 6908 bound_to 6896
  151.8688  133.3436  159.3764 H   0  0  0  0  0  0  0  0  0  0  0  0  # atno 6909 bound_to 6896
  146.2152  140.3056  142.8378 H   0  0  0  0  0  0  0  0  0  0  0  0  # atno 7974 bound_to 7965
  155.8343  140.3465  155.5592 H   0  0  0  0  0  0  0  0  0  0  0  0  # atno 8008 bound_to 7997
  155.8208  140.0912  157.1869 H   0  0  0  0  0  0  0  0  0  0  0  0  # atno 8009 bound_to 7997
  154.4004  140.1430  156.3485 H   0  0  0  0  0  0  0  0  0  0  0  0  # atno 8010 bound_to 7997
  140.4037  143.2652  151.9109 H   0  0  0  0  0  0  0  0  0  0  0  0  # atno 10167 bound_to 10162
  157.2303  130.7020  149.6310 H   0  0  0  0  0  0  0  0  0  0  0  0  # atno 10718 bound_to 10713
  153.3677  135.6993  153.6662 H   0  0  0  0  0  0  0  0  0  0  0  0  # atno 10763 bound_to 10752
  153.5325  135.3589  155.2682 H   0  0  0  0  0  0  0  0  0  0  0  0  # atno 10764 bound_to 10752
  154.8677  135.4184  154.2948 H   0  0  0  0  0  0  0  0  0  0  0  0  # atno 10765 bound_to 10752
  140.2536  134.3274  155.7881 H   0  0  0  0  0  0  0  0  0  0  0  0  # atno 11005 bound_to 11000
  144.9025  140.7660  143.5858 LP  0  0  0  0  0  0  0  0  0  0  0  0  # atno 17320 bound_to 7965
  145.2983  139.1859  143.4703 LP  0  0  0  0  0  0  0  0  0  0  0  0  # atno 17321 bound_to 7965
  139.4784  144.5608  151.8243 LP  0  0  0  0  0  0  0  0  0  0  0  0  # atno 17342 bound_to 10162
  140.4712  144.1583  150.5918 LP  0  0  0  0  0  0  0  0  0  0  0  0  # atno 17343 bound_to 10162
  155.9676  130.4491  150.5645 LP  0  0  0  0  0  0  0  0  0  0  0  0  # atno 17370 bound_to 10713
  157.3485  131.0729  151.1732 LP  0  0  0  0  0  0  0  0  0  0  0  0  # atno 17371 bound_to 10713
  141.2198  133.7368  156.9076 LP  0  0  0  0  0  0  0  0  0  0  0  0  # atno 17394 bound_to 11000
  140.1533  134.9215  157.2621 LP  0  0  0  0  0  0  0  0  0  0  0  0  # atno 17395 bound_to 11000

$$$$
