AV-unprocessed.smi:287|AV-procd|sdf|2189|dock5
  -GOLD-   2262021583D 1   1.00000     0.00000
 Structure written by MMmdl.
 55 58  0  0  0  0  0  0  0  0  1 V2000
  152.7245  141.0017  158.7567 C   0  0  0  0  0  0  0  0  0  0  0  0
  152.0828  140.5891  157.4767 C   0  0  0  0  0  0  0  0  0  0  0  0
  150.9626  140.9908  156.8097 C   0  0  0  0  0  0  0  0  0  0  0  0
  150.8637  140.1998  155.6262 C   0  0  0  0  0  0  0  0  0  0  0  0
  149.7616  140.2933  154.5791 C   0  0  1  0  0  0  0  0  0  0  0  0
  148.7518  141.3811  154.9811 C   0  0  0  0  0  0  0  0  0  0  0  0
  150.2431  140.6803  153.3065 O   0  0  0  0  0  0  0  0  0  0  0  0
  149.0341  138.9450  154.3681 C   0  0  0  0  0  0  0  0  0  0  0  0
  148.9427  138.1513  155.5896 N   0  0  0  0  0  0  0  0  0  0  0  0
  148.2577  136.9889  155.5925 C   0  0  0  0  0  0  0  0  0  0  0  0
  148.4453  136.0699  156.5742 N   0  0  0  0  0  0  0  0  0  0  0  0
  147.7573  134.9259  156.5531 C   0  0  0  0  0  0  0  0  0  0  0  0
  146.8561  134.5122  155.6603 N   0  0  0  0  0  0  0  0  0  0  0  0
  146.6598  135.4289  154.6675 C   0  0  0  0  0  0  0  0  0  0  0  0
  147.3209  136.6868  154.5708 C   0  0  0  0  0  0  0  0  0  0  0  0
  146.8815  137.3674  153.4454 N   0  0  0  0  0  0  0  0  0  0  0  0
  146.0085  136.5578  152.9116 C   0  0  0  0  0  0  0  0  0  0  0  0
  145.8190  135.3602  153.5676 N   0  0  0  0  0  0  0  0  0  0  0  0
  144.8531  134.2799  153.1613 C   0  0  2  0  0  0  0  0  0  0  0  0
  145.5838  133.1720  152.7415 O   0  0  0  0  0  0  0  0  0  0  0  0
  145.6718  133.1712  151.3263 C   0  0  1  0  0  0  0  0  0  0  0  0
  145.9787  131.7556  150.8063 C   0  0  0  0  0  0  0  0  0  0  0  0
  146.8652  131.0582  151.6577 O   0  0  0  0  0  0  0  0  0  0  0  0
  144.3698  133.8248  150.8320 C   0  0  2  0  0  0  0  0  0  0  0  0
  144.6296  134.6213  149.6936 O   0  0  0  0  0  0  0  0  0  0  0  0
  143.9125  134.6922  152.0110 C   0  0  1  0  0  0  0  0  0  0  0  0
  142.5665  134.4031  152.3318 O   0  0  0  0  0  0  0  0  0  0  0  0
  151.9639  139.3766  155.6623 C   0  0  0  0  0  0  0  0  0  0  0  0
  152.4977  138.3165  154.7562 C   0  0  0  0  0  0  0  0  0  0  0  0
  152.7054  139.6040  156.7824 O   0  0  0  0  0  0  0  0  0  0  0  0
  144.3230  134.0485  154.0864 H   0  0  0  0  0  0  0  0  0  0  0  0
  146.5233  133.8042  151.0772 H   0  0  0  0  0  0  0  0  0  0  0  0
  143.6143  133.0788  150.5838 H   0  0  0  0  0  0  0  0  0  0  0  0
  143.9878  135.7622  151.8172 H   0  0  0  0  0  0  0  0  0  0  0  0
  152.1129  141.7376  159.2791 H   0  0  0  0  0  0  0  0  0  0  0  0
  153.7036  141.4443  158.5732 H   0  0  0  0  0  0  0  0  0  0  0  0
  152.8572  140.1443  159.4168 H   0  0  0  0  0  0  0  0  0  0  0  0
  150.2812  141.7615  157.1386 H   0  0  0  0  0  0  0  0  0  0  0  0
  148.2915  141.1564  155.9441 H   0  0  0  0  0  0  0  0  0  0  0  0
  147.9485  141.4722  154.2491 H   0  0  0  0  0  0  0  0  0  0  0  0
  149.2325  142.3565  155.0679 H   0  0  0  0  0  0  0  0  0  0  0  0
  150.1115  139.9627  152.7060 H   0  0  0  0  0  0  0  0  0  0  0  0
  148.0132  139.1521  154.0433 H   0  0  0  0  0  0  0  0  0  0  0  0
  149.5032  138.3662  153.5707 H   0  0  0  0  0  0  0  0  0  0  0  0
  149.3007  138.5882  156.4274 H   0  0  0  0  0  0  0  0  0  0  0  0
  147.9591  134.2437  157.3658 H   0  0  0  0  0  0  0  0  0  0  0  0
  145.4724  136.8161  152.0097 H   0  0  0  0  0  0  0  0  0  0  0  0
  145.0546  131.1812  150.7406 H   0  0  0  0  0  0  0  0  0  0  0  0
  146.3990  131.8000  149.8014 H   0  0  0  0  0  0  0  0  0  0  0  0
  147.7428  131.1531  151.3202 H   0  0  0  0  0  0  0  0  0  0  0  0
  145.4061  134.2888  149.2686 H   0  0  0  0  0  0  0  0  0  0  0  0
  142.1327  134.0952  151.5504 H   0  0  0  0  0  0  0  0  0  0  0  0
  152.6082  138.6958  153.7401 H   0  0  0  0  0  0  0  0  0  0  0  0
  151.8252  137.4589  154.7278 H   0  0  0  0  0  0  0  0  0  0  0  0
  153.4748  137.9662  155.0903 H   0  0  0  0  0  0  0  0  0  0  0  0
  1  2  1  0  0  0  0
  1 35  1  0  0  0  0
  1 36  1  0  0  0  0
  1 37  1  0  0  0  0
  2 30  1  0  0  0  0
  2  3  2  0  0  0  0
  3  4  1  0  0  0  0
  3 38  1  0  0  0  0
  4  5  1  0  0  0  0
  4 28  2  0  0  0  0
  5  6  1  0  0  0  0
  5  7  1  0  0  0  0
  5  8  1  0  0  0  0
  6 39  1  0  0  0  0
  6 40  1  0  0  0  0
  6 41  1  0  0  0  0
  7 42  1  0  0  0  0
  8  9  1  0  0  0  0
  8 43  1  0  0  0  0
  8 44  1  0  0  0  0
  9 10  1  0  0  0  0
  9 45  1  0  0  0  0
 10 15  1  0  0  0  0
 10 11  2  0  0  0  0
 11 12  1  0  0  0  0
 12 13  2  0  0  0  0
 12 46  1  0  0  0  0
 13 14  1  0  0  0  0
 14 18  1  0  0  0  0
 14 15  2  0  0  0  0
 15 16  1  0  0  0  0
 16 17  2  0  0  0  0
 17 18  1  0  0  0  0
 17 47  1  0  0  0  0
 18 19  1  0  0  0  0
 19 31  1  0  0  0  0
 19 26  1  0  0  0  0
 19 20  1  0  0  0  0
 20 21  1  0  0  0  0
 21 32  1  0  0  0  0
 21 22  1  0  0  0  0
 21 24  1  0  0  0  0
 22 23  1  0  0  0  0
 22 48  1  0  0  0  0
 22 49  1  0  0  0  0
 23 50  1  0  0  0  0
 24 33  1  0  0  0  0
 24 25  1  0  0  0  0
 24 26  1  0  0  0  0
 25 51  1  0  0  0  0
 26 34  1  0  0  0  0
 26 27  1  0  0  0  0
 27 52  1  0  0  0  0
 28 29  1  0  0  0  0
 28 30  1  0  0  0  0
 29 53  1  0  0  0  0
 29 54  1  0  0  0  0
 29 55  1  0  0  0  0
M  END
> <s_m_source_file>
AV-unprocessed.smi

> <i_m_source_file_index>
287

> <i_lp_mmshare_version>
43012

> <i_f3d_flags>
0

> <s_epik_input>
W0NIM11jMVtjSF1jKGMobzEpW0NIM10pW0NAQF0oW0NIM10pKFtPSF0pW0NIMl1bTkhdYyhuW2NIXW4yKWMoYzIzKW5bY0hdbjNbQ0BASF00T1tDQEhdKFtDSDJdW09IXSlbQ0BASF0oW09IXSlbQ0BIXTRbT0hd

> <s_epik_cmdline>
J2VwaWtfcHl0aG9uJywgJy1waCcsICc3LjAnLCAnLXRuJywgJzgnLCAnLW1hJywgJzIwMCcsICctbWV0YWxfYmluZGluZycsICctaW1hZScsICc8aW5maWxlLm1hZT4nLCAnLW9tYWUnLCAnPG91dGZpbGUubWFlPic=

> <r_lp_tautomer_probability>
1

> <r_epik_Ionization_Penalty>
0.000992612

> <r_epik_Ionization_Penalty_Charging>
0

> <r_epik_Ionization_Penalty_Neutral>
0.000992612

> <r_epik_State_Penalty>
-0

> <r_epik_Charging_Adjusted_Penalty>
0

> <i_epik_Tot_Q>
0

> <i_epik_Tot_abs_Q>
0

> <r_epik_Metal_State_Penalty>
-0

> <b_epik_Metal_Only>
0

> <s_epik_Chemistry_Notes>
This compound contains an acetal/aminal-like group ( X-CH(R)-Y where X, Y are N, S, or O) that may be acid/base labile, releasing an aldehyde.

> <s_lp_Force_Field>
OPLS_2005

> <r_lp_Energy>
40.6201

> <b_lp_Chiralities_Consistent>
1

> <s_lp_Variant>
AV-unprocessed.smi:287-13

> <Gold.Version>
5.8.1

> <Gold.Id.Protein>
6NUR|6NUR_protein|mol2

> <Gold.PLP.Fitness>
54.5351

> <Gold.PLP.PLP>
-40.3510

> <Gold.PLP.part.hbond>
-5.9473

> <Gold.PLP.part.metal>
0.0000

> <Gold.PLP.part.buried>
-6.4749

> <Gold.PLP.part.nonpolar>
-28.6334

> <Gold.PLP.part.repulsive>
0.7132

> <Gold.PLP.ligand.clash>
0.0000

> <Gold.PLP.ligand.torsion>
0.9467

> <Gold.PLP.Chemscore.Hbond>
5.3193

> <Gold.PLP.Chemscore.CHOScore>
0.0000

> <Gold.PLP.Chemscore.Metal>
0.0000

> <Gold.Chemscore.Hbonds>
donor molecule, donor type, donor heavy atom, donor atom, acceptor molecule, acceptor atom, score
      L1  H     7    42       P1  7957  0.56
      L1  H    23    50       P1 10747  1.00
      L1  H    25    51       P1  7921  0.56
      L1  H    27    52       P1 10186  0.17
      P1  H  7989  7998       L1     7  0.20
      P1  H  7997  8009       L1    30  1.00
      P1  H  8011  8017       L1     7  1.00

> <Gold.PLP.Chemscore.Internal.Correction>
0.1198

> <Gold.Rescore>
     Score         DG    S(hbond)    S(metal)    S(lipo)     H(rot)  DE(clash)    DE(int)     intcor
     11.34     -13.87       3.69        0.00      81.61       5.27       0.04       2.50       ----

> <Gold.Chemscore.Fitness>
11.3394

> <Gold.Chemscore.DG>
-13.8731

> <Gold.Chemscore.ZeroCoef>
-5.4800

> <Gold.Chemscore.Hbond>
3.6910

> <Gold.Chemscore.Metal>
0.0000

> <Gold.Chemscore.Lipo>
81.6149

> <Gold.Chemscore.Internal_Hbond>
0.0000

> <Gold.Chemscore.DEClash>
0.0359

> <Gold.Chemscore.DEInternal>
2.4978

> <Gold.Chemscore.Rot>
5.2672

> <Gold.Chemscore.Internal.Correction>
   9.000000E+99

> <Gold.Chemscore.Hbonds>
donor molecule, donor type, donor heavy atom, donor atom, acceptor molecule, acceptor atom, score
      L1  H     7    42       P1  7957  0.55
      L1  H    23    50       P1 10747  0.98
      L1  H    25    51       P1  7921  0.53
      L1  H    27    52       P1 10186  0.01
      P1  H  7989  7998       L1     7  0.08
      P1  H  7997  8009       L1    30  0.54
      P1  H  8011  8017       L1     7  0.58

> <Gold.Chemscore.Hbond.Weighted>
-12.3281

> <Gold.Chemscore.Metal.Weighted>
-0.0000

> <Gold.Chemscore.Lipo.Weighted>
-9.5489

> <Gold.Chemscore.Internal_Hbond.Weighted>
0.0000

> <Gold.Chemscore.DEClash.Weighted>
0.0359

> <Gold.Chemscore.DEInternal.Weighted>
2.4978

> <Gold.Chemscore.Rot.Weighted>
13.4839

> <Gold.Chemscore.Internal.Correction.Weighted>
   9.000000E+99

> <Gold.Protein.RotatedTorsions>
[ 6907 6896 6895 6894 ] final  -87.45 input  -60.11 | X-H torsion
[ 7974 7965 7964 7962 ] final  -28.39 input  175.53 | X-H torsion
[ 8008 7997 7996 7995 ] final  177.31 input   59.86 | X-H torsion
[ 10167 10162 10161 10158 ] final -125.21 input  -65.29 | X-H torsion
[ 10718 10713 10712 10709 ] final   50.16 input   66.30 | X-H torsion
[ 10763 10752 10751 10750 ] final   84.63 input  -60.55 | X-H torsion
[ 11005 11000 10999 10996 ] final  -90.93 input  -57.11 | X-H torsion

> <Gold.Protein.ActiveResidues>
 VAL166  LYS551  ARG553  GLY616  TRP617  ASP618  TYR619  PRO620  LYS621  CYS622 
 ASP623  PHE694  ASN695  SER759  ASP760  ASP761  ALA762  ILE779  LEU786  VAL792 
 PHE793  MET794  SER795  GLU796  ALA797  LYS798  CYS799  TRP800  GLU811  SER814 

> <Gold.Protein.RotatedAtoms>
  150.6866  134.2894  159.4659 H   0  0  0  0  0  0  0  0  0  0  0  0  # atno 6907 bound_to 6896
  152.0800  134.9475  160.0583 H   0  0  0  0  0  0  0  0  0  0  0  0  # atno 6908 bound_to 6896
  152.0831  133.4128  159.4547 H   0  0  0  0  0  0  0  0  0  0  0  0  # atno 6909 bound_to 6896
  146.1292  140.5276  142.8701 H   0  0  0  0  0  0  0  0  0  0  0  0  # atno 7974 bound_to 7965
  156.0670  140.1361  156.9874 H   0  0  0  0  0  0  0  0  0  0  0  0  # atno 8008 bound_to 7997
  154.4511  140.0979  156.6674 H   0  0  0  0  0  0  0  0  0  0  0  0  # atno 8009 bound_to 7997
  155.5288  140.3458  155.4424 H   0  0  0  0  0  0  0  0  0  0  0  0  # atno 8010 bound_to 7997
  139.9846  143.5706  152.2365 H   0  0  0  0  0  0  0  0  0  0  0  0  # atno 10167 bound_to 10162
  157.4858  130.8344  149.8145 H   0  0  0  0  0  0  0  0  0  0  0  0  # atno 10718 bound_to 10713
  153.1400  135.4647  154.9481 H   0  0  0  0  0  0  0  0  0  0  0  0  # atno 10763 bound_to 10752
  154.7739  135.3167  154.8136 H   0  0  0  0  0  0  0  0  0  0  0  0  # atno 10764 bound_to 10752
  153.8661  135.6908  153.4832 H   0  0  0  0  0  0  0  0  0  0  0  0  # atno 10765 bound_to 10752
  141.1555  133.7723  156.9808 H   0  0  0  0  0  0  0  0  0  0  0  0  # atno 11005 bound_to 11000
  144.7673  140.5558  143.6694 LP  0  0  0  0  0  0  0  0  0  0  0  0  # atno 17320 bound_to 7965
  145.5299  139.1475  143.3505 LP  0  0  0  0  0  0  0  0  0  0  0  0  # atno 17321 bound_to 7965
  139.6385  144.7652  151.2388 LP  0  0  0  0  0  0  0  0  0  0  0  0  # atno 17342 bound_to 10162
  140.7477  143.6358  150.8381 LP  0  0  0  0  0  0  0  0  0  0  0  0  # atno 17343 bound_to 10162
  156.0146  130.3819  150.2153 LP  0  0  0  0  0  0  0  0  0  0  0  0  # atno 17370 bound_to 10713
  157.0340  131.0016  151.3303 LP  0  0  0  0  0  0  0  0  0  0  0  0  # atno 17371 bound_to 10713
  140.1067  134.9502  157.2005 LP  0  0  0  0  0  0  0  0  0  0  0  0  # atno 17394 bound_to 11000
  140.3247  134.2877  155.7239 LP  0  0  0  0  0  0  0  0  0  0  0  0  # atno 17395 bound_to 11000

$$$$
