AV-unprocessed.smi:3287|AV-procd|sdf|12595|dock8
  -GOLD-   2272018523D 1   1.00000     0.00000
 Structure written by MMmdl.
 43 44  0  0  0  0  0  0  0  0  2 V2000
  146.1982  131.8215  149.9228 C   0  0  0  0  0  0  0  0  0  0  0  0
  145.1074  132.2921  150.9060 C   0  0  1  0  0  0  0  0  0  0  0  0
  145.7166  132.8492  152.2092 C   0  0  0  0  0  0  0  0  0  0  0  0
  146.3638  134.2301  152.0085 C   0  0  0  0  0  0  0  0  0  0  0  0
  145.3660  135.2419  151.4176 C   0  0  1  0  0  0  0  0  0  0  0  0
  146.0337  136.5481  151.2214 N   0  3  0  0  0  0  0  0  0  0  0  0
  145.8792  137.5120  152.3329 C   0  0  0  0  0  0  0  0  0  0  0  0
  146.7889  138.7388  152.1475 C   0  0  1  0  0  0  0  0  0  0  0  0
  146.3485  139.4675  151.0180 O   0  0  0  0  0  0  0  0  0  0  0  0
  146.8090  139.5982  153.4021 C   0  0  0  0  0  0  0  0  0  0  0  0
  147.5096  140.8237  153.4387 C   0  0  0  0  0  0  0  0  0  0  0  0
  147.4834  141.5799  154.6275 C   0  0  0  0  0  0  0  0  0  0  0  0
  146.8179  141.1939  155.7367 N   0  0  0  0  0  0  0  0  0  0  0  0
  146.1476  140.0229  155.6959 C   0  0  0  0  0  0  0  0  0  0  0  0
  146.1103  139.1917  154.5582 C   0  0  0  0  0  0  0  0  0  0  0  0
  144.7629  134.7000  150.1038 C   0  0  0  0  0  0  0  0  0  0  0  0
  144.1109  133.3166  150.3057 C   0  0  1  0  0  0  0  0  0  0  0  0
  143.4217  132.8178  149.0249 C   0  0  0  0  0  0  0  0  0  0  0  0
  146.7886  132.6500  149.5334 H   0  0  0  0  0  0  0  0  0  0  0  0
  145.7680  131.2930  149.0725 H   0  0  0  0  0  0  0  0  0  0  0  0
  146.8860  131.1291  150.4088 H   0  0  0  0  0  0  0  0  0  0  0  0
  144.5376  131.4025  151.1780 H   0  0  0  0  0  0  0  0  0  0  0  0
  144.9332  132.9317  152.9636 H   0  0  0  0  0  0  0  0  0  0  0  0
  146.4488  132.1494  152.6138 H   0  0  0  0  0  0  0  0  0  0  0  0
  146.7396  134.5949  152.9652 H   0  0  0  0  0  0  0  0  0  0  0  0
  147.2329  134.1379  151.3560 H   0  0  0  0  0  0  0  0  0  0  0  0
  144.5633  135.3812  152.1435 H   0  0  0  0  0  0  0  0  0  0  0  0
  147.0221  136.3717  151.1117 H   0  0  0  0  0  0  0  0  0  0  0  0
  144.8389  137.8278  152.4138 H   0  0  0  0  0  0  0  0  0  0  0  0
  146.1351  137.0102  153.2672 H   0  0  0  0  0  0  0  0  0  0  0  0
  147.8074  138.4052  151.9426 H   0  0  0  0  0  0  0  0  0  0  0  0
  145.5803  139.0414  150.6678 H   0  0  0  0  0  0  0  0  0  0  0  0
  148.0555  141.1818  152.5780 H   0  0  0  0  0  0  0  0  0  0  0  0
  148.0087  142.5216  154.6876 H   0  0  0  0  0  0  0  0  0  0  0  0
  145.6227  139.7404  156.5964 H   0  0  0  0  0  0  0  0  0  0  0  0
  145.5556  138.2651  154.5791 H   0  0  0  0  0  0  0  0  0  0  0  0
  144.0079  135.3890  149.7258 H   0  0  0  0  0  0  0  0  0  0  0  0
  145.5340  134.6427  149.3344 H   0  0  0  0  0  0  0  0  0  0  0  0
  143.3172  133.4476  151.0432 H   0  0  0  0  0  0  0  0  0  0  0  0
  144.1216  132.7365  148.1933 H   0  0  0  0  0  0  0  0  0  0  0  0
  142.6298  133.5015  148.7178 H   0  0  0  0  0  0  0  0  0  0  0  0
  142.9665  131.8389  149.1786 H   0  0  0  0  0  0  0  0  0  0  0  0
  145.6904  136.9710  150.3706 H   0  0  0  0  0  0  0  0  0  0  0  0
  1  2  1  0  0  0  0
  1 19  1  0  0  0  0
  1 20  1  0  0  0  0
  1 21  1  0  0  0  0
  2 17  1  0  0  0  0
  2  3  1  0  0  0  0
  2 22  1  0  0  0  0
  3  4  1  0  0  0  0
  3 23  1  0  0  0  0
  3 24  1  0  0  0  0
  4  5  1  0  0  0  0
  4 25  1  0  0  0  0
  4 26  1  0  0  0  0
  5  6  1  0  0  0  0
  5 16  1  0  0  0  0
  5 27  1  0  0  0  0
  6  7  1  0  0  0  0
  6 28  1  0  0  0  0
  6 43  1  0  0  0  0
  7  8  1  0  0  0  0
  7 29  1  0  0  0  0
  7 30  1  0  0  0  0
  8  9  1  0  0  0  0
  8 10  1  0  0  0  0
  8 31  1  0  0  0  0
  9 32  1  0  0  0  0
 10 15  1  0  0  0  0
 10 11  2  0  0  0  0
 11 12  1  0  0  0  0
 11 33  1  0  0  0  0
 12 13  2  0  0  0  0
 12 34  1  0  0  0  0
 13 14  1  0  0  0  0
 14 15  2  0  0  0  0
 14 35  1  0  0  0  0
 15 36  1  0  0  0  0
 16 17  1  0  0  0  0
 16 37  1  0  0  0  0
 16 38  1  0  0  0  0
 17 18  1  0  0  0  0
 17 39  1  0  0  0  0
 18 40  1  0  0  0  0
 18 41  1  0  0  0  0
 18 42  1  0  0  0  0
M  CHG  1   6   1
M  END
> <s_m_source_file>
AV-unprocessed.smi

> <i_m_source_file_index>
3287

> <i_lp_mmshare_version>
43012

> <i_f3d_flags>
0

> <s_epik_input>
W0NIM11bQ0BASF0xW0NIMl1bQ0gyXVtDQEhdKFtDSDJdW0NASF0xW0NIM10pW05IXVtDSDJdW0NASF0oW09IXSljMltjSF1bY0hdbltjSF1bY0hdMg==

> <s_epik_cmdline>
J2VwaWtfcHl0aG9uJywgJy1waCcsICc3LjAnLCAnLXRuJywgJzgnLCAnLW1hJywgJzIwMCcsICctbWV0YWxfYmluZGluZycsICctaW1hZScsICc8aW5maWxlLm1hZT4nLCAnLW9tYWUnLCAnPG91dGZpbGUubWFlPic=

> <r_lp_tautomer_probability>
1

> <r_epik_Ionization_Penalty>
0.00537262

> <r_epik_Ionization_Penalty_Charging>
0.00321624

> <r_epik_Ionization_Penalty_Neutral>
0.00215638

> <r_epik_State_Penalty>
-0

> <r_epik_Charging_Adjusted_Penalty>
0.00321624

> <i_epik_Tot_Q>
1

> <i_epik_Tot_abs_Q>
1

> <r_epik_Metal_State_Penalty>
-0

> <b_epik_Metal_Only>
0

> <s_lp_Force_Field>
OPLS_2005

> <r_lp_Energy>
17.7653

> <b_lp_Chiralities_Consistent>
1

> <s_lp_Variant>
AV-unprocessed.smi:3287-6

> <Gold.Version>
5.8.1

> <Gold.Id.Protein>
6NUR|6NUR_protein|mol2

> <Gold.PLP.Fitness>
44.2970

> <Gold.PLP.PLP>
-33.4493

> <Gold.PLP.part.hbond>
-2.9186

> <Gold.PLP.part.metal>
0.0000

> <Gold.PLP.part.buried>
2.6462

> <Gold.PLP.part.nonpolar>
-33.6763

> <Gold.PLP.part.repulsive>
0.1586

> <Gold.PLP.ligand.clash>
0.0000

> <Gold.PLP.ligand.torsion>
0.5865

> <Gold.PLP.Chemscore.Hbond>
3.0000

> <Gold.PLP.Chemscore.CHOScore>
1.0000

> <Gold.PLP.Chemscore.Metal>
0.0000

> <Gold.Chemscore.Hbonds>
donor molecule, donor type, donor heavy atom, donor atom, acceptor molecule, acceptor atom, score
      L1  H     6    28       P1  7948  2.00
      L1  H     9    32       P1 10171  1.00
      L1  C    12    34       P1  8028  1.00

> <Gold.PLP.Chemscore.Internal.Correction>
0.0206

> <Gold.Rescore>
     Score         DG    S(hbond)    S(metal)    S(lipo)     H(rot)  DE(clash)    DE(int)     intcor
     16.07     -19.08       1.98        0.00     101.39       1.90       2.41       0.60       ----

> <Gold.Chemscore.Fitness>
16.0722

> <Gold.Chemscore.DG>
-19.0797

> <Gold.Chemscore.ZeroCoef>
-5.4800

> <Gold.Chemscore.Hbond>
1.9792

> <Gold.Chemscore.Metal>
0.0000

> <Gold.Chemscore.Lipo>
101.3859

> <Gold.Chemscore.Internal_Hbond>
0.0000

> <Gold.Chemscore.DEClash>
2.4061

> <Gold.Chemscore.DEInternal>
0.6014

> <Gold.Chemscore.Rot>
1.9035

> <Gold.Chemscore.Internal.Correction>
   9.000000E+99

> <Gold.Chemscore.Hbonds>
donor molecule, donor type, donor heavy atom, donor atom, acceptor molecule, acceptor atom, score
      L1  H     6    28       P1  7948  0.91
      L1  H     6    43       P1 10171  0.02
      L1  H     9    32       P1 10171  0.99

> <Gold.Chemscore.Hbond.Weighted>
-6.6104

> <Gold.Chemscore.Metal.Weighted>
-0.0000

> <Gold.Chemscore.Lipo.Weighted>
-11.8621

> <Gold.Chemscore.Internal_Hbond.Weighted>
0.0000

> <Gold.Chemscore.DEClash.Weighted>
2.4061

> <Gold.Chemscore.DEInternal.Weighted>
0.6014

> <Gold.Chemscore.Rot.Weighted>
4.8729

> <Gold.Chemscore.Internal.Correction.Weighted>
   9.000000E+99

> <Gold.Protein.RotatedTorsions>
[ 6907 6896 6895 6894 ] final  -95.26 input  -60.11 | X-H torsion
[ 7974 7965 7964 7962 ] final  -60.35 input  175.53 | X-H torsion
[ 8008 7997 7996 7995 ] final   92.77 input   59.86 | X-H torsion
[ 10167 10162 10161 10158 ] final   48.09 input  -65.29 | X-H torsion
[ 10718 10713 10712 10709 ] final  129.00 input   66.30 | X-H torsion
[ 10763 10752 10751 10750 ] final  -26.90 input  -60.55 | X-H torsion
[ 11005 11000 10999 10996 ] final  -51.31 input  -57.11 | X-H torsion

> <Gold.Protein.ActiveResidues>
 VAL166  LYS551  ARG553  GLY616  TRP617  ASP618  TYR619  PRO620  LYS621  CYS622 
 ASP623  PHE694  ASN695  SER759  ASP760  ASP761  ALA762  ILE779  LEU786  VAL792 
 PHE793  MET794  SER795  GLU796  ALA797  LYS798  CYS799  TRP800  GLU811  SER814 

> <Gold.Protein.RotatedAtoms>
  150.6960  134.1684  159.4202 H   0  0  0  0  0  0  0  0  0  0  0  0  # atno 6907 bound_to 6896
  151.9663  135.0096  160.0559 H   0  0  0  0  0  0  0  0  0  0  0  0  # atno 6908 bound_to 6896
  152.1882  133.4719  159.5030 H   0  0  0  0  0  0  0  0  0  0  0  0  # atno 6909 bound_to 6896
  145.8166  140.8566  143.0154 H   0  0  0  0  0  0  0  0  0  0  0  0  # atno 7974 bound_to 7965
  156.0391  140.3321  155.7224 H   0  0  0  0  0  0  0  0  0  0  0  0  # atno 8008 bound_to 7997
  155.5771  140.0633  157.2810 H   0  0  0  0  0  0  0  0  0  0  0  0  # atno 8009 bound_to 7997
  154.4385  140.1850  156.0927 H   0  0  0  0  0  0  0  0  0  0  0  0  # atno 8010 bound_to 7997
  140.2969  144.2980  150.6228 H   0  0  0  0  0  0  0  0  0  0  0  0  # atno 10167 bound_to 10162
  157.5194  131.1098  150.9176 H   0  0  0  0  0  0  0  0  0  0  0  0  # atno 10718 bound_to 10713
  153.7234  135.6943  153.5007 H   0  0  0  0  0  0  0  0  0  0  0  0  # atno 10763 bound_to 10752
  153.2187  135.4377  155.0463 H   0  0  0  0  0  0  0  0  0  0  0  0  # atno 10764 bound_to 10752
  154.8277  135.3455  154.6767 H   0  0  0  0  0  0  0  0  0  0  0  0  # atno 10765 bound_to 10752
  141.0864  133.6641  156.3858 H   0  0  0  0  0  0  0  0  0  0  0  0  # atno 11005 bound_to 11000
  144.6752  140.0473  143.7479 LP  0  0  0  0  0  0  0  0  0  0  0  0  # atno 17320 bound_to 7965
  145.9720  139.2877  143.1093 LP  0  0  0  0  0  0  0  0  0  0  0  0  # atno 17321 bound_to 7965
  140.5685  143.2183  151.7642 LP  0  0  0  0  0  0  0  0  0  0  0  0  # atno 17342 bound_to 10162
  139.4924  144.4250  151.9935 LP  0  0  0  0  0  0  0  0  0  0  0  0  # atno 17343 bound_to 10162
  156.9791  130.5520  149.5295 LP  0  0  0  0  0  0  0  0  0  0  0  0  # atno 17370 bound_to 10713
  156.0343  130.5432  150.8613 LP  0  0  0  0  0  0  0  0  0  0  0  0  # atno 17371 bound_to 10713
  140.5353  134.6172  157.5363 LP  0  0  0  0  0  0  0  0  0  0  0  0  # atno 17394 bound_to 11000
  139.9683  134.7336  156.0094 LP  0  0  0  0  0  0  0  0  0  0  0  0  # atno 17395 bound_to 11000

$$$$
