AV-unprocessed.smi:568|AV-procd|sdf|2957|dock5
  -GOLD-   2262023463D 1   1.00000     0.00000
 Structure written by MMmdl.
 35 36  0  0  0  0  0  0  0  0  1 V2000
  150.0818  135.1949  156.7268 C   0  0  0  0  0  0  0  0  0  0  0  0
  150.0706  133.7196  156.4462 C   0  0  0  0  0  0  0  0  0  0  0  0
  150.3846  132.8726  157.4120 N   0  0  0  0  0  0  0  0  0  0  0  0
  150.2831  131.5963  156.8506 O   0  0  0  0  0  0  0  0  0  0  0  0
  149.9059  131.7259  155.5535 C   0  0  0  0  0  0  0  0  0  0  0  0
  149.7428  130.4626  154.7776 C   0  0  0  0  0  0  0  0  0  0  0  0
  149.7522  133.0470  155.2311 C   0  0  0  0  0  0  0  0  0  0  0  0
  149.3485  133.6564  153.9121 C   0  0  0  0  0  0  0  0  0  0  0  0
  147.9143  133.2497  153.5726 C   0  0  0  0  0  0  0  0  0  0  0  0
  147.4695  132.1692  153.9587 O   0  0  0  0  0  0  0  0  0  0  0  0
  147.2013  134.1295  152.8555 N   0  0  0  0  0  0  0  0  0  0  0  0
  145.8051  133.9621  152.4784 C   0  0  0  0  0  0  0  0  0  0  0  0
  145.6522  132.8139  151.4677 C   0  0  2  0  0  0  0  0  0  0  0  0
  146.3841  133.0226  150.1556 C   0  0  0  0  0  0  0  0  0  0  0  0
  145.6766  132.0289  149.2394 C   0  0  0  0  0  0  0  0  0  0  0  0
  144.3394  131.9331  149.7232 O   0  0  0  0  0  0  0  0  0  0  0  0
  144.2213  132.6030  150.9751 C   0  0  0  0  0  0  0  0  0  0  0  0
  150.2789  135.7686  155.8213 H   0  0  0  0  0  0  0  0  0  0  0  0
  150.8515  135.4572  157.4532 H   0  0  0  0  0  0  0  0  0  0  0  0
  149.1215  135.5225  157.1252 H   0  0  0  0  0  0  0  0  0  0  0  0
  149.9637  130.6201  153.7220 H   0  0  0  0  0  0  0  0  0  0  0  0
  148.7210  130.0922  154.8576 H   0  0  0  0  0  0  0  0  0  0  0  0
  150.4150  129.6882  155.1476 H   0  0  0  0  0  0  0  0  0  0  0  0
  149.4112  134.7448  153.9382 H   0  0  0  0  0  0  0  0  0  0  0  0
  150.0121  133.3352  153.1084 H   0  0  0  0  0  0  0  0  0  0  0  0
  147.6496  134.9911  152.5797 H   0  0  0  0  0  0  0  0  0  0  0  0
  145.2162  133.7558  153.3731 H   0  0  0  0  0  0  0  0  0  0  0  0
  145.4249  134.8917  152.0507 H   0  0  0  0  0  0  0  0  0  0  0  0
  146.0032  131.8838  151.9185 H   0  0  0  0  0  0  0  0  0  0  0  0
  146.2328  134.0403  149.7928 H   0  0  0  0  0  0  0  0  0  0  0  0
  147.4572  132.8421  150.2258 H   0  0  0  0  0  0  0  0  0  0  0  0
  145.7019  132.3366  148.1939 H   0  0  0  0  0  0  0  0  0  0  0  0
  146.1427  131.0457  149.3141 H   0  0  0  0  0  0  0  0  0  0  0  0
  143.6178  132.0286  151.6783 H   0  0  0  0  0  0  0  0  0  0  0  0
  143.7242  133.5595  150.8064 H   0  0  0  0  0  0  0  0  0  0  0  0
  1  2  1  0  0  0  0
  1 18  1  0  0  0  0
  1 19  1  0  0  0  0
  1 20  1  0  0  0  0
  2  7  1  0  0  0  0
  2  3  2  0  0  0  0
  3  4  1  0  0  0  0
  4  5  1  0  0  0  0
  5  6  1  0  0  0  0
  5  7  2  0  0  0  0
  6 21  1  0  0  0  0
  6 22  1  0  0  0  0
  6 23  1  0  0  0  0
  7  8  1  0  0  0  0
  8  9  1  0  0  0  0
  8 24  1  0  0  0  0
  8 25  1  0  0  0  0
  9 10  2  0  0  0  0
  9 11  1  0  0  0  0
 11 12  1  0  0  0  0
 11 26  1  0  0  0  0
 12 13  1  0  0  0  0
 12 27  1  0  0  0  0
 12 28  1  0  0  0  0
 13 17  1  0  0  0  0
 13 14  1  0  0  0  0
 13 29  1  0  0  0  0
 14 15  1  0  0  0  0
 14 30  1  0  0  0  0
 14 31  1  0  0  0  0
 15 16  1  0  0  0  0
 15 32  1  0  0  0  0
 15 33  1  0  0  0  0
 16 17  1  0  0  0  0
 17 34  1  0  0  0  0
 17 35  1  0  0  0  0
M  END
> <s_m_source_file>
AV-unprocessed.smi

> <i_m_source_file_index>
568

> <i_lp_mmshare_version>
43012

> <i_f3d_flags>
0

> <s_epik_input>
W0NIM11jMW5vYyhbQ0gzXSljMVtDSDJdQyg9TylbTkhdW0NIMl1bQ0BASF0yW0NIMl1bQ0gyXU9bQ0gyXTI=

> <s_epik_cmdline>
J2VwaWtfcHl0aG9uJywgJy1waCcsICc3LjAnLCAnLXRuJywgJzgnLCAnLW1hJywgJzIwMCcsICctbWV0YWxfYmluZGluZycsICctaW1hZScsICc8aW5maWxlLm1hZT4nLCAnLW9tYWUnLCAnPG91dGZpbGUubWFlPic=

> <r_lp_tautomer_probability>
1

> <r_epik_Ionization_Penalty>
2.07075e-08

> <r_epik_Ionization_Penalty_Charging>
0

> <r_epik_Ionization_Penalty_Neutral>
2.07075e-08

> <r_epik_State_Penalty>
-0

> <r_epik_Charging_Adjusted_Penalty>
0

> <i_epik_Tot_Q>
0

> <i_epik_Tot_abs_Q>
0

> <r_epik_Metal_State_Penalty>
-0

> <b_epik_Metal_Only>
0

> <s_lp_Force_Field>
OPLS_2005

> <r_lp_Energy>
12.0647

> <b_lp_Chiralities_Consistent>
1

> <s_lp_Variant>
AV-unprocessed.smi:568-1

> <Gold.Version>
5.8.1

> <Gold.Id.Protein>
6NUR|6NUR_protein|mol2

> <Gold.PLP.Fitness>
36.4109

> <Gold.PLP.PLP>
-30.9001

> <Gold.PLP.part.hbond>
-2.8214

> <Gold.PLP.part.metal>
0.0000

> <Gold.PLP.part.buried>
-4.7432

> <Gold.PLP.part.nonpolar>
-24.1613

> <Gold.PLP.part.repulsive>
0.2068

> <Gold.PLP.ligand.clash>
0.0000

> <Gold.PLP.ligand.torsion>
0.4327

> <Gold.PLP.Chemscore.Hbond>
2.1217

> <Gold.PLP.Chemscore.CHOScore>
0.0000

> <Gold.PLP.Chemscore.Metal>
0.0000

> <Gold.Chemscore.Hbonds>
donor molecule, donor type, donor heavy atom, donor atom, acceptor molecule, acceptor atom, score
      L1  H    11    26       P1  7948  1.00
      P1  H  6896  6907       L1     3  0.89
      P1  H 10785 10796       L1    16  0.15

> <Gold.PLP.Chemscore.Internal.Correction>
0.0111

> <Gold.Rescore>
     Score         DG    S(hbond)    S(metal)    S(lipo)     H(rot)  DE(clash)    DE(int)     intcor
     15.12     -15.75       1.93        0.00      66.76       1.56       0.00       0.63       ----

> <Gold.Chemscore.Fitness>
15.1153

> <Gold.Chemscore.DG>
-15.7454

> <Gold.Chemscore.ZeroCoef>
-5.4800

> <Gold.Chemscore.Hbond>
1.9267

> <Gold.Chemscore.Metal>
0.0000

> <Gold.Chemscore.Lipo>
66.7618

> <Gold.Chemscore.Internal_Hbond>
0.0000

> <Gold.Chemscore.DEClash>
0.0000

> <Gold.Chemscore.DEInternal>
0.6301

> <Gold.Chemscore.Rot>
1.5551

> <Gold.Chemscore.Internal.Correction>
   9.000000E+99

> <Gold.Chemscore.Hbonds>
donor molecule, donor type, donor heavy atom, donor atom, acceptor molecule, acceptor atom, score
      L1  H    11    26       P1  7948  0.97
      P1  H  6896  6907       L1     3  0.82
      P1  H 10785 10796       L1    16  0.12

> <Gold.Chemscore.Hbond.Weighted>
-6.4352

> <Gold.Chemscore.Metal.Weighted>
-0.0000

> <Gold.Chemscore.Lipo.Weighted>
-7.8111

> <Gold.Chemscore.Internal_Hbond.Weighted>
0.0000

> <Gold.Chemscore.DEClash.Weighted>
0.0000

> <Gold.Chemscore.DEInternal.Weighted>
0.6301

> <Gold.Chemscore.Rot.Weighted>
3.9809

> <Gold.Chemscore.Internal.Correction.Weighted>
   9.000000E+99

> <Gold.Protein.RotatedTorsions>
[ 6907 6896 6895 6894 ] final -158.45 input  -60.11 | X-H torsion
[ 7974 7965 7964 7962 ] final  -42.99 input  175.53 | X-H torsion
[ 8008 7997 7996 7995 ] final   79.41 input   59.86 | X-H torsion
[ 10167 10162 10161 10158 ] final   -7.54 input  -65.29 | X-H torsion
[ 10718 10713 10712 10709 ] final   76.35 input   66.30 | X-H torsion
[ 10763 10752 10751 10750 ] final -122.98 input  -60.55 | X-H torsion
[ 11005 11000 10999 10996 ] final  -24.82 input  -57.11 | X-H torsion

> <Gold.Protein.ActiveResidues>
 VAL166  LYS551  ARG553  GLY616  TRP617  ASP618  TYR619  PRO620  LYS621  CYS622 
 ASP623  PHE694  ASN695  SER759  ASP760  ASP761  ALA762  ILE779  LEU786  VAL792 
 PHE793  MET794  SER795  GLU796  ALA797  LYS798  CYS799  TRP800  GLU811  SER814 

> <Gold.Protein.RotatedAtoms>
  151.3183  133.4051  159.2652 H   0  0  0  0  0  0  0  0  0  0  0  0  # atno 6907 bound_to 6896
  151.0056  134.9357  159.7988 H   0  0  0  0  0  0  0  0  0  0  0  0  # atno 6908 bound_to 6896
  152.5287  134.3148  159.9179 H   0  0  0  0  0  0  0  0  0  0  0  0  # atno 6909 bound_to 6896
  146.0063  140.7016  142.9246 H   0  0  0  0  0  0  0  0  0  0  0  0  # atno 7974 bound_to 7965
  155.8693  140.3450  155.5810 H   0  0  0  0  0  0  0  0  0  0  0  0  # atno 8008 bound_to 7997
  155.7846  140.0863  157.2060 H   0  0  0  0  0  0  0  0  0  0  0  0  # atno 8009 bound_to 7997
  154.4016  140.1494  156.3079 H   0  0  0  0  0  0  0  0  0  0  0  0  # atno 8010 bound_to 7997
  140.7032  143.6069  150.8742 H   0  0  0  0  0  0  0  0  0  0  0  0  # atno 10167 bound_to 10162
  157.6670  130.9770  150.1485 H   0  0  0  0  0  0  0  0  0  0  0  0  # atno 10718 bound_to 10713
  154.8699  135.4114  154.2869 H   0  0  0  0  0  0  0  0  0  0  0  0  # atno 10763 bound_to 10752
  153.3752  135.7009  153.6613 H   0  0  0  0  0  0  0  0  0  0  0  0  # atno 10764 bound_to 10752
  153.5458  135.3639  155.2710 H   0  0  0  0  0  0  0  0  0  0  0  0  # atno 10765 bound_to 10752
  140.8880  133.7608  156.0385 H   0  0  0  0  0  0  0  0  0  0  0  0  # atno 11005 bound_to 11000
  144.6937  140.3320  143.7214 LP  0  0  0  0  0  0  0  0  0  0  0  0  # atno 17320 bound_to 7965
  145.7411  139.1764  143.2375 LP  0  0  0  0  0  0  0  0  0  0  0  0  # atno 17321 bound_to 7965
  139.9792  143.5970  152.2948 LP  0  0  0  0  0  0  0  0  0  0  0  0  # atno 17342 bound_to 10162
  139.6585  144.7662  151.2009 LP  0  0  0  0  0  0  0  0  0  0  0  0  # atno 17343 bound_to 10162
  156.2290  130.3680  149.8467 LP  0  0  0  0  0  0  0  0  0  0  0  0  # atno 17370 bound_to 10713
  156.6299  130.8661  151.3493 LP  0  0  0  0  0  0  0  0  0  0  0  0  # atno 17371 bound_to 10713
  140.8381  134.3099  157.5324 LP  0  0  0  0  0  0  0  0  0  0  0  0  # atno 17394 bound_to 11000
  139.8726  134.9401  156.3759 LP  0  0  0  0  0  0  0  0  0  0  0  0  # atno 17395 bound_to 11000

$$$$
