AV-unprocessed.smi:1088|AV-procd|sdf|4733|dock1
  -GOLD-   22720 3263D 1   1.00000     0.00000
 Structure written by MMmdl.
 47 48  0  0  0  0  0  0  0  0  1 V2000
  152.5891  142.9698  159.2775 C   0  0  0  0  0  0  0  0  0  0  0  0
  151.7699  143.4177  158.2123 O   0  0  0  0  0  0  0  0  0  0  0  0
  150.7664  142.4773  157.8650 C   0  0  0  0  0  0  0  0  0  0  0  0
  151.4042  141.2105  157.2730 C   0  0  0  0  0  0  0  0  0  0  0  0
  150.5188  140.3981  156.4349 N   0  0  0  0  0  0  0  0  0  0  0  0
  149.9965  141.1251  155.2898 C   0  0  0  0  0  0  0  0  0  0  0  0
  149.4812  140.0734  154.3061 C   0  0  0  0  0  0  0  0  0  0  0  0
  150.1947  138.7863  154.7356 C   0  0  0  0  0  0  0  0  0  0  0  0
  151.1679  139.2358  155.8347 C   0  0  2  0  0  0  0  0  0  0  0  0
  151.5033  138.0819  156.8033 C   0  0  0  0  0  0  0  0  0  0  0  0
  150.3366  137.2434  157.0544 N   0  0  0  0  0  0  0  0  0  0  0  0
  150.0193  136.6807  158.2294 C   0  0  0  0  0  0  0  0  0  0  0  0
  150.6617  136.8590  159.2648 O   0  0  0  0  0  0  0  0  0  0  0  0
  148.7738  135.7851  158.2303 C   0  0  0  0  0  0  0  0  0  0  0  0
  148.3561  135.3988  159.5839 N   0  0  0  0  0  0  0  0  0  0  0  0
  148.1818  134.0621  159.8922 C   0  0  0  0  0  0  0  0  0  0  0  0
  147.7804  133.6240  161.1054 C   0  0  0  0  0  0  0  0  0  0  0  0
  147.5039  134.5620  162.1866 C   0  0  0  0  0  0  0  0  0  0  0  0
  147.1138  134.2072  163.2996 O   0  0  0  0  0  0  0  0  0  0  0  0
  147.7075  135.9218  161.8503 N   0  0  0  0  0  0  0  0  0  0  0  0
  147.4373  136.9273  162.8572 C   0  0  0  0  0  0  0  0  0  0  0  0
  148.1117  136.3750  160.5743 C   0  0  0  0  0  0  0  0  0  0  0  0
  148.2429  137.5750  160.3191 O   0  0  0  0  0  0  0  0  0  0  0  0
  153.3453  143.7229  159.4992 H   0  0  0  0  0  0  0  0  0  0  0  0
  153.1027  142.0431  159.0187 H   0  0  0  0  0  0  0  0  0  0  0  0
  152.0028  142.8055  160.1822 H   0  0  0  0  0  0  0  0  0  0  0  0
  150.2069  142.2097  158.7628 H   0  0  0  0  0  0  0  0  0  0  0  0
  150.0559  142.9089  157.1582 H   0  0  0  0  0  0  0  0  0  0  0  0
  152.3146  141.4693  156.7307 H   0  0  0  0  0  0  0  0  0  0  0  0
  151.7199  140.6097  158.1227 H   0  0  0  0  0  0  0  0  0  0  0  0
  149.2125  141.8243  155.5815 H   0  0  0  0  0  0  0  0  0  0  0  0
  150.7951  141.6988  154.8160 H   0  0  0  0  0  0  0  0  0  0  0  0
  148.4001  139.9560  154.3887 H   0  0  0  0  0  0  0  0  0  0  0  0
  149.7131  140.3485  153.2769 H   0  0  0  0  0  0  0  0  0  0  0  0
  149.4639  138.0794  155.1321 H   0  0  0  0  0  0  0  0  0  0  0  0
  150.7111  138.3009  153.9069 H   0  0  0  0  0  0  0  0  0  0  0  0
  152.0834  139.5594  155.3349 H   0  0  0  0  0  0  0  0  0  0  0  0
  152.3563  137.5119  156.4308 H   0  0  0  0  0  0  0  0  0  0  0  0
  151.8043  138.4889  157.7693 H   0  0  0  0  0  0  0  0  0  0  0  0
  149.7447  137.0432  156.2613 H   0  0  0  0  0  0  0  0  0  0  0  0
  147.9689  136.3230  157.7279 H   0  0  0  0  0  0  0  0  0  0  0  0
  148.9526  134.8918  157.6287 H   0  0  0  0  0  0  0  0  0  0  0  0
  148.3687  133.3271  159.1229 H   0  0  0  0  0  0  0  0  0  0  0  0
  147.6577  132.5646  161.2772 H   0  0  0  0  0  0  0  0  0  0  0  0
  148.1752  137.7262  162.7658 H   0  0  0  0  0  0  0  0  0  0  0  0
  147.5287  136.4967  163.8549 H   0  0  0  0  0  0  0  0  0  0  0  0
  146.4261  137.2941  162.6746 H   0  0  0  0  0  0  0  0  0  0  0  0
  1  2  1  0  0  0  0
  1 24  1  0  0  0  0
  1 25  1  0  0  0  0
  1 26  1  0  0  0  0
  2  3  1  0  0  0  0
  3  4  1  0  0  0  0
  3 27  1  0  0  0  0
  3 28  1  0  0  0  0
  4  5  1  0  0  0  0
  4 29  1  0  0  0  0
  4 30  1  0  0  0  0
  5  9  1  0  0  0  0
  5  6  1  0  0  0  0
  6  7  1  0  0  0  0
  6 31  1  0  0  0  0
  6 32  1  0  0  0  0
  7  8  1  0  0  0  0
  7 33  1  0  0  0  0
  7 34  1  0  0  0  0
  8  9  1  0  0  0  0
  8 35  1  0  0  0  0
  8 36  1  0  0  0  0
  9 10  1  0  0  0  0
  9 37  1  0  0  0  0
 10 11  1  0  0  0  0
 10 38  1  0  0  0  0
 10 39  1  0  0  0  0
 11 12  1  0  0  0  0
 11 40  1  0  0  0  0
 12 13  2  0  0  0  0
 12 14  1  0  0  0  0
 14 15  1  0  0  0  0
 14 41  1  0  0  0  0
 14 42  1  0  0  0  0
 15 22  1  0  0  0  0
 15 16  1  0  0  0  0
 16 17  2  0  0  0  0
 16 43  1  0  0  0  0
 17 18  1  0  0  0  0
 17 44  1  0  0  0  0
 18 19  2  0  0  0  0
 18 20  1  0  0  0  0
 20 21  1  0  0  0  0
 20 22  1  0  0  0  0
 21 45  1  0  0  0  0
 21 46  1  0  0  0  0
 21 47  1  0  0  0  0
 22 23  2  0  0  0  0
M  END
> <s_m_source_file>
AV-unprocessed.smi

> <i_m_source_file_index>
1088

> <i_lp_mmshare_version>
43012

> <i_f3d_flags>
0

> <s_epik_input>
W0NIM11PW0NIMl1bQ0gyXU4xW0NIMl1bQ0gyXVtDSDJdW0NASF0xW0NIMl1bTkhdQyg9TylbQ0gyXW4yW2NIXVtjSF1jKD1PKW4oW0NIM10pYzI9Tw==

> <s_epik_cmdline>
J2VwaWtfcHl0aG9uJywgJy1waCcsICc3LjAnLCAnLXRuJywgJzgnLCAnLW1hJywgJzIwMCcsICctbWV0YWxfYmluZGluZycsICctaW1hZScsICc8aW5maWxlLm1hZT4nLCAnLW9tYWUnLCAnPG91dGZpbGUubWFlPic=

> <r_lp_tautomer_probability>
1

> <r_epik_Ionization_Penalty>
2.28131

> <r_epik_Ionization_Penalty_Charging>
1.22971e-08

> <r_epik_Ionization_Penalty_Neutral>
2.28131

> <r_epik_State_Penalty>
2.43063

> <r_epik_Charging_Adjusted_Penalty>
2.43063

> <i_epik_Tot_Q>
0

> <i_epik_Tot_abs_Q>
0

> <r_epik_Metal_State_Penalty>
2.43056

> <b_epik_Metal_Only>
0

> <s_lp_Force_Field>
OPLS_2005

> <r_lp_Energy>
54.0247

> <b_lp_Chiralities_Consistent>
1

> <s_lp_Variant>
AV-unprocessed.smi:1088-6

> <Gold.Version>
5.8.1

> <Gold.Id.Protein>
6NUR|6NUR_protein|mol2

> <Gold.PLP.Fitness>
46.6309

> <Gold.PLP.PLP>
-41.1229

> <Gold.PLP.part.hbond>
-4.0000

> <Gold.PLP.part.metal>
0.0000

> <Gold.PLP.part.buried>
-3.2974

> <Gold.PLP.part.nonpolar>
-33.5728

> <Gold.PLP.part.repulsive>
0.0863

> <Gold.PLP.ligand.clash>
0.0000

> <Gold.PLP.ligand.torsion>
0.6299

> <Gold.PLP.Chemscore.Hbond>
2.1360

> <Gold.PLP.Chemscore.CHOScore>
0.0000

> <Gold.PLP.Chemscore.Metal>
0.0000

> <Gold.Chemscore.Hbonds>
donor molecule, donor type, donor heavy atom, donor atom, acceptor molecule, acceptor atom, score
      P1  H  6896  6908       L1    13  0.85
      P1  H  6931  6943       L1    23  0.51
      P1  H  6934  6947       L1    23  0.53

> <Gold.PLP.Chemscore.Internal.Correction>
0.3597

> <Gold.Rescore>
     Score         DG    S(hbond)    S(metal)    S(lipo)     H(rot)  DE(clash)    DE(int)     intcor
     15.47     -16.21       2.45        0.00      76.42       2.49       0.17       0.56       ----

> <Gold.Chemscore.Fitness>
15.4724

> <Gold.Chemscore.DG>
-16.2100

> <Gold.Chemscore.ZeroCoef>
-5.4800

> <Gold.Chemscore.Hbond>
2.4472

> <Gold.Chemscore.Metal>
0.0000

> <Gold.Chemscore.Lipo>
76.4156

> <Gold.Chemscore.Internal_Hbond>
0.0000

> <Gold.Chemscore.DEClash>
0.1730

> <Gold.Chemscore.DEInternal>
0.5647

> <Gold.Chemscore.Rot>
2.4938

> <Gold.Chemscore.Internal.Correction>
   9.000000E+99

> <Gold.Chemscore.Hbonds>
donor molecule, donor type, donor heavy atom, donor atom, acceptor molecule, acceptor atom, score
      P1  H  6896  6908       L1    13  0.13
      P1  H  6931  6943       L1    23  0.23
      P1  H  6934  6947       L1    23  0.54

> <Gold.Chemscore.Hbond.Weighted>
-8.1735

> <Gold.Chemscore.Metal.Weighted>
-0.0000

> <Gold.Chemscore.Lipo.Weighted>
-8.9406

> <Gold.Chemscore.Internal_Hbond.Weighted>
0.0000

> <Gold.Chemscore.DEClash.Weighted>
0.1730

> <Gold.Chemscore.DEInternal.Weighted>
0.5647

> <Gold.Chemscore.Rot.Weighted>
6.3841

> <Gold.Chemscore.Internal.Correction.Weighted>
   9.000000E+99

> <Gold.Protein.RotatedTorsions>
[ 6907 6896 6895 6894 ] final -164.64 input  -60.11 | X-H torsion
[ 7974 7965 7964 7962 ] final -104.88 input  175.53 | X-H torsion
[ 8008 7997 7996 7995 ] final  153.70 input   59.86 | X-H torsion
[ 10167 10162 10161 10158 ] final   65.68 input  -65.29 | X-H torsion
[ 10718 10713 10712 10709 ] final  -52.47 input   66.30 | X-H torsion
[ 10763 10752 10751 10750 ] final   85.93 input  -60.55 | X-H torsion
[ 11005 11000 10999 10996 ] final  -34.58 input  -57.11 | X-H torsion

> <Gold.Protein.ActiveResidues>
 VAL166  LYS551  ARG553  GLY616  TRP617  ASP618  TYR619  PRO620  LYS621  CYS622 
 ASP623  PHE694  ASN695  SER759  ASP760  ASP761  ALA762  ILE779  LEU786  VAL792 
 PHE793  MET794  SER795  GLU796  ALA797  LYS798  CYS799  TRP800  GLU811  SER814 

> <Gold.Protein.RotatedAtoms>
  151.4150  133.3715  159.2748 H   0  0  0  0  0  0  0  0  0  0  0  0  # atno 6907 bound_to 6896
  150.9335  134.8750  159.7577 H   0  0  0  0  0  0  0  0  0  0  0  0  # atno 6908 bound_to 6896
  152.5039  134.4096  159.9496 H   0  0  0  0  0  0  0  0  0  0  0  0  # atno 6909 bound_to 6896
  145.2375  140.9193  143.3169 H   0  0  0  0  0  0  0  0  0  0  0  0  # atno 7974 bound_to 7965
  156.2568  140.1986  156.6531 H   0  0  0  0  0  0  0  0  0  0  0  0  # atno 8008 bound_to 7997
  154.6521  140.0570  156.9992 H   0  0  0  0  0  0  0  0  0  0  0  0  # atno 8009 bound_to 7997
  155.1402  140.3242  155.4456 H   0  0  0  0  0  0  0  0  0  0  0  0  # atno 8010 bound_to 7997
  140.1087  144.4838  150.6991 H   0  0  0  0  0  0  0  0  0  0  0  0  # atno 10167 bound_to 10162
  156.1619  130.4149  149.9780 H   0  0  0  0  0  0  0  0  0  0  0  0  # atno 10718 bound_to 10713
  153.1521  135.4599  154.9652 H   0  0  0  0  0  0  0  0  0  0  0  0  # atno 10763 bound_to 10752
  154.7833  135.3195  154.7944 H   0  0  0  0  0  0  0  0  0  0  0  0  # atno 10764 bound_to 10752
  153.8448  135.6927  153.4853 H   0  0  0  0  0  0  0  0  0  0  0  0  # atno 10765 bound_to 10752
  140.9728  133.7100  156.1552 H   0  0  0  0  0  0  0  0  0  0  0  0  # atno 11005 bound_to 11000
  144.9619  139.3970  143.6351 LP  0  0  0  0  0  0  0  0  0  0  0  0  # atno 17320 bound_to 7965
  146.3337  139.8677  142.8845 LP  0  0  0  0  0  0  0  0  0  0  0  0  # atno 17321 bound_to 7965
  140.6938  143.2391  151.5058 LP  0  0  0  0  0  0  0  0  0  0  0  0  # atno 17342 bound_to 10162
  139.5631  144.2108  152.1723 LP  0  0  0  0  0  0  0  0  0  0  0  0  # atno 17343 bound_to 10162
  156.7606  130.9149  151.3641 LP  0  0  0  0  0  0  0  0  0  0  0  0  # atno 17370 bound_to 10713
  157.6739  130.9076  150.0104 LP  0  0  0  0  0  0  0  0  0  0  0  0  # atno 17371 bound_to 10713
  140.7304  134.4261  157.5566 LP  0  0  0  0  0  0  0  0  0  0  0  0  # atno 17394 bound_to 11000
  139.8919  134.8769  156.2299 LP  0  0  0  0  0  0  0  0  0  0  0  0  # atno 17395 bound_to 11000

$$$$
