AV-unprocessed.smi:1824|AV-procd|sdf|7404|dock9
  -GOLD-   22720 9 73D 1   1.00000     0.00000
 Structure written by MMmdl.
 45 47  0  0  0  0  0  0  0  0  2 V2000
  149.2044  138.2660  154.3935 C   0  0  0  0  0  0  0  0  0  0  0  0
  147.8051  138.0623  155.0013 C   0  0  1  0  0  0  0  0  0  0  0  0
  146.6663  138.1257  153.9639 C   0  0  0  0  0  0  0  0  0  0  0  0
  146.6396  136.9047  153.1246 N   0  3  2  0  0  0  0  0  0  0  0  0
  145.6018  136.9632  152.0636 C   0  0  0  0  0  0  0  0  0  0  0  0
  145.5047  135.6512  151.2603 C   0  0  2  0  0  0  0  0  0  0  0  0
  145.5151  135.9621  149.8793 O   0  0  0  0  0  0  0  0  0  0  0  0
  144.2228  134.8663  151.6004 C   0  0  0  0  0  0  0  0  0  0  0  0
  144.2881  133.4791  151.1745 N   0  0  0  0  0  0  0  0  0  0  0  0
  143.6169  132.9131  150.1529 C   0  0  0  0  0  0  0  0  0  0  0  0
  143.8235  131.6184  149.9307 N   0  0  0  0  0  0  0  0  0  0  0  0
  144.7370  131.3061  150.9228 C   0  0  0  0  0  0  0  0  0  0  0  0
  145.3675  130.0808  151.2366 C   0  0  0  0  0  0  0  0  0  0  0  0
  146.2785  129.9999  152.3103 C   0  0  0  0  0  0  0  0  0  0  0  0
  146.8752  128.8183  152.5965 F   0  0  0  0  0  0  0  0  0  0  0  0
  146.5711  131.1411  153.0863 C   0  0  0  0  0  0  0  0  0  0  0  0
  147.4456  131.0548  154.1165 F   0  0  0  0  0  0  0  0  0  0  0  0
  145.9549  132.3728  152.7929 C   0  0  0  0  0  0  0  0  0  0  0  0
  145.0484  132.4493  151.7193 C   0  0  0  0  0  0  0  0  0  0  0  0
  146.5490  135.6964  153.9790 C   0  0  0  0  0  0  0  0  0  0  0  0
  147.7184  135.6598  154.9792 C   0  0  2  0  0  0  0  0  0  0  0  0
  147.6159  134.4717  155.9417 C   0  0  0  0  0  0  0  0  0  0  0  0
  147.7154  136.8543  155.7566 O   0  0  0  0  0  0  0  0  0  0  0  0
  149.2885  139.2533  153.9388 H   0  0  0  0  0  0  0  0  0  0  0  0
  149.4318  137.5340  153.6189 H   0  0  0  0  0  0  0  0  0  0  0  0
  149.9754  138.1913  155.1609 H   0  0  0  0  0  0  0  0  0  0  0  0
  147.6510  138.8743  155.7127 H   0  0  0  0  0  0  0  0  0  0  0  0
  145.7075  138.2249  154.4755 H   0  0  0  0  0  0  0  0  0  0  0  0
  146.7840  139.0117  153.3386 H   0  0  0  0  0  0  0  0  0  0  0  0
  144.6399  137.2091  152.5162 H   0  0  0  0  0  0  0  0  0  0  0  0
  145.8262  137.7766  151.3715 H   0  0  0  0  0  0  0  0  0  0  0  0
  146.3639  135.0144  151.4695 H   0  0  0  0  0  0  0  0  0  0  0  0
  145.1657  136.8325  149.7610 H   0  0  0  0  0  0  0  0  0  0  0  0
  144.0464  134.8829  152.6767 H   0  0  0  0  0  0  0  0  0  0  0  0
  143.3528  135.3338  151.1373 H   0  0  0  0  0  0  0  0  0  0  0  0
  142.9366  133.4843  149.5380 H   0  0  0  0  0  0  0  0  0  0  0  0
  145.1507  129.2002  150.6505 H   0  0  0  0  0  0  0  0  0  0  0  0
  146.1782  133.2464  153.3865 H   0  0  0  0  0  0  0  0  0  0  0  0
  145.5964  135.6968  154.5116 H   0  0  0  0  0  0  0  0  0  0  0  0
  146.5702  134.7950  153.3675 H   0  0  0  0  0  0  0  0  0  0  0  0
  148.6605  135.5734  154.4378 H   0  0  0  0  0  0  0  0  0  0  0  0
  147.6170  133.5257  155.3997 H   0  0  0  0  0  0  0  0  0  0  0  0
  146.7008  134.5189  156.5329 H   0  0  0  0  0  0  0  0  0  0  0  0
  148.4586  134.4580  156.6334 H   0  0  0  0  0  0  0  0  0  0  0  0
  147.5306  136.8686  152.6492 H   0  0  0  0  0  0  0  0  0  0  0  0
  1  2  1  0  0  0  0
  1 24  1  0  0  0  0
  1 25  1  0  0  0  0
  1 26  1  0  0  0  0
  2 23  1  0  0  0  0
  2  3  1  0  0  0  0
  2 27  1  0  0  0  0
  3  4  1  0  0  0  0
  3 28  1  0  0  0  0
  3 29  1  0  0  0  0
  4  5  1  0  0  0  0
  4 20  1  0  0  0  0
  4 45  1  0  0  0  0
  5  6  1  0  0  0  0
  5 30  1  0  0  0  0
  5 31  1  0  0  0  0
  6  7  1  0  0  0  0
  6  8  1  0  0  0  0
  6 32  1  0  0  0  0
  7 33  1  0  0  0  0
  8  9  1  0  0  0  0
  8 34  1  0  0  0  0
  8 35  1  0  0  0  0
  9 19  1  0  0  0  0
  9 10  1  0  0  0  0
 10 11  2  0  0  0  0
 10 36  1  0  0  0  0
 11 12  1  0  0  0  0
 12 19  2  0  0  0  0
 12 13  1  0  0  0  0
 13 14  2  0  0  0  0
 13 37  1  0  0  0  0
 14 15  1  0  0  0  0
 14 16  1  0  0  0  0
 16 17  1  0  0  0  0
 16 18  2  0  0  0  0
 18 19  1  0  0  0  0
 18 38  1  0  0  0  0
 20 21  1  0  0  0  0
 20 39  1  0  0  0  0
 20 40  1  0  0  0  0
 21 22  1  0  0  0  0
 21 23  1  0  0  0  0
 21 41  1  0  0  0  0
 22 42  1  0  0  0  0
 22 43  1  0  0  0  0
 22 44  1  0  0  0  0
M  CHG  1   4   1
M  END
> <s_m_source_file>
AV-unprocessed.smi

> <i_m_source_file_index>
1824

> <i_lp_mmshare_version>
43012

> <i_f3d_flags>
0

> <s_epik_input>
W0NIM11bQ0BASF0xW0NIMl1OKFtDSDJdW0NASF0oTzEpW0NIM10pW0NIMl1bQ0BIXShbT0hdKVtDSDJdbihbY0hdbjIpYyhjMjMpW2NIXWMoRiljKEYpW2NIXTM=

> <s_epik_cmdline>
J2VwaWtfcHl0aG9uJywgJy1waCcsICc3LjAnLCAnLXRuJywgJzgnLCAnLW1hJywgJzIwMCcsICctbWV0YWxfYmluZGluZycsICctaW1hZScsICc8aW5maWxlLm1hZT4nLCAnLW9tYWUnLCAnPG91dGZpbGUubWFlPic=

> <r_epik_Ionization_Penalty>
0.61967

> <r_epik_Ionization_Penalty_Charging>
0.608065

> <r_epik_Ionization_Penalty_Neutral>
0.0116057

> <r_epik_State_Penalty>
0.664205

> <r_epik_Charging_Adjusted_Penalty>
1.27227

> <i_epik_Tot_Q>
1

> <i_epik_Tot_abs_Q>
1

> <r_epik_Metal_State_Penalty>
0.654947

> <b_epik_Metal_Only>
0

> <s_lp_Force_Field>
OPLS_2005

> <r_lp_Energy>
23.1423

> <b_lp_Chiralities_Consistent>
1

> <s_lp_Variant>
AV-unprocessed.smi:1824-12

> <Gold.Version>
5.8.1

> <Gold.Id.Protein>
6NUR|6NUR_protein|mol2

> <Gold.PLP.Fitness>
47.2458

> <Gold.PLP.PLP>
-34.5448

> <Gold.PLP.part.hbond>
-4.0000

> <Gold.PLP.part.metal>
0.0000

> <Gold.PLP.part.buried>
-4.8548

> <Gold.PLP.part.nonpolar>
-26.6462

> <Gold.PLP.part.repulsive>
0.2329

> <Gold.PLP.ligand.clash>
0.0000

> <Gold.PLP.ligand.torsion>
0.9720

> <Gold.PLP.Chemscore.Hbond>
3.8480

> <Gold.PLP.Chemscore.CHOScore>
1.0000

> <Gold.PLP.Chemscore.Metal>
0.0000

> <Gold.Chemscore.Hbonds>
donor molecule, donor type, donor heavy atom, donor atom, acceptor molecule, acceptor atom, score
      L1  H     4    45       P1  7948  2.00
      L1  H     7    33       P1 10171  0.68
      P1  H 10785 10796       L1    11  0.82
      L1  C    10    36       P1 10186  1.00

> <Gold.PLP.Chemscore.Internal.Correction>
0.1009

> <Gold.Rescore>
     Score         DG    S(hbond)    S(metal)    S(lipo)     H(rot)  DE(clash)    DE(int)     intcor
     15.29     -16.41       2.32        0.00      78.01       2.33       0.15       0.97       ----

> <Gold.Chemscore.Fitness>
15.2881

> <Gold.Chemscore.DG>
-16.4071

> <Gold.Chemscore.ZeroCoef>
-5.4800

> <Gold.Chemscore.Hbond>
2.3211

> <Gold.Chemscore.Metal>
0.0000

> <Gold.Chemscore.Lipo>
78.0083

> <Gold.Chemscore.Internal_Hbond>
0.0000

> <Gold.Chemscore.DEClash>
0.1504

> <Gold.Chemscore.DEInternal>
0.9686

> <Gold.Chemscore.Rot>
2.3251

> <Gold.Chemscore.Internal.Correction>
   9.000000E+99

> <Gold.Chemscore.Hbonds>
donor molecule, donor type, donor heavy atom, donor atom, acceptor molecule, acceptor atom, score
      L1  H     4    45       P1  7948  1.00
      L1  H     7    33       P1 10171  0.67
      P1  H 10785 10796       L1    11  0.74

> <Gold.Chemscore.Hbond.Weighted>
-7.7524

> <Gold.Chemscore.Metal.Weighted>
-0.0000

> <Gold.Chemscore.Lipo.Weighted>
-9.1270

> <Gold.Chemscore.Internal_Hbond.Weighted>
0.0000

> <Gold.Chemscore.DEClash.Weighted>
0.1504

> <Gold.Chemscore.DEInternal.Weighted>
0.9686

> <Gold.Chemscore.Rot.Weighted>
5.9523

> <Gold.Chemscore.Internal.Correction.Weighted>
   9.000000E+99

> <Gold.Protein.RotatedTorsions>
[ 6907 6896 6895 6894 ] final  -80.42 input  -60.11 | X-H torsion
[ 7974 7965 7964 7962 ] final -150.92 input  175.53 | X-H torsion
[ 8008 7997 7996 7995 ] final  123.05 input   59.86 | X-H torsion
[ 10167 10162 10161 10158 ] final -121.80 input  -65.29 | X-H torsion
[ 10718 10713 10712 10709 ] final  -38.13 input   66.30 | X-H torsion
[ 10763 10752 10751 10750 ] final  123.87 input  -60.55 | X-H torsion
[ 11005 11000 10999 10996 ] final  -66.66 input  -57.11 | X-H torsion

> <Gold.Protein.ActiveResidues>
 VAL166  LYS551  ARG553  GLY616  TRP617  ASP618  TYR619  PRO620  LYS621  CYS622 
 ASP623  PHE694  ASN695  SER759  ASP760  ASP761  ALA762  ILE779  LEU786  VAL792 
 PHE793  MET794  SER795  GLU796  ALA797  LYS798  CYS799  TRP800  GLU811  SER814 

> <Gold.Protein.RotatedAtoms>
  150.6930  134.3973  159.5102 H   0  0  0  0  0  0  0  0  0  0  0  0  # atno 6907 bound_to 6896
  152.1752  134.8798  160.0540 H   0  0  0  0  0  0  0  0  0  0  0  0  # atno 6908 bound_to 6896
  151.9809  133.3722  159.4144 H   0  0  0  0  0  0  0  0  0  0  0  0  # atno 6909 bound_to 6896
  144.7880  140.4868  143.5793 H   0  0  0  0  0  0  0  0  0  0  0  0  # atno 7974 bound_to 7965
  156.2751  140.2772  156.1565 H   0  0  0  0  0  0  0  0  0  0  0  0  # atno 8008 bound_to 7997
  155.0799  140.0387  157.2653 H   0  0  0  0  0  0  0  0  0  0  0  0  # atno 8009 bound_to 7997
  154.6973  140.2641  155.6760 H   0  0  0  0  0  0  0  0  0  0  0  0  # atno 8010 bound_to 7997
  140.0211  143.5343  152.2220 H   0  0  0  0  0  0  0  0  0  0  0  0  # atno 10167 bound_to 10162
  156.3073  130.4248  149.8084 H   0  0  0  0  0  0  0  0  0  0  0  0  # atno 10718 bound_to 10713
  153.6524  135.3360  155.3103 H   0  0  0  0  0  0  0  0  0  0  0  0  # atno 10763 bound_to 10752
  154.8534  135.4344  154.1890 H   0  0  0  0  0  0  0  0  0  0  0  0  # atno 10764 bound_to 10752
  153.2836  135.7011  153.7436 H   0  0  0  0  0  0  0  0  0  0  0  0  # atno 10765 bound_to 10752
  141.1488  133.6703  156.6174 H   0  0  0  0  0  0  0  0  0  0  0  0  # atno 11005 bound_to 11000
  145.5871  139.1493  143.3203 LP  0  0  0  0  0  0  0  0  0  0  0  0  # atno 17320 bound_to 7965
  146.2120  140.5998  142.9055 LP  0  0  0  0  0  0  0  0  0  0  0  0  # atno 17321 bound_to 7965
  139.6139  144.7615  151.2890 LP  0  0  0  0  0  0  0  0  0  0  0  0  # atno 17342 bound_to 10162
  140.7342  143.6773  150.8030 LP  0  0  0  0  0  0  0  0  0  0  0  0  # atno 17343 bound_to 10162
  156.5440  130.8313  151.3278 LP  0  0  0  0  0  0  0  0  0  0  0  0  # atno 17370 bound_to 10713
  157.7382  130.9810  150.2242 LP  0  0  0  0  0  0  0  0  0  0  0  0  # atno 17371 bound_to 10713
  140.3567  134.7722  157.4505 LP  0  0  0  0  0  0  0  0  0  0  0  0  # atno 17394 bound_to 11000
  140.0817  134.5722  155.8533 LP  0  0  0  0  0  0  0  0  0  0  0  0  # atno 17395 bound_to 11000

$$$$
