AV-unprocessed.smi:1780|AV-procd|sdf|7184|dock2
  -GOLD-   22720 8423D 1   1.00000     0.00000
 Structure written by MMmdl.
 43 44  0  0  0  0  0  0  0  0  1 V2000
  144.8264  132.4118  149.0788 C   0  0  0  0  0  0  0  0  0  0  0  0
  143.7497  132.9027  150.0546 C   0  0  0  0  0  0  0  0  0  0  0  0
  144.2617  133.9138  150.9593 N   0  0  0  0  0  0  0  0  0  0  0  0
  145.4745  134.5717  150.9052 C   0  0  0  0  0  0  0  0  0  0  0  0
  145.4813  135.4215  151.9752 C   0  0  0  0  0  0  0  0  0  0  0  0
  146.4811  136.3362  152.3912 N   0  0  0  0  0  0  0  0  0  0  0  0
  146.3471  137.3504  153.2612 C   0  0  0  0  0  0  0  0  0  0  0  0
  145.3007  137.6630  153.8298 O   0  0  0  0  0  0  0  0  0  0  0  0
  147.5096  137.9926  153.4416 N   0  0  0  0  0  0  0  0  0  0  0  0
  147.7109  139.1310  154.3339 C   0  0  0  0  0  0  0  0  0  0  0  0
  148.7373  140.1729  153.7991 C   0  0  1  0  0  0  0  0  0  0  0  0
  148.2114  141.5996  154.1011 C   0  0  0  0  0  0  0  0  0  0  0  0
  150.1111  139.9493  154.3062 N   0  0  0  0  0  0  0  0  0  0  0  0
  150.2711  140.3480  155.7097 C   0  0  0  0  0  0  0  0  0  0  0  0
  151.6899  140.0901  156.2460 C   0  0  0  0  0  0  0  0  0  0  0  0
  152.0215  138.7176  156.0876 O   0  0  0  0  0  0  0  0  0  0  0  0
  151.9544  138.3066  154.7293 C   0  0  0  0  0  0  0  0  0  0  0  0
  150.5364  138.5501  154.1841 C   0  0  0  0  0  0  0  0  0  0  0  0
  144.2399  135.2250  152.6340 C   0  0  0  0  0  0  0  0  0  0  0  0
  143.5092  134.3098  152.0159 N   0  0  0  0  0  0  0  0  0  0  0  0
  144.4305  131.6359  148.4236 H   0  0  0  0  0  0  0  0  0  0  0  0
  145.6804  131.9935  149.6127 H   0  0  0  0  0  0  0  0  0  0  0  0
  145.1897  133.2244  148.4485 H   0  0  0  0  0  0  0  0  0  0  0  0
  142.9014  133.3179  149.5084 H   0  0  0  0  0  0  0  0  0  0  0  0
  143.3692  132.0678  150.6441 H   0  0  0  0  0  0  0  0  0  0  0  0
  146.1983  134.3781  150.1275 H   0  0  0  0  0  0  0  0  0  0  0  0
  147.3966  136.1997  151.9886 H   0  0  0  0  0  0  0  0  0  0  0  0
  148.3179  137.6673  152.9319 H   0  0  0  0  0  0  0  0  0  0  0  0
  146.7444  139.6108  154.4907 H   0  0  0  0  0  0  0  0  0  0  0  0
  148.0113  138.7211  155.2974 H   0  0  0  0  0  0  0  0  0  0  0  0
  148.7639  140.0703  152.7131 H   0  0  0  0  0  0  0  0  0  0  0  0
  147.1857  141.7459  153.7647 H   0  0  0  0  0  0  0  0  0  0  0  0
  148.7861  142.3692  153.5880 H   0  0  0  0  0  0  0  0  0  0  0  0
  148.2395  141.8127  155.1701 H   0  0  0  0  0  0  0  0  0  0  0  0
  150.0772  141.4113  155.8341 H   0  0  0  0  0  0  0  0  0  0  0  0
  149.5468  139.8176  156.3302 H   0  0  0  0  0  0  0  0  0  0  0  0
  152.4191  140.7117  155.7239 H   0  0  0  0  0  0  0  0  0  0  0  0
  151.7477  140.3497  157.3031 H   0  0  0  0  0  0  0  0  0  0  0  0
  152.6943  138.8491  154.1387 H   0  0  0  0  0  0  0  0  0  0  0  0
  152.2077  137.2483  154.6652 H   0  0  0  0  0  0  0  0  0  0  0  0
  149.8316  137.9022  154.7073 H   0  0  0  0  0  0  0  0  0  0  0  0
  150.5395  138.2384  153.1414 H   0  0  0  0  0  0  0  0  0  0  0  0
  143.8526  135.7044  153.5210 H   0  0  0  0  0  0  0  0  0  0  0  0
  1  2  1  0  0  0  0
  1 21  1  0  0  0  0
  1 22  1  0  0  0  0
  1 23  1  0  0  0  0
  2  3  1  0  0  0  0
  2 24  1  0  0  0  0
  2 25  1  0  0  0  0
  3 20  1  0  0  0  0
  3  4  1  0  0  0  0
  4  5  2  0  0  0  0
  4 26  1  0  0  0  0
  5  6  1  0  0  0  0
  5 19  1  0  0  0  0
  6  7  1  0  0  0  0
  6 27  1  0  0  0  0
  7  8  2  0  0  0  0
  7  9  1  0  0  0  0
  9 10  1  0  0  0  0
  9 28  1  0  0  0  0
 10 11  1  0  0  0  0
 10 29  1  0  0  0  0
 10 30  1  0  0  0  0
 11 12  1  0  0  0  0
 11 13  1  0  0  0  0
 11 31  1  0  0  0  0
 12 32  1  0  0  0  0
 12 33  1  0  0  0  0
 12 34  1  0  0  0  0
 13 18  1  0  0  0  0
 13 14  1  0  0  0  0
 14 15  1  0  0  0  0
 14 35  1  0  0  0  0
 14 36  1  0  0  0  0
 15 16  1  0  0  0  0
 15 37  1  0  0  0  0
 15 38  1  0  0  0  0
 16 17  1  0  0  0  0
 17 18  1  0  0  0  0
 17 39  1  0  0  0  0
 17 40  1  0  0  0  0
 18 41  1  0  0  0  0
 18 42  1  0  0  0  0
 19 20  2  0  0  0  0
 19 43  1  0  0  0  0
M  END
> <s_m_source_file>
AV-unprocessed.smi

> <i_m_source_file_index>
1780

> <i_lp_mmshare_version>
43012

> <i_f3d_flags>
0

> <s_epik_input>
W0NIM11bQ0gyXW4xW2NIXWMoW2NIXW4xKVtOSF1DKD1PKVtOSF1bQ0gyXVtDQEhdKFtDSDNdKU4yW0NIMl1bQ0gyXU9bQ0gyXVtDSDJdMg==

> <s_epik_cmdline>
J2VwaWtfcHl0aG9uJywgJy1waCcsICc3LjAnLCAnLXRuJywgJzgnLCAnLW1hJywgJzIwMCcsICctbWV0YWxfYmluZGluZycsICctaW1hZScsICc8aW5maWxlLm1hZT4nLCAnLW9tYWUnLCAnPG91dGZpbGUubWFlPic=

> <r_lp_tautomer_probability>
1

> <r_epik_Ionization_Penalty>
0.242902

> <r_epik_Ionization_Penalty_Charging>
0

> <r_epik_Ionization_Penalty_Neutral>
0.242902

> <r_epik_State_Penalty>
0.233765

> <r_epik_Charging_Adjusted_Penalty>
0.233765

> <i_epik_Tot_Q>
0

> <i_epik_Tot_abs_Q>
0

> <r_epik_Metal_State_Penalty>
0.233759

> <b_epik_Metal_Only>
0

> <s_lp_Force_Field>
OPLS_2005

> <r_lp_Energy>
31.4714

> <b_lp_Chiralities_Consistent>
1

> <s_lp_Variant>
AV-unprocessed.smi:1780-2

> <Gold.Version>
5.8.1

> <Gold.Id.Protein>
6NUR|6NUR_protein|mol2

> <Gold.PLP.Fitness>
43.9517

> <Gold.PLP.PLP>
-34.2431

> <Gold.PLP.part.hbond>
-2.9192

> <Gold.PLP.part.metal>
0.0000

> <Gold.PLP.part.buried>
-1.8491

> <Gold.PLP.part.nonpolar>
-29.7275

> <Gold.PLP.part.repulsive>
0.4733

> <Gold.PLP.ligand.clash>
0.0000

> <Gold.PLP.ligand.torsion>
0.9669

> <Gold.PLP.Chemscore.Hbond>
2.8640

> <Gold.PLP.Chemscore.CHOScore>
0.9957

> <Gold.PLP.Chemscore.Metal>
0.0000

> <Gold.Chemscore.Hbonds>
donor molecule, donor type, donor heavy atom, donor atom, acceptor molecule, acceptor atom, score
      L1  H     6    27       P1  7948  1.00
      L1  H     9    28       P1  7948  0.88
      P1  H  7989  7998       L1    13  1.00
      L1  C     4    26       P1  7921  1.00

> <Gold.PLP.Chemscore.Internal.Correction>
0.0635

> <Gold.Rescore>
     Score         DG    S(hbond)    S(metal)    S(lipo)     H(rot)  DE(clash)    DE(int)     intcor
     14.03     -17.72       1.91        0.00      85.46       1.61       1.60       2.10       ----

> <Gold.Chemscore.Fitness>
14.0288

> <Gold.Chemscore.DG>
-17.7225

> <Gold.Chemscore.ZeroCoef>
-5.4800

> <Gold.Chemscore.Hbond>
1.9070

> <Gold.Chemscore.Metal>
0.0000

> <Gold.Chemscore.Lipo>
85.4635

> <Gold.Chemscore.Internal_Hbond>
0.0000

> <Gold.Chemscore.DEClash>
1.5954

> <Gold.Chemscore.DEInternal>
2.0983

> <Gold.Chemscore.Rot>
1.6117

> <Gold.Chemscore.Internal.Correction>
   9.000000E+99

> <Gold.Chemscore.Hbonds>
donor molecule, donor type, donor heavy atom, donor atom, acceptor molecule, acceptor atom, score
      L1  H     6    27       P1  7948  0.94
      L1  H     9    28       P1  7948  0.86
      P1  H  7989  7998       L1    13  0.09

> <Gold.Chemscore.Hbond.Weighted>
-6.3693

> <Gold.Chemscore.Metal.Weighted>
-0.0000

> <Gold.Chemscore.Lipo.Weighted>
-9.9992

> <Gold.Chemscore.Internal_Hbond.Weighted>
0.0000

> <Gold.Chemscore.DEClash.Weighted>
1.5954

> <Gold.Chemscore.DEInternal.Weighted>
2.0983

> <Gold.Chemscore.Rot.Weighted>
4.1260

> <Gold.Chemscore.Internal.Correction.Weighted>
   9.000000E+99

> <Gold.Protein.RotatedTorsions>
[ 6907 6896 6895 6894 ] final  147.74 input  -60.11 | X-H torsion
[ 7974 7965 7964 7962 ] final  -30.66 input  175.53 | X-H torsion
[ 8008 7997 7996 7995 ] final  118.41 input   59.86 | X-H torsion
[ 10167 10162 10161 10158 ] final  130.94 input  -65.29 | X-H torsion
[ 10718 10713 10712 10709 ] final   58.49 input   66.30 | X-H torsion
[ 10763 10752 10751 10750 ] final   10.80 input  -60.55 | X-H torsion
[ 11005 11000 10999 10996 ] final -160.59 input  -57.11 | X-H torsion

> <Gold.Protein.ActiveResidues>
 VAL166  LYS551  ARG553  GLY616  TRP617  ASP618  TYR619  PRO620  LYS621  CYS622 
 ASP623  PHE694  ASN695  SER759  ASP760  ASP761  ALA762  ILE779  LEU786  VAL792 
 PHE793  MET794  SER795  GLU796  ALA797  LYS798  CYS799  TRP800  GLU811  SER814 

> <Gold.Protein.RotatedAtoms>
  152.1508  133.4521  159.4812 H   0  0  0  0  0  0  0  0  0  0  0  0  # atno 6907 bound_to 6896
  150.6895  134.2191  159.4399 H   0  0  0  0  0  0  0  0  0  0  0  0  # atno 6908 bound_to 6896
  152.0088  134.9887  160.0618 H   0  0  0  0  0  0  0  0  0  0  0  0  # atno 6909 bound_to 6896
  146.1126  140.5568  142.8771 H   0  0  0  0  0  0  0  0  0  0  0  0  # atno 7974 bound_to 7965
  156.2545  140.2875  156.0830 H   0  0  0  0  0  0  0  0  0  0  0  0  # atno 8008 bound_to 7997
  155.1546  140.0398  157.2846 H   0  0  0  0  0  0  0  0  0  0  0  0  # atno 8009 bound_to 7997
  154.6436  140.2528  155.7300 H   0  0  0  0  0  0  0  0  0  0  0  0  # atno 8010 bound_to 7997
  139.5407  144.6727  151.4635 H   0  0  0  0  0  0  0  0  0  0  0  0  # atno 10167 bound_to 10162
  157.5600  130.8829  149.9096 H   0  0  0  0  0  0  0  0  0  0  0  0  # atno 10718 bound_to 10713
  153.1993  135.6854  153.8251 H   0  0  0  0  0  0  0  0  0  0  0  0  # atno 10763 bound_to 10752
  153.7523  135.3222  155.3324 H   0  0  0  0  0  0  0  0  0  0  0  0  # atno 10764 bound_to 10752
  154.8162  135.4684  154.0752 H   0  0  0  0  0  0  0  0  0  0  0  0  # atno 10765 bound_to 10752
  140.6298  134.4663  157.5229 H   0  0  0  0  0  0  0  0  0  0  0  0  # atno 11005 bound_to 11000
  144.7525  140.5226  143.6792 LP  0  0  0  0  0  0  0  0  0  0  0  0  # atno 17320 bound_to 7965
  145.5632  139.1480  143.3330 LP  0  0  0  0  0  0  0  0  0  0  0  0  # atno 17321 bound_to 7965
  140.6635  143.8448  150.6915 LP  0  0  0  0  0  0  0  0  0  0  0  0  # atno 17342 bound_to 10162
  140.1850  143.4083  152.1905 LP  0  0  0  0  0  0  0  0  0  0  0  0  # atno 17343 bound_to 10162
  156.0654  130.3693  150.0890 LP  0  0  0  0  0  0  0  0  0  0  0  0  # atno 17370 bound_to 10713
  156.9055  130.9634  151.3570 LP  0  0  0  0  0  0  0  0  0  0  0  0  # atno 17371 bound_to 10713
  139.9120  134.8324  156.1494 LP  0  0  0  0  0  0  0  0  0  0  0  0  # atno 17394 bound_to 11000
  141.0683  133.6808  156.2089 LP  0  0  0  0  0  0  0  0  0  0  0  0  # atno 17395 bound_to 11000

$$$$
