AV-unprocessed.smi:3112|AV-procd|sdf|11836|dock10
  -GOLD-   2272017213D 1   1.00000     0.00000
 Structure written by MMmdl.
 37 37  0  0  0  0  0  0  0  0  2 V2000
  147.8769  141.1406  154.1151 C   0  0  0  0  0  0  0  0  0  0  0  0
  146.8467  140.5621  153.1354 C   0  0  0  0  0  0  0  0  0  0  0  0
  146.8526  139.0236  153.0767 C   0  0  2  0  0  0  0  0  0  0  0  0
  148.1927  138.5711  153.0722 O   0  0  0  0  0  0  0  0  0  0  0  0
  146.1618  138.4945  151.8092 C   0  0  0  0  0  0  0  0  0  0  0  0
  146.0630  137.0193  151.8352 N   0  3  0  0  0  0  0  0  0  0  0  0
  145.2670  136.4451  152.9446 C   0  0  2  0  0  0  0  0  0  0  0  0
  146.2347  135.8528  153.9854 C   0  0  0  0  0  0  0  0  0  0  0  0
  144.1984  135.4402  152.4236 C   0  0  2  0  0  0  0  0  0  0  0  0
  143.1451  135.0811  153.4904 C   0  0  0  0  0  0  0  0  0  0  0  0
  144.7883  134.2497  151.8157 N   0  0  0  0  0  0  0  0  0  0  0  0
  144.1294  133.1702  151.2616 C   0  0  0  0  0  0  0  0  0  0  0  0
  145.0760  132.3089  150.7866 C   0  0  0  0  0  0  0  0  0  0  0  0
  146.3048  132.9565  151.0915 C   0  0  0  0  0  0  0  0  0  0  0  0
  146.1299  134.1186  151.6987 N   0  0  0  0  0  0  0  0  0  0  0  0
  147.8146  142.2285  154.1428 H   0  0  0  0  0  0  0  0  0  0  0  0
  148.8948  140.8766  153.8275 H   0  0  0  0  0  0  0  0  0  0  0  0
  147.7080  140.7737  155.1278 H   0  0  0  0  0  0  0  0  0  0  0  0
  145.8571  140.9049  153.4398 H   0  0  0  0  0  0  0  0  0  0  0  0
  147.0163  140.9752  152.1399 H   0  0  0  0  0  0  0  0  0  0  0  0
  146.3498  138.6268  153.9598 H   0  0  0  0  0  0  0  0  0  0  0  0
  148.5896  138.8143  152.2490 H   0  0  0  0  0  0  0  0  0  0  0  0
  145.1532  138.9039  151.7399 H   0  0  0  0  0  0  0  0  0  0  0  0
  146.7034  138.8327  150.9260 H   0  0  0  0  0  0  0  0  0  0  0  0
  145.6722  136.7014  150.9594 H   0  0  0  0  0  0  0  0  0  0  0  0
  144.7472  137.2717  153.4315 H   0  0  0  0  0  0  0  0  0  0  0  0
  145.7044  135.4424  154.8442 H   0  0  0  0  0  0  0  0  0  0  0  0
  146.9096  136.6205  154.3654 H   0  0  0  0  0  0  0  0  0  0  0  0
  146.8529  135.0608  153.5630 H   0  0  0  0  0  0  0  0  0  0  0  0
  143.6332  135.9312  151.6320 H   0  0  0  0  0  0  0  0  0  0  0  0
  142.6557  135.9774  153.8721 H   0  0  0  0  0  0  0  0  0  0  0  0
  143.5765  134.5543  154.3415 H   0  0  0  0  0  0  0  0  0  0  0  0
  142.3691  134.4409  153.0696 H   0  0  0  0  0  0  0  0  0  0  0  0
  143.0512  133.1042  151.2510 H   0  0  0  0  0  0  0  0  0  0  0  0
  144.9151  131.3608  150.2949 H   0  0  0  0  0  0  0  0  0  0  0  0
  147.3112  132.6215  150.8874 H   0  0  0  0  0  0  0  0  0  0  0  0
  147.0031  136.6584  151.9113 H   0  0  0  0  0  0  0  0  0  0  0  0
  1  2  1  0  0  0  0
  1 16  1  0  0  0  0
  1 17  1  0  0  0  0
  1 18  1  0  0  0  0
  2  3  1  0  0  0  0
  2 19  1  0  0  0  0
  2 20  1  0  0  0  0
  3  4  1  0  0  0  0
  3  5  1  0  0  0  0
  3 21  1  0  0  0  0
  4 22  1  0  0  0  0
  5  6  1  0  0  0  0
  5 23  1  0  0  0  0
  5 24  1  0  0  0  0
  6  7  1  0  0  0  0
  6 25  1  0  0  0  0
  6 37  1  0  0  0  0
  7  8  1  0  0  0  0
  7  9  1  0  0  0  0
  7 26  1  0  0  0  0
  8 27  1  0  0  0  0
  8 28  1  0  0  0  0
  8 29  1  0  0  0  0
  9 10  1  0  0  0  0
  9 11  1  0  0  0  0
  9 30  1  0  0  0  0
 10 31  1  0  0  0  0
 10 32  1  0  0  0  0
 10 33  1  0  0  0  0
 11 15  1  0  0  0  0
 11 12  1  0  0  0  0
 12 13  2  0  0  0  0
 12 34  1  0  0  0  0
 13 14  1  0  0  0  0
 13 35  1  0  0  0  0
 14 15  2  0  0  0  0
 14 36  1  0  0  0  0
M  CHG  1   6   1
M  END
> <s_m_source_file>
AV-unprocessed.smi

> <i_m_source_file_index>
3112

> <i_lp_mmshare_version>
43012

> <i_f3d_flags>
0

> <s_epik_input>
W0NIM11bQ0gyXVtDQEhdKFtPSF0pW0NIMl1bTkhdW0NASF0oW0NIM10pW0NASF0oW0NIM10pbjFbY0hdW2NIXVtjSF1uMQ==

> <s_epik_cmdline>
J2VwaWtfcHl0aG9uJywgJy1waCcsICc3LjAnLCAnLXRuJywgJzgnLCAnLW1hJywgJzIwMCcsICctbWV0YWxfYmluZGluZycsICctaW1hZScsICc8aW5maWxlLm1hZT4nLCAnLW9tYWUnLCAnPG91dGZpbGUubWFlPic=

> <r_lp_tautomer_probability>
1

> <r_epik_Ionization_Penalty>
0.0154842

> <r_epik_Ionization_Penalty_Charging>
0.0154724

> <r_epik_Ionization_Penalty_Neutral>
1.17979e-05

> <r_epik_State_Penalty>
0.0121607

> <r_epik_Charging_Adjusted_Penalty>
0.0276331

> <i_epik_Tot_Q>
1

> <i_epik_Tot_abs_Q>
1

> <r_epik_Metal_State_Penalty>
0.0121863

> <b_epik_Metal_Only>
0

> <s_lp_Force_Field>
OPLS_2005

> <r_lp_Energy>
12.3071

> <b_lp_Chiralities_Consistent>
1

> <s_lp_Variant>
AV-unprocessed.smi:3112-1

> <Gold.Version>
5.8.1

> <Gold.Id.Protein>
6NUR|6NUR_protein|mol2

> <Gold.PLP.Fitness>
46.1132

> <Gold.PLP.PLP>
-32.9555

> <Gold.PLP.part.hbond>
-3.3808

> <Gold.PLP.part.metal>
0.0000

> <Gold.PLP.part.buried>
-3.6161

> <Gold.PLP.part.nonpolar>
-26.7573

> <Gold.PLP.part.repulsive>
0.2765

> <Gold.PLP.ligand.clash>
0.0000

> <Gold.PLP.ligand.torsion>
1.0161

> <Gold.PLP.Chemscore.Hbond>
3.0000

> <Gold.PLP.Chemscore.CHOScore>
2.0000

> <Gold.PLP.Chemscore.Metal>
0.0000

> <Gold.Chemscore.Hbonds>
donor molecule, donor type, donor heavy atom, donor atom, acceptor molecule, acceptor atom, score
      L1  H     4    22       P1  7957  1.00
      L1  H     6    37       P1  7948  2.00
      L1  C    14    36       P1 10747  1.00

> <Gold.PLP.Chemscore.Internal.Correction>
0.1899

> <Gold.Rescore>
     Score         DG    S(hbond)    S(metal)    S(lipo)     H(rot)  DE(clash)    DE(int)     intcor
     11.44     -14.42       1.99        0.00      72.27       2.41       0.09       2.89       ----

> <Gold.Chemscore.Fitness>
11.4353

> <Gold.Chemscore.DG>
-14.4168

> <Gold.Chemscore.ZeroCoef>
-5.4800

> <Gold.Chemscore.Hbond>
1.9905

> <Gold.Chemscore.Metal>
0.0000

> <Gold.Chemscore.Lipo>
72.2677

> <Gold.Chemscore.Internal_Hbond>
0.0000

> <Gold.Chemscore.DEClash>
0.0923

> <Gold.Chemscore.DEInternal>
2.8892

> <Gold.Chemscore.Rot>
2.4089

> <Gold.Chemscore.Internal.Correction>
   9.000000E+99

> <Gold.Chemscore.Hbonds>
donor molecule, donor type, donor heavy atom, donor atom, acceptor molecule, acceptor atom, score
      L1  H     4    22       P1  7957  0.93
      L1  H     6    37       P1  7948  0.98

> <Gold.Chemscore.Hbond.Weighted>
-6.6482

> <Gold.Chemscore.Metal.Weighted>
-0.0000

> <Gold.Chemscore.Lipo.Weighted>
-8.4553

> <Gold.Chemscore.Internal_Hbond.Weighted>
0.0000

> <Gold.Chemscore.DEClash.Weighted>
0.0923

> <Gold.Chemscore.DEInternal.Weighted>
2.8892

> <Gold.Chemscore.Rot.Weighted>
6.1667

> <Gold.Chemscore.Internal.Correction.Weighted>
   9.000000E+99

> <Gold.Protein.RotatedTorsions>
[ 6907 6896 6895 6894 ] final  -16.64 input  -60.11 | X-H torsion
[ 7974 7965 7964 7962 ] final  101.16 input  175.53 | X-H torsion
[ 8008 7997 7996 7995 ] final  -52.65 input   59.86 | X-H torsion
[ 10167 10162 10161 10158 ] final -171.96 input  -65.29 | X-H torsion
[ 10718 10713 10712 10709 ] final  -55.13 input   66.30 | X-H torsion
[ 10763 10752 10751 10750 ] final   93.55 input  -60.55 | X-H torsion
[ 11005 11000 10999 10996 ] final -132.21 input  -57.11 | X-H torsion

> <Gold.Protein.ActiveResidues>
 VAL166  LYS551  ARG553  GLY616  TRP617  ASP618  TYR619  PRO620  LYS621  CYS622 
 ASP623  PHE694  ASN695  SER759  ASP760  ASP761  ALA762  ILE779  LEU786  VAL792 
 PHE793  MET794  SER795  GLU796  ALA797  LYS798  CYS799  TRP800  GLU811  SER814 

> <Gold.Protein.RotatedAtoms>
  151.3054  135.0780  159.9253 H   0  0  0  0  0  0  0  0  0  0  0  0  # atno 6907 bound_to 6896
  152.5289  133.9790  159.7808 H   0  0  0  0  0  0  0  0  0  0  0  0  # atno 6908 bound_to 6896
  151.0084  133.5937  159.2716 H   0  0  0  0  0  0  0  0  0  0  0  0  # atno 6909 bound_to 6896
  145.3760  139.2389  143.3429 H   0  0  0  0  0  0  0  0  0  0  0  0  # atno 7974 bound_to 7965
  154.4112  140.1219  156.5026 H   0  0  0  0  0  0  0  0  0  0  0  0  # atno 8008 bound_to 7997
  155.6880  140.3495  155.4862 H   0  0  0  0  0  0  0  0  0  0  0  0  # atno 8009 bound_to 7997
  155.9494  140.1102  157.0979 H   0  0  0  0  0  0  0  0  0  0  0  0  # atno 8010 bound_to 7997
  139.5772  144.1505  152.1466 H   0  0  0  0  0  0  0  0  0  0  0  0  # atno 10167 bound_to 10162
  156.1394  130.4155  150.0130 H   0  0  0  0  0  0  0  0  0  0  0  0  # atno 10718 bound_to 10713
  153.2315  135.4321  155.0600 H   0  0  0  0  0  0  0  0  0  0  0  0  # atno 10763 bound_to 10752
  154.8299  135.3380  154.6780 H   0  0  0  0  0  0  0  0  0  0  0  0  # atno 10764 bound_to 10752
  153.7207  135.7017  153.5070 H   0  0  0  0  0  0  0  0  0  0  0  0  # atno 10765 bound_to 10752
  140.9190  134.1469  157.4329 H   0  0  0  0  0  0  0  0  0  0  0  0  # atno 11005 bound_to 11000
  146.2864  140.4419  142.8756 LP  0  0  0  0  0  0  0  0  0  0  0  0  # atno 17320 bound_to 7965
  144.8542  140.7046  143.6149 LP  0  0  0  0  0  0  0  0  0  0  0  0  # atno 17321 bound_to 7965
  140.1051  144.5506  150.6963 LP  0  0  0  0  0  0  0  0  0  0  0  0  # atno 17342 bound_to 10162
  140.7054  143.2464  151.4743 LP  0  0  0  0  0  0  0  0  0  0  0  0  # atno 17343 bound_to 10162
  156.8020  130.9294  151.3646 LP  0  0  0  0  0  0  0  0  0  0  0  0  # atno 17370 bound_to 10713
  157.6561  130.8926  149.9733 LP  0  0  0  0  0  0  0  0  0  0  0  0  # atno 17371 bound_to 10713
  139.8772  134.9964  156.5794 LP  0  0  0  0  0  0  0  0  0  0  0  0  # atno 17394 bound_to 11000
  140.8012  133.8504  155.8728 LP  0  0  0  0  0  0  0  0  0  0  0  0  # atno 17395 bound_to 11000

$$$$
