AV-unprocessed.smi:1724|AV-procd|sdf|6950|dock5
  -GOLD-   22720 8163D 1   1.00000     0.00000
 Structure written by MMmdl.
 38 39  0  0  0  0  0  0  0  0  1 V2000
  148.4208  133.6107  155.5188 O   0  0  0  0  0  0  0  0  0  0  0  0
  148.5797  134.2909  154.5059 C   0  0  0  0  0  0  0  0  0  0  0  0
  149.3242  135.4058  154.4784 N   0  0  0  0  0  0  0  0  0  0  0  0
  150.0487  135.9741  155.6121 C   0  0  0  0  0  0  0  0  0  0  0  0
  149.9881  137.5150  155.6334 C   0  0  1  0  0  0  0  0  0  0  0  0
  150.2292  138.1105  157.0336 C   0  0  0  0  0  0  0  0  0  0  0  0
  150.2490  139.6416  156.9636 C   0  0  0  0  0  0  0  0  0  0  0  0
  151.2470  140.1180  155.8980 C   0  0  0  0  0  0  0  0  0  0  0  0
  150.9179  139.5397  154.6401 O   0  0  0  0  0  0  0  0  0  0  0  0
  151.0035  138.1184  154.6415 C   0  0  0  0  0  0  0  0  0  0  0  0
  148.0564  134.0389  153.2915 N   0  0  0  0  0  0  0  0  0  0  0  0
  147.2217  132.9897  152.8674 C   0  0  0  0  0  0  0  0  0  0  0  0
  147.4846  131.6648  153.0207 C   0  0  0  0  0  0  0  0  0  0  0  0
  146.5654  130.6380  152.5550 C   0  0  0  0  0  0  0  0  0  0  0  0
  146.8522  129.1530  152.7107 C   0  0  0  0  0  0  0  0  0  0  0  0
  146.9057  128.5672  151.5147 F   0  0  0  0  0  0  0  0  0  0  0  0
  148.0293  128.9718  153.3093 F   0  0  0  0  0  0  0  0  0  0  0  0
  145.9148  128.5414  153.4352 F   0  0  0  0  0  0  0  0  0  0  0  0
  145.4336  131.0657  151.9678 C   0  0  0  0  0  0  0  0  0  0  0  0
  145.1526  132.4243  151.8128 N   0  0  0  0  0  0  0  0  0  0  0  0
  145.9688  133.4203  152.2236 C   0  0  0  0  0  0  0  0  0  0  0  0
  145.6478  134.5958  152.0514 O   0  0  0  0  0  0  0  0  0  0  0  0
  144.2808  132.6647  151.3636 H   0  0  0  0  0  0  0  0  0  0  0  0
  149.4006  135.9002  153.6016 H   0  0  0  0  0  0  0  0  0  0  0  0
  149.6859  135.5666  156.5574 H   0  0  0  0  0  0  0  0  0  0  0  0
  151.0869  135.6523  155.5254 H   0  0  0  0  0  0  0  0  0  0  0  0
  148.9913  137.8159  155.3069 H   0  0  0  0  0  0  0  0  0  0  0  0
  149.4564  137.7890  157.7320 H   0  0  0  0  0  0  0  0  0  0  0  0
  151.1794  137.7501  157.4300 H   0  0  0  0  0  0  0  0  0  0  0  0
  149.2521  140.0103  156.7187 H   0  0  0  0  0  0  0  0  0  0  0  0
  150.5074  140.0600  157.9368 H   0  0  0  0  0  0  0  0  0  0  0  0
  151.2096  141.2037  155.8071 H   0  0  0  0  0  0  0  0  0  0  0  0
  152.2691  139.8560  156.1760 H   0  0  0  0  0  0  0  0  0  0  0  0
  152.0209  137.8073  154.8848 H   0  0  0  0  0  0  0  0  0  0  0  0
  150.7974  137.7635  153.6315 H   0  0  0  0  0  0  0  0  0  0  0  0
  148.3111  134.6849  152.5584 H   0  0  0  0  0  0  0  0  0  0  0  0
  148.3862  131.3297  153.5042 H   0  0  0  0  0  0  0  0  0  0  0  0
  144.6695  130.4097  151.5776 H   0  0  0  0  0  0  0  0  0  0  0  0
  1  2  2  0  0  0  0
  2  3  1  0  0  0  0
  2 11  1  0  0  0  0
  3  4  1  0  0  0  0
  3 24  1  0  0  0  0
  4  5  1  0  0  0  0
  4 25  1  0  0  0  0
  4 26  1  0  0  0  0
  5 10  1  0  0  0  0
  5  6  1  0  0  0  0
  5 27  1  0  0  0  0
  6  7  1  0  0  0  0
  6 28  1  0  0  0  0
  6 29  1  0  0  0  0
  7  8  1  0  0  0  0
  7 30  1  0  0  0  0
  7 31  1  0  0  0  0
  8  9  1  0  0  0  0
  8 32  1  0  0  0  0
  8 33  1  0  0  0  0
  9 10  1  0  0  0  0
 10 34  1  0  0  0  0
 10 35  1  0  0  0  0
 11 12  1  0  0  0  0
 11 36  1  0  0  0  0
 12 21  1  0  0  0  0
 12 13  2  0  0  0  0
 13 14  1  0  0  0  0
 13 37  1  0  0  0  0
 14 15  1  0  0  0  0
 14 19  2  0  0  0  0
 15 16  1  0  0  0  0
 15 17  1  0  0  0  0
 15 18  1  0  0  0  0
 19 20  1  0  0  0  0
 19 38  1  0  0  0  0
 20 23  1  0  0  0  0
 20 21  1  0  0  0  0
 21 22  2  0  0  0  0
M  END
> <s_m_source_file>
AV-unprocessed.smi

> <i_m_source_file_index>
1724

> <i_lp_mmshare_version>
43012

> <i_f3d_flags>
0

> <s_epik_input>
Tz1jMVtuSF1bY0hdYyhDKEYpKEYpRilbY0hdYzFbTkhdQyg9TylbTkhdW0NIMl1bQ0BASF0yW0NIMl1bQ0gyXVtDSDJdT1tDSDJdMg==

> <s_epik_cmdline>
J2VwaWtfcHl0aG9uJywgJy1waCcsICc3LjAnLCAnLXRuJywgJzgnLCAnLW1hJywgJzIwMCcsICctbWV0YWxfYmluZGluZycsICctaW1hZScsICc8aW5maWxlLm1hZT4nLCAnLW9tYWUnLCAnPG91dGZpbGUubWFlPic=

> <r_lp_tautomer_probability>
1

> <r_epik_Ionization_Penalty>
0.00384958

> <r_epik_Ionization_Penalty_Charging>
0.00382926

> <r_epik_Ionization_Penalty_Neutral>
2.03186e-05

> <r_epik_State_Penalty>
-0

> <r_epik_Charging_Adjusted_Penalty>
0.00382926

> <i_epik_Tot_Q>
0

> <i_epik_Tot_abs_Q>
0

> <r_epik_Metal_State_Penalty>
0.371494

> <b_epik_Metal_Only>
0

> <s_lp_Force_Field>
OPLS_2005

> <r_lp_Energy>
21.778

> <b_lp_Chiralities_Consistent>
1

> <s_lp_Variant>
AV-unprocessed.smi:1724-2

> <Gold.Version>
5.8.1

> <Gold.Id.Protein>
6NUR|6NUR_protein|mol2

> <Gold.PLP.Fitness>
40.1569

> <Gold.PLP.PLP>
-32.8507

> <Gold.PLP.part.hbond>
-3.0000

> <Gold.PLP.part.metal>
0.0000

> <Gold.PLP.part.buried>
-2.4108

> <Gold.PLP.part.nonpolar>
-27.2079

> <Gold.PLP.part.repulsive>
0.2499

> <Gold.PLP.ligand.clash>
0.0000

> <Gold.PLP.ligand.torsion>
0.8589

> <Gold.PLP.Chemscore.Hbond>
3.0000

> <Gold.PLP.Chemscore.CHOScore>
0.0000

> <Gold.PLP.Chemscore.Metal>
0.0000

> <Gold.Chemscore.Hbonds>
donor molecule, donor type, donor heavy atom, donor atom, acceptor molecule, acceptor atom, score
      L1  H     3    24       P1  7948  1.00
      L1  H    11    36       P1  7948  1.00
      P1  H  7989  7998       L1     9  1.00

> <Gold.PLP.Chemscore.Internal.Correction>
0.0239

> <Gold.Rescore>
     Score         DG    S(hbond)    S(metal)    S(lipo)     H(rot)  DE(clash)    DE(int)     intcor
     15.49     -16.60       2.37        0.00      56.73       1.33       0.17       0.95       ----

> <Gold.Chemscore.Fitness>
15.4881

> <Gold.Chemscore.DG>
-16.6031

> <Gold.Chemscore.ZeroCoef>
-5.4800

> <Gold.Chemscore.Hbond>
2.3659

> <Gold.Chemscore.Metal>
0.0000

> <Gold.Chemscore.Lipo>
56.7262

> <Gold.Chemscore.Internal_Hbond>
0.0000

> <Gold.Chemscore.DEClash>
0.1674

> <Gold.Chemscore.DEInternal>
0.9476

> <Gold.Chemscore.Rot>
1.3344

> <Gold.Chemscore.Internal.Correction>
   9.000000E+99

> <Gold.Chemscore.Hbonds>
donor molecule, donor type, donor heavy atom, donor atom, acceptor molecule, acceptor atom, score
      L1  H     3    24       P1  7948  0.54
      L1  H    11    36       P1  7948  0.30
      P1  H  7989  7998       L1     9  0.26

> <Gold.Chemscore.Hbond.Weighted>
-7.9021

> <Gold.Chemscore.Metal.Weighted>
-0.0000

> <Gold.Chemscore.Lipo.Weighted>
-6.6370

> <Gold.Chemscore.Internal_Hbond.Weighted>
0.0000

> <Gold.Chemscore.DEClash.Weighted>
0.1674

> <Gold.Chemscore.DEInternal.Weighted>
0.9476

> <Gold.Chemscore.Rot.Weighted>
3.4160

> <Gold.Chemscore.Internal.Correction.Weighted>
   9.000000E+99

> <Gold.Protein.RotatedTorsions>
[ 6907 6896 6895 6894 ] final  159.16 input  -60.11 | X-H torsion
[ 7974 7965 7964 7962 ] final -179.69 input  175.53 | X-H torsion
[ 8008 7997 7996 7995 ] final  -43.94 input   59.86 | X-H torsion
[ 10167 10162 10161 10158 ] final  167.10 input  -65.29 | X-H torsion
[ 10718 10713 10712 10709 ] final  -83.23 input   66.30 | X-H torsion
[ 10763 10752 10751 10750 ] final  -61.47 input  -60.55 | X-H torsion
[ 11005 11000 10999 10996 ] final -131.48 input  -57.11 | X-H torsion

> <Gold.Protein.ActiveResidues>
 VAL166  LYS551  ARG553  GLY616  TRP617  ASP618  TYR619  PRO620  LYS621  CYS622 
 ASP623  PHE694  ASN695  SER759  ASP760  ASP761  ALA762  ILE779  LEU786  VAL792 
 PHE793  MET794  SER795  GLU796  ALA797  LYS798  CYS799  TRP800  GLU811  SER814 

> <Gold.Protein.RotatedAtoms>
  151.9897  133.3786  159.4139 H   0  0  0  0  0  0  0  0  0  0  0  0  # atno 6907 bound_to 6896
  150.6923  134.3950  159.5102 H   0  0  0  0  0  0  0  0  0  0  0  0  # atno 6908 bound_to 6896
  152.1681  134.8856  160.0587 H   0  0  0  0  0  0  0  0  0  0  0  0  # atno 6909 bound_to 6896
  144.7138  140.0680  143.6430 H   0  0  0  0  0  0  0  0  0  0  0  0  # atno 7974 bound_to 7965
  154.3997  140.1435  156.3602 H   0  0  0  0  0  0  0  0  0  0  0  0  # atno 8008 bound_to 7997
  155.8188  140.3470  155.5481 H   0  0  0  0  0  0  0  0  0  0  0  0  # atno 8009 bound_to 7997
  155.8310  140.0912  157.1783 H   0  0  0  0  0  0  0  0  0  0  0  0  # atno 8010 bound_to 7997
  139.4938  144.3957  151.9467 H   0  0  0  0  0  0  0  0  0  0  0  0  # atno 10167 bound_to 10162
  156.0021  130.4659  150.4225 H   0  0  0  0  0  0  0  0  0  0  0  0  # atno 10718 bound_to 10713
  154.2851  135.6264  153.5362 H   0  0  0  0  0  0  0  0  0  0  0  0  # atno 10763 bound_to 10752
  152.9860  135.5642  154.5453 H   0  0  0  0  0  0  0  0  0  0  0  0  # atno 10764 bound_to 10752
  154.5051  135.2874  155.1364 H   0  0  0  0  0  0  0  0  0  0  0  0  # atno 10765 bound_to 10752
  140.9255  134.1388  157.4279 H   0  0  0  0  0  0  0  0  0  0  0  0  # atno 11005 bound_to 11000
  145.9808  139.2939  143.1043 LP  0  0  0  0  0  0  0  0  0  0  0  0  # atno 17320 bound_to 7965
  145.9013  140.9241  143.0501 LP  0  0  0  0  0  0  0  0  0  0  0  0  # atno 17321 bound_to 7965
  140.3395  144.3220  150.5970 LP  0  0  0  0  0  0  0  0  0  0  0  0  # atno 17342 bound_to 10162
  140.5578  143.2196  151.7818 LP  0  0  0  0  0  0  0  0  0  0  0  0  # atno 17343 bound_to 10162
  157.2280  131.0497  151.2509 LP  0  0  0  0  0  0  0  0  0  0  0  0  # atno 17370 bound_to 10713
  157.3738  130.7195  149.6583 LP  0  0  0  0  0  0  0  0  0  0  0  0  # atno 17371 bound_to 10713
  139.8784  134.9986  156.5912 LP  0  0  0  0  0  0  0  0  0  0  0  0  # atno 17394 bound_to 11000
  140.7932  133.8565  155.8663 LP  0  0  0  0  0  0  0  0  0  0  0  0  # atno 17395 bound_to 11000

$$$$
