AV-unprocessed.smi:813|AV-procd|sdf|3819|dock6
  -GOLD-   22720 1263D 1   1.00000     0.00000
 Structure written by MMmdl.
 35 36  0  0  0  0  0  0  0  0  2 V2000
  150.2712  138.2594  156.6568 C   0  0  0  0  0  0  0  0  0  0  0  0
  151.1685  137.9557  157.8682 C   0  0  2  0  0  0  0  0  0  0  0  0
  150.3223  137.9127  159.0608 N   0  0  0  0  0  0  0  0  0  0  0  0
  149.5833  136.8686  159.4658 C   0  0  0  0  0  0  0  0  0  0  0  0
  149.5769  135.8267  158.8054 O   0  0  0  0  0  0  0  0  0  0  0  0
  148.8967  137.0969  160.6083 N   0  5  0  0  0  0  0  0  0  0  0  0
  148.1465  136.1214  161.1467 C   0  0  0  0  0  0  0  0  0  0  0  0
  147.7446  135.0520  160.4412 N   0  0  0  0  0  0  0  0  0  0  0  0
  146.9839  134.1610  161.1862 N   0  0  0  0  0  0  0  0  0  0  0  0
  146.8373  134.5799  162.4428 C   0  0  0  0  0  0  0  0  0  0  0  0
  147.6169  136.0990  162.8311 S   0  0  0  0  0  0  0  0  0  0  0  0
  152.2149  139.0755  157.9853 C   0  0  0  0  0  0  0  0  0  0  0  0
  152.9349  139.3665  157.0286 O   0  0  0  0  0  0  0  0  0  0  0  0
  152.2943  139.6865  159.1771 N   0  0  0  0  0  0  0  0  0  0  0  0
  153.2053  140.7803  159.5024 C   0  0  0  0  0  0  0  0  0  0  0  0
  153.2336  141.0375  161.0214 C   0  0  0  0  0  0  0  0  0  0  0  0
  153.0583  142.5469  161.1992 C   0  0  0  0  0  0  0  0  0  0  0  0
  152.2263  142.9735  159.9942 C   0  0  0  0  0  0  0  0  0  0  0  0
  152.7498  142.1022  158.8523 C   0  0  0  0  0  0  0  0  0  0  0  0
  150.8516  138.3008  155.7343 H   0  0  0  0  0  0  0  0  0  0  0  0
  149.7487  139.2113  156.7655 H   0  0  0  0  0  0  0  0  0  0  0  0
  149.5160  137.4832  156.5294 H   0  0  0  0  0  0  0  0  0  0  0  0
  151.6583  136.9905  157.7253 H   0  0  0  0  0  0  0  0  0  0  0  0
  150.3049  138.7418  159.6361 H   0  0  0  0  0  0  0  0  0  0  0  0
  146.2691  133.9897  163.1460 H   0  0  0  0  0  0  0  0  0  0  0  0
  151.6623  139.3857  159.9047 H   0  0  0  0  0  0  0  0  0  0  0  0
  154.2118  140.5342  159.1590 H   0  0  0  0  0  0  0  0  0  0  0  0
  152.4062  140.5245  161.5151 H   0  0  0  0  0  0  0  0  0  0  0  0
  154.1543  140.6780  161.4823 H   0  0  0  0  0  0  0  0  0  0  0  0
  152.5887  142.8064  162.1483 H   0  0  0  0  0  0  0  0  0  0  0  0
  154.0318  143.0377  161.1638 H   0  0  0  0  0  0  0  0  0  0  0  0
  151.1745  142.7481  160.1753 H   0  0  0  0  0  0  0  0  0  0  0  0
  152.3082  144.0395  159.7808 H   0  0  0  0  0  0  0  0  0  0  0  0
  153.6103  142.5901  158.3927 H   0  0  0  0  0  0  0  0  0  0  0  0
  152.0038  141.9673  158.0673 H   0  0  0  0  0  0  0  0  0  0  0  0
  1  2  1  0  0  0  0
  1 20  1  0  0  0  0
  1 21  1  0  0  0  0
  1 22  1  0  0  0  0
  2  3  1  0  0  0  0
  2 12  1  0  0  0  0
  2 23  1  0  0  0  0
  3  4  1  0  0  0  0
  3 24  1  0  0  0  0
  4  5  2  0  0  0  0
  4  6  1  0  0  0  0
  6  7  1  0  0  0  0
  7 11  1  0  0  0  0
  7  8  2  0  0  0  0
  8  9  1  0  0  0  0
  9 10  2  0  0  0  0
 10 11  1  0  0  0  0
 10 25  1  0  0  0  0
 12 13  2  0  0  0  0
 12 14  1  0  0  0  0
 14 15  1  0  0  0  0
 14 26  1  0  0  0  0
 15 19  1  0  0  0  0
 15 16  1  0  0  0  0
 15 27  1  0  0  0  0
 16 17  1  0  0  0  0
 16 28  1  0  0  0  0
 16 29  1  0  0  0  0
 17 18  1  0  0  0  0
 17 30  1  0  0  0  0
 17 31  1  0  0  0  0
 18 19  1  0  0  0  0
 18 32  1  0  0  0  0
 18 33  1  0  0  0  0
 19 34  1  0  0  0  0
 19 35  1  0  0  0  0
M  CHG  1   6  -1
M  END
> <s_m_source_file>
AV-unprocessed.smi

> <i_m_source_file_index>
813

> <i_lp_mmshare_version>
43012

> <i_f3d_flags>
0

> <s_epik_input>
W0NIMl0xW0NIMl1bQ0gyXVtDSDJdW0NIXTFbTkhdQyg9TylbQ0BIXShbQ0gzXSlbTkhdQyg9TylbTkhdYzJubltjSF1zMg==

> <s_epik_cmdline>
J2VwaWtfcHl0aG9uJywgJy1waCcsICc3LjAnLCAnLXRuJywgJzgnLCAnLW1hJywgJzIwMCcsICctbWV0YWxfYmluZGluZycsICctaW1hZScsICc8aW5maWxlLm1hZT4nLCAnLW9tYWUnLCAnPG91dGZpbGUubWFlPic=

> <r_lp_tautomer_probability>
1

> <r_epik_Ionization_Penalty>
3.13682

> <r_epik_Ionization_Penalty_Charging>
3.09647

> <r_epik_Ionization_Penalty_Neutral>
0.0403479

> <r_epik_State_Penalty>
3.09328

> <r_epik_Charging_Adjusted_Penalty>
6.18976

> <i_epik_Tot_Q>
-1

> <i_epik_Tot_abs_Q>
1

> <r_epik_Metal_State_Penalty>
0.461392

> <b_epik_Metal_Only>
1

> <s_lp_Force_Field>
OPLS_2005

> <r_lp_Energy>
16.0843

> <b_lp_Chiralities_Consistent>
1

> <s_lp_Variant>
AV-unprocessed.smi:813-3

> <Gold.Version>
5.8.1

> <Gold.Id.Protein>
6NUR|6NUR_protein|mol2

> <Gold.PLP.Fitness>
44.3633

> <Gold.PLP.PLP>
-35.2216

> <Gold.PLP.part.hbond>
-3.3852

> <Gold.PLP.part.metal>
0.0000

> <Gold.PLP.part.buried>
-4.9981

> <Gold.PLP.part.nonpolar>
-28.1782

> <Gold.PLP.part.repulsive>
0.3468

> <Gold.PLP.ligand.clash>
0.0000

> <Gold.PLP.ligand.torsion>
0.6158

> <Gold.PLP.Chemscore.Hbond>
3.4400

> <Gold.PLP.Chemscore.CHOScore>
0.0000

> <Gold.PLP.Chemscore.Metal>
0.0000

> <Gold.Chemscore.Hbonds>
donor molecule, donor type, donor heavy atom, donor atom, acceptor molecule, acceptor atom, score
      P1  H  6896  6907       L1     5  1.00
      P1  H  6931  6943       L1     6  1.47
      P1  H  7997  8010       L1    13  1.00

> <Gold.PLP.Chemscore.Internal.Correction>
0.0534

> <Gold.Rescore>
     Score         DG    S(hbond)    S(metal)    S(lipo)     H(rot)  DE(clash)    DE(int)     intcor
     16.62     -19.08       2.69        0.00      77.06       1.72       0.23       2.24       ----

> <Gold.Chemscore.Fitness>
16.6176

> <Gold.Chemscore.DG>
-19.0833

> <Gold.Chemscore.ZeroCoef>
-5.4800

> <Gold.Chemscore.Hbond>
2.6911

> <Gold.Chemscore.Metal>
0.0000

> <Gold.Chemscore.Lipo>
77.0642

> <Gold.Chemscore.Internal_Hbond>
0.0000

> <Gold.Chemscore.DEClash>
0.2282

> <Gold.Chemscore.DEInternal>
2.2374

> <Gold.Chemscore.Rot>
1.7194

> <Gold.Chemscore.Internal.Correction>
   9.000000E+99

> <Gold.Chemscore.Hbonds>
donor molecule, donor type, donor heavy atom, donor atom, acceptor molecule, acceptor atom, score
      P1  H  6896  6907       L1     5  0.82
      P1  H  6931  6943       L1     6  0.32
      P1  H  7997  8010       L1    13  1.00

> <Gold.Chemscore.Hbond.Weighted>
-8.9884

> <Gold.Chemscore.Metal.Weighted>
-0.0000

> <Gold.Chemscore.Lipo.Weighted>
-9.0165

> <Gold.Chemscore.Internal_Hbond.Weighted>
0.0000

> <Gold.Chemscore.DEClash.Weighted>
0.2282

> <Gold.Chemscore.DEInternal.Weighted>
2.2374

> <Gold.Chemscore.Rot.Weighted>
4.4016

> <Gold.Chemscore.Internal.Correction.Weighted>
   9.000000E+99

> <Gold.Protein.RotatedTorsions>
[ 6907 6896 6895 6894 ] final  -73.17 input  -60.11 | X-H torsion
[ 7974 7965 7964 7962 ] final  -49.06 input  175.53 | X-H torsion
[ 8008 7997 7996 7995 ] final   63.94 input   59.86 | X-H torsion
[ 10167 10162 10161 10158 ] final  -12.96 input  -65.29 | X-H torsion
[ 10718 10713 10712 10709 ] final  -94.11 input   66.30 | X-H torsion
[ 10763 10752 10751 10750 ] final  -46.42 input  -60.55 | X-H torsion
[ 11005 11000 10999 10996 ] final -169.15 input  -57.11 | X-H torsion

> <Gold.Protein.ActiveResidues>
 VAL166  LYS551  ARG553  GLY616  TRP617  ASP618  TYR619  PRO620  LYS621  CYS622 
 ASP623  PHE694  ASN695  SER759  ASP760  ASP761  ALA762  ILE779  LEU786  VAL792 
 PHE793  MET794  SER795  GLU796  ALA797  LYS798  CYS799  TRP800  GLU811  SER814 

> <Gold.Protein.RotatedAtoms>
  150.7140  134.5055  159.5581 H   0  0  0  0  0  0  0  0  0  0  0  0  # atno 6907 bound_to 6896
  152.2643  134.7998  160.0434 H   0  0  0  0  0  0  0  0  0  0  0  0  # atno 6908 bound_to 6896
  151.8700  133.3438  159.3768 H   0  0  0  0  0  0  0  0  0  0  0  0  # atno 6909 bound_to 6896
  145.9446  140.7630  142.9535 H   0  0  0  0  0  0  0  0  0  0  0  0  # atno 7974 bound_to 7965
  155.6381  140.3496  155.4705 H   0  0  0  0  0  0  0  0  0  0  0  0  # atno 8008 bound_to 7997
  155.9948  140.1201  157.0627 H   0  0  0  0  0  0  0  0  0  0  0  0  # atno 8009 bound_to 7997
  154.4230  140.1112  156.5602 H   0  0  0  0  0  0  0  0  0  0  0  0  # atno 8010 bound_to 7997
  140.7172  143.5476  150.9337 H   0  0  0  0  0  0  0  0  0  0  0  0  # atno 10167 bound_to 10162
  156.0022  130.5054  150.5877 H   0  0  0  0  0  0  0  0  0  0  0  0  # atno 10718 bound_to 10713
  154.0447  135.6639  153.4794 H   0  0  0  0  0  0  0  0  0  0  0  0  # atno 10763 bound_to 10752
  153.0487  135.5098  154.7809 H   0  0  0  0  0  0  0  0  0  0  0  0  # atno 10764 bound_to 10752
  154.6796  135.3043  154.9597 H   0  0  0  0  0  0  0  0  0  0  0  0  # atno 10765 bound_to 10752
  140.5339  134.5589  157.5082 H   0  0  0  0  0  0  0  0  0  0  0  0  # atno 11005 bound_to 11000
  144.6785  140.2336  143.7352 LP  0  0  0  0  0  0  0  0  0  0  0  0  # atno 17320 bound_to 7965
  145.8254  139.2062  143.1914 LP  0  0  0  0  0  0  0  0  0  0  0  0  # atno 17321 bound_to 7965
  139.9200  143.6617  152.3098 LP  0  0  0  0  0  0  0  0  0  0  0  0  # atno 17342 bound_to 10162
  139.7031  144.7632  151.1240 LP  0  0  0  0  0  0  0  0  0  0  0  0  # atno 17343 bound_to 10162
  157.3747  131.0771  151.1528 LP  0  0  0  0  0  0  0  0  0  0  0  0  # atno 17370 bound_to 10713
  157.2270  130.6507  149.5834 LP  0  0  0  0  0  0  0  0  0  0  0  0  # atno 17371 bound_to 10713
  139.9539  134.7568  156.0385 LP  0  0  0  0  0  0  0  0  0  0  0  0  # atno 17394 bound_to 11000
  141.1265  133.6598  156.3352 LP  0  0  0  0  0  0  0  0  0  0  0  0  # atno 17395 bound_to 11000

$$$$
