AV-unprocessed.smi:1867|AV-procd|sdf|7583|dock5
  -GOLD-   22720 9293D 1   1.00000     0.00000
 Structure written by MMmdl.
 52 55  0  0  0  0  0  0  0  0  4 V2000
  146.3636  140.5251  154.8126 O   0  0  0  0  0  0  0  0  0  0  0  0
  146.7966  139.3743  154.8370 C   0  0  0  0  0  0  0  0  0  0  0  0
  148.0358  139.1507  155.3407 N   0  0  0  0  0  0  0  0  0  0  0  0
  148.9275  140.0697  155.9558 C   0  0  0  0  0  0  0  0  0  0  0  0
  149.9768  139.5504  156.7418 C   0  0  0  0  0  0  0  0  0  0  0  0
  150.8698  140.4309  157.3861 C   0  0  0  0  0  0  0  0  0  0  0  0
  150.6950  141.8287  157.2515 C   0  0  0  0  0  0  0  0  0  0  0  0
  151.5505  142.7667  157.8597 N   0  0  0  0  0  0  0  0  0  0  0  0
  151.3613  144.1977  157.6843 C   0  0  0  0  0  0  0  0  0  0  0  0
  152.3865  144.8379  158.6188 C   0  0  0  0  0  0  0  0  0  0  0  0
  152.4705  143.8418  159.7758 C   0  0  0  0  0  0  0  0  0  0  0  0
  152.2242  142.4786  159.1179 C   0  0  0  0  0  0  0  0  0  0  0  0
  149.6647  142.2822  156.4986 N   0  3  0  0  0  0  0  0  0  0  0  0
  148.7888  141.4745  155.8630 C   0  0  0  0  0  0  0  0  0  0  0  0
  146.0626  138.3315  154.3431 N   0  5  0  0  0  0  0  0  0  0  0  0
  145.4481  138.1750  153.0174 C   0  0  1  0  0  0  0  0  0  0  0  0
  146.3798  138.6699  151.8938 C   0  0  0  0  0  0  0  0  0  0  0  0
  146.1686  137.6939  150.7202 C   0  0  0  0  0  0  0  0  0  0  0  0
  145.1689  136.7167  151.1926 N   0  3  1  0  0  0  0  0  0  0  0  0
  145.2075  135.3643  150.5931 C   0  0  0  0  0  0  0  0  0  0  0  0
  144.0262  134.5336  151.1343 C   0  0  0  0  0  0  0  0  0  0  0  0
  143.9885  134.5248  152.6766 C   0  0  0  0  0  0  0  0  0  0  0  0
  144.0347  135.9574  153.2441 C   0  0  0  0  0  0  0  0  0  0  0  0
  145.2580  136.6955  152.6614 C   0  0  2  0  0  0  0  0  0  0  0  0
  148.3902  138.2131  155.2217 H   0  0  0  0  0  0  0  0  0  0  0  0
  150.1051  138.4826  156.8451 H   0  0  0  0  0  0  0  0  0  0  0  0
  151.6804  140.0225  157.9711 H   0  0  0  0  0  0  0  0  0  0  0  0
  151.5144  144.5021  156.6483 H   0  0  0  0  0  0  0  0  0  0  0  0
  150.3472  144.4702  157.9802 H   0  0  0  0  0  0  0  0  0  0  0  0
  153.3536  144.9026  158.1181 H   0  0  0  0  0  0  0  0  0  0  0  0
  152.1029  145.8413  158.9372 H   0  0  0  0  0  0  0  0  0  0  0  0
  153.4206  143.8884  160.3090 H   0  0  0  0  0  0  0  0  0  0  0  0
  151.6752  144.0506  160.4926 H   0  0  0  0  0  0  0  0  0  0  0  0
  151.6300  141.8347  159.7672 H   0  0  0  0  0  0  0  0  0  0  0  0
  153.1679  141.9755  158.9050 H   0  0  0  0  0  0  0  0  0  0  0  0
  148.0082  141.9845  155.3179 H   0  0  0  0  0  0  0  0  0  0  0  0
  144.4856  138.6826  152.9306 H   0  0  0  0  0  0  0  0  0  0  0  0
  146.1499  139.6987  151.6151 H   0  0  0  0  0  0  0  0  0  0  0  0
  147.4270  138.6432  152.2003 H   0  0  0  0  0  0  0  0  0  0  0  0
  145.8143  138.1967  149.8197 H   0  0  0  0  0  0  0  0  0  0  0  0
  147.1065  137.1910  150.4774 H   0  0  0  0  0  0  0  0  0  0  0  0
  145.1465  135.4430  149.5073 H   0  0  0  0  0  0  0  0  0  0  0  0
  146.1564  134.8806  150.8302 H   0  0  0  0  0  0  0  0  0  0  0  0
  143.0911  134.9492  150.7562 H   0  0  0  0  0  0  0  0  0  0  0  0
  144.0833  133.5125  150.7560 H   0  0  0  0  0  0  0  0  0  0  0  0
  143.0934  134.0108  153.0276 H   0  0  0  0  0  0  0  0  0  0  0  0
  144.8395  133.9578  153.0562 H   0  0  0  0  0  0  0  0  0  0  0  0
  143.1075  136.4762  152.9923 H   0  0  0  0  0  0  0  0  0  0  0  0
  144.0869  135.9185  154.3338 H   0  0  0  0  0  0  0  0  0  0  0  0
  146.1642  136.1489  152.9347 H   0  0  0  0  0  0  0  0  0  0  0  0
  144.2658  137.1147  150.9788 H   0  0  0  0  0  0  0  0  0  0  0  0
  149.5391  143.2903  156.4073 H   0  0  0  0  0  0  0  0  0  0  0  0
  1  2  2  0  0  0  0
  2  3  1  0  0  0  0
  2 15  1  0  0  0  0
  3  4  1  0  0  0  0
  3 25  1  0  0  0  0
  4 14  1  0  0  0  0
  4  5  2  0  0  0  0
  5  6  1  0  0  0  0
  5 26  1  0  0  0  0
  6  7  2  0  0  0  0
  6 27  1  0  0  0  0
  7  8  1  0  0  0  0
  7 13  1  0  0  0  0
  8 12  1  0  0  0  0
  8  9  1  0  0  0  0
  9 10  1  0  0  0  0
  9 28  1  0  0  0  0
  9 29  1  0  0  0  0
 10 11  1  0  0  0  0
 10 30  1  0  0  0  0
 10 31  1  0  0  0  0
 11 12  1  0  0  0  0
 11 32  1  0  0  0  0
 11 33  1  0  0  0  0
 12 34  1  0  0  0  0
 12 35  1  0  0  0  0
 13 14  2  0  0  0  0
 13 52  1  0  0  0  0
 14 36  1  0  0  0  0
 15 16  1  0  0  0  0
 16 24  1  0  0  0  0
 16 17  1  0  0  0  0
 16 37  1  0  0  0  0
 17 18  1  0  0  0  0
 17 38  1  0  0  0  0
 17 39  1  0  0  0  0
 18 19  1  0  0  0  0
 18 40  1  0  0  0  0
 18 41  1  0  0  0  0
 19 24  1  0  0  0  0
 19 20  1  0  0  0  0
 19 51  1  0  0  0  0
 20 21  1  0  0  0  0
 20 42  1  0  0  0  0
 20 43  1  0  0  0  0
 21 22  1  0  0  0  0
 21 44  1  0  0  0  0
 21 45  1  0  0  0  0
 22 23  1  0  0  0  0
 22 46  1  0  0  0  0
 22 47  1  0  0  0  0
 23 24  1  0  0  0  0
 23 48  1  0  0  0  0
 23 49  1  0  0  0  0
 24 50  1  0  0  0  0
M  CHG  1  13   1
M  CHG  1  15  -1
M  CHG  1  19   1
M  END
> <s_m_source_file>
AV-unprocessed.smi

> <i_m_source_file_index>
1867

> <i_lp_mmshare_version>
43012

> <i_f3d_flags>
0

> <s_epik_input>
W0NIMl0xW0NIMl1bQ0gyXVtDSDJdW0NASF0oTjEyKVtDQEBIXShbQ0gyXVtDSDJdMilbTkhdQyg9TylbTkhdYzNbY0hdW2NIXWMobltjSF0zKU40W0NIMl1bQ0gyXVtDSDJdW0NIMl00

> <s_epik_cmdline>
J2VwaWtfcHl0aG9uJywgJy1waCcsICc3LjAnLCAnLXRuJywgJzgnLCAnLW1hJywgJzIwMCcsICctbWV0YWxfYmluZGluZycsICctaW1hZScsICc8aW5maWxlLm1hZT4nLCAnLW9tYWUnLCAnPG91dGZpbGUubWFlPic=

> <r_lp_tautomer_probability>
0.999994

> <r_epik_Ionization_Penalty>
8.56137

> <r_epik_Ionization_Penalty_Charging>
8.56136

> <r_epik_Ionization_Penalty_Neutral>
3.91889e-06

> <r_epik_State_Penalty>
8.16255

> <r_epik_Charging_Adjusted_Penalty>
16.7239

> <i_epik_Tot_Q>
1

> <i_epik_Tot_abs_Q>
3

> <r_epik_Metal_State_Penalty>
4.14279

> <b_epik_Metal_Only>
1

> <s_lp_Force_Field>
OPLS_2005

> <r_lp_Energy>
66.3104

> <b_lp_Chiralities_Consistent>
1

> <s_lp_Variant>
AV-unprocessed.smi:1867-24

> <Gold.Version>
5.8.1

> <Gold.Id.Protein>
6NUR|6NUR_protein|mol2

> <Gold.PLP.Fitness>
45.6086

> <Gold.PLP.PLP>
-39.2395

> <Gold.PLP.part.hbond>
-2.0000

> <Gold.PLP.part.metal>
0.0000

> <Gold.PLP.part.buried>
1.6944

> <Gold.PLP.part.nonpolar>
-40.2419

> <Gold.PLP.part.repulsive>
0.3258

> <Gold.PLP.ligand.clash>
0.0000

> <Gold.PLP.ligand.torsion>
1.0515

> <Gold.PLP.Chemscore.Hbond>
2.7520

> <Gold.PLP.Chemscore.CHOScore>
0.0000

> <Gold.PLP.Chemscore.Metal>
0.0000

> <Gold.Chemscore.Hbonds>
donor molecule, donor type, donor heavy atom, donor atom, acceptor molecule, acceptor atom, score
      L1  H    13    52       P1  8028  2.00
      L1  H    19    51       P1 10171  0.58

> <Gold.PLP.Chemscore.Internal.Correction>
0.2161

> <Gold.Rescore>
     Score         DG    S(hbond)    S(metal)    S(lipo)     H(rot)  DE(clash)    DE(int)     intcor
     17.22     -22.52       1.78        0.00     116.67       1.00       2.81       2.50       ----

> <Gold.Chemscore.Fitness>
17.2182

> <Gold.Chemscore.DG>
-22.5231

> <Gold.Chemscore.ZeroCoef>
-5.4800

> <Gold.Chemscore.Hbond>
1.7823

> <Gold.Chemscore.Metal>
0.0000

> <Gold.Chemscore.Lipo>
116.6689

> <Gold.Chemscore.Internal_Hbond>
0.0000

> <Gold.Chemscore.DEClash>
2.8088

> <Gold.Chemscore.DEInternal>
2.4961

> <Gold.Chemscore.Rot>
1.0000

> <Gold.Chemscore.Internal.Correction>
   9.000000E+99

> <Gold.Chemscore.Hbonds>
donor molecule, donor type, donor heavy atom, donor atom, acceptor molecule, acceptor atom, score
      L1  H    13    52       P1  8028  0.98
      L1  H    19    51       P1 10171  0.56

> <Gold.Chemscore.Hbond.Weighted>
-5.9529

> <Gold.Chemscore.Metal.Weighted>
-0.0000

> <Gold.Chemscore.Lipo.Weighted>
-13.6503

> <Gold.Chemscore.Internal_Hbond.Weighted>
0.0000

> <Gold.Chemscore.DEClash.Weighted>
2.8088

> <Gold.Chemscore.DEInternal.Weighted>
2.4961

> <Gold.Chemscore.Rot.Weighted>
2.5600

> <Gold.Chemscore.Internal.Correction.Weighted>
   9.000000E+99

> <Gold.Protein.RotatedTorsions>
[ 6907 6896 6895 6894 ] final   24.34 input  -60.11 | X-H torsion
[ 7974 7965 7964 7962 ] final -124.66 input  175.53 | X-H torsion
[ 8008 7997 7996 7995 ] final  164.29 input   59.86 | X-H torsion
[ 10167 10162 10161 10158 ] final -133.19 input  -65.29 | X-H torsion
[ 10718 10713 10712 10709 ] final   84.60 input   66.30 | X-H torsion
[ 10763 10752 10751 10750 ] final   33.83 input  -60.55 | X-H torsion
[ 11005 11000 10999 10996 ] final -117.03 input  -57.11 | X-H torsion

> <Gold.Protein.ActiveResidues>
 VAL166  LYS551  ARG553  GLY616  TRP617  ASP618  TYR619  PRO620  LYS621  CYS622 
 ASP623  PHE694  ASN695  SER759  ASP760  ASP761  ALA762  ILE779  LEU786  VAL792 
 PHE793  MET794  SER795  GLU796  ALA797  LYS798  CYS799  TRP800  GLU811  SER814 

> <Gold.Protein.RotatedAtoms>
  151.9560  135.0146  160.0544 H   0  0  0  0  0  0  0  0  0  0  0  0  # atno 6907 bound_to 6896
  152.1911  133.4769  159.5016 H   0  0  0  0  0  0  0  0  0  0  0  0  # atno 6908 bound_to 6896
  150.6935  134.1628  159.4226 H   0  0  0  0  0  0  0  0  0  0  0  0  # atno 6909 bound_to 6896
  145.0057  140.7861  143.4469 H   0  0  0  0  0  0  0  0  0  0  0  0  # atno 7974 bound_to 7965
  156.1891  140.1700  156.8127 H   0  0  0  0  0  0  0  0  0  0  0  0  # atno 8008 bound_to 7997
  154.5450  140.0729  156.8605 H   0  0  0  0  0  0  0  0  0  0  0  0  # atno 8009 bound_to 7997
  155.3140  140.3369  155.4245 H   0  0  0  0  0  0  0  0  0  0  0  0  # atno 8010 bound_to 7997
  139.9008  143.6609  152.2595 H   0  0  0  0  0  0  0  0  0  0  0  0  # atno 10167 bound_to 10162
  157.6901  131.0140  150.2697 H   0  0  0  0  0  0  0  0  0  0  0  0  # atno 10718 bound_to 10713
  153.0193  135.6376  154.1574 H   0  0  0  0  0  0  0  0  0  0  0  0  # atno 10763 bound_to 10752
  154.1310  135.2840  155.3187 H   0  0  0  0  0  0  0  0  0  0  0  0  # atno 10764 bound_to 10752
  154.6194  135.5530  153.7621 H   0  0  0  0  0  0  0  0  0  0  0  0  # atno 10765 bound_to 10752
  141.0382  133.9876  157.3037 H   0  0  0  0  0  0  0  0  0  0  0  0  # atno 11005 bound_to 11000
  145.2092  139.2213  143.5152 LP  0  0  0  0  0  0  0  0  0  0  0  0  # atno 17320 bound_to 7965
  146.3460  140.1926  142.8589 LP  0  0  0  0  0  0  0  0  0  0  0  0  # atno 17321 bound_to 7965
  139.7027  144.7632  151.1246 LP  0  0  0  0  0  0  0  0  0  0  0  0  # atno 17342 bound_to 10162
  140.7707  143.5436  150.9284 LP  0  0  0  0  0  0  0  0  0  0  0  0  # atno 17343 bound_to 10162
  156.3262  130.3793  149.7531 LP  0  0  0  0  0  0  0  0  0  0  0  0  # atno 17370 bound_to 10713
  156.5086  130.8161  151.3160 LP  0  0  0  0  0  0  0  0  0  0  0  0  # atno 17371 bound_to 10713
  139.9256  135.0201  156.8223 LP  0  0  0  0  0  0  0  0  0  0  0  0  # atno 17394 bound_to 11000
  140.6283  133.9930  155.7650 LP  0  0  0  0  0  0  0  0  0  0  0  0  # atno 17395 bound_to 11000

$$$$
