AV-unprocessed.smi:1480|AV-procd|sdf|5986|dock8
  -GOLD-   22720 6 83D 1   1.00000     0.00000
 Structure written by MMmdl.
 37 38  0  0  0  0  0  0  0  0  1 V2000
  151.6220  145.7283  160.0871 C   0  0  0  0  0  0  0  0  0  0  0  0
  152.1188  144.3518  160.0464 N   0  0  0  0  0  0  0  0  0  0  0  0
  152.4057  143.7546  161.3585 C   0  0  0  0  0  0  0  0  0  0  0  0
  153.2927  142.5052  161.2841 C   0  0  0  0  0  0  0  0  0  0  0  0
  152.7648  141.5475  160.2082 C   0  0  2  0  0  0  0  0  0  0  0  0
  153.6060  140.2635  160.1604 C   0  0  0  0  0  0  0  0  0  0  0  0
  154.1588  139.9361  159.1103 O   0  0  0  0  0  0  0  0  0  0  0  0
  153.6815  139.5709  161.3120 N   0  0  0  0  0  0  0  0  0  0  0  0
  154.3635  138.3539  161.5714 C   0  0  0  0  0  0  0  0  0  0  0  0
  154.5585  137.7533  162.8517 C   0  0  0  0  0  0  0  0  0  0  0  0
  155.2663  136.6218  162.5621 C   0  0  0  0  0  0  0  0  0  0  0  0
  155.4568  136.5885  161.1951 N   0  0  0  0  0  0  0  0  0  0  0  0
  156.1519  135.5862  160.4072 C   0  0  0  0  0  0  0  0  0  0  0  0
  155.2049  134.9085  159.4157 C   0  0  0  0  0  0  0  0  0  0  0  0
  155.7154  133.9427  158.6475 N   0  0  0  0  0  0  0  0  0  0  0  0
  154.0271  135.2525  159.3450 O   0  0  0  0  0  0  0  0  0  0  0  0
  154.9000  137.6576  160.5836 N   0  0  0  0  0  0  0  0  0  0  0  0
  152.7627  142.2570  158.8388 C   0  0  0  0  0  0  0  0  0  0  0  0
  152.2047  143.6901  158.8669 C   0  0  0  0  0  0  0  0  0  0  0  0
  151.8794  144.2044  157.7964 O   0  0  0  0  0  0  0  0  0  0  0  0
  150.6116  145.7842  159.6793 H   0  0  0  0  0  0  0  0  0  0  0  0
  152.2641  146.3858  159.4995 H   0  0  0  0  0  0  0  0  0  0  0  0
  151.5847  146.1252  161.1021 H   0  0  0  0  0  0  0  0  0  0  0  0
  152.8831  144.4880  162.0100 H   0  0  0  0  0  0  0  0  0  0  0  0
  151.4533  143.4979  161.8244 H   0  0  0  0  0  0  0  0  0  0  0  0
  154.3173  142.8033  161.0544 H   0  0  0  0  0  0  0  0  0  0  0  0
  153.3213  142.0159  162.2588 H   0  0  0  0  0  0  0  0  0  0  0  0
  151.7364  141.2813  160.4609 H   0  0  0  0  0  0  0  0  0  0  0  0
  153.1845  139.9616  162.0991 H   0  0  0  0  0  0  0  0  0  0  0  0
  154.2415  138.0820  163.8295 H   0  0  0  0  0  0  0  0  0  0  0  0
  155.6462  135.8437  163.2077 H   0  0  0  0  0  0  0  0  0  0  0  0
  156.9875  136.0473  159.8777 H   0  0  0  0  0  0  0  0  0  0  0  0
  156.5738  134.8420  161.0840 H   0  0  0  0  0  0  0  0  0  0  0  0
  155.1260  133.4629  157.9825 H   0  0  0  0  0  0  0  0  0  0  0  0
  156.6892  133.6915  158.7393 H   0  0  0  0  0  0  0  0  0  0  0  0
  153.7760  142.3204  158.4393 H   0  0  0  0  0  0  0  0  0  0  0  0
  152.1864  141.6702  158.1221 H   0  0  0  0  0  0  0  0  0  0  0  0
  1  2  1  0  0  0  0
  1 21  1  0  0  0  0
  1 22  1  0  0  0  0
  1 23  1  0  0  0  0
  2 19  1  0  0  0  0
  2  3  1  0  0  0  0
  3  4  1  0  0  0  0
  3 24  1  0  0  0  0
  3 25  1  0  0  0  0
  4  5  1  0  0  0  0
  4 26  1  0  0  0  0
  4 27  1  0  0  0  0
  5  6  1  0  0  0  0
  5 18  1  0  0  0  0
  5 28  1  0  0  0  0
  6  7  2  0  0  0  0
  6  8  1  0  0  0  0
  8  9  1  0  0  0  0
  8 29  1  0  0  0  0
  9 17  2  0  0  0  0
  9 10  1  0  0  0  0
 10 11  2  0  0  0  0
 10 30  1  0  0  0  0
 11 12  1  0  0  0  0
 11 31  1  0  0  0  0
 12 13  1  0  0  0  0
 12 17  1  0  0  0  0
 13 14  1  0  0  0  0
 13 32  1  0  0  0  0
 13 33  1  0  0  0  0
 14 15  1  0  0  0  0
 14 16  2  0  0  0  0
 15 34  1  0  0  0  0
 15 35  1  0  0  0  0
 18 19  1  0  0  0  0
 18 36  1  0  0  0  0
 18 37  1  0  0  0  0
 19 20  2  0  0  0  0
M  END
> <s_m_source_file>
AV-unprocessed.smi

> <i_m_source_file_index>
1480

> <i_lp_mmshare_version>
43012

> <i_f3d_flags>
0

> <s_epik_input>
W0NIM11OMVtDSDJdW0NIMl1bQ0BIXShbQ0gyXUMxPU8pQyg9TylbTkhdYzJbY0hdW2NIXW4objIpW0NIMl1DKD1PKVtOSDJd

> <s_epik_cmdline>
J2VwaWtfcHl0aG9uJywgJy1waCcsICc3LjAnLCAnLXRuJywgJzgnLCAnLW1hJywgJzIwMCcsICctbWV0YWxfYmluZGluZycsICctaW1hZScsICc8aW5maWxlLm1hZT4nLCAnLW9tYWUnLCAnPG91dGZpbGUubWFlPic=

> <r_lp_tautomer_probability>
1

> <r_epik_Ionization_Penalty>
3.93272e-06

> <r_epik_Ionization_Penalty_Charging>
0

> <r_epik_Ionization_Penalty_Neutral>
3.93272e-06

> <r_epik_State_Penalty>
-0

> <r_epik_Charging_Adjusted_Penalty>
0

> <i_epik_Tot_Q>
0

> <i_epik_Tot_abs_Q>
0

> <r_epik_Metal_State_Penalty>
-0

> <b_epik_Metal_Only>
0

> <s_lp_Force_Field>
OPLS_2005

> <r_lp_Energy>
16.8293

> <b_lp_Chiralities_Consistent>
1

> <s_lp_Variant>
AV-unprocessed.smi:1480-2

> <Gold.Version>
5.8.1

> <Gold.Id.Protein>
6NUR|6NUR_protein|mol2

> <Gold.PLP.Fitness>
43.0954

> <Gold.PLP.PLP>
-37.1479

> <Gold.PLP.part.hbond>
-2.0000

> <Gold.PLP.part.metal>
0.0000

> <Gold.PLP.part.buried>
-3.2538

> <Gold.PLP.part.nonpolar>
-32.8225

> <Gold.PLP.part.repulsive>
0.1590

> <Gold.PLP.ligand.clash>
0.0000

> <Gold.PLP.ligand.torsion>
0.0298

> <Gold.PLP.Chemscore.Hbond>
2.0000

> <Gold.PLP.Chemscore.CHOScore>
0.0000

> <Gold.PLP.Chemscore.Metal>
0.0000

> <Gold.Chemscore.Hbonds>
donor molecule, donor type, donor heavy atom, donor atom, acceptor molecule, acceptor atom, score
      P1  H  6896  6907       L1    16  1.00
      P1  H  7997  8008       L1     7  1.00

> <Gold.PLP.Chemscore.Internal.Correction>
0.0072

> <Gold.Rescore>
     Score         DG    S(hbond)    S(metal)    S(lipo)     H(rot)  DE(clash)    DE(int)     intcor
     12.26     -15.20       1.96        0.00      71.48       2.03       0.31       2.62       ----

> <Gold.Chemscore.Fitness>
12.2628

> <Gold.Chemscore.DG>
-15.1961

> <Gold.Chemscore.ZeroCoef>
-5.4800

> <Gold.Chemscore.Hbond>
1.9585

> <Gold.Chemscore.Metal>
0.0000

> <Gold.Chemscore.Lipo>
71.4814

> <Gold.Chemscore.Internal_Hbond>
0.0000

> <Gold.Chemscore.DEClash>
0.3141

> <Gold.Chemscore.DEInternal>
2.6192

> <Gold.Chemscore.Rot>
2.0269

> <Gold.Chemscore.Internal.Correction>
   9.000000E+99

> <Gold.Chemscore.Hbonds>
donor molecule, donor type, donor heavy atom, donor atom, acceptor molecule, acceptor atom, score
      P1  H  6896  6907       L1    16  1.00
      P1  H  7997  8008       L1     7  0.94

> <Gold.Chemscore.Hbond.Weighted>
-6.5415

> <Gold.Chemscore.Metal.Weighted>
-0.0000

> <Gold.Chemscore.Lipo.Weighted>
-8.3633

> <Gold.Chemscore.Internal_Hbond.Weighted>
0.0000

> <Gold.Chemscore.DEClash.Weighted>
0.3141

> <Gold.Chemscore.DEInternal.Weighted>
2.6192

> <Gold.Chemscore.Rot.Weighted>
5.1888

> <Gold.Chemscore.Internal.Correction.Weighted>
   9.000000E+99

> <Gold.Protein.RotatedTorsions>
[ 6907 6896 6895 6894 ] final   71.36 input  -60.11 | X-H torsion
[ 7974 7965 7964 7962 ] final -130.37 input  175.53 | X-H torsion
[ 8008 7997 7996 7995 ] final -115.06 input   59.86 | X-H torsion
[ 10167 10162 10161 10158 ] final  -15.15 input  -65.29 | X-H torsion
[ 10718 10713 10712 10709 ] final   38.26 input   66.30 | X-H torsion
[ 10763 10752 10751 10750 ] final   62.59 input  -60.55 | X-H torsion
[ 11005 11000 10999 10996 ] final -177.96 input  -57.11 | X-H torsion

> <Gold.Protein.ActiveResidues>
 VAL166  LYS551  ARG553  GLY616  TRP617  ASP618  TYR619  PRO620  LYS621  CYS622 
 ASP623  PHE694  ASN695  SER759  ASP760  ASP761  ALA762  ILE779  LEU786  VAL792 
 PHE793  MET794  SER795  GLU796  ALA797  LYS798  CYS799  TRP800  GLU811  SER814 

> <Gold.Protein.RotatedAtoms>
  152.4805  134.4731  159.9641 H   0  0  0  0  0  0  0  0  0  0  0  0  # atno 6907 bound_to 6896
  151.4738  133.3556  159.2835 H   0  0  0  0  0  0  0  0  0  0  0  0  # atno 6908 bound_to 6896
  150.8874  134.8300  159.7330 H   0  0  0  0  0  0  0  0  0  0  0  0  # atno 6909 bound_to 6896
  144.9481  140.7314  143.4805 H   0  0  0  0  0  0  0  0  0  0  0  0  # atno 7974 bound_to 7965
  155.0462  140.0392  157.2527 H   0  0  0  0  0  0  0  0  0  0  0  0  # atno 8008 bound_to 7997
  154.7176  140.2705  155.6547 H   0  0  0  0  0  0  0  0  0  0  0  0  # atno 8009 bound_to 7997
  156.2807  140.2709  156.1837 H   0  0  0  0  0  0  0  0  0  0  0  0  # atno 8010 bound_to 7997
  140.7213  143.5247  150.9591 H   0  0  0  0  0  0  0  0  0  0  0  0  # atno 10167 bound_to 10162
  157.3567  130.7627  149.7017 H   0  0  0  0  0  0  0  0  0  0  0  0  # atno 10718 bound_to 10713
  152.9988  135.5459  154.6217 H   0  0  0  0  0  0  0  0  0  0  0  0  # atno 10763 bound_to 10752
  154.5515  135.2827  155.1006 H   0  0  0  0  0  0  0  0  0  0  0  0  # atno 10764 bound_to 10752
  154.2244  135.6445  153.5207 H   0  0  0  0  0  0  0  0  0  0  0  0  # atno 10765 bound_to 10752
  140.4351  134.6483  157.4731 H   0  0  0  0  0  0  0  0  0  0  0  0  # atno 11005 bound_to 11000
  145.2886  139.1892  143.4752 LP  0  0  0  0  0  0  0  0  0  0  0  0  # atno 17320 bound_to 7965
  146.3311  140.2859  142.8612 LP  0  0  0  0  0  0  0  0  0  0  0  0  # atno 17321 bound_to 7965
  139.8966  143.6887  152.3137 LP  0  0  0  0  0  0  0  0  0  0  0  0  # atno 17342 bound_to 10162
  139.7222  144.7600  151.0937 LP  0  0  0  0  0  0  0  0  0  0  0  0  # atno 17343 bound_to 10162
  155.9730  130.4125  150.4037 LP  0  0  0  0  0  0  0  0  0  0  0  0  # atno 17370 bound_to 10713
  157.2108  131.0460  151.2600 LP  0  0  0  0  0  0  0  0  0  0  0  0  # atno 17371 bound_to 10713
  140.0108  134.6694  155.9384 LP  0  0  0  0  0  0  0  0  0  0  0  0  # atno 17394 bound_to 11000
  141.1729  133.6538  156.4719 LP  0  0  0  0  0  0  0  0  0  0  0  0  # atno 17395 bound_to 11000

$$$$
