AV-unprocessed.smi:331|AV-procd|sdf|2350|dock8
  -GOLD-   2262022263D 1   1.00000     0.00000
 Structure written by MMmdl.
 36 37  0  0  0  0  0  0  0  0  1 V2000
  151.0295  140.9631  157.0396 O   0  0  0  0  0  0  0  0  0  0  0  0
  150.5326  142.0143  156.6399 C   0  0  0  0  0  0  0  0  0  0  0  0
  149.5321  142.0674  155.7455 N   0  0  0  0  0  0  0  0  0  0  0  0
  148.9665  140.9173  155.0488 C   0  0  0  0  0  0  0  0  0  0  0  0
  147.9825  141.3375  153.9403 C   0  0  0  0  0  0  0  0  0  0  0  0
  147.3166  140.1574  153.2529 C   0  0  0  0  0  0  0  0  0  0  0  0
  146.6775  139.1470  154.0016 C   0  0  0  0  0  0  0  0  0  0  0  0
  146.0917  138.0643  153.3184 C   0  0  0  0  0  0  0  0  0  0  0  0
  146.1669  138.0398  151.9114 C   0  0  0  0  0  0  0  0  0  0  0  0
  146.7743  139.0022  151.1842 N   0  0  0  0  0  0  0  0  0  0  0  0
  147.3346  140.0366  151.8473 C   0  0  0  0  0  0  0  0  0  0  0  0
  150.9554  143.2135  157.0779 N   0  0  0  0  0  0  0  0  0  0  0  0
  152.0195  143.4926  158.0456 C   0  0  0  0  0  0  0  0  0  0  0  0
  151.6864  142.8710  159.4153 C   0  0  0  0  0  0  0  0  0  0  0  0
  151.9605  143.9611  160.4523 C   0  0  0  0  0  0  0  0  0  0  0  0
  151.6754  145.2632  159.7112 C   0  0  0  0  0  0  0  0  0  0  0  0
  152.1848  145.0063  158.2925 C   0  0  0  0  0  0  0  0  0  0  0  0
  149.1750  142.9760  155.4880 H   0  0  0  0  0  0  0  0  0  0  0  0
  149.7583  140.2879  154.6398 H   0  0  0  0  0  0  0  0  0  0  0  0
  148.4435  140.3116  155.7893 H   0  0  0  0  0  0  0  0  0  0  0  0
  147.2102  141.9842  154.3590 H   0  0  0  0  0  0  0  0  0  0  0  0
  148.5039  141.9362  153.1927 H   0  0  0  0  0  0  0  0  0  0  0  0
  146.6441  139.1947  155.0803 H   0  0  0  0  0  0  0  0  0  0  0  0
  145.5972  137.2712  153.8594 H   0  0  0  0  0  0  0  0  0  0  0  0
  145.7284  137.2243  151.3552 H   0  0  0  0  0  0  0  0  0  0  0  0
  147.8170  140.7869  151.2383 H   0  0  0  0  0  0  0  0  0  0  0  0
  150.4371  144.0174  156.7541 H   0  0  0  0  0  0  0  0  0  0  0  0
  152.9638  143.0746  157.6912 H   0  0  0  0  0  0  0  0  0  0  0  0
  150.6319  142.5935  159.4661 H   0  0  0  0  0  0  0  0  0  0  0  0
  152.2661  141.9678  159.6095 H   0  0  0  0  0  0  0  0  0  0  0  0
  151.3546  143.8468  161.3515 H   0  0  0  0  0  0  0  0  0  0  0  0
  153.0094  143.9304  160.7503 H   0  0  0  0  0  0  0  0  0  0  0  0
  150.6000  145.4448  159.6888 H   0  0  0  0  0  0  0  0  0  0  0  0
  152.1502  146.1265  160.1786 H   0  0  0  0  0  0  0  0  0  0  0  0
  153.2435  145.2633  158.2386 H   0  0  0  0  0  0  0  0  0  0  0  0
  151.6682  145.6262  157.5583 H   0  0  0  0  0  0  0  0  0  0  0  0
  1  2  2  0  0  0  0
  2  3  1  0  0  0  0
  2 12  1  0  0  0  0
  3  4  1  0  0  0  0
  3 18  1  0  0  0  0
  4  5  1  0  0  0  0
  4 19  1  0  0  0  0
  4 20  1  0  0  0  0
  5  6  1  0  0  0  0
  5 21  1  0  0  0  0
  5 22  1  0  0  0  0
  6 11  1  0  0  0  0
  6  7  2  0  0  0  0
  7  8  1  0  0  0  0
  7 23  1  0  0  0  0
  8  9  2  0  0  0  0
  8 24  1  0  0  0  0
  9 10  1  0  0  0  0
  9 25  1  0  0  0  0
 10 11  2  0  0  0  0
 11 26  1  0  0  0  0
 12 13  1  0  0  0  0
 12 27  1  0  0  0  0
 13 17  1  0  0  0  0
 13 14  1  0  0  0  0
 13 28  1  0  0  0  0
 14 15  1  0  0  0  0
 14 29  1  0  0  0  0
 14 30  1  0  0  0  0
 15 16  1  0  0  0  0
 15 31  1  0  0  0  0
 15 32  1  0  0  0  0
 16 17  1  0  0  0  0
 16 33  1  0  0  0  0
 16 34  1  0  0  0  0
 17 35  1  0  0  0  0
 17 36  1  0  0  0  0
M  END
> <s_m_source_file>
AV-unprocessed.smi

> <i_m_source_file_index>
331

> <i_lp_mmshare_version>
43012

> <i_f3d_flags>
0

> <s_epik_input>
W0NIMl0xW0NIMl1bQ0gyXVtDSDJdW0NIXTFbTkhdQyg9TylbTkhdW0NIMl1bQ0gyXWMyW2NIXVtjSF1bY0hdbltjSF0y

> <s_epik_cmdline>
J2VwaWtfcHl0aG9uJywgJy1waCcsICc3LjAnLCAnLXRuJywgJzgnLCAnLW1hJywgJzIwMCcsICctbWV0YWxfYmluZGluZycsICctaW1hZScsICc8aW5maWxlLm1hZT4nLCAnLW9tYWUnLCAnPG91dGZpbGUubWFlPic=

> <r_epik_Ionization_Penalty>
0.0144384

> <r_epik_Ionization_Penalty_Charging>
0

> <r_epik_Ionization_Penalty_Neutral>
0.0144384

> <r_epik_State_Penalty>
0.0112394

> <r_epik_Charging_Adjusted_Penalty>
0.0112394

> <i_epik_Tot_Q>
0

> <i_epik_Tot_abs_Q>
0

> <r_epik_Metal_State_Penalty>
0.0109726

> <b_epik_Metal_Only>
0

> <s_lp_Force_Field>
OPLS_2005

> <r_lp_Energy>
25.692

> <b_lp_Chiralities_Consistent>
1

> <s_lp_Variant>
AV-unprocessed.smi:331-1

> <Gold.Version>
5.8.1

> <Gold.Id.Protein>
6NUR|6NUR_protein|mol2

> <Gold.PLP.Fitness>
44.8549

> <Gold.PLP.PLP>
-36.1473

> <Gold.PLP.part.hbond>
-2.9874

> <Gold.PLP.part.metal>
0.0000

> <Gold.PLP.part.buried>
0.8686

> <Gold.PLP.part.nonpolar>
-34.3401

> <Gold.PLP.part.repulsive>
1.7008

> <Gold.PLP.ligand.clash>
0.0000

> <Gold.PLP.ligand.torsion>
0.1035

> <Gold.PLP.Chemscore.Hbond>
2.5676

> <Gold.PLP.Chemscore.CHOScore>
0.4015

> <Gold.PLP.Chemscore.Metal>
0.0000

> <Gold.Chemscore.Hbonds>
donor molecule, donor type, donor heavy atom, donor atom, acceptor molecule, acceptor atom, score
      L1  H     3    18       P1  8028  1.00
      L1  H    12    27       P1  8028  0.98
      P1  H  7954  7966       L1    10  0.49
      L1  C     9    25       P1 10171  0.17
      L1  C    11    26       P1  7957  0.27

> <Gold.PLP.Chemscore.Internal.Correction>
0.0072

> <Gold.Rescore>
     Score         DG    S(hbond)    S(metal)    S(lipo)     H(rot)  DE(clash)    DE(int)     intcor
     19.32     -21.21       2.10        0.00     107.47       1.51       1.78       0.11       ----

> <Gold.Chemscore.Fitness>
19.3170

> <Gold.Chemscore.DG>
-21.2076

> <Gold.Chemscore.ZeroCoef>
-5.4800

> <Gold.Chemscore.Hbond>
2.0983

> <Gold.Chemscore.Metal>
0.0000

> <Gold.Chemscore.Lipo>
107.4738

> <Gold.Chemscore.Internal_Hbond>
0.0000

> <Gold.Chemscore.DEClash>
1.7766

> <Gold.Chemscore.DEInternal>
0.1140

> <Gold.Chemscore.Rot>
1.5060

> <Gold.Chemscore.Internal.Correction>
   9.000000E+99

> <Gold.Chemscore.Hbonds>
donor molecule, donor type, donor heavy atom, donor atom, acceptor molecule, acceptor atom, score
      L1  H     3    18       P1  8028  0.99
      L1  H    12    27       P1  8028  0.89
      P1  H  7954  7966       L1    10  0.20

> <Gold.Chemscore.Hbond.Weighted>
-7.0084

> <Gold.Chemscore.Metal.Weighted>
-0.0000

> <Gold.Chemscore.Lipo.Weighted>
-12.5744

> <Gold.Chemscore.Internal_Hbond.Weighted>
0.0000

> <Gold.Chemscore.DEClash.Weighted>
1.7766

> <Gold.Chemscore.DEInternal.Weighted>
0.1140

> <Gold.Chemscore.Rot.Weighted>
3.8553

> <Gold.Chemscore.Internal.Correction.Weighted>
   9.000000E+99

> <Gold.Protein.RotatedTorsions>
[ 6907 6896 6895 6894 ] final  -17.11 input  -60.11 | X-H torsion
[ 7974 7965 7964 7962 ] final  168.41 input  175.53 | X-H torsion
[ 8008 7997 7996 7995 ] final  170.94 input   59.86 | X-H torsion
[ 10167 10162 10161 10158 ] final -113.20 input  -65.29 | X-H torsion
[ 10718 10713 10712 10709 ] final   73.12 input   66.30 | X-H torsion
[ 10763 10752 10751 10750 ] final   45.43 input  -60.55 | X-H torsion
[ 11005 11000 10999 10996 ] final  -35.35 input  -57.11 | X-H torsion

> <Gold.Protein.ActiveResidues>
 VAL166  LYS551  ARG553  GLY616  TRP617  ASP618  TYR619  PRO620  LYS621  CYS622 
 ASP623  PHE694  ASN695  SER759  ASP760  ASP761  ALA762  ILE779  LEU786  VAL792 
 PHE793  MET794  SER795  GLU796  ALA797  LYS798  CYS799  TRP800  GLU811  SER814 

> <Gold.Protein.RotatedAtoms>
  151.2983  135.0761  159.9229 H   0  0  0  0  0  0  0  0  0  0  0  0  # atno 6907 bound_to 6896
  152.5303  133.9860  159.7839 H   0  0  0  0  0  0  0  0  0  0  0  0  # atno 6908 bound_to 6896
  151.0142  133.5885  159.2709 H   0  0  0  0  0  0  0  0  0  0  0  0  # atno 6909 bound_to 6896
  144.7390  139.8903  143.6402 H   0  0  0  0  0  0  0  0  0  0  0  0  # atno 7974 bound_to 7965
  156.1318  140.1525  156.9053 H   0  0  0  0  0  0  0  0  0  0  0  0  # atno 8008 bound_to 7997
  154.4915  140.0850  156.7645 H   0  0  0  0  0  0  0  0  0  0  0  0  # atno 8009 bound_to 7997
  155.4241  140.3424  155.4276 H   0  0  0  0  0  0  0  0  0  0  0  0  # atno 8010 bound_to 7997
  140.1144  143.4498  152.1731 H   0  0  0  0  0  0  0  0  0  0  0  0  # atno 10167 bound_to 10162
  157.6533  130.9613  150.1024 H   0  0  0  0  0  0  0  0  0  0  0  0  # atno 10718 bound_to 10713
  152.9825  135.6040  154.3435 H   0  0  0  0  0  0  0  0  0  0  0  0  # atno 10763 bound_to 10752
  154.3130  135.2771  155.2559 H   0  0  0  0  0  0  0  0  0  0  0  0  # atno 10764 bound_to 10752
  154.4760  135.5929  153.6411 H   0  0  0  0  0  0  0  0  0  0  0  0  # atno 10765 bound_to 10752
  140.9789  133.7067  156.1650 H   0  0  0  0  0  0  0  0  0  0  0  0  # atno 11005 bound_to 11000
  146.1147  139.4156  143.0266 LP  0  0  0  0  0  0  0  0  0  0  0  0  # atno 17320 bound_to 7965
  145.7392  141.0014  143.1310 LP  0  0  0  0  0  0  0  0  0  0  0  0  # atno 17321 bound_to 7965
  139.5602  144.7400  151.4178 LP  0  0  0  0  0  0  0  0  0  0  0  0  # atno 17342 bound_to 10162
  140.6907  143.7868  150.7251 LP  0  0  0  0  0  0  0  0  0  0  0  0  # atno 17343 bound_to 10162
  156.1943  130.3656  149.8869 LP  0  0  0  0  0  0  0  0  0  0  0  0  # atno 17370 bound_to 10713
  156.6789  130.8850  151.3573 LP  0  0  0  0  0  0  0  0  0  0  0  0  # atno 17371 bound_to 10713
  140.7216  134.4352  157.5574 LP  0  0  0  0  0  0  0  0  0  0  0  0  # atno 17394 bound_to 11000
  139.8942  134.8712  156.2188 LP  0  0  0  0  0  0  0  0  0  0  0  0  # atno 17395 bound_to 11000

$$$$
