AV-unprocessed.smi:2030|AV-procd|sdf|8227|dock9
  -GOLD-   2272010493D 1   1.00000     0.00000
 Structure written by MMmdl.
 35 36  0  0  0  0  0  0  0  0  3 V2000
  154.7824  136.7261  157.8181 C   0  0  0  0  0  0  0  0  0  0  0  0
  153.4359  137.2875  157.9201 N   0  0  0  0  0  0  0  0  0  0  0  0
  153.1284  138.1692  156.9048 N   0  0  0  0  0  0  0  0  0  0  0  0
  151.9205  138.5893  156.6891 C   0  0  0  0  0  0  0  0  0  0  0  0
  151.6552  139.5159  155.5484 C   0  0  0  0  0  0  0  0  0  0  0  0
  152.5371  139.5518  154.6816 O   0  0  0  0  0  0  0  0  0  0  0  0
  150.4977  140.2422  155.5520 N   0  5  0  0  0  0  0  0  0  0  0  0
  150.3837  141.6469  155.9437 C   0  0  0  0  0  0  0  0  0  0  0  0
  149.8911  141.7462  157.4039 C   0  0  0  0  0  0  0  0  0  0  0  0
  150.7606  142.6136  158.3093 C   0  0  0  0  0  0  0  0  0  0  0  0
  151.7007  142.0534  159.2044 C   0  0  0  0  0  0  0  0  0  0  0  0
  152.4832  142.9056  160.0100 C   0  0  0  0  0  0  0  0  0  0  0  0
  152.3069  144.3013  159.9127 C   0  0  0  0  0  0  0  0  0  0  0  0
  151.3510  144.8096  159.0099 C   0  0  0  0  0  0  0  0  0  0  0  0
  150.6214  143.9606  158.2538 N   0  3  0  0  0  0  0  0  0  0  0  0
  150.7763  138.1091  157.5633 C   0  0  0  0  0  0  0  0  0  0  0  0
  151.2538  137.7000  158.9698 C   0  0  0  0  0  0  0  0  0  0  0  0
  152.5950  136.9626  158.9353 C   0  0  0  0  0  0  0  0  0  0  0  0
  152.8588  136.1450  159.8169 O   0  0  0  0  0  0  0  0  0  0  0  0
  155.0643  136.0998  158.6653 H   0  0  0  0  0  0  0  0  0  0  0  0
  155.5194  137.5273  157.7498 H   0  0  0  0  0  0  0  0  0  0  0  0
  154.8648  136.1180  156.9167 H   0  0  0  0  0  0  0  0  0  0  0  0
  151.3341  142.1759  155.8590 H   0  0  0  0  0  0  0  0  0  0  0  0
  149.6855  142.1825  155.3001 H   0  0  0  0  0  0  0  0  0  0  0  0
  148.8782  142.1505  157.4120 H   0  0  0  0  0  0  0  0  0  0  0  0
  149.8151  140.7475  157.8363 H   0  0  0  0  0  0  0  0  0  0  0  0
  151.8302  140.9821  159.2592 H   0  0  0  0  0  0  0  0  0  0  0  0
  153.2114  142.4927  160.6924 H   0  0  0  0  0  0  0  0  0  0  0  0
  152.8980  144.9715  160.5193 H   0  0  0  0  0  0  0  0  0  0  0  0
  151.1513  145.8615  158.8676 H   0  0  0  0  0  0  0  0  0  0  0  0
  150.0216  138.8882  157.6757 H   0  0  0  0  0  0  0  0  0  0  0  0
  150.2815  137.2674  157.0776 H   0  0  0  0  0  0  0  0  0  0  0  0
  151.3868  138.5911  159.5842 H   0  0  0  0  0  0  0  0  0  0  0  0
  150.4989  137.0871  159.4634 H   0  0  0  0  0  0  0  0  0  0  0  0
  149.9406  144.3501  157.6017 H   0  0  0  0  0  0  0  0  0  0  0  0
  1  2  1  0  0  0  0
  1 20  1  0  0  0  0
  1 21  1  0  0  0  0
  1 22  1  0  0  0  0
  2 18  1  0  0  0  0
  2  3  1  0  0  0  0
  3  4  2  0  0  0  0
  4  5  1  0  0  0  0
  4 16  1  0  0  0  0
  5  6  2  0  0  0  0
  5  7  1  0  0  0  0
  7  8  1  0  0  0  0
  8  9  1  0  0  0  0
  8 23  1  0  0  0  0
  8 24  1  0  0  0  0
  9 10  1  0  0  0  0
  9 25  1  0  0  0  0
  9 26  1  0  0  0  0
 10 15  1  0  0  0  0
 10 11  2  0  0  0  0
 11 12  1  0  0  0  0
 11 27  1  0  0  0  0
 12 13  2  0  0  0  0
 12 28  1  0  0  0  0
 13 14  1  0  0  0  0
 13 29  1  0  0  0  0
 14 15  2  0  0  0  0
 14 30  1  0  0  0  0
 15 35  1  0  0  0  0
 16 17  1  0  0  0  0
 16 31  1  0  0  0  0
 16 32  1  0  0  0  0
 17 18  1  0  0  0  0
 17 33  1  0  0  0  0
 17 34  1  0  0  0  0
 18 19  2  0  0  0  0
M  CHG  1   7  -1
M  CHG  1  15   1
M  END
> <s_m_source_file>
AV-unprocessed.smi

> <i_m_source_file_index>
2030

> <i_lp_mmshare_version>
43012

> <i_f3d_flags>
0

> <s_epik_input>
Tz1DMVtDSDJdW0NIMl1DKD1OTjFbQ0gzXSlDKD1PKVtOSF1bQ0gyXVtDSDJdYzJbY0hdW2NIXVtjSF1bY0hdbjI=

> <s_epik_cmdline>
J2VwaWtfcHl0aG9uJywgJy1waCcsICc3LjAnLCAnLXRuJywgJzgnLCAnLW1hJywgJzIwMCcsICctbWV0YWxfYmluZGluZycsICctaW1hZScsICc8aW5maWxlLm1hZT4nLCAnLW9tYWUnLCAnPG91dGZpbGUubWFlPic=

> <r_epik_Ionization_Penalty>
6.31213

> <r_epik_Ionization_Penalty_Charging>
6.31213

> <r_epik_Ionization_Penalty_Neutral>
3.33061e-09

> <r_epik_State_Penalty>
7.27833

> <r_epik_Charging_Adjusted_Penalty>
13.5905

> <i_epik_Tot_Q>
0

> <i_epik_Tot_abs_Q>
2

> <r_epik_Metal_State_Penalty>
3.36613

> <b_epik_Metal_Only>
1

> <s_epik_Chemistry_Notes>
This compound has an imine and may undergo hydrolysis.

> <s_lp_Force_Field>
OPLS_2005

> <r_lp_Energy>
24.6461

> <b_lp_Chiralities_Consistent>
1

> <s_lp_Variant>
AV-unprocessed.smi:2030-4

> <Gold.Version>
5.8.1

> <Gold.Id.Protein>
6NUR|6NUR_protein|mol2

> <Gold.PLP.Fitness>
46.3200

> <Gold.PLP.PLP>
-35.9609

> <Gold.PLP.part.hbond>
-4.2472

> <Gold.PLP.part.metal>
0.0000

> <Gold.PLP.part.buried>
-6.4060

> <Gold.PLP.part.nonpolar>
-25.7678

> <Gold.PLP.part.repulsive>
0.1187

> <Gold.PLP.ligand.clash>
0.0000

> <Gold.PLP.ligand.torsion>
1.6744

> <Gold.PLP.Chemscore.Hbond>
4.5544

> <Gold.PLP.Chemscore.CHOScore>
0.0000

> <Gold.PLP.Chemscore.Metal>
0.0000

> <Gold.Chemscore.Hbonds>
donor molecule, donor type, donor heavy atom, donor atom, acceptor molecule, acceptor atom, score
      L1  H    15    35       P1  8028  1.11
      P1  H  6896  6908       L1    19  0.63
      P1  H  7989  7998       L1     6  0.55
      P1  H  7997  8009       L1     3  0.37

> <Gold.PLP.Chemscore.Internal.Correction>
0.0447

> <Gold.Rescore>
     Score         DG    S(hbond)    S(metal)    S(lipo)     H(rot)  DE(clash)    DE(int)     intcor
     18.90     -20.98       2.71        0.00      87.69       1.49       0.18       1.91       ----

> <Gold.Chemscore.Fitness>
18.8955

> <Gold.Chemscore.DG>
-20.9809

> <Gold.Chemscore.ZeroCoef>
-5.4800

> <Gold.Chemscore.Hbond>
2.7078

> <Gold.Chemscore.Metal>
0.0000

> <Gold.Chemscore.Lipo>
87.6886

> <Gold.Chemscore.Internal_Hbond>
0.0000

> <Gold.Chemscore.DEClash>
0.1776

> <Gold.Chemscore.DEInternal>
1.9077

> <Gold.Chemscore.Rot>
1.4854

> <Gold.Chemscore.Internal.Correction>
   9.000000E+99

> <Gold.Chemscore.Hbonds>
donor molecule, donor type, donor heavy atom, donor atom, acceptor molecule, acceptor atom, score
      L1  H    15    35       P1  8028  0.14
      P1  H  6896  6908       L1    19  0.62
      P1  H  7989  7998       L1     6  0.11
      P1  H  7997  8009       L1     3  0.15

> <Gold.Chemscore.Hbond.Weighted>
-9.0439

> <Gold.Chemscore.Metal.Weighted>
-0.0000

> <Gold.Chemscore.Lipo.Weighted>
-10.2596

> <Gold.Chemscore.Internal_Hbond.Weighted>
0.0000

> <Gold.Chemscore.DEClash.Weighted>
0.1776

> <Gold.Chemscore.DEInternal.Weighted>
1.9077

> <Gold.Chemscore.Rot.Weighted>
3.8026

> <Gold.Chemscore.Internal.Correction.Weighted>
   9.000000E+99

> <Gold.Protein.RotatedTorsions>
[ 6907 6896 6895 6894 ] final  -82.06 input  -60.11 | X-H torsion
[ 7974 7965 7964 7962 ] final  175.57 input  175.53 | X-H torsion
[ 8008 7997 7996 7995 ] final  175.66 input   59.86 | X-H torsion
[ 10167 10162 10161 10158 ] final -103.53 input  -65.29 | X-H torsion
[ 10718 10713 10712 10709 ] final  -34.90 input   66.30 | X-H torsion
[ 10763 10752 10751 10750 ] final  146.96 input  -60.55 | X-H torsion
[ 11005 11000 10999 10996 ] final -105.31 input  -57.11 | X-H torsion

> <Gold.Protein.ActiveResidues>
 VAL166  LYS551  ARG553  GLY616  TRP617  ASP618  TYR619  PRO620  LYS621  CYS622 
 ASP623  PHE694  ASN695  SER759  ASP760  ASP761  ALA762  ILE779  LEU786  VAL792 
 PHE793  MET794  SER795  GLU796  ALA797  LYS798  CYS799  TRP800  GLU811  SER814 

> <Gold.Protein.RotatedAtoms>
  150.6902  134.3722  159.4996 H   0  0  0  0  0  0  0  0  0  0  0  0  # atno 6907 bound_to 6896
  152.1536  134.8965  160.0555 H   0  0  0  0  0  0  0  0  0  0  0  0  # atno 6908 bound_to 6896
  152.0054  133.3806  159.4235 H   0  0  0  0  0  0  0  0  0  0  0  0  # atno 6909 bound_to 6896
  144.7199  139.9967  143.6440 H   0  0  0  0  0  0  0  0  0  0  0  0  # atno 7974 bound_to 7965
  156.0847  140.1403  156.9668 H   0  0  0  0  0  0  0  0  0  0  0  0  # atno 8008 bound_to 7997
  154.4606  140.0945  156.6930 H   0  0  0  0  0  0  0  0  0  0  0  0  # atno 8009 bound_to 7997
  155.5018  140.3451  155.4374 H   0  0  0  0  0  0  0  0  0  0  0  0  # atno 8010 bound_to 7997
  140.2190  143.3690  152.0986 H   0  0  0  0  0  0  0  0  0  0  0  0  # atno 10167 bound_to 10162
  156.3450  130.4299  149.7754 H   0  0  0  0  0  0  0  0  0  0  0  0  # atno 10718 bound_to 10713
  154.0305  135.2898  155.3369 H   0  0  0  0  0  0  0  0  0  0  0  0  # atno 10763 bound_to 10752
  154.6991  135.5196  153.8504 H   0  0  0  0  0  0  0  0  0  0  0  0  # atno 10764 bound_to 10752
  153.0642  135.6625  154.0518 H   0  0  0  0  0  0  0  0  0  0  0  0  # atno 10765 bound_to 10752
  141.1059  133.8797  157.1718 H   0  0  0  0  0  0  0  0  0  0  0  0  # atno 11005 bound_to 11000
  146.0368  139.3385  143.0722 LP  0  0  0  0  0  0  0  0  0  0  0  0  # atno 17320 bound_to 7965
  145.8384  140.9593  143.0812 LP  0  0  0  0  0  0  0  0  0  0  0  0  # atno 17321 bound_to 7965
  139.5151  144.6958  151.5634 LP  0  0  0  0  0  0  0  0  0  0  0  0  # atno 17342 bound_to 10162
  140.6269  143.9152  150.6572 LP  0  0  0  0  0  0  0  0  0  0  0  0  # atno 17343 bound_to 10162
  156.4976  130.8114  151.3120 LP  0  0  0  0  0  0  0  0  0  0  0  0  # atno 17370 bound_to 10713
  157.7453  130.9955  150.2746 LP  0  0  0  0  0  0  0  0  0  0  0  0  # atno 17371 bound_to 10713
  139.9930  135.0057  157.0018 LP  0  0  0  0  0  0  0  0  0  0  0  0  # atno 17394 bound_to 11000
  140.4902  134.1201  155.7231 LP  0  0  0  0  0  0  0  0  0  0  0  0  # atno 17395 bound_to 11000

$$$$
