AV-unprocessed.smi:3060|AV-procd|sdf|11678|dock10
  -GOLD-   2272017 83D 1   1.00000     0.00000
 Structure written by MMmdl.
 42 43  0  0  0  0  0  0  0  0  1 V2000
  152.6040  137.4920  159.4968 C   0  0  0  0  0  0  0  0  0  0  0  0
  151.2346  137.5042  158.8095 C   0  0  0  0  0  0  0  0  0  0  0  0
  151.2685  136.8860  157.4473 C   0  0  0  0  0  0  0  0  0  0  0  0
  151.6114  135.6309  157.1880 N   0  0  0  0  0  0  0  0  0  0  0  0
  151.5063  135.5375  155.8131 N   0  0  0  0  0  0  0  0  0  0  0  0
  151.1336  136.6691  155.2884 N   0  0  0  0  0  0  0  0  0  0  0  0
  150.9810  137.5434  156.3140 N   0  0  0  0  0  0  0  0  0  0  0  0
  150.5672  138.9174  156.0673 C   0  0  0  0  0  0  0  0  0  0  0  0
  151.5950  139.9405  156.5654 C   0  0  0  0  0  0  0  0  0  0  0  0
  152.7597  139.8697  156.1747 O   0  0  0  0  0  0  0  0  0  0  0  0
  151.1653  140.8672  157.4389 N   0  0  0  0  0  0  0  0  0  0  0  0
  151.9722  141.9267  158.0388 C   0  0  0  0  0  0  0  0  0  0  0  0
  152.1399  141.6185  159.5471 C   0  0  0  0  0  0  0  0  0  0  0  0
  153.1439  142.5176  160.2961 C   0  0  0  0  0  0  0  0  0  0  0  0
  152.5218  143.6318  161.1602 C   0  0  0  0  0  0  0  0  0  0  0  0
  151.3603  144.4283  160.5391 C   0  0  0  0  0  0  0  0  0  0  0  0
  151.6976  145.2841  159.3051 C   0  0  0  0  0  0  0  0  0  0  0  0
  152.1341  144.5315  158.0331 C   0  0  0  0  0  0  0  0  0  0  0  0
  151.3065  143.2778  157.6848 C   0  0  0  0  0  0  0  0  0  0  0  0
  152.5455  137.9452  160.4866 H   0  0  0  0  0  0  0  0  0  0  0  0
  153.3399  138.0503  158.9174 H   0  0  0  0  0  0  0  0  0  0  0  0
  152.9743  136.4735  159.6178 H   0  0  0  0  0  0  0  0  0  0  0  0
  150.5140  136.9585  159.4194 H   0  0  0  0  0  0  0  0  0  0  0  0
  150.8601  138.5255  158.7381 H   0  0  0  0  0  0  0  0  0  0  0  0
  150.4017  139.0587  154.9992 H   0  0  0  0  0  0  0  0  0  0  0  0
  149.6084  139.0881  156.5593 H   0  0  0  0  0  0  0  0  0  0  0  0
  150.1916  140.8433  157.7045 H   0  0  0  0  0  0  0  0  0  0  0  0
  152.9603  141.9181  157.5751 H   0  0  0  0  0  0  0  0  0  0  0  0
  151.1744  141.6024  160.0535 H   0  0  0  0  0  0  0  0  0  0  0  0
  152.5128  140.5963  159.6298 H   0  0  0  0  0  0  0  0  0  0  0  0
  153.7290  141.8868  160.9666 H   0  0  0  0  0  0  0  0  0  0  0  0
  153.8822  142.9255  159.6079 H   0  0  0  0  0  0  0  0  0  0  0  0
  152.1488  143.1744  162.0774 H   0  0  0  0  0  0  0  0  0  0  0  0
  153.3076  144.3187  161.4758 H   0  0  0  0  0  0  0  0  0  0  0  0
  150.5191  143.7703  160.3268 H   0  0  0  0  0  0  0  0  0  0  0  0
  150.9852  145.1045  161.3080 H   0  0  0  0  0  0  0  0  0  0  0  0
  150.8086  145.8667  159.0603 H   0  0  0  0  0  0  0  0  0  0  0  0
  152.4626  146.0161  159.5663 H   0  0  0  0  0  0  0  0  0  0  0  0
  152.0489  145.2351  157.2041 H   0  0  0  0  0  0  0  0  0  0  0  0
  153.1955  144.2932  158.0676 H   0  0  0  0  0  0  0  0  0  0  0  0
  151.1584  143.2894  156.6035 H   0  0  0  0  0  0  0  0  0  0  0  0
  150.3013  143.3421  158.1021 H   0  0  0  0  0  0  0  0  0  0  0  0
  1  2  1  0  0  0  0
  1 20  1  0  0  0  0
  1 21  1  0  0  0  0
  1 22  1  0  0  0  0
  2  3  1  0  0  0  0
  2 23  1  0  0  0  0
  2 24  1  0  0  0  0
  3  7  1  0  0  0  0
  3  4  2  0  0  0  0
  4  5  1  0  0  0  0
  5  6  2  0  0  0  0
  6  7  1  0  0  0  0
  7  8  1  0  0  0  0
  8  9  1  0  0  0  0
  8 25  1  0  0  0  0
  8 26  1  0  0  0  0
  9 10  2  0  0  0  0
  9 11  1  0  0  0  0
 11 12  1  0  0  0  0
 11 27  1  0  0  0  0
 12 19  1  0  0  0  0
 12 13  1  0  0  0  0
 12 28  1  0  0  0  0
 13 14  1  0  0  0  0
 13 29  1  0  0  0  0
 13 30  1  0  0  0  0
 14 15  1  0  0  0  0
 14 31  1  0  0  0  0
 14 32  1  0  0  0  0
 15 16  1  0  0  0  0
 15 33  1  0  0  0  0
 15 34  1  0  0  0  0
 16 17  1  0  0  0  0
 16 35  1  0  0  0  0
 16 36  1  0  0  0  0
 17 18  1  0  0  0  0
 17 37  1  0  0  0  0
 17 38  1  0  0  0  0
 18 19  1  0  0  0  0
 18 39  1  0  0  0  0
 18 40  1  0  0  0  0
 19 41  1  0  0  0  0
 19 42  1  0  0  0  0
M  END
> <s_m_source_file>
AV-unprocessed.smi

> <i_m_source_file_index>
3060

> <i_lp_mmshare_version>
43012

> <i_f3d_flags>
0

> <s_epik_input>
W0NIM11bQ0gyXWMxbm5ubjFbQ0gyXUMoPU8pW05IXVtDSF0yW0NIMl1bQ0gyXVtDSDJdW0NIMl1bQ0gyXVtDSDJdW0NIMl0y

> <s_epik_cmdline>
J2VwaWtfcHl0aG9uJywgJy1waCcsICc3LjAnLCAnLXRuJywgJzgnLCAnLW1hJywgJzIwMCcsICctbWV0YWxfYmluZGluZycsICctaW1hZScsICc8aW5maWxlLm1hZT4nLCAnLW9tYWUnLCAnPG91dGZpbGUubWFlPic=

> <r_lp_tautomer_probability>
1

> <r_epik_Ionization_Penalty>
4.54698e-07

> <r_epik_Ionization_Penalty_Charging>
0

> <r_epik_Ionization_Penalty_Neutral>
4.54698e-07

> <r_epik_State_Penalty>
-0

> <r_epik_Charging_Adjusted_Penalty>
0

> <i_epik_Tot_Q>
0

> <i_epik_Tot_abs_Q>
0

> <r_epik_Metal_State_Penalty>
-0

> <b_epik_Metal_Only>
0

> <s_lp_Force_Field>
OPLS_2005

> <r_lp_Energy>
19.51

> <b_lp_Chiralities_Consistent>
1

> <s_lp_Variant>
AV-unprocessed.smi:3060-1

> <Gold.Version>
5.8.1

> <Gold.Id.Protein>
6NUR|6NUR_protein|mol2

> <Gold.PLP.Fitness>
43.2483

> <Gold.PLP.PLP>
-37.7530

> <Gold.PLP.part.hbond>
-3.3677

> <Gold.PLP.part.metal>
0.0000

> <Gold.PLP.part.buried>
-4.4760

> <Gold.PLP.part.nonpolar>
-29.3588

> <Gold.PLP.part.repulsive>
0.2001

> <Gold.PLP.ligand.clash>
0.0000

> <Gold.PLP.ligand.torsion>
0.0620

> <Gold.PLP.Chemscore.Hbond>
1.8640

> <Gold.PLP.Chemscore.CHOScore>
0.0000

> <Gold.PLP.Chemscore.Metal>
0.0000

> <Gold.Chemscore.Hbonds>
donor molecule, donor type, donor heavy atom, donor atom, acceptor molecule, acceptor atom, score
      P1  H  7997  8010       L1    10  1.00
      P1  H 10752 10763       L1     5  0.93

> <Gold.PLP.Chemscore.Internal.Correction>
0.0274

> <Gold.Rescore>
     Score         DG    S(hbond)    S(metal)    S(lipo)     H(rot)  DE(clash)    DE(int)     intcor
     17.33     -17.45       1.16        0.00     105.45       1.66       0.06       0.06       ----

> <Gold.Chemscore.Fitness>
17.3334

> <Gold.Chemscore.DG>
-17.4538

> <Gold.Chemscore.ZeroCoef>
-5.4800

> <Gold.Chemscore.Hbond>
1.1640

> <Gold.Chemscore.Metal>
0.0000

> <Gold.Chemscore.Lipo>
105.4527

> <Gold.Chemscore.Internal_Hbond>
0.0000

> <Gold.Chemscore.DEClash>
0.0632

> <Gold.Chemscore.DEInternal>
0.0571

> <Gold.Chemscore.Rot>
1.6609

> <Gold.Chemscore.Internal.Correction>
   9.000000E+99

> <Gold.Chemscore.Hbonds>
donor molecule, donor type, donor heavy atom, donor atom, acceptor molecule, acceptor atom, score
      P1  H  7997  8010       L1    10  0.98
      P1  H 10752 10763       L1     5  0.14

> <Gold.Chemscore.Hbond.Weighted>
-3.8876

> <Gold.Chemscore.Metal.Weighted>
-0.0000

> <Gold.Chemscore.Lipo.Weighted>
-12.3380

> <Gold.Chemscore.Internal_Hbond.Weighted>
0.0000

> <Gold.Chemscore.DEClash.Weighted>
0.0632

> <Gold.Chemscore.DEInternal.Weighted>
0.0571

> <Gold.Chemscore.Rot.Weighted>
4.2518

> <Gold.Chemscore.Internal.Correction.Weighted>
   9.000000E+99

> <Gold.Protein.RotatedTorsions>
[ 6907 6896 6895 6894 ] final  -53.95 input  -60.11 | X-H torsion
[ 7974 7965 7964 7962 ] final  -99.52 input  175.53 | X-H torsion
[ 8008 7997 7996 7995 ] final   92.16 input   59.86 | X-H torsion
[ 10167 10162 10161 10158 ] final   18.50 input  -65.29 | X-H torsion
[ 10718 10713 10712 10709 ] final -177.59 input   66.30 | X-H torsion
[ 10763 10752 10751 10750 ] final   99.92 input  -60.55 | X-H torsion
[ 11005 11000 10999 10996 ] final  110.17 input  -57.11 | X-H torsion

> <Gold.Protein.ActiveResidues>
 VAL166  LYS551  ARG553  GLY616  TRP617  ASP618  TYR619  PRO620  LYS621  CYS622 
 ASP623  PHE694  ASN695  SER759  ASP760  ASP761  ALA762  ILE779  LEU786  VAL792 
 PHE793  MET794  SER795  GLU796  ALA797  LYS798  CYS799  TRP800  GLU811  SER814 

> <Gold.Protein.RotatedAtoms>
  150.8381  134.7662  159.6909 H   0  0  0  0  0  0  0  0  0  0  0  0  # atno 6907 bound_to 6896
  152.4474  134.5463  159.9863 H   0  0  0  0  0  0  0  0  0  0  0  0  # atno 6908 bound_to 6896
  151.5609  133.3365  159.3006 H   0  0  0  0  0  0  0  0  0  0  0  0  # atno 6909 bound_to 6896
  145.3065  140.9390  143.2794 H   0  0  0  0  0  0  0  0  0  0  0  0  # atno 7974 bound_to 7965
  156.0321  140.3329  155.7151 H   0  0  0  0  0  0  0  0  0  0  0  0  # atno 8008 bound_to 7997
  155.5869  140.0642  157.2786 H   0  0  0  0  0  0  0  0  0  0  0  0  # atno 8009 bound_to 7997
  154.4357  140.1834  156.1022 H   0  0  0  0  0  0  0  0  0  0  0  0  # atno 8010 bound_to 7997
  140.5648  143.9270  150.6669 H   0  0  0  0  0  0  0  0  0  0  0  0  # atno 10167 bound_to 10162
  156.8317  130.9655  151.3106 H   0  0  0  0  0  0  0  0  0  0  0  0  # atno 10718 bound_to 10713
  153.3075  135.4096  155.1307 H   0  0  0  0  0  0  0  0  0  0  0  0  # atno 10763 bound_to 10752
  154.8567  135.3556  154.5768 H   0  0  0  0  0  0  0  0  0  0  0  0  # atno 10764 bound_to 10752
  153.6196  135.7065  153.5374 H   0  0  0  0  0  0  0  0  0  0  0  0  # atno 10765 bound_to 10752
  139.8876  134.9477  156.6238 H   0  0  0  0  0  0  0  0  0  0  0  0  # atno 11005 bound_to 11000
  144.9050  139.4600  143.6614 LP  0  0  0  0  0  0  0  0  0  0  0  0  # atno 17320 bound_to 7965
  146.3133  139.7826  142.9003 LP  0  0  0  0  0  0  0  0  0  0  0  0  # atno 17321 bound_to 7965
  140.2731  143.3442  152.1220 LP  0  0  0  0  0  0  0  0  0  0  0  0  # atno 17342 bound_to 10162
  139.5088  144.6855  151.5897 LP  0  0  0  0  0  0  0  0  0  0  0  0  # atno 17343 bound_to 10162
  157.6403  130.8800  149.9436 LP  0  0  0  0  0  0  0  0  0  0  0  0  # atno 17370 bound_to 10713
  156.0930  130.3662  150.0359 LP  0  0  0  0  0  0  0  0  0  0  0  0  # atno 17371 bound_to 10713
  140.7718  133.8732  155.8498 LP  0  0  0  0  0  0  0  0  0  0  0  0  # atno 17394 bound_to 11000
  140.9835  134.1374  157.4473 LP  0  0  0  0  0  0  0  0  0  0  0  0  # atno 17395 bound_to 11000

$$$$
