AV-unprocessed.smi:2438|AV-procd|sdf|9598|dock6
  -GOLD-   2272013233D 1   1.00000     0.00000
 Structure written by MMmdl.
 43 44  0  0  0  0  0  0  0  0  1 V2000
  142.8594  135.7635  154.7930 C   0  0  0  0  0  0  0  0  0  0  0  0
  143.0574  136.6862  153.6835 N   0  0  0  0  0  0  0  0  0  0  0  0
  141.9189  137.5290  153.3392 C   0  0  0  0  0  0  0  0  0  0  0  0
  143.7620  136.1163  152.6041 C   0  0  0  0  0  0  0  0  0  0  0  0
  143.1730  135.1018  151.9254 N   0  0  0  0  0  0  0  0  0  0  0  0
  143.8548  134.5547  150.9180 C   0  0  0  0  0  0  0  0  0  0  0  0
  145.0685  134.9058  150.4939 N   0  0  0  0  0  0  0  0  0  0  0  0
  145.6737  135.9152  151.1534 C   0  0  0  0  0  0  0  0  0  0  0  0
  145.0597  136.5700  152.2497 C   0  0  0  0  0  0  0  0  0  0  0  0
  145.6510  137.6659  152.9370 N   0  0  0  0  0  0  0  0  0  0  0  0
  146.5010  138.5831  152.4486 C   0  0  0  0  0  0  0  0  0  0  0  0
  146.8642  138.6617  151.2753 O   0  0  0  0  0  0  0  0  0  0  0  0
  146.9358  139.4008  153.4171 N   0  0  0  0  0  0  0  0  0  0  0  0
  147.9210  140.4678  153.2490 C   0  0  1  0  0  0  0  0  0  0  0  0
  147.3555  141.8020  153.7720 C   0  0  0  0  0  0  0  0  0  0  0  0
  147.2333  141.8181  155.3055 C   0  0  0  0  0  0  0  0  0  0  0  0
  148.5716  141.4760  155.9795 C   0  0  0  0  0  0  0  0  0  0  0  0
  149.1253  140.1199  155.4933 C   0  0  2  0  0  0  0  0  0  0  0  0
  150.4567  139.7559  156.1812 C   0  0  0  0  0  0  0  0  0  0  0  0
  150.9232  138.5925  155.7270 F   0  0  0  0  0  0  0  0  0  0  0  0
  151.3640  140.7046  155.9486 F   0  0  0  0  0  0  0  0  0  0  0  0
  150.2801  139.6650  157.4993 F   0  0  0  0  0  0  0  0  0  0  0  0
  149.2523  140.1239  153.9532 C   0  0  0  0  0  0  0  0  0  0  0  0
  143.8020  135.3442  155.1444 H   0  0  0  0  0  0  0  0  0  0  0  0
  142.2114  134.9397  154.4916 H   0  0  0  0  0  0  0  0  0  0  0  0
  142.3894  136.2751  155.6333 H   0  0  0  0  0  0  0  0  0  0  0  0
  142.1714  138.2129  152.5279 H   0  0  0  0  0  0  0  0  0  0  0  0
  141.6198  138.1278  154.1996 H   0  0  0  0  0  0  0  0  0  0  0  0
  141.0650  136.9244  153.0317 H   0  0  0  0  0  0  0  0  0  0  0  0
  143.3715  133.7472  150.3884 H   0  0  0  0  0  0  0  0  0  0  0  0
  146.6409  136.2057  150.7734 H   0  0  0  0  0  0  0  0  0  0  0  0
  145.5061  137.6777  153.9363 H   0  0  0  0  0  0  0  0  0  0  0  0
  146.5786  139.2593  154.3507 H   0  0  0  0  0  0  0  0  0  0  0  0
  148.1112  140.5818  152.1802 H   0  0  0  0  0  0  0  0  0  0  0  0
  148.0136  142.6142  153.4605 H   0  0  0  0  0  0  0  0  0  0  0  0
  146.3858  142.0072  153.3168 H   0  0  0  0  0  0  0  0  0  0  0  0
  146.8923  142.7990  155.6382 H   0  0  0  0  0  0  0  0  0  0  0  0
  146.4712  141.1055  155.6234 H   0  0  0  0  0  0  0  0  0  0  0  0
  149.2941  142.2662  155.7713 H   0  0  0  0  0  0  0  0  0  0  0  0
  148.4368  141.4609  157.0613 H   0  0  0  0  0  0  0  0  0  0  0  0
  148.4035  139.3494  155.7689 H   0  0  0  0  0  0  0  0  0  0  0  0
  149.6225  139.1598  153.6032 H   0  0  0  0  0  0  0  0  0  0  0  0
  150.0056  140.8551  153.6575 H   0  0  0  0  0  0  0  0  0  0  0  0
  1  2  1  0  0  0  0
  1 24  1  0  0  0  0
  1 25  1  0  0  0  0
  1 26  1  0  0  0  0
  2  3  1  0  0  0  0
  2  4  1  0  0  0  0
  3 27  1  0  0  0  0
  3 28  1  0  0  0  0
  3 29  1  0  0  0  0
  4  9  1  0  0  0  0
  4  5  2  0  0  0  0
  5  6  1  0  0  0  0
  6  7  2  0  0  0  0
  6 30  1  0  0  0  0
  7  8  1  0  0  0  0
  8  9  2  0  0  0  0
  8 31  1  0  0  0  0
  9 10  1  0  0  0  0
 10 11  1  0  0  0  0
 10 32  1  0  0  0  0
 11 12  2  0  0  0  0
 11 13  1  0  0  0  0
 13 14  1  0  0  0  0
 13 33  1  0  0  0  0
 14 23  1  0  0  0  0
 14 15  1  0  0  0  0
 14 34  1  0  0  0  0
 15 16  1  0  0  0  0
 15 35  1  0  0  0  0
 15 36  1  0  0  0  0
 16 17  1  0  0  0  0
 16 37  1  0  0  0  0
 16 38  1  0  0  0  0
 17 18  1  0  0  0  0
 17 39  1  0  0  0  0
 17 40  1  0  0  0  0
 18 19  1  0  0  0  0
 18 23  1  0  0  0  0
 18 41  1  0  0  0  0
 19 20  1  0  0  0  0
 19 21  1  0  0  0  0
 19 22  1  0  0  0  0
 23 42  1  0  0  0  0
 23 43  1  0  0  0  0
M  END
> <s_m_source_file>
AV-unprocessed.smi

> <i_m_source_file_index>
2438

> <i_lp_mmshare_version>
43012

> <i_f3d_flags>
0

> <s_epik_input>
W0NIM11OKFtDSDNdKWMxbltjSF1uW2NIXWMxW05IXUMoPU8pW05IXVtDQEBIXTJbQ0gyXVtDSDJdW0NIMl1bQ0BASF0oQyhGKShGKUYpW0NIMl0y

> <s_epik_cmdline>
J2VwaWtfcHl0aG9uJywgJy1waCcsICc3LjAnLCAnLXRuJywgJzgnLCAnLW1hJywgJzIwMCcsICctbWV0YWxfYmluZGluZycsICctaW1hZScsICc8aW5maWxlLm1hZT4nLCAnLW9tYWUnLCAnPG91dGZpbGUubWFlPic=

> <r_lp_tautomer_probability>
1

> <r_epik_Ionization_Penalty>
0.01759

> <r_epik_Ionization_Penalty_Charging>
0

> <r_epik_Ionization_Penalty_Neutral>
0.01759

> <r_epik_State_Penalty>
0.0133536

> <r_epik_Charging_Adjusted_Penalty>
0.0133536

> <i_epik_Tot_Q>
0

> <i_epik_Tot_abs_Q>
0

> <r_epik_Metal_State_Penalty>
0.0129828

> <b_epik_Metal_Only>
0

> <s_lp_Force_Field>
OPLS_2005

> <r_lp_Energy>
8.79066

> <b_lp_Chiralities_Consistent>
1

> <s_lp_Variant>
AV-unprocessed.smi:2438-4

> <Gold.Version>
5.8.1

> <Gold.Id.Protein>
6NUR|6NUR_protein|mol2

> <Gold.PLP.Fitness>
36.4194

> <Gold.PLP.PLP>
-29.6618

> <Gold.PLP.part.hbond>
-1.0000

> <Gold.PLP.part.metal>
0.0000

> <Gold.PLP.part.buried>
-0.9797

> <Gold.PLP.part.nonpolar>
-30.7485

> <Gold.PLP.part.repulsive>
1.9820

> <Gold.PLP.ligand.clash>
0.0000

> <Gold.PLP.ligand.torsion>
0.4521

> <Gold.PLP.Chemscore.Hbond>
0.9263

> <Gold.PLP.Chemscore.CHOScore>
1.5120

> <Gold.PLP.Chemscore.Metal>
0.0000

> <Gold.Chemscore.Hbonds>
donor molecule, donor type, donor heavy atom, donor atom, acceptor molecule, acceptor atom, score
      P1  H  7954  7966       L1    12  0.94
      L1  C     6    30       P1 10186  0.53
      L1  C     8    31       P1  7948  1.00

> <Gold.PLP.Chemscore.Internal.Correction>
0.3471

> <Gold.Rescore>
     Score         DG    S(hbond)    S(metal)    S(lipo)     H(rot)  DE(clash)    DE(int)     intcor
      7.94     -12.22       0.89        0.00      60.47       1.30       2.75       1.52       ----

> <Gold.Chemscore.Fitness>
7.9403

> <Gold.Chemscore.DG>
-12.2179

> <Gold.Chemscore.ZeroCoef>
-5.4800

> <Gold.Chemscore.Hbond>
0.8946

> <Gold.Chemscore.Metal>
0.0000

> <Gold.Chemscore.Lipo>
60.4660

> <Gold.Chemscore.Internal_Hbond>
0.0000

> <Gold.Chemscore.DEClash>
2.7529

> <Gold.Chemscore.DEInternal>
1.5247

> <Gold.Chemscore.Rot>
1.2987

> <Gold.Chemscore.Internal.Correction>
   9.000000E+99

> <Gold.Chemscore.Hbonds>
donor molecule, donor type, donor heavy atom, donor atom, acceptor molecule, acceptor atom, score
      P1  H  7954  7966       L1    12  0.87

> <Gold.Chemscore.Hbond.Weighted>
-2.9879

> <Gold.Chemscore.Metal.Weighted>
-0.0000

> <Gold.Chemscore.Lipo.Weighted>
-7.0745

> <Gold.Chemscore.Internal_Hbond.Weighted>
0.0000

> <Gold.Chemscore.DEClash.Weighted>
2.7529

> <Gold.Chemscore.DEInternal.Weighted>
1.5247

> <Gold.Chemscore.Rot.Weighted>
3.3246

> <Gold.Chemscore.Internal.Correction.Weighted>
   9.000000E+99

> <Gold.Protein.RotatedTorsions>
[ 6907 6896 6895 6894 ] final  170.99 input  -60.11 | X-H torsion
[ 7974 7965 7964 7962 ] final  131.58 input  175.53 | X-H torsion
[ 8008 7997 7996 7995 ] final  177.79 input   59.86 | X-H torsion
[ 10167 10162 10161 10158 ] final   69.86 input  -65.29 | X-H torsion
[ 10718 10713 10712 10709 ] final -149.75 input   66.30 | X-H torsion
[ 10763 10752 10751 10750 ] final  -67.27 input  -60.55 | X-H torsion
[ 11005 11000 10999 10996 ] final  -69.41 input  -57.11 | X-H torsion

> <Gold.Protein.ActiveResidues>
 VAL166  LYS551  ARG553  GLY616  TRP617  ASP618  TYR619  PRO620  LYS621  CYS622 
 ASP623  PHE694  ASN695  SER759  ASP760  ASP761  ALA762  ILE779  LEU786  VAL792 
 PHE793  MET794  SER795  GLU796  ALA797  LYS798  CYS799  TRP800  GLU811  SER814 

> <Gold.Protein.RotatedAtoms>
  151.8073  133.3377  159.3544 H   0  0  0  0  0  0  0  0  0  0  0  0  # atno 6907 bound_to 6896
  150.7338  134.5697  159.5893 H   0  0  0  0  0  0  0  0  0  0  0  0  # atno 6908 bound_to 6896
  152.3100  134.7510  160.0390 H   0  0  0  0  0  0  0  0  0  0  0  0  # atno 6909 bound_to 6896
  145.0058  139.4267  143.5269 H   0  0  0  0  0  0  0  0  0  0  0  0  # atno 7974 bound_to 7965
  156.0618  140.1349  156.9933 H   0  0  0  0  0  0  0  0  0  0  0  0  # atno 8008 bound_to 7997
  154.4485  140.0990  156.6599 H   0  0  0  0  0  0  0  0  0  0  0  0  # atno 8009 bound_to 7997
  155.5366  140.3460  155.4440 H   0  0  0  0  0  0  0  0  0  0  0  0  # atno 8010 bound_to 7997
  140.0632  144.5215  150.7279 H   0  0  0  0  0  0  0  0  0  0  0  0  # atno 10167 bound_to 10162
  156.4371  130.8104  151.2333 H   0  0  0  0  0  0  0  0  0  0  0  0  # atno 10718 bound_to 10713
  154.3720  135.6093  153.5745 H   0  0  0  0  0  0  0  0  0  0  0  0  # atno 10763 bound_to 10752
  152.9790  135.5840  154.4511 H   0  0  0  0  0  0  0  0  0  0  0  0  # atno 10764 bound_to 10752
  154.4266  135.2847  155.1918 H   0  0  0  0  0  0  0  0  0  0  0  0  # atno 10765 bound_to 10752
  141.1553  133.6764  156.6596 H   0  0  0  0  0  0  0  0  0  0  0  0  # atno 11005 bound_to 11000
  146.3461  139.9474  142.8733 LP  0  0  0  0  0  0  0  0  0  0  0  0  # atno 17320 bound_to 7965
  145.2090  140.9887  143.4111 LP  0  0  0  0  0  0  0  0  0  0  0  0  # atno 17321 bound_to 7965
  140.7161  143.2546  151.4428 LP  0  0  0  0  0  0  0  0  0  0  0  0  # atno 17342 bound_to 10162
  139.5881  144.1560  152.2054 LP  0  0  0  0  0  0  0  0  0  0  0  0  # atno 17343 bound_to 10162
  157.7507  131.0180  150.3607 LP  0  0  0  0  0  0  0  0  0  0  0  0  # atno 17370 bound_to 10713
  156.3957  130.3906  149.6997 LP  0  0  0  0  0  0  0  0  0  0  0  0  # atno 17371 bound_to 10713
  140.3258  134.7970  157.4288 LP  0  0  0  0  0  0  0  0  0  0  0  0  # atno 17394 bound_to 11000
  140.1058  134.5411  155.8310 LP  0  0  0  0  0  0  0  0  0  0  0  0  # atno 17395 bound_to 11000

$$$$
