AV-unprocessed.smi:1002|AV-procd|sdf|4359|dock7
  -GOLD-   22720 2263D 1   1.00000     0.00000
 Structure written by MMmdl.
 36 37  0  0  0  0  0  0  0  0  2 V2000
  149.3157  143.7956  159.5779 O   0  0  0  0  0  0  0  0  0  0  0  0
  149.7204  144.7964  160.1695 C   0  0  0  0  0  0  0  0  0  0  0  0
  151.2032  145.1666  160.1193 C   0  0  0  0  0  0  0  0  0  0  0  0
  152.0452  144.0703  160.7479 C   0  0  0  0  0  0  0  0  0  0  0  0
  152.2091  143.9996  162.1472 C   0  0  0  0  0  0  0  0  0  0  0  0
  153.0003  142.9624  162.6803 C   0  0  0  0  0  0  0  0  0  0  0  0
  153.6126  142.0300  161.9190 N   0  0  0  0  0  0  0  0  0  0  0  0
  153.4533  142.1045  160.5802 C   0  0  0  0  0  0  0  0  0  0  0  0
  152.6848  143.1013  159.9461 C   0  0  0  0  0  0  0  0  0  0  0  0
  148.9247  145.6130  160.8778 N   0  0  0  0  0  0  0  0  0  0  0  0
  147.4841  145.4550  161.0481 C   0  0  2  0  0  0  0  0  0  0  0  0
  147.1932  144.0906  161.7012 C   0  0  0  0  0  0  0  0  0  0  0  0
  145.6790  143.8376  161.8310 C   0  0  0  0  0  0  0  0  0  0  0  0
  144.9414  143.9519  160.4739 C   0  0  2  0  0  0  0  0  0  0  0  0
  145.2494  142.7725  159.5209 C   0  0  0  0  0  0  0  0  0  0  0  0
  146.0581  141.9029  159.9144 O   0  0  0  0  0  0  0  0  0  0  0  0
  144.6977  142.7658  158.3978 O   0  5  0  0  0  0  0  0  0  0  0  0
  145.2478  145.3280  159.8333 C   0  0  0  0  0  0  0  0  0  0  0  0
  146.7596  145.5862  159.6920 C   0  0  0  0  0  0  0  0  0  0  0  0
  151.5157  145.3293  159.0866 H   0  0  0  0  0  0  0  0  0  0  0  0
  151.3640  146.1072  160.6477 H   0  0  0  0  0  0  0  0  0  0  0  0
  151.7380  144.7206  162.7991 H   0  0  0  0  0  0  0  0  0  0  0  0
  153.1452  142.8803  163.7473 H   0  0  0  0  0  0  0  0  0  0  0  0
  153.9537  141.3467  159.9956 H   0  0  0  0  0  0  0  0  0  0  0  0
  152.5868  143.1168  158.8705 H   0  0  0  0  0  0  0  0  0  0  0  0
  149.3478  146.4096  161.3318 H   0  0  0  0  0  0  0  0  0  0  0  0
  147.1176  146.2344  161.7193 H   0  0  0  0  0  0  0  0  0  0  0  0
  147.6507  143.2931  161.1142 H   0  0  0  0  0  0  0  0  0  0  0  0
  147.6556  144.0447  162.6880 H   0  0  0  0  0  0  0  0  0  0  0  0
  145.5005  142.8665  162.2944 H   0  0  0  0  0  0  0  0  0  0  0  0
  145.2582  144.5683  162.5227 H   0  0  0  0  0  0  0  0  0  0  0  0
  143.8694  143.8999  160.6670 H   0  0  0  0  0  0  0  0  0  0  0  0
  144.7610  145.4281  158.8627 H   0  0  0  0  0  0  0  0  0  0  0  0
  144.8128  146.1106  160.4559 H   0  0  0  0  0  0  0  0  0  0  0  0
  146.9183  146.5822  159.2772 H   0  0  0  0  0  0  0  0  0  0  0  0
  147.1877  144.8860  158.9732 H   0  0  0  0  0  0  0  0  0  0  0  0
  1  2  2  0  0  0  0
  2  3  1  0  0  0  0
  2 10  1  0  0  0  0
  3  4  1  0  0  0  0
  3 20  1  0  0  0  0
  3 21  1  0  0  0  0
  4  9  1  0  0  0  0
  4  5  2  0  0  0  0
  5  6  1  0  0  0  0
  5 22  1  0  0  0  0
  6  7  2  0  0  0  0
  6 23  1  0  0  0  0
  7  8  1  0  0  0  0
  8  9  2  0  0  0  0
  8 24  1  0  0  0  0
  9 25  1  0  0  0  0
 10 11  1  0  0  0  0
 10 26  1  0  0  0  0
 11 19  1  0  0  0  0
 11 12  1  0  0  0  0
 11 27  1  0  0  0  0
 12 13  1  0  0  0  0
 12 28  1  0  0  0  0
 12 29  1  0  0  0  0
 13 14  1  0  0  0  0
 13 30  1  0  0  0  0
 13 31  1  0  0  0  0
 14 15  1  0  0  0  0
 14 18  1  0  0  0  0
 14 32  1  0  0  0  0
 15 16  2  0  0  0  0
 15 17  1  0  0  0  0
 18 19  1  0  0  0  0
 18 33  1  0  0  0  0
 18 34  1  0  0  0  0
 19 35  1  0  0  0  0
 19 36  1  0  0  0  0
M  CHG  1  17  -1
M  END
> <s_m_source_file>
AV-unprocessed.smi

> <i_m_source_file_index>
1002

> <i_lp_mmshare_version>
43012

> <i_f3d_flags>
0

> <s_epik_input>
Tz1DKFtPSF0pW0NAQEhdKFtDSDJdW0NIMl0xKVtDSDJdW0NIMl1bQ0BIXTFbTkhdQyg9TylbQ0gyXWMyW2NIXVtjSF1uW2NIXVtjSF0y

> <s_epik_cmdline>
J2VwaWtfcHl0aG9uJywgJy1waCcsICc3LjAnLCAnLXRuJywgJzgnLCAnLW1hJywgJzIwMCcsICctbWV0YWxfYmluZGluZycsICctaW1hZScsICc8aW5maWxlLm1hZT4nLCAnLW9tYWUnLCAnPG91dGZpbGUubWFlPic=

> <r_lp_tautomer_probability>
1

> <r_epik_Ionization_Penalty>
0.0065671

> <r_epik_Ionization_Penalty_Charging>
0.00222897

> <r_epik_Ionization_Penalty_Neutral>
0.00433813

> <r_epik_State_Penalty>
-0

> <r_epik_Charging_Adjusted_Penalty>
0.00222897

> <i_epik_Tot_Q>
-1

> <i_epik_Tot_abs_Q>
1

> <r_epik_Metal_State_Penalty>
-0

> <b_epik_Metal_Only>
0

> <s_lp_Force_Field>
OPLS_2005

> <r_lp_Energy>
6.9224

> <b_lp_Chiralities_Consistent>
1

> <s_lp_Variant>
AV-unprocessed.smi:1002-2

> <Gold.Version>
5.8.1

> <Gold.Id.Protein>
6NUR|6NUR_protein|mol2

> <Gold.PLP.Fitness>
47.7575

> <Gold.PLP.PLP>
-42.4024

> <Gold.PLP.part.hbond>
-2.1951

> <Gold.PLP.part.metal>
0.0000

> <Gold.PLP.part.buried>
-4.9370

> <Gold.PLP.part.nonpolar>
-36.4873

> <Gold.PLP.part.repulsive>
1.3789

> <Gold.PLP.ligand.clash>
0.0000

> <Gold.PLP.ligand.torsion>
0.3392

> <Gold.PLP.Chemscore.Hbond>
2.0000

> <Gold.PLP.Chemscore.CHOScore>
0.0000

> <Gold.PLP.Chemscore.Metal>
0.0000

> <Gold.Chemscore.Hbonds>
donor molecule, donor type, donor heavy atom, donor atom, acceptor molecule, acceptor atom, score
      P1  H  6934  6946       L1    16  2.00

> <Gold.PLP.Chemscore.Internal.Correction>
0.0334

> <Gold.Rescore>
     Score         DG    S(hbond)    S(metal)    S(lipo)     H(rot)  DE(clash)    DE(int)     intcor
     14.40     -16.78       1.12        0.00     105.88       1.88       0.76       1.62       ----

> <Gold.Chemscore.Fitness>
14.4047

> <Gold.Chemscore.DG>
-16.7762

> <Gold.Chemscore.ZeroCoef>
-5.4800

> <Gold.Chemscore.Hbond>
1.1161

> <Gold.Chemscore.Metal>
0.0000

> <Gold.Chemscore.Lipo>
105.8819

> <Gold.Chemscore.Internal_Hbond>
0.0000

> <Gold.Chemscore.DEClash>
0.7557

> <Gold.Chemscore.DEInternal>
1.6158

> <Gold.Chemscore.Rot>
1.8828

> <Gold.Chemscore.Internal.Correction>
   9.000000E+99

> <Gold.Chemscore.Hbonds>
donor molecule, donor type, donor heavy atom, donor atom, acceptor molecule, acceptor atom, score
      P1  H  6933  6944       L1     1  0.01
      P1  H  6934  6946       L1    16  0.96

> <Gold.Chemscore.Hbond.Weighted>
-3.7279

> <Gold.Chemscore.Metal.Weighted>
-0.0000

> <Gold.Chemscore.Lipo.Weighted>
-12.3882

> <Gold.Chemscore.Internal_Hbond.Weighted>
0.0000

> <Gold.Chemscore.DEClash.Weighted>
0.7557

> <Gold.Chemscore.DEInternal.Weighted>
1.6158

> <Gold.Chemscore.Rot.Weighted>
4.8199

> <Gold.Chemscore.Internal.Correction.Weighted>
   9.000000E+99

> <Gold.Protein.RotatedTorsions>
[ 6907 6896 6895 6894 ] final  161.80 input  -60.11 | X-H torsion
[ 7974 7965 7964 7962 ] final  113.56 input  175.53 | X-H torsion
[ 8008 7997 7996 7995 ] final   36.07 input   59.86 | X-H torsion
[ 10167 10162 10161 10158 ] final  -58.48 input  -65.29 | X-H torsion
[ 10718 10713 10712 10709 ] final  -25.24 input   66.30 | X-H torsion
[ 10763 10752 10751 10750 ] final   82.31 input  -60.55 | X-H torsion
[ 11005 11000 10999 10996 ] final  -90.25 input  -57.11 | X-H torsion

> <Gold.Protein.ActiveResidues>
 VAL166  LYS551  ARG553  GLY616  TRP617  ASP618  TYR619  PRO620  LYS621  CYS622 
 ASP623  PHE694  ASN695  SER759  ASP760  ASP761  ALA762  ILE779  LEU786  VAL792 
 PHE793  MET794  SER795  GLU796  ALA797  LYS798  CYS799  TRP800  GLU811  SER814 

> <Gold.Protein.RotatedAtoms>
  151.9501  133.3663  159.3996 H   0  0  0  0  0  0  0  0  0  0  0  0  # atno 6907 bound_to 6896
  150.6982  134.4349  159.5275 H   0  0  0  0  0  0  0  0  0  0  0  0  # atno 6908 bound_to 6896
  152.2021  134.8578  160.0557 H   0  0  0  0  0  0  0  0  0  0  0  0  # atno 6909 bound_to 6896
  145.2154  139.2886  143.4246 H   0  0  0  0  0  0  0  0  0  0  0  0  # atno 7974 bound_to 7965
  155.1814  140.3300  155.4374 H   0  0  0  0  0  0  0  0  0  0  0  0  # atno 8008 bound_to 7997
  156.2475  140.1926  156.6862 H   0  0  0  0  0  0  0  0  0  0  0  0  # atno 8009 bound_to 7997
  154.6269  140.0588  156.9670 H   0  0  0  0  0  0  0  0  0  0  0  0  # atno 8010 bound_to 7997
  140.6195  143.2414  151.5516 H   0  0  0  0  0  0  0  0  0  0  0  0  # atno 10167 bound_to 10162
  156.4670  130.4516  149.6893 H   0  0  0  0  0  0  0  0  0  0  0  0  # atno 10718 bound_to 10713
  153.1192  135.4733  154.9167 H   0  0  0  0  0  0  0  0  0  0  0  0  # atno 10763 bound_to 10752
  154.7559  135.3118  154.8474 H   0  0  0  0  0  0  0  0  0  0  0  0  # atno 10764 bound_to 10752
  153.9042  135.6872  153.4807 H   0  0  0  0  0  0  0  0  0  0  0  0  # atno 10765 bound_to 10752
  141.1569  133.7680  156.9710 H   0  0  0  0  0  0  0  0  0  0  0  0  # atno 11005 bound_to 11000
  146.3388  140.2443  142.8596 LP  0  0  0  0  0  0  0  0  0  0  0  0  # atno 17320 bound_to 7965
  144.9816  140.8464  143.5394 LP  0  0  0  0  0  0  0  0  0  0  0  0  # atno 17321 bound_to 7965
  139.5426  144.2606  152.1381 LP  0  0  0  0  0  0  0  0  0  0  0  0  # atno 17342 bound_to 10162
  140.1823  144.4833  150.6522 LP  0  0  0  0  0  0  0  0  0  0  0  0  # atno 17343 bound_to 10162
  156.3658  130.7505  151.2482 LP  0  0  0  0  0  0  0  0  0  0  0  0  # atno 17370 bound_to 10713
  157.7494  131.0337  150.4285 LP  0  0  0  0  0  0  0  0  0  0  0  0  # atno 17371 bound_to 10713
  140.1129  134.9465  157.2092 LP  0  0  0  0  0  0  0  0  0  0  0  0  # atno 17394 bound_to 11000
  140.3170  134.2959  155.7254 LP  0  0  0  0  0  0  0  0  0  0  0  0  # atno 17395 bound_to 11000

$$$$
