AV-unprocessed.smi:2510|AV-procd|sdf|9883|dock3
  -GOLD-   2272013523D 1   1.00000     0.00000
 Structure written by MMmdl.
 48 49  0  0  0  0  0  0  0  0  1 V2000
  152.2460  138.5777  154.6450 C   0  0  0  0  0  0  0  0  0  0  0  0
  150.9604  137.7333  154.6653 C   0  0  0  0  0  0  0  0  0  0  0  0
  149.6255  138.4913  154.8662 C   0  0  0  0  0  0  0  0  0  0  0  0
  149.5679  139.6003  153.7763 C   0  0  0  0  0  0  0  0  0  0  0  0
  148.5579  140.7400  154.0119 C   0  0  0  0  0  0  0  0  0  0  0  0
  148.3360  137.6286  155.0148 C   0  0  2  0  0  0  0  0  0  0  0  0
  147.5077  137.5765  153.8134 N   0  0  0  0  0  0  0  0  0  0  0  0
  146.1694  137.6536  153.8007 C   0  0  0  0  0  0  0  0  0  0  0  0
  145.4930  137.7661  154.8243 O   0  0  0  0  0  0  0  0  0  0  0  0
  145.5151  137.5996  152.4149 C   0  0  0  0  0  0  0  0  0  0  0  0
  145.3684  136.2053  151.8890 C   0  0  0  0  0  0  0  0  0  0  0  0
  144.2706  135.5110  151.4628 C   0  0  0  0  0  0  0  0  0  0  0  0
  144.7829  134.2332  151.0917 C   0  0  0  0  0  0  0  0  0  0  0  0
  144.0304  133.0547  150.5483 C   0  0  0  0  0  0  0  0  0  0  0  0
  146.0916  134.1405  151.2745 N   0  0  0  0  0  0  0  0  0  0  0  0
  146.4371  135.3470  151.7605 N   0  0  0  0  0  0  0  0  0  0  0  0
  147.8097  138.6110  156.0695 C   0  0  1  0  0  0  0  0  0  0  0  0
  146.9465  138.0759  157.2063 C   0  0  0  0  0  0  0  0  0  0  0  0
  149.2924  138.9296  156.3213 C   0  0  2  0  0  0  0  0  0  0  0  0
  149.5680  140.2978  156.5790 O   0  0  0  0  0  0  0  0  0  0  0  0
  150.9208  140.6560  156.3591 C   0  0  0  0  0  0  0  0  0  0  0  0
  147.3945  135.5697  151.9937 H   0  0  0  0  0  0  0  0  0  0  0  0
  153.1039  137.9515  154.3998 H   0  0  0  0  0  0  0  0  0  0  0  0
  152.4504  139.0251  155.6177 H   0  0  0  0  0  0  0  0  0  0  0  0
  152.2052  139.3730  153.9016 H   0  0  0  0  0  0  0  0  0  0  0  0
  150.9239  137.1876  153.7220 H   0  0  0  0  0  0  0  0  0  0  0  0
  151.0811  136.9749  155.4401 H   0  0  0  0  0  0  0  0  0  0  0  0
  150.5528  140.0541  153.6595 H   0  0  0  0  0  0  0  0  0  0  0  0
  149.3421  139.1617  152.8043 H   0  0  0  0  0  0  0  0  0  0  0  0
  148.5400  141.4114  153.1533 H   0  0  0  0  0  0  0  0  0  0  0  0
  148.8216  141.3451  154.8790 H   0  0  0  0  0  0  0  0  0  0  0  0
  147.5426  140.3745  154.1558 H   0  0  0  0  0  0  0  0  0  0  0  0
  148.5081  136.6493  155.4636 H   0  0  0  0  0  0  0  0  0  0  0  0
  147.9885  137.4814  152.9307 H   0  0  0  0  0  0  0  0  0  0  0  0
  144.5370  138.0794  152.4697 H   0  0  0  0  0  0  0  0  0  0  0  0
  146.1134  138.1906  151.7203 H   0  0  0  0  0  0  0  0  0  0  0  0
  143.2508  135.8644  151.4208 H   0  0  0  0  0  0  0  0  0  0  0  0
  142.9684  133.2784  150.4450 H   0  0  0  0  0  0  0  0  0  0  0  0
  144.1245  132.1909  151.2068 H   0  0  0  0  0  0  0  0  0  0  0  0
  144.4056  132.7681  149.5655 H   0  0  0  0  0  0  0  0  0  0  0  0
  147.3258  139.4626  155.5877 H   0  0  0  0  0  0  0  0  0  0  0  0
  147.4406  137.2572  157.7298 H   0  0  0  0  0  0  0  0  0  0  0  0
  145.9943  137.6996  156.8326 H   0  0  0  0  0  0  0  0  0  0  0  0
  146.7236  138.8498  157.9396 H   0  0  0  0  0  0  0  0  0  0  0  0
  149.7379  138.2704  157.0687 H   0  0  0  0  0  0  0  0  0  0  0  0
  151.0397  141.7292  156.5063 H   0  0  0  0  0  0  0  0  0  0  0  0
  151.2352  140.4196  155.3418 H   0  0  0  0  0  0  0  0  0  0  0  0
  151.5848  140.1515  157.0600 H   0  0  0  0  0  0  0  0  0  0  0  0
  1  2  1  0  0  0  0
  1 23  1  0  0  0  0
  1 24  1  0  0  0  0
  1 25  1  0  0  0  0
  2  3  1  0  0  0  0
  2 26  1  0  0  0  0
  2 27  1  0  0  0  0
  3 19  1  0  0  0  0
  3  4  1  0  0  0  0
  3  6  1  0  0  0  0
  4  5  1  0  0  0  0
  4 28  1  0  0  0  0
  4 29  1  0  0  0  0
  5 30  1  0  0  0  0
  5 31  1  0  0  0  0
  5 32  1  0  0  0  0
  6  7  1  0  0  0  0
  6 17  1  0  0  0  0
  6 33  1  0  0  0  0
  7  8  1  0  0  0  0
  7 34  1  0  0  0  0
  8  9  2  0  0  0  0
  8 10  1  0  0  0  0
 10 35  1  0  0  0  0
 10 36  1  0  0  0  0
 10 11  1  0  0  0  0
 11 16  1  0  0  0  0
 11 12  2  0  0  0  0
 12 13  1  0  0  0  0
 12 37  1  0  0  0  0
 13 14  1  0  0  0  0
 13 15  2  0  0  0  0
 14 38  1  0  0  0  0
 14 39  1  0  0  0  0
 14 40  1  0  0  0  0
 15 16  1  0  0  0  0
 16 22  1  0  0  0  0
 17 18  1  0  0  0  0
 17 19  1  0  0  0  0
 17 41  1  0  0  0  0
 18 42  1  0  0  0  0
 18 43  1  0  0  0  0
 18 44  1  0  0  0  0
 19 20  1  0  0  0  0
 19 45  1  0  0  0  0
 20 21  1  0  0  0  0
 21 46  1  0  0  0  0
 21 47  1  0  0  0  0
 21 48  1  0  0  0  0
M  END
> <s_m_source_file>
AV-unprocessed.smi

> <i_m_source_file_index>
2510

> <i_lp_mmshare_version>
43012

> <i_f3d_flags>
0

> <s_epik_input>
W0NIM11PW0NAQEhdMVtDQEhdKFtDSDNdKVtDQEBIXShDMShbQ0gyXVtDSDNdKVtDSDJdW0NIM10pW05IXUMoPU8pW0NIMl1jMltjSF1jKFtDSDNdKVtuSF1uMg==

> <s_epik_cmdline>
J2VwaWtfcHl0aG9uJywgJy1waCcsICc3LjAnLCAnLXRuJywgJzgnLCAnLW1hJywgJzIwMCcsICctbWV0YWxfYmluZGluZycsICctaW1hZScsICc8aW5maWxlLm1hZT4nLCAnLW9tYWUnLCAnPG91dGZpbGUubWFlPic=

> <r_lp_tautomer_probability>
0.5

> <r_epik_Ionization_Penalty>
0.000134763

> <r_epik_Ionization_Penalty_Charging>
0

> <r_epik_Ionization_Penalty_Neutral>
0.000134763

> <r_epik_State_Penalty>
0.41068

> <r_epik_Charging_Adjusted_Penalty>
0.41068

> <i_epik_Tot_Q>
0

> <i_epik_Tot_abs_Q>
0

> <r_epik_Metal_State_Penalty>
0.410661

> <b_epik_Metal_Only>
0

> <s_lp_Force_Field>
OPLS_2005

> <r_lp_Energy>
25.9976

> <b_lp_Chiralities_Consistent>
1

> <s_lp_Variant>
AV-unprocessed.smi:2510-14

> <Gold.Version>
5.8.1

> <Gold.Id.Protein>
6NUR|6NUR_protein|mol2

> <Gold.PLP.Fitness>
32.4365

> <Gold.PLP.PLP>
-28.4655

> <Gold.PLP.part.hbond>
-2.0000

> <Gold.PLP.part.metal>
0.0000

> <Gold.PLP.part.buried>
-1.7762

> <Gold.PLP.part.nonpolar>
-25.7988

> <Gold.PLP.part.repulsive>
0.3296

> <Gold.PLP.ligand.clash>
0.0000

> <Gold.PLP.ligand.torsion>
1.0557

> <Gold.PLP.Chemscore.Hbond>
1.8320

> <Gold.PLP.Chemscore.CHOScore>
0.0000

> <Gold.PLP.Chemscore.Metal>
0.0000

> <Gold.Chemscore.Hbonds>
donor molecule, donor type, donor heavy atom, donor atom, acceptor molecule, acceptor atom, score
      L1  H     7    34       P1  7948  0.86
      L1  H    16    22       P1  7948  1.00

> <Gold.PLP.Chemscore.Internal.Correction>
0.5864

> <Gold.Rescore>
     Score         DG    S(hbond)    S(metal)    S(lipo)     H(rot)  DE(clash)    DE(int)     intcor
      9.43     -15.41       1.79        0.00      73.27       1.81       0.32       5.66       ----

> <Gold.Chemscore.Fitness>
9.4292

> <Gold.Chemscore.DG>
-15.4053

> <Gold.Chemscore.ZeroCoef>
-5.4800

> <Gold.Chemscore.Hbond>
1.7925

> <Gold.Chemscore.Metal>
0.0000

> <Gold.Chemscore.Lipo>
73.2693

> <Gold.Chemscore.Internal_Hbond>
0.0000

> <Gold.Chemscore.DEClash>
0.3188

> <Gold.Chemscore.DEInternal>
5.6573

> <Gold.Chemscore.Rot>
1.8102

> <Gold.Chemscore.Internal.Correction>
   9.000000E+99

> <Gold.Chemscore.Hbonds>
donor molecule, donor type, donor heavy atom, donor atom, acceptor molecule, acceptor atom, score
      L1  H     7    34       P1  7948  0.85
      L1  H    16    22       P1  7948  0.99

> <Gold.Chemscore.Hbond.Weighted>
-5.9869

> <Gold.Chemscore.Metal.Weighted>
-0.0000

> <Gold.Chemscore.Lipo.Weighted>
-8.5725

> <Gold.Chemscore.Internal_Hbond.Weighted>
0.0000

> <Gold.Chemscore.DEClash.Weighted>
0.3188

> <Gold.Chemscore.DEInternal.Weighted>
5.6573

> <Gold.Chemscore.Rot.Weighted>
4.6341

> <Gold.Chemscore.Internal.Correction.Weighted>
   9.000000E+99

> <Gold.Protein.RotatedTorsions>
[ 6907 6896 6895 6894 ] final  151.57 input  -60.11 | X-H torsion
[ 7974 7965 7964 7962 ] final -127.10 input  175.53 | X-H torsion
[ 8008 7997 7996 7995 ] final   -5.16 input   59.86 | X-H torsion
[ 10167 10162 10161 10158 ] final  146.72 input  -65.29 | X-H torsion
[ 10718 10713 10712 10709 ] final   75.22 input   66.30 | X-H torsion
[ 10763 10752 10751 10750 ] final  154.89 input  -60.55 | X-H torsion
[ 11005 11000 10999 10996 ] final -169.68 input  -57.11 | X-H torsion

> <Gold.Protein.ActiveResidues>
 VAL166  LYS551  ARG553  GLY616  TRP617  ASP618  TYR619  PRO620  LYS621  CYS622 
 ASP623  PHE694  ASN695  SER759  ASP760  ASP761  ALA762  ILE779  LEU786  VAL792 
 PHE793  MET794  SER795  GLU796  ALA797  LYS798  CYS799  TRP800  GLU811  SER814 

> <Gold.Protein.RotatedAtoms>
  152.0988  133.4239  159.4577 H   0  0  0  0  0  0  0  0  0  0  0  0  # atno 6907 bound_to 6896
  150.6863  134.2785  159.4626 H   0  0  0  0  0  0  0  0  0  0  0  0  # atno 6908 bound_to 6896
  152.0643  134.9574  160.0625 H   0  0  0  0  0  0  0  0  0  0  0  0  # atno 6909 bound_to 6896
  144.9805  140.7635  143.4615 H   0  0  0  0  0  0  0  0  0  0  0  0  # atno 7974 bound_to 7965
  154.6068  140.2465  155.7720 H   0  0  0  0  0  0  0  0  0  0  0  0  # atno 8008 bound_to 7997
  156.2346  140.2955  156.0229 H   0  0  0  0  0  0  0  0  0  0  0  0  # atno 8009 bound_to 7997
  155.2119  140.0397  157.2925 H   0  0  0  0  0  0  0  0  0  0  0  0  # atno 8010 bound_to 7997
  139.4902  144.5809  151.6874 H   0  0  0  0  0  0  0  0  0  0  0  0  # atno 10167 bound_to 10162
  157.6625  130.9716  150.1323 H   0  0  0  0  0  0  0  0  0  0  0  0  # atno 10718 bound_to 10713
  154.1596  135.2810  155.3112 H   0  0  0  0  0  0  0  0  0  0  0  0  # atno 10763 bound_to 10752
  154.6156  135.5484  153.7523 H   0  0  0  0  0  0  0  0  0  0  0  0  # atno 10764 bound_to 10752
  153.0196  135.6426  154.1738 H   0  0  0  0  0  0  0  0  0  0  0  0  # atno 10765 bound_to 10752
  140.5280  134.5644  157.5067 H   0  0  0  0  0  0  0  0  0  0  0  0  # atno 11005 bound_to 11000
  145.2428  139.2065  143.4984 LP  0  0  0  0  0  0  0  0  0  0  0  0  # atno 17320 bound_to 7965
  146.3407  140.2326  142.8593 LP  0  0  0  0  0  0  0  0  0  0  0  0  # atno 17321 bound_to 7965
  140.5415  144.0572  150.6090 LP  0  0  0  0  0  0  0  0  0  0  0  0  # atno 17342 bound_to 10162
  140.3596  143.2916  152.0399 LP  0  0  0  0  0  0  0  0  0  0  0  0  # atno 17343 bound_to 10162
  156.2166  130.3670  149.8605 LP  0  0  0  0  0  0  0  0  0  0  0  0  # atno 17370 bound_to 10713
  156.6470  130.8728  151.3524 LP  0  0  0  0  0  0  0  0  0  0  0  0  # atno 17371 bound_to 10713
  139.9570  134.7518  156.0320 LP  0  0  0  0  0  0  0  0  0  0  0  0  # atno 17394 bound_to 11000
  141.1297  133.6589  156.3432 LP  0  0  0  0  0  0  0  0  0  0  0  0  # atno 17395 bound_to 11000

$$$$
