AV-unprocessed.smi:3331|AV-procd|sdf|12826|dock5
  -GOLD-   2272019203D 1   1.00000     0.00000
 Structure written by MMmdl.
 46 47  0  0  0  0  0  0  0  0  1 V2000
  154.1187  141.3969  160.7521 C   0  0  0  0  0  0  0  0  0  0  0  0
  153.1899  141.9921  159.6852 C   0  0  2  0  0  0  0  0  0  0  0  0
  152.8396  143.4645  159.9988 C   0  0  0  0  0  0  0  0  0  0  0  0
  151.7983  144.0564  159.0226 C   0  0  1  0  0  0  0  0  0  0  0  0
  152.4194  144.4221  157.6627 C   0  0  0  0  0  0  0  0  0  0  0  0
  150.5938  143.0985  158.8901 C   0  0  0  0  0  0  0  0  0  0  0  0
  151.0609  141.7636  158.4847 N   0  0  0  0  0  0  0  0  0  0  0  0
  150.8468  141.1665  157.2836 C   0  0  0  0  0  0  0  0  0  0  0  0
  151.3019  140.0507  157.0245 O   0  0  0  0  0  0  0  0  0  0  0  0
  150.0054  141.8876  156.2085 C   0  0  1  0  0  0  0  0  0  0  0  0
  149.8890  141.0449  154.9185 C   0  0  0  0  0  0  0  0  0  0  0  0
  148.6788  142.2173  156.7551 N   0  0  0  0  0  0  0  0  0  0  0  0
  147.8193  141.0491  156.9030 C   0  0  0  0  0  0  0  0  0  0  0  0
  146.3409  141.4723  156.8931 C   0  0  0  0  0  0  0  0  0  0  0  0
  146.0088  142.2944  155.7424 N   0  0  0  0  0  0  0  0  0  0  0  0
  146.5627  142.2629  154.4799 C   0  0  0  0  0  0  0  0  0  0  0  0
  145.9314  143.2174  153.7350 C   0  0  0  0  0  0  0  0  0  0  0  0
  144.9973  143.7907  154.6424 C   0  0  0  0  0  0  0  0  0  0  0  0
  145.0478  143.2382  155.8437 N   0  0  0  0  0  0  0  0  0  0  0  0
  151.9011  141.1587  159.5275 C   0  0  0  0  0  0  0  0  0  0  0  0
  153.6424  141.3891  161.7328 H   0  0  0  0  0  0  0  0  0  0  0  0
  155.0415  141.9720  160.8336 H   0  0  0  0  0  0  0  0  0  0  0  0
  154.3912  140.3702  160.5062 H   0  0  0  0  0  0  0  0  0  0  0  0
  153.7266  141.9634  158.7357 H   0  0  0  0  0  0  0  0  0  0  0  0
  152.4325  143.5191  161.0095 H   0  0  0  0  0  0  0  0  0  0  0  0
  153.7423  144.0766  160.0071 H   0  0  0  0  0  0  0  0  0  0  0  0
  151.4329  144.9875  159.4577 H   0  0  0  0  0  0  0  0  0  0  0  0
  152.8186  143.5487  157.1471 H   0  0  0  0  0  0  0  0  0  0  0  0
  153.2364  145.1335  157.7853 H   0  0  0  0  0  0  0  0  0  0  0  0
  151.6797  144.8834  157.0080 H   0  0  0  0  0  0  0  0  0  0  0  0
  150.0931  143.0101  159.8555 H   0  0  0  0  0  0  0  0  0  0  0  0
  149.8434  143.5279  158.2298 H   0  0  0  0  0  0  0  0  0  0  0  0
  150.5298  142.8038  155.9378 H   0  0  0  0  0  0  0  0  0  0  0  0
  150.8662  140.6938  154.5843 H   0  0  0  0  0  0  0  0  0  0  0  0
  149.4713  141.6224  154.0945 H   0  0  0  0  0  0  0  0  0  0  0  0
  149.2537  140.1705  155.0657 H   0  0  0  0  0  0  0  0  0  0  0  0
  148.2020  142.8866  156.1675 H   0  0  0  0  0  0  0  0  0  0  0  0
  148.0004  140.3626  156.0748 H   0  0  0  0  0  0  0  0  0  0  0  0
  148.0418  140.5107  157.8237 H   0  0  0  0  0  0  0  0  0  0  0  0
  145.6889  140.5972  156.9178 H   0  0  0  0  0  0  0  0  0  0  0  0
  146.1179  142.0498  157.7907 H   0  0  0  0  0  0  0  0  0  0  0  0
  147.3488  141.5694  154.2194 H   0  0  0  0  0  0  0  0  0  0  0  0
  146.1096  143.4680  152.6999 H   0  0  0  0  0  0  0  0  0  0  0  0
  144.2900  144.5875  154.4656 H   0  0  0  0  0  0  0  0  0  0  0  0
  152.1552  140.1195  159.3144 H   0  0  0  0  0  0  0  0  0  0  0  0
  151.3482  141.1363  160.4679 H   0  0  0  0  0  0  0  0  0  0  0  0
  1  2  1  0  0  0  0
  1 21  1  0  0  0  0
  1 22  1  0  0  0  0
  1 23  1  0  0  0  0
  2 20  1  0  0  0  0
  2  3  1  0  0  0  0
  2 24  1  0  0  0  0
  3  4  1  0  0  0  0
  3 25  1  0  0  0  0
  3 26  1  0  0  0  0
  4  5  1  0  0  0  0
  4  6  1  0  0  0  0
  4 27  1  0  0  0  0
  5 28  1  0  0  0  0
  5 29  1  0  0  0  0
  5 30  1  0  0  0  0
  6  7  1  0  0  0  0
  6 31  1  0  0  0  0
  6 32  1  0  0  0  0
  7  8  1  0  0  0  0
  7 20  1  0  0  0  0
  8  9  2  0  0  0  0
  8 10  1  0  0  0  0
 10 11  1  0  0  0  0
 10 12  1  0  0  0  0
 10 33  1  0  0  0  0
 11 34  1  0  0  0  0
 11 35  1  0  0  0  0
 11 36  1  0  0  0  0
 12 13  1  0  0  0  0
 12 37  1  0  0  0  0
 13 14  1  0  0  0  0
 13 38  1  0  0  0  0
 13 39  1  0  0  0  0
 14 15  1  0  0  0  0
 14 40  1  0  0  0  0
 14 41  1  0  0  0  0
 15 19  1  0  0  0  0
 15 16  1  0  0  0  0
 16 17  2  0  0  0  0
 16 42  1  0  0  0  0
 17 18  1  0  0  0  0
 17 43  1  0  0  0  0
 18 19  2  0  0  0  0
 18 44  1  0  0  0  0
 20 45  1  0  0  0  0
 20 46  1  0  0  0  0
M  END
> <s_m_source_file>
AV-unprocessed.smi

> <i_m_source_file_index>
3331

> <i_lp_mmshare_version>
43012

> <i_f3d_flags>
0

> <s_epik_input>
W0NIM11bQ0BASF0xW0NIMl1bQ0BASF0oW0NIM10pW0NIMl1OKFtDSDJdMSlDKD1PKVtDQEhdKFtDSDNdKVtOSF1bQ0gyXVtDSDJdbjJbY0hdW2NIXVtjSF1uMg==

> <s_epik_cmdline>
J2VwaWtfcHl0aG9uJywgJy1waCcsICc3LjAnLCAnLXRuJywgJzgnLCAnLW1hJywgJzIwMCcsICctbWV0YWxfYmluZGluZycsICctaW1hZScsICc8aW5maWxlLm1hZT4nLCAnLW9tYWUnLCAnPG91dGZpbGUubWFlPic=

> <r_lp_tautomer_probability>
1

> <r_epik_Ionization_Penalty>
0.767994

> <r_epik_Ionization_Penalty_Charging>
0

> <r_epik_Ionization_Penalty_Neutral>
0.767994

> <r_epik_State_Penalty>
0.795453

> <r_epik_Charging_Adjusted_Penalty>
0.795453

> <i_epik_Tot_Q>
0

> <i_epik_Tot_abs_Q>
0

> <r_epik_Metal_State_Penalty>
0.794784

> <b_epik_Metal_Only>
0

> <s_lp_Force_Field>
OPLS_2005

> <r_lp_Energy>
31.6007

> <b_lp_Chiralities_Consistent>
1

> <s_lp_Variant>
AV-unprocessed.smi:3331-10

> <Gold.Version>
5.8.1

> <Gold.Id.Protein>
6NUR|6NUR_protein|mol2

> <Gold.PLP.Fitness>
44.8384

> <Gold.PLP.PLP>
-44.3477

> <Gold.PLP.part.hbond>
-1.0000

> <Gold.PLP.part.metal>
0.0000

> <Gold.PLP.part.buried>
-4.2601

> <Gold.PLP.part.nonpolar>
-39.1775

> <Gold.PLP.part.repulsive>
0.1430

> <Gold.PLP.ligand.clash>
0.0000

> <Gold.PLP.ligand.torsion>
0.5925

> <Gold.PLP.Chemscore.Hbond>
0.5440

> <Gold.PLP.Chemscore.CHOScore>
0.0000

> <Gold.PLP.Chemscore.Metal>
0.0000

> <Gold.Chemscore.Hbonds>
donor molecule, donor type, donor heavy atom, donor atom, acceptor molecule, acceptor atom, score
      L1  H    12    37       P1  8028  0.54

> <Gold.PLP.Chemscore.Internal.Correction>
0.0437

> <Gold.Rescore>
     Score         DG    S(hbond)    S(metal)    S(lipo)     H(rot)  DE(clash)    DE(int)     intcor
     12.55     -14.82       0.15        0.00     111.89       1.66       0.77       1.49       ----

> <Gold.Chemscore.Fitness>
12.5548

> <Gold.Chemscore.DG>
-14.8195

> <Gold.Chemscore.ZeroCoef>
-5.4800

> <Gold.Chemscore.Hbond>
0.1527

> <Gold.Chemscore.Metal>
0.0000

> <Gold.Chemscore.Lipo>
111.8923

> <Gold.Chemscore.Internal_Hbond>
0.0000

> <Gold.Chemscore.DEClash>
0.7719

> <Gold.Chemscore.DEInternal>
1.4927

> <Gold.Chemscore.Rot>
1.6649

> <Gold.Chemscore.Internal.Correction>
   9.000000E+99

> <Gold.Chemscore.Hbonds>
donor molecule, donor type, donor heavy atom, donor atom, acceptor molecule, acceptor atom, score
      L1  H    12    37       P1  8028  0.40

> <Gold.Chemscore.Hbond.Weighted>
-0.5101

> <Gold.Chemscore.Metal.Weighted>
-0.0000

> <Gold.Chemscore.Lipo.Weighted>
-13.0914

> <Gold.Chemscore.Internal_Hbond.Weighted>
0.0000

> <Gold.Chemscore.DEClash.Weighted>
0.7719

> <Gold.Chemscore.DEInternal.Weighted>
1.4927

> <Gold.Chemscore.Rot.Weighted>
4.2621

> <Gold.Chemscore.Internal.Correction.Weighted>
   9.000000E+99

> <Gold.Protein.RotatedTorsions>
[ 6907 6896 6895 6894 ] final  -14.52 input  -60.11 | X-H torsion
[ 7974 7965 7964 7962 ] final  -33.95 input  175.53 | X-H torsion
[ 8008 7997 7996 7995 ] final  -14.86 input   59.86 | X-H torsion
[ 10167 10162 10161 10158 ] final   23.23 input  -65.29 | X-H torsion
[ 10718 10713 10712 10709 ] final  117.18 input   66.30 | X-H torsion
[ 10763 10752 10751 10750 ] final   43.95 input  -60.55 | X-H torsion
[ 11005 11000 10999 10996 ] final   72.80 input  -57.11 | X-H torsion

> <Gold.Protein.ActiveResidues>
 VAL166  LYS551  ARG553  GLY616  TRP617  ASP618  TYR619  PRO620  LYS621  CYS622 
 ASP623  PHE694  ASN695  SER759  ASP760  ASP761  ALA762  ILE779  LEU786  VAL792 
 PHE793  MET794  SER795  GLU796  ALA797  LYS798  CYS799  TRP800  GLU811  SER814 

> <Gold.Protein.RotatedAtoms>
  151.3381  135.0857  159.9361 H   0  0  0  0  0  0  0  0  0  0  0  0  # atno 6907 bound_to 6896
  152.5218  133.9475  159.7666 H   0  0  0  0  0  0  0  0  0  0  0  0  # atno 6908 bound_to 6896
  150.9827  133.6176  159.2750 H   0  0  0  0  0  0  0  0  0  0  0  0  # atno 6909 bound_to 6896
  146.0869  140.5979  142.8882 H   0  0  0  0  0  0  0  0  0  0  0  0  # atno 7974 bound_to 7965
  154.5176  140.2211  155.9037 H   0  0  0  0  0  0  0  0  0  0  0  0  # atno 8008 bound_to 7997
  156.1625  140.3139  155.8797 H   0  0  0  0  0  0  0  0  0  0  0  0  # atno 8009 bound_to 7997
  155.3723  140.0467  157.3036 H   0  0  0  0  0  0  0  0  0  0  0  0  # atno 8010 bound_to 7997
  140.5285  143.9882  150.6453 H   0  0  0  0  0  0  0  0  0  0  0  0  # atno 10167 bound_to 10162
  157.6113  131.1034  150.7578 H   0  0  0  0  0  0  0  0  0  0  0  0  # atno 10718 bound_to 10713
  152.9850  135.6086  154.3194 H   0  0  0  0  0  0  0  0  0  0  0  0  # atno 10763 bound_to 10752
  154.2904  135.2775  155.2659 H   0  0  0  0  0  0  0  0  0  0  0  0  # atno 10764 bound_to 10752
  154.4957  135.5880  153.6549 H   0  0  0  0  0  0  0  0  0  0  0  0  # atno 10765 bound_to 10752
  139.9472  134.7291  156.0950 H   0  0  0  0  0  0  0  0  0  0  0  0  # atno 11005 bound_to 11000
  144.7332  140.4733  143.6922 LP  0  0  0  0  0  0  0  0  0  0  0  0  # atno 17320 bound_to 7965
  145.6113  139.1513  143.3074 LP  0  0  0  0  0  0  0  0  0  0  0  0  # atno 17321 bound_to 7965
  140.3250  143.3113  152.0745 LP  0  0  0  0  0  0  0  0  0  0  0  0  # atno 17342 bound_to 10162
  139.4946  144.6548  151.6597 LP  0  0  0  0  0  0  0  0  0  0  0  0  # atno 17343 bound_to 10162
  156.7955  130.4904  149.5378 LP  0  0  0  0  0  0  0  0  0  0  0  0  # atno 17370 bound_to 10713
  156.1217  130.6115  151.0204 LP  0  0  0  0  0  0  0  0  0  0  0  0  # atno 17371 bound_to 10713
  141.1126  133.6638  156.3015 LP  0  0  0  0  0  0  0  0  0  0  0  0  # atno 17394 bound_to 11000
  140.5805  134.5750  157.5478 LP  0  0  0  0  0  0  0  0  0  0  0  0  # atno 17395 bound_to 11000

$$$$
