AV-unprocessed.smi:1|AV-procd|sdf|21|dock9
  -GOLD-   2262015123D 1   1.00000     0.00000
 Structure written by MMmdl.
 56 61  0  0  0  0  0  0  0  0  2 V2000
  154.3511  139.9747  159.1126 O   0  0  0  0  0  0  0  0  0  0  0  0
  153.3861  140.7409  159.1570 C   0  0  0  0  0  0  0  0  0  0  0  0
  152.3336  140.8048  158.3023 N   0  5  0  0  0  0  0  0  0  0  0  0
  152.0037  139.7279  157.5727 C   0  0  0  0  0  0  0  0  0  0  0  0
  152.6709  139.4460  156.4247 N   0  0  0  0  0  0  0  0  0  0  0  0
  152.3360  138.3767  155.6936 C   0  0  0  0  0  0  0  0  0  0  0  0
  151.3819  137.4693  155.9215 N   0  0  0  0  0  0  0  0  0  0  0  0
  150.7109  137.7326  157.0804 C   0  0  0  0  0  0  0  0  0  0  0  0
  150.9685  138.8301  157.9531 C   0  0  0  0  0  0  0  0  0  0  0  0
  150.1121  138.8038  159.0434 N   0  0  0  0  0  0  0  0  0  0  0  0
  149.3851  137.7191  158.7875 C   0  0  0  0  0  0  0  0  0  0  0  0
  149.6587  137.0374  157.6571 N   0  0  0  0  0  0  0  0  0  0  0  0
  148.9769  135.8005  157.1676 C   0  0  2  0  0  0  0  0  0  0  0  0
  149.8569  135.0780  156.3579 O   0  0  0  0  0  0  0  0  0  0  0  0
  149.3645  135.0022  155.0226 C   0  0  1  0  0  0  0  0  0  0  0  0
  149.8131  133.7036  154.3435 C   0  0  0  0  0  0  0  0  0  0  0  0
  148.8454  133.3360  153.3747 O   0  0  0  0  0  0  0  0  0  0  0  0
  148.1446  132.1957  153.5174 C   0  0  0  0  0  0  0  0  0  0  0  0
  148.4062  131.3352  154.3605 O   0  0  0  0  0  0  0  0  0  0  0  0
  147.0163  132.0847  152.5484 C   0  0  0  0  0  0  0  0  0  0  0  0
  146.3335  130.8526  152.4180 C   0  0  0  0  0  0  0  0  0  0  0  0
  145.2645  130.7174  151.5109 C   0  0  0  0  0  0  0  0  0  0  0  0
  144.8643  131.8129  150.7238 C   0  0  0  0  0  0  0  0  0  0  0  0
  145.5354  133.0439  150.8438 C   0  0  0  0  0  0  0  0  0  0  0  0
  146.6053  133.1809  151.7498 C   0  0  0  0  0  0  0  0  0  0  0  0
  147.8521  135.1509  155.1742 C   0  0  1  0  0  0  0  0  0  0  0  0
  147.2464  133.9269  155.5572 O   0  0  0  0  0  0  0  0  0  0  0  0
  146.1250  134.2469  156.7534 S   0  0  0  0  0  0  0  0  0  0  0  0
  144.7855  134.2365  156.1463 O   0  0  0  0  0  0  0  0  0  0  0  0
  146.4678  133.4387  157.9336 O   0  0  0  0  0  0  0  0  0  0  0  0
  146.5449  135.8345  157.0632 O   0  0  0  0  0  0  0  0  0  0  0  0
  147.7260  136.1342  156.3407 C   0  0  1  0  0  0  0  0  0  0  0  0
  153.2777  141.7042  160.3083 C   0  0  0  0  0  0  0  0  0  0  0  0
  152.4980  142.8751  160.1706 C   0  0  0  0  0  0  0  0  0  0  0  0
  152.3603  143.7747  161.2457 C   0  0  0  0  0  0  0  0  0  0  0  0
  152.9934  143.5076  162.4740 C   0  0  0  0  0  0  0  0  0  0  0  0
  153.7613  142.3383  162.6275 C   0  0  0  0  0  0  0  0  0  0  0  0
  153.8999  141.4385  161.5525 C   0  0  0  0  0  0  0  0  0  0  0  0
  152.9141  138.2284  154.7937 H   0  0  0  0  0  0  0  0  0  0  0  0
  148.6011  137.4050  159.4608 H   0  0  0  0  0  0  0  0  0  0  0  0
  148.7606  135.2237  158.0680 H   0  0  0  0  0  0  0  0  0  0  0  0
  149.7379  135.8556  154.4572 H   0  0  0  0  0  0  0  0  0  0  0  0
  150.7946  133.8274  153.8836 H   0  0  0  0  0  0  0  0  0  0  0  0
  149.8921  132.9064  155.0839 H   0  0  0  0  0  0  0  0  0  0  0  0
  146.6224  129.9979  153.0129 H   0  0  0  0  0  0  0  0  0  0  0  0
  144.7509  129.7715  151.4201 H   0  0  0  0  0  0  0  0  0  0  0  0
  144.0438  131.7095  150.0290 H   0  0  0  0  0  0  0  0  0  0  0  0
  145.2298  133.8858  150.2400 H   0  0  0  0  0  0  0  0  0  0  0  0
  147.0987  134.1397  151.8164 H   0  0  0  0  0  0  0  0  0  0  0  0
  147.3746  135.5175  154.2649 H   0  0  0  0  0  0  0  0  0  0  0  0
  147.7429  137.1683  155.9951 H   0  0  0  0  0  0  0  0  0  0  0  0
  152.0030  143.0926  159.2350 H   0  0  0  0  0  0  0  0  0  0  0  0
  151.7668  144.6692  161.1274 H   0  0  0  0  0  0  0  0  0  0  0  0
  152.8866  144.1964  163.2988 H   0  0  0  0  0  0  0  0  0  0  0  0
  154.2419  142.1281  163.5714 H   0  0  0  0  0  0  0  0  0  0  0  0
  154.4843  140.5408  161.6946 H   0  0  0  0  0  0  0  0  0  0  0  0
  1  2  2  0  0  0  0
  2  3  1  0  0  0  0
  2 33  1  0  0  0  0
  3  4  1  0  0  0  0
  4  9  1  0  0  0  0
  4  5  2  0  0  0  0
  5  6  1  0  0  0  0
  6  7  2  0  0  0  0
  6 39  1  0  0  0  0
  7  8  1  0  0  0  0
  8 12  1  0  0  0  0
  8  9  2  0  0  0  0
  9 10  1  0  0  0  0
 10 11  2  0  0  0  0
 11 12  1  0  0  0  0
 11 40  1  0  0  0  0
 12 13  1  0  0  0  0
 13 32  1  0  0  0  0
 13 14  1  0  0  0  0
 13 41  1  0  0  0  0
 14 15  1  0  0  0  0
 15 16  1  0  0  0  0
 15 26  1  0  0  0  0
 15 42  1  0  0  0  0
 16 17  1  0  0  0  0
 16 43  1  0  0  0  0
 16 44  1  0  0  0  0
 17 18  1  0  0  0  0
 18 19  2  0  0  0  0
 18 20  1  0  0  0  0
 20 25  1  0  0  0  0
 20 21  2  0  0  0  0
 21 22  1  0  0  0  0
 21 45  1  0  0  0  0
 22 23  2  0  0  0  0
 22 46  1  0  0  0  0
 23 24  1  0  0  0  0
 23 47  1  0  0  0  0
 24 25  2  0  0  0  0
 24 48  1  0  0  0  0
 25 49  1  0  0  0  0
 26 32  1  0  0  0  0
 26 27  1  0  0  0  0
 26 50  1  0  0  0  0
 27 28  1  0  0  0  0
 28 29  2  0  0  0  0
 28 30  2  0  0  0  0
 28 31  1  0  0  0  0
 31 32  1  0  0  0  0
 32 51  1  0  0  0  0
 33 38  1  0  0  0  0
 33 34  2  0  0  0  0
 34 35  1  0  0  0  0
 34 52  1  0  0  0  0
 35 36  2  0  0  0  0
 35 53  1  0  0  0  0
 36 37  1  0  0  0  0
 36 54  1  0  0  0  0
 37 38  2  0  0  0  0
 37 55  1  0  0  0  0
 38 56  1  0  0  0  0
M  CHG  1   3  -1
M  END
> <s_m_source_file>
AV-unprocessed.smi

> <i_m_source_file_index>
1

> <i_lp_mmshare_version>
43012

> <i_f3d_flags>
0

> <s_epik_input>
W2NIXTFbY0hdW2NIXVtjSF1bY0hdYzFDKD1PKVtOSF1jKG5bY0hdbjIpYyhjMjMpbltjSF1uM1tDQEBIXShbQ0BIXShbQ0BIXTQ1KU9TKE81KSg9Tyk9TylPW0NASF00W0NIMl1PQyg9TyljNltjSF1bY0hdW2NIXVtjSF1bY0hdNg==

> <s_epik_cmdline>
J2VwaWtfcHl0aG9uJywgJy1waCcsICc3LjAnLCAnLXRuJywgJzgnLCAnLW1hJywgJzIwMCcsICctbWV0YWxfYmluZGluZycsICctaW1hZScsICc8aW5maWxlLm1hZT4nLCAnLW9tYWUnLCAnPG91dGZpbGUubWFlPic=

> <r_lp_tautomer_probability>
1

> <r_epik_Ionization_Penalty>
4.39121

> <r_epik_Ionization_Penalty_Charging>
3.39398

> <r_epik_Ionization_Penalty_Neutral>
0.997232

> <r_epik_State_Penalty>
3.39839

> <r_epik_Charging_Adjusted_Penalty>
6.79237

> <i_epik_Tot_Q>
-1

> <i_epik_Tot_abs_Q>
1

> <r_epik_Metal_State_Penalty>
0.497663

> <b_epik_Metal_Only>
1

> <s_epik_Chemistry_Notes>
This compound has an ester and may undergo hydrolysis at high or low pH. This compound contains an acetal/aminal-like group ( X-CH(R)-Y where X, Y are N, S, or O) that may be acid/base labile, releasing an aldehyde.

> <s_lp_Force_Field>
OPLS_2005

> <r_lp_Energy>
42.9256

> <b_lp_Chiralities_Consistent>
1

> <s_lp_Variant>
AV-unprocessed.smi:1-21

> <Gold.Version>
5.8.1

> <Gold.Id.Protein>
6NUR|6NUR_protein|mol2

> <Gold.PLP.Fitness>
55.2527

> <Gold.PLP.PLP>
-57.4355

> <Gold.PLP.part.hbond>
-3.0000

> <Gold.PLP.part.metal>
0.0000

> <Gold.PLP.part.buried>
-8.2151

> <Gold.PLP.part.nonpolar>
-46.9270

> <Gold.PLP.part.repulsive>
0.3908

> <Gold.PLP.ligand.clash>
0.0000

> <Gold.PLP.ligand.torsion>
2.6989

> <Gold.PLP.Chemscore.Hbond>
0.9920

> <Gold.PLP.Chemscore.CHOScore>
0.0000

> <Gold.PLP.Chemscore.Metal>
0.0000

> <Gold.Chemscore.Hbonds>
donor molecule, donor type, donor heavy atom, donor atom, acceptor molecule, acceptor atom, score
      P1  H  7997  8008       L1     1  0.96

> <Gold.PLP.Chemscore.Internal.Correction>
0.2391

> <Gold.Rescore>
     Score         DG    S(hbond)    S(metal)    S(lipo)     H(rot)  DE(clash)    DE(int)     intcor
     11.28     -18.61       0.84        0.00     134.53       2.11       0.41       6.92       ----

> <Gold.Chemscore.Fitness>
11.2796

> <Gold.Chemscore.DG>
-18.6056

> <Gold.Chemscore.ZeroCoef>
-5.4800

> <Gold.Chemscore.Hbond>
0.8372

> <Gold.Chemscore.Metal>
0.0000

> <Gold.Chemscore.Lipo>
134.5305

> <Gold.Chemscore.Internal_Hbond>
0.0000

> <Gold.Chemscore.DEClash>
0.4073

> <Gold.Chemscore.DEInternal>
6.9186

> <Gold.Chemscore.Rot>
2.1136

> <Gold.Chemscore.Internal.Correction>
   9.000000E+99

> <Gold.Chemscore.Hbonds>
donor molecule, donor type, donor heavy atom, donor atom, acceptor molecule, acceptor atom, score
      P1  H  7997  8008       L1     1  0.32

> <Gold.Chemscore.Hbond.Weighted>
-2.7962

> <Gold.Chemscore.Metal.Weighted>
-0.0000

> <Gold.Chemscore.Lipo.Weighted>
-15.7401

> <Gold.Chemscore.Internal_Hbond.Weighted>
0.0000

> <Gold.Chemscore.DEClash.Weighted>
0.4073

> <Gold.Chemscore.DEInternal.Weighted>
6.9186

> <Gold.Chemscore.Rot.Weighted>
5.4107

> <Gold.Chemscore.Internal.Correction.Weighted>
   9.000000E+99

> <Gold.Protein.RotatedTorsions>
[ 6907 6896 6895 6894 ] final   34.66 input  -60.11 | X-H torsion
[ 7974 7965 7964 7962 ] final  -79.93 input  175.53 | X-H torsion
[ 8008 7997 7996 7995 ] final -102.34 input   59.86 | X-H torsion
[ 10167 10162 10161 10158 ] final  174.32 input  -65.29 | X-H torsion
[ 10718 10713 10712 10709 ] final -116.95 input   66.30 | X-H torsion
[ 10763 10752 10751 10750 ] final  178.87 input  -60.55 | X-H torsion
[ 11005 11000 10999 10996 ] final  134.11 input  -57.11 | X-H torsion

> <Gold.Protein.ActiveResidues>
 VAL166  LYS551  ARG553  GLY616  TRP617  ASP618  TYR619  PRO620  LYS621  CYS622 
 ASP623  PHE694  ASN695  SER759  ASP760  ASP761  ALA762  ILE779  LEU786  VAL792 
 PHE793  MET794  SER795  GLU796  ALA797  LYS798  CYS799  TRP800  GLU811  SER814 

> <Gold.Protein.RotatedAtoms>
  152.1055  134.9311  160.0568 H   0  0  0  0  0  0  0  0  0  0  0  0  # atno 6907 bound_to 6896
  152.0509  133.4014  159.4385 H   0  0  0  0  0  0  0  0  0  0  0  0  # atno 6908 bound_to 6896
  150.6841  134.3229  159.4838 H   0  0  0  0  0  0  0  0  0  0  0  0  # atno 6909 bound_to 6896
  145.5667  140.9473  143.1418 H   0  0  0  0  0  0  0  0  0  0  0  0  # atno 7974 bound_to 7965
  154.8552  140.0429  157.1630 H   0  0  0  0  0  0  0  0  0  0  0  0  # atno 8008 bound_to 7997
  154.8899  140.2985  155.5356 H   0  0  0  0  0  0  0  0  0  0  0  0  # atno 8009 bound_to 7997
  156.2997  140.2395  156.3913 H   0  0  0  0  0  0  0  0  0  0  0  0  # atno 8010 bound_to 7997
  139.5138  144.3159  152.0248 H   0  0  0  0  0  0  0  0  0  0  0  0  # atno 10167 bound_to 10162
  156.0999  130.6164  150.9102 H   0  0  0  0  0  0  0  0  0  0  0  0  # atno 10718 bound_to 10713
  154.5133  135.2790  155.1324 H   0  0  0  0  0  0  0  0  0  0  0  0  # atno 10763 bound_to 10752
  154.2911  135.6266  153.5389 H   0  0  0  0  0  0  0  0  0  0  0  0  # atno 10764 bound_to 10752
  152.9923  135.5674  154.5604 H   0  0  0  0  0  0  0  0  0  0  0  0  # atno 10765 bound_to 10752
  139.9894  134.9520  156.9820 H   0  0  0  0  0  0  0  0  0  0  0  0  # atno 11005 bound_to 11000
  144.7457  139.7327  143.7293 LP  0  0  0  0  0  0  0  0  0  0  0  0  # atno 17320 bound_to 7965
  146.1813  139.5007  142.9864 LP  0  0  0  0  0  0  0  0  0  0  0  0  # atno 17321 bound_to 7965
  140.2603  144.4075  150.6188 LP  0  0  0  0  0  0  0  0  0  0  0  0  # atno 17342 bound_to 10162
  140.6162  143.2172  151.6787 LP  0  0  0  0  0  0  0  0  0  0  0  0  # atno 17343 bound_to 10162
  157.6168  131.0932  150.8696 LP  0  0  0  0  0  0  0  0  0  0  0  0  # atno 17370 bound_to 10713
  156.8826  130.5185  149.5290 LP  0  0  0  0  0  0  0  0  0  0  0  0  # atno 17371 bound_to 10713
  140.4938  134.1166  155.7237 LP  0  0  0  0  0  0  0  0  0  0  0  0  # atno 17394 bound_to 11000
  141.1553  133.8894  157.1994 LP  0  0  0  0  0  0  0  0  0  0  0  0  # atno 17395 bound_to 11000

$$$$
