AV-unprocessed.smi:1760|AV-procd|sdf|7089|dock6
  -GOLD-   22720 8303D 1   1.00000     0.00000
 Structure written by MMmdl.
 44 46  0  0  0  0  0  0  0  0  2 V2000
  148.7964  138.8185  156.4306 O   0  0  0  0  0  0  0  0  0  0  0  0
  148.8500  139.7761  155.6596 C   0  0  0  0  0  0  0  0  0  0  0  0
  149.6941  140.8196  155.7591 N   0  0  0  0  0  0  0  0  0  0  0  0
  150.6519  141.0946  156.7498 C   0  0  0  0  0  0  0  0  0  0  0  0
  150.8841  142.3222  157.2838 C   0  0  0  0  0  0  0  0  0  0  0  0
  151.9025  142.5426  158.2967 C   0  0  0  0  0  0  0  0  0  0  0  0
  152.0993  143.9042  158.9445 C   0  0  0  0  0  0  0  0  0  0  0  0
  152.9017  143.8230  160.0066 F   0  0  0  0  0  0  0  0  0  0  0  0
  152.6515  144.7450  158.0708 F   0  0  0  0  0  0  0  0  0  0  0  0
  150.9349  144.4204  159.3382 F   0  0  0  0  0  0  0  0  0  0  0  0
  152.6029  141.4625  158.6888 C   0  0  0  0  0  0  0  0  0  0  0  0
  152.3852  140.2013  158.1297 N   0  0  0  0  0  0  0  0  0  0  0  0
  151.4575  139.9404  157.1814 C   0  0  0  0  0  0  0  0  0  0  0  0
  151.3266  138.8003  156.7367 O   0  0  0  0  0  0  0  0  0  0  0  0
  148.0670  139.8978  154.5776 N   0  0  0  0  0  0  0  0  0  0  0  0
  147.0563  138.9373  154.1413 C   0  0  2  0  0  0  0  0  0  0  0  0
  147.5741  137.5034  154.3432 C   0  0  0  0  0  0  0  0  0  0  0  0
  146.5786  136.4713  153.7884 C   0  0  0  0  0  0  0  0  0  0  0  0
  146.2876  136.7292  152.3562 N   0  3  1  0  0  0  0  0  0  0  0  0
  145.4261  135.6819  151.7663 C   0  0  0  0  0  0  0  0  0  0  0  0
  146.1090  134.8738  150.6877 C   0  0  0  0  0  0  0  0  0  0  0  0
  145.0836  135.9215  150.3144 C   0  0  0  0  0  0  0  0  0  0  0  0
  145.7403  138.0923  152.1439 C   0  0  0  0  0  0  0  0  0  0  0  0
  146.7155  139.1646  152.6589 C   0  0  0  0  0  0  0  0  0  0  0  0
  152.9625  139.4442  158.4664 H   0  0  0  0  0  0  0  0  0  0  0  0
  149.6720  141.4889  155.0033 H   0  0  0  0  0  0  0  0  0  0  0  0
  150.3297  143.1850  156.9527 H   0  0  0  0  0  0  0  0  0  0  0  0
  153.3678  141.4779  159.4513 H   0  0  0  0  0  0  0  0  0  0  0  0
  148.1874  140.7199  154.0039 H   0  0  0  0  0  0  0  0  0  0  0  0
  146.1396  139.0540  154.7225 H   0  0  0  0  0  0  0  0  0  0  0  0
  148.5369  137.3814  153.8443 H   0  0  0  0  0  0  0  0  0  0  0  0
  147.7486  137.3141  155.4031 H   0  0  0  0  0  0  0  0  0  0  0  0
  146.9917  135.4684  153.9040 H   0  0  0  0  0  0  0  0  0  0  0  0
  145.6500  136.4987  154.3607 H   0  0  0  0  0  0  0  0  0  0  0  0
  144.7046  135.2146  152.4344 H   0  0  0  0  0  0  0  0  0  0  0  0
  147.1519  135.0900  150.4630 H   0  0  0  0  0  0  0  0  0  0  0  0
  145.8178  133.8308  150.5815 H   0  0  0  0  0  0  0  0  0  0  0  0
  144.1163  135.5688  149.9626 H   0  0  0  0  0  0  0  0  0  0  0  0
  145.4456  136.8331  149.8423 H   0  0  0  0  0  0  0  0  0  0  0  0
  145.5531  138.2514  151.0812 H   0  0  0  0  0  0  0  0  0  0  0  0
  144.7785  138.1831  152.6514 H   0  0  0  0  0  0  0  0  0  0  0  0
  146.2793  140.1552  152.5226 H   0  0  0  0  0  0  0  0  0  0  0  0
  147.6268  139.1423  152.0592 H   0  0  0  0  0  0  0  0  0  0  0  0
  147.1697  136.6883  151.8660 H   0  0  0  0  0  0  0  0  0  0  0  0
  1  2  2  0  0  0  0
  2  3  1  0  0  0  0
  2 15  1  0  0  0  0
  3  4  1  0  0  0  0
  3 26  1  0  0  0  0
  4 13  1  0  0  0  0
  4  5  2  0  0  0  0
  5  6  1  0  0  0  0
  5 27  1  0  0  0  0
  6  7  1  0  0  0  0
  6 11  2  0  0  0  0
  7  8  1  0  0  0  0
  7  9  1  0  0  0  0
  7 10  1  0  0  0  0
 11 12  1  0  0  0  0
 11 28  1  0  0  0  0
 12 25  1  0  0  0  0
 12 13  1  0  0  0  0
 13 14  2  0  0  0  0
 15 16  1  0  0  0  0
 15 29  1  0  0  0  0
 16 24  1  0  0  0  0
 16 17  1  0  0  0  0
 16 30  1  0  0  0  0
 17 18  1  0  0  0  0
 17 31  1  0  0  0  0
 17 32  1  0  0  0  0
 18 19  1  0  0  0  0
 18 33  1  0  0  0  0
 18 34  1  0  0  0  0
 19 20  1  0  0  0  0
 19 23  1  0  0  0  0
 19 44  1  0  0  0  0
 20 22  1  0  0  0  0
 20 21  1  0  0  0  0
 20 35  1  0  0  0  0
 21 22  1  0  0  0  0
 21 36  1  0  0  0  0
 21 37  1  0  0  0  0
 22 38  1  0  0  0  0
 22 39  1  0  0  0  0
 23 24  1  0  0  0  0
 23 40  1  0  0  0  0
 23 41  1  0  0  0  0
 24 42  1  0  0  0  0
 24 43  1  0  0  0  0
M  CHG  1  19   1
M  END
> <s_m_source_file>
AV-unprocessed.smi

> <i_m_source_file_index>
1760

> <i_lp_mmshare_version>
43012

> <i_f3d_flags>
0

> <s_epik_input>
W0NIMl0xW0NIMl1bQ0hdMU4oW0NIMl1bQ0gyXTIpW0NIMl1bQ0gyXVtDSF0yW05IXUMoPU8pW05IXWMzW2NIXWMoQyhGKShGKUYpW2NIXVtuSF1jMz1P

> <s_epik_cmdline>
J2VwaWtfcHl0aG9uJywgJy1waCcsICc3LjAnLCAnLXRuJywgJzgnLCAnLW1hJywgJzIwMCcsICctbWV0YWxfYmluZGluZycsICctaW1hZScsICc8aW5maWxlLm1hZT4nLCAnLW9tYWUnLCAnPG91dGZpbGUubWFlPic=

> <r_lp_tautomer_probability>
0.999

> <r_epik_Ionization_Penalty>
0.131122

> <r_epik_Ionization_Penalty_Charging>
0.131104

> <r_epik_Ionization_Penalty_Neutral>
1.84439e-05

> <r_epik_State_Penalty>
0.116042

> <r_epik_Charging_Adjusted_Penalty>
0.247146

> <i_epik_Tot_Q>
1

> <i_epik_Tot_abs_Q>
1

> <r_epik_Metal_State_Penalty>
0.492282

> <b_epik_Metal_Only>
0

> <s_lp_Force_Field>
OPLS_2005

> <r_lp_Energy>
37.3321

> <b_lp_Chiralities_Consistent>
1

> <s_lp_Variant>
AV-unprocessed.smi:1760-1

> <Gold.Version>
5.8.1

> <Gold.Id.Protein>
6NUR|6NUR_protein|mol2

> <Gold.PLP.Fitness>
43.0141

> <Gold.PLP.PLP>
-40.1194

> <Gold.PLP.part.hbond>
-1.0000

> <Gold.PLP.part.metal>
0.0000

> <Gold.PLP.part.buried>
-4.0156

> <Gold.PLP.part.nonpolar>
-35.5393

> <Gold.PLP.part.repulsive>
0.2550

> <Gold.PLP.ligand.clash>
1.0879

> <Gold.PLP.ligand.torsion>
1.6576

> <Gold.PLP.Chemscore.Hbond>
2.0000

> <Gold.PLP.Chemscore.CHOScore>
0.0000

> <Gold.PLP.Chemscore.Metal>
0.0000

> <Gold.Chemscore.Hbonds>
donor molecule, donor type, donor heavy atom, donor atom, acceptor molecule, acceptor atom, score
      L1  H    19    44       P1  7948  2.00

> <Gold.PLP.Chemscore.Internal.Correction>
1.2977

> <Gold.Rescore>
     Score         DG    S(hbond)    S(metal)    S(lipo)     H(rot)  DE(clash)    DE(int)     intcor
     11.94     -13.44       0.97        0.00      68.35       1.29       0.06       1.44       ----

> <Gold.Chemscore.Fitness>
11.9390

> <Gold.Chemscore.DG>
-13.4362

> <Gold.Chemscore.ZeroCoef>
-5.4800

> <Gold.Chemscore.Hbond>
0.9746

> <Gold.Chemscore.Metal>
0.0000

> <Gold.Chemscore.Lipo>
68.3523

> <Gold.Chemscore.Internal_Hbond>
0.0000

> <Gold.Chemscore.DEClash>
0.0606

> <Gold.Chemscore.DEInternal>
1.4366

> <Gold.Chemscore.Rot>
1.2875

> <Gold.Chemscore.Internal.Correction>
   9.000000E+99

> <Gold.Chemscore.Hbonds>
donor molecule, donor type, donor heavy atom, donor atom, acceptor molecule, acceptor atom, score
      L1  H    19    44       P1  7948  0.94

> <Gold.Chemscore.Hbond.Weighted>
-3.2550

> <Gold.Chemscore.Metal.Weighted>
-0.0000

> <Gold.Chemscore.Lipo.Weighted>
-7.9972

> <Gold.Chemscore.Internal_Hbond.Weighted>
0.0000

> <Gold.Chemscore.DEClash.Weighted>
0.0606

> <Gold.Chemscore.DEInternal.Weighted>
1.4366

> <Gold.Chemscore.Rot.Weighted>
3.2960

> <Gold.Chemscore.Internal.Correction.Weighted>
   9.000000E+99

> <Gold.Protein.RotatedTorsions>
[ 6907 6896 6895 6894 ] final -152.16 input  -60.11 | X-H torsion
[ 7974 7965 7964 7962 ] final -146.30 input  175.53 | X-H torsion
[ 8008 7997 7996 7995 ] final -102.00 input   59.86 | X-H torsion
[ 10167 10162 10161 10158 ] final  -78.76 input  -65.29 | X-H torsion
[ 10718 10713 10712 10709 ] final   45.28 input   66.30 | X-H torsion
[ 10763 10752 10751 10750 ] final   67.96 input  -60.55 | X-H torsion
[ 11005 11000 10999 10996 ] final  -13.14 input  -57.11 | X-H torsion

> <Gold.Protein.ActiveResidues>
 VAL166  LYS551  ARG553  GLY616  TRP617  ASP618  TYR619  PRO620  LYS621  CYS622 
 ASP623  PHE694  ASN695  SER759  ASP760  ASP761  ALA762  ILE779  LEU786  VAL792 
 PHE793  MET794  SER795  GLU796  ALA797  LYS798  CYS799  TRP800  GLU811  SER814 

> <Gold.Protein.RotatedAtoms>
  151.2237  133.4488  159.2601 H   0  0  0  0  0  0  0  0  0  0  0  0  # atno 6907 bound_to 6896
  151.0860  134.9887  159.8390 H   0  0  0  0  0  0  0  0  0  0  0  0  # atno 6908 bound_to 6896
  152.5429  134.2173  159.8827 H   0  0  0  0  0  0  0  0  0  0  0  0  # atno 6909 bound_to 6896
  144.8169  140.5474  143.5605 H   0  0  0  0  0  0  0  0  0  0  0  0  # atno 7974 bound_to 7965
  154.8505  140.0431  157.1601 H   0  0  0  0  0  0  0  0  0  0  0  0  # atno 8008 bound_to 7997
  154.8948  140.2991  155.5330 H   0  0  0  0  0  0  0  0  0  0  0  0  # atno 8009 bound_to 7997
  156.2996  140.2387  156.3968 H   0  0  0  0  0  0  0  0  0  0  0  0  # atno 8010 bound_to 7997
  140.4654  143.2442  151.8286 H   0  0  0  0  0  0  0  0  0  0  0  0  # atno 10167 bound_to 10162
  157.4358  130.8052  149.7646 H   0  0  0  0  0  0  0  0  0  0  0  0  # atno 10718 bound_to 10713
  153.0212  135.5265  154.7061 H   0  0  0  0  0  0  0  0  0  0  0  0  # atno 10763 bound_to 10752
  154.6156  135.2883  155.0385 H   0  0  0  0  0  0  0  0  0  0  0  0  # atno 10764 bound_to 10752
  154.1391  135.6581  153.4991 H   0  0  0  0  0  0  0  0  0  0  0  0  # atno 10765 bound_to 10752
  140.7730  133.8423  155.9224 H   0  0  0  0  0  0  0  0  0  0  0  0  # atno 11005 bound_to 11000
  145.5194  139.1477  143.3561 LP  0  0  0  0  0  0  0  0  0  0  0  0  # atno 17320 bound_to 7965
  146.2472  140.5335  142.8908 LP  0  0  0  0  0  0  0  0  0  0  0  0  # atno 17321 bound_to 7965
  139.4811  144.4958  151.9126 LP  0  0  0  0  0  0  0  0  0  0  0  0  # atno 17342 bound_to 10162
  140.4043  144.2452  150.5891 LP  0  0  0  0  0  0  0  0  0  0  0  0  # atno 17343 bound_to 10162
  155.9930  130.3927  150.2919 LP  0  0  0  0  0  0  0  0  0  0  0  0  # atno 17370 bound_to 10713
  157.1079  131.0213  151.3059 LP  0  0  0  0  0  0  0  0  0  0  0  0  # atno 17371 bound_to 10713
  140.9556  134.1723  157.4694 LP  0  0  0  0  0  0  0  0  0  0  0  0  # atno 17394 bound_to 11000
  139.8753  134.9925  156.5601 LP  0  0  0  0  0  0  0  0  0  0  0  0  # atno 17395 bound_to 11000

$$$$
