AV-unprocessed.smi:1648|AV-procd|sdf|6630|dock1
  -GOLD-   22720 7333D 1   1.00000     0.00000
 Structure written by MMmdl.
 42 42  0  0  0  0  0  0  0  0  2 V2000
  153.8223  141.0358  161.2221 C   0  0  0  0  0  0  0  0  0  0  0  0
  153.4129  140.9296  159.7519 C   0  0  0  0  0  0  0  0  0  0  0  0
  153.9026  140.0460  159.0527 O   0  0  0  0  0  0  0  0  0  0  0  0
  152.5219  141.8028  159.2510 N   0  0  0  0  0  0  0  0  0  0  0  0
  152.0102  141.8607  157.8795 C   0  0  1  0  0  0  0  0  0  0  0  0
  151.1267  140.6177  157.6709 C   0  0  0  0  0  0  0  0  0  0  0  0
  150.9710  139.8037  158.5825 O   0  0  0  0  0  0  0  0  0  0  0  0
  150.5681  140.4794  156.4580 N   0  0  0  0  0  0  0  0  0  0  0  0
  149.7335  139.3590  156.0269 C   0  0  1  0  0  0  0  0  0  0  0  0
  148.4952  139.2893  156.9299 C   0  0  0  0  0  0  0  0  0  0  0  0
  149.3339  139.5012  154.5411 C   0  0  0  0  0  0  0  0  0  0  0  0
  148.1759  140.3795  154.3350 N   0  0  0  0  0  0  0  0  0  0  0  0
  148.0857  141.7174  154.6232 C   0  0  0  0  0  0  0  0  0  0  0  0
  146.8183  142.1081  154.2752 C   0  0  0  0  0  0  0  0  0  0  0  0
  146.1923  140.9963  153.7791 N   0  3  0  0  0  0  0  0  0  0  0  0
  147.0224  139.9491  153.8071 C   0  0  0  0  0  0  0  0  0  0  0  0
  151.1597  143.1536  157.7095 C   0  0  0  0  0  0  0  0  0  0  0  0
  151.9787  144.4423  157.9304 C   0  0  0  0  0  0  0  0  0  0  0  0
  149.9401  143.1640  158.6521 C   0  0  0  0  0  0  0  0  0  0  0  0
  154.1831  142.0354  161.4619 H   0  0  0  0  0  0  0  0  0  0  0  0
  154.6201  140.3284  161.4506 H   0  0  0  0  0  0  0  0  0  0  0  0
  152.9750  140.8071  161.8690 H   0  0  0  0  0  0  0  0  0  0  0  0
  152.1173  142.4638  159.8987 H   0  0  0  0  0  0  0  0  0  0  0  0
  152.8275  141.8748  157.1561 H   0  0  0  0  0  0  0  0  0  0  0  0
  150.7433  141.2029  155.7754 H   0  0  0  0  0  0  0  0  0  0  0  0
  150.2792  138.4228  156.1585 H   0  0  0  0  0  0  0  0  0  0  0  0
  147.8628  138.4420  156.6631 H   0  0  0  0  0  0  0  0  0  0  0  0
  147.8909  140.1937  156.8482 H   0  0  0  0  0  0  0  0  0  0  0  0
  148.7776  139.1706  157.9766 H   0  0  0  0  0  0  0  0  0  0  0  0
  150.1594  139.9264  153.9688 H   0  0  0  0  0  0  0  0  0  0  0  0
  149.1165  138.5256  154.1029 H   0  0  0  0  0  0  0  0  0  0  0  0
  148.9052  142.2751  155.0530 H   0  0  0  0  0  0  0  0  0  0  0  0
  146.3285  143.0688  154.3413 H   0  0  0  0  0  0  0  0  0  0  0  0
  146.7986  138.9509  153.4767 H   0  0  0  0  0  0  0  0  0  0  0  0
  150.7724  143.1872  156.6896 H   0  0  0  0  0  0  0  0  0  0  0  0
  152.4287  144.4579  158.9236 H   0  0  0  0  0  0  0  0  0  0  0  0
  151.3476  145.3269  157.8405 H   0  0  0  0  0  0  0  0  0  0  0  0
  152.7797  144.5530  157.1993 H   0  0  0  0  0  0  0  0  0  0  0  0
  150.2481  143.1024  159.6963 H   0  0  0  0  0  0  0  0  0  0  0  0
  149.2641  142.3319  158.4549 H   0  0  0  0  0  0  0  0  0  0  0  0
  149.3591  144.0789  158.5324 H   0  0  0  0  0  0  0  0  0  0  0  0
  145.2396  140.9685  153.4379 H   0  0  0  0  0  0  0  0  0  0  0  0
  1  2  1  0  0  0  0
  1 20  1  0  0  0  0
  1 21  1  0  0  0  0
  1 22  1  0  0  0  0
  2  3  2  0  0  0  0
  2  4  1  0  0  0  0
  4  5  1  0  0  0  0
  4 23  1  0  0  0  0
  5  6  1  0  0  0  0
  5 17  1  0  0  0  0
  5 24  1  0  0  0  0
  6  7  2  0  0  0  0
  6  8  1  0  0  0  0
  8  9  1  0  0  0  0
  8 25  1  0  0  0  0
  9 10  1  0  0  0  0
  9 11  1  0  0  0  0
  9 26  1  0  0  0  0
 10 27  1  0  0  0  0
 10 28  1  0  0  0  0
 10 29  1  0  0  0  0
 11 12  1  0  0  0  0
 11 30  1  0  0  0  0
 11 31  1  0  0  0  0
 12 16  1  0  0  0  0
 12 13  1  0  0  0  0
 13 14  2  0  0  0  0
 13 32  1  0  0  0  0
 14 15  1  0  0  0  0
 14 33  1  0  0  0  0
 15 16  2  0  0  0  0
 15 42  1  0  0  0  0
 16 34  1  0  0  0  0
 17 18  1  0  0  0  0
 17 19  1  0  0  0  0
 17 35  1  0  0  0  0
 18 36  1  0  0  0  0
 18 37  1  0  0  0  0
 18 38  1  0  0  0  0
 19 39  1  0  0  0  0
 19 40  1  0  0  0  0
 19 41  1  0  0  0  0
M  CHG  1  15   1
M  END
> <s_m_source_file>
AV-unprocessed.smi

> <i_m_source_file_index>
1648

> <i_lp_mmshare_version>
43012

> <i_f3d_flags>
0

> <s_epik_input>
W0NIM11DKD1PKVtOSF1bQ0BASF0oW0NIXShbQ0gzXSlbQ0gzXSlDKD1PKVtOSF1bQ0BIXShbQ0gzXSlbQ0gyXW4xW2NIXVtjSF1uW2NIXTE=

> <s_epik_cmdline>
J2VwaWtfcHl0aG9uJywgJy1waCcsICc3LjAnLCAnLXRuJywgJzgnLCAnLW1hJywgJzIwMCcsICctbWV0YWxfYmluZGluZycsICctaW1hZScsICc8aW5maWxlLm1hZT4nLCAnLW9tYWUnLCAnPG91dGZpbGUubWFlPic=

> <r_lp_tautomer_probability>
1

> <r_epik_Ionization_Penalty>
0.251562

> <r_epik_Ionization_Penalty_Charging>
0

> <r_epik_Ionization_Penalty_Neutral>
0.251562

> <r_epik_State_Penalty>
0.242926

> <r_epik_Charging_Adjusted_Penalty>
0.242926

> <i_epik_Tot_Q>
1

> <i_epik_Tot_abs_Q>
1

> <r_epik_Metal_State_Penalty>
0.53388

> <b_epik_Metal_Only>
0

> <s_lp_Force_Field>
OPLS_2005

> <r_lp_Energy>
9.97271

> <b_lp_Chiralities_Consistent>
1

> <s_lp_Variant>
AV-unprocessed.smi:1648-4

> <Gold.Version>
5.8.1

> <Gold.Id.Protein>
6NUR|6NUR_protein|mol2

> <Gold.PLP.Fitness>
45.7804

> <Gold.PLP.PLP>
-34.5401

> <Gold.PLP.part.hbond>
-2.0000

> <Gold.PLP.part.metal>
0.0000

> <Gold.PLP.part.buried>
-4.3096

> <Gold.PLP.part.nonpolar>
-28.4610

> <Gold.PLP.part.repulsive>
0.1993

> <Gold.PLP.ligand.clash>
0.0000

> <Gold.PLP.ligand.torsion>
0.3171

> <Gold.PLP.Chemscore.Hbond>
3.0000

> <Gold.PLP.Chemscore.CHOScore>
0.8804

> <Gold.PLP.Chemscore.Metal>
0.0000

> <Gold.Chemscore.Hbonds>
donor molecule, donor type, donor heavy atom, donor atom, acceptor molecule, acceptor atom, score
      L1  H    15    42       P1 10175  2.00
      P1  H  7997  8010       L1     3  0.96
      L1  C    13    32       P1  8028  0.91

> <Gold.PLP.Chemscore.Internal.Correction>
0.2331

> <Gold.Rescore>
     Score         DG    S(hbond)    S(metal)    S(lipo)     H(rot)  DE(clash)    DE(int)     intcor
     10.27     -12.99       1.78        0.00      70.58       2.61       0.01       2.71       ----

> <Gold.Chemscore.Fitness>
10.2668

> <Gold.Chemscore.DG>
-12.9871

> <Gold.Chemscore.ZeroCoef>
-5.4800

> <Gold.Chemscore.Hbond>
1.7785

> <Gold.Chemscore.Metal>
0.0000

> <Gold.Chemscore.Lipo>
70.5782

> <Gold.Chemscore.Internal_Hbond>
0.0000

> <Gold.Chemscore.DEClash>
0.0141

> <Gold.Chemscore.DEInternal>
2.7062

> <Gold.Chemscore.Rot>
2.6135

> <Gold.Chemscore.Internal.Correction>
   9.000000E+99

> <Gold.Chemscore.Hbonds>
donor molecule, donor type, donor heavy atom, donor atom, acceptor molecule, acceptor atom, score
      L1  H    15    42       P1 10175  0.65
      P1  H  7997  8010       L1     3  0.87

> <Gold.Chemscore.Hbond.Weighted>
-5.9401

> <Gold.Chemscore.Metal.Weighted>
-0.0000

> <Gold.Chemscore.Lipo.Weighted>
-8.2577

> <Gold.Chemscore.Internal_Hbond.Weighted>
0.0000

> <Gold.Chemscore.DEClash.Weighted>
0.0141

> <Gold.Chemscore.DEInternal.Weighted>
2.7062

> <Gold.Chemscore.Rot.Weighted>
6.6906

> <Gold.Chemscore.Internal.Correction.Weighted>
   9.000000E+99

> <Gold.Protein.RotatedTorsions>
[ 6907 6896 6895 6894 ] final  144.94 input  -60.11 | X-H torsion
[ 7974 7965 7964 7962 ] final   36.67 input  175.53 | X-H torsion
[ 8008 7997 7996 7995 ] final   14.91 input   59.86 | X-H torsion
[ 10167 10162 10161 10158 ] final  110.44 input  -65.29 | X-H torsion
[ 10718 10713 10712 10709 ] final   86.62 input   66.30 | X-H torsion
[ 10763 10752 10751 10750 ] final  157.57 input  -60.55 | X-H torsion
[ 11005 11000 10999 10996 ] final  114.28 input  -57.11 | X-H torsion

> <Gold.Protein.ActiveResidues>
 VAL166  LYS551  ARG553  GLY616  TRP617  ASP618  TYR619  PRO620  LYS621  CYS622 
 ASP623  PHE694  ASN695  SER759  ASP760  ASP761  ALA762  ILE779  LEU786  VAL792 
 PHE793  MET794  SER795  GLU796  ALA797  LYS798  CYS799  TRP800  GLU811  SER814 

> <Gold.Protein.RotatedAtoms>
  152.1872  133.4748  159.4988 H   0  0  0  0  0  0  0  0  0  0  0  0  # atno 6907 bound_to 6896
  150.6944  134.1758  159.4239 H   0  0  0  0  0  0  0  0  0  0  0  0  # atno 6908 bound_to 6896
  151.9672  135.0094  160.0601 H   0  0  0  0  0  0  0  0  0  0  0  0  # atno 6909 bound_to 6896
  146.1194  139.5989  142.9299 H   0  0  0  0  0  0  0  0  0  0  0  0  # atno 7974 bound_to 7965
  154.8551  140.2935  155.5574 H   0  0  0  0  0  0  0  0  0  0  0  0  # atno 8008 bound_to 7997
  156.3018  140.2488  156.3449 H   0  0  0  0  0  0  0  0  0  0  0  0  # atno 8009 bound_to 7997
  154.8979  140.0392  157.1865 H   0  0  0  0  0  0  0  0  0  0  0  0  # atno 8010 bound_to 7997
  139.6688  144.7126  151.1726 H   0  0  0  0  0  0  0  0  0  0  0  0  # atno 10167 bound_to 10162
  157.6931  131.0223  150.3001 H   0  0  0  0  0  0  0  0  0  0  0  0  # atno 10718 bound_to 10713
  154.2024  135.2790  155.2986 H   0  0  0  0  0  0  0  0  0  0  0  0  # atno 10763 bound_to 10752
  154.5844  135.5579  153.7220 H   0  0  0  0  0  0  0  0  0  0  0  0  # atno 10764 bound_to 10752
  153.0084  135.6352  154.2162 H   0  0  0  0  0  0  0  0  0  0  0  0  # atno 10765 bound_to 10752
  139.8976  134.9565  156.6868 H   0  0  0  0  0  0  0  0  0  0  0  0  # atno 11005 bound_to 11000
  145.5498  141.0414  143.2285 LP  0  0  0  0  0  0  0  0  0  0  0  0  # atno 17320 bound_to 7965
  144.7583  139.7019  143.7245 LP  0  0  0  0  0  0  0  0  0  0  0  0  # atno 17321 bound_to 7965
  140.7610  143.5877  150.8829 LP  0  0  0  0  0  0  0  0  0  0  0  0  # atno 17342 bound_to 10162
  139.9540  143.6239  152.3021 LP  0  0  0  0  0  0  0  0  0  0  0  0  # atno 17343 bound_to 10162
  156.3518  130.3832  149.7323 LP  0  0  0  0  0  0  0  0  0  0  0  0  # atno 17370 bound_to 10713
  156.4798  130.8036  151.3050 LP  0  0  0  0  0  0  0  0  0  0  0  0  # atno 17371 bound_to 10713
  140.7256  133.9103  155.8176 LP  0  0  0  0  0  0  0  0  0  0  0  0  # atno 17394 bound_to 11000
  141.0193  134.0911  157.4137 LP  0  0  0  0  0  0  0  0  0  0  0  0  # atno 17395 bound_to 11000

$$$$
