AV-unprocessed.smi:2636|AV-procd|sdf|10259|dock3
  -GOLD-   2272014273D 1   1.00000     0.00000
 Structure written by MMmdl.
 35 36  0  0  0  0  0  0  0  0  2 V2000
  148.5265  135.1523  155.1548 C   0  0  0  0  0  0  0  0  0  0  0  0
  149.7414  135.9386  155.6129 C   0  0  0  0  0  0  0  0  0  0  0  0
  150.3584  136.8481  154.8305 C   0  0  0  0  0  0  0  0  0  0  0  0
  151.4802  137.5721  155.2660 N   0  0  0  0  0  0  0  0  0  0  0  0
  152.0511  138.5741  154.3822 C   0  0  0  0  0  0  0  0  0  0  0  0
  152.0473  139.8019  155.0332 O   0  0  0  0  0  0  0  0  0  0  0  0
  150.8357  140.0619  155.7238 C   0  0  0  0  0  0  0  0  0  0  0  0
  150.9469  141.2688  156.6360 C   0  0  0  0  0  0  0  0  0  0  0  0
  151.7435  141.3552  157.7186 C   0  0  0  0  0  0  0  0  0  0  0  0
  151.8720  142.5124  158.6233 C   0  0  0  0  0  0  0  0  0  0  0  0
  152.4906  142.4244  159.8934 C   0  0  0  0  0  0  0  0  0  0  0  0
  152.5902  143.5595  160.7217 C   0  0  0  0  0  0  0  0  0  0  0  0
  152.0753  144.7958  160.2905 C   0  0  0  0  0  0  0  0  0  0  0  0
  151.4596  144.8952  159.0292 C   0  0  0  0  0  0  0  0  0  0  0  0
  151.3591  143.7592  158.2026 C   0  0  0  0  0  0  0  0  0  0  0  0
  151.9624  137.4001  156.5327 C   0  0  0  0  0  0  0  0  0  0  0  0
  152.9241  138.0725  156.9078 O   0  0  0  0  0  0  0  0  0  0  0  0
  151.3582  136.4759  157.3407 N   0  5  0  0  0  0  0  0  0  0  0  0
  150.2808  135.7290  156.9592 C   0  0  0  0  0  0  0  0  0  0  0  0
  149.7578  134.8994  157.7025 O   0  0  0  0  0  0  0  0  0  0  0  0
  148.2536  135.4098  154.1312 H   0  0  0  0  0  0  0  0  0  0  0  0
  147.6715  135.3650  155.7974 H   0  0  0  0  0  0  0  0  0  0  0  0
  148.7287  134.0815  155.1925 H   0  0  0  0  0  0  0  0  0  0  0  0
  150.0267  137.0788  153.8288 H   0  0  0  0  0  0  0  0  0  0  0  0
  153.0666  138.2730  154.1159 H   0  0  0  0  0  0  0  0  0  0  0  0
  151.4616  138.6315  153.4656 H   0  0  0  0  0  0  0  0  0  0  0  0
  150.0309  140.2411  155.0095 H   0  0  0  0  0  0  0  0  0  0  0  0
  150.5552  139.1983  156.3283 H   0  0  0  0  0  0  0  0  0  0  0  0
  150.3177  142.0992  156.3555 H   0  0  0  0  0  0  0  0  0  0  0  0
  152.3597  140.5035  157.9690 H   0  0  0  0  0  0  0  0  0  0  0  0
  152.8963  141.4918  160.2534 H   0  0  0  0  0  0  0  0  0  0  0  0
  153.0630  143.4806  161.6898 H   0  0  0  0  0  0  0  0  0  0  0  0
  152.1523  145.6657  160.9261 H   0  0  0  0  0  0  0  0  0  0  0  0
  151.0627  145.8424  158.6950 H   0  0  0  0  0  0  0  0  0  0  0  0
  150.8827  143.8508  157.2371 H   0  0  0  0  0  0  0  0  0  0  0  0
  1  2  1  0  0  0  0
  1 21  1  0  0  0  0
  1 22  1  0  0  0  0
  1 23  1  0  0  0  0
  2 19  1  0  0  0  0
  2  3  2  0  0  0  0
  3  4  1  0  0  0  0
  3 24  1  0  0  0  0
  4  5  1  0  0  0  0
  4 16  1  0  0  0  0
  5  6  1  0  0  0  0
  5 25  1  0  0  0  0
  5 26  1  0  0  0  0
  6  7  1  0  0  0  0
  7  8  1  0  0  0  0
  7 27  1  0  0  0  0
  7 28  1  0  0  0  0
  8  9  2  0  0  0  0
  8 29  1  0  0  0  0
  9 10  1  0  0  0  0
  9 30  1  0  0  0  0
 10 15  1  0  0  0  0
 10 11  2  0  0  0  0
 11 12  1  0  0  0  0
 11 31  1  0  0  0  0
 12 13  2  0  0  0  0
 12 32  1  0  0  0  0
 13 14  1  0  0  0  0
 13 33  1  0  0  0  0
 14 15  2  0  0  0  0
 14 34  1  0  0  0  0
 15 35  1  0  0  0  0
 16 17  2  0  0  0  0
 16 18  1  0  0  0  0
 18 19  1  0  0  0  0
 19 20  2  0  0  0  0
M  CHG  1  18  -1
M  END
> <s_m_source_file>
AV-unprocessed.smi

> <i_m_source_file_index>
2636

> <i_lp_mmshare_version>
43012

> <i_f3d_flags>
0

> <s_epik_input>
Tz1jMVtuSF1jKD1PKW4oW2NIXWMxW0NIM10pW0NIMl1PW0NIMl0vW0NIXT1bQ0hdL2MyW2NIXVtjSF1bY0hdW2NIXVtjSF0y

> <s_epik_cmdline>
J2VwaWtfcHl0aG9uJywgJy1waCcsICc3LjAnLCAnLXRuJywgJzgnLCAnLW1hJywgJzIwMCcsICctbWV0YWxfYmluZGluZycsICctaW1hZScsICc8aW5maWxlLm1hZT4nLCAnLW9tYWUnLCAnPG91dGZpbGUubWFlPic=

> <r_lp_tautomer_probability>
0.999537

> <r_epik_Ionization_Penalty>
3.43625

> <r_epik_Ionization_Penalty_Charging>
7.29021e-08

> <r_epik_Ionization_Penalty_Neutral>
3.43625

> <r_epik_State_Penalty>
3.43567

> <r_epik_Charging_Adjusted_Penalty>
3.43567

> <i_epik_Tot_Q>
-1

> <i_epik_Tot_abs_Q>
1

> <r_epik_Metal_State_Penalty>
0.168611

> <b_epik_Metal_Only>
1

> <s_epik_Chemistry_Notes>
This compound contains an acetal/aminal-like group ( X-CH(R)-Y where X, Y are N, S, or O) that may be acid/base labile, releasing an aldehyde.

> <s_lp_Force_Field>
OPLS_2005

> <r_lp_Energy>
15.3134

> <b_lp_Chiralities_Consistent>
1

> <s_lp_Variant>
AV-unprocessed.smi:2636-3

> <Gold.Version>
5.8.1

> <Gold.Id.Protein>
6NUR|6NUR_protein|mol2

> <Gold.PLP.Fitness>
47.8507

> <Gold.PLP.PLP>
-41.2859

> <Gold.PLP.part.hbond>
-2.1057

> <Gold.PLP.part.metal>
0.0000

> <Gold.PLP.part.buried>
-7.1424

> <Gold.PLP.part.nonpolar>
-33.2356

> <Gold.PLP.part.repulsive>
0.0319

> <Gold.PLP.ligand.clash>
0.0000

> <Gold.PLP.ligand.torsion>
0.1838

> <Gold.PLP.Chemscore.Hbond>
1.1952

> <Gold.PLP.Chemscore.CHOScore>
1.0984

> <Gold.PLP.Chemscore.Metal>
0.0000

> <Gold.Chemscore.Hbonds>
donor molecule, donor type, donor heavy atom, donor atom, acceptor molecule, acceptor atom, score
      P1  H  6896  6909       L1    20  0.53
      P1  H  7989  7998       L1     6  0.62
      L1  C     3    24       P1  7948  1.00
      L1  C     3    24       P1  7949  0.02

> <Gold.PLP.Chemscore.Internal.Correction>
0.0516

> <Gold.Rescore>
     Score         DG    S(hbond)    S(metal)    S(lipo)     H(rot)  DE(clash)    DE(int)     intcor
     14.00     -15.94       0.90        0.00     104.90       1.88       0.44       1.50       ----

> <Gold.Chemscore.Fitness>
14.0036

> <Gold.Chemscore.DG>
-15.9355

> <Gold.Chemscore.ZeroCoef>
-5.4800

> <Gold.Chemscore.Hbond>
0.8968

> <Gold.Chemscore.Metal>
0.0000

> <Gold.Chemscore.Lipo>
104.8988

> <Gold.Chemscore.Internal_Hbond>
0.0000

> <Gold.Chemscore.DEClash>
0.4359

> <Gold.Chemscore.DEInternal>
1.4960

> <Gold.Chemscore.Rot>
1.8800

> <Gold.Chemscore.Internal.Correction>
   9.000000E+99

> <Gold.Chemscore.Hbonds>
donor molecule, donor type, donor heavy atom, donor atom, acceptor molecule, acceptor atom, score
      P1  H  6896  6909       L1    20  0.52
      P1  H  7989  7998       L1     6  0.02

> <Gold.Chemscore.Hbond.Weighted>
-2.9952

> <Gold.Chemscore.Metal.Weighted>
-0.0000

> <Gold.Chemscore.Lipo.Weighted>
-12.2732

> <Gold.Chemscore.Internal_Hbond.Weighted>
0.0000

> <Gold.Chemscore.DEClash.Weighted>
0.4359

> <Gold.Chemscore.DEInternal.Weighted>
1.4960

> <Gold.Chemscore.Rot.Weighted>
4.8129

> <Gold.Chemscore.Internal.Correction.Weighted>
   9.000000E+99

> <Gold.Protein.RotatedTorsions>
[ 6907 6896 6895 6894 ] final    3.54 input  -60.11 | X-H torsion
[ 7974 7965 7964 7962 ] final -151.81 input  175.53 | X-H torsion
[ 8008 7997 7996 7995 ] final  136.29 input   59.86 | X-H torsion
[ 10167 10162 10161 10158 ] final  167.15 input  -65.29 | X-H torsion
[ 10718 10713 10712 10709 ] final   83.49 input   66.30 | X-H torsion
[ 10763 10752 10751 10750 ] final   95.87 input  -60.55 | X-H torsion
[ 11005 11000 10999 10996 ] final   91.76 input  -57.11 | X-H torsion

> <Gold.Protein.ActiveResidues>
 VAL166  LYS551  ARG553  GLY616  TRP617  ASP618  TYR619  PRO620  LYS621  CYS622 
 ASP623  PHE694  ASN695  SER759  ASP760  ASP761  ALA762  ILE779  LEU786  VAL792 
 PHE793  MET794  SER795  GLU796  ALA797  LYS798  CYS799  TRP800  GLU811  SER814 

> <Gold.Protein.RotatedAtoms>
  151.6267  135.1027  160.0112 H   0  0  0  0  0  0  0  0  0  0  0  0  # atno 6907 bound_to 6896
  152.4128  133.6987  159.6422 H   0  0  0  0  0  0  0  0  0  0  0  0  # atno 6908 bound_to 6896
  150.8018  133.8510  159.3246 H   0  0  0  0  0  0  0  0  0  0  0  0  # atno 6909 bound_to 6896
  144.7829  140.4747  143.5826 H   0  0  0  0  0  0  0  0  0  0  0  0  # atno 7974 bound_to 7965
  156.3004  140.2449  156.3721 H   0  0  0  0  0  0  0  0  0  0  0  0  # atno 8008 bound_to 7997
  154.8779  140.0413  157.1784 H   0  0  0  0  0  0  0  0  0  0  0  0  # atno 8009 bound_to 7997
  154.8726  140.2937  155.5476 H   0  0  0  0  0  0  0  0  0  0  0  0  # atno 8010 bound_to 7997
  139.4939  144.3952  151.9472 H   0  0  0  0  0  0  0  0  0  0  0  0  # atno 10167 bound_to 10162
  157.6880  131.0093  150.2531 H   0  0  0  0  0  0  0  0  0  0  0  0  # atno 10718 bound_to 10713
  153.2583  135.4238  155.0868 H   0  0  0  0  0  0  0  0  0  0  0  0  # atno 10763 bound_to 10752
  154.8410  135.3443  154.6414 H   0  0  0  0  0  0  0  0  0  0  0  0  # atno 10764 bound_to 10752
  153.6834  135.7037  153.5168 H   0  0  0  0  0  0  0  0  0  0  0  0  # atno 10765 bound_to 10752
  139.8834  134.8693  156.3474 H   0  0  0  0  0  0  0  0  0  0  0  0  # atno 11005 bound_to 11000
  145.6001  139.1503  143.3134 LP  0  0  0  0  0  0  0  0  0  0  0  0  # atno 17320 bound_to 7965
  146.2046  140.6122  142.9087 LP  0  0  0  0  0  0  0  0  0  0  0  0  # atno 17321 bound_to 7965
  140.3390  144.3226  150.5971 LP  0  0  0  0  0  0  0  0  0  0  0  0  # atno 17342 bound_to 10162
  140.5582  143.2196  151.7811 LP  0  0  0  0  0  0  0  0  0  0  0  0  # atno 17343 bound_to 10162
  156.3124  130.3774  149.7649 LP  0  0  0  0  0  0  0  0  0  0  0  0  # atno 17370 bound_to 10713
  156.5245  130.8230  151.3215 LP  0  0  0  0  0  0  0  0  0  0  0  0  # atno 17371 bound_to 10713
  140.9617  133.7384  156.0411 LP  0  0  0  0  0  0  0  0  0  0  0  0  # atno 17394 bound_to 11000
  140.7981  134.3540  157.5447 LP  0  0  0  0  0  0  0  0  0  0  0  0  # atno 17395 bound_to 11000

$$$$
