AV-unprocessed.smi:1985|AV-procd|sdf|8042|dock10
  -GOLD-   2272010243D 1   1.00000     0.00000
 Structure written by MMmdl.
 50 51  0  0  0  0  0  0  0  0  1 V2000
  143.8460  135.0286  154.6863 C   0  0  0  0  0  0  0  0  0  0  0  0
  145.1849  134.9507  153.9332 C   0  0  0  0  0  0  0  0  0  0  0  0
  145.1443  135.4352  152.4455 C   0  0  1  0  0  0  0  0  0  0  0  0
  144.0119  136.4926  152.3578 C   0  0  0  0  0  0  0  0  0  0  0  0
  146.4911  136.1590  152.1171 C   0  0  0  0  0  0  0  0  0  0  0  0
  146.7514  137.2934  152.9929 N   0  0  0  0  0  0  0  0  0  0  0  0
  146.9737  138.5610  152.6156 C   0  0  0  0  0  0  0  0  0  0  0  0
  146.9987  138.9145  151.4378 O   0  0  0  0  0  0  0  0  0  0  0  0
  147.2070  139.6015  153.7259 C   0  0  0  0  0  0  0  0  0  0  0  0
  148.5736  139.6038  154.2746 N   0  0  0  0  0  0  0  0  0  0  0  0
  149.4076  138.5285  154.0257 C   0  0  0  0  0  0  0  0  0  0  0  0
  150.6518  138.4161  154.5389 C   0  0  0  0  0  0  0  0  0  0  0  0
  151.1971  139.4512  155.4075 C   0  0  0  0  0  0  0  0  0  0  0  0
  152.3171  139.3890  155.9161 O   0  0  0  0  0  0  0  0  0  0  0  0
  150.3320  140.5455  155.6354 N   0  0  0  0  0  0  0  0  0  0  0  0
  150.8300  141.5894  156.5068 C   0  0  0  0  0  0  0  0  0  0  0  0
  149.0291  140.6589  155.0969 C   0  0  0  0  0  0  0  0  0  0  0  0
  148.2945  141.6190  155.3389 O   0  0  0  0  0  0  0  0  0  0  0  0
  144.9250  134.2922  151.5096 N   0  0  0  0  0  0  0  0  0  0  0  0
  146.0406  133.3408  151.4076 C   0  0  0  0  0  0  0  0  0  0  0  0
  145.7936  132.2646  150.3373 C   0  0  0  0  0  0  0  0  0  0  0  0
  144.5822  131.5769  150.6199 O   0  0  0  0  0  0  0  0  0  0  0  0
  143.4635  132.4533  150.6588 C   0  0  0  0  0  0  0  0  0  0  0  0
  143.6859  133.5341  151.7305 C   0  0  0  0  0  0  0  0  0  0  0  0
  143.9737  134.7226  155.7246 H   0  0  0  0  0  0  0  0  0  0  0  0
  143.0961  134.3717  154.2459 H   0  0  0  0  0  0  0  0  0  0  0  0
  143.4454  136.0421  154.6904 H   0  0  0  0  0  0  0  0  0  0  0  0
  145.9368  135.5030  154.4952 H   0  0  0  0  0  0  0  0  0  0  0  0
  145.5447  133.9230  153.9931 H   0  0  0  0  0  0  0  0  0  0  0  0
  144.1710  137.3100  153.0620 H   0  0  0  0  0  0  0  0  0  0  0  0
  143.0358  136.0714  152.5953 H   0  0  0  0  0  0  0  0  0  0  0  0
  143.9463  136.9430  151.3679 H   0  0  0  0  0  0  0  0  0  0  0  0
  147.3300  135.4656  152.1892 H   0  0  0  0  0  0  0  0  0  0  0  0
  146.4843  136.5366  151.0941 H   0  0  0  0  0  0  0  0  0  0  0  0
  146.7511  137.0988  153.9836 H   0  0  0  0  0  0  0  0  0  0  0  0
  146.9748  140.5869  153.3195 H   0  0  0  0  0  0  0  0  0  0  0  0
  146.4787  139.4365  154.5216 H   0  0  0  0  0  0  0  0  0  0  0  0
  149.0439  137.7299  153.3950 H   0  0  0  0  0  0  0  0  0  0  0  0
  151.2494  137.5459  154.3093 H   0  0  0  0  0  0  0  0  0  0  0  0
  150.1535  142.4432  156.5306 H   0  0  0  0  0  0  0  0  0  0  0  0
  151.7973  141.9110  156.1161 H   0  0  0  0  0  0  0  0  0  0  0  0
  150.9274  141.1541  157.5029 H   0  0  0  0  0  0  0  0  0  0  0  0
  146.9664  133.8471  151.1437 H   0  0  0  0  0  0  0  0  0  0  0  0
  146.2081  132.8489  152.3658 H   0  0  0  0  0  0  0  0  0  0  0  0
  145.7447  132.7124  149.3436 H   0  0  0  0  0  0  0  0  0  0  0  0
  146.6150  131.5482  150.3251 H   0  0  0  0  0  0  0  0  0  0  0  0
  143.3134  132.9077  149.6782 H   0  0  0  0  0  0  0  0  0  0  0  0
  142.5669  131.8757  150.8843 H   0  0  0  0  0  0  0  0  0  0  0  0
  143.7036  133.0583  152.7110 H   0  0  0  0  0  0  0  0  0  0  0  0
  142.8168  134.1882  151.7100 H   0  0  0  0  0  0  0  0  0  0  0  0
  1  2  1  0  0  0  0
  1 25  1  0  0  0  0
  1 26  1  0  0  0  0
  1 27  1  0  0  0  0
  2  3  1  0  0  0  0
  2 28  1  0  0  0  0
  2 29  1  0  0  0  0
  3  4  1  0  0  0  0
  3  5  1  0  0  0  0
  3 19  1  0  0  0  0
  4 30  1  0  0  0  0
  4 31  1  0  0  0  0
  4 32  1  0  0  0  0
  5  6  1  0  0  0  0
  5 33  1  0  0  0  0
  5 34  1  0  0  0  0
  6  7  1  0  0  0  0
  6 35  1  0  0  0  0
  7  8  2  0  0  0  0
  7  9  1  0  0  0  0
  9 10  1  0  0  0  0
  9 36  1  0  0  0  0
  9 37  1  0  0  0  0
 10 17  1  0  0  0  0
 10 11  1  0  0  0  0
 11 12  2  0  0  0  0
 11 38  1  0  0  0  0
 12 13  1  0  0  0  0
 12 39  1  0  0  0  0
 13 14  2  0  0  0  0
 13 15  1  0  0  0  0
 15 16  1  0  0  0  0
 15 17  1  0  0  0  0
 16 40  1  0  0  0  0
 16 41  1  0  0  0  0
 16 42  1  0  0  0  0
 17 18  2  0  0  0  0
 19 24  1  0  0  0  0
 19 20  1  0  0  0  0
 20 21  1  0  0  0  0
 20 43  1  0  0  0  0
 20 44  1  0  0  0  0
 21 22  1  0  0  0  0
 21 45  1  0  0  0  0
 21 46  1  0  0  0  0
 22 23  1  0  0  0  0
 23 24  1  0  0  0  0
 23 47  1  0  0  0  0
 23 48  1  0  0  0  0
 24 49  1  0  0  0  0
 24 50  1  0  0  0  0
M  END
> <s_m_source_file>
AV-unprocessed.smi

> <i_m_source_file_index>
1985

> <i_lp_mmshare_version>
43012

> <i_f3d_flags>
0

> <s_epik_input>
W0NIMl0xW0NIMl1PW0NIMl1bQ0gyXU4xW0NAQF0oW0NIM10pKFtDSDJdW0NIM10pW0NIMl1bTkhdQyg9TylbQ0gyXW4yW2NIXVtjSF1jKD1PKW4oW0NIM10pYzI9Tw==

> <s_epik_cmdline>
J2VwaWtfcHl0aG9uJywgJy1waCcsICc3LjAnLCAnLXRuJywgJzgnLCAnLW1hJywgJzIwMCcsICctbWV0YWxfYmluZGluZycsICctaW1hZScsICc8aW5maWxlLm1hZT4nLCAnLW9tYWUnLCAnPG91dGZpbGUubWFlPic=

> <r_lp_tautomer_probability>
1

> <r_epik_Ionization_Penalty>
0.318667

> <r_epik_Ionization_Penalty_Charging>
1.17294e-08

> <r_epik_Ionization_Penalty_Neutral>
0.318667

> <r_epik_State_Penalty>
0.313095

> <r_epik_Charging_Adjusted_Penalty>
0.313095

> <i_epik_Tot_Q>
0

> <i_epik_Tot_abs_Q>
0

> <r_epik_Metal_State_Penalty>
0.313065

> <b_epik_Metal_Only>
0

> <s_lp_Force_Field>
OPLS_2005

> <r_lp_Energy>
50.9195

> <b_lp_Chiralities_Consistent>
1

> <s_lp_Variant>
AV-unprocessed.smi:1985-1

> <Gold.Version>
5.8.1

> <Gold.Id.Protein>
6NUR|6NUR_protein|mol2

> <Gold.PLP.Fitness>
41.0150

> <Gold.PLP.PLP>
-35.5215

> <Gold.PLP.part.hbond>
-2.6490

> <Gold.PLP.part.metal>
0.0000

> <Gold.PLP.part.buried>
3.1209

> <Gold.PLP.part.nonpolar>
-36.7902

> <Gold.PLP.part.repulsive>
3.2362

> <Gold.PLP.ligand.clash>
0.0000

> <Gold.PLP.ligand.torsion>
1.1916

> <Gold.PLP.Chemscore.Hbond>
1.5640

> <Gold.PLP.Chemscore.CHOScore>
1.0000

> <Gold.PLP.Chemscore.Metal>
0.0000

> <Gold.Chemscore.Hbonds>
donor molecule, donor type, donor heavy atom, donor atom, acceptor molecule, acceptor atom, score
      P1  H  7954  7966       L1     8  0.57
      P1  H  7997  8008       L1    14  0.62
      L1  C    11    38       P1  7948  1.00

> <Gold.PLP.Chemscore.Internal.Correction>
0.1846

> <Gold.Rescore>
     Score         DG    S(hbond)    S(metal)    S(lipo)     H(rot)  DE(clash)    DE(int)     intcor
      8.46     -14.08       1.59        0.00      76.13       2.20       3.59       2.04       ----

> <Gold.Chemscore.Fitness>
8.4590

> <Gold.Chemscore.DG>
-14.0815

> <Gold.Chemscore.ZeroCoef>
-5.4800

> <Gold.Chemscore.Hbond>
1.5909

> <Gold.Chemscore.Metal>
0.0000

> <Gold.Chemscore.Lipo>
76.1336

> <Gold.Chemscore.Internal_Hbond>
0.0000

> <Gold.Chemscore.DEClash>
3.5863

> <Gold.Chemscore.DEInternal>
2.0362

> <Gold.Chemscore.Rot>
2.1952

> <Gold.Chemscore.Internal.Correction>
   9.000000E+99

> <Gold.Chemscore.Hbonds>
donor molecule, donor type, donor heavy atom, donor atom, acceptor molecule, acceptor atom, score
      P1  H  7954  7966       L1     8  0.55
      P1  H  7997  8008       L1    14  0.60

> <Gold.Chemscore.Hbond.Weighted>
-5.3136

> <Gold.Chemscore.Metal.Weighted>
-0.0000

> <Gold.Chemscore.Lipo.Weighted>
-8.9076

> <Gold.Chemscore.Internal_Hbond.Weighted>
0.0000

> <Gold.Chemscore.DEClash.Weighted>
3.5863

> <Gold.Chemscore.DEInternal.Weighted>
2.0362

> <Gold.Chemscore.Rot.Weighted>
5.6197

> <Gold.Chemscore.Internal.Correction.Weighted>
   9.000000E+99

> <Gold.Protein.RotatedTorsions>
[ 6907 6896 6895 6894 ] final   87.13 input  -60.11 | X-H torsion
[ 7974 7965 7964 7962 ] final  -12.19 input  175.53 | X-H torsion
[ 8008 7997 7996 7995 ] final  -33.12 input   59.86 | X-H torsion
[ 10167 10162 10161 10158 ] final  -70.43 input  -65.29 | X-H torsion
[ 10718 10713 10712 10709 ] final  108.17 input   66.30 | X-H torsion
[ 10763 10752 10751 10750 ] final -144.82 input  -60.55 | X-H torsion
[ 11005 11000 10999 10996 ] final  156.91 input  -57.11 | X-H torsion

> <Gold.Protein.ActiveResidues>
 VAL166  LYS551  ARG553  GLY616  TRP617  ASP618  TYR619  PRO620  LYS621  CYS622 
 ASP623  PHE694  ASN695  SER759  ASP760  ASP761  ALA762  ILE779  LEU786  VAL792 
 PHE793  MET794  SER795  GLU796  ALA797  LYS798  CYS799  TRP800  GLU811  SER814 

> <Gold.Protein.RotatedAtoms>
  152.5406  134.2325  159.8830 H   0  0  0  0  0  0  0  0  0  0  0  0  # atno 6907 bound_to 6896
  151.2296  133.4451  159.2611 H   0  0  0  0  0  0  0  0  0  0  0  0  # atno 6908 bound_to 6896
  151.0728  134.9822  159.8373 H   0  0  0  0  0  0  0  0  0  0  0  0  # atno 6909 bound_to 6896
  146.2161  140.3022  142.8376 H   0  0  0  0  0  0  0  0  0  0  0  0  # atno 7974 bound_to 7965
  154.4158  140.1719  156.1837 H   0  0  0  0  0  0  0  0  0  0  0  0  # atno 8008 bound_to 7997
  155.9661  140.3389  155.6510 H   0  0  0  0  0  0  0  0  0  0  0  0  # atno 8009 bound_to 7997
  155.6686  140.0709  157.2519 H   0  0  0  0  0  0  0  0  0  0  0  0  # atno 8010 bound_to 7997
  140.5353  143.2318  151.7189 H   0  0  0  0  0  0  0  0  0  0  0  0  # atno 10167 bound_to 10162
  157.6597  131.0888  150.6265 H   0  0  0  0  0  0  0  0  0  0  0  0  # atno 10718 bound_to 10713
  154.8411  135.3430  154.6406 H   0  0  0  0  0  0  0  0  0  0  0  0  # atno 10763 bound_to 10752
  153.7018  135.6969  153.5066 H   0  0  0  0  0  0  0  0  0  0  0  0  # atno 10764 bound_to 10752
  153.2517  135.4351  155.0759 H   0  0  0  0  0  0  0  0  0  0  0  0  # atno 10765 bound_to 10752
  140.1720  134.8536  157.2701 H   0  0  0  0  0  0  0  0  0  0  0  0  # atno 11005 bound_to 11000
  144.9049  140.7687  143.5844 LP  0  0  0  0  0  0  0  0  0  0  0  0  # atno 17320 bound_to 7965
  145.2949  139.1870  143.4720 LP  0  0  0  0  0  0  0  0  0  0  0  0  # atno 17321 bound_to 7965
  139.4968  144.4053  152.0139 LP  0  0  0  0  0  0  0  0  0  0  0  0  # atno 17342 bound_to 10162
  140.3158  144.3486  150.6022 LP  0  0  0  0  0  0  0  0  0  0  0  0  # atno 17343 bound_to 10162
  156.6569  130.4501  149.5700 LP  0  0  0  0  0  0  0  0  0  0  0  0  # atno 17370 bound_to 10713
  156.2096  130.6670  151.1255 LP  0  0  0  0  0  0  0  0  0  0  0  0  # atno 17371 bound_to 10713
  140.2367  134.3845  155.7498 LP  0  0  0  0  0  0  0  0  0  0  0  0  # atno 17394 bound_to 11000
  141.2218  133.7243  156.8725 LP  0  0  0  0  0  0  0  0  0  0  0  0  # atno 17395 bound_to 11000

$$$$
