AV-unprocessed.smi:53|AV-procd|sdf|524|dock1
  -GOLD-   2262016393D 1   1.00000     0.00000
 Structure written by MMmdl.
 30 31  0  0  0  0  0  0  0  0  1 V2000
  153.0412  140.4600  158.9913 N   0  0  0  0  0  0  0  0  0  0  0  0
  152.1299  140.3942  158.0107 C   0  0  0  0  0  0  0  0  0  0  0  0
  150.7821  140.8670  158.2330 C   0  0  0  0  0  0  0  0  0  0  0  0
  149.9219  140.7647  157.1964 C   0  0  0  0  0  0  0  0  0  0  0  0
  150.2977  140.2302  155.9722 N   0  0  0  0  0  0  0  0  0  0  0  0
  149.3056  140.1356  154.8311 C   0  0  1  0  0  0  0  0  0  0  0  0
  148.1573  139.4898  155.2944 O   0  0  0  0  0  0  0  0  0  0  0  0
  147.0052  140.1473  154.7815 C   0  0  1  0  0  0  0  0  0  0  0  0
  145.7608  139.8133  155.6232 C   0  0  0  0  0  0  0  0  0  0  0  0
  144.6364  140.5141  155.1357 O   0  0  0  0  0  0  0  0  0  0  0  0
  147.4224  141.6232  154.7036 C   0  0  1  0  0  0  0  0  0  0  0  0
  147.2595  142.2682  155.9560 O   0  0  0  0  0  0  0  0  0  0  0  0
  148.8850  141.5172  154.2809 C   0  0  1  0  0  0  0  0  0  0  0  0
  149.6709  142.6183  154.7043 O   0  0  0  0  0  0  0  0  0  0  0  0
  151.6286  139.7853  155.7808 C   0  0  0  0  0  0  0  0  0  0  0  0
  152.0159  139.3278  154.7062 O   0  0  0  0  0  0  0  0  0  0  0  0
  152.4856  139.8937  156.8433 N   0  0  0  0  0  0  0  0  0  0  0  0
  149.7541  139.4990  154.0670 H   0  0  0  0  0  0  0  0  0  0  0  0
  146.8575  139.7750  153.7658 H   0  0  0  0  0  0  0  0  0  0  0  0
  146.8326  142.1688  153.9661 H   0  0  0  0  0  0  0  0  0  0  0  0
  148.9361  141.4577  153.1929 H   0  0  0  0  0  0  0  0  0  0  0  0
  153.9825  140.1305  158.8331 H   0  0  0  0  0  0  0  0  0  0  0  0
  152.7820  140.8400  159.8903 H   0  0  0  0  0  0  0  0  0  0  0  0
  150.4454  141.2869  159.1700 H   0  0  0  0  0  0  0  0  0  0  0  0
  148.9112  141.1155  157.3433 H   0  0  0  0  0  0  0  0  0  0  0  0
  145.5507  138.7452  155.5641 H   0  0  0  0  0  0  0  0  0  0  0  0
  145.9131  140.0470  156.6771 H   0  0  0  0  0  0  0  0  0  0  0  0
  144.4685  140.2339  154.2488 H   0  0  0  0  0  0  0  0  0  0  0  0
  147.7264  143.0897  155.9303 H   0  0  0  0  0  0  0  0  0  0  0  0
  149.0930  143.2633  155.0833 H   0  0  0  0  0  0  0  0  0  0  0  0
  1  2  1  0  0  0  0
  1 22  1  0  0  0  0
  1 23  1  0  0  0  0
  2 17  2  0  0  0  0
  2  3  1  0  0  0  0
  3  4  2  0  0  0  0
  3 24  1  0  0  0  0
  4  5  1  0  0  0  0
  4 25  1  0  0  0  0
  5  6  1  0  0  0  0
  5 15  1  0  0  0  0
  6 18  1  0  0  0  0
  6 13  1  0  0  0  0
  6  7  1  0  0  0  0
  7  8  1  0  0  0  0
  8 19  1  0  0  0  0
  8  9  1  0  0  0  0
  8 11  1  0  0  0  0
  9 10  1  0  0  0  0
  9 26  1  0  0  0  0
  9 27  1  0  0  0  0
 10 28  1  0  0  0  0
 11 20  1  0  0  0  0
 11 12  1  0  0  0  0
 11 13  1  0  0  0  0
 12 29  1  0  0  0  0
 13 21  1  0  0  0  0
 13 14  1  0  0  0  0
 14 30  1  0  0  0  0
 15 16  2  0  0  0  0
 15 17  1  0  0  0  0
M  END
> <s_m_source_file>
AV-unprocessed.smi

> <i_m_source_file_index>
53

> <i_lp_mmshare_version>
43012

> <i_f3d_flags>
0

> <s_epik_input>
W05IMl1jMVtjSF1bY0hdbihjKD1PKW4xKVtDQEBIXTJPW0NASF0oW0NIMl1bT0hdKVtDQEBIXShbT0hdKVtDQEBIXTJbT0hd

> <s_epik_cmdline>
J2VwaWtfcHl0aG9uJywgJy1waCcsICc3LjAnLCAnLXRuJywgJzgnLCAnLW1hJywgJzIwMCcsICctbWV0YWxfYmluZGluZycsICctaW1hZScsICc8aW5maWxlLm1hZT4nLCAnLW9tYWUnLCAnPG91dGZpbGUubWFlPic=

> <r_lp_tautomer_probability>
0.99996

> <r_epik_Ionization_Penalty>
0.00069087

> <r_epik_Ionization_Penalty_Charging>
2.61959e-08

> <r_epik_Ionization_Penalty_Neutral>
0.000690844

> <r_epik_State_Penalty>
1.15523e-05

> <r_epik_Charging_Adjusted_Penalty>
1.15785e-05

> <i_epik_Tot_Q>
0

> <i_epik_Tot_abs_Q>
0

> <r_epik_Metal_State_Penalty>
-0

> <b_epik_Metal_Only>
0

> <s_epik_Chemistry_Notes>
This compound contains an acetal/aminal-like group ( X-CH(R)-Y where X, Y are N, S, or O) that may be acid/base labile, releasing an aldehyde.

> <s_lp_Force_Field>
OPLS_2005

> <r_lp_Energy>
39.3068

> <b_lp_Chiralities_Consistent>
1

> <s_lp_Variant>
AV-unprocessed.smi:53-12

> <Gold.Version>
5.8.1

> <Gold.Id.Protein>
6NUR|6NUR_protein|mol2

> <Gold.PLP.Fitness>
36.4177

> <Gold.PLP.PLP>
-21.8819

> <Gold.PLP.part.hbond>
-6.3235

> <Gold.PLP.part.metal>
0.0000

> <Gold.PLP.part.buried>
1.4277

> <Gold.PLP.part.nonpolar>
-16.5168

> <Gold.PLP.part.repulsive>
0.1911

> <Gold.PLP.ligand.clash>
0.0000

> <Gold.PLP.ligand.torsion>
0.1302

> <Gold.PLP.Chemscore.Hbond>
4.9280

> <Gold.PLP.Chemscore.CHOScore>
0.0000

> <Gold.PLP.Chemscore.Metal>
0.0000

> <Gold.Chemscore.Hbonds>
donor molecule, donor type, donor heavy atom, donor atom, acceptor molecule, acceptor atom, score
      L1  H    10    28       P1 10175  1.00
      L1  H    12    29       P1  8028  1.00
      L1  H    14    30       P1  8028  0.98
      P1  H  7989  7998       L1    16  0.91
      P1  H  7997  8009       L1    17  1.00

> <Gold.PLP.Chemscore.Internal.Correction>
0.0121

> <Gold.Rescore>
     Score         DG    S(hbond)    S(metal)    S(lipo)     H(rot)  DE(clash)    DE(int)     intcor
      9.47     -10.43       3.43        0.00      25.69       3.71       0.64       0.32       ----

> <Gold.Chemscore.Fitness>
9.4730

> <Gold.Chemscore.DG>
-10.4303

> <Gold.Chemscore.ZeroCoef>
-5.4800

> <Gold.Chemscore.Hbond>
3.4253

> <Gold.Chemscore.Metal>
0.0000

> <Gold.Chemscore.Lipo>
25.6942

> <Gold.Chemscore.Internal_Hbond>
0.0000

> <Gold.Chemscore.DEClash>
0.6352

> <Gold.Chemscore.DEInternal>
0.3220

> <Gold.Chemscore.Rot>
3.7095

> <Gold.Chemscore.Internal.Correction>
   9.000000E+99

> <Gold.Chemscore.Hbonds>
donor molecule, donor type, donor heavy atom, donor atom, acceptor molecule, acceptor atom, score
      L1  H    10    28       P1 10175  0.95
      L1  H    12    29       P1  8028  0.25
      L1  H    14    30       P1  8028  0.90
      P1  H  7989  7998       L1    16  0.26
      P1  H  7997  8009       L1    17  0.81

> <Gold.Chemscore.Hbond.Weighted>
-11.4404

> <Gold.Chemscore.Metal.Weighted>
-0.0000

> <Gold.Chemscore.Lipo.Weighted>
-3.0062

> <Gold.Chemscore.Internal_Hbond.Weighted>
0.0000

> <Gold.Chemscore.DEClash.Weighted>
0.6352

> <Gold.Chemscore.DEInternal.Weighted>
0.3220

> <Gold.Chemscore.Rot.Weighted>
9.4964

> <Gold.Chemscore.Internal.Correction.Weighted>
   9.000000E+99

> <Gold.Protein.RotatedTorsions>
[ 6907 6896 6895 6894 ] final   81.19 input  -60.11 | X-H torsion
[ 7974 7965 7964 7962 ] final  -75.20 input  175.53 | X-H torsion
[ 8008 7997 7996 7995 ] final -169.34 input   59.86 | X-H torsion
[ 10167 10162 10161 10158 ] final  -22.47 input  -65.29 | X-H torsion
[ 10718 10713 10712 10709 ] final   -9.96 input   66.30 | X-H torsion
[ 10763 10752 10751 10750 ] final  117.79 input  -60.55 | X-H torsion
[ 11005 11000 10999 10996 ] final -169.46 input  -57.11 | X-H torsion

> <Gold.Protein.ActiveResidues>
 VAL166  LYS551  ARG553  GLY616  TRP617  ASP618  TYR619  PRO620  LYS621  CYS622 
 ASP623  PHE694  ASN695  SER759  ASP760  ASP761  ALA762  ILE779  LEU786  VAL792 
 PHE793  MET794  SER795  GLU796  ALA797  LYS798  CYS799  TRP800  GLU811  SER814 

> <Gold.Protein.RotatedAtoms>
  152.5260  134.3242  159.9158 H   0  0  0  0  0  0  0  0  0  0  0  0  # atno 6907 bound_to 6896
  151.3191  133.4041  159.2660 H   0  0  0  0  0  0  0  0  0  0  0  0  # atno 6908 bound_to 6896
  150.9974  134.9312  159.7992 H   0  0  0  0  0  0  0  0  0  0  0  0  # atno 6909 bound_to 6896
  145.6292  140.9342  143.1096 H   0  0  0  0  0  0  0  0  0  0  0  0  # atno 7974 bound_to 7965
  155.9036  140.1045  157.1331 H   0  0  0  0  0  0  0  0  0  0  0  0  # atno 8008 bound_to 7997
  154.4029  140.1288  156.4532 H   0  0  0  0  0  0  0  0  0  0  0  0  # atno 8009 bound_to 7997
  155.7393  140.3467  155.5099 H   0  0  0  0  0  0  0  0  0  0  0  0  # atno 8010 bound_to 7997
  140.7286  143.4532  151.0487 H   0  0  0  0  0  0  0  0  0  0  0  0  # atno 10167 bound_to 10162
  156.6804  130.5035  149.5973 H   0  0  0  0  0  0  0  0  0  0  0  0  # atno 10718 bound_to 10713
  153.5578  135.3527  155.2786 H   0  0  0  0  0  0  0  0  0  0  0  0  # atno 10763 bound_to 10752
  154.8699  135.4129  154.2865 H   0  0  0  0  0  0  0  0  0  0  0  0  # atno 10764 bound_to 10752
  153.3604  135.7059  153.6786 H   0  0  0  0  0  0  0  0  0  0  0  0  # atno 10765 bound_to 10752
  140.5305  134.5621  157.5073 H   0  0  0  0  0  0  0  0  0  0  0  0  # atno 11005 bound_to 11000
  144.7200  139.8062  143.7385 LP  0  0  0  0  0  0  0  0  0  0  0  0  # atno 17320 bound_to 7965
  146.1370  139.4418  143.0132 LP  0  0  0  0  0  0  0  0  0  0  0  0  # atno 17321 bound_to 7965
  139.8210  143.7821  152.3177 LP  0  0  0  0  0  0  0  0  0  0  0  0  # atno 17342 bound_to 10162
  139.7903  144.7412  150.9964 LP  0  0  0  0  0  0  0  0  0  0  0  0  # atno 17343 bound_to 10162
  156.1872  130.6536  151.1019 LP  0  0  0  0  0  0  0  0  0  0  0  0  # atno 17370 bound_to 10713
  157.7045  131.0762  150.6711 LP  0  0  0  0  0  0  0  0  0  0  0  0  # atno 17371 bound_to 10713
  139.9557  134.7540  156.0348 LP  0  0  0  0  0  0  0  0  0  0  0  0  # atno 17394 bound_to 11000
  141.1284  133.6593  156.3398 LP  0  0  0  0  0  0  0  0  0  0  0  0  # atno 17395 bound_to 11000

$$$$
