AV-unprocessed.smi:189|AV-procd|sdf|1487|dock6
  -GOLD-   2262019303D 1   1.00000     0.00000
 Structure written by MMmdl.
 53 57  0  0  0  0  0  0  0  0  1 V2000
  150.6943  140.0411  155.4820 C   0  0  0  0  0  0  0  0  0  0  0  0
  150.5577  140.7787  156.8217 C   0  0  2  0  0  0  0  0  0  0  0  0
  150.4776  142.3183  156.6821 C   0  0  0  0  0  0  0  0  0  0  0  0
  151.6241  142.8201  157.5601 C   0  0  1  0  0  0  0  0  0  0  0  0
  151.4686  144.1567  158.2948 C   0  0  0  0  0  0  0  0  0  0  0  0
  152.7156  144.3951  159.1739 C   0  0  0  0  0  0  0  0  0  0  0  0
  153.0142  143.2043  160.1151 C   0  0  0  0  0  0  0  0  0  0  0  0
  153.0745  141.8564  159.3653 C   0  0  0  0  0  0  0  0  0  0  0  0
  151.7813  141.6825  158.5540 C   0  0  2  0  0  0  0  0  0  0  0  0
  151.6890  140.5036  157.7127 N   0  0  0  0  0  0  0  0  0  0  0  0
  151.6636  139.3236  158.3725 C   0  0  0  0  0  0  0  0  0  0  0  0
  152.8157  138.7502  158.8104 N   0  0  0  0  0  0  0  0  0  0  0  0
  152.7744  137.5795  159.4538 C   0  0  0  0  0  0  0  0  0  0  0  0
  151.7121  136.8279  159.7535 N   0  0  0  0  0  0  0  0  0  0  0  0
  150.5570  137.3995  159.3053 C   0  0  0  0  0  0  0  0  0  0  0  0
  150.4460  138.6370  158.6129 C   0  0  0  0  0  0  0  0  0  0  0  0
  149.1160  138.9035  158.3170 N   0  0  0  0  0  0  0  0  0  0  0  0
  148.4739  137.8793  158.8091 C   0  0  0  0  0  0  0  0  0  0  0  0
  149.2615  136.9235  159.4123 N   0  0  0  0  0  0  0  0  0  0  0  0
  148.8075  135.6912  160.0393 C   0  0  0  0  0  0  0  0  0  0  0  0
  148.0516  135.9128  161.3719 C   0  0  2  0  0  0  0  0  0  0  0  0
  148.7000  136.9389  162.1020 O   0  0  0  0  0  0  0  0  0  0  0  0
  148.0006  134.6478  162.2315 C   0  0  0  0  0  0  0  0  0  0  0  0
  146.5403  134.2190  162.1536 C   0  0  0  0  0  0  0  0  0  0  0  0
  145.8562  135.4577  162.0980 O   0  0  0  0  0  0  0  0  0  0  0  0
  146.5665  136.2843  161.1875 C   0  0  0  0  0  0  0  0  0  0  0  0
  149.8565  140.2701  154.8233 H   0  0  0  0  0  0  0  0  0  0  0  0
  150.7145  138.9607  155.6268 H   0  0  0  0  0  0  0  0  0  0  0  0
  151.6126  140.3260  154.9672 H   0  0  0  0  0  0  0  0  0  0  0  0
  149.6333  140.4441  157.2951 H   0  0  0  0  0  0  0  0  0  0  0  0
  150.5847  142.6602  155.6521 H   0  0  0  0  0  0  0  0  0  0  0  0
  149.5166  142.6761  157.0540 H   0  0  0  0  0  0  0  0  0  0  0  0
  152.5197  142.8684  156.9366 H   0  0  0  0  0  0  0  0  0  0  0  0
  151.3481  144.9718  157.5807 H   0  0  0  0  0  0  0  0  0  0  0  0
  150.5715  144.1432  158.9150 H   0  0  0  0  0  0  0  0  0  0  0  0
  153.5795  144.5643  158.5298 H   0  0  0  0  0  0  0  0  0  0  0  0
  152.5876  145.3067  159.7583 H   0  0  0  0  0  0  0  0  0  0  0  0
  153.9515  143.3761  160.6449 H   0  0  0  0  0  0  0  0  0  0  0  0
  152.2373  143.1521  160.8790 H   0  0  0  0  0  0  0  0  0  0  0  0
  153.9420  141.8330  158.7043 H   0  0  0  0  0  0  0  0  0  0  0  0
  153.1965  141.0386  160.0763 H   0  0  0  0  0  0  0  0  0  0  0  0
  150.9327  141.6853  159.2418 H   0  0  0  0  0  0  0  0  0  0  0  0
  153.7292  137.1880  159.7723 H   0  0  0  0  0  0  0  0  0  0  0  0
  147.3994  137.7893  158.7414 H   0  0  0  0  0  0  0  0  0  0  0  0
  148.1681  135.1621  159.3313 H   0  0  0  0  0  0  0  0  0  0  0  0
  149.6769  135.0518  160.1993 H   0  0  0  0  0  0  0  0  0  0  0  0
  148.8942  136.6117  162.9673 H   0  0  0  0  0  0  0  0  0  0  0  0
  148.6802  133.8644  161.8937 H   0  0  0  0  0  0  0  0  0  0  0  0
  148.2495  134.8691  163.2709 H   0  0  0  0  0  0  0  0  0  0  0  0
  146.3463  133.6479  161.2440 H   0  0  0  0  0  0  0  0  0  0  0  0
  146.2291  133.6227  163.0115 H   0  0  0  0  0  0  0  0  0  0  0  0
  146.3545  137.3407  161.3571 H   0  0  0  0  0  0  0  0  0  0  0  0
  146.2197  136.0369  160.1842 H   0  0  0  0  0  0  0  0  0  0  0  0
  1  2  1  0  0  0  0
  1 27  1  0  0  0  0
  1 28  1  0  0  0  0
  1 29  1  0  0  0  0
  2 10  1  0  0  0  0
  2  3  1  0  0  0  0
  2 30  1  0  0  0  0
  3  4  1  0  0  0  0
  3 31  1  0  0  0  0
  3 32  1  0  0  0  0
  4  9  1  0  0  0  0
  4  5  1  0  0  0  0
  4 33  1  0  0  0  0
  5  6  1  0  0  0  0
  5 34  1  0  0  0  0
  5 35  1  0  0  0  0
  6  7  1  0  0  0  0
  6 36  1  0  0  0  0
  6 37  1  0  0  0  0
  7  8  1  0  0  0  0
  7 38  1  0  0  0  0
  7 39  1  0  0  0  0
  8  9  1  0  0  0  0
  8 40  1  0  0  0  0
  8 41  1  0  0  0  0
  9 10  1  0  0  0  0
  9 42  1  0  0  0  0
 10 11  1  0  0  0  0
 11 16  1  0  0  0  0
 11 12  2  0  0  0  0
 12 13  1  0  0  0  0
 13 14  2  0  0  0  0
 13 43  1  0  0  0  0
 14 15  1  0  0  0  0
 15 19  1  0  0  0  0
 15 16  2  0  0  0  0
 16 17  1  0  0  0  0
 17 18  2  0  0  0  0
 18 19  1  0  0  0  0
 18 44  1  0  0  0  0
 19 20  1  0  0  0  0
 20 21  1  0  0  0  0
 20 45  1  0  0  0  0
 20 46  1  0  0  0  0
 21 26  1  0  0  0  0
 21 22  1  0  0  0  0
 21 23  1  0  0  0  0
 22 47  1  0  0  0  0
 23 24  1  0  0  0  0
 23 48  1  0  0  0  0
 23 49  1  0  0  0  0
 24 25  1  0  0  0  0
 24 50  1  0  0  0  0
 24 51  1  0  0  0  0
 25 26  1  0  0  0  0
 26 52  1  0  0  0  0
 26 53  1  0  0  0  0
M  END
> <s_m_source_file>
AV-unprocessed.smi

> <i_m_source_file_index>
189

> <i_lp_mmshare_version>
43012

> <i_f3d_flags>
0

> <s_epik_input>
W0NIMl0xW0NIMl1bQ0gyXVtDSDJdW0NASF0oW0NASF0xMilOKFtDQEhdKFtDSDNdKVtDSDJdMiljKG5bY0hdbjMpYyhjMzQpbltjSF1uNFtDSDJdW0NAQF01KFtPSF0pW0NIMl1bQ0gyXU9bQ0gyXTU=

> <s_epik_cmdline>
J2VwaWtfcHl0aG9uJywgJy1waCcsICc3LjAnLCAnLXRuJywgJzgnLCAnLW1hJywgJzIwMCcsICctbWV0YWxfYmluZGluZycsICctaW1hZScsICc8aW5maWxlLm1hZT4nLCAnLW9tYWUnLCAnPG91dGZpbGUubWFlPic=

> <r_lp_tautomer_probability>
1

> <r_epik_Ionization_Penalty>
0.00594261

> <r_epik_Ionization_Penalty_Charging>
0

> <r_epik_Ionization_Penalty_Neutral>
0.00594261

> <r_epik_State_Penalty>
0.00429776

> <r_epik_Charging_Adjusted_Penalty>
0.00429776

> <i_epik_Tot_Q>
0

> <i_epik_Tot_abs_Q>
0

> <r_epik_Metal_State_Penalty>
-0

> <b_epik_Metal_Only>
0

> <s_lp_Force_Field>
OPLS_2005

> <r_lp_Energy>
58.4812

> <b_lp_Chiralities_Consistent>
1

> <s_lp_Variant>
AV-unprocessed.smi:189-13

> <Gold.Version>
5.8.1

> <Gold.Id.Protein>
6NUR|6NUR_protein|mol2

> <Gold.PLP.Fitness>
50.2307

> <Gold.PLP.PLP>
-46.6199

> <Gold.PLP.part.hbond>
-2.3470

> <Gold.PLP.part.metal>
0.0000

> <Gold.PLP.part.buried>
-4.5981

> <Gold.PLP.part.nonpolar>
-40.6821

> <Gold.PLP.part.repulsive>
0.0000

> <Gold.PLP.ligand.clash>
0.0000

> <Gold.PLP.ligand.torsion>
1.0433

> <Gold.PLP.Chemscore.Hbond>
1.8938

> <Gold.PLP.Chemscore.CHOScore>
0.0000

> <Gold.PLP.Chemscore.Metal>
0.0000

> <Gold.Chemscore.Hbonds>
donor molecule, donor type, donor heavy atom, donor atom, acceptor molecule, acceptor atom, score
      P1  H  6896  6907       L1    14  0.93
      P1  H  6931  6943       L1    22  0.55

> <Gold.PLP.Chemscore.Internal.Correction>
0.0162

> <Gold.Rescore>
     Score         DG    S(hbond)    S(metal)    S(lipo)     H(rot)  DE(clash)    DE(int)     intcor
     17.98     -20.70       1.93        0.00     119.31       2.03       0.31       2.41       ----

> <Gold.Chemscore.Fitness>
17.9766

> <Gold.Chemscore.DG>
-20.6954

> <Gold.Chemscore.ZeroCoef>
-5.4800

> <Gold.Chemscore.Hbond>
1.9316

> <Gold.Chemscore.Metal>
0.0000

> <Gold.Chemscore.Lipo>
119.3133

> <Gold.Chemscore.Internal_Hbond>
0.0000

> <Gold.Chemscore.DEClash>
0.3062

> <Gold.Chemscore.DEInternal>
2.4126

> <Gold.Chemscore.Rot>
2.0297

> <Gold.Chemscore.Internal.Correction>
   9.000000E+99

> <Gold.Chemscore.Hbonds>
donor molecule, donor type, donor heavy atom, donor atom, acceptor molecule, acceptor atom, score
      P1  H  6896  6907       L1    14  0.32
      P1  H  6931  6943       L1    22  0.48

> <Gold.Chemscore.Hbond.Weighted>
-6.4517

> <Gold.Chemscore.Metal.Weighted>
-0.0000

> <Gold.Chemscore.Lipo.Weighted>
-13.9597

> <Gold.Chemscore.Internal_Hbond.Weighted>
0.0000

> <Gold.Chemscore.DEClash.Weighted>
0.3062

> <Gold.Chemscore.DEInternal.Weighted>
2.4126

> <Gold.Chemscore.Rot.Weighted>
5.1960

> <Gold.Chemscore.Internal.Correction.Weighted>
   9.000000E+99

> <Gold.Protein.RotatedTorsions>
[ 6907 6896 6895 6894 ] final  -21.70 input  -60.11 | X-H torsion
[ 7974 7965 7964 7962 ] final -137.26 input  175.53 | X-H torsion
[ 8008 7997 7996 7995 ] final  -97.90 input   59.86 | X-H torsion
[ 10167 10162 10161 10158 ] final  -37.51 input  -65.29 | X-H torsion
[ 10718 10713 10712 10709 ] final  173.14 input   66.30 | X-H torsion
[ 10763 10752 10751 10750 ] final   52.19 input  -60.55 | X-H torsion
[ 11005 11000 10999 10996 ] final   88.99 input  -57.11 | X-H torsion

> <Gold.Protein.ActiveResidues>
 VAL166  LYS551  ARG553  GLY616  TRP617  ASP618  TYR619  PRO620  LYS621  CYS622 
 ASP623  PHE694  ASN695  SER759  ASP760  ASP761  ALA762  ILE779  LEU786  VAL792 
 PHE793  MET794  SER795  GLU796  ALA797  LYS798  CYS799  TRP800  GLU811  SER814 

> <Gold.Protein.RotatedAtoms>
  151.2294  135.0548  159.8981 H   0  0  0  0  0  0  0  0  0  0  0  0  # atno 6907 bound_to 6896
  152.5406  134.0554  159.8138 H   0  0  0  0  0  0  0  0  0  0  0  0  # atno 6908 bound_to 6896
  151.0731  133.5401  159.2657 H   0  0  0  0  0  0  0  0  0  0  0  0  # atno 6909 bound_to 6896
  144.8857  140.6571  143.5177 H   0  0  0  0  0  0  0  0  0  0  0  0  # atno 7974 bound_to 7965
  154.7939  140.0459  157.1222 H   0  0  0  0  0  0  0  0  0  0  0  0  # atno 8008 bound_to 7997
  154.9558  140.3071  155.5034 H   0  0  0  0  0  0  0  0  0  0  0  0  # atno 8009 bound_to 7997
  156.2953  140.2279  156.4640 H   0  0  0  0  0  0  0  0  0  0  0  0  # atno 8010 bound_to 7997
  140.7116  143.3337  151.2511 H   0  0  0  0  0  0  0  0  0  0  0  0  # atno 10167 bound_to 10162
  156.9686  131.0083  151.2910 H   0  0  0  0  0  0  0  0  0  0  0  0  # atno 10718 bound_to 10713
  152.9788  135.5821  154.4537 H   0  0  0  0  0  0  0  0  0  0  0  0  # atno 10763 bound_to 10752
  154.4123  135.2770  155.2031 H   0  0  0  0  0  0  0  0  0  0  0  0  # atno 10764 bound_to 10752
  154.3815  135.6145  153.5848 H   0  0  0  0  0  0  0  0  0  0  0  0  # atno 10765 bound_to 10752
  139.8884  134.8523  156.3079 H   0  0  0  0  0  0  0  0  0  0  0  0  # atno 11005 bound_to 11000
  145.3874  139.1624  143.4248 LP  0  0  0  0  0  0  0  0  0  0  0  0  # atno 17320 bound_to 7965
  146.3023  140.3960  142.8700 LP  0  0  0  0  0  0  0  0  0  0  0  0  # atno 17321 bound_to 7965
  139.6826  143.9828  152.2817 LP  0  0  0  0  0  0  0  0  0  0  0  0  # atno 17342 bound_to 10162
  139.9463  144.6649  150.8216 LP  0  0  0  0  0  0  0  0  0  0  0  0  # atno 17343 bound_to 10162
  157.5608  130.8244  149.8263 LP  0  0  0  0  0  0  0  0  0  0  0  0  # atno 17370 bound_to 10713
  156.0292  130.3770  150.1736 LP  0  0  0  0  0  0  0  0  0  0  0  0  # atno 17371 bound_to 10713
  140.9870  133.7232  156.0756 LP  0  0  0  0  0  0  0  0  0  0  0  0  # atno 17394 bound_to 11000
  140.7675  134.3869  157.5514 LP  0  0  0  0  0  0  0  0  0  0  0  0  # atno 17395 bound_to 11000

$$$$
