AV-unprocessed.smi:2193|AV-procd|sdf|8900|dock8
  -GOLD-   2272012113D 1   1.00000     0.00000
 Structure written by MMmdl.
 41 43  0  0  0  0  0  0  0  0  2 V2000
  149.6755  140.9086  153.6692 O   0  0  0  0  0  0  0  0  0  0  0  0
  149.2114  140.5239  154.9439 C   0  0  0  0  0  0  0  0  0  0  0  0
  150.0192  141.1258  156.0455 C   0  0  0  0  0  0  0  0  0  0  0  0
  150.1447  142.4571  156.3071 N   0  3  0  0  0  0  0  0  0  0  0  0
  150.9866  142.6458  157.4037 C   0  0  0  0  0  0  0  0  0  0  0  0
  151.4097  143.8106  158.0366 C   0  0  0  0  0  0  0  0  0  0  0  0
  152.2744  143.6531  159.1396 C   0  0  0  0  0  0  0  0  0  0  0  0
  152.6856  142.3761  159.5735 C   0  0  0  0  0  0  0  0  0  0  0  0
  152.2510  141.2024  158.9231 C   0  0  0  0  0  0  0  0  0  0  0  0
  151.3964  141.3662  157.8327 C   0  0  0  0  0  0  0  0  0  0  0  0
  150.7753  140.4595  156.9648 N   0  0  0  0  0  0  0  0  0  0  0  0
  151.0022  139.0148  157.1295 C   0  0  0  0  0  0  0  0  0  0  0  0
  150.5066  138.4830  158.4892 C   0  0  2  0  0  0  0  0  0  0  0  0
  151.3537  137.4460  158.9413 O   0  0  0  0  0  0  0  0  0  0  0  0
  149.0693  137.9474  158.4204 C   0  0  0  0  0  0  0  0  0  0  0  0
  148.5924  137.7451  159.7443 O   0  0  0  0  0  0  0  0  0  0  0  0
  148.2702  136.4631  160.1343 C   0  0  0  0  0  0  0  0  0  0  0  0
  147.8205  136.2922  161.4601 C   0  0  0  0  0  0  0  0  0  0  0  0
  147.4689  135.0174  161.9441 C   0  0  0  0  0  0  0  0  0  0  0  0
  147.5651  133.8947  161.1016 C   0  0  0  0  0  0  0  0  0  0  0  0
  147.2275  132.6677  161.5643 F   0  0  0  0  0  0  0  0  0  0  0  0
  148.0132  134.0499  159.7767 C   0  0  0  0  0  0  0  0  0  0  0  0
  148.3644  135.3255  159.2927 C   0  0  0  0  0  0  0  0  0  0  0  0
  149.4698  140.2213  153.0536 H   0  0  0  0  0  0  0  0  0  0  0  0
  148.1697  140.8271  155.0505 H   0  0  0  0  0  0  0  0  0  0  0  0
  149.2377  139.4370  155.0207 H   0  0  0  0  0  0  0  0  0  0  0  0
  151.0956  144.7900  157.7064 H   0  0  0  0  0  0  0  0  0  0  0  0
  152.6289  144.5290  159.6635 H   0  0  0  0  0  0  0  0  0  0  0  0
  153.3478  142.2944  160.4234 H   0  0  0  0  0  0  0  0  0  0  0  0
  152.5703  140.2303  159.2683 H   0  0  0  0  0  0  0  0  0  0  0  0
  150.4728  138.5143  156.3181 H   0  0  0  0  0  0  0  0  0  0  0  0
  152.0587  138.7932  156.9780 H   0  0  0  0  0  0  0  0  0  0  0  0
  150.5483  139.2807  159.2317 H   0  0  0  0  0  0  0  0  0  0  0  0
  150.8171  136.7623  159.3121 H   0  0  0  0  0  0  0  0  0  0  0  0
  148.4311  138.6493  157.8806 H   0  0  0  0  0  0  0  0  0  0  0  0
  149.0587  136.9972  157.8833 H   0  0  0  0  0  0  0  0  0  0  0  0
  147.7434  137.1485  162.1139 H   0  0  0  0  0  0  0  0  0  0  0  0
  147.1257  134.9018  162.9616 H   0  0  0  0  0  0  0  0  0  0  0  0
  148.0884  133.1887  159.1292 H   0  0  0  0  0  0  0  0  0  0  0  0
  148.7043  135.4039  158.2714 H   0  0  0  0  0  0  0  0  0  0  0  0
  149.6895  143.1823  155.7677 H   0  0  0  0  0  0  0  0  0  0  0  0
  1  2  1  0  0  0  0
  1 24  1  0  0  0  0
  2  3  1  0  0  0  0
  2 25  1  0  0  0  0
  2 26  1  0  0  0  0
  3 11  1  0  0  0  0
  3  4  2  0  0  0  0
  4  5  1  0  0  0  0
  4 41  1  0  0  0  0
  5 10  2  0  0  0  0
  5  6  1  0  0  0  0
  6  7  2  0  0  0  0
  6 27  1  0  0  0  0
  7  8  1  0  0  0  0
  7 28  1  0  0  0  0
  8  9  2  0  0  0  0
  8 29  1  0  0  0  0
  9 10  1  0  0  0  0
  9 30  1  0  0  0  0
 10 11  1  0  0  0  0
 11 12  1  0  0  0  0
 12 13  1  0  0  0  0
 12 31  1  0  0  0  0
 12 32  1  0  0  0  0
 13 14  1  0  0  0  0
 13 15  1  0  0  0  0
 13 33  1  0  0  0  0
 14 34  1  0  0  0  0
 15 16  1  0  0  0  0
 15 35  1  0  0  0  0
 15 36  1  0  0  0  0
 16 17  1  0  0  0  0
 17 23  1  0  0  0  0
 17 18  2  0  0  0  0
 18 19  1  0  0  0  0
 18 37  1  0  0  0  0
 19 20  2  0  0  0  0
 19 38  1  0  0  0  0
 20 21  1  0  0  0  0
 20 22  1  0  0  0  0
 22 23  2  0  0  0  0
 22 39  1  0  0  0  0
 23 40  1  0  0  0  0
M  CHG  1   4   1
M  END
> <s_m_source_file>
AV-unprocessed.smi

> <i_m_source_file_index>
2193

> <i_lp_mmshare_version>
43012

> <i_f3d_flags>
0

> <s_epik_input>
W2NIXTFbY0hdW2NIXVtjSF1jKGMxMiluKGMobjIpW0NIMl1bT0hdKVtDSDJdW0NASF0oW09IXSlbQ0gyXU9jM1tjSF1bY0hdYyhGKVtjSF1bY0hdMw==

> <s_epik_cmdline>
J2VwaWtfcHl0aG9uJywgJy1waCcsICc3LjAnLCAnLXRuJywgJzgnLCAnLW1hJywgJzIwMCcsICctbWV0YWxfYmluZGluZycsICctaW1hZScsICc8aW5maWxlLm1hZT4nLCAnLW9tYWUnLCAnPG91dGZpbGUubWFlPic=

> <r_lp_tautomer_probability>
1

> <r_epik_Ionization_Penalty>
1.43752

> <r_epik_Ionization_Penalty_Charging>
1.43666

> <r_epik_Ionization_Penalty_Neutral>
0.000858184

> <r_epik_State_Penalty>
1.52171

> <r_epik_Charging_Adjusted_Penalty>
2.95837

> <i_epik_Tot_Q>
1

> <i_epik_Tot_abs_Q>
1

> <r_epik_Metal_State_Penalty>
5.56725

> <b_epik_Metal_Only>
0

> <s_lp_Force_Field>
OPLS_2005

> <r_lp_Energy>
17.6251

> <b_lp_Chiralities_Consistent>
1

> <s_lp_Variant>
AV-unprocessed.smi:2193-3

> <Gold.Version>
5.8.1

> <Gold.Id.Protein>
6NUR|6NUR_protein|mol2

> <Gold.PLP.Fitness>
58.5416

> <Gold.PLP.PLP>
-47.6012

> <Gold.PLP.part.hbond>
-6.0000

> <Gold.PLP.part.metal>
0.0000

> <Gold.PLP.part.buried>
-4.9389

> <Gold.PLP.part.nonpolar>
-37.6705

> <Gold.PLP.part.repulsive>
0.0921

> <Gold.PLP.ligand.clash>
0.0000

> <Gold.PLP.ligand.torsion>
0.8937

> <Gold.PLP.Chemscore.Hbond>
4.2129

> <Gold.PLP.Chemscore.CHOScore>
0.0000

> <Gold.PLP.Chemscore.Metal>
0.0000

> <Gold.Chemscore.Hbonds>
donor molecule, donor type, donor heavy atom, donor atom, acceptor molecule, acceptor atom, score
      L1  H     1    24       P1  7957  0.69
      L1  H     4    41       P1  8028  2.00
      P1  H  6931  6943       L1    16  0.06
      P1  H  6934  6947       L1    16  0.16
      P1  H  7989  7998       L1     1  0.33
      P1  H  8011  8017       L1     1  0.85

> <Gold.PLP.Chemscore.Internal.Correction>
0.0890

> <Gold.Rescore>
     Score         DG    S(hbond)    S(metal)    S(lipo)     H(rot)  DE(clash)    DE(int)     intcor
     15.91     -16.83       2.04        0.00     111.28       3.31       0.07       0.85       ----

> <Gold.Chemscore.Fitness>
15.9069

> <Gold.Chemscore.DG>
-16.8274

> <Gold.Chemscore.ZeroCoef>
-5.4800

> <Gold.Chemscore.Hbond>
2.0391

> <Gold.Chemscore.Metal>
0.0000

> <Gold.Chemscore.Lipo>
111.2758

> <Gold.Chemscore.Internal_Hbond>
0.0000

> <Gold.Chemscore.DEClash>
0.0727

> <Gold.Chemscore.DEInternal>
0.8478

> <Gold.Chemscore.Rot>
3.3134

> <Gold.Chemscore.Internal.Correction>
   9.000000E+99

> <Gold.Chemscore.Hbonds>
donor molecule, donor type, donor heavy atom, donor atom, acceptor molecule, acceptor atom, score
      L1  H     1    24       P1  7957  0.68
      L1  H     4    41       P1  8028  0.95
      P1  H  6934  6947       L1    16  0.08
      P1  H  7989  7998       L1     1  0.06
      P1  H  8011  8017       L1     1  0.13

> <Gold.Chemscore.Hbond.Weighted>
-6.8105

> <Gold.Chemscore.Metal.Weighted>
-0.0000

> <Gold.Chemscore.Lipo.Weighted>
-13.0193

> <Gold.Chemscore.Internal_Hbond.Weighted>
0.0000

> <Gold.Chemscore.DEClash.Weighted>
0.0727

> <Gold.Chemscore.DEInternal.Weighted>
0.8478

> <Gold.Chemscore.Rot.Weighted>
8.4823

> <Gold.Chemscore.Internal.Correction.Weighted>
   9.000000E+99

> <Gold.Protein.RotatedTorsions>
[ 6907 6896 6895 6894 ] final -111.43 input  -60.11 | X-H torsion
[ 7974 7965 7964 7962 ] final   35.21 input  175.53 | X-H torsion
[ 8008 7997 7996 7995 ] final  -55.33 input   59.86 | X-H torsion
[ 10167 10162 10161 10158 ] final  -76.15 input  -65.29 | X-H torsion
[ 10718 10713 10712 10709 ] final  177.74 input   66.30 | X-H torsion
[ 10763 10752 10751 10750 ] final   53.51 input  -60.55 | X-H torsion
[ 11005 11000 10999 10996 ] final  -80.09 input  -57.11 | X-H torsion

> <Gold.Protein.ActiveResidues>
 VAL166  LYS551  ARG553  GLY616  TRP617  ASP618  TYR619  PRO620  LYS621  CYS622 
 ASP623  PHE694  ASN695  SER759  ASP760  ASP761  ALA762  ILE779  LEU786  VAL792 
 PHE793  MET794  SER795  GLU796  ALA797  LYS798  CYS799  TRP800  GLU811  SER814 

> <Gold.Protein.RotatedAtoms>
  150.7690  133.9237  159.3405 H   0  0  0  0  0  0  0  0  0  0  0  0  # atno 6907 bound_to 6896
  151.7128  135.0907  160.0280 H   0  0  0  0  0  0  0  0  0  0  0  0  # atno 6908 bound_to 6896
  152.3699  133.6367  159.6114 H   0  0  0  0  0  0  0  0  0  0  0  0  # atno 6909 bound_to 6896
  146.1299  139.6171  142.9233 H   0  0  0  0  0  0  0  0  0  0  0  0  # atno 7974 bound_to 7965
  154.4191  140.1155  156.5459 H   0  0  0  0  0  0  0  0  0  0  0  0  # atno 8008 bound_to 7997
  155.6460  140.3496  155.4712 H   0  0  0  0  0  0  0  0  0  0  0  0  # atno 8009 bound_to 7997
  155.9832  140.1164  157.0697 H   0  0  0  0  0  0  0  0  0  0  0  0  # atno 8010 bound_to 7997
  140.4882  143.2386  151.7950 H   0  0  0  0  0  0  0  0  0  0  0  0  # atno 10167 bound_to 10162
  156.9008  130.9878  151.3036 H   0  0  0  0  0  0  0  0  0  0  0  0  # atno 10718 bound_to 10713
  152.9796  135.5776  154.4754 H   0  0  0  0  0  0  0  0  0  0  0  0  # atno 10763 bound_to 10752
  154.4310  135.2773  155.1914 H   0  0  0  0  0  0  0  0  0  0  0  0  # atno 10764 bound_to 10752
  154.3622  135.6186  153.5750 H   0  0  0  0  0  0  0  0  0  0  0  0  # atno 10765 bound_to 10752
  141.1668  133.7134  156.8220 H   0  0  0  0  0  0  0  0  0  0  0  0  # atno 11005 bound_to 11000
  145.5283  141.0428  143.2397 LP  0  0  0  0  0  0  0  0  0  0  0  0  # atno 17320 bound_to 7965
  144.7680  139.6801  143.7207 LP  0  0  0  0  0  0  0  0  0  0  0  0  # atno 17321 bound_to 7965
  139.4846  144.4684  151.9455 LP  0  0  0  0  0  0  0  0  0  0  0  0  # atno 17342 bound_to 10162
  140.3771  144.2783  150.5913 LP  0  0  0  0  0  0  0  0  0  0  0  0  # atno 17343 bound_to 10162
  157.6027  130.8524  149.8827 LP  0  0  0  0  0  0  0  0  0  0  0  0  # atno 17370 bound_to 10713
  156.0583  130.3704  150.1041 LP  0  0  0  0  0  0  0  0  0  0  0  0  # atno 17371 bound_to 10713
  140.2112  134.8826  157.3277 LP  0  0  0  0  0  0  0  0  0  0  0  0  # atno 17394 bound_to 11000
  140.2084  134.4168  155.7625 LP  0  0  0  0  0  0  0  0  0  0  0  0  # atno 17395 bound_to 11000

$$$$
