AV-unprocessed.smi:3057|AV-procd|sdf|11664|dock2
  -GOLD-   2272017 73D 1   1.00000     0.00000
 Structure written by MMmdl.
 40 42  0  0  0  0  0  0  0  0  1 V2000
  157.1246  135.8026  162.7686 C   0  0  0  0  0  0  0  0  0  0  0  0
  155.6629  135.3181  162.8278 C   0  0  2  0  0  0  0  0  0  0  0  0
  155.5065  133.9127  162.2190 C   0  0  0  0  0  0  0  0  0  0  0  0
  155.0699  134.1667  160.7686 C   0  0  0  0  0  0  0  0  0  0  0  0
  154.4636  135.5586  160.8478 C   0  0  0  0  0  0  0  0  0  0  0  0
  153.7217  136.0237  159.9840 O   0  0  0  0  0  0  0  0  0  0  0  0
  154.8044  136.1448  162.0024 N   0  0  0  0  0  0  0  0  0  0  0  0
  154.1758  137.3155  162.6203 C   0  0  2  0  0  0  0  0  0  0  0  0
  154.7645  138.6241  162.0639 C   0  0  0  0  0  0  0  0  0  0  0  0
  155.9691  138.8691  162.1463 O   0  0  0  0  0  0  0  0  0  0  0  0
  153.8826  139.4703  161.5114 N   0  0  0  0  0  0  0  0  0  0  0  0
  154.2065  140.7775  160.9473 C   0  0  0  0  0  0  0  0  0  0  0  0
  153.6341  141.9521  161.7675 C   0  0  0  0  0  0  0  0  0  0  0  0
  153.0004  143.0400  160.9164 C   0  0  0  0  0  0  0  0  0  0  0  0
  152.3827  144.1572  161.5188 C   0  0  0  0  0  0  0  0  0  0  0  0
  151.7920  145.1278  160.6873 C   0  0  0  0  0  0  0  0  0  0  0  0
  151.8462  144.9478  159.2918 C   0  0  0  0  0  0  0  0  0  0  0  0
  152.4922  143.8009  158.7883 C   0  0  0  0  0  0  0  0  0  0  0  0
  153.0590  142.8625  159.5773 N   0  0  0  0  0  0  0  0  0  0  0  0
  154.4681  137.2184  164.1394 C   0  0  0  0  0  0  0  0  0  0  0  0
  154.9723  135.5091  164.4792 S   0  0  0  0  0  0  0  0  0  0  0  0
  157.5082  135.7900  161.7478 H   0  0  0  0  0  0  0  0  0  0  0  0
  157.7710  135.1651  163.3722 H   0  0  0  0  0  0  0  0  0  0  0  0
  157.2287  136.8202  163.1456 H   0  0  0  0  0  0  0  0  0  0  0  0
  156.4224  133.3236  162.2782 H   0  0  0  0  0  0  0  0  0  0  0  0
  154.7271  133.3532  162.7388 H   0  0  0  0  0  0  0  0  0  0  0  0
  155.9245  134.1837  160.0916 H   0  0  0  0  0  0  0  0  0  0  0  0
  154.3510  133.4270  160.4155 H   0  0  0  0  0  0  0  0  0  0  0  0
  153.0993  137.2778  162.4429 H   0  0  0  0  0  0  0  0  0  0  0  0
  152.9118  139.1934  161.4872 H   0  0  0  0  0  0  0  0  0  0  0  0
  155.2864  140.8823  160.8337 H   0  0  0  0  0  0  0  0  0  0  0  0
  153.7880  140.8043  159.9409 H   0  0  0  0  0  0  0  0  0  0  0  0
  152.8899  141.5783  162.4717 H   0  0  0  0  0  0  0  0  0  0  0  0
  154.4240  142.3927  162.3767 H   0  0  0  0  0  0  0  0  0  0  0  0
  152.3534  144.2642  162.5933 H   0  0  0  0  0  0  0  0  0  0  0  0
  151.3048  145.9925  161.1126 H   0  0  0  0  0  0  0  0  0  0  0  0
  151.4037  145.6714  158.6234 H   0  0  0  0  0  0  0  0  0  0  0  0
  152.5538  143.6319  157.7233 H   0  0  0  0  0  0  0  0  0  0  0  0
  155.2942  137.8644  164.4402 H   0  0  0  0  0  0  0  0  0  0  0  0
  153.6019  137.4924  164.7423 H   0  0  0  0  0  0  0  0  0  0  0  0
  1  2  1  0  0  0  0
  1 22  1  0  0  0  0
  1 23  1  0  0  0  0
  1 24  1  0  0  0  0
  2  7  1  0  0  0  0
  2 21  1  0  0  0  0
  2  3  1  0  0  0  0
  3  4  1  0  0  0  0
  3 25  1  0  0  0  0
  3 26  1  0  0  0  0
  4  5  1  0  0  0  0
  4 27  1  0  0  0  0
  4 28  1  0  0  0  0
  5  6  2  0  0  0  0
  5  7  1  0  0  0  0
  7  8  1  0  0  0  0
  8  9  1  0  0  0  0
  8 20  1  0  0  0  0
  8 29  1  0  0  0  0
  9 10  2  0  0  0  0
  9 11  1  0  0  0  0
 11 12  1  0  0  0  0
 11 30  1  0  0  0  0
 12 13  1  0  0  0  0
 12 31  1  0  0  0  0
 12 32  1  0  0  0  0
 13 14  1  0  0  0  0
 13 33  1  0  0  0  0
 13 34  1  0  0  0  0
 14 19  1  0  0  0  0
 14 15  2  0  0  0  0
 15 16  1  0  0  0  0
 15 35  1  0  0  0  0
 16 17  2  0  0  0  0
 16 36  1  0  0  0  0
 17 18  1  0  0  0  0
 17 37  1  0  0  0  0
 18 19  2  0  0  0  0
 18 38  1  0  0  0  0
 20 21  1  0  0  0  0
 20 39  1  0  0  0  0
 20 40  1  0  0  0  0
M  END
> <s_m_source_file>
AV-unprocessed.smi

> <i_m_source_file_index>
3057

> <i_lp_mmshare_version>
43012

> <i_f3d_flags>
0

> <s_epik_input>
W0NIMl0xW0NIMl1DKD1PKU4oW0NAQF0xMltDSDNdKVtDQEhdKFtDSDJdUzIpQyg9TylbTkhdW0NIMl1bQ0gyXWMzW2NIXVtjSF1bY0hdW2NIXW4z

> <s_epik_cmdline>
J2VwaWtfcHl0aG9uJywgJy1waCcsICc3LjAnLCAnLXRuJywgJzgnLCAnLW1hJywgJzIwMCcsICctbWV0YWxfYmluZGluZycsICctaW1hZScsICc8aW5maWxlLm1hZT4nLCAnLW9tYWUnLCAnPG91dGZpbGUubWFlPic=

> <r_epik_Ionization_Penalty>
0.0249631

> <r_epik_Ionization_Penalty_Charging>
0

> <r_epik_Ionization_Penalty_Neutral>
0.0249631

> <r_epik_State_Penalty>
0.0202943

> <r_epik_Charging_Adjusted_Penalty>
0.0202943

> <i_epik_Tot_Q>
0

> <i_epik_Tot_abs_Q>
0

> <r_epik_Metal_State_Penalty>
0.0194661

> <b_epik_Metal_Only>
0

> <s_lp_Force_Field>
OPLS_2005

> <r_lp_Energy>
26.6501

> <b_lp_Chiralities_Consistent>
1

> <s_lp_Variant>
AV-unprocessed.smi:3057-4

> <Gold.Version>
5.8.1

> <Gold.Id.Protein>
6NUR|6NUR_protein|mol2

> <Gold.PLP.Fitness>
47.4115

> <Gold.PLP.PLP>
-45.2540

> <Gold.PLP.part.hbond>
-1.0000

> <Gold.PLP.part.metal>
0.0000

> <Gold.PLP.part.buried>
-3.7125

> <Gold.PLP.part.nonpolar>
-41.2137

> <Gold.PLP.part.repulsive>
0.0341

> <Gold.PLP.ligand.clash>
0.0000

> <Gold.PLP.ligand.torsion>
0.3561

> <Gold.PLP.Chemscore.Hbond>
0.9500

> <Gold.PLP.Chemscore.CHOScore>
0.0000

> <Gold.PLP.Chemscore.Metal>
0.0000

> <Gold.Chemscore.Hbonds>
donor molecule, donor type, donor heavy atom, donor atom, acceptor molecule, acceptor atom, score
      P1  H  6896  6908       L1     6  1.00

> <Gold.PLP.Chemscore.Internal.Correction>
0.0198

> <Gold.Rescore>
     Score         DG    S(hbond)    S(metal)    S(lipo)     H(rot)  DE(clash)    DE(int)     intcor
     17.80     -18.19       0.96        0.00     114.87       1.53       0.04       0.35       ----

> <Gold.Chemscore.Fitness>
17.7969

> <Gold.Chemscore.DG>
-18.1912

> <Gold.Chemscore.ZeroCoef>
-5.4800

> <Gold.Chemscore.Hbond>
0.9576

> <Gold.Chemscore.Metal>
0.0000

> <Gold.Chemscore.Lipo>
114.8674

> <Gold.Chemscore.Internal_Hbond>
0.0000

> <Gold.Chemscore.DEClash>
0.0414

> <Gold.Chemscore.DEInternal>
0.3530

> <Gold.Chemscore.Rot>
1.5339

> <Gold.Chemscore.Internal.Correction>
   9.000000E+99

> <Gold.Chemscore.Hbonds>
donor molecule, donor type, donor heavy atom, donor atom, acceptor molecule, acceptor atom, score
      P1  H  6896  6908       L1     6  0.35

> <Gold.Chemscore.Hbond.Weighted>
-3.1984

> <Gold.Chemscore.Metal.Weighted>
-0.0000

> <Gold.Chemscore.Lipo.Weighted>
-13.4395

> <Gold.Chemscore.Internal_Hbond.Weighted>
0.0000

> <Gold.Chemscore.DEClash.Weighted>
0.0414

> <Gold.Chemscore.DEInternal.Weighted>
0.3530

> <Gold.Chemscore.Rot.Weighted>
3.9267

> <Gold.Chemscore.Internal.Correction.Weighted>
   9.000000E+99

> <Gold.Protein.RotatedTorsions>
[ 6907 6896 6895 6894 ] final  -76.38 input  -60.11 | X-H torsion
[ 7974 7965 7964 7962 ] final  -60.75 input  175.53 | X-H torsion
[ 8008 7997 7996 7995 ] final   56.57 input   59.86 | X-H torsion
[ 10167 10162 10161 10158 ] final -108.15 input  -65.29 | X-H torsion
[ 10718 10713 10712 10709 ] final  115.90 input   66.30 | X-H torsion
[ 10763 10752 10751 10750 ] final -157.91 input  -60.55 | X-H torsion
[ 11005 11000 10999 10996 ] final -133.11 input  -57.11 | X-H torsion

> <Gold.Protein.ActiveResidues>
 VAL166  LYS551  ARG553  GLY616  TRP617  ASP618  TYR619  PRO620  LYS621  CYS622 
 ASP623  PHE694  ASN695  SER759  ASP760  ASP761  ALA762  ILE779  LEU786  VAL792 
 PHE793  MET794  SER795  GLU796  ALA797  LYS798  CYS799  TRP800  GLU811  SER814 

> <Gold.Protein.RotatedAtoms>
  150.7029  134.4581  159.5367 H   0  0  0  0  0  0  0  0  0  0  0  0  # atno 6907 bound_to 6896
  152.2261  134.8364  160.0489 H   0  0  0  0  0  0  0  0  0  0  0  0  # atno 6908 bound_to 6896
  151.9197  133.3547  159.3929 H   0  0  0  0  0  0  0  0  0  0  0  0  # atno 6909 bound_to 6896
  145.8117  140.8594  143.0178 H   0  0  0  0  0  0  0  0  0  0  0  0  # atno 7974 bound_to 7965
  155.5197  140.3479  155.4404 H   0  0  0  0  0  0  0  0  0  0  0  0  # atno 8008 bound_to 7997
  156.0793  140.1382  156.9759 H   0  0  0  0  0  0  0  0  0  0  0  0  # atno 8009 bound_to 7997
  154.4571  140.0949  156.6763 H   0  0  0  0  0  0  0  0  0  0  0  0  # atno 8010 bound_to 7997
  140.1693  143.4056  152.1367 H   0  0  0  0  0  0  0  0  0  0  0  0  # atno 10167 bound_to 10162
  157.6194  131.1018  150.7396 H   0  0  0  0  0  0  0  0  0  0  0  0  # atno 10718 bound_to 10713
  154.7598  135.3115  154.8399 H   0  0  0  0  0  0  0  0  0  0  0  0  # atno 10763 bound_to 10752
  153.9163  135.6800  153.4753 H   0  0  0  0  0  0  0  0  0  0  0  0  # atno 10764 bound_to 10752
  153.1198  135.4827  154.9108 H   0  0  0  0  0  0  0  0  0  0  0  0  # atno 10765 bound_to 10752
  140.9110  134.1568  157.4389 H   0  0  0  0  0  0  0  0  0  0  0  0  # atno 11005 bound_to 11000
  144.6756  140.0406  143.7481 LP  0  0  0  0  0  0  0  0  0  0  0  0  # atno 17320 bound_to 7965
  145.9770  139.2912  143.1065 LP  0  0  0  0  0  0  0  0  0  0  0  0  # atno 17321 bound_to 7965
  139.5345  144.7195  151.4940 LP  0  0  0  0  0  0  0  0  0  0  0  0  # atno 17342 bound_to 10162
  140.6593  143.8533  150.6869 LP  0  0  0  0  0  0  0  0  0  0  0  0  # atno 17343 bound_to 10162
  156.7757  130.4843  149.5410 LP  0  0  0  0  0  0  0  0  0  0  0  0  # atno 17370 bound_to 10713
  156.1331  130.6192  151.0362 LP  0  0  0  0  0  0  0  0  0  0  0  0  # atno 17371 bound_to 10713
  139.8757  134.9935  156.5650 LP  0  0  0  0  0  0  0  0  0  0  0  0  # atno 17394 bound_to 11000
  140.8110  133.8429  155.8810 LP  0  0  0  0  0  0  0  0  0  0  0  0  # atno 17395 bound_to 11000

$$$$
