AV-unprocessed.smi:1041|AV-procd|sdf|4528|dock6
  -GOLD-   22720 2543D 1   1.00000     0.00000
 Structure written by MMmdl.
 53 54  0  0  0  0  0  0  0  0  2 V2000
  153.0606  143.5908  159.2329 C   0  0  0  0  0  0  0  0  0  0  0  0
  151.7707  143.8475  158.7046 O   0  0  0  0  0  0  0  0  0  0  0  0
  151.3286  142.8230  157.8297 C   0  0  0  0  0  0  0  0  0  0  0  0
  149.8058  142.6690  157.9689 C   0  0  0  0  0  0  0  0  0  0  0  0
  149.1547  142.2350  156.7061 N   0  3  2  0  0  0  0  0  0  0  0  0
  147.7868  141.7035  156.9369 C   0  0  0  0  0  0  0  0  0  0  0  0
  147.0771  141.3850  155.6102 C   0  0  0  0  0  0  0  0  0  0  0  0
  147.8975  140.3985  154.7553 C   0  0  1  0  0  0  0  0  0  0  0  0
  147.2334  140.0909  153.4001 C   0  0  0  0  0  0  0  0  0  0  0  0
  146.0489  139.2624  153.5731 N   0  0  0  0  0  0  0  0  0  0  0  0
  146.0503  138.0047  154.0360 C   0  0  0  0  0  0  0  0  0  0  0  0
  147.0654  137.4208  154.4133 O   0  0  0  0  0  0  0  0  0  0  0  0
  144.6945  137.2984  154.0714 C   0  0  0  0  0  0  0  0  0  0  0  0
  144.7096  135.8398  153.6161 C   0  0  0  0  0  0  0  0  0  0  0  0
  145.2996  135.4311  152.4547 C   0  0  0  0  0  0  0  0  0  0  0  0
  146.0041  136.3875  151.5082 C   0  0  0  0  0  0  0  0  0  0  0  0
  145.2921  134.0857  152.0610 N   0  0  0  0  0  0  0  0  0  0  0  0
  144.7123  133.2177  152.8230 C   0  0  0  0  0  0  0  0  0  0  0  0
  144.6378  131.7376  152.5131 C   0  0  0  0  0  0  0  0  0  0  0  0
  144.0892  133.5691  154.0191 N   0  0  0  0  0  0  0  0  0  0  0  0
  144.0393  134.8416  154.4722 C   0  0  0  0  0  0  0  0  0  0  0  0
  143.4531  135.1051  155.5211 O   0  0  0  0  0  0  0  0  0  0  0  0
  149.3151  140.9637  154.5647 C   0  0  0  0  0  0  0  0  0  0  0  0
  149.9793  141.2845  155.9137 C   0  0  0  0  0  0  0  0  0  0  0  0
  143.6486  132.8481  154.5715 H   0  0  0  0  0  0  0  0  0  0  0  0
  153.3528  144.4025  159.8990 H   0  0  0  0  0  0  0  0  0  0  0  0
  153.8056  143.5225  158.4389 H   0  0  0  0  0  0  0  0  0  0  0  0
  153.0754  142.6635  159.8072 H   0  0  0  0  0  0  0  0  0  0  0  0
  151.6199  143.0403  156.8021 H   0  0  0  0  0  0  0  0  0  0  0  0
  151.8101  141.8827  158.1028 H   0  0  0  0  0  0  0  0  0  0  0  0
  149.5658  141.9627  158.7649 H   0  0  0  0  0  0  0  0  0  0  0  0
  149.3985  143.6316  158.2817 H   0  0  0  0  0  0  0  0  0  0  0  0
  147.8432  140.8079  157.5577 H   0  0  0  0  0  0  0  0  0  0  0  0
  147.1955  142.4354  157.4888 H   0  0  0  0  0  0  0  0  0  0  0  0
  146.0892  140.9754  155.8242 H   0  0  0  0  0  0  0  0  0  0  0  0
  146.9119  142.3087  155.0536 H   0  0  0  0  0  0  0  0  0  0  0  0
  147.9824  139.4606  155.3070 H   0  0  0  0  0  0  0  0  0  0  0  0
  146.9654  141.0215  152.8964 H   0  0  0  0  0  0  0  0  0  0  0  0
  147.9323  139.5653  152.7482 H   0  0  0  0  0  0  0  0  0  0  0  0
  145.1637  139.6637  153.2978 H   0  0  0  0  0  0  0  0  0  0  0  0
  144.3046  137.3493  155.0884 H   0  0  0  0  0  0  0  0  0  0  0  0
  143.9856  137.8765  153.4773 H   0  0  0  0  0  0  0  0  0  0  0  0
  146.8727  136.8333  151.9931 H   0  0  0  0  0  0  0  0  0  0  0  0
  145.3323  137.1867  151.1947 H   0  0  0  0  0  0  0  0  0  0  0  0
  146.3508  135.8734  150.6111 H   0  0  0  0  0  0  0  0  0  0  0  0
  144.0913  131.5761  151.5838 H   0  0  0  0  0  0  0  0  0  0  0  0
  144.1341  131.1842  153.3069 H   0  0  0  0  0  0  0  0  0  0  0  0
  145.6415  131.3281  152.3964 H   0  0  0  0  0  0  0  0  0  0  0  0
  149.9302  140.2483  154.0178 H   0  0  0  0  0  0  0  0  0  0  0  0
  149.2756  141.8670  153.9540 H   0  0  0  0  0  0  0  0  0  0  0  0
  150.9675  141.7017  155.7251 H   0  0  0  0  0  0  0  0  0  0  0  0
  150.1287  140.3664  156.4844 H   0  0  0  0  0  0  0  0  0  0  0  0
  149.0412  143.0679  156.1454 H   0  0  0  0  0  0  0  0  0  0  0  0
  1  2  1  0  0  0  0
  1 26  1  0  0  0  0
  1 27  1  0  0  0  0
  1 28  1  0  0  0  0
  2  3  1  0  0  0  0
  3  4  1  0  0  0  0
  3 29  1  0  0  0  0
  3 30  1  0  0  0  0
  4  5  1  0  0  0  0
  4 31  1  0  0  0  0
  4 32  1  0  0  0  0
  5 24  1  0  0  0  0
  5  6  1  0  0  0  0
  5 53  1  0  0  0  0
  6  7  1  0  0  0  0
  6 33  1  0  0  0  0
  6 34  1  0  0  0  0
  7  8  1  0  0  0  0
  7 35  1  0  0  0  0
  7 36  1  0  0  0  0
  8  9  1  0  0  0  0
  8 23  1  0  0  0  0
  8 37  1  0  0  0  0
  9 10  1  0  0  0  0
  9 38  1  0  0  0  0
  9 39  1  0  0  0  0
 10 11  1  0  0  0  0
 10 40  1  0  0  0  0
 11 12  2  0  0  0  0
 11 13  1  0  0  0  0
 13 14  1  0  0  0  0
 13 41  1  0  0  0  0
 13 42  1  0  0  0  0
 14 21  1  0  0  0  0
 14 15  2  0  0  0  0
 15 16  1  0  0  0  0
 15 17  1  0  0  0  0
 16 43  1  0  0  0  0
 16 44  1  0  0  0  0
 16 45  1  0  0  0  0
 17 18  2  0  0  0  0
 18 19  1  0  0  0  0
 18 20  1  0  0  0  0
 19 46  1  0  0  0  0
 19 47  1  0  0  0  0
 19 48  1  0  0  0  0
 20 25  1  0  0  0  0
 20 21  1  0  0  0  0
 21 22  2  0  0  0  0
 23 24  1  0  0  0  0
 23 49  1  0  0  0  0
 23 50  1  0  0  0  0
 24 51  1  0  0  0  0
 24 52  1  0  0  0  0
M  CHG  1   5   1
M  END
> <s_m_source_file>
AV-unprocessed.smi

> <i_m_source_file_index>
1041

> <i_lp_mmshare_version>
43012

> <i_f3d_flags>
0

> <s_epik_input>
W0NIM11PW0NIMl1bQ0gyXU4xW0NIMl1bQ0gyXVtDSF0oW0NIMl1bQ0gyXTEpW0NIMl1bTkhdQyg9TylbQ0gyXWMyYyhbQ0gzXSluYyhbQ0gzXSlbbkhdYzI9Tw==

> <s_epik_cmdline>
J2VwaWtfcHl0aG9uJywgJy1waCcsICc3LjAnLCAnLXRuJywgJzgnLCAnLW1hJywgJzIwMCcsICctbWV0YWxfYmluZGluZycsICctaW1hZScsICc8aW5maWxlLm1hZT4nLCAnLW9tYWUnLCAnPG91dGZpbGUubWFlPic=

> <r_lp_tautomer_probability>
0.839158

> <r_epik_Ionization_Penalty>
0.00964357

> <r_epik_Ionization_Penalty_Charging>
0.00961423

> <r_epik_Ionization_Penalty_Neutral>
2.93415e-05

> <r_epik_State_Penalty>
0.0972512

> <r_epik_Charging_Adjusted_Penalty>
0.106865

> <i_epik_Tot_Q>
1

> <i_epik_Tot_abs_Q>
1

> <r_epik_Metal_State_Penalty>
0.270886

> <b_epik_Metal_Only>
0

> <s_lp_Force_Field>
OPLS_2005

> <r_lp_Energy>
21.4676

> <b_lp_Chiralities_Consistent>
1

> <s_lp_Variant>
AV-unprocessed.smi:1041-1

> <Gold.Version>
5.8.1

> <Gold.Id.Protein>
6NUR|6NUR_protein|mol2

> <Gold.PLP.Fitness>
45.0128

> <Gold.PLP.PLP>
-35.0526

> <Gold.PLP.part.hbond>
-3.0000

> <Gold.PLP.part.metal>
0.0000

> <Gold.PLP.part.buried>
-3.6123

> <Gold.PLP.part.nonpolar>
-30.2248

> <Gold.PLP.part.repulsive>
0.5780

> <Gold.PLP.ligand.clash>
0.0000

> <Gold.PLP.ligand.torsion>
1.0798

> <Gold.PLP.Chemscore.Hbond>
3.9913

> <Gold.PLP.Chemscore.CHOScore>
0.0000

> <Gold.PLP.Chemscore.Metal>
0.0000

> <Gold.Chemscore.Hbonds>
donor molecule, donor type, donor heavy atom, donor atom, acceptor molecule, acceptor atom, score
      L1  H     5    53       P1  8028  2.00
      L1  H    10    40       P1 10175  1.00
      L1  H    20    25       P1 10957  0.86

> <Gold.PLP.Chemscore.Internal.Correction>
0.1461

> <Gold.Rescore>
     Score         DG    S(hbond)    S(metal)    S(lipo)     H(rot)  DE(clash)    DE(int)     intcor
     16.81     -19.03       2.92        0.00      85.66       2.43       0.49       1.73       ----

> <Gold.Chemscore.Fitness>
16.8084

> <Gold.Chemscore.DG>
-19.0264

> <Gold.Chemscore.ZeroCoef>
-5.4800

> <Gold.Chemscore.Hbond>
2.9169

> <Gold.Chemscore.Metal>
0.0000

> <Gold.Chemscore.Lipo>
85.6617

> <Gold.Chemscore.Internal_Hbond>
0.0000

> <Gold.Chemscore.DEClash>
0.4908

> <Gold.Chemscore.DEInternal>
1.7271

> <Gold.Chemscore.Rot>
2.4291

> <Gold.Chemscore.Internal.Correction>
   9.000000E+99

> <Gold.Chemscore.Hbonds>
donor molecule, donor type, donor heavy atom, donor atom, acceptor molecule, acceptor atom, score
      L1  H     5    53       P1  8028  1.00
      L1  H    10    40       P1 10175  1.00
      L1  H    20    25       P1 10957  0.82

> <Gold.Chemscore.Hbond.Weighted>
-9.7425

> <Gold.Chemscore.Metal.Weighted>
-0.0000

> <Gold.Chemscore.Lipo.Weighted>
-10.0224

> <Gold.Chemscore.Internal_Hbond.Weighted>
0.0000

> <Gold.Chemscore.DEClash.Weighted>
0.4908

> <Gold.Chemscore.DEInternal.Weighted>
1.7271

> <Gold.Chemscore.Rot.Weighted>
6.2186

> <Gold.Chemscore.Internal.Correction.Weighted>
   9.000000E+99

> <Gold.Protein.RotatedTorsions>
[ 6907 6896 6895 6894 ] final  -96.47 input  -60.11 | X-H torsion
[ 7974 7965 7964 7962 ] final   34.33 input  175.53 | X-H torsion
[ 8008 7997 7996 7995 ] final   85.00 input   59.86 | X-H torsion
[ 10167 10162 10161 10158 ] final  -40.99 input  -65.29 | X-H torsion
[ 10718 10713 10712 10709 ] final   93.55 input   66.30 | X-H torsion
[ 10763 10752 10751 10750 ] final  157.22 input  -60.55 | X-H torsion
[ 11005 11000 10999 10996 ] final   55.14 input  -57.11 | X-H torsion

> <Gold.Protein.ActiveResidues>
 VAL166  LYS551  ARG553  GLY616  TRP617  ASP618  TYR619  PRO620  LYS621  CYS622 
 ASP623  PHE694  ASN695  SER759  ASP760  ASP761  ALA762  ILE779  LEU786  VAL792 
 PHE793  MET794  SER795  GLU796  ALA797  LYS798  CYS799  TRP800  GLU811  SER814 

> <Gold.Protein.RotatedAtoms>
  150.6990  134.1497  159.4135 H   0  0  0  0  0  0  0  0  0  0  0  0  # atno 6907 bound_to 6896
  151.9480  135.0180  160.0549 H   0  0  0  0  0  0  0  0  0  0  0  0  # atno 6908 bound_to 6896
  152.2035  133.4823  159.5108 H   0  0  0  0  0  0  0  0  0  0  0  0  # atno 6909 bound_to 6896
  146.1360  139.6282  142.9195 H   0  0  0  0  0  0  0  0  0  0  0  0  # atno 7974 bound_to 7965
  155.9444  140.3405  155.6354 H   0  0  0  0  0  0  0  0  0  0  0  0  # atno 8008 bound_to 7997
  155.6999  140.0759  157.2433 H   0  0  0  0  0  0  0  0  0  0  0  0  # atno 8009 bound_to 7997
  154.4109  140.1642  156.2167 H   0  0  0  0  0  0  0  0  0  0  0  0  # atno 8010 bound_to 7997
  140.7017  143.3120  151.3003 H   0  0  0  0  0  0  0  0  0  0  0  0  # atno 10167 bound_to 10162
  157.6954  131.0482  150.4052 H   0  0  0  0  0  0  0  0  0  0  0  0  # atno 10718 bound_to 10713
  154.1967  135.2792  155.3004 H   0  0  0  0  0  0  0  0  0  0  0  0  # atno 10763 bound_to 10752
  154.5886  135.5567  153.7259 H   0  0  0  0  0  0  0  0  0  0  0  0  # atno 10764 bound_to 10752
  153.0098  135.6362  154.2106 H   0  0  0  0  0  0  0  0  0  0  0  0  # atno 10765 bound_to 10752
  140.0630  134.5575  155.9130 H   0  0  0  0  0  0  0  0  0  0  0  0  # atno 11005 bound_to 11000
  145.5155  141.0434  143.2464 LP  0  0  0  0  0  0  0  0  0  0  0  0  # atno 17320 bound_to 7965
  144.7740  139.6671  143.7182 LP  0  0  0  0  0  0  0  0  0  0  0  0  # atno 17321 bound_to 7965
  139.6546  144.0299  152.2651 LP  0  0  0  0  0  0  0  0  0  0  0  0  # atno 17342 bound_to 10162
  139.9846  144.6404  150.7869 LP  0  0  0  0  0  0  0  0  0  0  0  0  # atno 17343 bound_to 10162
  156.4441  130.3998  149.6678 LP  0  0  0  0  0  0  0  0  0  0  0  0  # atno 17370 bound_to 10713
  156.3851  130.7599  151.2595 LP  0  0  0  0  0  0  0  0  0  0  0  0  # atno 17371 bound_to 10713
  141.1981  133.6600  156.5776 LP  0  0  0  0  0  0  0  0  0  0  0  0  # atno 17394 bound_to 11000
  140.3741  134.7580  157.4618 LP  0  0  0  0  0  0  0  0  0  0  0  0  # atno 17395 bound_to 11000

$$$$
