AV-unprocessed.smi:2586|AV-procd|sdf|10145|dock9
  -GOLD-   2272014153D 1   1.00000     0.00000
 Structure written by MMmdl.
 30 31  0  0  0  0  0  0  0  0  1 V2000
  144.0851  132.2780  149.7136 C   0  0  0  0  0  0  0  0  0  0  0  0
  144.5152  133.6145  149.9431 O   0  0  0  0  0  0  0  0  0  0  0  0
  145.4551  133.8172  151.0041 C   0  0  0  0  0  0  0  0  0  0  0  0
  146.7635  133.0526  150.7691 C   0  0  0  0  0  0  0  0  0  0  0  0
  147.8289  133.5795  151.6165 N   0  0  0  0  0  0  0  0  0  0  0  0
  148.6250  132.8526  152.4126 C   0  0  0  0  0  0  0  0  0  0  0  0
  148.5175  131.6344  152.5541 O   0  0  0  0  0  0  0  0  0  0  0  0
  149.5410  133.6299  153.0158 N   0  0  0  0  0  0  0  0  0  0  0  0
  150.5262  133.2667  153.8773 C   0  0  0  0  0  0  0  0  0  0  0  0
  151.2657  134.1082  154.6641 C   0  0  0  0  0  0  0  0  0  0  0  0
  152.2215  133.4587  155.4618 N   0  0  0  0  0  0  0  0  0  0  0  0
  152.2434  132.1660  155.3207 N   0  0  0  0  0  0  0  0  0  0  0  0
  151.1005  131.6616  154.2060 S   0  0  0  0  0  0  0  0  0  0  0  0
  145.5394  135.3364  151.2449 C   0  0  0  0  0  0  0  0  0  0  0  0
  144.4051  135.2119  152.2636 C   0  0  0  0  0  0  0  0  0  0  0  0
  144.7605  133.7284  152.3794 C   0  0  0  0  0  0  0  0  0  0  0  0
  143.2829  132.2847  148.9761 H   0  0  0  0  0  0  0  0  0  0  0  0
  143.6998  131.8043  150.6158 H   0  0  0  0  0  0  0  0  0  0  0  0
  144.8852  131.6584  149.3104 H   0  0  0  0  0  0  0  0  0  0  0  0
  146.6320  132.0015  151.0279 H   0  0  0  0  0  0  0  0  0  0  0  0
  147.0360  133.0557  149.7131 H   0  0  0  0  0  0  0  0  0  0  0  0
  147.9927  134.5742  151.5649 H   0  0  0  0  0  0  0  0  0  0  0  0
  149.5032  134.6140  152.7942 H   0  0  0  0  0  0  0  0  0  0  0  0
  151.1838  135.1834  154.7236 H   0  0  0  0  0  0  0  0  0  0  0  0
  146.4806  135.6396  151.7063 H   0  0  0  0  0  0  0  0  0  0  0  0
  145.3067  135.9545  150.3770 H   0  0  0  0  0  0  0  0  0  0  0  0
  144.5450  135.7891  153.1782 H   0  0  0  0  0  0  0  0  0  0  0  0
  143.4208  135.3788  151.8234 H   0  0  0  0  0  0  0  0  0  0  0  0
  143.8970  133.0669  152.4413 H   0  0  0  0  0  0  0  0  0  0  0  0
  145.4620  133.5341  153.1924 H   0  0  0  0  0  0  0  0  0  0  0  0
  1  2  1  0  0  0  0
  1 17  1  0  0  0  0
  1 18  1  0  0  0  0
  1 19  1  0  0  0  0
  2  3  1  0  0  0  0
  3 16  1  0  0  0  0
  3  4  1  0  0  0  0
  3 14  1  0  0  0  0
  4  5  1  0  0  0  0
  4 20  1  0  0  0  0
  4 21  1  0  0  0  0
  5  6  1  0  0  0  0
  5 22  1  0  0  0  0
  6  7  2  0  0  0  0
  6  8  1  0  0  0  0
  8  9  1  0  0  0  0
  8 23  1  0  0  0  0
  9 13  1  0  0  0  0
  9 10  2  0  0  0  0
 10 11  1  0  0  0  0
 10 24  1  0  0  0  0
 11 12  2  0  0  0  0
 12 13  1  0  0  0  0
 14 15  1  0  0  0  0
 14 25  1  0  0  0  0
 14 26  1  0  0  0  0
 15 16  1  0  0  0  0
 15 27  1  0  0  0  0
 15 28  1  0  0  0  0
 16 29  1  0  0  0  0
 16 30  1  0  0  0  0
M  END
> <s_m_source_file>
AV-unprocessed.smi

> <i_m_source_file_index>
2586

> <i_lp_mmshare_version>
43012

> <i_f3d_flags>
0

> <s_epik_input>
W0NIMl0xW0NIMl1bQ0gyXUMxKE9bQ0gzXSlbQ0gyXVtOSF1DKD1PKVtOSF1jMltjSF1ubnMy

> <s_epik_cmdline>
J2VwaWtfcHl0aG9uJywgJy1waCcsICc3LjAnLCAnLXRuJywgJzgnLCAnLW1hJywgJzIwMCcsICctbWV0YWxfYmluZGluZycsICctaW1hZScsICc8aW5maWxlLm1hZT4nLCAnLW9tYWUnLCAnPG91dGZpbGUubWFlPic=

> <r_lp_tautomer_probability>
1

> <r_epik_Ionization_Penalty>
2.25632e-05

> <r_epik_Ionization_Penalty_Charging>
0

> <r_epik_Ionization_Penalty_Neutral>
2.25632e-05

> <r_epik_State_Penalty>
-0

> <r_epik_Charging_Adjusted_Penalty>
0

> <i_epik_Tot_Q>
0

> <i_epik_Tot_abs_Q>
0

> <r_epik_Metal_State_Penalty>
-0

> <b_epik_Metal_Only>
0

> <s_lp_Force_Field>
OPLS_2005

> <r_lp_Energy>
14.9091

> <b_lp_Chiralities_Consistent>
1

> <s_lp_Variant>
AV-unprocessed.smi:2586-1

> <Gold.Version>
5.8.1

> <Gold.Id.Protein>
6NUR|6NUR_protein|mol2

> <Gold.PLP.Fitness>
35.8033

> <Gold.PLP.PLP>
-27.9823

> <Gold.PLP.part.hbond>
-3.7930

> <Gold.PLP.part.metal>
0.0000

> <Gold.PLP.part.buried>
-6.1946

> <Gold.PLP.part.nonpolar>
-19.1928

> <Gold.PLP.part.repulsive>
0.2426

> <Gold.PLP.ligand.clash>
0.0000

> <Gold.PLP.ligand.torsion>
0.3627

> <Gold.PLP.Chemscore.Hbond>
2.7613

> <Gold.PLP.Chemscore.CHOScore>
0.0000

> <Gold.PLP.Chemscore.Metal>
0.0000

> <Gold.Chemscore.Hbonds>
donor molecule, donor type, donor heavy atom, donor atom, acceptor molecule, acceptor atom, score
      L1  H     5    22       P1  7948  0.60

> <Gold.PLP.Chemscore.Internal.Correction>
0.2627

> <Gold.Rescore>
     Score         DG    S(hbond)    S(metal)    S(lipo)     H(rot)  DE(clash)    DE(int)     intcor
     12.63     -13.85       2.03        0.00      49.04       1.61       0.00       1.22       ----

> <Gold.Chemscore.Fitness>
12.6299

> <Gold.Chemscore.DG>
-13.8524

> <Gold.Chemscore.ZeroCoef>
-5.4800

> <Gold.Chemscore.Hbond>
2.0260

> <Gold.Chemscore.Metal>
0.0000

> <Gold.Chemscore.Lipo>
49.0386

> <Gold.Chemscore.Internal_Hbond>
0.0000

> <Gold.Chemscore.DEClash>
0.0000

> <Gold.Chemscore.DEInternal>
1.2225

> <Gold.Chemscore.Rot>
1.6141

> <Gold.Chemscore.Internal.Correction>
   9.000000E+99

> <Gold.Chemscore.Hbonds>
donor molecule, donor type, donor heavy atom, donor atom, acceptor molecule, acceptor atom, score
      L1  H     5    22       P1  7948  0.04

> <Gold.Chemscore.Hbond.Weighted>
-6.7669

> <Gold.Chemscore.Metal.Weighted>
-0.0000

> <Gold.Chemscore.Lipo.Weighted>
-5.7375

> <Gold.Chemscore.Internal_Hbond.Weighted>
0.0000

> <Gold.Chemscore.DEClash.Weighted>
0.0000

> <Gold.Chemscore.DEInternal.Weighted>
1.2225

> <Gold.Chemscore.Rot.Weighted>
4.1320

> <Gold.Chemscore.Internal.Correction.Weighted>
   9.000000E+99

> <Gold.Protein.RotatedTorsions>
[ 6907 6896 6895 6894 ] final  -31.18 input  -60.11 | X-H torsion
[ 7974 7965 7964 7962 ] final -155.71 input  175.53 | X-H torsion
[ 8008 7997 7996 7995 ] final  -31.22 input   59.86 | X-H torsion
[ 10167 10162 10161 10158 ] final   16.84 input  -65.29 | X-H torsion
[ 10718 10713 10712 10709 ] final   43.63 input   66.30 | X-H torsion
[ 10763 10752 10751 10750 ] final  168.95 input  -60.55 | X-H torsion
[ 11005 11000 10999 10996 ] final -103.22 input  -57.11 | X-H torsion

> <Gold.Protein.ActiveResidues>
 VAL166  LYS551  ARG553  GLY616  TRP617  ASP618  TYR619  PRO620  LYS621  CYS622 
 ASP623  PHE694  ASN695  SER759  ASP760  ASP761  ALA762  ILE779  LEU786  VAL792 
 PHE793  MET794  SER795  GLU796  ALA797  LYS798  CYS799  TRP800  GLU811  SER814 

> <Gold.Protein.RotatedAtoms>
  151.0955  134.9942  159.8423 H   0  0  0  0  0  0  0  0  0  0  0  0  # atno 6907 bound_to 6896
  152.5433  134.2013  159.8723 H   0  0  0  0  0  0  0  0  0  0  0  0  # atno 6908 bound_to 6896
  151.2052  133.4543  159.2630 H   0  0  0  0  0  0  0  0  0  0  0  0  # atno 6909 bound_to 6896
  144.7627  140.4211  143.5965 H   0  0  0  0  0  0  0  0  0  0  0  0  # atno 7974 bound_to 7965
  154.4221  140.1770  156.1532 H   0  0  0  0  0  0  0  0  0  0  0  0  # atno 8008 bound_to 7997
  155.9898  140.3370  155.6717 H   0  0  0  0  0  0  0  0  0  0  0  0  # atno 8009 bound_to 7997
  155.6388  140.0678  157.2616 H   0  0  0  0  0  0  0  0  0  0  0  0  # atno 8010 bound_to 7997
  140.5769  143.9056  150.6757 H   0  0  0  0  0  0  0  0  0  0  0  0  # atno 10167 bound_to 10162
  157.4180  130.7952  149.7489 H   0  0  0  0  0  0  0  0  0  0  0  0  # atno 10718 bound_to 10713
  154.3760  135.2753  155.2239 H   0  0  0  0  0  0  0  0  0  0  0  0  # atno 10763 bound_to 10752
  154.4366  135.5964  153.6106 H   0  0  0  0  0  0  0  0  0  0  0  0  # atno 10764 bound_to 10752
  152.9836  135.6008  154.3997 H   0  0  0  0  0  0  0  0  0  0  0  0  # atno 10765 bound_to 10752
  141.1155  133.8622  157.1459 H   0  0  0  0  0  0  0  0  0  0  0  0  # atno 11005 bound_to 11000
  145.6568  139.1574  143.2831 LP  0  0  0  0  0  0  0  0  0  0  0  0  # atno 17320 bound_to 7965
  146.1705  140.6652  142.9235 LP  0  0  0  0  0  0  0  0  0  0  0  0  # atno 17321 bound_to 7965
  140.2545  143.3569  152.1377 LP  0  0  0  0  0  0  0  0  0  0  0  0  # atno 17342 bound_to 10162
  139.5147  144.6953  151.5649 LP  0  0  0  0  0  0  0  0  0  0  0  0  # atno 17343 bound_to 10162
  155.9871  130.3969  150.3179 LP  0  0  0  0  0  0  0  0  0  0  0  0  # atno 17370 bound_to 10713
  157.1324  131.0275  151.2963 LP  0  0  0  0  0  0  0  0  0  0  0  0  # atno 17371 bound_to 10713
  140.0075  135.0002  157.0324 LP  0  0  0  0  0  0  0  0  0  0  0  0  # atno 17394 bound_to 11000
  140.4657  134.1438  155.7196 LP  0  0  0  0  0  0  0  0  0  0  0  0  # atno 17395 bound_to 11000

$$$$
