AV-unprocessed.smi:1721|AV-procd|sdf|6942|dock1
  -GOLD-   22720 8153D 1   1.00000     0.00000
 Structure written by MMmdl.
 44 46  0  0  0  0  0  0  0  0  2 V2000
  151.6200  138.4367  154.5782 C   0  0  0  0  0  0  0  0  0  0  0  0
  150.3266  138.3649  153.9879 O   0  0  0  0  0  0  0  0  0  0  0  0
  149.5061  139.4752  154.0574 C   0  0  0  0  0  0  0  0  0  0  0  0
  149.9904  140.5967  154.6471 N   0  0  0  0  0  0  0  0  0  0  0  0
  149.1938  141.6823  154.7152 C   0  0  0  0  0  0  0  0  0  0  0  0
  147.8845  141.7086  154.2030 C   0  0  0  0  0  0  0  0  0  0  0  0
  147.3791  140.5468  153.5909 C   0  0  0  0  0  0  0  0  0  0  0  0
  148.2022  139.3954  153.5125 C   0  0  0  0  0  0  0  0  0  0  0  0
  147.8115  138.1604  152.9193 N   0  0  0  0  0  0  0  0  0  0  0  0
  146.5908  137.7181  152.5712 C   0  0  0  0  0  0  0  0  0  0  0  0
  145.5352  138.3347  152.7083 O   0  0  0  0  0  0  0  0  0  0  0  0
  146.6586  136.4872  152.0447 N   0  0  0  0  0  0  0  0  0  0  0  0
  145.5182  135.7159  151.5576 C   0  0  1  0  0  0  0  0  0  0  0  0
  144.8315  136.3565  150.3574 C   0  0  0  0  0  0  0  0  0  0  0  0
  144.0523  135.1807  149.7658 C   0  0  0  0  0  0  0  0  0  0  0  0
  144.8754  133.9757  150.0199 N   0  3  2  0  0  0  0  0  0  0  0  0
  144.0954  132.7491  150.3159 C   0  0  0  0  0  0  0  0  0  0  0  0
  145.0314  131.5467  150.5406 C   0  0  0  0  0  0  0  0  0  0  0  0
  146.1763  131.8470  151.5306 C   0  0  0  0  0  0  0  0  0  0  0  0
  146.0782  133.2586  152.1289 C   0  0  0  0  0  0  0  0  0  0  0  0
  145.9183  134.3292  151.0251 C   0  0  2  0  0  0  0  0  0  0  0  0
  152.1359  137.4878  154.4317 H   0  0  0  0  0  0  0  0  0  0  0  0
  151.5587  138.6174  155.6522 H   0  0  0  0  0  0  0  0  0  0  0  0
  152.2273  139.2171  154.1171 H   0  0  0  0  0  0  0  0  0  0  0  0
  149.6131  142.5563  155.1913 H   0  0  0  0  0  0  0  0  0  0  0  0
  147.2807  142.6009  154.2772 H   0  0  0  0  0  0  0  0  0  0  0  0
  146.3759  140.5757  153.1984 H   0  0  0  0  0  0  0  0  0  0  0  0
  148.5737  137.5219  152.7424 H   0  0  0  0  0  0  0  0  0  0  0  0
  147.5678  136.0547  151.9687 H   0  0  0  0  0  0  0  0  0  0  0  0
  144.7714  135.6067  152.3473 H   0  0  0  0  0  0  0  0  0  0  0  0
  144.1894  137.1946  150.6307 H   0  0  0  0  0  0  0  0  0  0  0  0
  145.5704  136.7141  149.6384 H   0  0  0  0  0  0  0  0  0  0  0  0
  143.0933  135.0925  150.2795 H   0  0  0  0  0  0  0  0  0  0  0  0
  143.8490  135.3073  148.7023 H   0  0  0  0  0  0  0  0  0  0  0  0
  143.4758  132.9123  151.1993 H   0  0  0  0  0  0  0  0  0  0  0  0
  143.4142  132.5423  149.4898 H   0  0  0  0  0  0  0  0  0  0  0  0
  144.4481  130.6958  150.8938 H   0  0  0  0  0  0  0  0  0  0  0  0
  145.4593  131.2393  149.5855 H   0  0  0  0  0  0  0  0  0  0  0  0
  146.1867  131.1052  152.3300 H   0  0  0  0  0  0  0  0  0  0  0  0
  147.1313  131.7460  151.0132 H   0  0  0  0  0  0  0  0  0  0  0  0
  145.2326  133.2993  152.8170 H   0  0  0  0  0  0  0  0  0  0  0  0
  146.9641  133.4671  152.7293 H   0  0  0  0  0  0  0  0  0  0  0  0
  146.8546  134.4109  150.4704 H   0  0  0  0  0  0  0  0  0  0  0  0
  145.3802  133.7873  149.1655 H   0  0  0  0  0  0  0  0  0  0  0  0
  1  2  1  0  0  0  0
  1 22  1  0  0  0  0
  1 23  1  0  0  0  0
  1 24  1  0  0  0  0
  2  3  1  0  0  0  0
  3  8  1  0  0  0  0
  3  4  2  0  0  0  0
  4  5  1  0  0  0  0
  5  6  2  0  0  0  0
  5 25  1  0  0  0  0
  6  7  1  0  0  0  0
  6 26  1  0  0  0  0
  7  8  2  0  0  0  0
  7 27  1  0  0  0  0
  8  9  1  0  0  0  0
  9 10  1  0  0  0  0
  9 28  1  0  0  0  0
 10 11  2  0  0  0  0
 10 12  1  0  0  0  0
 12 13  1  0  0  0  0
 12 29  1  0  0  0  0
 13 21  1  0  0  0  0
 13 14  1  0  0  0  0
 13 30  1  0  0  0  0
 14 15  1  0  0  0  0
 14 31  1  0  0  0  0
 14 32  1  0  0  0  0
 15 16  1  0  0  0  0
 15 33  1  0  0  0  0
 15 34  1  0  0  0  0
 16 21  1  0  0  0  0
 16 17  1  0  0  0  0
 16 44  1  0  0  0  0
 17 18  1  0  0  0  0
 17 35  1  0  0  0  0
 17 36  1  0  0  0  0
 18 19  1  0  0  0  0
 18 37  1  0  0  0  0
 18 38  1  0  0  0  0
 19 20  1  0  0  0  0
 19 39  1  0  0  0  0
 19 40  1  0  0  0  0
 20 21  1  0  0  0  0
 20 41  1  0  0  0  0
 20 42  1  0  0  0  0
 21 43  1  0  0  0  0
M  CHG  1  16   1
M  END
> <s_m_source_file>
AV-unprocessed.smi

> <i_m_source_file_index>
1721

> <i_lp_mmshare_version>
43012

> <i_f3d_flags>
0

> <s_epik_input>
W0NIM11PYzFuW2NIXVtjSF1bY0hdYzFbTkhdQyg9TylbTkhdW0NASF0oW0NIMl1bQ0gyXTIpW0NAQEhdKE4yMylbQ0gyXVtDSDJdW0NIMl1bQ0gyXTM=

> <s_epik_cmdline>
J2VwaWtfcHl0aG9uJywgJy1waCcsICc3LjAnLCAnLXRuJywgJzgnLCAnLW1hJywgJzIwMCcsICctbWV0YWxfYmluZGluZycsICctaW1hZScsICc8aW5maWxlLm1hZT4nLCAnLW9tYWUnLCAnPG91dGZpbGUubWFlPic=

> <r_lp_tautomer_probability>
1

> <r_epik_Ionization_Penalty>
0.00104793

> <r_epik_Ionization_Penalty_Charging>
0.000974069

> <r_epik_Ionization_Penalty_Neutral>
7.38649e-05

> <r_epik_State_Penalty>
0.000633842

> <r_epik_Charging_Adjusted_Penalty>
0.00160791

> <i_epik_Tot_Q>
1

> <i_epik_Tot_abs_Q>
1

> <r_epik_Metal_State_Penalty>
-0

> <b_epik_Metal_Only>
0

> <s_lp_Force_Field>
OPLS_2005

> <r_lp_Energy>
42.7216

> <b_lp_Chiralities_Consistent>
1

> <s_lp_Variant>
AV-unprocessed.smi:1721-8

> <Gold.Version>
5.8.1

> <Gold.Id.Protein>
6NUR|6NUR_protein|mol2

> <Gold.PLP.Fitness>
43.7687

> <Gold.PLP.PLP>
-31.8523

> <Gold.PLP.part.hbond>
-3.7130

> <Gold.PLP.part.metal>
0.0000

> <Gold.PLP.part.buried>
6.9621

> <Gold.PLP.part.nonpolar>
-37.7207

> <Gold.PLP.part.repulsive>
2.6595

> <Gold.PLP.ligand.clash>
0.0000

> <Gold.PLP.ligand.torsion>
0.0619

> <Gold.PLP.Chemscore.Hbond>
3.0107

> <Gold.PLP.Chemscore.CHOScore>
1.0000

> <Gold.PLP.Chemscore.Metal>
0.0000

> <Gold.Chemscore.Hbonds>
donor molecule, donor type, donor heavy atom, donor atom, acceptor molecule, acceptor atom, score
      L1  H     9    28       P1  7948  0.83
      L1  H    12    29       P1  7948  0.59
      L1  H    16    44       P1  7921  0.77
      P1  H  7989  7998       L1     4  0.81
      L1  C     5    25       P1  8028  1.00

> <Gold.PLP.Chemscore.Internal.Correction>
0.0083

> <Gold.Rescore>
     Score         DG    S(hbond)    S(metal)    S(lipo)     H(rot)  DE(clash)    DE(int)     intcor
     16.28     -23.03       2.71        0.00      99.88       1.25       5.79       0.95       ----

> <Gold.Chemscore.Fitness>
16.2799

> <Gold.Chemscore.DG>
-23.0261

> <Gold.Chemscore.ZeroCoef>
-5.4800

> <Gold.Chemscore.Hbond>
2.7106

> <Gold.Chemscore.Metal>
0.0000

> <Gold.Chemscore.Lipo>
99.8808

> <Gold.Chemscore.Internal_Hbond>
0.0000

> <Gold.Chemscore.DEClash>
5.7918

> <Gold.Chemscore.DEInternal>
0.9544

> <Gold.Chemscore.Rot>
1.2474

> <Gold.Chemscore.Internal.Correction>
   9.000000E+99

> <Gold.Chemscore.Hbonds>
donor molecule, donor type, donor heavy atom, donor atom, acceptor molecule, acceptor atom, score
      L1  H     9    28       P1  7948  0.82
      L1  H    12    29       P1  7948  0.56
      L1  H    16    44       P1  7921  0.53
      P1  H  7989  7998       L1     4  0.15

> <Gold.Chemscore.Hbond.Weighted>
-9.0535

> <Gold.Chemscore.Metal.Weighted>
-0.0000

> <Gold.Chemscore.Lipo.Weighted>
-11.6861

> <Gold.Chemscore.Internal_Hbond.Weighted>
0.0000

> <Gold.Chemscore.DEClash.Weighted>
5.7918

> <Gold.Chemscore.DEInternal.Weighted>
0.9544

> <Gold.Chemscore.Rot.Weighted>
3.1934

> <Gold.Chemscore.Internal.Correction.Weighted>
   9.000000E+99

> <Gold.Protein.RotatedTorsions>
[ 6907 6896 6895 6894 ] final -149.60 input  -60.11 | X-H torsion
[ 7974 7965 7964 7962 ] final -137.43 input  175.53 | X-H torsion
[ 8008 7997 7996 7995 ] final  -59.40 input   59.86 | X-H torsion
[ 10167 10162 10161 10158 ] final   -2.92 input  -65.29 | X-H torsion
[ 10718 10713 10712 10709 ] final  -17.10 input   66.30 | X-H torsion
[ 10763 10752 10751 10750 ] final  111.01 input  -60.55 | X-H torsion
[ 11005 11000 10999 10996 ] final   42.89 input  -57.11 | X-H torsion

> <Gold.Protein.ActiveResidues>
 VAL166  LYS551  ARG553  GLY616  TRP617  ASP618  TYR619  PRO620  LYS621  CYS622 
 ASP623  PHE694  ASN695  SER759  ASP760  ASP761  ALA762  ILE779  LEU786  VAL792 
 PHE793  MET794  SER795  GLU796  ALA797  LYS798  CYS799  TRP800  GLU811  SER814 

> <Gold.Protein.RotatedAtoms>
  151.1865  133.4693  159.2594 H   0  0  0  0  0  0  0  0  0  0  0  0  # atno 6907 bound_to 6896
  151.1206  135.0077  159.8547 H   0  0  0  0  0  0  0  0  0  0  0  0  # atno 6908 bound_to 6896
  152.5456  134.1777  159.8675 H   0  0  0  0  0  0  0  0  0  0  0  0  # atno 6909 bound_to 6896
  144.8843  140.6552  143.5186 H   0  0  0  0  0  0  0  0  0  0  0  0  # atno 7974 bound_to 7965
  154.4350  140.1062  156.6109 H   0  0  0  0  0  0  0  0  0  0  0  0  # atno 8008 bound_to 7997
  155.5810  140.3491  155.4522 H   0  0  0  0  0  0  0  0  0  0  0  0  # atno 8009 bound_to 7997
  156.0318  140.1262  157.0239 H   0  0  0  0  0  0  0  0  0  0  0  0  # atno 8010 bound_to 7997
  140.6870  143.6601  150.8274 H   0  0  0  0  0  0  0  0  0  0  0  0  # atno 10167 bound_to 10162
  156.5783  130.4767  149.6332 H   0  0  0  0  0  0  0  0  0  0  0  0  # atno 10718 bound_to 10713
  153.4571  135.3730  155.2317 H   0  0  0  0  0  0  0  0  0  0  0  0  # atno 10763 bound_to 10752
  154.8757  135.3900  154.3968 H   0  0  0  0  0  0  0  0  0  0  0  0  # atno 10764 bound_to 10752
  153.4536  135.7086  153.6157 H   0  0  0  0  0  0  0  0  0  0  0  0  # atno 10765 bound_to 10752
  140.1696  134.4238  155.8265 H   0  0  0  0  0  0  0  0  0  0  0  0  # atno 11005 bound_to 11000
  145.3898  139.1619  143.4235 LP  0  0  0  0  0  0  0  0  0  0  0  0  # atno 17320 bound_to 7965
  146.3014  140.3986  142.8702 LP  0  0  0  0  0  0  0  0  0  0  0  0  # atno 17321 bound_to 7965
  140.0309  143.5444  152.2760 LP  0  0  0  0  0  0  0  0  0  0  0  0  # atno 17342 bound_to 10162
  139.6237  144.7633  151.2685 LP  0  0  0  0  0  0  0  0  0  0  0  0  # atno 17343 bound_to 10162
  156.2654  130.6986  151.1767 LP  0  0  0  0  0  0  0  0  0  0  0  0  # atno 17370 bound_to 10713
  157.7332  131.0593  150.5587 LP  0  0  0  0  0  0  0  0  0  0  0  0  # atno 17371 bound_to 10713
  141.2216  133.6950  156.7741 LP  0  0  0  0  0  0  0  0  0  0  0  0  # atno 17394 bound_to 11000
  140.2392  134.8626  157.3556 LP  0  0  0  0  0  0  0  0  0  0  0  0  # atno 17395 bound_to 11000

$$$$
