AV-unprocessed.smi:213|AV-procd|sdf|1638|dock8
  -GOLD-   2262020 03D 1   1.00000     0.00000
 Structure written by MMmdl.
 59 62  0  0  0  0  0  0  0  0  2 V2000
  145.7280  138.0341  155.0653 C   0  0  0  0  0  0  0  0  0  0  0  0
  146.5573  137.3433  153.9671 C   0  0  1  0  0  0  0  0  0  0  0  0
  145.7440  136.2818  153.1928 C   0  0  0  0  0  0  0  0  0  0  0  0
  146.5923  135.1963  152.6372 N   0  3  0  0  0  0  0  0  0  0  0  0
  147.1447  134.3124  153.6916 C   0  0  0  0  0  0  0  0  0  0  0  0
  148.0629  133.2445  153.0733 C   0  0  0  0  0  0  0  0  0  0  0  0
  147.3405  132.4990  152.1015 O   0  0  0  0  0  0  0  0  0  0  0  0
  146.8778  133.3205  151.0371 C   0  0  0  0  0  0  0  0  0  0  0  0
  145.9196  134.3901  151.5880 C   0  0  0  0  0  0  0  0  0  0  0  0
  147.1423  138.3353  153.0562 N   0  0  0  0  0  0  0  0  0  0  0  0
  146.6647  138.4589  151.6817 C   0  0  0  0  0  0  0  0  0  0  0  0
  147.7781  139.4016  153.6076 C   0  0  0  0  0  0  0  0  0  0  0  0
  147.2910  140.6405  153.3341 N   0  0  0  0  0  0  0  0  0  0  0  0
  147.8688  141.7263  153.8558 C   0  0  0  0  0  0  0  0  0  0  0  0
  148.9286  141.8010  154.6619 N   0  0  0  0  0  0  0  0  0  0  0  0
  149.4271  140.5626  154.9380 C   0  0  0  0  0  0  0  0  0  0  0  0
  148.9190  139.3202  154.4607 C   0  0  0  0  0  0  0  0  0  0  0  0
  149.7014  138.2787  154.9499 N   0  0  0  0  0  0  0  0  0  0  0  0
  150.6104  138.8694  155.6765 C   0  0  0  0  0  0  0  0  0  0  0  0
  150.5209  140.2414  155.7211 N   0  0  0  0  0  0  0  0  0  0  0  0
  151.3959  141.1515  156.4388 C   0  0  0  0  0  0  0  0  0  0  0  0
  150.8530  141.5055  157.8374 C   0  0  2  0  0  0  0  0  0  0  0  0
  149.6600  142.2538  157.6968 O   0  0  0  0  0  0  0  0  0  0  0  0
  151.8593  142.3243  158.6667 C   0  0  1  0  0  0  0  0  0  0  0  0
  152.1193  143.7362  158.1349 C   0  0  0  0  0  0  0  0  0  0  0  0
  152.5177  144.5271  159.3724 C   0  0  0  0  0  0  0  0  0  0  0  0
  152.1530  143.6056  160.5384 C   0  0  0  0  0  0  0  0  0  0  0  0
  151.3436  142.5914  159.9617 O   0  0  0  0  0  0  0  0  0  0  0  0
  145.3798  137.3174  155.8091 H   0  0  0  0  0  0  0  0  0  0  0  0
  144.8513  138.5346  154.6537 H   0  0  0  0  0  0  0  0  0  0  0  0
  146.3225  138.7823  155.5910 H   0  0  0  0  0  0  0  0  0  0  0  0
  147.3681  136.8276  154.4784 H   0  0  0  0  0  0  0  0  0  0  0  0
  145.0083  135.8410  153.8660 H   0  0  0  0  0  0  0  0  0  0  0  0
  145.1792  136.7469  152.3829 H   0  0  0  0  0  0  0  0  0  0  0  0
  147.7085  134.9030  154.4146 H   0  0  0  0  0  0  0  0  0  0  0  0
  146.3273  133.8344  154.2341 H   0  0  0  0  0  0  0  0  0  0  0  0
  148.9430  133.7026  152.6186 H   0  0  0  0  0  0  0  0  0  0  0  0
  148.4215  132.5640  153.8459 H   0  0  0  0  0  0  0  0  0  0  0  0
  147.7227  133.7815  150.5226 H   0  0  0  0  0  0  0  0  0  0  0  0
  146.3635  132.6954  150.3069 H   0  0  0  0  0  0  0  0  0  0  0  0
  145.0313  133.9132  152.0051 H   0  0  0  0  0  0  0  0  0  0  0  0
  145.5854  135.0254  150.7688 H   0  0  0  0  0  0  0  0  0  0  0  0
  147.3552  139.0506  151.0797 H   0  0  0  0  0  0  0  0  0  0  0  0
  145.6857  138.9376  151.6539 H   0  0  0  0  0  0  0  0  0  0  0  0
  146.5771  137.4838  151.2050 H   0  0  0  0  0  0  0  0  0  0  0  0
  147.4166  142.6706  153.5902 H   0  0  0  0  0  0  0  0  0  0  0  0
  151.3796  138.3172  156.1967 H   0  0  0  0  0  0  0  0  0  0  0  0
  152.3765  140.6808  156.5201 H   0  0  0  0  0  0  0  0  0  0  0  0
  151.5321  142.0533  155.8402 H   0  0  0  0  0  0  0  0  0  0  0  0
  150.6117  140.5863  158.3730 H   0  0  0  0  0  0  0  0  0  0  0  0
  149.7866  142.8942  157.0136 H   0  0  0  0  0  0  0  0  0  0  0  0
  152.8029  141.7840  158.7683 H   0  0  0  0  0  0  0  0  0  0  0  0
  152.8832  143.7552  157.3571 H   0  0  0  0  0  0  0  0  0  0  0  0
  151.2048  144.1571  157.7148 H   0  0  0  0  0  0  0  0  0  0  0  0
  153.5833  144.7588  159.3800 H   0  0  0  0  0  0  0  0  0  0  0  0
  151.9686  145.4680  159.4198 H   0  0  0  0  0  0  0  0  0  0  0  0
  153.0493  143.1505  160.9625 H   0  0  0  0  0  0  0  0  0  0  0  0
  151.6255  144.1268  161.3376 H   0  0  0  0  0  0  0  0  0  0  0  0
  147.3851  135.6466  152.2025 H   0  0  0  0  0  0  0  0  0  0  0  0
  1  2  1  0  0  0  0
  1 29  1  0  0  0  0
  1 30  1  0  0  0  0
  1 31  1  0  0  0  0
  2  3  1  0  0  0  0
  2 10  1  0  0  0  0
  2 32  1  0  0  0  0
  3  4  1  0  0  0  0
  3 33  1  0  0  0  0
  3 34  1  0  0  0  0
  4  9  1  0  0  0  0
  4  5  1  0  0  0  0
  4 59  1  0  0  0  0
  5  6  1  0  0  0  0
  5 35  1  0  0  0  0
  5 36  1  0  0  0  0
  6  7  1  0  0  0  0
  6 37  1  0  0  0  0
  6 38  1  0  0  0  0
  7  8  1  0  0  0  0
  8  9  1  0  0  0  0
  8 39  1  0  0  0  0
  8 40  1  0  0  0  0
  9 41  1  0  0  0  0
  9 42  1  0  0  0  0
 10 11  1  0  0  0  0
 10 12  1  0  0  0  0
 11 43  1  0  0  0  0
 11 44  1  0  0  0  0
 11 45  1  0  0  0  0
 12 17  1  0  0  0  0
 12 13  2  0  0  0  0
 13 14  1  0  0  0  0
 14 15  2  0  0  0  0
 14 46  1  0  0  0  0
 15 16  1  0  0  0  0
 16 20  1  0  0  0  0
 16 17  2  0  0  0  0
 17 18  1  0  0  0  0
 18 19  2  0  0  0  0
 19 20  1  0  0  0  0
 19 47  1  0  0  0  0
 20 21  1  0  0  0  0
 21 22  1  0  0  0  0
 21 48  1  0  0  0  0
 21 49  1  0  0  0  0
 22 23  1  0  0  0  0
 22 24  1  0  0  0  0
 22 50  1  0  0  0  0
 23 51  1  0  0  0  0
 24 28  1  0  0  0  0
 24 25  1  0  0  0  0
 24 52  1  0  0  0  0
 25 26  1  0  0  0  0
 25 53  1  0  0  0  0
 25 54  1  0  0  0  0
 26 27  1  0  0  0  0
 26 55  1  0  0  0  0
 26 56  1  0  0  0  0
 27 28  1  0  0  0  0
 27 57  1  0  0  0  0
 27 58  1  0  0  0  0
M  CHG  1   4   1
M  END
> <s_m_source_file>
AV-unprocessed.smi

> <i_m_source_file_index>
213

> <i_lp_mmshare_version>
43012

> <i_f3d_flags>
0

> <s_epik_input>
W0NIMl0xW0NIMl1PW0NIMl1bQ0gyXU4xW0NIMl1bQ0BASF0oW0NIM10pTihbQ0gzXSljKG5bY0hdbjIpYyhjMjMpbltjSF1uM1tDSDJdW0NASF0oW09IXSlbQ0BASF00W0NIMl1bQ0gyXVtDSDJdTzQ=

> <s_epik_cmdline>
J2VwaWtfcHl0aG9uJywgJy1waCcsICc3LjAnLCAnLXRuJywgJzgnLCAnLW1hJywgJzIwMCcsICctbWV0YWxfYmluZGluZycsICctaW1hZScsICc8aW5maWxlLm1hZT4nLCAnLW9tYWUnLCAnPG91dGZpbGUubWFlPic=

> <r_lp_tautomer_probability>
1

> <r_epik_Ionization_Penalty>
0.399679

> <r_epik_Ionization_Penalty_Charging>
0.399433

> <r_epik_Ionization_Penalty_Neutral>
0.000246213

> <r_epik_State_Penalty>
0.286032

> <r_epik_Charging_Adjusted_Penalty>
0.685465

> <i_epik_Tot_Q>
1

> <i_epik_Tot_abs_Q>
1

> <r_epik_Metal_State_Penalty>
0.286072

> <b_epik_Metal_Only>
0

> <s_lp_Force_Field>
OPLS_2005

> <r_lp_Energy>
45.5564

> <b_lp_Chiralities_Consistent>
1

> <s_lp_Variant>
AV-unprocessed.smi:213-6

> <Gold.Version>
5.8.1

> <Gold.Id.Protein>
6NUR|6NUR_protein|mol2

> <Gold.PLP.Fitness>
56.1566

> <Gold.PLP.PLP>
-50.0288

> <Gold.PLP.part.hbond>
-3.3040

> <Gold.PLP.part.metal>
0.0000

> <Gold.PLP.part.buried>
-4.6028

> <Gold.PLP.part.nonpolar>
-43.9494

> <Gold.PLP.part.repulsive>
1.6507

> <Gold.PLP.ligand.clash>
0.0000

> <Gold.PLP.ligand.torsion>
1.8844

> <Gold.PLP.Chemscore.Hbond>
3.0019

> <Gold.PLP.Chemscore.CHOScore>
0.0000

> <Gold.PLP.Chemscore.Metal>
0.0000

> <Gold.Chemscore.Hbonds>
donor molecule, donor type, donor heavy atom, donor atom, acceptor molecule, acceptor atom, score
      L1  H     4    59       P1  7948  2.00

> <Gold.PLP.Chemscore.Internal.Correction>
0.8909

> <Gold.Rescore>
     Score         DG    S(hbond)    S(metal)    S(lipo)     H(rot)  DE(clash)    DE(int)     intcor
     13.66     -17.15       1.98        0.00     104.91       2.83       1.54       1.94       ----

> <Gold.Chemscore.Fitness>
13.6642

> <Gold.Chemscore.DG>
-17.1481

> <Gold.Chemscore.ZeroCoef>
-5.4800

> <Gold.Chemscore.Hbond>
1.9839

> <Gold.Chemscore.Metal>
0.0000

> <Gold.Chemscore.Lipo>
104.9137

> <Gold.Chemscore.Internal_Hbond>
0.0000

> <Gold.Chemscore.DEClash>
1.5409

> <Gold.Chemscore.DEInternal>
1.9431

> <Gold.Chemscore.Rot>
2.8254

> <Gold.Chemscore.Internal.Correction>
   9.000000E+99

> <Gold.Chemscore.Hbonds>
donor molecule, donor type, donor heavy atom, donor atom, acceptor molecule, acceptor atom, score
      L1  H     4    59       P1  7948  1.00
      L1  H    23    51       P1  8028  0.05

> <Gold.Chemscore.Hbond.Weighted>
-6.6262

> <Gold.Chemscore.Metal.Weighted>
-0.0000

> <Gold.Chemscore.Lipo.Weighted>
-12.2749

> <Gold.Chemscore.Internal_Hbond.Weighted>
0.0000

> <Gold.Chemscore.DEClash.Weighted>
1.5409

> <Gold.Chemscore.DEInternal.Weighted>
1.9431

> <Gold.Chemscore.Rot.Weighted>
7.2330

> <Gold.Chemscore.Internal.Correction.Weighted>
   9.000000E+99

> <Gold.Protein.RotatedTorsions>
[ 6907 6896 6895 6894 ] final   37.42 input  -60.11 | X-H torsion
[ 7974 7965 7964 7962 ] final   75.18 input  175.53 | X-H torsion
[ 8008 7997 7996 7995 ] final  122.27 input   59.86 | X-H torsion
[ 10167 10162 10161 10158 ] final   60.15 input  -65.29 | X-H torsion
[ 10718 10713 10712 10709 ] final  -54.02 input   66.30 | X-H torsion
[ 10763 10752 10751 10750 ] final  -99.92 input  -60.55 | X-H torsion
[ 11005 11000 10999 10996 ] final  132.22 input  -57.11 | X-H torsion

> <Gold.Protein.ActiveResidues>
 VAL166  LYS551  ARG553  GLY616  TRP617  ASP618  TYR619  PRO620  LYS621  CYS622 
 ASP623  PHE694  ASN695  SER759  ASP760  ASP761  ALA762  ILE779  LEU786  VAL792 
 PHE793  MET794  SER795  GLU796  ALA797  LYS798  CYS799  TRP800  GLU811  SER814 

> <Gold.Protein.RotatedAtoms>
  152.1429  134.9048  160.0552 H   0  0  0  0  0  0  0  0  0  0  0  0  # atno 6907 bound_to 6896
  152.0109  133.3856  159.4227 H   0  0  0  0  0  0  0  0  0  0  0  0  # atno 6908 bound_to 6896
  150.6867  134.3653  159.5012 H   0  0  0  0  0  0  0  0  0  0  0  0  # atno 6909 bound_to 6896
  145.7189  139.2641  143.1608 H   0  0  0  0  0  0  0  0  0  0  0  0  # atno 7974 bound_to 7965
  156.2721  140.2789  156.1440 H   0  0  0  0  0  0  0  0  0  0  0  0  # atno 8008 bound_to 7997
  155.0923  140.0389  157.2690 H   0  0  0  0  0  0  0  0  0  0  0  0  # atno 8009 bound_to 7997
  154.6880  140.2623  155.6847 H   0  0  0  0  0  0  0  0  0  0  0  0  # atno 8010 bound_to 7997
  140.1687  144.4298  150.6672 H   0  0  0  0  0  0  0  0  0  0  0  0  # atno 10167 bound_to 10162
  156.1486  130.4152  149.9983 H   0  0  0  0  0  0  0  0  0  0  0  0  # atno 10718 bound_to 10713
  154.7537  135.4954  153.9336 H   0  0  0  0  0  0  0  0  0  0  0  0  # atno 10763 bound_to 10752
  153.1172  135.6723  153.9406 H   0  0  0  0  0  0  0  0  0  0  0  0  # atno 10764 bound_to 10752
  153.9148  135.3095  155.3427 H   0  0  0  0  0  0  0  0  0  0  0  0  # atno 10765 bound_to 10752
  139.9777  134.9558  156.9551 H   0  0  0  0  0  0  0  0  0  0  0  0  # atno 11005 bound_to 11000
  146.0644  140.7936  142.9719 LP  0  0  0  0  0  0  0  0  0  0  0  0  # atno 17320 bound_to 7965
  144.6922  140.3246  143.7226 LP  0  0  0  0  0  0  0  0  0  0  0  0  # atno 17321 bound_to 7965
  140.6596  143.2248  151.5887 LP  0  0  0  0  0  0  0  0  0  0  0  0  # atno 17342 bound_to 10162
  139.5348  144.2813  152.1227 LP  0  0  0  0  0  0  0  0  0  0  0  0  # atno 17343 bound_to 10162
  156.7847  130.9234  151.3646 LP  0  0  0  0  0  0  0  0  0  0  0  0  # atno 17370 bound_to 10713
  157.6638  130.8989  149.9886 LP  0  0  0  0  0  0  0  0  0  0  0  0  # atno 17371 bound_to 10713
  140.5161  134.0954  155.7281 LP  0  0  0  0  0  0  0  0  0  0  0  0  # atno 17394 bound_to 11000
  141.1452  133.9067  157.2231 LP  0  0  0  0  0  0  0  0  0  0  0  0  # atno 17395 bound_to 11000

$$$$
