AV-unprocessed.smi:227|AV-procd|sdf|1738|dock7
  -GOLD-   2262020243D 1   1.00000     0.00000
 Structure written by MMmdl.
 54 58  0  0  0  0  0  0  0  0  1 V2000
  147.3138  137.5102  163.3092 O   0  0  0  0  0  0  0  0  0  0  0  0
  147.5719  136.3214  162.5902 C   0  0  0  0  0  0  0  0  0  0  0  0
  146.4383  136.0145  161.5816 C   0  0  1  0  0  0  0  0  0  0  0  0
  147.0654  135.4881  160.2601 C   0  0  0  0  0  0  0  0  0  0  0  0
  147.3829  136.5144  159.2831 N   0  0  0  0  0  0  0  0  0  0  0  0
  146.4893  137.2196  158.5104 C   0  0  0  0  0  0  0  0  0  0  0  0
  147.0249  138.0879  157.6974 N   0  0  0  0  0  0  0  0  0  0  0  0
  148.3932  137.9641  157.9111 C   0  0  0  0  0  0  0  0  0  0  0  0
  149.5504  138.5972  157.3704 C   0  0  0  0  0  0  0  0  0  0  0  0
  149.5069  139.5807  156.4301 N   0  0  0  0  0  0  0  0  0  0  0  0
  150.4545  140.6823  156.4775 C   0  0  1  0  0  0  0  0  0  0  0  0
  151.7787  140.0583  155.9945 C   0  0  0  0  0  0  0  0  0  0  0  0
  151.2727  139.0509  154.9502 C   0  0  0  0  0  0  0  0  0  0  0  0
  149.7473  139.2805  155.0240 C   0  0  2  0  0  0  0  0  0  0  0  0
  149.4152  140.6182  154.3260 C   0  0  1  0  0  0  0  0  0  0  0  0
  147.9209  140.7855  153.9954 C   0  0  0  0  0  0  0  0  0  0  0  0
  147.5721  139.9912  152.8816 O   0  0  0  0  0  0  0  0  0  0  0  0
  149.9095  141.6211  155.3883 C   0  0  0  0  0  0  0  0  0  0  0  0
  150.7600  138.1605  157.8125 N   0  0  0  0  0  0  0  0  0  0  0  0
  150.8398  137.1993  158.7364 C   0  0  0  0  0  0  0  0  0  0  0  0
  149.8506  136.5404  159.3407 N   0  0  0  0  0  0  0  0  0  0  0  0
  148.6336  136.9581  158.8910 C   0  0  0  0  0  0  0  0  0  0  0  0
  145.3800  135.0425  162.1859 C   0  0  1  0  0  0  0  0  0  0  0  0
  144.0225  135.0537  161.4974 C   0  0  0  0  0  0  0  0  0  0  0  0
  143.4100  133.7419  161.9630 C   0  0  0  0  0  0  0  0  0  0  0  0
  144.4956  132.8301  161.9576 O   0  0  0  0  0  0  0  0  0  0  0  0
  145.7207  133.5437  162.0969 C   0  0  0  0  0  0  0  0  0  0  0  0
  147.3810  138.2424  162.7156 H   0  0  0  0  0  0  0  0  0  0  0  0
  148.5328  136.4067  162.0817 H   0  0  0  0  0  0  0  0  0  0  0  0
  147.6723  135.5324  163.3340 H   0  0  0  0  0  0  0  0  0  0  0  0
  145.9346  136.9599  161.3754 H   0  0  0  0  0  0  0  0  0  0  0  0
  147.9931  134.9528  160.4629 H   0  0  0  0  0  0  0  0  0  0  0  0
  146.3941  134.7648  159.7952 H   0  0  0  0  0  0  0  0  0  0  0  0
  145.4203  137.0791  158.5774 H   0  0  0  0  0  0  0  0  0  0  0  0
  150.5458  141.1879  157.4370 H   0  0  0  0  0  0  0  0  0  0  0  0
  152.4637  140.7964  155.5760 H   0  0  0  0  0  0  0  0  0  0  0  0
  152.2895  139.5439  156.8096 H   0  0  0  0  0  0  0  0  0  0  0  0
  151.6800  139.2296  153.9545 H   0  0  0  0  0  0  0  0  0  0  0  0
  151.5350  138.0329  155.2402 H   0  0  0  0  0  0  0  0  0  0  0  0
  149.1703  138.4434  154.6292 H   0  0  0  0  0  0  0  0  0  0  0  0
  149.9910  140.7290  153.4058 H   0  0  0  0  0  0  0  0  0  0  0  0
  147.2958  140.5103  154.8457 H   0  0  0  0  0  0  0  0  0  0  0  0
  147.7011  141.8264  153.7557 H   0  0  0  0  0  0  0  0  0  0  0  0
  148.3577  139.7972  152.3934 H   0  0  0  0  0  0  0  0  0  0  0  0
  149.0876  142.2211  155.7815 H   0  0  0  0  0  0  0  0  0  0  0  0
  150.6681  142.3041  155.0045 H   0  0  0  0  0  0  0  0  0  0  0  0
  151.8393  136.9202  159.0353 H   0  0  0  0  0  0  0  0  0  0  0  0
  145.2191  135.3000  163.2341 H   0  0  0  0  0  0  0  0  0  0  0  0
  143.4067  135.9112  161.7704 H   0  0  0  0  0  0  0  0  0  0  0  0
  144.1420  135.0456  160.4129 H   0  0  0  0  0  0  0  0  0  0  0  0
  143.0294  133.8362  162.9810 H   0  0  0  0  0  0  0  0  0  0  0  0
  142.5959  133.4031  161.3219 H   0  0  0  0  0  0  0  0  0  0  0  0
  146.3354  133.3260  161.2230 H   0  0  0  0  0  0  0  0  0  0  0  0
  146.2518  133.1911  162.9799 H   0  0  0  0  0  0  0  0  0  0  0  0
  1  2  1  0  0  0  0
  1 28  1  0  0  0  0
  2  3  1  0  0  0  0
  2 29  1  0  0  0  0
  2 30  1  0  0  0  0
  3  4  1  0  0  0  0
  3 23  1  0  0  0  0
  3 31  1  0  0  0  0
  4  5  1  0  0  0  0
  4 32  1  0  0  0  0
  4 33  1  0  0  0  0
  5 22  1  0  0  0  0
  5  6  1  0  0  0  0
  6  7  2  0  0  0  0
  6 34  1  0  0  0  0
  7  8  1  0  0  0  0
  8 22  2  0  0  0  0
  8  9  1  0  0  0  0
  9 10  1  0  0  0  0
  9 19  2  0  0  0  0
 10 14  1  0  0  0  0
 10 11  1  0  0  0  0
 11 18  1  0  0  0  0
 11 12  1  0  0  0  0
 11 35  1  0  0  0  0
 12 13  1  0  0  0  0
 12 36  1  0  0  0  0
 12 37  1  0  0  0  0
 13 14  1  0  0  0  0
 13 38  1  0  0  0  0
 13 39  1  0  0  0  0
 14 15  1  0  0  0  0
 14 40  1  0  0  0  0
 15 16  1  0  0  0  0
 15 18  1  0  0  0  0
 15 41  1  0  0  0  0
 16 17  1  0  0  0  0
 16 42  1  0  0  0  0
 16 43  1  0  0  0  0
 17 44  1  0  0  0  0
 18 45  1  0  0  0  0
 18 46  1  0  0  0  0
 19 20  1  0  0  0  0
 20 21  2  0  0  0  0
 20 47  1  0  0  0  0
 21 22  1  0  0  0  0
 23 27  1  0  0  0  0
 23 24  1  0  0  0  0
 23 48  1  0  0  0  0
 24 25  1  0  0  0  0
 24 49  1  0  0  0  0
 24 50  1  0  0  0  0
 25 26  1  0  0  0  0
 25 51  1  0  0  0  0
 25 52  1  0  0  0  0
 26 27  1  0  0  0  0
 27 53  1  0  0  0  0
 27 54  1  0  0  0  0
M  END
> <s_m_source_file>
AV-unprocessed.smi

> <i_m_source_file_index>
227

> <i_lp_mmshare_version>
43012

> <i_f3d_flags>
0

> <s_epik_input>
W0NIMl0xT1tDSDJdW0NIMl1bQ0BIXTFbQ0BIXShbQ0gyXVtPSF0pW0NIMl1uKFtjSF1uMiljKGMyMyluW2NIXW5jM04oW0NASF00NSlbQ0BASF0oW0NIMl1bQ0gyXTQpW0NASF0oW0NIMl01KVtDSDJdW09IXQ==

> <s_epik_cmdline>
J2VwaWtfcHl0aG9uJywgJy1waCcsICc3LjAnLCAnLXRuJywgJzgnLCAnLW1hJywgJzIwMCcsICctbWV0YWxfYmluZGluZycsICctaW1hZScsICc8aW5maWxlLm1hZT4nLCAnLW9tYWUnLCAnPG91dGZpbGUubWFlPic=

> <r_lp_tautomer_probability>
1

> <r_epik_Ionization_Penalty>
0.0055791

> <r_epik_Ionization_Penalty_Charging>
0

> <r_epik_Ionization_Penalty_Neutral>
0.0055791

> <r_epik_State_Penalty>
0.00401299

> <r_epik_Charging_Adjusted_Penalty>
0.00401299

> <i_epik_Tot_Q>
0

> <i_epik_Tot_abs_Q>
0

> <r_epik_Metal_State_Penalty>
-0

> <b_epik_Metal_Only>
0

> <s_lp_Force_Field>
OPLS_2005

> <r_lp_Energy>
89.2194

> <b_lp_Chiralities_Consistent>
1

> <s_lp_Variant>
AV-unprocessed.smi:227-12

> <Gold.Version>
5.8.1

> <Gold.Id.Protein>
6NUR|6NUR_protein|mol2

> <Gold.PLP.Fitness>
47.5594

> <Gold.PLP.PLP>
-45.6265

> <Gold.PLP.part.hbond>
-3.3090

> <Gold.PLP.part.metal>
0.0000

> <Gold.PLP.part.buried>
-2.9723

> <Gold.PLP.part.nonpolar>
-37.9655

> <Gold.PLP.part.repulsive>
0.0899

> <Gold.PLP.ligand.clash>
0.0000

> <Gold.PLP.ligand.torsion>
2.1135

> <Gold.PLP.Chemscore.Hbond>
2.0000

> <Gold.PLP.Chemscore.CHOScore>
0.0000

> <Gold.PLP.Chemscore.Metal>
0.0000

> <Gold.Chemscore.Hbonds>
donor molecule, donor type, donor heavy atom, donor atom, acceptor molecule, acceptor atom, score
      L1  H    17    44       P1  7957  1.00
      P1  H  6896  6907       L1    21  0.80

> <Gold.PLP.Chemscore.Internal.Correction>
0.1599

> <Gold.Rescore>
     Score         DG    S(hbond)    S(metal)    S(lipo)     H(rot)  DE(clash)    DE(int)     intcor
     10.63     -14.90       1.89        0.00     105.46       3.61       0.45       3.81       ----

> <Gold.Chemscore.Fitness>
10.6330

> <Gold.Chemscore.DG>
-14.8970

> <Gold.Chemscore.ZeroCoef>
-5.4800

> <Gold.Chemscore.Hbond>
1.8901

> <Gold.Chemscore.Metal>
0.0000

> <Gold.Chemscore.Lipo>
105.4551

> <Gold.Chemscore.Internal_Hbond>
0.0000

> <Gold.Chemscore.DEClash>
0.4543

> <Gold.Chemscore.DEInternal>
3.8098

> <Gold.Chemscore.Rot>
3.6071

> <Gold.Chemscore.Internal.Correction>
   9.000000E+99

> <Gold.Chemscore.Hbonds>
donor molecule, donor type, donor heavy atom, donor atom, acceptor molecule, acceptor atom, score
      L1  H    17    44       P1  7957  0.99
      P1  H  6896  6907       L1    21  0.12

> <Gold.Chemscore.Hbond.Weighted>
-6.3129

> <Gold.Chemscore.Metal.Weighted>
-0.0000

> <Gold.Chemscore.Lipo.Weighted>
-12.3382

> <Gold.Chemscore.Internal_Hbond.Weighted>
0.0000

> <Gold.Chemscore.DEClash.Weighted>
0.4543

> <Gold.Chemscore.DEInternal.Weighted>
3.8098

> <Gold.Chemscore.Rot.Weighted>
9.2342

> <Gold.Chemscore.Internal.Correction.Weighted>
   9.000000E+99

> <Gold.Protein.RotatedTorsions>
[ 6907 6896 6895 6894 ] final  -45.72 input  -60.11 | X-H torsion
[ 7974 7965 7964 7962 ] final -145.33 input  175.53 | X-H torsion
[ 8008 7997 7996 7995 ] final    8.30 input   59.86 | X-H torsion
[ 10167 10162 10161 10158 ] final  -93.47 input  -65.29 | X-H torsion
[ 10718 10713 10712 10709 ] final  -54.81 input   66.30 | X-H torsion
[ 10763 10752 10751 10750 ] final  -92.00 input  -60.55 | X-H torsion
[ 11005 11000 10999 10996 ] final  -97.44 input  -57.11 | X-H torsion

> <Gold.Protein.ActiveResidues>
 VAL166  LYS551  ARG553  GLY616  TRP617  ASP618  TYR619  PRO620  LYS621  CYS622 
 ASP623  PHE694  ASN695  SER759  ASP760  ASP761  ALA762  ILE779  LEU786  VAL792 
 PHE793  MET794  SER795  GLU796  ALA797  LYS798  CYS799  TRP800  GLU811  SER814 

> <Gold.Protein.RotatedAtoms>
  150.9189  134.8607  159.7475 H   0  0  0  0  0  0  0  0  0  0  0  0  # atno 6907 bound_to 6896
  152.4982  134.4248  159.9502 H   0  0  0  0  0  0  0  0  0  0  0  0  # atno 6908 bound_to 6896
  151.4283  133.3638  159.2800 H   0  0  0  0  0  0  0  0  0  0  0  0  # atno 6909 bound_to 6896
  144.8235  140.5597  143.5562 H   0  0  0  0  0  0  0  0  0  0  0  0  # atno 7974 bound_to 7965
  154.7650  140.2791  155.6183 H   0  0  0  0  0  0  0  0  0  0  0  0  # atno 8008 bound_to 7997
  156.2923  140.2652  156.2366 H   0  0  0  0  0  0  0  0  0  0  0  0  # atno 8009 bound_to 7997
  154.9970  140.0373  157.2333 H   0  0  0  0  0  0  0  0  0  0  0  0  # atno 8010 bound_to 7997
  140.3244  143.3031  152.0011 H   0  0  0  0  0  0  0  0  0  0  0  0  # atno 10167 bound_to 10162
  156.1420  130.4154  150.0088 H   0  0  0  0  0  0  0  0  0  0  0  0  # atno 10718 bound_to 10713
  154.6817  135.5247  153.8272 H   0  0  0  0  0  0  0  0  0  0  0  0  # atno 10763 bound_to 10752
  153.0569  135.6554  154.0564 H   0  0  0  0  0  0  0  0  0  0  0  0  # atno 10764 bound_to 10752
  154.0451  135.2974  155.3329 H   0  0  0  0  0  0  0  0  0  0  0  0  # atno 10765 bound_to 10752
  141.1379  133.8171  157.0706 H   0  0  0  0  0  0  0  0  0  0  0  0  # atno 11005 bound_to 11000
  145.5052  139.1481  143.3635 LP  0  0  0  0  0  0  0  0  0  0  0  0  # atno 17320 bound_to 7965
  146.2540  140.5192  142.8881 LP  0  0  0  0  0  0  0  0  0  0  0  0  # atno 17321 bound_to 7965
  139.4868  144.6286  151.7116 LP  0  0  0  0  0  0  0  0  0  0  0  0  # atno 17342 bound_to 10162
  140.5455  144.0511  150.6105 LP  0  0  0  0  0  0  0  0  0  0  0  0  # atno 17343 bound_to 10162
  156.7971  130.9277  151.3646 LP  0  0  0  0  0  0  0  0  0  0  0  0  # atno 17370 bound_to 10713
  157.6583  130.8944  149.9776 LP  0  0  0  0  0  0  0  0  0  0  0  0  # atno 17371 bound_to 10713
  140.0514  134.9803  157.1143 LP  0  0  0  0  0  0  0  0  0  0  0  0  # atno 17394 bound_to 11000
  140.3984  134.2108  155.7164 LP  0  0  0  0  0  0  0  0  0  0  0  0  # atno 17395 bound_to 11000

$$$$
