AV-unprocessed.smi:2954|AV-procd|sdf|11300|dock7
  -GOLD-   2272016193D 1   1.00000     0.00000
 Structure written by MMmdl.
 43 45  0  0  0  0  0  0  0  0  2 V2000
  153.1557  138.5279  154.4804 C   0  0  0  0  0  0  0  0  0  0  0  0
  151.8286  137.7916  154.7135 C   0  0  1  0  0  0  0  0  0  0  0  0
  151.8089  137.2594  156.0723 N   0  0  0  0  0  0  0  0  0  0  0  0
  151.0002  136.2790  156.4910 C   0  0  0  0  0  0  0  0  0  0  0  0
  150.1815  135.7278  155.7602 O   0  0  0  0  0  0  0  0  0  0  0  0
  150.6668  138.7038  154.4407 C   0  0  0  0  0  0  0  0  0  0  0  0
  149.5990  138.4310  153.6357 N   0  3  0  0  0  0  0  0  0  0  0  0
  148.7003  139.4973  153.6591 C   0  0  0  0  0  0  0  0  0  0  0  0
  147.4837  139.6781  153.0084 C   0  0  0  0  0  0  0  0  0  0  0  0
  146.8070  140.8901  153.2584 C   0  0  0  0  0  0  0  0  0  0  0  0
  147.3414  141.8639  154.1272 C   0  0  0  0  0  0  0  0  0  0  0  0
  148.5757  141.6683  154.7811 C   0  0  0  0  0  0  0  0  0  0  0  0
  149.2404  140.4694  154.5248 C   0  0  0  0  0  0  0  0  0  0  0  0
  150.4554  139.9426  154.9768 N   0  0  0  0  0  0  0  0  0  0  0  0
  151.2762  140.7343  155.9069 C   0  0  0  0  0  0  0  0  0  0  0  0
  151.3494  140.1210  157.3144 C   0  0  0  0  0  0  0  0  0  0  0  0
  151.7684  141.1070  158.2489 O   0  0  0  0  0  0  0  0  0  0  0  0
  152.6568  140.7322  159.2350 C   0  0  0  0  0  0  0  0  0  0  0  0
  153.1231  139.4042  159.4124 C   0  0  0  0  0  0  0  0  0  0  0  0
  154.0390  139.0985  160.4374 C   0  0  0  0  0  0  0  0  0  0  0  0
  154.5000  140.1112  161.2979 C   0  0  0  0  0  0  0  0  0  0  0  0
  154.0419  141.4308  161.1329 C   0  0  0  0  0  0  0  0  0  0  0  0
  153.1258  141.7392  160.1080 C   0  0  0  0  0  0  0  0  0  0  0  0
  152.5653  143.3635  159.9401 Cl  0  0  0  0  0  0  0  0  0  0  0  0
  153.2328  138.8931  153.4561 H   0  0  0  0  0  0  0  0  0  0  0  0
  154.0069  137.8693  154.6569 H   0  0  0  0  0  0  0  0  0  0  0  0
  153.2557  139.3865  155.1455 H   0  0  0  0  0  0  0  0  0  0  0  0
  151.7748  136.9588  154.0094 H   0  0  0  0  0  0  0  0  0  0  0  0
  152.4478  137.6674  156.7392 H   0  0  0  0  0  0  0  0  0  0  0  0
  151.1584  136.0394  157.5535 H   0  0  0  0  0  0  0  0  0  0  0  0
  147.0709  138.9324  152.3448 H   0  0  0  0  0  0  0  0  0  0  0  0
  145.8585  141.0754  152.7754 H   0  0  0  0  0  0  0  0  0  0  0  0
  146.7932  142.7795  154.2966 H   0  0  0  0  0  0  0  0  0  0  0  0
  148.9744  142.4193  155.4465 H   0  0  0  0  0  0  0  0  0  0  0  0
  152.2719  140.8582  155.4793 H   0  0  0  0  0  0  0  0  0  0  0  0
  150.8411  141.7312  155.9691 H   0  0  0  0  0  0  0  0  0  0  0  0
  150.3697  139.7379  157.6023 H   0  0  0  0  0  0  0  0  0  0  0  0
  152.0447  139.2807  157.3029 H   0  0  0  0  0  0  0  0  0  0  0  0
  152.7972  138.6003  158.7704 H   0  0  0  0  0  0  0  0  0  0  0  0
  154.3899  138.0845  160.5621 H   0  0  0  0  0  0  0  0  0  0  0  0
  155.2025  139.8760  162.0838 H   0  0  0  0  0  0  0  0  0  0  0  0
  154.3934  142.2078  161.7959 H   0  0  0  0  0  0  0  0  0  0  0  0
  149.4970  137.5728  153.1093 H   0  0  0  0  0  0  0  0  0  0  0  0
  1  2  1  0  0  0  0
  1 25  1  0  0  0  0
  1 26  1  0  0  0  0
  1 27  1  0  0  0  0
  2  3  1  0  0  0  0
  2  6  1  0  0  0  0
  2 28  1  0  0  0  0
  3  4  1  0  0  0  0
  3 29  1  0  0  0  0
  4  5  2  0  0  0  0
  4 30  1  0  0  0  0
  6 14  1  0  0  0  0
  6  7  2  0  0  0  0
  7  8  1  0  0  0  0
  7 43  1  0  0  0  0
  8 13  2  0  0  0  0
  8  9  1  0  0  0  0
  9 10  2  0  0  0  0
  9 31  1  0  0  0  0
 10 11  1  0  0  0  0
 10 32  1  0  0  0  0
 11 12  2  0  0  0  0
 11 33  1  0  0  0  0
 12 13  1  0  0  0  0
 12 34  1  0  0  0  0
 13 14  1  0  0  0  0
 14 15  1  0  0  0  0
 15 16  1  0  0  0  0
 15 35  1  0  0  0  0
 15 36  1  0  0  0  0
 16 17  1  0  0  0  0
 16 37  1  0  0  0  0
 16 38  1  0  0  0  0
 17 18  1  0  0  0  0
 18 23  1  0  0  0  0
 18 19  2  0  0  0  0
 19 20  1  0  0  0  0
 19 39  1  0  0  0  0
 20 21  2  0  0  0  0
 20 40  1  0  0  0  0
 21 22  1  0  0  0  0
 21 41  1  0  0  0  0
 22 23  2  0  0  0  0
 22 42  1  0  0  0  0
 23 24  1  0  0  0  0
M  CHG  1   7   1
M  END
> <s_m_source_file>
AV-unprocessed.smi

> <i_m_source_file_index>
2954

> <i_lp_mmshare_version>
43012

> <i_f3d_flags>
0

> <s_epik_input>
Tz1bQ0hdW05IXVtDQEBIXShbQ0gzXSljKG4xKW4oYyhjMTIpW2NIXVtjSF1bY0hdW2NIXTIpW0NIMl1bQ0gyXU9jM1tjSF1bY0hdW2NIXVtjSF1jM0Ns

> <s_epik_cmdline>
J2VwaWtfcHl0aG9uJywgJy1waCcsICc3LjAnLCAnLXRuJywgJzgnLCAnLW1hJywgJzIwMCcsICctbWV0YWxfYmluZGluZycsICctaW1hZScsICc8aW5maWxlLm1hZT4nLCAnLW9tYWUnLCAnPG91dGZpbGUubWFlPic=

> <r_lp_tautomer_probability>
1

> <r_epik_Ionization_Penalty>
1.18508

> <r_epik_Ionization_Penalty_Charging>
1.18508

> <r_epik_Ionization_Penalty_Neutral>
5.5802e-08

> <r_epik_State_Penalty>
1.24934

> <r_epik_Charging_Adjusted_Penalty>
2.43443

> <i_epik_Tot_Q>
1

> <i_epik_Tot_abs_Q>
1

> <r_epik_Metal_State_Penalty>
1.32564

> <b_epik_Metal_Only>
0

> <s_lp_Force_Field>
OPLS_2005

> <r_lp_Energy>
18.4095

> <b_lp_Chiralities_Consistent>
1

> <s_lp_Variant>
AV-unprocessed.smi:2954-4

> <Gold.Version>
5.8.1

> <Gold.Id.Protein>
6NUR|6NUR_protein|mol2

> <Gold.PLP.Fitness>
54.9472

> <Gold.PLP.PLP>
-50.5847

> <Gold.PLP.part.hbond>
-2.0000

> <Gold.PLP.part.metal>
0.0000

> <Gold.PLP.part.buried>
1.5747

> <Gold.PLP.part.nonpolar>
-50.2944

> <Gold.PLP.part.repulsive>
0.2250

> <Gold.PLP.ligand.clash>
0.0000

> <Gold.PLP.ligand.torsion>
0.8402

> <Gold.PLP.Chemscore.Hbond>
2.0000

> <Gold.PLP.Chemscore.CHOScore>
0.0000

> <Gold.PLP.Chemscore.Metal>
0.0000

> <Gold.Chemscore.Hbonds>
donor molecule, donor type, donor heavy atom, donor atom, acceptor molecule, acceptor atom, score
      L1  H     7    43       P1  7948  2.00

> <Gold.PLP.Chemscore.Internal.Correction>
0.0429

> <Gold.Rescore>
     Score         DG    S(hbond)    S(metal)    S(lipo)     H(rot)  DE(clash)    DE(int)     intcor
     16.98     -18.16       0.98        0.00     131.87       2.35       0.12       1.07       ----

> <Gold.Chemscore.Fitness>
16.9812

> <Gold.Chemscore.DG>
-18.1638

> <Gold.Chemscore.ZeroCoef>
-5.4800

> <Gold.Chemscore.Hbond>
0.9768

> <Gold.Chemscore.Metal>
0.0000

> <Gold.Chemscore.Lipo>
131.8723

> <Gold.Chemscore.Internal_Hbond>
0.0000

> <Gold.Chemscore.DEClash>
0.1171

> <Gold.Chemscore.DEInternal>
1.0655

> <Gold.Chemscore.Rot>
2.3467

> <Gold.Chemscore.Internal.Correction>
   9.000000E+99

> <Gold.Chemscore.Hbonds>
donor molecule, donor type, donor heavy atom, donor atom, acceptor molecule, acceptor atom, score
      L1  H     7    43       P1  7948  0.88

> <Gold.Chemscore.Hbond.Weighted>
-3.2624

> <Gold.Chemscore.Metal.Weighted>
-0.0000

> <Gold.Chemscore.Lipo.Weighted>
-15.4291

> <Gold.Chemscore.Internal_Hbond.Weighted>
0.0000

> <Gold.Chemscore.DEClash.Weighted>
0.1171

> <Gold.Chemscore.DEInternal.Weighted>
1.0655

> <Gold.Chemscore.Rot.Weighted>
6.0077

> <Gold.Chemscore.Internal.Correction.Weighted>
   9.000000E+99

> <Gold.Protein.RotatedTorsions>
[ 6907 6896 6895 6894 ] final   91.83 input  -60.11 | X-H torsion
[ 7974 7965 7964 7962 ] final  -21.77 input  175.53 | X-H torsion
[ 8008 7997 7996 7995 ] final  153.83 input   59.86 | X-H torsion
[ 10167 10162 10161 10158 ] final   14.45 input  -65.29 | X-H torsion
[ 10718 10713 10712 10709 ] final -160.59 input   66.30 | X-H torsion
[ 10763 10752 10751 10750 ] final -130.65 input  -60.55 | X-H torsion
[ 11005 11000 10999 10996 ] final  165.30 input  -57.11 | X-H torsion

> <Gold.Protein.ActiveResidues>
 VAL166  LYS551  ARG553  GLY616  TRP617  ASP618  TYR619  PRO620  LYS621  CYS622 
 ASP623  PHE694  ASN695  SER759  ASP760  ASP761  ALA762  ILE779  LEU786  VAL792 
 PHE793  MET794  SER795  GLU796  ALA797  LYS798  CYS799  TRP800  GLU811  SER814 

> <Gold.Protein.RotatedAtoms>
  152.5451  134.1596  159.8551 H   0  0  0  0  0  0  0  0  0  0  0  0  # atno 6907 bound_to 6896
  151.1615  133.4835  159.2601 H   0  0  0  0  0  0  0  0  0  0  0  0  # atno 6908 bound_to 6896
  151.1368  135.0170  159.8662 H   0  0  0  0  0  0  0  0  0  0  0  0  # atno 6909 bound_to 6896
  146.1714  140.4387  142.8531 H   0  0  0  0  0  0  0  0  0  0  0  0  # atno 7974 bound_to 7965
  156.2562  140.1983  156.6551 H   0  0  0  0  0  0  0  0  0  0  0  0  # atno 8008 bound_to 7997
  154.6507  140.0572  156.9977 H   0  0  0  0  0  0  0  0  0  0  0  0  # atno 8009 bound_to 7997
  155.1423  140.3244  155.4452 H   0  0  0  0  0  0  0  0  0  0  0  0  # atno 8010 bound_to 7997
  140.5934  143.8749  150.6895 H   0  0  0  0  0  0  0  0  0  0  0  0  # atno 10167 bound_to 10162
  156.5843  130.8743  151.2873 H   0  0  0  0  0  0  0  0  0  0  0  0  # atno 10718 bound_to 10713
  154.8754  135.3856  154.4117 H   0  0  0  0  0  0  0  0  0  0  0  0  # atno 10763 bound_to 10752
  153.4830  135.7030  153.5932 H   0  0  0  0  0  0  0  0  0  0  0  0  # atno 10764 bound_to 10752
  153.4339  135.3872  155.2155 H   0  0  0  0  0  0  0  0  0  0  0  0  # atno 10765 bound_to 10752
  140.2548  134.7949  157.3535 H   0  0  0  0  0  0  0  0  0  0  0  0  # atno 11005 bound_to 11000
  144.8169  140.6483  143.6378 LP  0  0  0  0  0  0  0  0  0  0  0  0  # atno 17320 bound_to 7965
  145.4330  139.1546  143.4012 LP  0  0  0  0  0  0  0  0  0  0  0  0  # atno 17321 bound_to 7965
  140.2278  143.3759  152.1591 LP  0  0  0  0  0  0  0  0  0  0  0  0  # atno 17342 bound_to 10162
  139.5242  144.7081  151.5291 LP  0  0  0  0  0  0  0  0  0  0  0  0  # atno 17343 bound_to 10162
  157.7319  130.9707  150.1902 LP  0  0  0  0  0  0  0  0  0  0  0  0  # atno 17370 bound_to 10713
  156.2605  130.3710  149.8136 LP  0  0  0  0  0  0  0  0  0  0  0  0  # atno 17371 bound_to 10713
  140.1523  134.4834  155.7953 LP  0  0  0  0  0  0  0  0  0  0  0  0  # atno 17394 bound_to 11000
  141.2197  133.6867  156.7399 LP  0  0  0  0  0  0  0  0  0  0  0  0  # atno 17395 bound_to 11000

$$$$
