AV-unprocessed.smi:49|AV-procd|sdf|468|dock2
  -GOLD-   2262016333D 1   1.00000     0.00000
 Structure written by MMmdl.
 28 29  0  0  0  0  0  0  0  0  2 V2000
  152.5640  143.2048  160.2675 C   0  0  0  0  0  0  0  0  0  0  0  0
  152.6543  141.6903  160.0490 C   0  0  0  0  0  0  0  0  0  0  0  0
  152.0592  141.2716  158.7455 C   0  0  0  0  0  0  0  0  0  0  0  0
  151.4596  142.1528  157.8893 N   0  0  0  0  0  0  0  0  0  0  0  0
  151.0616  141.3197  156.9299 C   0  0  0  0  0  0  0  0  0  0  0  0
  150.3098  141.6980  155.6886 C   0  0  1  0  0  0  0  0  0  0  0  0
  150.0335  140.5417  154.7250 C   0  0  0  0  0  0  0  0  0  0  0  0
  148.7069  140.9571  154.0966 C   0  0  1  0  0  0  0  0  0  0  0  0
  148.0053  139.8561  153.5595 O   0  0  0  0  0  0  0  0  0  0  0  0
  147.9551  141.6109  155.2620 C   0  0  0  0  0  0  0  0  0  0  0  0
  148.9892  142.1707  156.1555 N   0  3  0  0  0  0  0  0  0  0  0  0
  151.3817  140.0513  157.1972 N   0  0  0  0  0  0  0  0  0  0  0  0
  152.0287  139.9913  158.3798 N   0  0  0  0  0  0  0  0  0  0  0  0
  150.8118  142.5173  155.1715 H   0  0  0  0  0  0  0  0  0  0  0  0
  148.8861  141.6939  153.3120 H   0  0  0  0  0  0  0  0  0  0  0  0
  151.1821  139.2340  156.6380 H   0  0  0  0  0  0  0  0  0  0  0  0
  153.0057  143.4859  161.2236 H   0  0  0  0  0  0  0  0  0  0  0  0
  151.5267  143.5410  160.2680 H   0  0  0  0  0  0  0  0  0  0  0  0
  153.0925  143.7478  159.4834 H   0  0  0  0  0  0  0  0  0  0  0  0
  153.6975  141.3738  160.0827 H   0  0  0  0  0  0  0  0  0  0  0  0
  152.1463  141.1680  160.8608 H   0  0  0  0  0  0  0  0  0  0  0  0
  150.8340  140.3840  154.0014 H   0  0  0  0  0  0  0  0  0  0  0  0
  149.8967  139.6131  155.2827 H   0  0  0  0  0  0  0  0  0  0  0  0
  148.3196  139.6934  152.6828 H   0  0  0  0  0  0  0  0  0  0  0  0
  147.2532  142.3758  154.9292 H   0  0  0  0  0  0  0  0  0  0  0  0
  147.3959  140.8650  155.8290 H   0  0  0  0  0  0  0  0  0  0  0  0
  148.8283  141.8330  157.0943 H   0  0  0  0  0  0  0  0  0  0  0  0
  148.9625  143.1801  156.1463 H   0  0  0  0  0  0  0  0  0  0  0  0
  1  2  1  0  0  0  0
  1 17  1  0  0  0  0
  1 18  1  0  0  0  0
  1 19  1  0  0  0  0
  2 20  1  0  0  0  0
  2 21  1  0  0  0  0
  2  3  1  0  0  0  0
  3  4  1  0  0  0  0
  3 13  2  0  0  0  0
  4  5  2  0  0  0  0
  5  6  1  0  0  0  0
  5 12  1  0  0  0  0
  6 14  1  0  0  0  0
  6 11  1  0  0  0  0
  6  7  1  0  0  0  0
  7  8  1  0  0  0  0
  7 22  1  0  0  0  0
  7 23  1  0  0  0  0
  8 15  1  0  0  0  0
  8  9  1  0  0  0  0
  8 10  1  0  0  0  0
  9 24  1  0  0  0  0
 10 11  1  0  0  0  0
 10 25  1  0  0  0  0
 10 26  1  0  0  0  0
 11 27  1  0  0  0  0
 11 28  1  0  0  0  0
 12 13  1  0  0  0  0
 12 16  1  0  0  0  0
M  CHG  1  11   1
M  END
> <s_m_source_file>
AV-unprocessed.smi

> <i_m_source_file_index>
49

> <i_lp_mmshare_version>
43012

> <i_f3d_flags>
0

> <s_epik_input>
W0NIM11bQ0gyXWMxbmMobltuSF0xKVtDQEBIXTJbQ0gyXVtDQEBIXShbT0hdKVtDSDJdW05IXTI=

> <s_epik_cmdline>
J2VwaWtfcHl0aG9uJywgJy1waCcsICc3LjAnLCAnLXRuJywgJzgnLCAnLW1hJywgJzIwMCcsICctbWV0YWxfYmluZGluZycsICctaW1hZScsICc8aW5maWxlLm1hZT4nLCAnLW9tYWUnLCAnPG91dGZpbGUubWFlPic=

> <r_epik_Ionization_Penalty>
0.372103

> <r_epik_Ionization_Penalty_Charging>
0.0688988

> <r_epik_Ionization_Penalty_Neutral>
0.303204

> <r_epik_State_Penalty>
0.737493

> <r_epik_Charging_Adjusted_Penalty>
0.806392

> <i_epik_Tot_Q>
1

> <i_epik_Tot_abs_Q>
1

> <r_epik_Metal_State_Penalty>
1.01235

> <b_epik_Metal_Only>
0

> <s_lp_Force_Field>
OPLS_2005

> <r_lp_Energy>
17.828

> <b_lp_Chiralities_Consistent>
1

> <s_lp_Variant>
AV-unprocessed.smi:49-6

> <Gold.Version>
5.8.1

> <Gold.Id.Protein>
6NUR|6NUR_protein|mol2

> <Gold.PLP.Fitness>
33.2940

> <Gold.PLP.PLP>
-24.3909

> <Gold.PLP.part.hbond>
-2.0000

> <Gold.PLP.part.metal>
0.0000

> <Gold.PLP.part.buried>
-1.1151

> <Gold.PLP.part.nonpolar>
-20.6522

> <Gold.PLP.part.repulsive>
0.1793

> <Gold.PLP.ligand.clash>
0.0000

> <Gold.PLP.ligand.torsion>
0.0582

> <Gold.PLP.Chemscore.Hbond>
3.0000

> <Gold.PLP.Chemscore.CHOScore>
0.0000

> <Gold.PLP.Chemscore.Metal>
0.0000

> <Gold.Chemscore.Hbonds>
donor molecule, donor type, donor heavy atom, donor atom, acceptor molecule, acceptor atom, score
      L1  H     9    24       P1  7957  1.00
      L1  H    11    28       P1  8028  2.00

> <Gold.PLP.Chemscore.Internal.Correction>
0.0195

> <Gold.Rescore>
     Score         DG    S(hbond)    S(metal)    S(lipo)     H(rot)  DE(clash)    DE(int)     intcor
     12.19     -13.18       1.95        0.00      51.40       1.89       0.85       0.13       ----

> <Gold.Chemscore.Fitness>
12.1929

> <Gold.Chemscore.DG>
-13.1814

> <Gold.Chemscore.ZeroCoef>
-5.4800

> <Gold.Chemscore.Hbond>
1.9526

> <Gold.Chemscore.Metal>
0.0000

> <Gold.Chemscore.Lipo>
51.3980

> <Gold.Chemscore.Internal_Hbond>
0.0000

> <Gold.Chemscore.DEClash>
0.8544

> <Gold.Chemscore.DEInternal>
0.1340

> <Gold.Chemscore.Rot>
1.8883

> <Gold.Chemscore.Internal.Correction>
   9.000000E+99

> <Gold.Chemscore.Hbonds>
donor molecule, donor type, donor heavy atom, donor atom, acceptor molecule, acceptor atom, score
      L1  H     9    24       P1  7957  0.91
      L1  H    11    28       P1  8028  0.99

> <Gold.Chemscore.Hbond.Weighted>
-6.5218

> <Gold.Chemscore.Metal.Weighted>
-0.0000

> <Gold.Chemscore.Lipo.Weighted>
-6.0136

> <Gold.Chemscore.Internal_Hbond.Weighted>
0.0000

> <Gold.Chemscore.DEClash.Weighted>
0.8544

> <Gold.Chemscore.DEInternal.Weighted>
0.1340

> <Gold.Chemscore.Rot.Weighted>
4.8340

> <Gold.Chemscore.Internal.Correction.Weighted>
   9.000000E+99

> <Gold.Protein.RotatedTorsions>
[ 6907 6896 6895 6894 ] final -113.23 input  -60.11 | X-H torsion
[ 7974 7965 7964 7962 ] final -115.67 input  175.53 | X-H torsion
[ 8008 7997 7996 7995 ] final   82.66 input   59.86 | X-H torsion
[ 10167 10162 10161 10158 ] final   61.65 input  -65.29 | X-H torsion
[ 10718 10713 10712 10709 ] final  -92.43 input   66.30 | X-H torsion
[ 10763 10752 10751 10750 ] final   78.86 input  -60.55 | X-H torsion
[ 11005 11000 10999 10996 ] final  -63.02 input  -57.11 | X-H torsion

> <Gold.Protein.ActiveResidues>
 VAL166  LYS551  ARG553  GLY616  TRP617  ASP618  TYR619  PRO620  LYS621  CYS622 
 ASP623  PHE694  ASN695  SER759  ASP760  ASP761  ALA762  ILE779  LEU786  VAL792 
 PHE793  MET794  SER795  GLU796  ALA797  LYS798  CYS799  TRP800  GLU811  SER814 

> <Gold.Protein.RotatedAtoms>
  150.7814  133.8974  159.3330 H   0  0  0  0  0  0  0  0  0  0  0  0  # atno 6907 bound_to 6896
  151.6836  135.0956  160.0230 H   0  0  0  0  0  0  0  0  0  0  0  0  # atno 6908 bound_to 6896
  152.3867  133.6582  159.6240 H   0  0  0  0  0  0  0  0  0  0  0  0  # atno 6909 bound_to 6896
  145.1057  140.8580  143.3899 H   0  0  0  0  0  0  0  0  0  0  0  0  # atno 7974 bound_to 7965
  155.9136  140.3426  155.6118 H   0  0  0  0  0  0  0  0  0  0  0  0  # atno 8008 bound_to 7997
  155.7358  140.0801  157.2287 H   0  0  0  0  0  0  0  0  0  0  0  0  # atno 8009 bound_to 7997
  154.4059  140.1580  156.2547 H   0  0  0  0  0  0  0  0  0  0  0  0  # atno 8010 bound_to 7997
  140.1525  144.4449  150.6752 H   0  0  0  0  0  0  0  0  0  0  0  0  # atno 10167 bound_to 10162
  156.0002  130.4987  150.5625 H   0  0  0  0  0  0  0  0  0  0  0  0  # atno 10718 bound_to 10713
  153.0907  135.4861  154.8684 H   0  0  0  0  0  0  0  0  0  0  0  0  # atno 10763 bound_to 10752
  154.7266  135.3051  154.8963 H   0  0  0  0  0  0  0  0  0  0  0  0  # atno 10764 bound_to 10752
  153.9612  135.6812  153.4798 H   0  0  0  0  0  0  0  0  0  0  0  0  # atno 10765 bound_to 10752
  141.1379  133.6647  156.5617 H   0  0  0  0  0  0  0  0  0  0  0  0  # atno 11005 bound_to 11000
  145.0904  139.2894  143.5738 LP  0  0  0  0  0  0  0  0  0  0  0  0  # atno 17320 bound_to 7965
  146.3528  140.0439  142.8641 LP  0  0  0  0  0  0  0  0  0  0  0  0  # atno 17321 bound_to 7965
  140.6694  143.2280  151.5663 LP  0  0  0  0  0  0  0  0  0  0  0  0  # atno 17342 bound_to 10162
  139.5419  144.2624  152.1368 LP  0  0  0  0  0  0  0  0  0  0  0  0  # atno 17343 bound_to 10162
  157.3532  131.0737  151.1696 LP  0  0  0  0  0  0  0  0  0  0  0  0  # atno 17370 bound_to 10713
  157.2506  130.6612  149.5930 LP  0  0  0  0  0  0  0  0  0  0  0  0  # atno 17371 bound_to 10713
  140.3983  134.7379  157.4764 LP  0  0  0  0  0  0  0  0  0  0  0  0  # atno 17394 bound_to 11000
  140.0515  134.6124  155.8856 LP  0  0  0  0  0  0  0  0  0  0  0  0  # atno 17395 bound_to 11000

$$$$
