AV-unprocessed.smi:3156|AV-procd|sdf|12036|dock8
  -GOLD-   2272017453D 1   1.00000     0.00000
 Structure written by MMmdl.
 41 42  0  0  0  0  0  0  0  0  2 V2000
  149.9957  143.7164  159.1842 C   0  0  0  0  0  0  0  0  0  0  0  0
  150.9408  142.7174  158.4965 C   0  0  1  0  0  0  0  0  0  0  0  0
  150.6344  142.7003  157.0471 N   0  3  0  0  0  0  0  0  0  0  0  0
  149.8554  141.5321  156.5863 C   0  0  0  0  0  0  0  0  0  0  0  0
  150.5871  140.7743  155.4692 C   0  0  1  0  0  0  0  0  0  0  0  0
  151.8976  140.1227  155.9603 C   0  0  0  0  0  0  0  0  0  0  0  0
  152.5355  139.2834  154.8480 C   0  0  0  0  0  0  0  0  0  0  0  0
  151.5078  138.2888  154.2997 C   0  0  0  0  0  0  0  0  0  0  0  0
  150.2212  139.0229  153.8920 C   0  0  0  0  0  0  0  0  0  0  0  0
  149.7079  139.7544  155.0013 O   0  0  0  0  0  0  0  0  0  0  0  0
  152.4402  143.0525  158.7257 C   0  0  1  0  0  0  0  0  0  0  0  0
  152.7717  144.5431  158.5178 C   0  0  0  0  0  0  0  0  0  0  0  0
  152.8883  142.6246  160.0467 N   0  0  0  0  0  0  0  0  0  0  0  0
  153.7904  141.6285  160.3614 C   0  0  0  0  0  0  0  0  0  0  0  0
  153.8814  141.5742  161.7225 C   0  0  0  0  0  0  0  0  0  0  0  0
  152.9888  142.5906  162.1623 C   0  0  0  0  0  0  0  0  0  0  0  0
  152.3943  143.2146  161.1588 N   0  0  0  0  0  0  0  0  0  0  0  0
  150.0969  143.6866  160.2687 H   0  0  0  0  0  0  0  0  0  0  0  0
  148.9539  143.4864  158.9584 H   0  0  0  0  0  0  0  0  0  0  0  0
  150.1890  144.7383  158.8568 H   0  0  0  0  0  0  0  0  0  0  0  0
  150.7318  141.7322  158.9177 H   0  0  0  0  0  0  0  0  0  0  0  0
  150.1175  143.5367  156.8163 H   0  0  0  0  0  0  0  0  0  0  0  0
  149.6554  140.8564  157.4184 H   0  0  0  0  0  0  0  0  0  0  0  0
  148.8887  141.8864  156.2257 H   0  0  0  0  0  0  0  0  0  0  0  0
  150.7952  141.4620  154.6472 H   0  0  0  0  0  0  0  0  0  0  0  0
  152.6022  140.8829  156.2982 H   0  0  0  0  0  0  0  0  0  0  0  0
  151.6913  139.4856  156.8217 H   0  0  0  0  0  0  0  0  0  0  0  0
  152.8810  139.9358  154.0449 H   0  0  0  0  0  0  0  0  0  0  0  0
  153.4128  138.7560  155.2237 H   0  0  0  0  0  0  0  0  0  0  0  0
  151.9212  137.7480  153.4480 H   0  0  0  0  0  0  0  0  0  0  0  0
  151.2757  137.5432  155.0614 H   0  0  0  0  0  0  0  0  0  0  0  0
  150.4057  139.6952  153.0528 H   0  0  0  0  0  0  0  0  0  0  0  0
  149.4686  138.3051  153.5655 H   0  0  0  0  0  0  0  0  0  0  0  0
  153.0257  142.4879  157.9985 H   0  0  0  0  0  0  0  0  0  0  0  0
  152.6232  144.8493  157.4828 H   0  0  0  0  0  0  0  0  0  0  0  0
  153.8148  144.7474  158.7618 H   0  0  0  0  0  0  0  0  0  0  0  0
  152.1536  145.1836  159.1476 H   0  0  0  0  0  0  0  0  0  0  0  0
  154.2857  141.0443  159.5997 H   0  0  0  0  0  0  0  0  0  0  0  0
  154.4942  140.9108  162.3147 H   0  0  0  0  0  0  0  0  0  0  0  0
  152.7549  142.8901  163.1734 H   0  0  0  0  0  0  0  0  0  0  0  0
  151.5104  142.7167  156.5448 H   0  0  0  0  0  0  0  0  0  0  0  0
  1  2  1  0  0  0  0
  1 18  1  0  0  0  0
  1 19  1  0  0  0  0
  1 20  1  0  0  0  0
  2  3  1  0  0  0  0
  2 11  1  0  0  0  0
  2 21  1  0  0  0  0
  3  4  1  0  0  0  0
  3 22  1  0  0  0  0
  3 41  1  0  0  0  0
  4  5  1  0  0  0  0
  4 23  1  0  0  0  0
  4 24  1  0  0  0  0
  5 10  1  0  0  0  0
  5  6  1  0  0  0  0
  5 25  1  0  0  0  0
  6  7  1  0  0  0  0
  6 26  1  0  0  0  0
  6 27  1  0  0  0  0
  7  8  1  0  0  0  0
  7 28  1  0  0  0  0
  7 29  1  0  0  0  0
  8  9  1  0  0  0  0
  8 30  1  0  0  0  0
  8 31  1  0  0  0  0
  9 10  1  0  0  0  0
  9 32  1  0  0  0  0
  9 33  1  0  0  0  0
 11 12  1  0  0  0  0
 11 13  1  0  0  0  0
 11 34  1  0  0  0  0
 12 35  1  0  0  0  0
 12 36  1  0  0  0  0
 12 37  1  0  0  0  0
 13 17  1  0  0  0  0
 13 14  1  0  0  0  0
 14 15  2  0  0  0  0
 14 38  1  0  0  0  0
 15 16  1  0  0  0  0
 15 39  1  0  0  0  0
 16 17  2  0  0  0  0
 16 40  1  0  0  0  0
M  CHG  1   3   1
M  END
> <s_m_source_file>
AV-unprocessed.smi

> <i_m_source_file_index>
3156

> <i_lp_mmshare_version>
43012

> <i_f3d_flags>
0

> <s_epik_input>
bjFbY0hdW2NIXVtjSF1uMVtDQEBIXShbQ0gzXSlbQ0BIXShbQ0gzXSlbTkhdW0NIMl1bQ0BASF0yW0NIMl1bQ0gyXVtDSDJdW0NIMl1PMg==

> <s_epik_cmdline>
J2VwaWtfcHl0aG9uJywgJy1waCcsICc3LjAnLCAnLXRuJywgJzgnLCAnLW1hJywgJzIwMCcsICctbWV0YWxfYmluZGluZycsICctaW1hZScsICc8aW5maWxlLm1hZT4nLCAnLW9tYWUnLCAnPG91dGZpbGUubWFlPic=

> <r_lp_tautomer_probability>
1

> <r_epik_Ionization_Penalty>
0.00658015

> <r_epik_Ionization_Penalty_Charging>
0.00656881

> <r_epik_Ionization_Penalty_Neutral>
1.13431e-05

> <r_epik_State_Penalty>
0.0048654

> <r_epik_Charging_Adjusted_Penalty>
0.0114342

> <i_epik_Tot_Q>
1

> <i_epik_Tot_abs_Q>
1

> <r_epik_Metal_State_Penalty>
-0

> <b_epik_Metal_Only>
0

> <s_lp_Force_Field>
OPLS_2005

> <r_lp_Energy>
18.5215

> <b_lp_Chiralities_Consistent>
1

> <s_lp_Variant>
AV-unprocessed.smi:3156-8

> <Gold.Version>
5.8.1

> <Gold.Id.Protein>
6NUR|6NUR_protein|mol2

> <Gold.PLP.Fitness>
51.0087

> <Gold.PLP.PLP>
-47.6412

> <Gold.PLP.part.hbond>
-1.0000

> <Gold.PLP.part.metal>
0.0000

> <Gold.PLP.part.buried>
-5.3611

> <Gold.PLP.part.nonpolar>
-41.7110

> <Gold.PLP.part.repulsive>
0.1951

> <Gold.PLP.ligand.clash>
0.0000

> <Gold.PLP.ligand.torsion>
1.3610

> <Gold.PLP.Chemscore.Hbond>
2.0000

> <Gold.PLP.Chemscore.CHOScore>
0.0000

> <Gold.PLP.Chemscore.Metal>
0.0000

> <Gold.Chemscore.Hbonds>
donor molecule, donor type, donor heavy atom, donor atom, acceptor molecule, acceptor atom, score
      L1  H     3    22       P1  8028  1.89

> <Gold.PLP.Chemscore.Internal.Correction>
0.0896

> <Gold.Rescore>
     Score         DG    S(hbond)    S(metal)    S(lipo)     H(rot)  DE(clash)    DE(int)     intcor
     16.93     -18.93       0.99        0.00     121.61       1.59       0.08       1.92       ----

> <Gold.Chemscore.Fitness>
16.9263

> <Gold.Chemscore.DG>
-18.9324

> <Gold.Chemscore.ZeroCoef>
-5.4800

> <Gold.Chemscore.Hbond>
0.9893

> <Gold.Chemscore.Metal>
0.0000

> <Gold.Chemscore.Lipo>
121.6090

> <Gold.Chemscore.Internal_Hbond>
0.0000

> <Gold.Chemscore.DEClash>
0.0845

> <Gold.Chemscore.DEInternal>
1.9216

> <Gold.Chemscore.Rot>
1.5938

> <Gold.Chemscore.Internal.Correction>
   9.000000E+99

> <Gold.Chemscore.Hbonds>
donor molecule, donor type, donor heavy atom, donor atom, acceptor molecule, acceptor atom, score
      L1  H     3    22       P1  8028  0.89

> <Gold.Chemscore.Hbond.Weighted>
-3.3044

> <Gold.Chemscore.Metal.Weighted>
-0.0000

> <Gold.Chemscore.Lipo.Weighted>
-14.2283

> <Gold.Chemscore.Internal_Hbond.Weighted>
0.0000

> <Gold.Chemscore.DEClash.Weighted>
0.0845

> <Gold.Chemscore.DEInternal.Weighted>
1.9216

> <Gold.Chemscore.Rot.Weighted>
4.0802

> <Gold.Chemscore.Internal.Correction.Weighted>
   9.000000E+99

> <Gold.Protein.RotatedTorsions>
[ 6907 6896 6895 6894 ] final   39.01 input  -60.11 | X-H torsion
[ 7974 7965 7964 7962 ] final -125.27 input  175.53 | X-H torsion
[ 8008 7997 7996 7995 ] final -165.87 input   59.86 | X-H torsion
[ 10167 10162 10161 10158 ] final   92.24 input  -65.29 | X-H torsion
[ 10718 10713 10712 10709 ] final   88.09 input   66.30 | X-H torsion
[ 10763 10752 10751 10750 ] final   21.42 input  -60.55 | X-H torsion
[ 11005 11000 10999 10996 ] final  126.24 input  -57.11 | X-H torsion

> <Gold.Protein.ActiveResidues>
 VAL166  LYS551  ARG553  GLY616  TRP617  ASP618  TYR619  PRO620  LYS621  CYS622 
 ASP623  PHE694  ASN695  SER759  ASP760  ASP761  ALA762  ILE779  LEU786  VAL792 
 PHE793  MET794  SER795  GLU796  ALA797  LYS798  CYS799  TRP800  GLU811  SER814 

> <Gold.Protein.RotatedAtoms>
  152.1639  134.8889  160.0539 H   0  0  0  0  0  0  0  0  0  0  0  0  # atno 6907 bound_to 6896
  151.9874  133.3774  159.4139 H   0  0  0  0  0  0  0  0  0  0  0  0  # atno 6908 bound_to 6896
  150.6892  134.3896  159.5114 H   0  0  0  0  0  0  0  0  0  0  0  0  # atno 6909 bound_to 6896
  144.9993  140.7805  143.4506 H   0  0  0  0  0  0  0  0  0  0  0  0  # atno 7974 bound_to 7965
  155.8558  140.0970  157.1645 H   0  0  0  0  0  0  0  0  0  0  0  0  # atno 8008 bound_to 7997
  154.3988  140.1374  156.3963 H   0  0  0  0  0  0  0  0  0  0  0  0  # atno 8009 bound_to 7997
  155.7911  140.3455  155.5352 H   0  0  0  0  0  0  0  0  0  0  0  0  # atno 8010 bound_to 7997
  139.8296  144.6693  150.9416 H   0  0  0  0  0  0  0  0  0  0  0  0  # atno 10167 bound_to 10162
  157.6946  131.0281  150.3222 H   0  0  0  0  0  0  0  0  0  0  0  0  # atno 10718 bound_to 10713
  153.0996  135.6669  153.9697 H   0  0  0  0  0  0  0  0  0  0  0  0  # atno 10763 bound_to 10752
  153.9271  135.3008  155.3448 H   0  0  0  0  0  0  0  0  0  0  0  0  # atno 10764 bound_to 10752
  154.7417  135.5076  153.9209 H   0  0  0  0  0  0  0  0  0  0  0  0  # atno 10765 bound_to 10752
  139.9446  134.9631  156.8677 H   0  0  0  0  0  0  0  0  0  0  0  0  # atno 11005 bound_to 11000
  145.2176  139.2174  143.5110 LP  0  0  0  0  0  0  0  0  0  0  0  0  # atno 17320 bound_to 7965
  146.3448  140.2027  142.8589 LP  0  0  0  0  0  0  0  0  0  0  0  0  # atno 17321 bound_to 7965
  140.7807  143.4013  151.1144 LP  0  0  0  0  0  0  0  0  0  0  0  0  # atno 17342 bound_to 10162
  139.7668  143.8554  152.3112 LP  0  0  0  0  0  0  0  0  0  0  0  0  # atno 17343 bound_to 10162
  156.3708  130.3863  149.7177 LP  0  0  0  0  0  0  0  0  0  0  0  0  # atno 17370 bound_to 10713
  156.4592  130.7943  151.2964 LP  0  0  0  0  0  0  0  0  0  0  0  0  # atno 17371 bound_to 10713
  140.5866  134.0301  155.7484 LP  0  0  0  0  0  0  0  0  0  0  0  0  # atno 17394 bound_to 11000
  141.1092  133.9643  157.2941 LP  0  0  0  0  0  0  0  0  0  0  0  0  # atno 17395 bound_to 11000

$$$$
