AV-unprocessed.smi:2032|AV-procd|sdf|8235|dock2
  -GOLD-   2272010503D 1   1.00000     0.00000
 Structure written by MMmdl.
 42 43  0  0  0  0  0  0  0  0  1 V2000
  151.5572  137.5866  154.6609 C   0  0  0  0  0  0  0  0  0  0  0  0
  150.8301  138.9302  154.7810 C   0  0  1  0  0  0  0  0  0  0  0  0
  149.5004  138.9413  154.0056 C   0  0  0  0  0  0  0  0  0  0  0  0
  148.7524  140.1912  154.1732 N   0  0  0  0  0  0  0  0  0  0  0  0
  147.4825  140.2087  153.4078 C   0  0  2  0  0  0  0  0  0  0  0  0
  146.7150  141.5483  153.5481 C   0  0  0  0  0  0  0  0  0  0  0  0
  146.5334  139.0340  153.7815 C   0  0  0  0  0  0  0  0  0  0  0  0
  146.7703  137.8253  152.9945 N   0  0  0  0  0  0  0  0  0  0  0  0
  145.8234  136.9843  152.5524 C   0  0  0  0  0  0  0  0  0  0  0  0
  144.6195  137.1476  152.7519 O   0  0  0  0  0  0  0  0  0  0  0  0
  146.3642  135.9599  151.8697 N   0  0  0  0  0  0  0  0  0  0  0  0
  145.6987  134.8683  151.2520 C   0  0  0  0  0  0  0  0  0  0  0  0
  144.3877  134.8370  150.9845 N   0  0  0  0  0  0  0  0  0  0  0  0
  144.0051  133.6395  150.3751 C   0  0  0  0  0  0  0  0  0  0  0  0
  145.0451  132.7643  150.1835 C   0  0  0  0  0  0  0  0  0  0  0  0
  146.5555  133.4128  150.7655 S   0  0  0  0  0  0  0  0  0  0  0  0
  148.5506  140.4075  155.6110 C   0  0  0  0  0  0  0  0  0  0  0  0
  149.8541  140.3683  156.4331 C   0  0  2  0  0  0  0  0  0  0  0  0
  150.7268  141.6224  156.2520 C   0  0  0  0  0  0  0  0  0  0  0  0
  150.5785  139.1713  156.1607 O   0  0  0  0  0  0  0  0  0  0  0  0
  151.7863  137.3551  153.6204 H   0  0  0  0  0  0  0  0  0  0  0  0
  150.9509  136.7729  155.0599 H   0  0  0  0  0  0  0  0  0  0  0  0
  152.4976  137.6022  155.2123 H   0  0  0  0  0  0  0  0  0  0  0  0
  151.4865  139.7076  154.3893 H   0  0  0  0  0  0  0  0  0  0  0  0
  149.7485  138.7801  152.9583 H   0  0  0  0  0  0  0  0  0  0  0  0
  148.8837  138.0977  154.3193 H   0  0  0  0  0  0  0  0  0  0  0  0
  147.7273  140.0953  152.3504 H   0  0  0  0  0  0  0  0  0  0  0  0
  145.7693  141.5447  153.0087 H   0  0  0  0  0  0  0  0  0  0  0  0
  147.2665  142.3899  153.1321 H   0  0  0  0  0  0  0  0  0  0  0  0
  146.4952  141.7692  154.5931 H   0  0  0  0  0  0  0  0  0  0  0  0
  146.6874  138.7177  154.8113 H   0  0  0  0  0  0  0  0  0  0  0  0
  145.4936  139.3589  153.7134 H   0  0  0  0  0  0  0  0  0  0  0  0
  147.7325  137.6109  152.7780 H   0  0  0  0  0  0  0  0  0  0  0  0
  147.3699  135.9585  151.7844 H   0  0  0  0  0  0  0  0  0  0  0  0
  142.9684  133.4935  150.1105 H   0  0  0  0  0  0  0  0  0  0  0  0
  145.0137  131.7814  149.7377 H   0  0  0  0  0  0  0  0  0  0  0  0
  148.0852  141.3727  155.7994 H   0  0  0  0  0  0  0  0  0  0  0  0
  147.8663  139.6501  155.9965 H   0  0  0  0  0  0  0  0  0  0  0  0
  149.5812  140.3229  157.4878 H   0  0  0  0  0  0  0  0  0  0  0  0
  150.1991  142.5136  156.5925 H   0  0  0  0  0  0  0  0  0  0  0  0
  151.0001  141.7862  155.2099 H   0  0  0  0  0  0  0  0  0  0  0  0
  151.6468  141.5427  156.8309 H   0  0  0  0  0  0  0  0  0  0  0  0
  1  2  1  0  0  0  0
  1 21  1  0  0  0  0
  1 22  1  0  0  0  0
  1 23  1  0  0  0  0
  2 20  1  0  0  0  0
  2  3  1  0  0  0  0
  2 24  1  0  0  0  0
  3  4  1  0  0  0  0
  3 25  1  0  0  0  0
  3 26  1  0  0  0  0
  4  5  1  0  0  0  0
  4 17  1  0  0  0  0
  5  6  1  0  0  0  0
  5  7  1  0  0  0  0
  5 27  1  0  0  0  0
  6 28  1  0  0  0  0
  6 29  1  0  0  0  0
  6 30  1  0  0  0  0
  7  8  1  0  0  0  0
  7 31  1  0  0  0  0
  7 32  1  0  0  0  0
  8  9  1  0  0  0  0
  8 33  1  0  0  0  0
  9 10  2  0  0  0  0
  9 11  1  0  0  0  0
 11 12  1  0  0  0  0
 11 34  1  0  0  0  0
 12 16  1  0  0  0  0
 12 13  2  0  0  0  0
 13 14  1  0  0  0  0
 14 15  2  0  0  0  0
 14 35  1  0  0  0  0
 15 16  1  0  0  0  0
 15 36  1  0  0  0  0
 17 18  1  0  0  0  0
 17 37  1  0  0  0  0
 17 38  1  0  0  0  0
 18 19  1  0  0  0  0
 18 20  1  0  0  0  0
 18 39  1  0  0  0  0
 19 40  1  0  0  0  0
 19 41  1  0  0  0  0
 19 42  1  0  0  0  0
M  END
> <s_m_source_file>
AV-unprocessed.smi

> <i_m_source_file_index>
2032

> <i_lp_mmshare_version>
43012

> <i_f3d_flags>
0

> <s_epik_input>
W0NIM11bQ0BASF0xW0NIMl1OKFtDSDJdW0NASF0oTzEpW0NIM10pW0NASF0oW0NIM10pW0NIMl1bTkhdQyg9TylbTkhdYzJuW2NIXVtjSF1zMg==

> <s_epik_cmdline>
J2VwaWtfcHl0aG9uJywgJy1waCcsICc3LjAnLCAnLXRuJywgJzgnLCAnLW1hJywgJzIwMCcsICctbWV0YWxfYmluZGluZycsICctaW1hZScsICc8aW5maWxlLm1hZT4nLCAnLW9tYWUnLCAnPG91dGZpbGUubWFlPic=

> <r_lp_tautomer_probability>
0.999

> <r_epik_Ionization_Penalty>
0.219202

> <r_epik_Ionization_Penalty_Charging>
0

> <r_epik_Ionization_Penalty_Neutral>
0.219202

> <r_epik_State_Penalty>
0.209349

> <r_epik_Charging_Adjusted_Penalty>
0.209349

> <i_epik_Tot_Q>
0

> <i_epik_Tot_abs_Q>
0

> <r_epik_Metal_State_Penalty>
0.247737

> <b_epik_Metal_Only>
0

> <s_lp_Force_Field>
OPLS_2005

> <r_lp_Energy>
29.5908

> <b_lp_Chiralities_Consistent>
1

> <s_lp_Variant>
AV-unprocessed.smi:2032-5

> <Gold.Version>
5.8.1

> <Gold.Id.Protein>
6NUR|6NUR_protein|mol2

> <Gold.PLP.Fitness>
38.9397

> <Gold.PLP.PLP>
-31.6435

> <Gold.PLP.part.hbond>
-1.9767

> <Gold.PLP.part.metal>
0.0000

> <Gold.PLP.part.buried>
-4.3217

> <Gold.PLP.part.nonpolar>
-26.7985

> <Gold.PLP.part.repulsive>
0.7979

> <Gold.PLP.ligand.clash>
0.0000

> <Gold.PLP.ligand.torsion>
0.6331

> <Gold.PLP.Chemscore.Hbond>
1.8318

> <Gold.PLP.Chemscore.CHOScore>
1.0000

> <Gold.PLP.Chemscore.Metal>
0.0000

> <Gold.Chemscore.Hbonds>
donor molecule, donor type, donor heavy atom, donor atom, acceptor molecule, acceptor atom, score
      L1  H     8    33       P1  7948  0.84
      L1  H    11    34       P1  7948  1.00
      L1  C    14    35       P1 10186  1.00

> <Gold.PLP.Chemscore.Internal.Correction>
0.0669

> <Gold.Rescore>
     Score         DG    S(hbond)    S(metal)    S(lipo)     H(rot)  DE(clash)    DE(int)     intcor
     15.51     -17.68       1.91        0.00      84.13       1.57       0.32       1.85       ----

> <Gold.Chemscore.Fitness>
15.5141

> <Gold.Chemscore.DG>
-17.6808

> <Gold.Chemscore.ZeroCoef>
-5.4800

> <Gold.Chemscore.Hbond>
1.9129

> <Gold.Chemscore.Metal>
0.0000

> <Gold.Chemscore.Lipo>
84.1344

> <Gold.Chemscore.Internal_Hbond>
0.0000

> <Gold.Chemscore.DEClash>
0.3198

> <Gold.Chemscore.DEInternal>
1.8469

> <Gold.Chemscore.Rot>
1.5750

> <Gold.Chemscore.Internal.Correction>
   9.000000E+99

> <Gold.Chemscore.Hbonds>
donor molecule, donor type, donor heavy atom, donor atom, acceptor molecule, acceptor atom, score
      L1  H     8    33       P1  7948  0.79
      L1  H    11    34       P1  7948  0.97

> <Gold.Chemscore.Hbond.Weighted>
-6.3890

> <Gold.Chemscore.Metal.Weighted>
-0.0000

> <Gold.Chemscore.Lipo.Weighted>
-9.8437

> <Gold.Chemscore.Internal_Hbond.Weighted>
0.0000

> <Gold.Chemscore.DEClash.Weighted>
0.3198

> <Gold.Chemscore.DEInternal.Weighted>
1.8469

> <Gold.Chemscore.Rot.Weighted>
4.0319

> <Gold.Chemscore.Internal.Correction.Weighted>
   9.000000E+99

> <Gold.Protein.RotatedTorsions>
[ 6907 6896 6895 6894 ] final   40.70 input  -60.11 | X-H torsion
[ 7974 7965 7964 7962 ] final -135.61 input  175.53 | X-H torsion
[ 8008 7997 7996 7995 ] final   76.93 input   59.86 | X-H torsion
[ 10167 10162 10161 10158 ] final   33.35 input  -65.29 | X-H torsion
[ 10718 10713 10712 10709 ] final  -84.19 input   66.30 | X-H torsion
[ 10763 10752 10751 10750 ] final   48.53 input  -60.55 | X-H torsion
[ 11005 11000 10999 10996 ] final  -61.85 input  -57.11 | X-H torsion

> <Gold.Protein.ActiveResidues>
 VAL166  LYS551  ARG553  GLY616  TRP617  ASP618  TYR619  PRO620  LYS621  CYS622 
 ASP623  PHE694  ASN695  SER759  ASP760  ASP761  ALA762  ILE779  LEU786  VAL792 
 PHE793  MET794  SER795  GLU796  ALA797  LYS798  CYS799  TRP800  GLU811  SER814 

> <Gold.Protein.RotatedAtoms>
  152.1858  134.8714  160.0521 H   0  0  0  0  0  0  0  0  0  0  0  0  # atno 6907 bound_to 6896
  151.9622  133.3694  159.4047 H   0  0  0  0  0  0  0  0  0  0  0  0  # atno 6908 bound_to 6896
  150.6926  134.4152  159.5224 H   0  0  0  0  0  0  0  0  0  0  0  0  # atno 6909 bound_to 6896
  144.8999  140.6757  143.5091 H   0  0  0  0  0  0  0  0  0  0  0  0  # atno 7974 bound_to 7965
  155.8344  140.3465  155.5592 H   0  0  0  0  0  0  0  0  0  0  0  0  # atno 8008 bound_to 7997
  155.8207  140.0912  157.1870 H   0  0  0  0  0  0  0  0  0  0  0  0  # atno 8009 bound_to 7997
  154.4004  140.1430  156.3484 H   0  0  0  0  0  0  0  0  0  0  0  0  # atno 8010 bound_to 7997
  140.4416  144.1180  150.6175 H   0  0  0  0  0  0  0  0  0  0  0  0  # atno 10167 bound_to 10162
  156.0009  130.4690  150.4372 H   0  0  0  0  0  0  0  0  0  0  0  0  # atno 10718 bound_to 10713
  152.9791  135.5941  154.3941 H   0  0  0  0  0  0  0  0  0  0  0  0  # atno 10763 bound_to 10752
  154.3593  135.2767  155.2330 H   0  0  0  0  0  0  0  0  0  0  0  0  # atno 10764 bound_to 10752
  154.4335  135.6030  153.6138 H   0  0  0  0  0  0  0  0  0  0  0  0  # atno 10765 bound_to 10752
  141.1339  133.6634  156.5439 H   0  0  0  0  0  0  0  0  0  0  0  0  # atno 11005 bound_to 11000
  145.3634  139.1676  143.4371 LP  0  0  0  0  0  0  0  0  0  0  0  0  # atno 17320 bound_to 7965
  146.3102  140.3699  142.8673 LP  0  0  0  0  0  0  0  0  0  0  0  0  # atno 17321 bound_to 7965
  140.4312  143.2567  151.9593 LP  0  0  0  0  0  0  0  0  0  0  0  0  # atno 17342 bound_to 10162
  139.4790  144.5742  151.8039 LP  0  0  0  0  0  0  0  0  0  0  0  0  # atno 17343 bound_to 10162
  157.2416  131.0526  151.2433 LP  0  0  0  0  0  0  0  0  0  0  0  0  # atno 17370 bound_to 10713
  157.3615  130.7134  149.6505 LP  0  0  0  0  0  0  0  0  0  0  0  0  # atno 17371 bound_to 10713
  140.4118  134.7265  157.4840 LP  0  0  0  0  0  0  0  0  0  0  0  0  # atno 17394 bound_to 11000
  140.0422  134.6251  155.8966 LP  0  0  0  0  0  0  0  0  0  0  0  0  # atno 17395 bound_to 11000

$$$$
