AV-unprocessed.smi:1815|AV-procd|sdf|7359|dock1
  -GOLD-   22720 9 23D 1   1.00000     0.00000
 Structure written by MMmdl.
 38 39  0  0  0  0  0  0  0  0  2 V2000
  152.1668  140.0348  157.0842 C   0  0  0  0  0  0  0  0  0  0  0  0
  152.1353  139.7292  155.5768 C   0  0  1  0  0  0  0  0  0  0  0  0
  151.9370  138.2337  155.2691 C   0  0  0  0  0  0  0  0  0  0  0  0
  150.5737  137.7820  155.5453 N   0  0  0  0  0  0  0  0  0  0  0  0
  150.3967  136.3491  155.2965 C   0  0  0  0  0  0  0  0  0  0  0  0
  149.2202  135.6906  156.0473 C   0  0  0  0  0  0  0  0  0  0  0  0
  149.4209  135.6066  157.4912 N   0  0  0  0  0  0  0  0  0  0  0  0
  148.7253  136.2768  158.4227 C   0  0  0  0  0  0  0  0  0  0  0  0
  147.8038  137.0250  158.0871 O   0  0  0  0  0  0  0  0  0  0  0  0
  149.1583  136.0606  159.6856 N   0  5  0  0  0  0  0  0  0  0  0  0
  148.2780  136.0513  160.6996 C   0  0  0  0  0  0  0  0  0  0  0  0
  147.7574  137.1686  161.2205 N   0  0  0  0  0  0  0  0  0  0  0  0
  146.8617  136.9298  162.2641 C   0  0  0  0  0  0  0  0  0  0  0  0
  146.7027  135.5998  162.5498 C   0  0  0  0  0  0  0  0  0  0  0  0
  147.6801  134.6018  161.5112 S   0  0  0  0  0  0  0  0  0  0  0  0
  149.6618  138.5940  154.7511 C   0  0  0  0  0  0  0  0  0  0  0  0
  149.7998  140.0911  155.0878 C   0  0  2  0  0  0  0  0  0  0  0  0
  148.8996  140.9665  154.2098 C   0  0  0  0  0  0  0  0  0  0  0  0
  151.1509  140.5060  154.8903 O   0  0  0  0  0  0  0  0  0  0  0  0
  152.9860  139.5020  157.5688 H   0  0  0  0  0  0  0  0  0  0  0  0
  151.2464  139.7326  157.5836 H   0  0  0  0  0  0  0  0  0  0  0  0
  152.3124  141.0999  157.2634 H   0  0  0  0  0  0  0  0  0  0  0  0
  153.1014  140.0297  155.1707 H   0  0  0  0  0  0  0  0  0  0  0  0
  152.1685  138.0587  154.2175 H   0  0  0  0  0  0  0  0  0  0  0  0
  152.6684  137.6598  155.8304 H   0  0  0  0  0  0  0  0  0  0  0  0
  150.1925  136.2000  154.2355 H   0  0  0  0  0  0  0  0  0  0  0  0
  151.3259  135.8104  155.4880 H   0  0  0  0  0  0  0  0  0  0  0  0
  148.2862  136.1968  155.7988 H   0  0  0  0  0  0  0  0  0  0  0  0
  149.1047  134.6685  155.6867 H   0  0  0  0  0  0  0  0  0  0  0  0
  150.1680  135.0094  157.8134 H   0  0  0  0  0  0  0  0  0  0  0  0
  146.3823  137.7678  162.7477 H   0  0  0  0  0  0  0  0  0  0  0  0
  146.0753  135.1482  163.3032 H   0  0  0  0  0  0  0  0  0  0  0  0
  149.8504  138.4323  153.6885 H   0  0  0  0  0  0  0  0  0  0  0  0
  148.6332  138.2826  154.9371 H   0  0  0  0  0  0  0  0  0  0  0  0
  149.5246  140.2543  156.1303 H   0  0  0  0  0  0  0  0  0  0  0  0
  147.8500  140.7001  154.3358 H   0  0  0  0  0  0  0  0  0  0  0  0
  149.1496  140.8561  153.1543 H   0  0  0  0  0  0  0  0  0  0  0  0
  149.0082  142.0194  154.4704 H   0  0  0  0  0  0  0  0  0  0  0  0
  1  2  1  0  0  0  0
  1 20  1  0  0  0  0
  1 21  1  0  0  0  0
  1 22  1  0  0  0  0
  2 19  1  0  0  0  0
  2  3  1  0  0  0  0
  2 23  1  0  0  0  0
  3  4  1  0  0  0  0
  3 24  1  0  0  0  0
  3 25  1  0  0  0  0
  4  5  1  0  0  0  0
  4 16  1  0  0  0  0
  5  6  1  0  0  0  0
  5 26  1  0  0  0  0
  5 27  1  0  0  0  0
  6  7  1  0  0  0  0
  6 28  1  0  0  0  0
  6 29  1  0  0  0  0
  7  8  1  0  0  0  0
  7 30  1  0  0  0  0
  8  9  2  0  0  0  0
  8 10  1  0  0  0  0
 10 11  1  0  0  0  0
 11 15  1  0  0  0  0
 11 12  2  0  0  0  0
 12 13  1  0  0  0  0
 13 14  2  0  0  0  0
 13 31  1  0  0  0  0
 14 15  1  0  0  0  0
 14 32  1  0  0  0  0
 16 17  1  0  0  0  0
 16 33  1  0  0  0  0
 16 34  1  0  0  0  0
 17 18  1  0  0  0  0
 17 19  1  0  0  0  0
 17 35  1  0  0  0  0
 18 36  1  0  0  0  0
 18 37  1  0  0  0  0
 18 38  1  0  0  0  0
M  CHG  1  10  -1
M  END
> <s_m_source_file>
AV-unprocessed.smi

> <i_m_source_file_index>
1815

> <i_lp_mmshare_version>
43012

> <i_f3d_flags>
0

> <s_epik_input>
W0NIM11bQ0BASF0xW0NIMl1OKFtDSDJdW0NASF0oTzEpW0NIM10pW0NIMl1bQ0gyXVtOSF1DKD1PKVtOSF1jMm5bY0hdW2NIXXMy

> <s_epik_cmdline>
J2VwaWtfcHl0aG9uJywgJy1waCcsICc3LjAnLCAnLXRuJywgJzgnLCAnLW1hJywgJzIwMCcsICctbWV0YWxfYmluZGluZycsICctaW1hZScsICc8aW5maWxlLm1hZT4nLCAnLW9tYWUnLCAnPG91dGZpbGUubWFlPic=

> <r_lp_tautomer_probability>
0.999

> <r_epik_Ionization_Penalty>
7.22374

> <r_epik_Ionization_Penalty_Charging>
5.82415

> <r_epik_Ionization_Penalty_Neutral>
1.39959

> <r_epik_State_Penalty>
6.03347

> <r_epik_Charging_Adjusted_Penalty>
11.8576

> <i_epik_Tot_Q>
-1

> <i_epik_Tot_abs_Q>
1

> <r_epik_Metal_State_Penalty>
2.01024

> <b_epik_Metal_Only>
1

> <s_lp_Force_Field>
OPLS_2005

> <r_lp_Energy>
24.221

> <b_lp_Chiralities_Consistent>
1

> <s_lp_Variant>
AV-unprocessed.smi:1815-10

> <Gold.Version>
5.8.1

> <Gold.Id.Protein>
6NUR|6NUR_protein|mol2

> <Gold.PLP.Fitness>
44.5446

> <Gold.PLP.PLP>
-32.8197

> <Gold.PLP.part.hbond>
-3.8183

> <Gold.PLP.part.metal>
0.0000

> <Gold.PLP.part.buried>
-2.9275

> <Gold.PLP.part.nonpolar>
-26.1145

> <Gold.PLP.part.repulsive>
0.2085

> <Gold.PLP.ligand.clash>
0.0000

> <Gold.PLP.ligand.torsion>
1.2152

> <Gold.PLP.Chemscore.Hbond>
4.6598

> <Gold.PLP.Chemscore.CHOScore>
0.0000

> <Gold.PLP.Chemscore.Metal>
0.0000

> <Gold.Chemscore.Hbonds>
donor molecule, donor type, donor heavy atom, donor atom, acceptor molecule, acceptor atom, score
      P1  H  6896  6909       L1    10  1.76
      P1  H  6931  6943       L1    12  0.98
      P1  H  6934  6947       L1    12  0.61
      P1  H  7989  7998       L1    19  0.96

> <Gold.PLP.Chemscore.Internal.Correction>
0.1759

> <Gold.Rescore>
     Score         DG    S(hbond)    S(metal)    S(lipo)     H(rot)  DE(clash)    DE(int)     intcor
     16.76     -18.04       2.45        0.00      71.84       1.57       0.01       1.27       ----

> <Gold.Chemscore.Fitness>
16.7557

> <Gold.Chemscore.DG>
-18.0393

> <Gold.Chemscore.ZeroCoef>
-5.4800

> <Gold.Chemscore.Hbond>
2.4453

> <Gold.Chemscore.Metal>
0.0000

> <Gold.Chemscore.Lipo>
71.8387

> <Gold.Chemscore.Internal_Hbond>
0.0000

> <Gold.Chemscore.DEClash>
0.0089

> <Gold.Chemscore.DEInternal>
1.2747

> <Gold.Chemscore.Rot>
1.5676

> <Gold.Chemscore.Internal.Correction>
   9.000000E+99

> <Gold.Chemscore.Hbonds>
donor molecule, donor type, donor heavy atom, donor atom, acceptor molecule, acceptor atom, score
      P1  H  6896  6909       L1    10  0.58
      P1  H  6931  6943       L1    12  0.42
      P1  H  6934  6947       L1    12  0.08
      P1  H  7989  7998       L1    19  0.67

> <Gold.Chemscore.Hbond.Weighted>
-8.1672

> <Gold.Chemscore.Metal.Weighted>
-0.0000

> <Gold.Chemscore.Lipo.Weighted>
-8.4051

> <Gold.Chemscore.Internal_Hbond.Weighted>
0.0000

> <Gold.Chemscore.DEClash.Weighted>
0.0089

> <Gold.Chemscore.DEInternal.Weighted>
1.2747

> <Gold.Chemscore.Rot.Weighted>
4.0130

> <Gold.Chemscore.Internal.Correction.Weighted>
   9.000000E+99

> <Gold.Protein.RotatedTorsions>
[ 6907 6896 6895 6894 ] final   55.41 input  -60.11 | X-H torsion
[ 7974 7965 7964 7962 ] final  -69.62 input  175.53 | X-H torsion
[ 8008 7997 7996 7995 ] final -100.41 input   59.86 | X-H torsion
[ 10167 10162 10161 10158 ] final  -33.13 input  -65.29 | X-H torsion
[ 10718 10713 10712 10709 ] final -108.96 input   66.30 | X-H torsion
[ 10763 10752 10751 10750 ] final   36.61 input  -60.55 | X-H torsion
[ 11005 11000 10999 10996 ] final  -53.91 input  -57.11 | X-H torsion

> <Gold.Protein.ActiveResidues>
 VAL166  LYS551  ARG553  GLY616  TRP617  ASP618  TYR619  PRO620  LYS621  CYS622 
 ASP623  PHE694  ASN695  SER759  ASP760  ASP761  ALA762  ILE779  LEU786  VAL792 
 PHE793  MET794  SER795  GLU796  ALA797  LYS798  CYS799  TRP800  GLU811  SER814 

> <Gold.Protein.RotatedAtoms>
  152.3536  134.6972  160.0228 H   0  0  0  0  0  0  0  0  0  0  0  0  # atno 6907 bound_to 6896
  151.7318  133.3312  159.3350 H   0  0  0  0  0  0  0  0  0  0  0  0  # atno 6908 bound_to 6896
  150.7556  134.6290  159.6221 H   0  0  0  0  0  0  0  0  0  0  0  0  # atno 6909 bound_to 6896
  145.7014  140.9115  143.0729 H   0  0  0  0  0  0  0  0  0  0  0  0  # atno 7974 bound_to 7965
  154.8283  140.0441  157.1459 H   0  0  0  0  0  0  0  0  0  0  0  0  # atno 8008 bound_to 7997
  154.9182  140.3023  155.5210 H   0  0  0  0  0  0  0  0  0  0  0  0  # atno 8009 bound_to 7997
  156.2985  140.2345  156.4229 H   0  0  0  0  0  0  0  0  0  0  0  0  # atno 8010 bound_to 7997
  140.7209  143.3643  151.1902 H   0  0  0  0  0  0  0  0  0  0  0  0  # atno 10167 bound_to 10162
  156.0512  130.5739  150.8033 H   0  0  0  0  0  0  0  0  0  0  0  0  # atno 10718 bound_to 10713
  153.0070  135.6301  154.2014 H   0  0  0  0  0  0  0  0  0  0  0  0  # atno 10763 bound_to 10752
  154.1757  135.2816  155.3069 H   0  0  0  0  0  0  0  0  0  0  0  0  # atno 10764 bound_to 10752
  154.5874  135.5628  153.7304 H   0  0  0  0  0  0  0  0  0  0  0  0  # atno 10765 bound_to 10752
  141.1000  133.6619  156.4242 H   0  0  0  0  0  0  0  0  0  0  0  0  # atno 11005 bound_to 11000
  144.6967  139.8952  143.7455 LP  0  0  0  0  0  0  0  0  0  0  0  0  # atno 17320 bound_to 7965
  146.0794  139.3782  143.0473 LP  0  0  0  0  0  0  0  0  0  0  0  0  # atno 17321 bound_to 7965
  139.7201  143.9237  152.2982 LP  0  0  0  0  0  0  0  0  0  0  0  0  # atno 17342 bound_to 10162
  139.8991  144.6922  150.8685 LP  0  0  0  0  0  0  0  0  0  0  0  0  # atno 17343 bound_to 10162
  157.5440  131.0942  150.9788 LP  0  0  0  0  0  0  0  0  0  0  0  0  # atno 17370 bound_to 10713
  157.0064  130.5620  149.5316 LP  0  0  0  0  0  0  0  0  0  0  0  0  # atno 17371 bound_to 10713
  140.5046  134.6453  157.5261 LP  0  0  0  0  0  0  0  0  0  0  0  0  # atno 17394 bound_to 11000
  139.9848  134.7079  155.9794 LP  0  0  0  0  0  0  0  0  0  0  0  0  # atno 17395 bound_to 11000

$$$$
