AV-unprocessed.smi:2451|AV-procd|sdf|9681|dock1
  -GOLD-   2272013323D 1   1.00000     0.00000
 Structure written by MMmdl.
 37 38  0  0  0  0  0  0  0  0  2 V2000
  152.2632  144.7059  157.9938 C   0  0  0  0  0  0  0  0  0  0  0  0
  151.2656  144.0065  158.9472 C   0  0  2  0  0  0  0  0  0  0  0  0
  151.6012  144.3042  160.4292 C   0  0  0  0  0  0  0  0  0  0  0  0
  152.7976  143.4505  160.8963 C   0  0  0  0  0  0  0  0  0  0  0  0
  152.5664  141.9392  160.6641 C   0  0  0  0  0  0  0  0  0  0  0  0
  152.2349  141.5808  159.1952 C   0  0  1  0  0  0  0  0  0  0  0  0
  151.8830  140.1694  159.1166 N   0  5  0  0  0  0  0  0  0  0  0  0
  152.9276  139.1224  158.4535 S   0  0  0  0  0  0  0  0  0  0  0  0
  154.3047  139.3081  158.9399 O   0  0  0  0  0  0  0  0  0  0  0  0
  152.4076  137.7453  158.4324 O   0  0  0  0  0  0  0  0  0  0  0  0
  152.9215  139.7021  156.7036 C   0  0  0  0  0  0  0  0  0  0  0  0
  152.3347  138.6452  155.8111 C   0  0  0  0  0  0  0  0  0  0  0  0
  151.1989  138.7372  154.9594 C   0  0  0  0  0  0  0  0  0  0  0  0
  151.1252  137.4988  154.3905 C   0  0  0  0  0  0  0  0  0  0  0  0
  152.1324  136.7084  154.8395 O   0  0  0  0  0  0  0  0  0  0  0  0
  152.9015  137.4500  155.7434 N   0  0  0  0  0  0  0  0  0  0  0  0
  151.0558  142.4744  158.6854 C   0  0  2  0  0  0  0  0  0  0  0  0
  150.6632  142.2026  157.2127 C   0  0  0  0  0  0  0  0  0  0  0  0
  153.2670  144.2873  158.0649 H   0  0  0  0  0  0  0  0  0  0  0  0
  152.3379  145.7688  158.2236 H   0  0  0  0  0  0  0  0  0  0  0  0
  151.9461  144.6309  156.9542 H   0  0  0  0  0  0  0  0  0  0  0  0
  150.3046  144.4863  158.7566 H   0  0  0  0  0  0  0  0  0  0  0  0
  151.8066  145.3648  160.5768 H   0  0  0  0  0  0  0  0  0  0  0  0
  150.7343  144.0711  161.0489 H   0  0  0  0  0  0  0  0  0  0  0  0
  153.7083  143.7771  160.3911 H   0  0  0  0  0  0  0  0  0  0  0  0
  152.9719  143.6277  161.9579 H   0  0  0  0  0  0  0  0  0  0  0  0
  153.4488  141.3854  160.9873 H   0  0  0  0  0  0  0  0  0  0  0  0
  151.7508  141.6125  161.3114 H   0  0  0  0  0  0  0  0  0  0  0  0
  153.1129  141.8127  158.5910 H   0  0  0  0  0  0  0  0  0  0  0  0
  152.3427  140.6237  156.6514 H   0  0  0  0  0  0  0  0  0  0  0  0
  153.9479  139.9374  156.4208 H   0  0  0  0  0  0  0  0  0  0  0  0
  150.5401  139.5777  154.7997 H   0  0  0  0  0  0  0  0  0  0  0  0
  150.4485  137.0476  153.6801 H   0  0  0  0  0  0  0  0  0  0  0  0
  150.1832  142.1974  159.2803 H   0  0  0  0  0  0  0  0  0  0  0  0
  151.4939  142.3583  156.5223 H   0  0  0  0  0  0  0  0  0  0  0  0
  149.8544  142.8641  156.9020 H   0  0  0  0  0  0  0  0  0  0  0  0
  150.3034  141.1830  157.0634 H   0  0  0  0  0  0  0  0  0  0  0  0
  1  2  1  0  0  0  0
  1 19  1  0  0  0  0
  1 20  1  0  0  0  0
  1 21  1  0  0  0  0
  2 17  1  0  0  0  0
  2  3  1  0  0  0  0
  2 22  1  0  0  0  0
  3  4  1  0  0  0  0
  3 23  1  0  0  0  0
  3 24  1  0  0  0  0
  4  5  1  0  0  0  0
  4 25  1  0  0  0  0
  4 26  1  0  0  0  0
  5  6  1  0  0  0  0
  5 27  1  0  0  0  0
  5 28  1  0  0  0  0
  6  7  1  0  0  0  0
  6 17  1  0  0  0  0
  6 29  1  0  0  0  0
  7  8  1  0  0  0  0
  8  9  2  0  0  0  0
  8 10  2  0  0  0  0
  8 11  1  0  0  0  0
 11 12  1  0  0  0  0
 11 30  1  0  0  0  0
 11 31  1  0  0  0  0
 12 16  2  0  0  0  0
 12 13  1  0  0  0  0
 13 14  2  0  0  0  0
 13 32  1  0  0  0  0
 14 15  1  0  0  0  0
 14 33  1  0  0  0  0
 15 16  1  0  0  0  0
 17 18  1  0  0  0  0
 17 34  1  0  0  0  0
 18 35  1  0  0  0  0
 18 36  1  0  0  0  0
 18 37  1  0  0  0  0
M  CHG  1   7  -1
M  END
> <s_m_source_file>
AV-unprocessed.smi

> <i_m_source_file_index>
2451

> <i_lp_mmshare_version>
43012

> <i_f3d_flags>
0

> <s_epik_input>
W0NIM11bQ0BASF0xW0NIMl1bQ0gyXVtDSDJdW0NASF0oW0NASF0xW0NIM10pW05IXVMoPU8pKD1PKVtDSDJdYzJbY0hdW2NIXW9uMg==

> <s_epik_cmdline>
J2VwaWtfcHl0aG9uJywgJy1waCcsICc3LjAnLCAnLXRuJywgJzgnLCAnLW1hJywgJzIwMCcsICctbWV0YWxfYmluZGluZycsICctaW1hZScsICc8aW5maWxlLm1hZT4nLCAnLW9tYWUnLCAnPG91dGZpbGUubWFlPic=

> <r_lp_tautomer_probability>
1

> <r_epik_Ionization_Penalty>
5.22693

> <r_epik_Ionization_Penalty_Charging>
5.22693

> <r_epik_Ionization_Penalty_Neutral>
2.67702e-10

> <r_epik_State_Penalty>
5.22685

> <r_epik_Charging_Adjusted_Penalty>
10.4538

> <i_epik_Tot_Q>
-1

> <i_epik_Tot_abs_Q>
1

> <r_epik_Metal_State_Penalty>
1.28716

> <b_epik_Metal_Only>
1

> <s_lp_Force_Field>
OPLS_2005

> <r_lp_Energy>
14.4343

> <b_lp_Chiralities_Consistent>
1

> <s_lp_Variant>
AV-unprocessed.smi:2451-13

> <Gold.Version>
5.8.1

> <Gold.Id.Protein>
6NUR|6NUR_protein|mol2

> <Gold.PLP.Fitness>
43.6595

> <Gold.PLP.PLP>
-34.8681

> <Gold.PLP.part.hbond>
-2.9982

> <Gold.PLP.part.metal>
0.0000

> <Gold.PLP.part.buried>
-2.0462

> <Gold.PLP.part.nonpolar>
-30.5206

> <Gold.PLP.part.repulsive>
0.1401

> <Gold.PLP.ligand.clash>
0.0000

> <Gold.PLP.ligand.torsion>
0.7014

> <Gold.PLP.Chemscore.Hbond>
1.9920

> <Gold.PLP.Chemscore.CHOScore>
1.0630

> <Gold.PLP.Chemscore.Metal>
0.0000

> <Gold.Chemscore.Hbonds>
donor molecule, donor type, donor heavy atom, donor atom, acceptor molecule, acceptor atom, score
      P1  H  7997  8010       L1     9  0.95
      P1  H 10752 10764       L1    15  0.66
      L1  C    14    33       P1  7948  0.67
      L1  C    14    33       P1  7949  0.40

> <Gold.PLP.Chemscore.Internal.Correction>
1.0292

> <Gold.Rescore>
     Score         DG    S(hbond)    S(metal)    S(lipo)     H(rot)  DE(clash)    DE(int)     intcor
     15.32     -17.73       0.94        0.00     108.50       1.40       0.34       2.08       ----

> <Gold.Chemscore.Fitness>
15.3168

> <Gold.Chemscore.DG>
-17.7329

> <Gold.Chemscore.ZeroCoef>
-5.4800

> <Gold.Chemscore.Hbond>
0.9399

> <Gold.Chemscore.Metal>
0.0000

> <Gold.Chemscore.Lipo>
108.4956

> <Gold.Chemscore.Internal_Hbond>
0.0000

> <Gold.Chemscore.DEClash>
0.3408

> <Gold.Chemscore.DEInternal>
2.0752

> <Gold.Chemscore.Rot>
1.3986

> <Gold.Chemscore.Internal.Correction>
   9.000000E+99

> <Gold.Chemscore.Hbonds>
donor molecule, donor type, donor heavy atom, donor atom, acceptor molecule, acceptor atom, score
      P1  H  7997  8010       L1     9  0.21
      P1  H 10752 10764       L1    15  0.45

> <Gold.Chemscore.Hbond.Weighted>
-3.1393

> <Gold.Chemscore.Metal.Weighted>
-0.0000

> <Gold.Chemscore.Lipo.Weighted>
-12.6940

> <Gold.Chemscore.Internal_Hbond.Weighted>
0.0000

> <Gold.Chemscore.DEClash.Weighted>
0.3408

> <Gold.Chemscore.DEInternal.Weighted>
2.0752

> <Gold.Chemscore.Rot.Weighted>
3.5804

> <Gold.Chemscore.Internal.Correction.Weighted>
   9.000000E+99

> <Gold.Protein.RotatedTorsions>
[ 6907 6896 6895 6894 ] final   92.56 input  -60.11 | X-H torsion
[ 7974 7965 7964 7962 ] final  -32.03 input  175.53 | X-H torsion
[ 8008 7997 7996 7995 ] final    0.67 input   59.86 | X-H torsion
[ 10167 10162 10161 10158 ] final  -11.75 input  -65.29 | X-H torsion
[ 10718 10713 10712 10709 ] final  130.24 input   66.30 | X-H torsion
[ 10763 10752 10751 10750 ] final  -80.32 input  -60.55 | X-H torsion
[ 11005 11000 10999 10996 ] final   30.28 input  -57.11 | X-H torsion

> <Gold.Protein.ActiveResidues>
 VAL166  LYS551  ARG553  GLY616  TRP617  ASP618  TYR619  PRO620  LYS621  CYS622 
 ASP623  PHE694  ASN695  SER759  ASP760  ASP761  ALA762  ILE779  LEU786  VAL792 
 PHE793  MET794  SER795  GLU796  ALA797  LYS798  CYS799  TRP800  GLU811  SER814 

> <Gold.Protein.RotatedAtoms>
  152.5452  134.1483  159.8507 H   0  0  0  0  0  0  0  0  0  0  0  0  # atno 6907 bound_to 6896
  151.1512  133.4899  159.2602 H   0  0  0  0  0  0  0  0  0  0  0  0  # atno 6908 bound_to 6896
  151.1470  135.0219  159.8706 H   0  0  0  0  0  0  0  0  0  0  0  0  # atno 6909 bound_to 6896
  146.1021  140.5742  142.8816 H   0  0  0  0  0  0  0  0  0  0  0  0  # atno 7974 bound_to 7965
  154.6707  140.2611  155.7010 H   0  0  0  0  0  0  0  0  0  0  0  0  # atno 8008 bound_to 7997
  156.2658  140.2830  156.1137 H   0  0  0  0  0  0  0  0  0  0  0  0  # atno 8009 bound_to 7997
  155.1172  140.0376  157.2730 H   0  0  0  0  0  0  0  0  0  0  0  0  # atno 8010 bound_to 7997
  140.7145  143.5606  150.9199 H   0  0  0  0  0  0  0  0  0  0  0  0  # atno 10167 bound_to 10162
  157.5080  131.1096  150.9333 H   0  0  0  0  0  0  0  0  0  0  0  0  # atno 10718 bound_to 10713
  154.5497  135.5665  153.6911 H   0  0  0  0  0  0  0  0  0  0  0  0  # atno 10763 bound_to 10752
  152.9986  135.6248  154.2390 H   0  0  0  0  0  0  0  0  0  0  0  0  # atno 10764 bound_to 10752
  154.2324  135.2865  155.2864 H   0  0  0  0  0  0  0  0  0  0  0  0  # atno 10765 bound_to 10752
  140.2961  134.2810  155.7764 H   0  0  0  0  0  0  0  0  0  0  0  0  # atno 11005 bound_to 11000
  144.7441  140.5022  143.6848 LP  0  0  0  0  0  0  0  0  0  0  0  0  # atno 17320 bound_to 7965
  145.5833  139.1490  143.3223 LP  0  0  0  0  0  0  0  0  0  0  0  0  # atno 17321 bound_to 7965
  139.9332  143.6469  152.3071 LP  0  0  0  0  0  0  0  0  0  0  0  0  # atno 17342 bound_to 10162
  139.6927  144.7645  151.1410 LP  0  0  0  0  0  0  0  0  0  0  0  0  # atno 17343 bound_to 10162
  156.9982  130.5590  149.5309 LP  0  0  0  0  0  0  0  0  0  0  0  0  # atno 17370 bound_to 10713
  156.0271  130.5364  150.8435 LP  0  0  0  0  0  0  0  0  0  0  0  0  # atno 17371 bound_to 10713
  141.2137  133.7616  156.9697 LP  0  0  0  0  0  0  0  0  0  0  0  0  # atno 17394 bound_to 11000
  140.1152  134.9452  157.2123 LP  0  0  0  0  0  0  0  0  0  0  0  0  # atno 17395 bound_to 11000

$$$$
