AV-unprocessed.smi:1669|AV-procd|sdf|6685|dock7
  -GOLD-   22720 7403D 1   1.00000     0.00000
 Structure written by MMmdl.
 48 50  0  0  0  0  0  0  0  0  2 V2000
  145.7902  136.4370  153.2947 C   0  0  0  0  0  0  0  0  0  0  0  0
  146.2761  136.8823  151.9687 N   0  3  1  0  0  0  0  0  0  0  0  0
  145.4098  136.3941  150.8671 C   0  0  0  0  0  0  0  0  0  0  0  0
  145.2217  134.8875  150.9219 C   0  0  0  0  0  0  0  0  0  0  0  0
  143.9392  134.3464  151.1529 C   0  0  0  0  0  0  0  0  0  0  0  0
  143.7609  132.9510  151.2207 C   0  0  0  0  0  0  0  0  0  0  0  0
  144.8632  132.0910  151.0532 C   0  0  0  0  0  0  0  0  0  0  0  0
  146.1437  132.6268  150.8165 C   0  0  0  0  0  0  0  0  0  0  0  0
  146.3231  134.0221  150.7500 C   0  0  0  0  0  0  0  0  0  0  0  0
  146.5435  138.3440  151.9169 C   0  0  0  0  0  0  0  0  0  0  0  0
  147.5119  138.7866  153.0289 C   0  0  1  0  0  0  0  0  0  0  0  0
  148.7049  138.0350  152.9098 O   0  0  0  0  0  0  0  0  0  0  0  0
  147.8391  140.2900  152.9383 C   0  0  0  0  0  0  0  0  0  0  0  0
  148.6136  140.7609  154.0792 N   0  0  0  0  0  0  0  0  0  0  0  0
  148.1915  141.4761  155.1533 C   0  0  0  0  0  0  0  0  0  0  0  0
  146.7652  141.9013  155.3242 C   0  0  0  0  0  0  0  0  0  0  0  0
  145.8792  140.8063  155.4122 O   0  0  0  0  0  0  0  0  0  0  0  0
  149.1287  141.7784  156.0522 N   0  0  0  0  0  0  0  0  0  0  0  0
  150.2634  141.2021  155.5160 C   0  0  0  0  0  0  0  0  0  0  0  0
  151.5926  141.1708  155.9950 C   0  0  0  0  0  0  0  0  0  0  0  0
  152.5996  140.5095  155.2619 C   0  0  0  0  0  0  0  0  0  0  0  0
  152.2933  139.8721  154.0421 C   0  0  0  0  0  0  0  0  0  0  0  0
  150.9757  139.8924  153.5463 C   0  0  0  0  0  0  0  0  0  0  0  0
  149.9744  140.5543  154.2817 C   0  0  0  0  0  0  0  0  0  0  0  0
  144.8053  136.8536  153.5092 H   0  0  0  0  0  0  0  0  0  0  0  0
  146.4705  136.7439  154.0890 H   0  0  0  0  0  0  0  0  0  0  0  0
  145.7152  135.3498  153.3319 H   0  0  0  0  0  0  0  0  0  0  0  0
  144.4216  136.8503  150.9430 H   0  0  0  0  0  0  0  0  0  0  0  0
  145.8214  136.6992  149.9037 H   0  0  0  0  0  0  0  0  0  0  0  0
  143.0894  135.0002  151.2851 H   0  0  0  0  0  0  0  0  0  0  0  0
  142.7785  132.5403  151.4020 H   0  0  0  0  0  0  0  0  0  0  0  0
  144.7266  131.0208  151.1051 H   0  0  0  0  0  0  0  0  0  0  0  0
  146.9886  131.9666  150.6871 H   0  0  0  0  0  0  0  0  0  0  0  0
  147.3095  134.4242  150.5711 H   0  0  0  0  0  0  0  0  0  0  0  0
  146.9737  138.6283  150.9566 H   0  0  0  0  0  0  0  0  0  0  0  0
  145.6002  138.8878  151.9890 H   0  0  0  0  0  0  0  0  0  0  0  0
  147.0789  138.5786  154.0075 H   0  0  0  0  0  0  0  0  0  0  0  0
  148.6791  137.5578  152.0937 H   0  0  0  0  0  0  0  0  0  0  0  0
  148.3730  140.5112  152.0143 H   0  0  0  0  0  0  0  0  0  0  0  0
  146.9158  140.8691  152.8966 H   0  0  0  0  0  0  0  0  0  0  0  0
  146.6732  142.4957  156.2340 H   0  0  0  0  0  0  0  0  0  0  0  0
  146.4667  142.5477  154.4990 H   0  0  0  0  0  0  0  0  0  0  0  0
  145.4495  140.6998  154.5776 H   0  0  0  0  0  0  0  0  0  0  0  0
  151.8374  141.6558  156.9285 H   0  0  0  0  0  0  0  0  0  0  0  0
  153.6121  140.4911  155.6377 H   0  0  0  0  0  0  0  0  0  0  0  0
  153.0710  139.3676  153.4876 H   0  0  0  0  0  0  0  0  0  0  0  0
  150.7387  139.4047  152.6126 H   0  0  0  0  0  0  0  0  0  0  0  0
  147.1695  136.4326  151.8247 H   0  0  0  0  0  0  0  0  0  0  0  0
  1  2  1  0  0  0  0
  1 25  1  0  0  0  0
  1 26  1  0  0  0  0
  1 27  1  0  0  0  0
  2  3  1  0  0  0  0
  2 10  1  0  0  0  0
  2 48  1  0  0  0  0
  3  4  1  0  0  0  0
  3 28  1  0  0  0  0
  3 29  1  0  0  0  0
  4  9  1  0  0  0  0
  4  5  2  0  0  0  0
  5  6  1  0  0  0  0
  5 30  1  0  0  0  0
  6  7  2  0  0  0  0
  6 31  1  0  0  0  0
  7  8  1  0  0  0  0
  7 32  1  0  0  0  0
  8  9  2  0  0  0  0
  8 33  1  0  0  0  0
  9 34  1  0  0  0  0
 10 11  1  0  0  0  0
 10 35  1  0  0  0  0
 10 36  1  0  0  0  0
 11 12  1  0  0  0  0
 11 13  1  0  0  0  0
 11 37  1  0  0  0  0
 12 38  1  0  0  0  0
 13 14  1  0  0  0  0
 13 39  1  0  0  0  0
 13 40  1  0  0  0  0
 14 24  1  0  0  0  0
 14 15  1  0  0  0  0
 15 16  1  0  0  0  0
 15 18  2  0  0  0  0
 16 17  1  0  0  0  0
 16 41  1  0  0  0  0
 16 42  1  0  0  0  0
 17 43  1  0  0  0  0
 18 19  1  0  0  0  0
 19 24  2  0  0  0  0
 19 20  1  0  0  0  0
 20 21  2  0  0  0  0
 20 44  1  0  0  0  0
 21 22  1  0  0  0  0
 21 45  1  0  0  0  0
 22 23  2  0  0  0  0
 22 46  1  0  0  0  0
 23 24  1  0  0  0  0
 23 47  1  0  0  0  0
M  CHG  1   2   1
M  END
> <s_m_source_file>
AV-unprocessed.smi

> <i_m_source_file_index>
1669

> <i_lp_mmshare_version>
43012

> <i_f3d_flags>
0

> <s_epik_input>
W2NIXTFbY0hdW2NIXVtjSF1bY0hdYzFbQ0gyXU4oW0NIM10pW0NIMl1bQ0BIXShbT0hdKVtDSDJdbihjKG4yKVtDSDJdW09IXSljKGMyMylbY0hdW2NIXVtjSF1bY0hdMw==

> <s_epik_cmdline>
J2VwaWtfcHl0aG9uJywgJy1waCcsICc3LjAnLCAnLXRuJywgJzgnLCAnLW1hJywgJzIwMCcsICctbWV0YWxfYmluZGluZycsICctaW1hZScsICc8aW5maWxlLm1hZT4nLCAnLW9tYWUnLCAnPG91dGZpbGUubWFlPic=

> <r_epik_Ionization_Penalty>
0.0949884

> <r_epik_Ionization_Penalty_Charging>
0.0475377

> <r_epik_Ionization_Penalty_Neutral>
0.0474507

> <r_epik_State_Penalty>
0.078247

> <r_epik_Charging_Adjusted_Penalty>
0.125785

> <i_epik_Tot_Q>
1

> <i_epik_Tot_abs_Q>
1

> <r_epik_Metal_State_Penalty>
0.0403451

> <b_epik_Metal_Only>
0

> <s_lp_Force_Field>
OPLS_2005

> <r_lp_Energy>
15.7652

> <b_lp_Chiralities_Consistent>
1

> <s_lp_Variant>
AV-unprocessed.smi:1669-3

> <Gold.Version>
5.8.1

> <Gold.Id.Protein>
6NUR|6NUR_protein|mol2

> <Gold.PLP.Fitness>
56.9404

> <Gold.PLP.PLP>
-45.1789

> <Gold.PLP.part.hbond>
-3.0000

> <Gold.PLP.part.metal>
0.0000

> <Gold.PLP.part.buried>
-1.6173

> <Gold.PLP.part.nonpolar>
-42.5040

> <Gold.PLP.part.repulsive>
1.4216

> <Gold.PLP.ligand.clash>
0.0000

> <Gold.PLP.ligand.torsion>
0.2981

> <Gold.PLP.Chemscore.Hbond>
4.0000

> <Gold.PLP.Chemscore.CHOScore>
0.0000

> <Gold.PLP.Chemscore.Metal>
0.0000

> <Gold.Chemscore.Hbonds>
donor molecule, donor type, donor heavy atom, donor atom, acceptor molecule, acceptor atom, score
      L1  H     2    48       P1  7948  2.00
      L1  H    12    38       P1  7948  0.32

> <Gold.PLP.Chemscore.Internal.Correction>
0.3576

> <Gold.Rescore>
     Score         DG    S(hbond)    S(metal)    S(lipo)     H(rot)  DE(clash)    DE(int)     intcor
     19.68     -20.57       2.98        0.00     113.24       3.17       0.44       0.45       ----

> <Gold.Chemscore.Fitness>
19.6753

> <Gold.Chemscore.DG>
-20.5661

> <Gold.Chemscore.ZeroCoef>
-5.4800

> <Gold.Chemscore.Hbond>
2.9822

> <Gold.Chemscore.Metal>
0.0000

> <Gold.Chemscore.Lipo>
113.2356

> <Gold.Chemscore.Internal_Hbond>
0.0000

> <Gold.Chemscore.DEClash>
0.4441

> <Gold.Chemscore.DEInternal>
0.4467

> <Gold.Chemscore.Rot>
3.1731

> <Gold.Chemscore.Internal.Correction>
   9.000000E+99

> <Gold.Chemscore.Hbonds>
donor molecule, donor type, donor heavy atom, donor atom, acceptor molecule, acceptor atom, score
      L1  H     2    48       P1  7948  0.99
      L1  H    12    38       P1  7948  0.31

> <Gold.Chemscore.Hbond.Weighted>
-9.9606

> <Gold.Chemscore.Metal.Weighted>
-0.0000

> <Gold.Chemscore.Lipo.Weighted>
-13.2486

> <Gold.Chemscore.Internal_Hbond.Weighted>
0.0000

> <Gold.Chemscore.DEClash.Weighted>
0.4441

> <Gold.Chemscore.DEInternal.Weighted>
0.4467

> <Gold.Chemscore.Rot.Weighted>
8.1230

> <Gold.Chemscore.Internal.Correction.Weighted>
   9.000000E+99

> <Gold.Protein.RotatedTorsions>
[ 6907 6896 6895 6894 ] final  121.97 input  -60.11 | X-H torsion
[ 7974 7965 7964 7962 ] final -163.48 input  175.53 | X-H torsion
[ 8008 7997 7996 7995 ] final -150.20 input   59.86 | X-H torsion
[ 10167 10162 10161 10158 ] final   66.00 input  -65.29 | X-H torsion
[ 10718 10713 10712 10709 ] final -168.32 input   66.30 | X-H torsion
[ 10763 10752 10751 10750 ] final  -82.15 input  -60.55 | X-H torsion
[ 11005 11000 10999 10996 ] final -149.48 input  -57.11 | X-H torsion

> <Gold.Protein.ActiveResidues>
 VAL166  LYS551  ARG553  GLY616  TRP617  ASP618  TYR619  PRO620  LYS621  CYS622 
 ASP623  PHE694  ASN695  SER759  ASP760  ASP761  ALA762  ILE779  LEU786  VAL792 
 PHE793  MET794  SER795  GLU796  ALA797  LYS798  CYS799  TRP800  GLU811  SER814 

> <Gold.Protein.RotatedAtoms>
  152.4280  133.7229  159.6542 H   0  0  0  0  0  0  0  0  0  0  0  0  # atno 6907 bound_to 6896
  150.8158  133.8330  159.3167 H   0  0  0  0  0  0  0  0  0  0  0  0  # atno 6908 bound_to 6896
  151.6027  135.1048  160.0115 H   0  0  0  0  0  0  0  0  0  0  0  0  # atno 6909 bound_to 6896
  144.7325  140.3100  143.6189 H   0  0  0  0  0  0  0  0  0  0  0  0  # atno 7974 bound_to 7965
  155.6198  140.0680  157.2681 H   0  0  0  0  0  0  0  0  0  0  0  0  # atno 8008 bound_to 7997
  154.4232  140.1786  156.1408 H   0  0  0  0  0  0  0  0  0  0  0  0  # atno 8009 bound_to 7997
  156.0018  140.3335  155.6857 H   0  0  0  0  0  0  0  0  0  0  0  0  # atno 8010 bound_to 7997
  140.1052  144.4868  150.7012 H   0  0  0  0  0  0  0  0  0  0  0  0  # atno 10167 bound_to 10162
  156.6952  130.9175  151.3073 H   0  0  0  0  0  0  0  0  0  0  0  0  # atno 10718 bound_to 10713
  154.5723  135.5601  153.7106 H   0  0  0  0  0  0  0  0  0  0  0  0  # atno 10763 bound_to 10752
  153.0052  135.6300  154.2097 H   0  0  0  0  0  0  0  0  0  0  0  0  # atno 10764 bound_to 10752
  154.2037  135.2876  155.2962 H   0  0  0  0  0  0  0  0  0  0  0  0  # atno 10765 bound_to 10752
  140.7503  134.3414  157.5127 H   0  0  0  0  0  0  0  0  0  0  0  0  # atno 11005 bound_to 11000
  145.7674  139.1845  143.2232 LP  0  0  0  0  0  0  0  0  0  0  0  0  # atno 17320 bound_to 7965
  146.0938  140.7625  142.9582 LP  0  0  0  0  0  0  0  0  0  0  0  0  # atno 17321 bound_to 7965
  140.6956  143.2402  151.5010 LP  0  0  0  0  0  0  0  0  0  0  0  0  # atno 17342 bound_to 10162
  139.5649  144.2066  152.1750 LP  0  0  0  0  0  0  0  0  0  0  0  0  # atno 17343 bound_to 10162
  157.6994  130.9316  150.0740 LP  0  0  0  0  0  0  0  0  0  0  0  0  # atno 17370 bound_to 10713
  156.1769  130.3648  149.9088 LP  0  0  0  0  0  0  0  0  0  0  0  0  # atno 17371 bound_to 10713
  139.8789  134.9138  156.3091 LP  0  0  0  0  0  0  0  0  0  0  0  0  # atno 17394 bound_to 11000
  140.9757  133.7299  156.0598 LP  0  0  0  0  0  0  0  0  0  0  0  0  # atno 17395 bound_to 11000

$$$$
