AV-unprocessed.smi:1768|AV-procd|sdf|7149|dock7
  -GOLD-   22720 8383D 1   1.00000     0.00000
 Structure written by MMmdl.
 32 33  0  0  0  0  0  0  0  0  2 V2000
  151.1748  141.3313  156.5055 C   0  0  0  0  0  0  0  0  0  0  0  0
  151.4742  140.0369  155.8306 C   0  0  0  0  0  0  0  0  0  0  0  0
  152.6758  139.7474  155.3257 N   0  0  0  0  0  0  0  0  0  0  0  0
  152.7106  138.4847  154.7518 N   0  0  0  0  0  0  0  0  0  0  0  0
  151.5415  137.8345  154.8392 C   0  0  0  0  0  0  0  0  0  0  0  0
  151.3671  136.5982  154.3435 N   0  5  0  0  0  0  0  0  0  0  0  0
  150.6125  135.7000  155.0171 C   0  0  0  0  0  0  0  0  0  0  0  0
  150.8771  135.2001  156.1131 O   0  0  0  0  0  0  0  0  0  0  0  0
  149.4827  135.3594  154.3804 N   0  0  0  0  0  0  0  0  0  0  0  0
  148.4697  134.4216  154.8600 C   0  0  2  0  0  0  0  0  0  0  0  0
  149.1468  133.1152  155.3114 C   0  0  0  0  0  0  0  0  0  0  0  0
  147.4340  134.1857  153.7439 C   0  0  1  0  0  0  0  0  0  0  0  0
  147.9403  133.3548  152.5631 C   0  0  0  0  0  0  0  0  0  0  0  0
  146.6781  132.7246  151.9941 C   0  0  0  0  0  0  0  0  0  0  0  0
  145.6267  132.9432  153.0848 C   0  0  0  0  0  0  0  0  0  0  0  0
  146.3581  133.3892  154.2170 O   0  0  0  0  0  0  0  0  0  0  0  0
  150.2760  138.7686  155.6368 S   0  0  0  0  0  0  0  0  0  0  0  0
  151.5709  141.3216  157.5211 H   0  0  0  0  0  0  0  0  0  0  0  0
  150.0979  141.4946  156.5505 H   0  0  0  0  0  0  0  0  0  0  0  0
  151.6297  142.1569  155.9578 H   0  0  0  0  0  0  0  0  0  0  0  0
  149.3074  135.7977  153.4883 H   0  0  0  0  0  0  0  0  0  0  0  0
  147.9533  134.8614  155.7151 H   0  0  0  0  0  0  0  0  0  0  0  0
  148.4198  132.4062  155.7071 H   0  0  0  0  0  0  0  0  0  0  0  0
  149.8771  133.3007  156.0997 H   0  0  0  0  0  0  0  0  0  0  0  0
  149.6674  132.6326  154.4837 H   0  0  0  0  0  0  0  0  0  0  0  0
  147.0361  135.1369  153.3840 H   0  0  0  0  0  0  0  0  0  0  0  0
  148.4803  133.9537  151.8291 H   0  0  0  0  0  0  0  0  0  0  0  0
  148.6112  132.5696  152.9148 H   0  0  0  0  0  0  0  0  0  0  0  0
  146.3731  133.2045  151.0637 H   0  0  0  0  0  0  0  0  0  0  0  0
  146.8320  131.6643  151.7907 H   0  0  0  0  0  0  0  0  0  0  0  0
  144.9202  133.7189  152.7863 H   0  0  0  0  0  0  0  0  0  0  0  0
  145.0633  132.0382  153.3127 H   0  0  0  0  0  0  0  0  0  0  0  0
  1  2  1  0  0  0  0
  1 18  1  0  0  0  0
  1 19  1  0  0  0  0
  1 20  1  0  0  0  0
  2 17  1  0  0  0  0
  2  3  2  0  0  0  0
  3  4  1  0  0  0  0
  4  5  2  0  0  0  0
  5  6  1  0  0  0  0
  5 17  1  0  0  0  0
  6  7  1  0  0  0  0
  7  8  2  0  0  0  0
  7  9  1  0  0  0  0
  9 10  1  0  0  0  0
  9 21  1  0  0  0  0
 10 11  1  0  0  0  0
 10 12  1  0  0  0  0
 10 22  1  0  0  0  0
 11 23  1  0  0  0  0
 11 24  1  0  0  0  0
 11 25  1  0  0  0  0
 12 16  1  0  0  0  0
 12 13  1  0  0  0  0
 12 26  1  0  0  0  0
 13 14  1  0  0  0  0
 13 27  1  0  0  0  0
 13 28  1  0  0  0  0
 14 15  1  0  0  0  0
 14 29  1  0  0  0  0
 14 30  1  0  0  0  0
 15 16  1  0  0  0  0
 15 31  1  0  0  0  0
 15 32  1  0  0  0  0
M  CHG  1   6  -1
M  END
> <s_m_source_file>
AV-unprocessed.smi

> <i_m_source_file_index>
1768

> <i_lp_mmshare_version>
43012

> <i_f3d_flags>
0

> <s_epik_input>
W0NIM11jMW5uYyhzMSlbTkhdQyg9TylbTkhdW0NASF0oW0NIM10pW0NAQEhdMltDSDJdW0NIMl1bQ0gyXU8y

> <s_epik_cmdline>
J2VwaWtfcHl0aG9uJywgJy1waCcsICc3LjAnLCAnLXRuJywgJzgnLCAnLW1hJywgJzIwMCcsICctbWV0YWxfYmluZGluZycsICctaW1hZScsICc8aW5maWxlLm1hZT4nLCAnLW9tYWUnLCAnPG91dGZpbGUubWFlPic=

> <r_lp_tautomer_probability>
1

> <r_epik_Ionization_Penalty>
4.3376

> <r_epik_Ionization_Penalty_Charging>
4.19392

> <r_epik_Ionization_Penalty_Neutral>
0.143681

> <r_epik_State_Penalty>
4.19342

> <r_epik_Charging_Adjusted_Penalty>
8.38735

> <i_epik_Tot_Q>
-1

> <i_epik_Tot_abs_Q>
1

> <r_epik_Metal_State_Penalty>
0.686065

> <b_epik_Metal_Only>
1

> <s_lp_Force_Field>
OPLS_2005

> <r_lp_Energy>
16.4236

> <b_lp_Chiralities_Consistent>
1

> <s_lp_Variant>
AV-unprocessed.smi:1768-7

> <Gold.Version>
5.8.1

> <Gold.Id.Protein>
6NUR|6NUR_protein|mol2

> <Gold.PLP.Fitness>
35.3387

> <Gold.PLP.PLP>
-25.4497

> <Gold.PLP.part.hbond>
-4.0000

> <Gold.PLP.part.metal>
0.0000

> <Gold.PLP.part.buried>
-1.5503

> <Gold.PLP.part.nonpolar>
-19.1935

> <Gold.PLP.part.repulsive>
1.2714

> <Gold.PLP.ligand.clash>
0.0000

> <Gold.PLP.ligand.torsion>
1.0738

> <Gold.PLP.Chemscore.Hbond>
4.0000

> <Gold.PLP.Chemscore.CHOScore>
0.0000

> <Gold.PLP.Chemscore.Metal>
0.0000

> <Gold.Chemscore.Hbonds>
donor molecule, donor type, donor heavy atom, donor atom, acceptor molecule, acceptor atom, score
      L1  H     9    21       P1  7948  1.00
      P1  H  7997  8009       L1     3  1.00
      P1  H 10752 10765       L1     6  1.80

> <Gold.PLP.Chemscore.Internal.Correction>
0.0367

> <Gold.Rescore>
     Score         DG    S(hbond)    S(metal)    S(lipo)     H(rot)  DE(clash)    DE(int)     intcor
     12.02     -14.58       2.23        0.00      42.09       1.28       0.07       2.48       ----

> <Gold.Chemscore.Fitness>
12.0211

> <Gold.Chemscore.DG>
-14.5771

> <Gold.Chemscore.ZeroCoef>
-5.4800

> <Gold.Chemscore.Hbond>
2.2286

> <Gold.Chemscore.Metal>
0.0000

> <Gold.Chemscore.Lipo>
42.0879

> <Gold.Chemscore.Internal_Hbond>
0.0000

> <Gold.Chemscore.DEClash>
0.0727

> <Gold.Chemscore.DEInternal>
2.4832

> <Gold.Chemscore.Rot>
1.2776

> <Gold.Chemscore.Internal.Correction>
   9.000000E+99

> <Gold.Chemscore.Hbonds>
donor molecule, donor type, donor heavy atom, donor atom, acceptor molecule, acceptor atom, score
      L1  H     9    21       P1  7948  0.55
      P1  H  7997  8009       L1     3  0.70
      P1  H 10752 10765       L1     6  0.15

> <Gold.Chemscore.Hbond.Weighted>
-7.4434

> <Gold.Chemscore.Metal.Weighted>
-0.0000

> <Gold.Chemscore.Lipo.Weighted>
-4.9243

> <Gold.Chemscore.Internal_Hbond.Weighted>
0.0000

> <Gold.Chemscore.DEClash.Weighted>
0.0727

> <Gold.Chemscore.DEInternal.Weighted>
2.4832

> <Gold.Chemscore.Rot.Weighted>
3.2706

> <Gold.Chemscore.Internal.Correction.Weighted>
   9.000000E+99

> <Gold.Protein.RotatedTorsions>
[ 6907 6896 6895 6894 ] final  128.98 input  -60.11 | X-H torsion
[ 7974 7965 7964 7962 ] final  -29.86 input  175.53 | X-H torsion
[ 8008 7997 7996 7995 ] final -142.89 input   59.86 | X-H torsion
[ 10167 10162 10161 10158 ] final  159.79 input  -65.29 | X-H torsion
[ 10718 10713 10712 10709 ] final   -1.15 input   66.30 | X-H torsion
[ 10763 10752 10751 10750 ] final  164.78 input  -60.55 | X-H torsion
[ 11005 11000 10999 10996 ] final  -65.17 input  -57.11 | X-H torsion

> <Gold.Protein.ActiveResidues>
 VAL166  LYS551  ARG553  GLY616  TRP617  ASP618  TYR619  PRO620  LYS621  CYS622 
 ASP623  PHE694  ASN695  SER759  ASP760  ASP761  ALA762  ILE779  LEU786  VAL792 
 PHE793  MET794  SER795  GLU796  ALA797  LYS798  CYS799  TRP800  GLU811  SER814 

> <Gold.Protein.RotatedAtoms>
  152.3668  133.6367  159.6056 H   0  0  0  0  0  0  0  0  0  0  0  0  # atno 6907 bound_to 6896
  150.7640  133.9335  159.3443 H   0  0  0  0  0  0  0  0  0  0  0  0  # atno 6908 bound_to 6896
  151.7164  135.0904  160.0328 H   0  0  0  0  0  0  0  0  0  0  0  0  # atno 6909 bound_to 6896
  146.1186  140.5466  142.8746 H   0  0  0  0  0  0  0  0  0  0  0  0  # atno 7974 bound_to 7965
  155.5016  140.0576  157.2938 H   0  0  0  0  0  0  0  0  0  0  0  0  # atno 8008 bound_to 7997
  154.4585  140.1985  156.0261 H   0  0  0  0  0  0  0  0  0  0  0  0  # atno 8009 bound_to 7997
  156.0845  140.3242  155.7740 H   0  0  0  0  0  0  0  0  0  0  0  0  # atno 8010 bound_to 7997
  139.4835  144.4697  151.8593 H   0  0  0  0  0  0  0  0  0  0  0  0  # atno 10167 bound_to 10162
  156.8099  130.5421  149.5710 H   0  0  0  0  0  0  0  0  0  0  0  0  # atno 10718 bound_to 10713
  154.3141  135.2757  155.2552 H   0  0  0  0  0  0  0  0  0  0  0  0  # atno 10763 bound_to 10752
  154.4934  135.5827  153.6480 H   0  0  0  0  0  0  0  0  0  0  0  0  # atno 10764 bound_to 10752
  152.9884  135.6140  154.3320 H   0  0  0  0  0  0  0  0  0  0  0  0  # atno 10765 bound_to 10752
  141.1446  133.6677  156.5945 H   0  0  0  0  0  0  0  0  0  0  0  0  # atno 11005 bound_to 11000
  144.7576  140.5344  143.6758 LP  0  0  0  0  0  0  0  0  0  0  0  0  # atno 17320 bound_to 7965
  145.5515  139.1477  143.3391 LP  0  0  0  0  0  0  0  0  0  0  0  0  # atno 17321 bound_to 7965
  140.4165  144.2301  150.5887 LP  0  0  0  0  0  0  0  0  0  0  0  0  # atno 17342 bound_to 10162
  140.4916  143.2345  151.8810 LP  0  0  0  0  0  0  0  0  0  0  0  0  # atno 17343 bound_to 10162
  156.1051  130.5998  150.9957 LP  0  0  0  0  0  0  0  0  0  0  0  0  # atno 17370 bound_to 10713
  157.6511  131.0897  150.8048 LP  0  0  0  0  0  0  0  0  0  0  0  0  # atno 17371 bound_to 10713
  140.3737  134.7584  157.4615 LP  0  0  0  0  0  0  0  0  0  0  0  0  # atno 17394 bound_to 11000
  140.0691  134.5888  155.8662 LP  0  0  0  0  0  0  0  0  0  0  0  0  # atno 17395 bound_to 11000

$$$$
