AV-unprocessed.smi:2507|AV-procd|sdf|9864|dock2
  -GOLD-   2272013493D 1   1.00000     0.00000
 Structure written by MMmdl.
 44 45  0  0  0  0  0  0  0  0  1 V2000
  141.3808  134.5333  153.1863 C   0  0  0  0  0  0  0  0  0  0  0  0
  142.6635  135.3682  153.2668 C   0  0  0  0  0  0  0  0  0  0  0  0
  143.5999  135.0717  152.1278 C   0  0  0  0  0  0  0  0  0  0  0  0
  143.5104  133.9175  151.4809 N   0  0  0  0  0  0  0  0  0  0  0  0
  144.4715  133.9683  150.5278 N   0  0  0  0  0  0  0  0  0  0  0  0
  144.6444  132.8421  149.6358 C   0  0  0  0  0  0  0  0  0  0  0  0
  145.1764  135.1542  150.5578 C   0  0  0  0  0  0  0  0  0  0  0  0
  144.6315  135.8810  151.5784 C   0  0  0  0  0  0  0  0  0  0  0  0
  144.9773  137.1774  152.0389 N   0  0  0  0  0  0  0  0  0  0  0  0
  145.6964  137.4936  153.1283 C   0  0  0  0  0  0  0  0  0  0  0  0
  146.1851  136.6820  153.9145 O   0  0  0  0  0  0  0  0  0  0  0  0
  145.8188  138.8218  153.2605 N   0  0  0  0  0  0  0  0  0  0  0  0
  146.5333  139.4954  154.3386 C   0  0  0  0  0  0  0  0  0  0  0  0
  147.8374  140.1404  153.8383 C   0  0  0  0  0  0  0  0  0  0  0  0
  149.0492  139.8016  154.7206 C   0  0  1  0  0  0  0  0  0  0  0  0
  149.9188  138.6901  154.1008 C   0  0  0  0  0  0  0  0  0  0  0  0
  151.1591  138.4299  154.9632 C   0  0  0  0  0  0  0  0  0  0  0  0
  151.9026  139.7465  155.2095 C   0  0  0  0  0  0  0  0  0  0  0  0
  150.9398  140.8065  155.7673 C   0  0  0  0  0  0  0  0  0  0  0  0
  149.8399  140.9781  154.8787 O   0  0  0  0  0  0  0  0  0  0  0  0
  140.7140  134.7641  154.0172 H   0  0  0  0  0  0  0  0  0  0  0  0
  141.6020  133.4662  153.2232 H   0  0  0  0  0  0  0  0  0  0  0  0
  140.8407  134.7323  152.2602 H   0  0  0  0  0  0  0  0  0  0  0  0
  142.4054  136.4272  153.2728 H   0  0  0  0  0  0  0  0  0  0  0  0
  143.1610  135.1762  154.2184 H   0  0  0  0  0  0  0  0  0  0  0  0
  145.4364  133.0523  148.9164 H   0  0  0  0  0  0  0  0  0  0  0  0
  143.7162  132.6523  149.0958 H   0  0  0  0  0  0  0  0  0  0  0  0
  144.9130  131.9549  150.2098 H   0  0  0  0  0  0  0  0  0  0  0  0
  145.9784  135.3630  149.8655 H   0  0  0  0  0  0  0  0  0  0  0  0
  144.6378  137.9463  151.4800 H   0  0  0  0  0  0  0  0  0  0  0  0
  145.3850  139.4110  152.5651 H   0  0  0  0  0  0  0  0  0  0  0  0
  145.8875  140.2412  154.8052 H   0  0  0  0  0  0  0  0  0  0  0  0
  146.7567  138.7552  155.1070 H   0  0  0  0  0  0  0  0  0  0  0  0
  148.0320  139.8008  152.8202 H   0  0  0  0  0  0  0  0  0  0  0  0
  147.7200  141.2234  153.7833 H   0  0  0  0  0  0  0  0  0  0  0  0
  148.6909  139.4755  155.6987 H   0  0  0  0  0  0  0  0  0  0  0  0
  149.3408  137.7714  153.9954 H   0  0  0  0  0  0  0  0  0  0  0  0
  150.2287  138.9818  153.0962 H   0  0  0  0  0  0  0  0  0  0  0  0
  150.8584  137.9934  155.9165 H   0  0  0  0  0  0  0  0  0  0  0  0
  151.8151  137.7060  154.4787 H   0  0  0  0  0  0  0  0  0  0  0  0
  152.7325  139.5890  155.8989 H   0  0  0  0  0  0  0  0  0  0  0  0
  152.3348  140.1039  154.2739 H   0  0  0  0  0  0  0  0  0  0  0  0
  150.5805  140.5229  156.7576 H   0  0  0  0  0  0  0  0  0  0  0  0
  151.4556  141.7602  155.8777 H   0  0  0  0  0  0  0  0  0  0  0  0
  1  2  1  0  0  0  0
  1 21  1  0  0  0  0
  1 22  1  0  0  0  0
  1 23  1  0  0  0  0
  2  3  1  0  0  0  0
  2 24  1  0  0  0  0
  2 25  1  0  0  0  0
  3  8  1  0  0  0  0
  3  4  2  0  0  0  0
  4  5  1  0  0  0  0
  5  6  1  0  0  0  0
  5  7  1  0  0  0  0
  6 26  1  0  0  0  0
  6 27  1  0  0  0  0
  6 28  1  0  0  0  0
  7  8  2  0  0  0  0
  7 29  1  0  0  0  0
  8  9  1  0  0  0  0
  9 10  1  0  0  0  0
  9 30  1  0  0  0  0
 10 11  2  0  0  0  0
 10 12  1  0  0  0  0
 12 13  1  0  0  0  0
 12 31  1  0  0  0  0
 13 14  1  0  0  0  0
 13 32  1  0  0  0  0
 13 33  1  0  0  0  0
 14 15  1  0  0  0  0
 14 34  1  0  0  0  0
 14 35  1  0  0  0  0
 15 20  1  0  0  0  0
 15 16  1  0  0  0  0
 15 36  1  0  0  0  0
 16 17  1  0  0  0  0
 16 37  1  0  0  0  0
 16 38  1  0  0  0  0
 17 18  1  0  0  0  0
 17 39  1  0  0  0  0
 17 40  1  0  0  0  0
 18 19  1  0  0  0  0
 18 41  1  0  0  0  0
 18 42  1  0  0  0  0
 19 20  1  0  0  0  0
 19 43  1  0  0  0  0
 19 44  1  0  0  0  0
M  END
> <s_m_source_file>
AV-unprocessed.smi

> <i_m_source_file_index>
2507

> <i_lp_mmshare_version>
43012

> <i_f3d_flags>
0

> <s_epik_input>
W0NIM11bQ0gyXWMxbm4oW0NIM10pW2NIXWMxW05IXUMoPU8pW05IXVtDSDJdW0NIMl1bQ0BASF0yW0NIMl1bQ0gyXVtDSDJdW0NIMl1PMg==

> <s_epik_cmdline>
J2VwaWtfcHl0aG9uJywgJy1waCcsICc3LjAnLCAnLXRuJywgJzgnLCAnLW1hJywgJzIwMCcsICctbWV0YWxfYmluZGluZycsICctaW1hZScsICc8aW5maWxlLm1hZT4nLCAnLW9tYWUnLCAnPG91dGZpbGUubWFlPic=

> <r_lp_tautomer_probability>
1

> <r_epik_Ionization_Penalty>
0.00072031

> <r_epik_Ionization_Penalty_Charging>
0

> <r_epik_Ionization_Penalty_Neutral>
0.00072031

> <r_epik_State_Penalty>
-0

> <r_epik_Charging_Adjusted_Penalty>
0

> <i_epik_Tot_Q>
0

> <i_epik_Tot_abs_Q>
0

> <r_epik_Metal_State_Penalty>
-0

> <b_epik_Metal_Only>
0

> <s_lp_Force_Field>
OPLS_2005

> <r_lp_Energy>
7.2839

> <b_lp_Chiralities_Consistent>
1

> <s_lp_Variant>
AV-unprocessed.smi:2507-2

> <Gold.Version>
5.8.1

> <Gold.Id.Protein>
6NUR|6NUR_protein|mol2

> <Gold.PLP.Fitness>
41.1937

> <Gold.PLP.PLP>
-36.9878

> <Gold.PLP.part.hbond>
-2.9922

> <Gold.PLP.part.metal>
0.0000

> <Gold.PLP.part.buried>
-2.2678

> <Gold.PLP.part.nonpolar>
-31.9216

> <Gold.PLP.part.repulsive>
0.4025

> <Gold.PLP.ligand.clash>
0.0000

> <Gold.PLP.ligand.torsion>
2.0168

> <Gold.PLP.Chemscore.Hbond>
1.7280

> <Gold.PLP.Chemscore.CHOScore>
0.9950

> <Gold.PLP.Chemscore.Metal>
0.0000

> <Gold.Chemscore.Hbonds>
donor molecule, donor type, donor heavy atom, donor atom, acceptor molecule, acceptor atom, score
      L1  H     9    30       P1 10171  0.99
      L1  H    12    31       P1 10175  0.70
      L1  C     7    29       P1  7921  0.99

> <Gold.PLP.Chemscore.Internal.Correction>
0.0704

> <Gold.Rescore>
     Score         DG    S(hbond)    S(metal)    S(lipo)     H(rot)  DE(clash)    DE(int)     intcor
     14.61     -16.81       1.67        0.00      82.01       1.50       0.31       1.89       ----

> <Gold.Chemscore.Fitness>
14.6112

> <Gold.Chemscore.DG>
-16.8074

> <Gold.Chemscore.ZeroCoef>
-5.4800

> <Gold.Chemscore.Hbond>
1.6717

> <Gold.Chemscore.Metal>
0.0000

> <Gold.Chemscore.Lipo>
82.0057

> <Gold.Chemscore.Internal_Hbond>
0.0000

> <Gold.Chemscore.DEClash>
0.3074

> <Gold.Chemscore.DEInternal>
1.8888

> <Gold.Chemscore.Rot>
1.5042

> <Gold.Chemscore.Internal.Correction>
   9.000000E+99

> <Gold.Chemscore.Hbonds>
donor molecule, donor type, donor heavy atom, donor atom, acceptor molecule, acceptor atom, score
      L1  H     9    30       P1 10171  0.94
      L1  H    12    31       P1 10175  0.67

> <Gold.Chemscore.Hbond.Weighted>
-5.5834

> <Gold.Chemscore.Metal.Weighted>
-0.0000

> <Gold.Chemscore.Lipo.Weighted>
-9.5947

> <Gold.Chemscore.Internal_Hbond.Weighted>
0.0000

> <Gold.Chemscore.DEClash.Weighted>
0.3074

> <Gold.Chemscore.DEInternal.Weighted>
1.8888

> <Gold.Chemscore.Rot.Weighted>
3.8507

> <Gold.Chemscore.Internal.Correction.Weighted>
   9.000000E+99

> <Gold.Protein.RotatedTorsions>
[ 6907 6896 6895 6894 ] final -148.87 input  -60.11 | X-H torsion
[ 7974 7965 7964 7962 ] final   79.75 input  175.53 | X-H torsion
[ 8008 7997 7996 7995 ] final -111.89 input   59.86 | X-H torsion
[ 10167 10162 10161 10158 ] final  -83.08 input  -65.29 | X-H torsion
[ 10718 10713 10712 10709 ] final  156.21 input   66.30 | X-H torsion
[ 10763 10752 10751 10750 ] final  -18.00 input  -60.55 | X-H torsion
[ 11005 11000 10999 10996 ] final -175.37 input  -57.11 | X-H torsion

> <Gold.Protein.ActiveResidues>
 VAL166  LYS551  ARG553  GLY616  TRP617  ASP618  TYR619  PRO620  LYS621  CYS622 
 ASP623  PHE694  ASN695  SER759  ASP760  ASP761  ALA762  ILE779  LEU786  VAL792 
 PHE793  MET794  SER795  GLU796  ALA797  LYS798  CYS799  TRP800  GLU811  SER814 

> <Gold.Protein.RotatedAtoms>
  151.1760  133.4754  159.2593 H   0  0  0  0  0  0  0  0  0  0  0  0  # atno 6907 bound_to 6896
  151.1307  135.0128  159.8591 H   0  0  0  0  0  0  0  0  0  0  0  0  # atno 6908 bound_to 6896
  152.5460  134.1663  159.8631 H   0  0  0  0  0  0  0  0  0  0  0  0  # atno 6909 bound_to 6896
  145.6601  139.2469  143.1927 H   0  0  0  0  0  0  0  0  0  0  0  0  # atno 7974 bound_to 7965
  154.9968  140.0394  157.2343 H   0  0  0  0  0  0  0  0  0  0  0  0  # atno 8008 bound_to 7997
  154.7579  140.2779  155.6215 H   0  0  0  0  0  0  0  0  0  0  0  0  # atno 8009 bound_to 7997
  156.2898  140.2634  156.2350 H   0  0  0  0  0  0  0  0  0  0  0  0  # atno 8010 bound_to 7997
  140.4259  143.2566  151.8826 H   0  0  0  0  0  0  0  0  0  0  0  0  # atno 10167 bound_to 10162
  157.2081  131.0691  151.1986 H   0  0  0  0  0  0  0  0  0  0  0  0  # atno 10718 bound_to 10713
  153.5825  135.7004  153.5457 H   0  0  0  0  0  0  0  0  0  0  0  0  # atno 10763 bound_to 10752
  153.3249  135.4063  155.1447 H   0  0  0  0  0  0  0  0  0  0  0  0  # atno 10764 bound_to 10752
  154.8615  135.3704  154.5353 H   0  0  0  0  0  0  0  0  0  0  0  0  # atno 10765 bound_to 10752
  140.4641  134.6227  157.4855 H   0  0  0  0  0  0  0  0  0  0  0  0  # atno 11005 bound_to 11000
  146.1132  140.7402  142.9493 LP  0  0  0  0  0  0  0  0  0  0  0  0  # atno 17320 bound_to 7965
  144.7092  140.3972  143.7094 LP  0  0  0  0  0  0  0  0  0  0  0  0  # atno 17321 bound_to 7965
  139.4783  144.5387  151.8561 LP  0  0  0  0  0  0  0  0  0  0  0  0  # atno 17342 bound_to 10162
  140.4481  144.1893  150.5895 LP  0  0  0  0  0  0  0  0  0  0  0  0  # atno 17343 bound_to 10162
  157.3700  130.7176  149.6558 LP  0  0  0  0  0  0  0  0  0  0  0  0  # atno 17370 bound_to 10713
  155.9693  130.4201  150.4409 LP  0  0  0  0  0  0  0  0  0  0  0  0  # atno 17371 bound_to 10713
  139.9926  134.6961  155.9663 LP  0  0  0  0  0  0  0  0  0  0  0  0  # atno 17394 bound_to 11000
  141.1607  133.6539  156.4311 LP  0  0  0  0  0  0  0  0  0  0  0  0  # atno 17395 bound_to 11000

$$$$
