AV-unprocessed.smi:799|AV-procd|sdf|3786|dock8
  -GOLD-   22720 1223D 1   1.00000     0.00000
 Structure written by MMmdl.
 47 48  0  0  0  0  0  0  0  0  1 V2000
  151.5097  131.6595  156.8008 C   0  0  0  0  0  0  0  0  0  0  0  0
  150.6404  132.4531  155.8709 C   0  0  0  0  0  0  0  0  0  0  0  0
  150.4640  133.8665  155.8265 C   0  0  0  0  0  0  0  0  0  0  0  0
  149.5751  134.0275  154.7991 C   0  0  0  0  0  0  0  0  0  0  0  0
  149.0335  135.1786  154.3201 N   0  0  0  0  0  0  0  0  0  0  0  0
  148.5308  136.2169  155.0101 C   0  0  0  0  0  0  0  0  0  0  0  0
  148.4942  136.3007  156.2377 O   0  0  0  0  0  0  0  0  0  0  0  0
  148.0796  137.1704  154.1764 N   0  0  0  0  0  0  0  0  0  0  0  0
  147.5108  138.4889  154.5062 C   0  0  2  0  0  0  0  0  0  0  0  0
  146.1932  138.2129  155.2680 C   0  0  0  0  0  0  0  0  0  0  0  0
  147.1787  139.2527  153.1905 C   0  0  0  0  0  0  0  0  0  0  0  0
  146.5253  140.4850  153.4322 O   0  0  0  0  0  0  0  0  0  0  0  0
  148.5119  139.3162  155.3932 C   0  0  0  0  0  0  0  0  0  0  0  0
  147.8722  140.5344  156.1123 C   0  0  0  0  0  0  0  0  0  0  0  0
  148.8667  141.2275  157.0578 C   0  0  0  0  0  0  0  0  0  0  0  0
  150.1331  141.6661  156.3106 C   0  0  0  0  0  0  0  0  0  0  0  0
  150.7849  140.4753  155.5954 C   0  0  0  0  0  0  0  0  0  0  0  0
  149.7919  139.7799  154.6498 C   0  0  0  0  0  0  0  0  0  0  0  0
  149.2511  132.7870  154.2922 N   0  0  0  0  0  0  0  0  0  0  0  0
  148.3580  132.4203  153.2098 C   0  0  0  0  0  0  0  0  0  0  0  0
  149.9175  131.8178  154.9556 N   0  0  0  0  0  0  0  0  0  0  0  0
  151.9924  132.3046  157.5353 H   0  0  0  0  0  0  0  0  0  0  0  0
  152.2937  131.1353  156.2539 H   0  0  0  0  0  0  0  0  0  0  0  0
  150.9271  130.9160  157.3450 H   0  0  0  0  0  0  0  0  0  0  0  0
  150.9181  134.6178  156.4548 H   0  0  0  0  0  0  0  0  0  0  0  0
  149.0450  135.2755  153.3155 H   0  0  0  0  0  0  0  0  0  0  0  0
  148.1676  136.9804  153.1892 H   0  0  0  0  0  0  0  0  0  0  0  0
  145.6487  139.1311  155.4866 H   0  0  0  0  0  0  0  0  0  0  0  0
  146.3644  137.6963  156.2118 H   0  0  0  0  0  0  0  0  0  0  0  0
  145.5209  137.5824  154.6848 H   0  0  0  0  0  0  0  0  0  0  0  0
  148.0853  139.4791  152.6306 H   0  0  0  0  0  0  0  0  0  0  0  0
  146.5514  138.6530  152.5308 H   0  0  0  0  0  0  0  0  0  0  0  0
  145.6773  140.4615  153.0162 H   0  0  0  0  0  0  0  0  0  0  0  0
  148.8596  138.6475  156.1811 H   0  0  0  0  0  0  0  0  0  0  0  0
  147.5172  141.2609  155.3818 H   0  0  0  0  0  0  0  0  0  0  0  0
  147.0017  140.2351  156.6952 H   0  0  0  0  0  0  0  0  0  0  0  0
  148.3947  142.0920  157.5253 H   0  0  0  0  0  0  0  0  0  0  0  0
  149.1356  140.5478  157.8674 H   0  0  0  0  0  0  0  0  0  0  0  0
  149.8807  142.4379  155.5825 H   0  0  0  0  0  0  0  0  0  0  0  0
  150.8410  142.1153  157.0076 H   0  0  0  0  0  0  0  0  0  0  0  0
  151.6565  140.8133  155.0341 H   0  0  0  0  0  0  0  0  0  0  0  0
  151.1516  139.7604  156.3331 H   0  0  0  0  0  0  0  0  0  0  0  0
  150.3017  138.9372  154.1858 H   0  0  0  0  0  0  0  0  0  0  0  0
  149.5350  140.4690  153.8454 H   0  0  0  0  0  0  0  0  0  0  0  0
  147.8392  133.2974  152.8229 H   0  0  0  0  0  0  0  0  0  0  0  0
  147.6181  131.7048  153.5694 H   0  0  0  0  0  0  0  0  0  0  0  0
  148.9308  131.9649  152.4013 H   0  0  0  0  0  0  0  0  0  0  0  0
  1  2  1  0  0  0  0
  1 22  1  0  0  0  0
  1 23  1  0  0  0  0
  1 24  1  0  0  0  0
  2 21  2  0  0  0  0
  2  3  1  0  0  0  0
  3  4  2  0  0  0  0
  3 25  1  0  0  0  0
  4  5  1  0  0  0  0
  4 19  1  0  0  0  0
  5  6  1  0  0  0  0
  5 26  1  0  0  0  0
  6  7  2  0  0  0  0
  6  8  1  0  0  0  0
  8  9  1  0  0  0  0
  8 27  1  0  0  0  0
  9 10  1  0  0  0  0
  9 11  1  0  0  0  0
  9 13  1  0  0  0  0
 10 28  1  0  0  0  0
 10 29  1  0  0  0  0
 10 30  1  0  0  0  0
 11 12  1  0  0  0  0
 11 31  1  0  0  0  0
 11 32  1  0  0  0  0
 12 33  1  0  0  0  0
 13 18  1  0  0  0  0
 13 14  1  0  0  0  0
 13 34  1  0  0  0  0
 14 15  1  0  0  0  0
 14 35  1  0  0  0  0
 14 36  1  0  0  0  0
 15 16  1  0  0  0  0
 15 37  1  0  0  0  0
 15 38  1  0  0  0  0
 16 17  1  0  0  0  0
 16 39  1  0  0  0  0
 16 40  1  0  0  0  0
 17 18  1  0  0  0  0
 17 41  1  0  0  0  0
 17 42  1  0  0  0  0
 18 43  1  0  0  0  0
 18 44  1  0  0  0  0
 19 20  1  0  0  0  0
 19 21  1  0  0  0  0
 20 45  1  0  0  0  0
 20 46  1  0  0  0  0
 20 47  1  0  0  0  0
M  END
> <s_m_source_file>
AV-unprocessed.smi

> <i_m_source_file_index>
799

> <i_lp_mmshare_version>
43012

> <i_f3d_flags>
0

> <s_epik_input>
W0NIM11jMVtjSF1jKG4objEpW0NIM10pW05IXUMoPU8pW05IXVtDQEBdKFtDSDNdKShbQ0gyXVtPSF0pW0NIXTJbQ0gyXVtDSDJdW0NIMl1bQ0gyXVtDSDJdMg==

> <s_epik_cmdline>
J2VwaWtfcHl0aG9uJywgJy1waCcsICc3LjAnLCAnLXRuJywgJzgnLCAnLW1hJywgJzIwMCcsICctbWV0YWxfYmluZGluZycsICctaW1hZScsICc8aW5maWxlLm1hZT4nLCAnLW9tYWUnLCAnPG91dGZpbGUubWFlPic=

> <r_lp_tautomer_probability>
1

> <r_epik_Ionization_Penalty>
9.86025e-05

> <r_epik_Ionization_Penalty_Charging>
0

> <r_epik_Ionization_Penalty_Neutral>
9.86025e-05

> <r_epik_State_Penalty>
-0

> <r_epik_Charging_Adjusted_Penalty>
0

> <i_epik_Tot_Q>
0

> <i_epik_Tot_abs_Q>
0

> <r_epik_Metal_State_Penalty>
-0

> <b_epik_Metal_Only>
0

> <s_lp_Force_Field>
OPLS_2005

> <r_lp_Energy>
22.5502

> <b_lp_Chiralities_Consistent>
1

> <s_lp_Variant>
AV-unprocessed.smi:799-2

> <Gold.Version>
5.8.1

> <Gold.Id.Protein>
6NUR|6NUR_protein|mol2

> <Gold.PLP.Fitness>
37.5580

> <Gold.PLP.PLP>
-29.7068

> <Gold.PLP.part.hbond>
-3.0000

> <Gold.PLP.part.metal>
0.0000

> <Gold.PLP.part.buried>
-2.7087

> <Gold.PLP.part.nonpolar>
-24.1932

> <Gold.PLP.part.repulsive>
0.0481

> <Gold.PLP.ligand.clash>
0.0017

> <Gold.PLP.ligand.torsion>
0.6078

> <Gold.PLP.Chemscore.Hbond>
3.0000

> <Gold.PLP.Chemscore.CHOScore>
0.0000

> <Gold.PLP.Chemscore.Metal>
0.0000

> <Gold.Chemscore.Hbonds>
donor molecule, donor type, donor heavy atom, donor atom, acceptor molecule, acceptor atom, score
      L1  H     5    26       P1  7948  1.00
      L1  H     8    27       P1  7948  1.00
      L1  H    12    33       P1 10175  0.93

> <Gold.PLP.Chemscore.Internal.Correction>
0.0686

> <Gold.Rescore>
     Score         DG    S(hbond)    S(metal)    S(lipo)     H(rot)  DE(clash)    DE(int)     intcor
     14.04     -15.73       2.61        0.00      57.14       2.01       0.06       1.63       ----

> <Gold.Chemscore.Fitness>
14.0370

> <Gold.Chemscore.DG>
-15.7298

> <Gold.Chemscore.ZeroCoef>
-5.4800

> <Gold.Chemscore.Hbond>
2.6111

> <Gold.Chemscore.Metal>
0.0000

> <Gold.Chemscore.Lipo>
57.1414

> <Gold.Chemscore.Internal_Hbond>
0.0000

> <Gold.Chemscore.DEClash>
0.0582

> <Gold.Chemscore.DEInternal>
1.6346

> <Gold.Chemscore.Rot>
2.0144

> <Gold.Chemscore.Internal.Correction>
   9.000000E+99

> <Gold.Chemscore.Hbonds>
donor molecule, donor type, donor heavy atom, donor atom, acceptor molecule, acceptor atom, score
      L1  H     5    26       P1  7948  0.38
      L1  H     8    27       P1  7948  0.96
      L1  H    12    33       P1 10175  0.78

> <Gold.Chemscore.Hbond.Weighted>
-8.7211

> <Gold.Chemscore.Metal.Weighted>
-0.0000

> <Gold.Chemscore.Lipo.Weighted>
-6.6855

> <Gold.Chemscore.Internal_Hbond.Weighted>
0.0000

> <Gold.Chemscore.DEClash.Weighted>
0.0582

> <Gold.Chemscore.DEInternal.Weighted>
1.6346

> <Gold.Chemscore.Rot.Weighted>
5.1568

> <Gold.Chemscore.Internal.Correction.Weighted>
   9.000000E+99

> <Gold.Protein.RotatedTorsions>
[ 6907 6896 6895 6894 ] final   77.26 input  -60.11 | X-H torsion
[ 7974 7965 7964 7962 ] final  -10.49 input  175.53 | X-H torsion
[ 8008 7997 7996 7995 ] final   -1.70 input   59.86 | X-H torsion
[ 10167 10162 10161 10158 ] final  -90.95 input  -65.29 | X-H torsion
[ 10718 10713 10712 10709 ] final -164.58 input   66.30 | X-H torsion
[ 10763 10752 10751 10750 ] final  116.04 input  -60.55 | X-H torsion
[ 11005 11000 10999 10996 ] final   19.46 input  -57.11 | X-H torsion

> <Gold.Protein.ActiveResidues>
 VAL166  LYS551  ARG553  GLY616  TRP617  ASP618  TYR619  PRO620  LYS621  CYS622 
 ASP623  PHE694  ASN695  SER759  ASP760  ASP761  ALA762  ILE779  LEU786  VAL792 
 PHE793  MET794  SER795  GLU796  ALA797  LYS798  CYS799  TRP800  GLU811  SER814 

> <Gold.Protein.RotatedAtoms>
  152.5110  134.3843  159.9361 H   0  0  0  0  0  0  0  0  0  0  0  0  # atno 6907 bound_to 6896
  151.3801  133.3818  159.2717 H   0  0  0  0  0  0  0  0  0  0  0  0  # atno 6908 bound_to 6896
  150.9511  134.8931  159.7731 H   0  0  0  0  0  0  0  0  0  0  0  0  # atno 6909 bound_to 6896
  146.2219  140.2772  142.8360 H   0  0  0  0  0  0  0  0  0  0  0  0  # atno 7974 bound_to 7965
  154.6438  140.2553  155.7291 H   0  0  0  0  0  0  0  0  0  0  0  0  # atno 8008 bound_to 7997
  156.2542  140.2882  156.0764 H   0  0  0  0  0  0  0  0  0  0  0  0  # atno 8009 bound_to 7997
  155.1555  140.0383  157.2821 H   0  0  0  0  0  0  0  0  0  0  0  0  # atno 8010 bound_to 7997
  140.3497  143.2897  151.9740 H   0  0  0  0  0  0  0  0  0  0  0  0  # atno 10167 bound_to 10162
  156.6410  130.8969  151.2996 H   0  0  0  0  0  0  0  0  0  0  0  0  # atno 10718 bound_to 10713
  153.5312  135.3578  155.2676 H   0  0  0  0  0  0  0  0  0  0  0  0  # atno 10763 bound_to 10752
  154.8726  135.4068  154.3150 H   0  0  0  0  0  0  0  0  0  0  0  0  # atno 10764 bound_to 10752
  153.3839  135.7069  153.6613 H   0  0  0  0  0  0  0  0  0  0  0  0  # atno 10765 bound_to 10752
  140.4134  134.1594  155.7668 H   0  0  0  0  0  0  0  0  0  0  0  0  # atno 11005 bound_to 11000
  144.9224  140.7883  143.5740 LP  0  0  0  0  0  0  0  0  0  0  0  0  # atno 17320 bound_to 7965
  145.2710  139.1955  143.4842 LP  0  0  0  0  0  0  0  0  0  0  0  0  # atno 17321 bound_to 7965
  139.4828  144.6086  151.7475 LP  0  0  0  0  0  0  0  0  0  0  0  0  # atno 17342 bound_to 10162
  140.5230  144.0849  150.6028 LP  0  0  0  0  0  0  0  0  0  0  0  0  # atno 17343 bound_to 10162
  157.7171  130.9511  150.1295 LP  0  0  0  0  0  0  0  0  0  0  0  0  # atno 17370 bound_to 10713
  156.2159  130.3670  149.8614 LP  0  0  0  0  0  0  0  0  0  0  0  0  # atno 17371 bound_to 10713
  141.1812  133.8410  157.1251 LP  0  0  0  0  0  0  0  0  0  0  0  0  # atno 17394 bound_to 11000
  140.0251  134.9928  157.0669 LP  0  0  0  0  0  0  0  0  0  0  0  0  # atno 17395 bound_to 11000

$$$$
