AV-unprocessed.smi:2800|AV-procd|sdf|10794|dock1
  -GOLD-   2272015223D 1   1.00000     0.00000
 Structure written by MMmdl.
 51 52  0  0  0  0  0  0  0  0  1 V2000
  151.1905  137.9853  154.2338 C   0  0  0  0  0  0  0  0  0  0  0  0
  150.5162  139.2351  154.7720 C   0  0  0  0  0  0  0  0  0  0  0  0
  151.2532  139.9612  155.6402 N   0  0  0  0  0  0  0  0  0  0  0  0
  150.7309  141.0943  156.1646 C   0  0  0  0  0  0  0  0  0  0  0  0
  151.5277  141.8105  157.0788 N   0  0  0  0  0  0  0  0  0  0  0  0
  151.2907  143.2135  157.3797 C   0  0  0  0  0  0  0  0  0  0  0  0
  152.3102  143.5502  158.4670 C   0  0  0  0  0  0  0  0  0  0  0  0
  152.4494  142.2336  159.2319 C   0  0  0  0  0  0  0  0  0  0  0  0
  152.2470  141.1548  158.1614 C   0  0  0  0  0  0  0  0  0  0  0  0
  149.4336  141.5405  155.8234 C   0  0  0  0  0  0  0  0  0  0  0  0
  148.6636  140.7835  154.9206 C   0  0  0  0  0  0  0  0  0  0  0  0
  149.2024  139.5901  154.3853 C   0  0  0  0  0  0  0  0  0  0  0  0
  148.5068  138.7571  153.4647 N   0  0  0  0  0  0  0  0  0  0  0  0
  147.1835  138.5533  153.3529 C   0  0  0  0  0  0  0  0  0  0  0  0
  146.3136  139.1384  153.9973 O   0  0  0  0  0  0  0  0  0  0  0  0
  146.9228  137.6027  152.4444 N   0  0  0  0  0  0  0  0  0  0  0  0
  145.5990  137.0846  152.0908 C   0  0  1  0  0  0  0  0  0  0  0  0
  145.6478  136.5338  150.6433 C   0  0  0  0  0  0  0  0  0  0  0  0
  146.1128  137.5123  149.7367 O   0  0  0  0  0  0  0  0  0  0  0  0
  145.0896  136.0905  153.1868 C   0  0  0  0  0  0  0  0  0  0  0  0
  145.0053  136.7537  154.5807 C   0  0  0  0  0  0  0  0  0  0  0  0
  146.0075  134.8542  153.2797 C   0  0  0  0  0  0  0  0  0  0  0  0
  143.6768  135.5929  152.8067 C   0  0  0  0  0  0  0  0  0  0  0  0
  144.9082  137.9308  152.0869 H   0  0  0  0  0  0  0  0  0  0  0  0
  150.6276  137.0971  154.5222 H   0  0  0  0  0  0  0  0  0  0  0  0
  152.2061  137.8805  154.6176 H   0  0  0  0  0  0  0  0  0  0  0  0
  151.2451  138.0218  153.1454 H   0  0  0  0  0  0  0  0  0  0  0  0
  151.4169  143.8434  156.4986 H   0  0  0  0  0  0  0  0  0  0  0  0
  150.2732  143.3382  157.7525 H   0  0  0  0  0  0  0  0  0  0  0  0
  153.2651  143.8125  158.0093 H   0  0  0  0  0  0  0  0  0  0  0  0
  151.9983  144.3818  159.0991 H   0  0  0  0  0  0  0  0  0  0  0  0
  153.4037  142.1409  159.7507 H   0  0  0  0  0  0  0  0  0  0  0  0
  151.6558  142.1621  159.9770 H   0  0  0  0  0  0  0  0  0  0  0  0
  151.6988  140.3023  158.5640 H   0  0  0  0  0  0  0  0  0  0  0  0
  153.2060  140.7998  157.7829 H   0  0  0  0  0  0  0  0  0  0  0  0
  149.0167  142.4434  156.2434 H   0  0  0  0  0  0  0  0  0  0  0  0
  147.6812  141.1395  154.6530 H   0  0  0  0  0  0  0  0  0  0  0  0
  149.0920  138.1585  152.9008 H   0  0  0  0  0  0  0  0  0  0  0  0
  147.7071  137.1821  151.9681 H   0  0  0  0  0  0  0  0  0  0  0  0
  146.3497  135.7014  150.5766 H   0  0  0  0  0  0  0  0  0  0  0  0
  144.6836  136.1500  150.3136 H   0  0  0  0  0  0  0  0  0  0  0  0
  145.4063  138.1128  149.5541 H   0  0  0  0  0  0  0  0  0  0  0  0
  144.6294  136.0506  155.3249 H   0  0  0  0  0  0  0  0  0  0  0  0
  144.3325  137.6113  154.5863 H   0  0  0  0  0  0  0  0  0  0  0  0
  145.9782  137.0955  154.9317 H   0  0  0  0  0  0  0  0  0  0  0  0
  146.9997  135.1132  153.6491 H   0  0  0  0  0  0  0  0  0  0  0  0
  146.1289  134.3748  152.3077 H   0  0  0  0  0  0  0  0  0  0  0  0
  145.6012  134.1078  153.9633 H   0  0  0  0  0  0  0  0  0  0  0  0
  143.3057  134.8614  153.5253 H   0  0  0  0  0  0  0  0  0  0  0  0
  143.6748  135.1148  151.8264 H   0  0  0  0  0  0  0  0  0  0  0  0
  142.9505  136.4057  152.7759 H   0  0  0  0  0  0  0  0  0  0  0  0
  1  2  1  0  0  0  0
  1 25  1  0  0  0  0
  1 26  1  0  0  0  0
  1 27  1  0  0  0  0
  2 12  1  0  0  0  0
  2  3  2  0  0  0  0
  3  4  1  0  0  0  0
  4  5  1  0  0  0  0
  4 10  2  0  0  0  0
  5  9  1  0  0  0  0
  5  6  1  0  0  0  0
  6  7  1  0  0  0  0
  6 28  1  0  0  0  0
  6 29  1  0  0  0  0
  7  8  1  0  0  0  0
  7 30  1  0  0  0  0
  7 31  1  0  0  0  0
  8  9  1  0  0  0  0
  8 32  1  0  0  0  0
  8 33  1  0  0  0  0
  9 34  1  0  0  0  0
  9 35  1  0  0  0  0
 10 11  1  0  0  0  0
 10 36  1  0  0  0  0
 11 12  2  0  0  0  0
 11 37  1  0  0  0  0
 12 13  1  0  0  0  0
 13 14  1  0  0  0  0
 13 38  1  0  0  0  0
 14 15  2  0  0  0  0
 14 16  1  0  0  0  0
 16 17  1  0  0  0  0
 16 39  1  0  0  0  0
 17 24  1  0  0  0  0
 17 18  1  0  0  0  0
 17 20  1  0  0  0  0
 18 19  1  0  0  0  0
 18 40  1  0  0  0  0
 18 41  1  0  0  0  0
 19 42  1  0  0  0  0
 20 21  1  0  0  0  0
 20 22  1  0  0  0  0
 20 23  1  0  0  0  0
 21 43  1  0  0  0  0
 21 44  1  0  0  0  0
 21 45  1  0  0  0  0
 22 46  1  0  0  0  0
 22 47  1  0  0  0  0
 22 48  1  0  0  0  0
 23 49  1  0  0  0  0
 23 50  1  0  0  0  0
 23 51  1  0  0  0  0
M  END
> <s_m_source_file>
AV-unprocessed.smi

> <i_m_source_file_index>
2800

> <i_lp_mmshare_version>
43012

> <i_f3d_flags>
0

> <s_epik_input>
W0NIMl0xW0NIMl1bQ0gyXVtDSDJdTjFjKG5jMltDSDNdKVtjSF1bY0hdYzJbTkhdQyg9TylbTkhdW0NASF0oW0NIMl1bT0hdKUMoW0NIM10pKFtDSDNdKVtDSDNd

> <s_epik_cmdline>
J2VwaWtfcHl0aG9uJywgJy1waCcsICc3LjAnLCAnLXRuJywgJzgnLCAnLW1hJywgJzIwMCcsICctbWV0YWxfYmluZGluZycsICctaW1hZScsICc8aW5maWxlLm1hZT4nLCAnLW9tYWUnLCAnPG91dGZpbGUubWFlPic=

> <r_lp_tautomer_probability>
1

> <r_epik_Ionization_Penalty>
0.307546

> <r_epik_Ionization_Penalty_Charging>
0

> <r_epik_Ionization_Penalty_Neutral>
0.307546

> <r_epik_State_Penalty>
0.300796

> <r_epik_Charging_Adjusted_Penalty>
0.300796

> <i_epik_Tot_Q>
0

> <i_epik_Tot_abs_Q>
0

> <r_epik_Metal_State_Penalty>
0.196869

> <b_epik_Metal_Only>
0

> <s_lp_Force_Field>
OPLS_2005

> <r_lp_Energy>
35.7383

> <b_lp_Chiralities_Consistent>
1

> <s_lp_Variant>
AV-unprocessed.smi:2800-2

> <Gold.Version>
5.8.1

> <Gold.Id.Protein>
6NUR|6NUR_protein|mol2

> <Gold.PLP.Fitness>
47.7824

> <Gold.PLP.PLP>
-40.1163

> <Gold.PLP.part.hbond>
-4.8346

> <Gold.PLP.part.metal>
0.0000

> <Gold.PLP.part.buried>
-3.5037

> <Gold.PLP.part.nonpolar>
-33.4093

> <Gold.PLP.part.repulsive>
0.2659

> <Gold.PLP.ligand.clash>
0.0000

> <Gold.PLP.ligand.torsion>
0.9764

> <Gold.PLP.Chemscore.Hbond>
3.0592

> <Gold.PLP.Chemscore.CHOScore>
0.0000

> <Gold.PLP.Chemscore.Metal>
0.0000

> <Gold.Chemscore.Hbonds>
donor molecule, donor type, donor heavy atom, donor atom, acceptor molecule, acceptor atom, score
      L1  H    13    38       P1  7948  0.53
      L1  H    16    39       P1  7948  1.00
      L1  H    19    42       P1 10171  1.00
      P1  H  7954  7966       L1    19  0.44

> <Gold.PLP.Chemscore.Internal.Correction>
0.4411

> <Gold.Rescore>
     Score         DG    S(hbond)    S(metal)    S(lipo)     H(rot)  DE(clash)    DE(int)     intcor
     18.47     -21.92       3.15        0.00      92.64       1.92       0.16       3.29       ----

> <Gold.Chemscore.Fitness>
18.4659

> <Gold.Chemscore.DG>
-21.9166

> <Gold.Chemscore.ZeroCoef>
-5.4800

> <Gold.Chemscore.Hbond>
3.1494

> <Gold.Chemscore.Metal>
0.0000

> <Gold.Chemscore.Lipo>
92.6354

> <Gold.Chemscore.Internal_Hbond>
0.0000

> <Gold.Chemscore.DEClash>
0.1594

> <Gold.Chemscore.DEInternal>
3.2913

> <Gold.Chemscore.Rot>
1.9222

> <Gold.Chemscore.Internal.Correction>
   9.000000E+99

> <Gold.Chemscore.Hbonds>
donor molecule, donor type, donor heavy atom, donor atom, acceptor molecule, acceptor atom, score
      L1  H    13    38       P1  7948  0.53
      L1  H    16    39       P1  7948  0.94
      L1  H    19    42       P1 10171  0.94
      P1  H  7954  7966       L1    19  0.37

> <Gold.Chemscore.Hbond.Weighted>
-10.5190

> <Gold.Chemscore.Metal.Weighted>
-0.0000

> <Gold.Chemscore.Lipo.Weighted>
-10.8383

> <Gold.Chemscore.Internal_Hbond.Weighted>
0.0000

> <Gold.Chemscore.DEClash.Weighted>
0.1594

> <Gold.Chemscore.DEInternal.Weighted>
3.2913

> <Gold.Chemscore.Rot.Weighted>
4.9208

> <Gold.Chemscore.Internal.Correction.Weighted>
   9.000000E+99

> <Gold.Protein.RotatedTorsions>
[ 6907 6896 6895 6894 ] final  -31.55 input  -60.11 | X-H torsion
[ 7974 7965 7964 7962 ] final  -59.30 input  175.53 | X-H torsion
[ 8008 7997 7996 7995 ] final   66.89 input   59.86 | X-H torsion
[ 10167 10162 10161 10158 ] final   78.41 input  -65.29 | X-H torsion
[ 10718 10713 10712 10709 ] final   82.25 input   66.30 | X-H torsion
[ 10763 10752 10751 10750 ] final  -28.65 input  -60.55 | X-H torsion
[ 11005 11000 10999 10996 ] final  -50.82 input  -57.11 | X-H torsion

> <Gold.Protein.ActiveResidues>
 VAL166  LYS551  ARG553  GLY616  TRP617  ASP618  TYR619  PRO620  LYS621  CYS622 
 ASP623  PHE694  ASN695  SER759  ASP760  ASP761  ALA762  ILE779  LEU786  VAL792 
 PHE793  MET794  SER795  GLU796  ALA797  LYS798  CYS799  TRP800  GLU811  SER814 

> <Gold.Protein.RotatedAtoms>
  151.0906  134.9914  159.8400 H   0  0  0  0  0  0  0  0  0  0  0  0  # atno 6907 bound_to 6896
  152.5428  134.2070  159.8745 H   0  0  0  0  0  0  0  0  0  0  0  0  # atno 6908 bound_to 6896
  151.2106  133.4514  159.2631 H   0  0  0  0  0  0  0  0  0  0  0  0  # atno 6909 bound_to 6896
  145.8292  140.8491  143.0092 H   0  0  0  0  0  0  0  0  0  0  0  0  # atno 7974 bound_to 7965
  155.6843  140.3496  155.4868 H   0  0  0  0  0  0  0  0  0  0  0  0  # atno 8008 bound_to 7997
  155.9579  140.1131  157.0943 H   0  0  0  0  0  0  0  0  0  0  0  0  # atno 8009 bound_to 7997
  154.4136  140.1181  156.5126 H   0  0  0  0  0  0  0  0  0  0  0  0  # atno 8010 bound_to 7997
  139.9712  144.5893  150.7984 H   0  0  0  0  0  0  0  0  0  0  0  0  # atno 10167 bound_to 10162
  157.6853  131.0039  150.2347 H   0  0  0  0  0  0  0  0  0  0  0  0  # atno 10718 bound_to 10713
  153.7518  135.6925  153.4944 H   0  0  0  0  0  0  0  0  0  0  0  0  # atno 10763 bound_to 10752
  153.1998  135.4440  155.0251 H   0  0  0  0  0  0  0  0  0  0  0  0  # atno 10764 bound_to 10752
  154.8184  135.3410  154.7038 H   0  0  0  0  0  0  0  0  0  0  0  0  # atno 10765 bound_to 10752
  141.0837  133.6647  156.3787 H   0  0  0  0  0  0  0  0  0  0  0  0  # atno 11005 bound_to 11000
  144.6741  140.0646  143.7475 LP  0  0  0  0  0  0  0  0  0  0  0  0  # atno 17320 bound_to 7965
  145.9590  139.2787  143.1167 LP  0  0  0  0  0  0  0  0  0  0  0  0  # atno 17321 bound_to 7965
  140.7521  143.2985  151.3143 LP  0  0  0  0  0  0  0  0  0  0  0  0  # atno 17342 bound_to 10162
  139.6480  144.0415  152.2605 LP  0  0  0  0  0  0  0  0  0  0  0  0  # atno 17343 bound_to 10162
  156.2972  130.3753  149.7784 LP  0  0  0  0  0  0  0  0  0  0  0  0  # atno 17370 bound_to 10713
  156.5425  130.8306  151.3274 LP  0  0  0  0  0  0  0  0  0  0  0  0  # atno 17371 bound_to 10713
  140.5411  134.6120  157.5380 LP  0  0  0  0  0  0  0  0  0  0  0  0  # atno 17394 bound_to 11000
  139.9653  134.7383  156.0151 LP  0  0  0  0  0  0  0  0  0  0  0  0  # atno 17395 bound_to 11000

$$$$
