AV-unprocessed.smi:1922|AV-procd|sdf|7788|dock4
  -GOLD-   22720 9533D 1   1.00000     0.00000
 Structure written by MMmdl.
 35 36  0  0  0  0  0  0  0  0  1 V2000
  152.8527  139.9599  157.6537 O   0  0  0  0  0  0  0  0  0  0  0  0
  151.8921  140.2898  158.3481 C   0  0  0  0  0  0  0  0  0  0  0  0
  150.5030  139.7034  158.0388 C   0  0  0  0  0  0  0  0  0  0  0  0
  149.9636  140.0591  156.7154 N   0  0  0  0  0  0  0  0  0  0  0  0
  150.2616  139.1431  155.7176 N   0  0  0  0  0  0  0  0  0  0  0  0
  149.8629  139.3535  154.5087 C   0  0  0  0  0  0  0  0  0  0  0  0
  150.1829  138.4229  153.5510 O   0  0  0  0  0  0  0  0  0  0  0  0
  149.1009  140.5346  154.1668 C   0  0  0  0  0  0  0  0  0  0  0  0
  148.8129  141.4196  155.1459 C   0  0  0  0  0  0  0  0  0  0  0  0
  149.2524  141.2133  156.5269 C   0  0  0  0  0  0  0  0  0  0  0  0
  149.0153  142.0092  157.4351 O   0  0  0  0  0  0  0  0  0  0  0  0
  152.0006  141.1419  159.3793 N   0  0  0  0  0  0  0  0  0  0  0  0
  153.2387  141.7569  159.8332 C   0  0  0  0  0  0  0  0  0  0  0  0
  153.1117  143.2893  159.8290 C   0  0  0  0  0  0  0  0  0  0  0  0
  152.1699  143.8333  160.9040 C   0  0  0  0  0  0  0  0  0  0  0  0
  151.8341  145.2551  160.4432 C   0  0  0  0  0  0  0  0  0  0  0  0
  152.0177  145.2667  158.9174 C   0  0  0  0  0  0  0  0  0  0  0  0
  152.5411  143.8772  158.5335 C   0  0  0  0  0  0  0  0  0  0  0  0
  150.1005  138.8727  152.7243 H   0  0  0  0  0  0  0  0  0  0  0  0
  150.5716  138.6180  158.1302 H   0  0  0  0  0  0  0  0  0  0  0  0
  149.8101  140.0136  158.8230 H   0  0  0  0  0  0  0  0  0  0  0  0
  148.7725  140.6967  153.1507 H   0  0  0  0  0  0  0  0  0  0  0  0
  148.2440  142.3057  154.9053 H   0  0  0  0  0  0  0  0  0  0  0  0
  151.1637  141.3640  159.8987 H   0  0  0  0  0  0  0  0  0  0  0  0
  153.4708  141.3968  160.8368 H   0  0  0  0  0  0  0  0  0  0  0  0
  154.0589  141.4493  159.1828 H   0  0  0  0  0  0  0  0  0  0  0  0
  154.0990  143.7248  159.9935 H   0  0  0  0  0  0  0  0  0  0  0  0
  151.2568  143.2368  160.9353 H   0  0  0  0  0  0  0  0  0  0  0  0
  152.6129  143.8114  161.9000 H   0  0  0  0  0  0  0  0  0  0  0  0
  150.8257  145.5458  160.7390 H   0  0  0  0  0  0  0  0  0  0  0  0
  152.5246  145.9655  160.8997 H   0  0  0  0  0  0  0  0  0  0  0  0
  151.0847  145.4915  158.3991 H   0  0  0  0  0  0  0  0  0  0  0  0
  152.7389  146.0356  158.6368 H   0  0  0  0  0  0  0  0  0  0  0  0
  153.2798  143.9198  157.7322 H   0  0  0  0  0  0  0  0  0  0  0  0
  151.7113  143.2620  158.1820 H   0  0  0  0  0  0  0  0  0  0  0  0
  1  2  2  0  0  0  0
  2  3  1  0  0  0  0
  2 12  1  0  0  0  0
  3 20  1  0  0  0  0
  3 21  1  0  0  0  0
  3  4  1  0  0  0  0
  4  5  1  0  0  0  0
  4 10  1  0  0  0  0
  5  6  2  0  0  0  0
  6  7  1  0  0  0  0
  6  8  1  0  0  0  0
  7 19  1  0  0  0  0
  8 22  1  0  0  0  0
  8  9  2  0  0  0  0
  9 23  1  0  0  0  0
  9 10  1  0  0  0  0
 10 11  2  0  0  0  0
 12 13  1  0  0  0  0
 12 24  1  0  0  0  0
 13 14  1  0  0  0  0
 13 25  1  0  0  0  0
 13 26  1  0  0  0  0
 14 18  1  0  0  0  0
 14 15  1  0  0  0  0
 14 27  1  0  0  0  0
 15 16  1  0  0  0  0
 15 28  1  0  0  0  0
 15 29  1  0  0  0  0
 16 17  1  0  0  0  0
 16 30  1  0  0  0  0
 16 31  1  0  0  0  0
 17 18  1  0  0  0  0
 17 32  1  0  0  0  0
 17 33  1  0  0  0  0
 18 34  1  0  0  0  0
 18 35  1  0  0  0  0
M  END
> <s_m_source_file>
AV-unprocessed.smi

> <i_m_source_file_index>
1922

> <i_lp_mmshare_version>
43012

> <i_f3d_flags>
0

> <s_epik_input>
W0NIMl0xW0NIMl1bQ0gyXVtDSDJdW0NIXTFbQ0gyXVtOSF1DKD1PKVtDSDJdbjJbbkhdYyg9TylbY0hdW2NIXWMyPU8=

> <s_epik_cmdline>
J2VwaWtfcHl0aG9uJywgJy1waCcsICc3LjAnLCAnLXRuJywgJzgnLCAnLW1hJywgJzIwMCcsICctbWV0YWxfYmluZGluZycsICctaW1hZScsICc8aW5maWxlLm1hZT4nLCAnLW9tYWUnLCAnPG91dGZpbGUubWFlPic=

> <r_lp_tautomer_probability>
0.9996

> <r_epik_Ionization_Penalty>
2.12182

> <r_epik_Ionization_Penalty_Charging>
3.68417e-08

> <r_epik_Ionization_Penalty_Neutral>
2.12182

> <r_epik_State_Penalty>
1.69868

> <r_epik_Charging_Adjusted_Penalty>
1.69868

> <i_epik_Tot_Q>
0

> <i_epik_Tot_abs_Q>
0

> <r_epik_Metal_State_Penalty>
1.69868

> <b_epik_Metal_Only>
0

> <s_lp_Force_Field>
OPLS_2005

> <r_lp_Energy>
31.2069

> <b_lp_Chiralities_Consistent>
1

> <s_lp_Variant>
AV-unprocessed.smi:1922-2

> <Gold.Version>
5.8.1

> <Gold.Id.Protein>
6NUR|6NUR_protein|mol2

> <Gold.PLP.Fitness>
46.1564

> <Gold.PLP.PLP>
-41.0254

> <Gold.PLP.part.hbond>
-3.0000

> <Gold.PLP.part.metal>
0.0000

> <Gold.PLP.part.buried>
-3.4619

> <Gold.PLP.part.nonpolar>
-34.0556

> <Gold.PLP.part.repulsive>
0.3125

> <Gold.PLP.ligand.clash>
0.0000

> <Gold.PLP.ligand.torsion>
0.4384

> <Gold.PLP.Chemscore.Hbond>
2.0000

> <Gold.PLP.Chemscore.CHOScore>
0.0000

> <Gold.PLP.Chemscore.Metal>
0.0000

> <Gold.Chemscore.Hbonds>
donor molecule, donor type, donor heavy atom, donor atom, acceptor molecule, acceptor atom, score
      L1  H     7    19       P1  7957  1.00
      P1  H  7997  8009       L1     1  1.00

> <Gold.PLP.Chemscore.Internal.Correction>
0.0076

> <Gold.Rescore>
     Score         DG    S(hbond)    S(metal)    S(lipo)     H(rot)  DE(clash)    DE(int)     intcor
     15.80     -16.24       1.97        0.00      91.68       2.56       0.02       0.42       ----

> <Gold.Chemscore.Fitness>
15.8029

> <Gold.Chemscore.DG>
-16.2373

> <Gold.Chemscore.ZeroCoef>
-5.4800

> <Gold.Chemscore.Hbond>
1.9716

> <Gold.Chemscore.Metal>
0.0000

> <Gold.Chemscore.Lipo>
91.6833

> <Gold.Chemscore.Internal_Hbond>
0.0000

> <Gold.Chemscore.DEClash>
0.0178

> <Gold.Chemscore.DEInternal>
0.4166

> <Gold.Chemscore.Rot>
2.5605

> <Gold.Chemscore.Internal.Correction>
   9.000000E+99

> <Gold.Chemscore.Hbonds>
donor molecule, donor type, donor heavy atom, donor atom, acceptor molecule, acceptor atom, score
      L1  H     7    19       P1  7957  0.53
      P1  H  7997  8009       L1     1  0.98

> <Gold.Chemscore.Hbond.Weighted>
-6.5851

> <Gold.Chemscore.Metal.Weighted>
-0.0000

> <Gold.Chemscore.Lipo.Weighted>
-10.7269

> <Gold.Chemscore.Internal_Hbond.Weighted>
0.0000

> <Gold.Chemscore.DEClash.Weighted>
0.0178

> <Gold.Chemscore.DEInternal.Weighted>
0.4166

> <Gold.Chemscore.Rot.Weighted>
6.5548

> <Gold.Chemscore.Internal.Correction.Weighted>
   9.000000E+99

> <Gold.Protein.RotatedTorsions>
[ 6907 6896 6895 6894 ] final   42.98 input  -60.11 | X-H torsion
[ 7974 7965 7964 7962 ] final    5.01 input  175.53 | X-H torsion
[ 8008 7997 7996 7995 ] final  161.86 input   59.86 | X-H torsion
[ 10167 10162 10161 10158 ] final  176.82 input  -65.29 | X-H torsion
[ 10718 10713 10712 10709 ] final  -78.76 input   66.30 | X-H torsion
[ 10763 10752 10751 10750 ] final   89.05 input  -60.55 | X-H torsion
[ 11005 11000 10999 10996 ] final   42.20 input  -57.11 | X-H torsion

> <Gold.Protein.ActiveResidues>
 VAL166  LYS551  ARG553  GLY616  TRP617  ASP618  TYR619  PRO620  LYS621  CYS622 
 ASP623  PHE694  ASN695  SER759  ASP760  ASP761  ALA762  ILE779  LEU786  VAL792 
 PHE793  MET794  SER795  GLU796  ALA797  LYS798  CYS799  TRP800  GLU811  SER814 

> <Gold.Protein.RotatedAtoms>
  152.2147  134.8469  160.0493 H   0  0  0  0  0  0  0  0  0  0  0  0  # atno 6907 bound_to 6896
  151.9275  133.3597  159.3927 H   0  0  0  0  0  0  0  0  0  0  0  0  # atno 6908 bound_to 6896
  150.6985  134.4497  159.5374 H   0  0  0  0  0  0  0  0  0  0  0  0  # atno 6909 bound_to 6896
  146.2442  140.0448  142.8379 H   0  0  0  0  0  0  0  0  0  0  0  0  # atno 7974 bound_to 7965
  156.2073  140.1766  156.7772 H   0  0  0  0  0  0  0  0  0  0  0  0  # atno 8008 bound_to 7997
  154.5672  140.0689  156.8940 H   0  0  0  0  0  0  0  0  0  0  0  0  # atno 8009 bound_to 7997
  155.2738  140.3344  155.4265 H   0  0  0  0  0  0  0  0  0  0  0  0  # atno 8010 bound_to 7997
  139.5229  144.2870  152.0497 H   0  0  0  0  0  0  0  0  0  0  0  0  # atno 10167 bound_to 10162
  156.0109  130.4527  150.3545 H   0  0  0  0  0  0  0  0  0  0  0  0  # atno 10718 bound_to 10713
  153.1831  135.4484  155.0054 H   0  0  0  0  0  0  0  0  0  0  0  0  # atno 10763 bound_to 10752
  154.8043  135.3268  154.7474 H   0  0  0  0  0  0  0  0  0  0  0  0  # atno 10764 bound_to 10752
  153.7936  135.6968  153.4922 H   0  0  0  0  0  0  0  0  0  0  0  0  # atno 10765 bound_to 10752
  140.1762  134.4160  155.8227 H   0  0  0  0  0  0  0  0  0  0  0  0  # atno 11005 bound_to 11000
  145.1037  140.9362  143.4697 LP  0  0  0  0  0  0  0  0  0  0  0  0  # atno 17320 bound_to 7965
  145.0646  139.3078  143.5863 LP  0  0  0  0  0  0  0  0  0  0  0  0  # atno 17321 bound_to 7965
  140.2323  144.4355  150.6295 LP  0  0  0  0  0  0  0  0  0  0  0  0  # atno 17342 bound_to 10162
  140.6347  143.2193  151.6421 LP  0  0  0  0  0  0  0  0  0  0  0  0  # atno 17343 bound_to 10162
  157.1636  131.0351  151.2829 LP  0  0  0  0  0  0  0  0  0  0  0  0  # atno 17370 bound_to 10713
  157.4290  130.7480  149.6974 LP  0  0  0  0  0  0  0  0  0  0  0  0  # atno 17371 bound_to 10713
  141.2220  133.6979  156.7851 LP  0  0  0  0  0  0  0  0  0  0  0  0  # atno 17394 bound_to 11000
  140.2320  134.8679  157.3486 LP  0  0  0  0  0  0  0  0  0  0  0  0  # atno 17395 bound_to 11000

$$$$
