AV-unprocessed.smi:886|AV-procd|sdf|4051|dock7
  -GOLD-   22720 1543D 1   1.00000     0.00000
 Structure written by MMmdl.
 35 37  0  0  0  0  0  0  0  0  1 V2000
  154.9923  140.3547  161.8454 C   0  0  0  0  0  0  0  0  0  0  0  0
  154.1141  141.2200  161.0736 N   0  0  0  0  0  0  0  0  0  0  0  0
  153.7450  140.9833  159.8053 C   0  0  0  0  0  0  0  0  0  0  0  0
  154.1327  140.0082  159.1604 O   0  0  0  0  0  0  0  0  0  0  0  0
  152.8381  142.0220  159.1955 C   0  0  0  0  0  0  0  0  0  0  0  0
  152.7428  143.3005  159.7942 C   0  0  0  0  0  0  0  0  0  0  0  0
  151.8782  144.2636  159.2443 C   0  0  0  0  0  0  0  0  0  0  0  0
  151.1276  143.9119  158.1098 C   0  0  0  0  0  0  0  0  0  0  0  0
  151.1981  142.6981  157.5280 N   0  0  0  0  0  0  0  0  0  0  0  0
  152.0276  141.7626  158.0520 C   0  0  0  0  0  0  0  0  0  0  0  0
  152.0801  140.5192  157.3972 N   0  0  0  0  0  0  0  0  0  0  0  0
  151.8435  140.4281  155.9594 C   0  0  1  0  0  0  0  0  0  0  0  0
  152.0524  139.0139  155.4121 C   0  0  0  0  0  0  0  0  0  0  0  0
  150.7163  138.7474  154.7051 C   0  0  1  0  0  0  0  0  0  0  0  0
  149.5911  138.4752  155.7121 C   0  0  0  0  0  0  0  0  0  0  0  0
  149.3435  139.8694  156.2840 C   0  0  0  0  0  0  0  0  0  0  0  0
  150.3883  140.7121  155.5325 C   0  0  2  0  0  0  0  0  0  0  0  0
  150.3732  140.0547  154.2766 O   0  0  0  0  0  0  0  0  0  0  0  0
  155.1238  140.7583  162.8493 H   0  0  0  0  0  0  0  0  0  0  0  0
  155.9744  140.2809  161.3765 H   0  0  0  0  0  0  0  0  0  0  0  0
  154.5713  139.3522  161.9331 H   0  0  0  0  0  0  0  0  0  0  0  0
  153.7662  142.0514  161.5292 H   0  0  0  0  0  0  0  0  0  0  0  0
  153.3200  143.5481  160.6734 H   0  0  0  0  0  0  0  0  0  0  0  0
  151.7905  145.2460  159.6836 H   0  0  0  0  0  0  0  0  0  0  0  0
  150.4526  144.6232  157.6576 H   0  0  0  0  0  0  0  0  0  0  0  0
  151.8464  139.7043  157.9464 H   0  0  0  0  0  0  0  0  0  0  0  0
  152.5191  141.1049  155.4340 H   0  0  0  0  0  0  0  0  0  0  0  0
  152.8776  139.0037  154.6993 H   0  0  0  0  0  0  0  0  0  0  0  0
  152.2626  138.2695  156.1814 H   0  0  0  0  0  0  0  0  0  0  0  0
  150.7787  138.0117  153.9030 H   0  0  0  0  0  0  0  0  0  0  0  0
  148.6976  138.1032  155.2094 H   0  0  0  0  0  0  0  0  0  0  0  0
  149.8821  137.7511  156.4739 H   0  0  0  0  0  0  0  0  0  0  0  0
  148.3354  140.2047  156.0377 H   0  0  0  0  0  0  0  0  0  0  0  0
  149.4536  139.9131  157.3674 H   0  0  0  0  0  0  0  0  0  0  0  0
  150.1413  141.7729  155.4802 H   0  0  0  0  0  0  0  0  0  0  0  0
  1  2  1  0  0  0  0
  1 19  1  0  0  0  0
  1 20  1  0  0  0  0
  1 21  1  0  0  0  0
  2  3  1  0  0  0  0
  2 22  1  0  0  0  0
  3  4  2  0  0  0  0
  3  5  1  0  0  0  0
  5 10  1  0  0  0  0
  5  6  2  0  0  0  0
  6  7  1  0  0  0  0
  6 23  1  0  0  0  0
  7  8  2  0  0  0  0
  7 24  1  0  0  0  0
  8  9  1  0  0  0  0
  8 25  1  0  0  0  0
  9 10  2  0  0  0  0
 10 11  1  0  0  0  0
 11 12  1  0  0  0  0
 11 26  1  0  0  0  0
 12 17  1  0  0  0  0
 12 13  1  0  0  0  0
 12 27  1  0  0  0  0
 13 14  1  0  0  0  0
 13 28  1  0  0  0  0
 13 29  1  0  0  0  0
 14 18  1  0  0  0  0
 14 15  1  0  0  0  0
 14 30  1  0  0  0  0
 15 16  1  0  0  0  0
 15 31  1  0  0  0  0
 15 32  1  0  0  0  0
 16 17  1  0  0  0  0
 16 33  1  0  0  0  0
 16 34  1  0  0  0  0
 17 18  1  0  0  0  0
 17 35  1  0  0  0  0
M  END
> <s_m_source_file>
AV-unprocessed.smi

> <i_m_source_file_index>
886

> <i_lp_mmshare_version>
43012

> <i_f3d_flags>
0

> <s_epik_input>
W0NIM11bTkhdQyg9TyljMVtjSF1bY0hdW2NIXW5jMVtOSF1bQ0BIXShbQ0gyXVtDQEhdMjMpW0NASF0oTzMpW0NIMl1bQ0gyXTI=

> <s_epik_cmdline>
J2VwaWtfcHl0aG9uJywgJy1waCcsICc3LjAnLCAnLXRuJywgJzgnLCAnLW1hJywgJzIwMCcsICctbWV0YWxfYmluZGluZycsICctaW1hZScsICc8aW5maWxlLm1hZT4nLCAnLW9tYWUnLCAnPG91dGZpbGUubWFlPic=

> <r_lp_tautomer_probability>
1

> <r_epik_Ionization_Penalty>
0.0065447

> <r_epik_Ionization_Penalty_Charging>
0

> <r_epik_Ionization_Penalty_Neutral>
0.0065447

> <r_epik_State_Penalty>
0.00484214

> <r_epik_Charging_Adjusted_Penalty>
0.00484214

> <i_epik_Tot_Q>
0

> <i_epik_Tot_abs_Q>
0

> <r_epik_Metal_State_Penalty>
-0

> <b_epik_Metal_Only>
0

> <s_lp_Force_Field>
OPLS_2005

> <r_lp_Energy>
46.6605

> <b_lp_Chiralities_Consistent>
1

> <s_lp_Variant>
AV-unprocessed.smi:886-4

> <Gold.Version>
5.8.1

> <Gold.Id.Protein>
6NUR|6NUR_protein|mol2

> <Gold.PLP.Fitness>
44.3542

> <Gold.PLP.PLP>
-36.0142

> <Gold.PLP.part.hbond>
-2.0000

> <Gold.PLP.part.metal>
0.0000

> <Gold.PLP.part.buried>
-4.9576

> <Gold.PLP.part.nonpolar>
-29.1760

> <Gold.PLP.part.repulsive>
0.3412

> <Gold.PLP.ligand.clash>
0.0000

> <Gold.PLP.ligand.torsion>
0.4114

> <Gold.PLP.Chemscore.Hbond>
1.9913

> <Gold.PLP.Chemscore.CHOScore>
1.0582

> <Gold.PLP.Chemscore.Metal>
0.0000

> <Gold.Chemscore.Hbonds>
donor molecule, donor type, donor heavy atom, donor atom, acceptor molecule, acceptor atom, score
      P1  H  7989  7998       L1    18  1.00
      P1  H  7997  8009       L1     4  0.98
      L1  C     8    25       P1  8028  1.00
      L1  C     8    25       P1  8029  0.02

> <Gold.PLP.Chemscore.Internal.Correction>
0.0146

> <Gold.Rescore>
     Score         DG    S(hbond)    S(metal)    S(lipo)     H(rot)  DE(clash)    DE(int)     intcor
     16.12     -17.60       1.28        0.00      88.81       1.00       0.06       1.41       ----

> <Gold.Chemscore.Fitness>
16.1222

> <Gold.Chemscore.DG>
-17.5991

> <Gold.Chemscore.ZeroCoef>
-5.4800

> <Gold.Chemscore.Hbond>
1.2841

> <Gold.Chemscore.Metal>
0.0000

> <Gold.Chemscore.Lipo>
88.8059

> <Gold.Chemscore.Internal_Hbond>
0.0000

> <Gold.Chemscore.DEClash>
0.0620

> <Gold.Chemscore.DEInternal>
1.4149

> <Gold.Chemscore.Rot>
1.0000

> <Gold.Chemscore.Internal.Correction>
   9.000000E+99

> <Gold.Chemscore.Hbonds>
donor molecule, donor type, donor heavy atom, donor atom, acceptor molecule, acceptor atom, score
      P1  H  7989  7998       L1    18  0.26
      P1  H  7997  8009       L1     4  0.88

> <Gold.Chemscore.Hbond.Weighted>
-4.2888

> <Gold.Chemscore.Metal.Weighted>
-0.0000

> <Gold.Chemscore.Lipo.Weighted>
-10.3903

> <Gold.Chemscore.Internal_Hbond.Weighted>
0.0000

> <Gold.Chemscore.DEClash.Weighted>
0.0620

> <Gold.Chemscore.DEInternal.Weighted>
1.4149

> <Gold.Chemscore.Rot.Weighted>
2.5600

> <Gold.Chemscore.Internal.Correction.Weighted>
   9.000000E+99

> <Gold.Protein.RotatedTorsions>
[ 6907 6896 6895 6894 ] final   73.89 input  -60.11 | X-H torsion
[ 7974 7965 7964 7962 ] final   59.72 input  175.53 | X-H torsion
[ 8008 7997 7996 7995 ] final  133.05 input   59.86 | X-H torsion
[ 10167 10162 10161 10158 ] final   37.25 input  -65.29 | X-H torsion
[ 10718 10713 10712 10709 ] final   12.77 input   66.30 | X-H torsion
[ 10763 10752 10751 10750 ] final  -31.36 input  -60.55 | X-H torsion
[ 11005 11000 10999 10996 ] final   59.99 input  -57.11 | X-H torsion

> <Gold.Protein.ActiveResidues>
 VAL166  LYS551  ARG553  GLY616  TRP617  ASP618  TYR619  PRO620  LYS621  CYS622 
 ASP623  PHE694  ASN695  SER759  ASP760  ASP761  ALA762  ILE779  LEU786  VAL792 
 PHE793  MET794  SER795  GLU796  ALA797  LYS798  CYS799  TRP800  GLU811  SER814 

> <Gold.Protein.RotatedAtoms>
  152.4947  134.4354  159.9525 H   0  0  0  0  0  0  0  0  0  0  0  0  # atno 6907 bound_to 6896
  151.4335  133.3657  159.2780 H   0  0  0  0  0  0  0  0  0  0  0  0  # atno 6908 bound_to 6896
  150.9138  134.8578  159.7503 H   0  0  0  0  0  0  0  0  0  0  0  0  # atno 6909 bound_to 6896
  145.9041  139.3603  143.0575 H   0  0  0  0  0  0  0  0  0  0  0  0  # atno 7974 bound_to 7965
  156.2989  140.2531  156.3189 H   0  0  0  0  0  0  0  0  0  0  0  0  # atno 8008 bound_to 7997
  154.9254  140.0399  157.2039 H   0  0  0  0  0  0  0  0  0  0  0  0  # atno 8009 bound_to 7997
  154.8270  140.2869  155.5752 H   0  0  0  0  0  0  0  0  0  0  0  0  # atno 8010 bound_to 7997
  140.4050  144.1671  150.6136 H   0  0  0  0  0  0  0  0  0  0  0  0  # atno 10167 bound_to 10162
  157.0150  130.6132  149.5713 H   0  0  0  0  0  0  0  0  0  0  0  0  # atno 10718 bound_to 10713
  153.7961  135.6894  153.4863 H   0  0  0  0  0  0  0  0  0  0  0  0  # atno 10763 bound_to 10752
  153.1718  135.4539  154.9911 H   0  0  0  0  0  0  0  0  0  0  0  0  # atno 10764 bound_to 10752
  154.8025  135.3343  154.7453 H   0  0  0  0  0  0  0  0  0  0  0  0  # atno 10765 bound_to 10752
  140.0263  134.6077  155.9568 H   0  0  0  0  0  0  0  0  0  0  0  0  # atno 11005 bound_to 11000
  145.8754  140.9395  143.0629 LP  0  0  0  0  0  0  0  0  0  0  0  0  # atno 17320 bound_to 7965
  144.6738  140.0710  143.7473 LP  0  0  0  0  0  0  0  0  0  0  0  0  # atno 17321 bound_to 7965
  140.4699  143.2417  151.9103 LP  0  0  0  0  0  0  0  0  0  0  0  0  # atno 17342 bound_to 10162
  139.4783  144.5380  151.8569 LP  0  0  0  0  0  0  0  0  0  0  0  0  # atno 17343 bound_to 10162
  156.0122  130.5214  150.8025 LP  0  0  0  0  0  0  0  0  0  0  0  0  # atno 17370 bound_to 10713
  157.5292  131.0935  150.9977 LP  0  0  0  0  0  0  0  0  0  0  0  0  # atno 17371 bound_to 10713
  141.1805  133.6546  156.5000 LP  0  0  0  0  0  0  0  0  0  0  0  0  # atno 17394 bound_to 11000
  140.4300  134.7110  157.4937 LP  0  0  0  0  0  0  0  0  0  0  0  0  # atno 17395 bound_to 11000

$$$$
