AV-unprocessed.smi:813|AV-procd|sdf|3818|dock2
  -GOLD-   22720 1253D 1   1.00000     0.00000
 Structure written by MMmdl.
 36 37  0  0  0  0  0  0  0  0  1 V2000
  144.3597  136.5666  153.4635 C   0  0  0  0  0  0  0  0  0  0  0  0
  145.1152  136.5134  152.1249 C   0  0  1  0  0  0  0  0  0  0  0  0
  146.4527  137.0652  152.3355 N   0  0  0  0  0  0  0  0  0  0  0  0
  146.7313  138.1541  153.0684 C   0  0  0  0  0  0  0  0  0  0  0  0
  145.8743  138.8074  153.6644 O   0  0  0  0  0  0  0  0  0  0  0  0
  148.0482  138.4253  153.0567 N   0  0  0  0  0  0  0  0  0  0  0  0
  148.7360  139.4754  153.7211 C   0  0  0  0  0  0  0  0  0  0  0  0
  149.9583  139.3418  154.2595 N   0  0  0  0  0  0  0  0  0  0  0  0
  150.4008  140.5216  154.8439 N   0  0  0  0  0  0  0  0  0  0  0  0
  149.4960  141.4972  154.7240 C   0  0  0  0  0  0  0  0  0  0  0  0
  148.0151  141.0706  153.8840 S   0  0  0  0  0  0  0  0  0  0  0  0
  145.2077  135.0451  151.6813 C   0  0  0  0  0  0  0  0  0  0  0  0
  144.1869  134.3948  151.4508 O   0  0  0  0  0  0  0  0  0  0  0  0
  146.4447  134.5403  151.5614 N   0  0  0  0  0  0  0  0  0  0  0  0
  146.7604  133.1682  151.1737 C   0  0  0  0  0  0  0  0  0  0  0  0
  146.0181  132.7628  149.8848 C   0  0  0  0  0  0  0  0  0  0  0  0
  144.8882  131.8357  150.3298 C   0  0  0  0  0  0  0  0  0  0  0  0
  145.4600  131.1146  151.5461 C   0  0  0  0  0  0  0  0  0  0  0  0
  146.3023  132.1746  152.2601 C   0  0  0  0  0  0  0  0  0  0  0  0
  143.3474  136.1730  153.3622 H   0  0  0  0  0  0  0  0  0  0  0  0
  144.2726  137.5936  153.8198 H   0  0  0  0  0  0  0  0  0  0  0  0
  144.8649  135.9908  154.2406 H   0  0  0  0  0  0  0  0  0  0  0  0
  144.5797  137.1049  151.3794 H   0  0  0  0  0  0  0  0  0  0  0  0
  147.2155  136.5923  151.8733 H   0  0  0  0  0  0  0  0  0  0  0  0
  148.6286  137.8051  152.5117 H   0  0  0  0  0  0  0  0  0  0  0  0
  149.7024  142.4755  155.1321 H   0  0  0  0  0  0  0  0  0  0  0  0
  147.2251  135.1454  151.7720 H   0  0  0  0  0  0  0  0  0  0  0  0
  147.8374  133.0741  151.0215 H   0  0  0  0  0  0  0  0  0  0  0  0
  145.6488  133.6106  149.3060 H   0  0  0  0  0  0  0  0  0  0  0  0
  146.7007  132.2092  149.2388 H   0  0  0  0  0  0  0  0  0  0  0  0
  144.0214  132.4282  150.6259 H   0  0  0  0  0  0  0  0  0  0  0  0
  144.5728  131.1503  149.5428 H   0  0  0  0  0  0  0  0  0  0  0  0
  144.6855  130.6928  152.1873 H   0  0  0  0  0  0  0  0  0  0  0  0
  146.1016  130.2962  151.2168 H   0  0  0  0  0  0  0  0  0  0  0  0
  147.1454  131.7288  152.7887 H   0  0  0  0  0  0  0  0  0  0  0  0
  145.6853  132.6756  153.0078 H   0  0  0  0  0  0  0  0  0  0  0  0
  1  2  1  0  0  0  0
  1 20  1  0  0  0  0
  1 21  1  0  0  0  0
  1 22  1  0  0  0  0
  2  3  1  0  0  0  0
  2 12  1  0  0  0  0
  2 23  1  0  0  0  0
  3  4  1  0  0  0  0
  3 24  1  0  0  0  0
  4  5  2  0  0  0  0
  4  6  1  0  0  0  0
  6  7  1  0  0  0  0
  6 25  1  0  0  0  0
  7 11  1  0  0  0  0
  7  8  2  0  0  0  0
  8  9  1  0  0  0  0
  9 10  2  0  0  0  0
 10 11  1  0  0  0  0
 10 26  1  0  0  0  0
 12 13  2  0  0  0  0
 12 14  1  0  0  0  0
 14 15  1  0  0  0  0
 14 27  1  0  0  0  0
 15 19  1  0  0  0  0
 15 16  1  0  0  0  0
 15 28  1  0  0  0  0
 16 17  1  0  0  0  0
 16 29  1  0  0  0  0
 16 30  1  0  0  0  0
 17 18  1  0  0  0  0
 17 31  1  0  0  0  0
 17 32  1  0  0  0  0
 18 19  1  0  0  0  0
 18 33  1  0  0  0  0
 18 34  1  0  0  0  0
 19 35  1  0  0  0  0
 19 36  1  0  0  0  0
M  END
> <s_m_source_file>
AV-unprocessed.smi

> <i_m_source_file_index>
813

> <i_lp_mmshare_version>
43012

> <i_f3d_flags>
0

> <s_epik_input>
W0NIMl0xW0NIMl1bQ0gyXVtDSDJdW0NIXTFbTkhdQyg9TylbQ0BIXShbQ0gzXSlbTkhdQyg9TylbTkhdYzJubltjSF1zMg==

> <s_epik_cmdline>
J2VwaWtfcHl0aG9uJywgJy1waCcsICc3LjAnLCAnLXRuJywgJzgnLCAnLW1hJywgJzIwMCcsICctbWV0YWxfYmluZGluZycsICctaW1hZScsICc8aW5maWxlLm1hZT4nLCAnLW9tYWUnLCAnPG91dGZpbGUubWFlPic=

> <r_lp_tautomer_probability>
1

> <r_epik_Ionization_Penalty>
0.00321247

> <r_epik_Ionization_Penalty_Charging>
0

> <r_epik_Ionization_Penalty_Neutral>
0.00321247

> <r_epik_State_Penalty>
-0

> <r_epik_Charging_Adjusted_Penalty>
0

> <i_epik_Tot_Q>
0

> <i_epik_Tot_abs_Q>
0

> <r_epik_Metal_State_Penalty>
0.363968

> <b_epik_Metal_Only>
0

> <s_lp_Force_Field>
OPLS_2005

> <r_lp_Energy>
15.9742

> <b_lp_Chiralities_Consistent>
1

> <s_lp_Variant>
AV-unprocessed.smi:813-2

> <Gold.Version>
5.8.1

> <Gold.Id.Protein>
6NUR|6NUR_protein|mol2

> <Gold.PLP.Fitness>
41.5642

> <Gold.PLP.PLP>
-29.9495

> <Gold.PLP.part.hbond>
-5.0000

> <Gold.PLP.part.metal>
0.0000

> <Gold.PLP.part.buried>
-1.7900

> <Gold.PLP.part.nonpolar>
-24.3739

> <Gold.PLP.part.repulsive>
1.3380

> <Gold.PLP.ligand.clash>
1.3689

> <Gold.PLP.ligand.torsion>
0.6010

> <Gold.PLP.Chemscore.Hbond>
3.7240

> <Gold.PLP.Chemscore.CHOScore>
1.0000

> <Gold.PLP.Chemscore.Metal>
0.0000

> <Gold.Chemscore.Hbonds>
donor molecule, donor type, donor heavy atom, donor atom, acceptor molecule, acceptor atom, score
      L1  H     3    24       P1  7948  0.98
      L1  H     6    25       P1  7948  1.00
      L1  H    14    27       P1  7948  1.00
      P1  H  7989  7998       L1     9  0.68
      L1  C    10    26       P1  8028  1.00

> <Gold.PLP.Chemscore.Internal.Correction>
0.0136

> <Gold.Rescore>
     Score         DG    S(hbond)    S(metal)    S(lipo)     H(rot)  DE(clash)    DE(int)     intcor
     12.95     -17.96       2.94        0.00      60.89       1.74       0.00       5.00       ----

> <Gold.Chemscore.Fitness>
12.9502

> <Gold.Chemscore.DG>
-17.9553

> <Gold.Chemscore.ZeroCoef>
-5.4800

> <Gold.Chemscore.Hbond>
2.9381

> <Gold.Chemscore.Metal>
0.0000

> <Gold.Chemscore.Lipo>
60.8944

> <Gold.Chemscore.Internal_Hbond>
0.0000

> <Gold.Chemscore.DEClash>
0.0029

> <Gold.Chemscore.DEInternal>
5.0022

> <Gold.Chemscore.Rot>
1.7433

> <Gold.Chemscore.Internal.Correction>
   9.000000E+99

> <Gold.Chemscore.Hbonds>
donor molecule, donor type, donor heavy atom, donor atom, acceptor molecule, acceptor atom, score
      L1  H     3    24       P1  7948  0.92
      L1  H     6    25       P1  7948  0.96
      L1  H    14    27       P1  7948  0.92
      P1  H  7989  7998       L1     9  0.03

> <Gold.Chemscore.Hbond.Weighted>
-9.8134

> <Gold.Chemscore.Metal.Weighted>
-0.0000

> <Gold.Chemscore.Lipo.Weighted>
-7.1246

> <Gold.Chemscore.Internal_Hbond.Weighted>
0.0000

> <Gold.Chemscore.DEClash.Weighted>
0.0029

> <Gold.Chemscore.DEInternal.Weighted>
5.0022

> <Gold.Chemscore.Rot.Weighted>
4.4628

> <Gold.Chemscore.Internal.Correction.Weighted>
   9.000000E+99

> <Gold.Protein.RotatedTorsions>
[ 6907 6896 6895 6894 ] final -173.93 input  -60.11 | X-H torsion
[ 7974 7965 7964 7962 ] final  -13.68 input  175.53 | X-H torsion
[ 8008 7997 7996 7995 ] final    4.62 input   59.86 | X-H torsion
[ 10167 10162 10161 10158 ] final -167.65 input  -65.29 | X-H torsion
[ 10718 10713 10712 10709 ] final  136.86 input   66.30 | X-H torsion
[ 10763 10752 10751 10750 ] final -145.82 input  -60.55 | X-H torsion
[ 11005 11000 10999 10996 ] final   51.76 input  -57.11 | X-H torsion

> <Gold.Protein.ActiveResidues>
 VAL166  LYS551  ARG553  GLY616  TRP617  ASP618  TYR619  PRO620  LYS621  CYS622 
 ASP623  PHE694  ASN695  SER759  ASP760  ASP761  ALA762  ILE779  LEU786  VAL792 
 PHE793  MET794  SER795  GLU796  ALA797  LYS798  CYS799  TRP800  GLU811  SER814 

> <Gold.Protein.RotatedAtoms>
  151.5641  133.3399  159.2976 H   0  0  0  0  0  0  0  0  0  0  0  0  # atno 6907 bound_to 6896
  150.8405  134.7698  159.6940 H   0  0  0  0  0  0  0  0  0  0  0  0  # atno 6908 bound_to 6896
  152.4474  134.5473  159.9908 H   0  0  0  0  0  0  0  0  0  0  0  0  # atno 6909 bound_to 6896
  146.2105  140.3238  142.8393 H   0  0  0  0  0  0  0  0  0  0  0  0  # atno 7974 bound_to 7965
  154.7182  140.2706  155.6566 H   0  0  0  0  0  0  0  0  0  0  0  0  # atno 8008 bound_to 7997
  156.2816  140.2740  156.1769 H   0  0  0  0  0  0  0  0  0  0  0  0  # atno 8009 bound_to 7997
  155.0543  140.0371  157.2544 H   0  0  0  0  0  0  0  0  0  0  0  0  # atno 8010 bound_to 7997
  139.6036  144.0960  152.1769 H   0  0  0  0  0  0  0  0  0  0  0  0  # atno 10167 bound_to 10162
  157.4422  131.1058  151.0130 H   0  0  0  0  0  0  0  0  0  0  0  0  # atno 10718 bound_to 10713
  154.8366  135.3403  154.6564 H   0  0  0  0  0  0  0  0  0  0  0  0  # atno 10763 bound_to 10752
  153.7178  135.6960  153.5025 H   0  0  0  0  0  0  0  0  0  0  0  0  # atno 10764 bound_to 10752
  153.2404  135.4386  155.0644 H   0  0  0  0  0  0  0  0  0  0  0  0  # atno 10765 bound_to 10752
  140.0905  134.5215  155.8856 H   0  0  0  0  0  0  0  0  0  0  0  0  # atno 11005 bound_to 11000
  144.8901  140.7513  143.5932 LP  0  0  0  0  0  0  0  0  0  0  0  0  # atno 17320 bound_to 7965
  145.3160  139.1803  143.4613 LP  0  0  0  0  0  0  0  0  0  0  0  0  # atno 17321 bound_to 7965
  140.0562  144.5893  150.7298 LP  0  0  0  0  0  0  0  0  0  0  0  0  # atno 17342 bound_to 10162
  140.7268  143.2645  151.4093 LP  0  0  0  0  0  0  0  0  0  0  0  0  # atno 17343 bound_to 10162
  157.0989  130.5973  149.5455 LP  0  0  0  0  0  0  0  0  0  0  0  0  # atno 17370 bound_to 10713
  155.9953  130.5020  150.7454 LP  0  0  0  0  0  0  0  0  0  0  0  0  # atno 17371 bound_to 10713
  141.2076  133.6666  156.6318 LP  0  0  0  0  0  0  0  0  0  0  0  0  # atno 17394 bound_to 11000
  140.3359  134.7890  157.4361 LP  0  0  0  0  0  0  0  0  0  0  0  0  # atno 17395 bound_to 11000

$$$$
