AV-unprocessed.smi:2981|AV-procd|sdf|11375|dock7
  -GOLD-   2272016293D 1   1.00000     0.00000
 Structure written by MMmdl.
 31 32  0  0  0  0  0  0  0  0  1 V2000
  146.6729  137.7421  154.7064 O   0  0  0  0  0  0  0  0  0  0  0  0
  147.1167  138.1557  153.6342 C   0  0  0  0  0  0  0  0  0  0  0  0
  146.2117  138.2584  152.3979 C   0  0  0  0  0  0  0  0  0  0  0  0
  145.4597  137.0241  152.1271 N   0  0  0  0  0  0  0  0  0  0  0  0
  146.0164  136.2280  151.1414 N   0  0  0  0  0  0  0  0  0  0  0  0
  145.4515  135.1117  150.8335 C   0  0  0  0  0  0  0  0  0  0  0  0
  144.2420  134.6554  151.4821 C   0  0  0  0  0  0  0  0  0  0  0  0
  143.5297  133.1479  151.0269 Cl  0  0  0  0  0  0  0  0  0  0  0  0
  143.7007  135.4464  152.4424 C   0  0  0  0  0  0  0  0  0  0  0  0
  142.2538  134.9687  153.2626 Cl  0  0  0  0  0  0  0  0  0  0  0  0
  144.3170  136.7262  152.8194 C   0  0  0  0  0  0  0  0  0  0  0  0
  143.8559  137.4737  153.6831 O   0  0  0  0  0  0  0  0  0  0  0  0
  148.3951  138.5236  153.4620 N   0  0  0  0  0  0  0  0  0  0  0  0
  149.4170  138.5112  154.5035 C   0  0  1  0  0  0  0  0  0  0  0  0
  149.6129  137.0947  155.0749 C   0  0  0  0  0  0  0  0  0  0  0  0
  150.9138  137.0682  155.8867 C   0  0  0  0  0  0  0  0  0  0  0  0
  152.0343  138.2824  155.0920 S   0  0  0  0  0  0  0  0  0  0  0  0
  152.4313  139.2875  156.0897 O   0  0  0  0  0  0  0  0  0  0  0  0
  153.0418  137.5724  154.2896 O   0  0  0  0  0  0  0  0  0  0  0  0
  150.7743  138.9986  153.9718 C   0  0  0  0  0  0  0  0  0  0  0  0
  145.5202  139.0951  152.5157 H   0  0  0  0  0  0  0  0  0  0  0  0
  146.8388  138.5160  151.5424 H   0  0  0  0  0  0  0  0  0  0  0  0
  145.8555  134.4508  150.0666 H   0  0  0  0  0  0  0  0  0  0  0  0
  148.6782  138.8443  152.5472 H   0  0  0  0  0  0  0  0  0  0  0  0
  149.1096  139.1616  155.3248 H   0  0  0  0  0  0  0  0  0  0  0  0
  148.7603  136.7775  155.6761 H   0  0  0  0  0  0  0  0  0  0  0  0
  149.7031  136.3846  154.2513 H   0  0  0  0  0  0  0  0  0  0  0  0
  150.7363  137.3965  156.9111 H   0  0  0  0  0  0  0  0  0  0  0  0
  151.3806  136.0834  155.9125 H   0  0  0  0  0  0  0  0  0  0  0  0
  150.9668  138.6175  152.9682 H   0  0  0  0  0  0  0  0  0  0  0  0
  150.8611  140.0853  153.9535 H   0  0  0  0  0  0  0  0  0  0  0  0
  1  2  2  0  0  0  0
  2  3  1  0  0  0  0
  2 13  1  0  0  0  0
  3  4  1  0  0  0  0
  3 21  1  0  0  0  0
  3 22  1  0  0  0  0
  4 11  1  0  0  0  0
  4  5  1  0  0  0  0
  5  6  2  0  0  0  0
  6  7  1  0  0  0  0
  6 23  1  0  0  0  0
  7  8  1  0  0  0  0
  7  9  2  0  0  0  0
  9 10  1  0  0  0  0
  9 11  1  0  0  0  0
 11 12  2  0  0  0  0
 13 14  1  0  0  0  0
 13 24  1  0  0  0  0
 14 20  1  0  0  0  0
 14 15  1  0  0  0  0
 14 25  1  0  0  0  0
 15 16  1  0  0  0  0
 15 26  1  0  0  0  0
 15 27  1  0  0  0  0
 16 17  1  0  0  0  0
 16 28  1  0  0  0  0
 16 29  1  0  0  0  0
 17 18  2  0  0  0  0
 17 19  2  0  0  0  0
 17 20  1  0  0  0  0
 20 30  1  0  0  0  0
 20 31  1  0  0  0  0
M  END
> <s_m_source_file>
AV-unprocessed.smi

> <i_m_source_file_index>
2981

> <i_lp_mmshare_version>
43012

> <i_f3d_flags>
0

> <s_epik_input>
Tz1TMSg9TylbQ0gyXVtDSDJdW0NASF0oW0NIMl0xKVtOSF1DKD1PKVtDSDJdbjJuW2NIXWMoQ2wpYyhDbCljMj1P

> <s_epik_cmdline>
J2VwaWtfcHl0aG9uJywgJy1waCcsICc3LjAnLCAnLXRuJywgJzgnLCAnLW1hJywgJzIwMCcsICctbWV0YWxfYmluZGluZycsICctaW1hZScsICc8aW5maWxlLm1hZT4nLCAnLW9tYWUnLCAnPG91dGZpbGUubWFlPic=

> <r_lp_tautomer_probability>
1

> <r_epik_Ionization_Penalty>
1.07216e-07

> <r_epik_Ionization_Penalty_Charging>
2.33395e-11

> <r_epik_Ionization_Penalty_Neutral>
1.07193e-07

> <r_epik_State_Penalty>
-0

> <r_epik_Charging_Adjusted_Penalty>
2.33395e-11

> <i_epik_Tot_Q>
0

> <i_epik_Tot_abs_Q>
0

> <r_epik_Metal_State_Penalty>
-0

> <b_epik_Metal_Only>
0

> <s_lp_Force_Field>
OPLS_2005

> <r_lp_Energy>
17.277

> <b_lp_Chiralities_Consistent>
1

> <s_lp_Variant>
AV-unprocessed.smi:2981-2

> <Gold.Version>
5.8.1

> <Gold.Id.Protein>
6NUR|6NUR_protein|mol2

> <Gold.PLP.Fitness>
38.1786

> <Gold.PLP.PLP>
-28.8933

> <Gold.PLP.part.hbond>
-3.8796

> <Gold.PLP.part.metal>
0.0000

> <Gold.PLP.part.buried>
-2.6827

> <Gold.PLP.part.nonpolar>
-23.7898

> <Gold.PLP.part.repulsive>
1.3364

> <Gold.PLP.ligand.clash>
0.0000

> <Gold.PLP.ligand.torsion>
0.3723

> <Gold.PLP.Chemscore.Hbond>
2.3430

> <Gold.PLP.Chemscore.CHOScore>
1.0000

> <Gold.PLP.Chemscore.Metal>
0.0000

> <Gold.Chemscore.Hbonds>
donor molecule, donor type, donor heavy atom, donor atom, acceptor molecule, acceptor atom, score
      L1  H    13    24       P1  7957  0.98
      P1  H  7997  8008       L1    18  0.84
      P1  H 10752 10763       L1    19  0.34
      L1  C     6    23       P1  7921  1.00

> <Gold.PLP.Chemscore.Internal.Correction>
0.0010

> <Gold.Rescore>
     Score         DG    S(hbond)    S(metal)    S(lipo)     H(rot)  DE(clash)    DE(int)     intcor
     12.61     -15.50       2.25        0.00      58.71       1.70       1.41       1.49       ----

> <Gold.Chemscore.Fitness>
12.6113

> <Gold.Chemscore.DG>
-15.5046

> <Gold.Chemscore.ZeroCoef>
-5.4800

> <Gold.Chemscore.Hbond>
2.2514

> <Gold.Chemscore.Metal>
0.0000

> <Gold.Chemscore.Lipo>
58.7140

> <Gold.Chemscore.Internal_Hbond>
0.0000

> <Gold.Chemscore.DEClash>
1.4078

> <Gold.Chemscore.DEInternal>
1.4856

> <Gold.Chemscore.Rot>
1.7049

> <Gold.Chemscore.Internal.Correction>
   9.000000E+99

> <Gold.Chemscore.Hbonds>
donor molecule, donor type, donor heavy atom, donor atom, acceptor molecule, acceptor atom, score
      L1  H    13    24       P1  7957  0.91
      P1  H  7997  8008       L1    18  0.82
      P1  H 10752 10763       L1    19  0.34

> <Gold.Chemscore.Hbond.Weighted>
-7.5197

> <Gold.Chemscore.Metal.Weighted>
-0.0000

> <Gold.Chemscore.Lipo.Weighted>
-6.8695

> <Gold.Chemscore.Internal_Hbond.Weighted>
0.0000

> <Gold.Chemscore.DEClash.Weighted>
1.4078

> <Gold.Chemscore.DEInternal.Weighted>
1.4856

> <Gold.Chemscore.Rot.Weighted>
4.3646

> <Gold.Chemscore.Internal.Correction.Weighted>
   9.000000E+99

> <Gold.Protein.RotatedTorsions>
[ 6907 6896 6895 6894 ] final   65.57 input  -60.11 | X-H torsion
[ 7974 7965 7964 7962 ] final   -5.74 input  175.53 | X-H torsion
[ 8008 7997 7996 7995 ] final  -38.37 input   59.86 | X-H torsion
[ 10167 10162 10161 10158 ] final  -60.48 input  -65.29 | X-H torsion
[ 10718 10713 10712 10709 ] final  117.60 input   66.30 | X-H torsion
[ 10763 10752 10751 10750 ] final   20.45 input  -60.55 | X-H torsion
[ 11005 11000 10999 10996 ] final  -31.61 input  -57.11 | X-H torsion

> <Gold.Protein.ActiveResidues>
 VAL166  LYS551  ARG553  GLY616  TRP617  ASP618  TYR619  PRO620  LYS621  CYS622 
 ASP623  PHE694  ASN695  SER759  ASP760  ASP761  ALA762  ILE779  LEU786  VAL792 
 PHE793  MET794  SER795  GLU796  ALA797  LYS798  CYS799  TRP800  GLU811  SER814 

> <Gold.Protein.RotatedAtoms>
  152.4417  134.5577  159.9884 H   0  0  0  0  0  0  0  0  0  0  0  0  # atno 6907 bound_to 6896
  151.5673  133.3389  159.2990 H   0  0  0  0  0  0  0  0  0  0  0  0  # atno 6908 bound_to 6896
  150.8325  134.7617  159.6929 H   0  0  0  0  0  0  0  0  0  0  0  0  # atno 6909 bound_to 6896
  146.2346  140.2066  142.8334 H   0  0  0  0  0  0  0  0  0  0  0  0  # atno 7974 bound_to 7965
  154.4038  140.1579  156.2689 H   0  0  0  0  0  0  0  0  0  0  0  0  # atno 8008 bound_to 7997
  155.8971  140.3435  155.5976 H   0  0  0  0  0  0  0  0  0  0  0  0  # atno 8009 bound_to 7997
  155.7492  140.0802  157.2200 H   0  0  0  0  0  0  0  0  0  0  0  0  # atno 8010 bound_to 7997
  140.6068  143.2376  151.5802 H   0  0  0  0  0  0  0  0  0  0  0  0  # atno 10167 bound_to 10162
  157.6085  131.1039  150.7638 H   0  0  0  0  0  0  0  0  0  0  0  0  # atno 10718 bound_to 10713
  153.1077  135.6689  153.9557 H   0  0  0  0  0  0  0  0  0  0  0  0  # atno 10763 bound_to 10752
  153.9110  135.3025  155.3450 H   0  0  0  0  0  0  0  0  0  0  0  0  # atno 10764 bound_to 10752
  154.7497  135.5040  153.9344 H   0  0  0  0  0  0  0  0  0  0  0  0  # atno 10765 bound_to 10752
  140.9483  133.7236  156.1180 H   0  0  0  0  0  0  0  0  0  0  0  0  # atno 11005 bound_to 11000
  144.9740  140.8396  143.5438 LP  0  0  0  0  0  0  0  0  0  0  0  0  # atno 17320 bound_to 7965
  145.2051  139.2232  143.5172 LP  0  0  0  0  0  0  0  0  0  0  0  0  # atno 17321 bound_to 7965
  139.5331  144.2858  152.1192 LP  0  0  0  0  0  0  0  0  0  0  0  0  # atno 17342 bound_to 10162
  140.2050  144.4620  150.6413 LP  0  0  0  0  0  0  0  0  0  0  0  0  # atno 17343 bound_to 10162
  156.8021  130.4924  149.5368 LP  0  0  0  0  0  0  0  0  0  0  0  0  # atno 17370 bound_to 10713
  156.1180  130.6089  151.0150 LP  0  0  0  0  0  0  0  0  0  0  0  0  # atno 17371 bound_to 10713
  140.7639  134.3909  157.5520 LP  0  0  0  0  0  0  0  0  0  0  0  0  # atno 17394 bound_to 11000
  139.8840  134.8979  156.2732 LP  0  0  0  0  0  0  0  0  0  0  0  0  # atno 17395 bound_to 11000

$$$$
