AV-unprocessed.smi:133|AV-procd|sdf|1165|dock1
  -GOLD-   2262018303D 1   1.00000     0.00000
 Structure written by MMmdl.
 47 50  0  0  0  0  0  0  0  0  1 V2000
  153.5116  138.7764  156.8492 O   0  0  0  0  0  0  0  0  0  0  0  0
  152.5659  139.1802  156.1712 C   0  0  0  0  0  0  0  0  0  0  0  0
  152.1681  138.4566  154.8746 C   0  0  0  0  0  0  0  0  0  0  0  0
  150.7421  138.0648  154.8244 N   0  0  0  0  0  0  0  0  0  0  0  0
  149.7736  139.0619  154.5478 C   0  0  0  0  0  0  0  0  0  0  0  0
  150.0987  140.2369  154.3712 O   0  0  0  0  0  0  0  0  0  0  0  0
  148.3933  138.5966  154.4777 C   0  0  0  0  0  0  0  0  0  0  0  0
  147.4090  139.4698  154.2048 F   0  0  0  0  0  0  0  0  0  0  0  0
  148.0876  137.2983  154.6781 C   0  0  0  0  0  0  0  0  0  0  0  0
  149.0382  136.3399  154.9687 N   0  0  0  0  0  0  0  0  0  0  0  0
  148.6092  134.8996  155.1282 C   0  0  2  0  0  0  0  0  0  0  0  0
  149.3551  133.9266  154.1954 C   0  0  0  0  0  0  0  0  0  0  0  0
  148.2276  133.2787  153.4080 C   0  0  0  0  0  0  0  0  0  0  0  0
  147.0119  133.5160  154.2974 C   0  0  0  0  0  0  0  0  0  0  0  0
  147.2486  134.8063  154.8384 O   0  0  0  0  0  0  0  0  0  0  0  0
  150.4039  136.7035  155.0167 C   0  0  0  0  0  0  0  0  0  0  0  0
  151.2793  135.8591  155.2127 O   0  0  0  0  0  0  0  0  0  0  0  0
  151.8269  140.2653  156.4649 N   0  0  0  0  0  0  0  0  0  0  0  0
  151.9370  141.1376  157.5810 C   0  0  0  0  0  0  0  0  0  0  0  0
  152.3614  140.7075  158.8696 C   0  0  0  0  0  0  0  0  0  0  0  0
  152.4307  141.6175  159.9475 C   0  0  0  0  0  0  0  0  0  0  0  0
  152.0611  142.9532  159.7181 C   0  0  0  0  0  0  0  0  0  0  0  0
  151.6319  143.3758  158.4670 C   0  0  0  0  0  0  0  0  0  0  0  0
  151.5553  142.4850  157.3826 C   0  0  0  0  0  0  0  0  0  0  0  0
  151.2831  144.8391  158.4662 C   0  0  0  0  0  0  0  0  0  0  0  0
  151.7472  145.3311  159.8587 C   0  0  0  0  0  0  0  0  0  0  0  0
  152.0555  144.0792  160.7156 C   0  0  0  0  0  0  0  0  0  0  0  0
  152.4254  139.0965  154.0289 H   0  0  0  0  0  0  0  0  0  0  0  0
  152.8158  137.5872  154.7519 H   0  0  0  0  0  0  0  0  0  0  0  0
  147.0502  137.0049  154.6084 H   0  0  0  0  0  0  0  0  0  0  0  0
  148.7691  134.6523  156.1787 H   0  0  0  0  0  0  0  0  0  0  0  0
  150.0846  134.4296  153.5600 H   0  0  0  0  0  0  0  0  0  0  0  0
  149.8791  133.1922  154.8081 H   0  0  0  0  0  0  0  0  0  0  0  0
  148.0943  133.7885  152.4532 H   0  0  0  0  0  0  0  0  0  0  0  0
  148.4030  132.2223  153.2037 H   0  0  0  0  0  0  0  0  0  0  0  0
  146.0721  133.4763  153.7467 H   0  0  0  0  0  0  0  0  0  0  0  0
  146.9713  132.7832  155.1051 H   0  0  0  0  0  0  0  0  0  0  0  0
  151.1472  140.5367  155.7696 H   0  0  0  0  0  0  0  0  0  0  0  0
  152.6248  139.6780  159.0574 H   0  0  0  0  0  0  0  0  0  0  0  0
  152.7535  141.2915  160.9254 H   0  0  0  0  0  0  0  0  0  0  0  0
  151.2161  142.8298  156.4164 H   0  0  0  0  0  0  0  0  0  0  0  0
  151.7827  145.3687  157.6542 H   0  0  0  0  0  0  0  0  0  0  0  0
  150.2051  144.9521  158.3461 H   0  0  0  0  0  0  0  0  0  0  0  0
  152.6722  145.8951  159.7321 H   0  0  0  0  0  0  0  0  0  0  0  0
  151.0286  146.0014  160.3313 H   0  0  0  0  0  0  0  0  0  0  0  0
  151.2731  143.9035  161.4544 H   0  0  0  0  0  0  0  0  0  0  0  0
  153.0127  144.1588  161.2319 H   0  0  0  0  0  0  0  0  0  0  0  0
  1  2  2  0  0  0  0
  2  3  1  0  0  0  0
  2 18  1  0  0  0  0
  3  4  1  0  0  0  0
  3 28  1  0  0  0  0
  3 29  1  0  0  0  0
  4 16  1  0  0  0  0
  4  5  1  0  0  0  0
  5  6  2  0  0  0  0
  5  7  1  0  0  0  0
  7  8  1  0  0  0  0
  7  9  2  0  0  0  0
  9 10  1  0  0  0  0
  9 30  1  0  0  0  0
 10 11  1  0  0  0  0
 10 16  1  0  0  0  0
 11 15  1  0  0  0  0
 11 12  1  0  0  0  0
 11 31  1  0  0  0  0
 12 13  1  0  0  0  0
 12 32  1  0  0  0  0
 12 33  1  0  0  0  0
 13 14  1  0  0  0  0
 13 34  1  0  0  0  0
 13 35  1  0  0  0  0
 14 15  1  0  0  0  0
 14 36  1  0  0  0  0
 14 37  1  0  0  0  0
 16 17  2  0  0  0  0
 18 19  1  0  0  0  0
 18 38  1  0  0  0  0
 19 24  1  0  0  0  0
 19 20  2  0  0  0  0
 20 21  1  0  0  0  0
 20 39  1  0  0  0  0
 21 22  2  0  0  0  0
 21 40  1  0  0  0  0
 22 27  1  0  0  0  0
 22 23  1  0  0  0  0
 23 24  2  0  0  0  0
 23 25  1  0  0  0  0
 24 41  1  0  0  0  0
 25 26  1  0  0  0  0
 25 42  1  0  0  0  0
 25 43  1  0  0  0  0
 26 27  1  0  0  0  0
 26 44  1  0  0  0  0
 26 45  1  0  0  0  0
 27 46  1  0  0  0  0
 27 47  1  0  0  0  0
M  END
> <s_m_source_file>
AV-unprocessed.smi

> <i_m_source_file_index>
133

> <i_lp_mmshare_version>
43012

> <i_f3d_flags>
0

> <s_epik_input>
W0NIMl0xW0NIMl1bQ0gyXWMoYzEyKVtjSF1jKFtjSF1bY0hdMilbTkhdQyg9TylbQ0gyXW4zYyg9TyljKEYpW2NIXW4oYzM9TylbQ0BASF00W0NIMl1bQ0gyXVtDSDJdTzQ=

> <s_epik_cmdline>
J2VwaWtfcHl0aG9uJywgJy1waCcsICc3LjAnLCAnLXRuJywgJzgnLCAnLW1hJywgJzIwMCcsICctbWV0YWxfYmluZGluZycsICctaW1hZScsICc8aW5maWxlLm1hZT4nLCAnLW9tYWUnLCAnPG91dGZpbGUubWFlPic=

> <r_lp_tautomer_probability>
1

> <r_epik_Ionization_Penalty>
4.05675e-06

> <r_epik_Ionization_Penalty_Charging>
3.88729e-08

> <r_epik_Ionization_Penalty_Neutral>
4.01788e-06

> <r_epik_State_Penalty>
-0

> <r_epik_Charging_Adjusted_Penalty>
3.88729e-08

> <i_epik_Tot_Q>
0

> <i_epik_Tot_abs_Q>
0

> <r_epik_Metal_State_Penalty>
-0

> <b_epik_Metal_Only>
0

> <s_epik_Chemistry_Notes>
This compound contains an acetal/aminal-like group ( X-CH(R)-Y where X, Y are N, S, or O) that may be acid/base labile, releasing an aldehyde.

> <s_lp_Force_Field>
OPLS_2005

> <r_lp_Energy>
40.9248

> <b_lp_Chiralities_Consistent>
1

> <s_lp_Variant>
AV-unprocessed.smi:133-1

> <Gold.Version>
5.8.1

> <Gold.Id.Protein>
6NUR|6NUR_protein|mol2

> <Gold.PLP.Fitness>
57.1204

> <Gold.PLP.PLP>
-49.1590

> <Gold.PLP.part.hbond>
-2.7990

> <Gold.PLP.part.metal>
0.0000

> <Gold.PLP.part.buried>
-4.8905

> <Gold.PLP.part.nonpolar>
-41.9476

> <Gold.PLP.part.repulsive>
0.4374

> <Gold.PLP.ligand.clash>
0.0000

> <Gold.PLP.ligand.torsion>
0.5336

> <Gold.PLP.Chemscore.Hbond>
2.9760

> <Gold.PLP.Chemscore.CHOScore>
0.0000

> <Gold.PLP.Chemscore.Metal>
0.0000

> <Gold.Chemscore.Hbonds>
donor molecule, donor type, donor heavy atom, donor atom, acceptor molecule, acceptor atom, score
      P1  H  7989  7998       L1     6  0.98
      P1  H  7997  8009       L1     1  0.90
      P1  H 10752 10763       L1    17  1.00

> <Gold.PLP.Chemscore.Internal.Correction>
0.1006

> <Gold.Rescore>
     Score         DG    S(hbond)    S(metal)    S(lipo)     H(rot)  DE(clash)    DE(int)     intcor
     18.97     -23.42       2.46        0.00     117.74       1.59       0.86       3.59       ----

> <Gold.Chemscore.Fitness>
18.9748

> <Gold.Chemscore.DG>
-23.4182

> <Gold.Chemscore.ZeroCoef>
-5.4800

> <Gold.Chemscore.Hbond>
2.4627

> <Gold.Chemscore.Metal>
0.0000

> <Gold.Chemscore.Lipo>
117.7358

> <Gold.Chemscore.Internal_Hbond>
0.0000

> <Gold.Chemscore.DEClash>
0.8564

> <Gold.Chemscore.DEInternal>
3.5870

> <Gold.Chemscore.Rot>
1.5869

> <Gold.Chemscore.Internal.Correction>
   9.000000E+99

> <Gold.Chemscore.Hbonds>
donor molecule, donor type, donor heavy atom, donor atom, acceptor molecule, acceptor atom, score
      P1  H  7989  7998       L1     6  0.93
      P1  H  7997  8009       L1     1  0.16
      P1  H 10752 10763       L1    17  1.00

> <Gold.Chemscore.Hbond.Weighted>
-8.2255

> <Gold.Chemscore.Metal.Weighted>
-0.0000

> <Gold.Chemscore.Lipo.Weighted>
-13.7751

> <Gold.Chemscore.Internal_Hbond.Weighted>
0.0000

> <Gold.Chemscore.DEClash.Weighted>
0.8564

> <Gold.Chemscore.DEInternal.Weighted>
3.5870

> <Gold.Chemscore.Rot.Weighted>
4.0624

> <Gold.Chemscore.Internal.Correction.Weighted>
   9.000000E+99

> <Gold.Protein.RotatedTorsions>
[ 6907 6896 6895 6894 ] final   84.31 input  -60.11 | X-H torsion
[ 7974 7965 7964 7962 ] final  104.58 input  175.53 | X-H torsion
[ 8008 7997 7996 7995 ] final  175.44 input   59.86 | X-H torsion
[ 10167 10162 10161 10158 ] final  -98.97 input  -65.29 | X-H torsion
[ 10718 10713 10712 10709 ] final  -43.44 input   66.30 | X-H torsion
[ 10763 10752 10751 10750 ] final   60.70 input  -60.55 | X-H torsion
[ 11005 11000 10999 10996 ] final   80.22 input  -57.11 | X-H torsion

> <Gold.Protein.ActiveResidues>
 VAL166  LYS551  ARG553  GLY616  TRP617  ASP618  TYR619  PRO620  LYS621  CYS622 
 ASP623  PHE694  ASN695  SER759  ASP760  ASP761  ALA762  ILE779  LEU786  VAL792 
 PHE793  MET794  SER795  GLU796  ALA797  LYS798  CYS799  TRP800  GLU811  SER814 

> <Gold.Protein.RotatedAtoms>
  152.5349  134.2761  159.8989 H   0  0  0  0  0  0  0  0  0  0  0  0  # atno 6907 bound_to 6896
  151.2716  133.4246  159.2629 H   0  0  0  0  0  0  0  0  0  0  0  0  # atno 6908 bound_to 6896
  151.0362  134.9590  159.8194 H   0  0  0  0  0  0  0  0  0  0  0  0  # atno 6909 bound_to 6896
  145.3308  139.2487  143.3661 H   0  0  0  0  0  0  0  0  0  0  0  0  # atno 7974 bound_to 7965
  156.0870  140.1409  156.9640 H   0  0  0  0  0  0  0  0  0  0  0  0  # atno 8008 bound_to 7997
  154.4619  140.0940  156.6964 H   0  0  0  0  0  0  0  0  0  0  0  0  # atno 8009 bound_to 7997
  155.4982  140.3450  155.4368 H   0  0  0  0  0  0  0  0  0  0  0  0  # atno 8010 bound_to 7997
  140.2674  143.3367  152.0568 H   0  0  0  0  0  0  0  0  0  0  0  0  # atno 10167 bound_to 10162
  156.2490  130.4186  149.8672 H   0  0  0  0  0  0  0  0  0  0  0  0  # atno 10718 bound_to 10713
  152.9928  135.5527  154.5915 H   0  0  0  0  0  0  0  0  0  0  0  0  # atno 10763 bound_to 10752
  154.5276  135.2811  155.1211 H   0  0  0  0  0  0  0  0  0  0  0  0  # atno 10764 bound_to 10752
  154.2539  135.6394  153.5303 H   0  0  0  0  0  0  0  0  0  0  0  0  # atno 10765 bound_to 10752
  139.9142  134.7904  156.1881 H   0  0  0  0  0  0  0  0  0  0  0  0  # atno 11005 bound_to 11000
  146.3046  140.3886  142.8692 LP  0  0  0  0  0  0  0  0  0  0  0  0  # atno 17320 bound_to 7965
  144.8865  140.7469  143.5953 LP  0  0  0  0  0  0  0  0  0  0  0  0  # atno 17321 bound_to 7965
  139.4999  144.6679  151.6312 LP  0  0  0  0  0  0  0  0  0  0  0  0  # atno 17342 bound_to 10162
  140.5917  143.9767  150.6329 LP  0  0  0  0  0  0  0  0  0  0  0  0  # atno 17343 bound_to 10162
  156.6227  130.8633  151.3479 LP  0  0  0  0  0  0  0  0  0  0  0  0  # atno 17370 bound_to 10713
  157.7206  130.9554  150.1426 LP  0  0  0  0  0  0  0  0  0  0  0  0  # atno 17371 bound_to 10713
  141.0600  133.6846  156.1935 LP  0  0  0  0  0  0  0  0  0  0  0  0  # atno 17394 bound_to 11000
  140.6675  134.4902  157.5586 LP  0  0  0  0  0  0  0  0  0  0  0  0  # atno 17395 bound_to 11000

$$$$
