AV-unprocessed.smi:112|AV-procd|sdf|1087|dock3
  -GOLD-   2262018183D 1   1.00000     0.00000
 Structure written by MMmdl.
 54 57  0  0  0  0  0  0  0  0  3 V2000
  143.9443  136.9901  155.9725 C   0  0  0  0  0  0  0  0  0  0  0  0
  144.7174  137.2826  154.6965 C   0  0  0  0  0  0  0  0  0  0  0  0
  144.6123  136.5022  153.5969 C   0  0  0  0  0  0  0  0  0  0  0  0
  145.2970  136.7428  152.4210 N   0  0  0  0  0  0  0  0  0  0  0  0
  145.1268  135.8217  151.2381 C   0  0  2  0  0  0  0  0  0  0  0  0
  143.9323  134.8966  151.4218 C   0  0  0  0  0  0  0  0  0  0  0  0
  144.3473  133.7084  150.5753 C   0  0  1  0  0  0  0  0  0  0  0  0
  143.8845  133.8674  149.2478 O   0  0  0  0  0  0  0  0  0  0  0  0
  145.8904  133.7334  150.6095 C   0  0  2  0  0  0  0  0  0  0  0  0
  146.4783  132.6580  151.5383 C   0  0  0  0  0  0  0  0  0  0  0  0
  147.8645  132.8674  151.7022 O   0  0  0  0  0  0  0  0  0  0  0  0
  146.2505  135.0085  151.1446 O   0  0  0  0  0  0  0  0  0  0  0  0
  146.1500  137.8602  152.3231 C   0  0  0  0  0  0  0  0  0  0  0  0
  146.7442  138.1159  151.2734 O   0  0  0  0  0  0  0  0  0  0  0  0
  146.2921  138.6896  153.4588 N   0  0  0  0  0  0  0  0  0  0  0  0
  147.1742  139.8754  153.3649 C   0  0  0  0  0  0  0  0  0  0  0  0
  148.5174  139.7109  154.1101 C   0  0  0  0  0  0  0  0  0  0  0  0
  149.3577  138.9332  153.6561 O   0  0  0  0  0  0  0  0  0  0  0  0
  148.7087  140.4359  155.2405 N   0  0  0  0  0  0  0  0  0  0  0  0
  147.7018  141.3572  155.7953 C   0  0  0  0  0  0  0  0  0  0  0  0
  148.3217  141.9574  157.0762 C   0  0  0  0  0  0  0  0  0  0  0  0
  149.6734  141.3096  157.1347 C   0  0  0  0  0  0  0  0  0  0  0  0
  150.6602  141.5140  158.1141 C   0  0  0  0  0  0  0  0  0  0  0  0
  151.8868  140.8128  158.0067 C   0  0  0  0  0  0  0  0  0  0  0  0
  152.9470  141.0026  159.0164 N   0  3  0  0  0  0  0  0  0  0  0  0
  153.9124  140.2458  158.9958 O   0  0  0  0  0  0  0  0  0  0  0  0
  152.8164  141.9094  159.8322 O   0  5  0  0  0  0  0  0  0  0  0  0
  152.0816  139.9261  156.9144 C   0  0  0  0  0  0  0  0  0  0  0  0
  151.0789  139.7326  155.9392 C   0  0  0  0  0  0  0  0  0  0  0  0
  149.8644  140.4412  156.0662 C   0  0  0  0  0  0  0  0  0  0  0  0
  145.5965  138.4543  154.6710 C   0  0  0  0  0  0  0  0  0  0  0  0
  145.7338  139.2147  155.6314 O   0  0  0  0  0  0  0  0  0  0  0  0
  143.3332  136.0917  155.8795 H   0  0  0  0  0  0  0  0  0  0  0  0
  143.2809  137.8209  156.2155 H   0  0  0  0  0  0  0  0  0  0  0  0
  144.6291  136.8419  156.8082 H   0  0  0  0  0  0  0  0  0  0  0  0
  143.9521  135.6474  153.6371 H   0  0  0  0  0  0  0  0  0  0  0  0
  145.0674  136.4255  150.3319 H   0  0  0  0  0  0  0  0  0  0  0  0
  143.8548  134.5999  152.4685 H   0  0  0  0  0  0  0  0  0  0  0  0
  143.0013  135.3762  151.1169 H   0  0  0  0  0  0  0  0  0  0  0  0
  143.9315  132.7790  150.9663 H   0  0  0  0  0  0  0  0  0  0  0  0
  143.0480  134.3068  149.2690 H   0  0  0  0  0  0  0  0  0  0  0  0
  146.2975  133.6215  149.6026 H   0  0  0  0  0  0  0  0  0  0  0  0
  145.9778  132.6492  152.5070 H   0  0  0  0  0  0  0  0  0  0  0  0
  146.3523  131.6679  151.0993 H   0  0  0  0  0  0  0  0  0  0  0  0
  148.3167  132.0746  151.4560 H   0  0  0  0  0  0  0  0  0  0  0  0
  147.3751  140.1156  152.3200 H   0  0  0  0  0  0  0  0  0  0  0  0
  146.6628  140.7597  153.7478 H   0  0  0  0  0  0  0  0  0  0  0  0
  147.4674  142.1483  155.0817 H   0  0  0  0  0  0  0  0  0  0  0  0
  146.7795  140.8261  156.0345 H   0  0  0  0  0  0  0  0  0  0  0  0
  148.4196  143.0415  157.0114 H   0  0  0  0  0  0  0  0  0  0  0  0
  147.7405  141.7072  157.9641 H   0  0  0  0  0  0  0  0  0  0  0  0
  150.4724  142.1978  158.9289 H   0  0  0  0  0  0  0  0  0  0  0  0
  153.0088  139.3818  156.8124 H   0  0  0  0  0  0  0  0  0  0  0  0
  151.2685  139.0512  155.1251 H   0  0  0  0  0  0  0  0  0  0  0  0
  1  2  1  0  0  0  0
  1 33  1  0  0  0  0
  1 34  1  0  0  0  0
  1 35  1  0  0  0  0
  2 31  1  0  0  0  0
  2  3  2  0  0  0  0
  3  4  1  0  0  0  0
  3 36  1  0  0  0  0
  4  5  1  0  0  0  0
  4 13  1  0  0  0  0
  5 12  1  0  0  0  0
  5  6  1  0  0  0  0
  5 37  1  0  0  0  0
  6  7  1  0  0  0  0
  6 38  1  0  0  0  0
  6 39  1  0  0  0  0
  7  8  1  0  0  0  0
  7  9  1  0  0  0  0
  7 40  1  0  0  0  0
  8 41  1  0  0  0  0
  9 10  1  0  0  0  0
  9 12  1  0  0  0  0
  9 42  1  0  0  0  0
 10 11  1  0  0  0  0
 10 43  1  0  0  0  0
 10 44  1  0  0  0  0
 11 45  1  0  0  0  0
 13 14  2  0  0  0  0
 13 15  1  0  0  0  0
 15 16  1  0  0  0  0
 15 31  1  0  0  0  0
 16 17  1  0  0  0  0
 16 46  1  0  0  0  0
 16 47  1  0  0  0  0
 17 18  2  0  0  0  0
 17 19  1  0  0  0  0
 19 30  1  0  0  0  0
 19 20  1  0  0  0  0
 20 21  1  0  0  0  0
 20 48  1  0  0  0  0
 20 49  1  0  0  0  0
 21 22  1  0  0  0  0
 21 50  1  0  0  0  0
 21 51  1  0  0  0  0
 22 30  2  0  0  0  0
 22 23  1  0  0  0  0
 23 24  2  0  0  0  0
 23 52  1  0  0  0  0
 24 25  1  0  0  0  0
 24 28  1  0  0  0  0
 25 26  2  0  0  0  0
 25 27  1  0  0  0  0
 28 29  2  0  0  0  0
 28 53  1  0  0  0  0
 29 30  1  0  0  0  0
 29 54  1  0  0  0  0
 31 32  2  0  0  0  0
M  CHG  1  25   1
M  CHG  1  27  -1
M  END
> <s_m_source_file>
AV-unprocessed.smi

> <i_m_source_file_index>
112

> <i_lp_mmshare_version>
43012

> <i_f3d_flags>
0

> <s_epik_input>
W09IXVtDSDJdW0NAQEhdKE8xKVtDQEhdKFtPSF0pW0NIMl1bQ0BIXTFuKFtjSF1jMltDSDNdKWMoPU8pbihjMj1PKVtDSDJdQyg9TylOKFtDSDJdW0NIMl0zKWMoYzM0KVtjSF1bY0hdYyhbY0hdNClbTitdKD1PKVtPLV0=

> <s_epik_cmdline>
J2VwaWtfcHl0aG9uJywgJy1waCcsICc3LjAnLCAnLXRuJywgJzgnLCAnLW1hJywgJzIwMCcsICctbWV0YWxfYmluZGluZycsICctaW1hZScsICc8aW5maWxlLm1hZT4nLCAnLW9tYWUnLCAnPG91dGZpbGUubWFlPic=

> <r_lp_tautomer_probability>
1

> <r_epik_Ionization_Penalty>
2.5696e-07

> <r_epik_Ionization_Penalty_Charging>
1.04886e-08

> <r_epik_Ionization_Penalty_Neutral>
2.46472e-07

> <r_epik_State_Penalty>
-0

> <r_epik_Charging_Adjusted_Penalty>
1.04886e-08

> <i_epik_Tot_Q>
0

> <i_epik_Tot_abs_Q>
2

> <r_epik_Metal_State_Penalty>
-0

> <b_epik_Metal_Only>
0

> <s_epik_Chemistry_Notes>
This compound contains an acetal/aminal-like group ( X-CH(R)-Y where X, Y are N, S, or O) that may be acid/base labile, releasing an aldehyde.

> <s_lp_Force_Field>
OPLS_2005

> <r_lp_Energy>
58.3709

> <b_lp_Chiralities_Consistent>
1

> <s_lp_Variant>
AV-unprocessed.smi:112-5

> <Gold.Version>
5.8.1

> <Gold.Id.Protein>
6NUR|6NUR_protein|mol2

> <Gold.PLP.Fitness>
49.6453

> <Gold.PLP.PLP>
-39.2977

> <Gold.PLP.part.hbond>
-5.0000

> <Gold.PLP.part.metal>
0.0000

> <Gold.PLP.part.buried>
-6.0562

> <Gold.PLP.part.nonpolar>
-33.2972

> <Gold.PLP.part.repulsive>
5.0207

> <Gold.PLP.ligand.clash>
0.0000

> <Gold.PLP.ligand.torsion>
0.7372

> <Gold.PLP.Chemscore.Hbond>
3.9280

> <Gold.PLP.Chemscore.CHOScore>
0.0000

> <Gold.PLP.Chemscore.Metal>
0.0000

> <Gold.Chemscore.Hbonds>
donor molecule, donor type, donor heavy atom, donor atom, acceptor molecule, acceptor atom, score
      L1  H     8    41       P1 10186  0.94
      L1  H    11    45       P1 10747  1.00
      P1  H  7954  7966       L1    14  1.00
      P1  H  7997  8009       L1    26  0.91

> <Gold.PLP.Chemscore.Internal.Correction>
0.0379

> <Gold.Rescore>
     Score         DG    S(hbond)    S(metal)    S(lipo)     H(rot)  DE(clash)    DE(int)     intcor
     12.56     -18.65       3.80        0.00      76.19       3.29       2.98       3.11       ----

> <Gold.Chemscore.Fitness>
12.5578

> <Gold.Chemscore.DG>
-18.6491

> <Gold.Chemscore.ZeroCoef>
-5.4800

> <Gold.Chemscore.Hbond>
3.7967

> <Gold.Chemscore.Metal>
0.0000

> <Gold.Chemscore.Lipo>
76.1944

> <Gold.Chemscore.Internal_Hbond>
0.0000

> <Gold.Chemscore.DEClash>
2.9776

> <Gold.Chemscore.DEInternal>
3.1137

> <Gold.Chemscore.Rot>
3.2916

> <Gold.Chemscore.Internal.Correction>
   9.000000E+99

> <Gold.Chemscore.Hbonds>
donor molecule, donor type, donor heavy atom, donor atom, acceptor molecule, acceptor atom, score
      L1  H     8    41       P1 10186  0.89
      L1  H    11    45       P1 10747  0.98
      P1  H  7954  7966       L1    14  0.97
      P1  H  7997  8009       L1    26  0.80

> <Gold.Chemscore.Hbond.Weighted>
-12.6809

> <Gold.Chemscore.Metal.Weighted>
-0.0000

> <Gold.Chemscore.Lipo.Weighted>
-8.9147

> <Gold.Chemscore.Internal_Hbond.Weighted>
0.0000

> <Gold.Chemscore.DEClash.Weighted>
2.9776

> <Gold.Chemscore.DEInternal.Weighted>
3.1137

> <Gold.Chemscore.Rot.Weighted>
8.4265

> <Gold.Chemscore.Internal.Correction.Weighted>
   9.000000E+99

> <Gold.Protein.RotatedTorsions>
[ 6907 6896 6895 6894 ] final -160.65 input  -60.11 | X-H torsion
[ 7974 7965 7964 7962 ] final   10.81 input  175.53 | X-H torsion
[ 8008 7997 7996 7995 ] final  136.12 input   59.86 | X-H torsion
[ 10167 10162 10161 10158 ] final   98.21 input  -65.29 | X-H torsion
[ 10718 10713 10712 10709 ] final    1.26 input   66.30 | X-H torsion
[ 10763 10752 10751 10750 ] final -158.92 input  -60.55 | X-H torsion
[ 11005 11000 10999 10996 ] final  -84.75 input  -57.11 | X-H torsion

> <Gold.Protein.ActiveResidues>
 VAL166  LYS551  ARG553  GLY616  TRP617  ASP618  TYR619  PRO620  LYS621  CYS622 
 ASP623  PHE694  ASN695  SER759  ASP760  ASP761  ALA762  ILE779  LEU786  VAL792 
 PHE793  MET794  SER795  GLU796  ALA797  LYS798  CYS799  TRP800  GLU811  SER814 

> <Gold.Protein.RotatedAtoms>
  151.3524  133.3920  159.2681 H   0  0  0  0  0  0  0  0  0  0  0  0  # atno 6907 bound_to 6896
  150.9790  134.9150  159.7844 H   0  0  0  0  0  0  0  0  0  0  0  0  # atno 6908 bound_to 6896
  152.5211  134.3488  159.9296 H   0  0  0  0  0  0  0  0  0  0  0  0  # atno 6909 bound_to 6896
  146.2382  139.9578  142.8462 H   0  0  0  0  0  0  0  0  0  0  0  0  # atno 7974 bound_to 7965
  156.3004  140.2453  156.3693 H   0  0  0  0  0  0  0  0  0  0  0  0  # atno 8008 bound_to 7997
  154.8804  140.0413  157.1798 H   0  0  0  0  0  0  0  0  0  0  0  0  # atno 8009 bound_to 7997
  154.8702  140.2934  155.5490 H   0  0  0  0  0  0  0  0  0  0  0  0  # atno 8010 bound_to 7997
  139.7730  144.6916  151.0130 H   0  0  0  0  0  0  0  0  0  0  0  0  # atno 10167 bound_to 10162
  156.8456  130.5536  149.5674 H   0  0  0  0  0  0  0  0  0  0  0  0  # atno 10718 bound_to 10713
  154.7517  135.3094  154.8544 H   0  0  0  0  0  0  0  0  0  0  0  0  # atno 10763 bound_to 10752
  153.9330  135.6783  153.4749 H   0  0  0  0  0  0  0  0  0  0  0  0  # atno 10764 bound_to 10752
  153.1113  135.4865  154.8969 H   0  0  0  0  0  0  0  0  0  0  0  0  # atno 10765 bound_to 10752
  141.1648  133.7362  156.8914 H   0  0  0  0  0  0  0  0  0  0  0  0  # atno 11005 bound_to 11000
  145.1800  140.9762  143.4272 LP  0  0  0  0  0  0  0  0  0  0  0  0  # atno 17320 bound_to 7965
  144.9951  139.3652  143.6195 LP  0  0  0  0  0  0  0  0  0  0  0  0  # atno 17321 bound_to 7965
  140.7815  143.4568  151.0335 LP  0  0  0  0  0  0  0  0  0  0  0  0  # atno 17342 bound_to 10162
  139.8251  143.7767  152.3178 LP  0  0  0  0  0  0  0  0  0  0  0  0  # atno 17343 bound_to 10162
  156.0856  130.5856  150.9643 LP  0  0  0  0  0  0  0  0  0  0  0  0  # atno 17370 bound_to 10713
  157.6332  131.0919  150.8401 LP  0  0  0  0  0  0  0  0  0  0  0  0  # atno 17371 bound_to 10713
  140.1646  134.9142  157.2757 LP  0  0  0  0  0  0  0  0  0  0  0  0  # atno 17394 bound_to 11000
  140.2572  134.3614  155.7420 LP  0  0  0  0  0  0  0  0  0  0  0  0  # atno 17395 bound_to 11000

$$$$
