AV-unprocessed.smi:299|AV-procd|sdf|2265|dock4
  -GOLD-   2262022153D 1   1.00000     0.00000
 Structure written by MMmdl.
 42 43  0  0  0  0  0  0  0  0  2 V2000
  146.9300  134.7018  154.6644 C   0  0  0  0  0  0  0  0  0  0  0  0
  146.2080  134.2734  153.3699 C   0  0  2  0  0  0  0  0  0  0  0  0
  146.8734  132.9823  152.8432 C   0  0  0  0  0  0  0  0  0  0  0  0
  146.2134  132.4767  151.5588 C   0  0  0  0  0  0  0  0  0  0  0  0
  146.2302  133.5887  150.5111 C   0  0  0  0  0  0  0  0  0  0  0  0
  145.5557  134.8557  151.0558 C   0  0  0  0  0  0  0  0  0  0  0  0
  146.1986  135.3393  152.3130 N   0  3  1  0  0  0  0  0  0  0  0  0
  145.6235  136.6393  152.7696 C   0  0  0  0  0  0  0  0  0  0  0  0
  146.6020  137.4901  153.6027 C   0  0  0  0  0  0  0  0  0  0  0  0
  146.6675  138.9479  153.1173 C   0  0  0  0  0  0  0  0  0  0  0  0
  147.9941  139.5192  153.3182 N   0  0  0  0  0  0  0  0  0  0  0  0
  148.6647  139.5203  154.4820 C   0  0  0  0  0  0  0  0  0  0  0  0
  148.2119  139.0421  155.5216 O   0  0  0  0  0  0  0  0  0  0  0  0
  150.0490  140.1740  154.4839 C   0  0  0  0  0  0  0  0  0  0  0  0
  151.0912  139.2336  154.8543 N   0  0  0  0  0  0  0  0  0  0  0  0
  151.4054  138.0343  154.3604 C   0  0  0  0  0  0  0  0  0  0  0  0
  152.4363  137.4984  154.9955 N   0  0  0  0  0  0  0  0  0  0  0  0
  152.7586  138.4595  155.9390 N   0  0  0  0  0  0  0  0  0  0  0  0
  151.9646  139.4919  155.8595 N   0  0  0  0  0  0  0  0  0  0  0  0
  147.0676  133.8514  155.3329 H   0  0  0  0  0  0  0  0  0  0  0  0
  146.3638  135.4391  155.2326 H   0  0  0  0  0  0  0  0  0  0  0  0
  147.9173  135.1134  154.4519 H   0  0  0  0  0  0  0  0  0  0  0  0
  145.1714  134.0434  153.6226 H   0  0  0  0  0  0  0  0  0  0  0  0
  147.9337  133.1626  152.6591 H   0  0  0  0  0  0  0  0  0  0  0  0
  146.8237  132.1993  153.6011 H   0  0  0  0  0  0  0  0  0  0  0  0
  146.7385  131.5973  151.1849 H   0  0  0  0  0  0  0  0  0  0  0  0
  145.1869  132.1687  151.7619 H   0  0  0  0  0  0  0  0  0  0  0  0
  147.2586  133.8122  150.2236 H   0  0  0  0  0  0  0  0  0  0  0  0
  145.7209  133.2546  149.6066 H   0  0  0  0  0  0  0  0  0  0  0  0
  145.6110  135.6122  150.2755 H   0  0  0  0  0  0  0  0  0  0  0  0
  144.4963  134.6677  151.2374 H   0  0  0  0  0  0  0  0  0  0  0  0
  145.2611  137.2060  151.9107 H   0  0  0  0  0  0  0  0  0  0  0  0
  144.7616  136.4618  153.4084 H   0  0  0  0  0  0  0  0  0  0  0  0
  146.2999  137.4741  154.6508 H   0  0  0  0  0  0  0  0  0  0  0  0
  147.6053  137.0682  153.5578 H   0  0  0  0  0  0  0  0  0  0  0  0
  146.3836  139.0156  152.0655 H   0  0  0  0  0  0  0  0  0  0  0  0
  145.9526  139.5579  153.6701 H   0  0  0  0  0  0  0  0  0  0  0  0
  148.4387  139.9352  152.5128 H   0  0  0  0  0  0  0  0  0  0  0  0
  150.2666  140.5719  153.4920 H   0  0  0  0  0  0  0  0  0  0  0  0
  150.0684  141.0145  155.1794 H   0  0  0  0  0  0  0  0  0  0  0  0
  150.8821  137.5577  153.5447 H   0  0  0  0  0  0  0  0  0  0  0  0
  147.1671  135.5197  152.0907 H   0  0  0  0  0  0  0  0  0  0  0  0
  1  2  1  0  0  0  0
  1 20  1  0  0  0  0
  1 21  1  0  0  0  0
  1 22  1  0  0  0  0
  2  7  1  0  0  0  0
  2  3  1  0  0  0  0
  2 23  1  0  0  0  0
  3  4  1  0  0  0  0
  3 24  1  0  0  0  0
  3 25  1  0  0  0  0
  4  5  1  0  0  0  0
  4 26  1  0  0  0  0
  4 27  1  0  0  0  0
  5  6  1  0  0  0  0
  5 28  1  0  0  0  0
  5 29  1  0  0  0  0
  6  7  1  0  0  0  0
  6 30  1  0  0  0  0
  6 31  1  0  0  0  0
  7  8  1  0  0  0  0
  7 42  1  0  0  0  0
  8  9  1  0  0  0  0
  8 32  1  0  0  0  0
  8 33  1  0  0  0  0
  9 10  1  0  0  0  0
  9 34  1  0  0  0  0
  9 35  1  0  0  0  0
 10 11  1  0  0  0  0
 10 36  1  0  0  0  0
 10 37  1  0  0  0  0
 11 12  1  0  0  0  0
 11 38  1  0  0  0  0
 12 13  2  0  0  0  0
 12 14  1  0  0  0  0
 14 15  1  0  0  0  0
 14 39  1  0  0  0  0
 14 40  1  0  0  0  0
 15 19  1  0  0  0  0
 15 16  1  0  0  0  0
 16 17  2  0  0  0  0
 16 41  1  0  0  0  0
 17 18  1  0  0  0  0
 18 19  2  0  0  0  0
M  CHG  1   7   1
M  END
> <s_m_source_file>
AV-unprocessed.smi

> <i_m_source_file_index>
299

> <i_lp_mmshare_version>
43012

> <i_f3d_flags>
0

> <s_epik_input>
W0NIM11bQ0BASF0xW0NIMl1bQ0gyXVtDSDJdW0NIMl1OMVtDSDJdW0NIMl1bQ0gyXVtOSF1DKD1PKVtDSDJdbjJbY0hdbm5uMg==

> <s_epik_cmdline>
J2VwaWtfcHl0aG9uJywgJy1waCcsICc3LjAnLCAnLXRuJywgJzgnLCAnLW1hJywgJzIwMCcsICctbWV0YWxfYmluZGluZycsICctaW1hZScsICc8aW5maWxlLm1hZT4nLCAnLW9tYWUnLCAnPG91dGZpbGUubWFlPic=

> <r_lp_tautomer_probability>
1

> <r_epik_Ionization_Penalty>
0.000544863

> <r_epik_Ionization_Penalty_Charging>
0.000543475

> <r_epik_Ionization_Penalty_Neutral>
1.38784e-06

> <r_epik_State_Penalty>
0.000340025

> <r_epik_Charging_Adjusted_Penalty>
0.0008835

> <i_epik_Tot_Q>
1

> <i_epik_Tot_abs_Q>
1

> <r_epik_Metal_State_Penalty>
-0

> <b_epik_Metal_Only>
0

> <s_lp_Force_Field>
OPLS_2005

> <r_lp_Energy>
24.2757

> <b_lp_Chiralities_Consistent>
1

> <s_lp_Variant>
AV-unprocessed.smi:299-1

> <Gold.Version>
5.8.1

> <Gold.Id.Protein>
6NUR|6NUR_protein|mol2

> <Gold.PLP.Fitness>
40.1173

> <Gold.PLP.PLP>
-27.5796

> <Gold.PLP.part.hbond>
-3.4073

> <Gold.PLP.part.metal>
0.0000

> <Gold.PLP.part.buried>
-0.4581

> <Gold.PLP.part.nonpolar>
-22.7601

> <Gold.PLP.part.repulsive>
0.1731

> <Gold.PLP.ligand.clash>
0.0000

> <Gold.PLP.ligand.torsion>
0.8643

> <Gold.PLP.Chemscore.Hbond>
3.6298

> <Gold.PLP.Chemscore.CHOScore>
1.1037

> <Gold.PLP.Chemscore.Metal>
0.0000

> <Gold.Chemscore.Hbonds>
donor molecule, donor type, donor heavy atom, donor atom, acceptor molecule, acceptor atom, score
      L1  H     7    42       P1  7948  2.00
      L1  H    11    38       P1  7957  1.00
      P1  H  7997  8009       L1    18  0.01
      P1  H 10752 10765       L1    17  0.62
      L1  C    16    41       P1  7948  0.11
      L1  C    16    41       P1  7949  0.79

> <Gold.PLP.Chemscore.Internal.Correction>
0.0659

> <Gold.Rescore>
     Score         DG    S(hbond)    S(metal)    S(lipo)     H(rot)  DE(clash)    DE(int)     intcor
      9.56     -12.64       2.72        0.00      48.57       2.97       0.05       3.02       ----

> <Gold.Chemscore.Fitness>
9.5623

> <Gold.Chemscore.DG>
-12.6354

> <Gold.Chemscore.ZeroCoef>
-5.4800

> <Gold.Chemscore.Hbond>
2.7157

> <Gold.Chemscore.Metal>
0.0000

> <Gold.Chemscore.Lipo>
48.5718

> <Gold.Chemscore.Internal_Hbond>
0.0000

> <Gold.Chemscore.DEClash>
0.0494

> <Gold.Chemscore.DEInternal>
3.0237

> <Gold.Chemscore.Rot>
2.9680

> <Gold.Chemscore.Internal.Correction>
   9.000000E+99

> <Gold.Chemscore.Hbonds>
donor molecule, donor type, donor heavy atom, donor atom, acceptor molecule, acceptor atom, score
      L1  H     7    42       P1  7948  1.00
      L1  H    11    38       P1  7957  0.99
      P1  H 10752 10765       L1    17  0.58

> <Gold.Chemscore.Hbond.Weighted>
-9.0704

> <Gold.Chemscore.Metal.Weighted>
-0.0000

> <Gold.Chemscore.Lipo.Weighted>
-5.6829

> <Gold.Chemscore.Internal_Hbond.Weighted>
0.0000

> <Gold.Chemscore.DEClash.Weighted>
0.0494

> <Gold.Chemscore.DEInternal.Weighted>
3.0237

> <Gold.Chemscore.Rot.Weighted>
7.5980

> <Gold.Chemscore.Internal.Correction.Weighted>
   9.000000E+99

> <Gold.Protein.RotatedTorsions>
[ 6907 6896 6895 6894 ] final  123.94 input  -60.11 | X-H torsion
[ 7974 7965 7964 7962 ] final  -38.99 input  175.53 | X-H torsion
[ 8008 7997 7996 7995 ] final -136.99 input   59.86 | X-H torsion
[ 10167 10162 10161 10158 ] final -178.30 input  -65.29 | X-H torsion
[ 10718 10713 10712 10709 ] final  105.32 input   66.30 | X-H torsion
[ 10763 10752 10751 10750 ] final  175.89 input  -60.55 | X-H torsion
[ 11005 11000 10999 10996 ] final -145.73 input  -57.11 | X-H torsion

> <Gold.Protein.ActiveResidues>
 VAL166  LYS551  ARG553  GLY616  TRP617  ASP618  TYR619  PRO620  LYS621  CYS622 
 ASP623  PHE694  ASN695  SER759  ASP760  ASP761  ALA762  ILE779  LEU786  VAL792 
 PHE793  MET794  SER795  GLU796  ALA797  LYS798  CYS799  TRP800  GLU811  SER814 

> <Gold.Protein.RotatedAtoms>
  152.4120  133.6978  159.6405 H   0  0  0  0  0  0  0  0  0  0  0  0  # atno 6907 bound_to 6896
  150.8000  133.8607  159.3240 H   0  0  0  0  0  0  0  0  0  0  0  0  # atno 6908 bound_to 6896
  151.6347  135.1021  160.0180 H   0  0  0  0  0  0  0  0  0  0  0  0  # atno 6909 bound_to 6896
  146.0436  140.6575  142.9075 H   0  0  0  0  0  0  0  0  0  0  0  0  # atno 7974 bound_to 7965
  155.4044  140.0508  157.3035 H   0  0  0  0  0  0  0  0  0  0  0  0  # atno 8008 bound_to 7997
  154.4975  140.2144  155.9376 H   0  0  0  0  0  0  0  0  0  0  0  0  # atno 8009 bound_to 7997
  156.1425  140.3151  155.8523 H   0  0  0  0  0  0  0  0  0  0  0  0  # atno 8010 bound_to 7997
  139.5439  144.2289  152.0949 H   0  0  0  0  0  0  0  0  0  0  0  0  # atno 10167 bound_to 10162
  157.6709  131.0825  150.5839 H   0  0  0  0  0  0  0  0  0  0  0  0  # atno 10718 bound_to 10713
  154.4738  135.2772  155.1623 H   0  0  0  0  0  0  0  0  0  0  0  0  # atno 10763 bound_to 10752
  154.3361  135.6180  153.5577 H   0  0  0  0  0  0  0  0  0  0  0  0  # atno 10764 bound_to 10752
  152.9867  135.5777  154.5124 H   0  0  0  0  0  0  0  0  0  0  0  0  # atno 10765 bound_to 10752
  140.7892  134.2988  157.5019 H   0  0  0  0  0  0  0  0  0  0  0  0  # atno 11005 bound_to 11000
  144.7087  140.3954  143.7098 LP  0  0  0  0  0  0  0  0  0  0  0  0  # atno 17320 bound_to 7965
  145.6842  139.1625  143.2683 LP  0  0  0  0  0  0  0  0  0  0  0  0  # atno 17321 bound_to 7965
  140.1772  144.4879  150.6547 LP  0  0  0  0  0  0  0  0  0  0  0  0  # atno 17342 bound_to 10162
  140.6679  143.2275  151.5697 LP  0  0  0  0  0  0  0  0  0  0  0  0  # atno 17343 bound_to 10162
  156.6139  130.4387  149.5848 LP  0  0  0  0  0  0  0  0  0  0  0  0  # atno 17370 bound_to 10713
  156.2408  130.6850  151.1554 LP  0  0  0  0  0  0  0  0  0  0  0  0  # atno 17371 bound_to 10713
  139.8733  134.9364  156.3660 LP  0  0  0  0  0  0  0  0  0  0  0  0  # atno 17394 bound_to 11000
  140.9406  133.7517  156.0142 LP  0  0  0  0  0  0  0  0  0  0  0  0  # atno 17395 bound_to 11000

$$$$
