AV-unprocessed.smi:280|AV-procd|sdf|2100|dock3
  -GOLD-   2262021383D 1   1.00000     0.00000
 Structure written by MMmdl.
 59 62  0  0  0  0  0  0  0  0  2 V2000
  149.5892  133.7370  154.3212 C   0  0  0  0  0  0  0  0  0  0  0  0
  148.9985  135.1216  154.6593 C   0  0  1  0  0  0  0  0  0  0  0  0
  150.1750  136.0990  154.8851 C   0  0  0  0  0  0  0  0  0  0  0  0
  149.7251  137.4716  155.0795 N   0  0  0  0  0  0  0  0  0  0  0  0
  150.6659  138.3142  155.5782 C   0  0  0  0  0  0  0  0  0  0  0  0
  151.8054  137.8120  156.1249 N   0  0  0  0  0  0  0  0  0  0  0  0
  152.7361  138.6333  156.6198 C   0  0  0  0  0  0  0  0  0  0  0  0
  152.7310  139.9664  156.6673 N   0  0  0  0  0  0  0  0  0  0  0  0
  151.5935  140.4783  156.1165 C   0  0  0  0  0  0  0  0  0  0  0  0
  150.5200  139.7303  155.5553 C   0  0  0  0  0  0  0  0  0  0  0  0
  149.5410  140.5942  155.0792 N   0  0  0  0  0  0  0  0  0  0  0  0
  150.0065  141.7835  155.3478 C   0  0  0  0  0  0  0  0  0  0  0  0
  151.2301  141.8074  155.9787 N   0  0  0  0  0  0  0  0  0  0  0  0
  151.9801  142.9872  156.3836 C   0  0  0  0  0  0  0  0  0  0  0  0
  151.6372  143.4890  157.8007 C   0  0  0  0  0  0  0  0  0  0  0  0
  150.1672  143.9378  157.8712 C   0  0  0  0  0  0  0  0  0  0  0  0
  149.9215  145.0292  157.0076 O   0  0  0  0  0  0  0  0  0  0  0  0
  152.0974  142.5939  158.9595 C   0  0  0  0  0  0  0  0  0  0  0  0
  152.7501  143.6946  159.6275 O   0  0  0  0  0  0  0  0  0  0  0  0
  152.6333  144.4791  158.4219 C   0  0  0  0  0  0  0  0  0  0  0  0
  148.8659  137.9662  154.0115 C   0  0  0  0  0  0  0  0  0  0  0  0
  147.6575  137.0410  153.8369 C   0  0  0  0  0  0  0  0  0  0  0  0
  148.0620  135.6271  153.6052 N   0  3  2  0  0  0  0  0  0  0  0  0
  146.8685  134.7636  153.3629 C   0  0  0  0  0  0  0  0  0  0  0  0
  146.8841  134.0866  151.9702 C   0  0  0  0  0  0  0  0  0  0  0  0
  148.0279  133.0686  151.8133 C   0  0  0  0  0  0  0  0  0  0  0  0
  145.5311  133.4068  151.6996 C   0  0  0  0  0  0  0  0  0  0  0  0
  147.0402  135.0795  150.9758 O   0  0  0  0  0  0  0  0  0  0  0  0
  150.3096  133.4317  155.0808 H   0  0  0  0  0  0  0  0  0  0  0  0
  150.1151  133.7537  153.3664 H   0  0  0  0  0  0  0  0  0  0  0  0
  148.8406  132.9480  154.2758 H   0  0  0  0  0  0  0  0  0  0  0  0
  148.4366  135.0446  155.5919 H   0  0  0  0  0  0  0  0  0  0  0  0
  150.7680  135.7573  155.7330 H   0  0  0  0  0  0  0  0  0  0  0  0
  150.8393  136.0832  154.0196 H   0  0  0  0  0  0  0  0  0  0  0  0
  153.6100  138.1539  157.0358 H   0  0  0  0  0  0  0  0  0  0  0  0
  149.4656  142.6813  155.0866 H   0  0  0  0  0  0  0  0  0  0  0  0
  153.0451  142.7692  156.2975 H   0  0  0  0  0  0  0  0  0  0  0  0
  151.7846  143.7674  155.6469 H   0  0  0  0  0  0  0  0  0  0  0  0
  149.5032  143.1247  157.5762 H   0  0  0  0  0  0  0  0  0  0  0  0
  149.8764  144.2114  158.8853 H   0  0  0  0  0  0  0  0  0  0  0  0
  149.8857  144.7088  156.1192 H   0  0  0  0  0  0  0  0  0  0  0  0
  151.2825  142.1702  159.5479 H   0  0  0  0  0  0  0  0  0  0  0  0
  152.8080  141.8194  158.6665 H   0  0  0  0  0  0  0  0  0  0  0  0
  153.5869  144.5443  157.8962 H   0  0  0  0  0  0  0  0  0  0  0  0
  152.2199  145.4719  158.6038 H   0  0  0  0  0  0  0  0  0  0  0  0
  148.5200  138.9751  154.2416 H   0  0  0  0  0  0  0  0  0  0  0  0
  149.4338  138.0212  153.0815 H   0  0  0  0  0  0  0  0  0  0  0  0
  147.0330  137.0941  154.7304 H   0  0  0  0  0  0  0  0  0  0  0  0
  147.0492  137.3987  153.0061 H   0  0  0  0  0  0  0  0  0  0  0  0
  146.7770  133.9958  154.1288 H   0  0  0  0  0  0  0  0  0  0  0  0
  145.9549  135.3511  153.4726 H   0  0  0  0  0  0  0  0  0  0  0  0
  147.9549  132.2764  152.5589 H   0  0  0  0  0  0  0  0  0  0  0  0
  149.0063  133.5376  151.9202 H   0  0  0  0  0  0  0  0  0  0  0  0
  148.0036  132.5953  150.8310 H   0  0  0  0  0  0  0  0  0  0  0  0
  145.3363  132.6157  152.4245 H   0  0  0  0  0  0  0  0  0  0  0  0
  145.5011  132.9553  150.7070 H   0  0  0  0  0  0  0  0  0  0  0  0
  144.7068  134.1186  151.7611 H   0  0  0  0  0  0  0  0  0  0  0  0
  147.9601  135.2836  150.8950 H   0  0  0  0  0  0  0  0  0  0  0  0
  148.5898  135.6225  152.7441 H   0  0  0  0  0  0  0  0  0  0  0  0
  1  2  1  0  0  0  0
  1 29  1  0  0  0  0
  1 30  1  0  0  0  0
  1 31  1  0  0  0  0
  2 23  1  0  0  0  0
  2  3  1  0  0  0  0
  2 32  1  0  0  0  0
  3  4  1  0  0  0  0
  3 33  1  0  0  0  0
  3 34  1  0  0  0  0
  4  5  1  0  0  0  0
  4 21  1  0  0  0  0
  5 10  1  0  0  0  0
  5  6  2  0  0  0  0
  6  7  1  0  0  0  0
  7  8  2  0  0  0  0
  7 35  1  0  0  0  0
  8  9  1  0  0  0  0
  9 13  1  0  0  0  0
  9 10  2  0  0  0  0
 10 11  1  0  0  0  0
 11 12  2  0  0  0  0
 12 13  1  0  0  0  0
 12 36  1  0  0  0  0
 13 14  1  0  0  0  0
 14 15  1  0  0  0  0
 14 37  1  0  0  0  0
 14 38  1  0  0  0  0
 15 20  1  0  0  0  0
 15 16  1  0  0  0  0
 15 18  1  0  0  0  0
 16 17  1  0  0  0  0
 16 39  1  0  0  0  0
 16 40  1  0  0  0  0
 17 41  1  0  0  0  0
 18 19  1  0  0  0  0
 18 42  1  0  0  0  0
 18 43  1  0  0  0  0
 19 20  1  0  0  0  0
 20 44  1  0  0  0  0
 20 45  1  0  0  0  0
 21 22  1  0  0  0  0
 21 46  1  0  0  0  0
 21 47  1  0  0  0  0
 22 23  1  0  0  0  0
 22 48  1  0  0  0  0
 22 49  1  0  0  0  0
 23 24  1  0  0  0  0
 23 59  1  0  0  0  0
 24 25  1  0  0  0  0
 24 50  1  0  0  0  0
 24 51  1  0  0  0  0
 25 26  1  0  0  0  0
 25 27  1  0  0  0  0
 25 28  1  0  0  0  0
 26 52  1  0  0  0  0
 26 53  1  0  0  0  0
 26 54  1  0  0  0  0
 27 55  1  0  0  0  0
 27 56  1  0  0  0  0
 27 57  1  0  0  0  0
 28 58  1  0  0  0  0
M  CHG  1  23   1
M  END
> <s_m_source_file>
AV-unprocessed.smi

> <i_m_source_file_index>
280

> <i_lp_mmshare_version>
43012

> <i_f3d_flags>
0

> <s_epik_input>
W0NIM11DKFtDSDNdKShbT0hdKVtDSDJdTjFbQ0gyXVtDSDJdTihbQ0gyXVtDQEhdMVtDSDNdKWMobltjSF1uMiljKGMyMyluW2NIXW4zW0NIMl1DNChbQ0gyXVtPSF0pW0NIMl1PW0NIMl00

> <s_epik_cmdline>
J2VwaWtfcHl0aG9uJywgJy1waCcsICc3LjAnLCAnLXRuJywgJzgnLCAnLW1hJywgJzIwMCcsICctbWV0YWxfYmluZGluZycsICctaW1hZScsICc8aW5maWxlLm1hZT4nLCAnLW9tYWUnLCAnPG91dGZpbGUubWFlPic=

> <r_lp_tautomer_probability>
1

> <r_epik_Ionization_Penalty>
0.00179402

> <r_epik_Ionization_Penalty_Charging>
0.00173996

> <r_epik_Ionization_Penalty_Neutral>
5.40607e-05

> <r_epik_State_Penalty>
-0

> <r_epik_Charging_Adjusted_Penalty>
0.00173996

> <i_epik_Tot_Q>
1

> <i_epik_Tot_abs_Q>
1

> <r_epik_Metal_State_Penalty>
-0

> <b_epik_Metal_Only>
0

> <s_lp_Force_Field>
OPLS_2005

> <r_lp_Energy>
52.0143

> <b_lp_Chiralities_Consistent>
1

> <s_lp_Variant>
AV-unprocessed.smi:280-4

> <Gold.Version>
5.8.1

> <Gold.Id.Protein>
6NUR|6NUR_protein|mol2

> <Gold.PLP.Fitness>
51.5576

> <Gold.PLP.PLP>
-35.8459

> <Gold.PLP.part.hbond>
-5.0000

> <Gold.PLP.part.metal>
0.0000

> <Gold.PLP.part.buried>
-3.2121

> <Gold.PLP.part.nonpolar>
-27.7962

> <Gold.PLP.part.repulsive>
0.1281

> <Gold.PLP.ligand.clash>
0.0000

> <Gold.PLP.ligand.torsion>
1.8661

> <Gold.PLP.Chemscore.Hbond>
5.0000

> <Gold.PLP.Chemscore.CHOScore>
1.0000

> <Gold.PLP.Chemscore.Metal>
0.0000

> <Gold.Chemscore.Hbonds>
donor molecule, donor type, donor heavy atom, donor atom, acceptor molecule, acceptor atom, score
      L1  H    28    58       P1  7948  0.33
      P1  H  7997  8010       L1     8  0.75
      L1  C    12    36       P1  8028  1.00

> <Gold.PLP.Chemscore.Internal.Correction>
1.4440

> <Gold.Rescore>
     Score         DG    S(hbond)    S(metal)    S(lipo)     H(rot)  DE(clash)    DE(int)     intcor
     11.43     -17.36       3.26        0.00      87.85       3.63       2.26       3.67       ----

> <Gold.Chemscore.Fitness>
11.4315

> <Gold.Chemscore.DG>
-17.3621

> <Gold.Chemscore.ZeroCoef>
-5.4800

> <Gold.Chemscore.Hbond>
3.2594

> <Gold.Chemscore.Metal>
0.0000

> <Gold.Chemscore.Lipo>
87.8486

> <Gold.Chemscore.Internal_Hbond>
0.0000

> <Gold.Chemscore.DEClash>
2.2644

> <Gold.Chemscore.DEInternal>
3.6662

> <Gold.Chemscore.Rot>
3.6260

> <Gold.Chemscore.Internal.Correction>
   9.000000E+99

> <Gold.Chemscore.Hbonds>
donor molecule, donor type, donor heavy atom, donor atom, acceptor molecule, acceptor atom, score
      L1  H    23    59       P1  7948  0.04
      L1  H    28    58       P1  7948  0.01
      P1  H  7997  8010       L1     8  0.09

> <Gold.Chemscore.Hbond.Weighted>
-10.8862

> <Gold.Chemscore.Metal.Weighted>
-0.0000

> <Gold.Chemscore.Lipo.Weighted>
-10.2783

> <Gold.Chemscore.Internal_Hbond.Weighted>
0.0000

> <Gold.Chemscore.DEClash.Weighted>
2.2644

> <Gold.Chemscore.DEInternal.Weighted>
3.6662

> <Gold.Chemscore.Rot.Weighted>
9.2825

> <Gold.Chemscore.Internal.Correction.Weighted>
   9.000000E+99

> <Gold.Protein.RotatedTorsions>
[ 6907 6896 6895 6894 ] final  -54.55 input  -60.11 | X-H torsion
[ 7974 7965 7964 7962 ] final    0.73 input  175.53 | X-H torsion
[ 8008 7997 7996 7995 ] final   67.63 input   59.86 | X-H torsion
[ 10167 10162 10161 10158 ] final  130.65 input  -65.29 | X-H torsion
[ 10718 10713 10712 10709 ] final  -68.19 input   66.30 | X-H torsion
[ 10763 10752 10751 10750 ] final  -17.25 input  -60.55 | X-H torsion
[ 11005 11000 10999 10996 ] final   43.19 input  -57.11 | X-H torsion

> <Gold.Protein.ActiveResidues>
 VAL166  LYS551  ARG553  GLY616  TRP617  ASP618  TYR619  PRO620  LYS621  CYS622 
 ASP623  PHE694  ASN695  SER759  ASP760  ASP761  ALA762  ILE779  LEU786  VAL792 
 PHE793  MET794  SER795  GLU796  ALA797  LYS798  CYS799  TRP800  GLU811  SER814 

> <Gold.Protein.RotatedAtoms>
  150.8328  134.7589  159.6867 H   0  0  0  0  0  0  0  0  0  0  0  0  # atno 6907 bound_to 6896
  152.4430  134.5549  159.9887 H   0  0  0  0  0  0  0  0  0  0  0  0  # atno 6908 bound_to 6896
  151.5706  133.3353  159.3024 H   0  0  0  0  0  0  0  0  0  0  0  0  # atno 6909 bound_to 6896
  146.2436  140.1094  142.8344 H   0  0  0  0  0  0  0  0  0  0  0  0  # atno 7974 bound_to 7965
  155.6958  140.3495  155.4912 H   0  0  0  0  0  0  0  0  0  0  0  0  # atno 8008 bound_to 7997
  155.9484  140.1114  157.1020 H   0  0  0  0  0  0  0  0  0  0  0  0  # atno 8009 bound_to 7997
  154.4117  140.1199  156.5006 H   0  0  0  0  0  0  0  0  0  0  0  0  # atno 8010 bound_to 7997
  139.5420  144.6739  151.4594 H   0  0  0  0  0  0  0  0  0  0  0  0  # atno 10167 bound_to 10162
  156.0518  130.4290  150.1964 H   0  0  0  0  0  0  0  0  0  0  0  0  # atno 10718 bound_to 10713
  153.5711  135.7007  153.5504 H   0  0  0  0  0  0  0  0  0  0  0  0  # atno 10763 bound_to 10752
  153.3344  135.4038  155.1521 H   0  0  0  0  0  0  0  0  0  0  0  0  # atno 10764 bound_to 10752
  154.8633  135.3727  154.5233 H   0  0  0  0  0  0  0  0  0  0  0  0  # atno 10765 bound_to 10752
  140.1668  134.4272  155.8282 H   0  0  0  0  0  0  0  0  0  0  0  0  # atno 11005 bound_to 11000
  145.0500  140.9010  143.5001 LP  0  0  0  0  0  0  0  0  0  0  0  0  # atno 17320 bound_to 7965
  145.1190  139.2706  143.5598 LP  0  0  0  0  0  0  0  0  0  0  0  0  # atno 17321 bound_to 7965
  140.6654  143.8410  150.6935 LP  0  0  0  0  0  0  0  0  0  0  0  0  # atno 17342 bound_to 10162
  140.1817  143.4109  152.1928 LP  0  0  0  0  0  0  0  0  0  0  0  0  # atno 17343 bound_to 10162
  157.0046  130.9933  151.3382 LP  0  0  0  0  0  0  0  0  0  0  0  0  # atno 17370 bound_to 10713
  157.5451  130.8145  149.8076 LP  0  0  0  0  0  0  0  0  0  0  0  0  # atno 17371 bound_to 10713
  141.2214  133.6938  156.7692 LP  0  0  0  0  0  0  0  0  0  0  0  0  # atno 17394 bound_to 11000
  140.2424  134.8603  157.3587 LP  0  0  0  0  0  0  0  0  0  0  0  0  # atno 17395 bound_to 11000

$$$$
