AV-unprocessed.smi:1824|AV-procd|sdf|7393|dock6
  -GOLD-   22720 9 63D 1   1.00000     0.00000
 Structure written by MMmdl.
 44 46  0  0  0  0  0  0  0  0  1 V2000
  149.6855  137.7659  155.9251 C   0  0  0  0  0  0  0  0  0  0  0  0
  150.2746  138.7187  154.8710 C   0  0  2  0  0  0  0  0  0  0  0  0
  151.0929  139.8745  155.4804 C   0  0  0  0  0  0  0  0  0  0  0  0
  150.2560  140.8896  156.1112 N   0  0  0  0  0  0  0  0  0  0  0  0
  151.0720  141.9656  156.6734 C   0  0  0  0  0  0  0  0  0  0  0  0
  150.4507  142.6995  157.8808 C   0  0  2  0  0  0  0  0  0  0  0  0
  149.1803  143.2044  157.5136 O   0  0  0  0  0  0  0  0  0  0  0  0
  151.3290  143.8747  158.3539 C   0  0  0  0  0  0  0  0  0  0  0  0
  151.8448  143.6787  159.6974 N   0  0  0  0  0  0  0  0  0  0  0  0
  151.6168  144.4494  160.7782 C   0  0  0  0  0  0  0  0  0  0  0  0
  152.1947  144.0844  161.9194 N   0  0  0  0  0  0  0  0  0  0  0  0
  152.8785  142.9438  161.5345 C   0  0  0  0  0  0  0  0  0  0  0  0
  153.6986  142.0692  162.2824 C   0  0  0  0  0  0  0  0  0  0  0  0
  154.3007  140.9521  161.6667 C   0  0  0  0  0  0  0  0  0  0  0  0
  155.0836  140.1238  162.3981 F   0  0  0  0  0  0  0  0  0  0  0  0
  154.0921  140.6933  160.2955 C   0  0  0  0  0  0  0  0  0  0  0  0
  154.6733  139.6182  159.7123 F   0  0  0  0  0  0  0  0  0  0  0  0
  153.2795  141.5512  159.5298 C   0  0  0  0  0  0  0  0  0  0  0  0
  152.6809  142.6637  160.1487 C   0  0  0  0  0  0  0  0  0  0  0  0
  149.2814  141.3727  155.1385 C   0  0  0  0  0  0  0  0  0  0  0  0
  148.4209  140.2301  154.5694 C   0  0  1  0  0  0  0  0  0  0  0  0
  147.4611  140.7204  153.4803 C   0  0  0  0  0  0  0  0  0  0  0  0
  149.2675  139.2340  153.9988 O   0  0  0  0  0  0  0  0  0  0  0  0
  150.4776  137.2973  156.5095 H   0  0  0  0  0  0  0  0  0  0  0  0
  149.1101  136.9704  155.4513 H   0  0  0  0  0  0  0  0  0  0  0  0
  149.0283  138.2829  156.6241 H   0  0  0  0  0  0  0  0  0  0  0  0
  150.9451  138.1265  154.2477 H   0  0  0  0  0  0  0  0  0  0  0  0
  151.8047  139.4743  156.2035 H   0  0  0  0  0  0  0  0  0  0  0  0
  151.6870  140.3371  154.6903 H   0  0  0  0  0  0  0  0  0  0  0  0
  152.0089  141.5201  157.0109 H   0  0  0  0  0  0  0  0  0  0  0  0
  151.3564  142.6771  155.8964 H   0  0  0  0  0  0  0  0  0  0  0  0
  150.3228  142.0025  158.7105 H   0  0  0  0  0  0  0  0  0  0  0  0
  149.3054  143.9556  156.9542 H   0  0  0  0  0  0  0  0  0  0  0  0
  152.1800  144.0028  157.6838 H   0  0  0  0  0  0  0  0  0  0  0  0
  150.7663  144.8092  158.3261 H   0  0  0  0  0  0  0  0  0  0  0  0
  150.9892  145.3271  160.7248 H   0  0  0  0  0  0  0  0  0  0  0  0
  153.8654  142.2575  163.3327 H   0  0  0  0  0  0  0  0  0  0  0  0
  153.1169  141.3554  158.4803 H   0  0  0  0  0  0  0  0  0  0  0  0
  148.6207  142.1055  155.6014 H   0  0  0  0  0  0  0  0  0  0  0  0
  149.7962  141.8854  154.3243 H   0  0  0  0  0  0  0  0  0  0  0  0
  147.8299  139.7861  155.3712 H   0  0  0  0  0  0  0  0  0  0  0  0
  146.7808  141.4781  153.8694 H   0  0  0  0  0  0  0  0  0  0  0  0
  146.8576  139.8985  153.0946 H   0  0  0  0  0  0  0  0  0  0  0  0
  148.0045  141.1568  152.6418 H   0  0  0  0  0  0  0  0  0  0  0  0
  1  2  1  0  0  0  0
  1 24  1  0  0  0  0
  1 25  1  0  0  0  0
  1 26  1  0  0  0  0
  2 23  1  0  0  0  0
  2  3  1  0  0  0  0
  2 27  1  0  0  0  0
  3  4  1  0  0  0  0
  3 28  1  0  0  0  0
  3 29  1  0  0  0  0
  4  5  1  0  0  0  0
  4 20  1  0  0  0  0
  5  6  1  0  0  0  0
  5 30  1  0  0  0  0
  5 31  1  0  0  0  0
  6  7  1  0  0  0  0
  6  8  1  0  0  0  0
  6 32  1  0  0  0  0
  7 33  1  0  0  0  0
  8  9  1  0  0  0  0
  8 34  1  0  0  0  0
  8 35  1  0  0  0  0
  9 19  1  0  0  0  0
  9 10  1  0  0  0  0
 10 11  2  0  0  0  0
 10 36  1  0  0  0  0
 11 12  1  0  0  0  0
 12 19  2  0  0  0  0
 12 13  1  0  0  0  0
 13 14  2  0  0  0  0
 13 37  1  0  0  0  0
 14 15  1  0  0  0  0
 14 16  1  0  0  0  0
 16 17  1  0  0  0  0
 16 18  2  0  0  0  0
 18 19  1  0  0  0  0
 18 38  1  0  0  0  0
 20 21  1  0  0  0  0
 20 39  1  0  0  0  0
 20 40  1  0  0  0  0
 21 22  1  0  0  0  0
 21 23  1  0  0  0  0
 21 41  1  0  0  0  0
 22 42  1  0  0  0  0
 22 43  1  0  0  0  0
 22 44  1  0  0  0  0
M  END
> <s_m_source_file>
AV-unprocessed.smi

> <i_m_source_file_index>
1824

> <i_lp_mmshare_version>
43012

> <i_f3d_flags>
0

> <s_epik_input>
W0NIM11bQ0BASF0xW0NIMl1OKFtDSDJdW0NASF0oTzEpW0NIM10pW0NIMl1bQ0BIXShbT0hdKVtDSDJdbihbY0hdbjIpYyhjMjMpW2NIXWMoRiljKEYpW2NIXTM=

> <s_epik_cmdline>
J2VwaWtfcHl0aG9uJywgJy1waCcsICc3LjAnLCAnLXRuJywgJzgnLCAnLW1hJywgJzIwMCcsICctbWV0YWxfYmluZGluZycsICctaW1hZScsICc8aW5maWxlLm1hZT4nLCAnLW9tYWUnLCAnPG91dGZpbGUubWFlPic=

> <r_epik_Ionization_Penalty>
0.273778

> <r_epik_Ionization_Penalty_Charging>
0

> <r_epik_Ionization_Penalty_Neutral>
0.273778

> <r_epik_State_Penalty>
0.246794

> <r_epik_Charging_Adjusted_Penalty>
0.246794

> <i_epik_Tot_Q>
0

> <i_epik_Tot_abs_Q>
0

> <r_epik_Metal_State_Penalty>
0.238234

> <b_epik_Metal_Only>
0

> <s_lp_Force_Field>
OPLS_2005

> <r_lp_Energy>
29.8683

> <b_lp_Chiralities_Consistent>
1

> <s_lp_Variant>
AV-unprocessed.smi:1824-1

> <Gold.Version>
5.8.1

> <Gold.Id.Protein>
6NUR|6NUR_protein|mol2

> <Gold.PLP.Fitness>
52.4076

> <Gold.PLP.PLP>
-51.5278

> <Gold.PLP.part.hbond>
-1.5452

> <Gold.PLP.part.metal>
0.0000

> <Gold.PLP.part.buried>
-4.9019

> <Gold.PLP.part.nonpolar>
-46.4283

> <Gold.PLP.part.repulsive>
1.2471

> <Gold.PLP.ligand.clash>
0.0000

> <Gold.PLP.ligand.torsion>
1.0593

> <Gold.PLP.Chemscore.Hbond>
0.9920

> <Gold.PLP.Chemscore.CHOScore>
0.0000

> <Gold.PLP.Chemscore.Metal>
0.0000

> <Gold.Chemscore.Hbonds>
donor molecule, donor type, donor heavy atom, donor atom, acceptor molecule, acceptor atom, score
      L1  H     7    33       P1  8028  0.98

> <Gold.PLP.Chemscore.Internal.Correction>
0.0224

> <Gold.Rescore>
     Score         DG    S(hbond)    S(metal)    S(lipo)     H(rot)  DE(clash)    DE(int)     intcor
     15.10     -17.27       0.96        0.00     122.95       2.26       0.08       2.10       ----

> <Gold.Chemscore.Fitness>
15.0964

> <Gold.Chemscore.DG>
-17.2701

> <Gold.Chemscore.ZeroCoef>
-5.4800

> <Gold.Chemscore.Hbond>
0.9569

> <Gold.Chemscore.Metal>
0.0000

> <Gold.Chemscore.Lipo>
122.9452

> <Gold.Chemscore.Internal_Hbond>
0.0000

> <Gold.Chemscore.DEClash>
0.0751

> <Gold.Chemscore.DEInternal>
2.0985

> <Gold.Chemscore.Rot>
2.2619

> <Gold.Chemscore.Internal.Correction>
   9.000000E+99

> <Gold.Chemscore.Hbonds>
donor molecule, donor type, donor heavy atom, donor atom, acceptor molecule, acceptor atom, score
      L1  H     7    33       P1  8028  0.53

> <Gold.Chemscore.Hbond.Weighted>
-3.1959

> <Gold.Chemscore.Metal.Weighted>
-0.0000

> <Gold.Chemscore.Lipo.Weighted>
-14.3846

> <Gold.Chemscore.Internal_Hbond.Weighted>
0.0000

> <Gold.Chemscore.DEClash.Weighted>
0.0751

> <Gold.Chemscore.DEInternal.Weighted>
2.0985

> <Gold.Chemscore.Rot.Weighted>
5.7904

> <Gold.Chemscore.Internal.Correction.Weighted>
   9.000000E+99

> <Gold.Protein.RotatedTorsions>
[ 6907 6896 6895 6894 ] final  -18.35 input  -60.11 | X-H torsion
[ 7974 7965 7964 7962 ] final  137.96 input  175.53 | X-H torsion
[ 8008 7997 7996 7995 ] final  -10.60 input   59.86 | X-H torsion
[ 10167 10162 10161 10158 ] final  -71.29 input  -65.29 | X-H torsion
[ 10718 10713 10712 10709 ] final  173.16 input   66.30 | X-H torsion
[ 10763 10752 10751 10750 ] final  -81.77 input  -60.55 | X-H torsion
[ 11005 11000 10999 10996 ] final  179.79 input  -57.11 | X-H torsion

> <Gold.Protein.ActiveResidues>
 VAL166  LYS551  ARG553  GLY616  TRP617  ASP618  TYR619  PRO620  LYS621  CYS622 
 ASP623  PHE694  ASN695  SER759  ASP760  ASP761  ALA762  ILE779  LEU786  VAL792 
 PHE793  MET794  SER795  GLU796  ALA797  LYS798  CYS799  TRP800  GLU811  SER814 

> <Gold.Protein.RotatedAtoms>
  151.2796  135.0709  159.9164 H   0  0  0  0  0  0  0  0  0  0  0  0  # atno 6907 bound_to 6896
  152.5336  134.0045  159.7920 H   0  0  0  0  0  0  0  0  0  0  0  0  # atno 6908 bound_to 6896
  151.0296  133.5751  159.2693 H   0  0  0  0  0  0  0  0  0  0  0  0  # atno 6909 bound_to 6896
  144.9418  139.4922  143.5568 H   0  0  0  0  0  0  0  0  0  0  0  0  # atno 7974 bound_to 7965
  154.5539  140.2324  155.8440 H   0  0  0  0  0  0  0  0  0  0  0  0  # atno 8008 bound_to 7997
  156.1971  140.3062  155.9411 H   0  0  0  0  0  0  0  0  0  0  0  0  # atno 8009 bound_to 7997
  155.3017  140.0431  157.3020 H   0  0  0  0  0  0  0  0  0  0  0  0  # atno 8010 bound_to 7997
  140.5285  143.2324  151.7304 H   0  0  0  0  0  0  0  0  0  0  0  0  # atno 10167 bound_to 10162
  156.9684  131.0082  151.2911 H   0  0  0  0  0  0  0  0  0  0  0  0  # atno 10718 bound_to 10713
  154.5676  135.5614  153.7065 H   0  0  0  0  0  0  0  0  0  0  0  0  # atno 10763 bound_to 10752
  153.0038  135.6289  154.2158 H   0  0  0  0  0  0  0  0  0  0  0  0  # atno 10764 bound_to 10752
  154.2097  135.2874  155.2942 H   0  0  0  0  0  0  0  0  0  0  0  0  # atno 10765 bound_to 10752
  140.4100  134.6700  157.4609 H   0  0  0  0  0  0  0  0  0  0  0  0  # atno 11005 bound_to 11000
  146.3288  139.8443  142.8885 LP  0  0  0  0  0  0  0  0  0  0  0  0  # atno 17320 bound_to 7965
  145.2979  141.0186  143.3625 LP  0  0  0  0  0  0  0  0  0  0  0  0  # atno 17321 bound_to 7965
  139.4946  144.4150  152.0040 LP  0  0  0  0  0  0  0  0  0  0  0  0  # atno 17342 bound_to 10162
  140.3250  144.3383  150.6000 LP  0  0  0  0  0  0  0  0  0  0  0  0  # atno 17343 bound_to 10162
  157.5610  130.8245  149.8265 LP  0  0  0  0  0  0  0  0  0  0  0  0  # atno 17370 bound_to 10713
  156.0293  130.3769  150.1733 LP  0  0  0  0  0  0  0  0  0  0  0  0  # atno 17371 bound_to 10713
  140.0274  134.6457  155.9154 LP  0  0  0  0  0  0  0  0  0  0  0  0  # atno 17394 bound_to 11000
  141.1824  133.6549  156.5077 LP  0  0  0  0  0  0  0  0  0  0  0  0  # atno 17395 bound_to 11000

$$$$
