AV-unprocessed.smi:2854|AV-procd|sdf|10975|dock4
  -GOLD-   2272015433D 1   1.00000     0.00000
 Structure written by MMmdl.
 27 28  0  0  0  0  0  0  0  0  2 V2000
  148.3839  137.4218  154.1874 N   0  0  0  0  0  0  0  0  0  0  0  0
  148.0719  138.7626  153.9533 C   0  0  0  0  0  0  0  0  0  0  0  0
  146.8773  139.0871  153.2761 C   0  0  0  0  0  0  0  0  0  0  0  0
  146.5615  140.3787  153.0415 N   0  3  0  0  0  0  0  0  0  0  0  0
  147.3473  141.4053  153.4299 C   0  0  0  0  0  0  0  0  0  0  0  0
  148.5535  141.1467  154.1106 C   0  0  0  0  0  0  0  0  0  0  0  0
  148.9297  139.8085  154.3811 C   0  0  0  0  0  0  0  0  0  0  0  0
  150.1261  139.5156  155.0561 N   0  0  0  0  0  0  0  0  0  0  0  0
  151.0978  138.7989  154.2397 C   0  0  0  0  0  0  0  0  0  0  0  0
  152.3120  138.4009  155.0966 C   0  0  0  0  0  0  0  0  0  0  0  0
  152.8641  139.5630  155.7089 O   0  0  0  0  0  0  0  0  0  0  0  0
  151.9297  140.2109  156.5676 C   0  0  0  0  0  0  0  0  0  0  0  0
  150.7056  140.6587  155.7503 C   0  0  0  0  0  0  0  0  0  0  0  0
  149.2281  137.1457  154.6681 H   0  0  0  0  0  0  0  0  0  0  0  0
  147.7666  136.6810  153.8850 H   0  0  0  0  0  0  0  0  0  0  0  0
  146.1671  138.3571  152.9158 H   0  0  0  0  0  0  0  0  0  0  0  0
  146.9908  142.3955  153.1860 H   0  0  0  0  0  0  0  0  0  0  0  0
  149.1810  141.9699  154.4196 H   0  0  0  0  0  0  0  0  0  0  0  0
  150.6358  137.9096  153.8095 H   0  0  0  0  0  0  0  0  0  0  0  0
  151.4231  139.4287  153.4106 H   0  0  0  0  0  0  0  0  0  0  0  0
  152.0288  137.6744  155.8602 H   0  0  0  0  0  0  0  0  0  0  0  0
  153.0733  137.9298  154.4749 H   0  0  0  0  0  0  0  0  0  0  0  0
  151.6348  139.5385  157.3749 H   0  0  0  0  0  0  0  0  0  0  0  0
  152.4096  141.0733  157.0304 H   0  0  0  0  0  0  0  0  0  0  0  0
  151.0040  141.4205  155.0290 H   0  0  0  0  0  0  0  0  0  0  0  0
  149.9609  141.1088  156.4080 H   0  0  0  0  0  0  0  0  0  0  0  0
  145.6921  140.5871  152.5496 H   0  0  0  0  0  0  0  0  0  0  0  0
  1  2  1  0  0  0  0
  1 14  1  0  0  0  0
  1 15  1  0  0  0  0
  2  7  1  0  0  0  0
  2  3  2  0  0  0  0
  3  4  1  0  0  0  0
  3 16  1  0  0  0  0
  4  5  2  0  0  0  0
  4 27  1  0  0  0  0
  5  6  1  0  0  0  0
  5 17  1  0  0  0  0
  6  7  2  0  0  0  0
  6 18  1  0  0  0  0
  7  8  1  0  0  0  0
  8 13  1  0  0  0  0
  8  9  1  0  0  0  0
  9 10  1  0  0  0  0
  9 19  1  0  0  0  0
  9 20  1  0  0  0  0
 10 11  1  0  0  0  0
 10 21  1  0  0  0  0
 10 22  1  0  0  0  0
 11 12  1  0  0  0  0
 12 13  1  0  0  0  0
 12 23  1  0  0  0  0
 12 24  1  0  0  0  0
 13 25  1  0  0  0  0
 13 26  1  0  0  0  0
M  CHG  1   4   1
M  END
> <s_m_source_file>
AV-unprocessed.smi

> <i_m_source_file_index>
2854

> <i_lp_mmshare_version>
43012

> <i_f3d_flags>
0

> <s_epik_input>
W05IMl1jMVtjSF1uW2NIXVtjSF1jMU4yW0NIMl1bQ0gyXU9bQ0gyXVtDSDJdMg==

> <s_epik_cmdline>
J2VwaWtfcHl0aG9uJywgJy1waCcsICc3LjAnLCAnLXRuJywgJzgnLCAnLW1hJywgJzIwMCcsICctbWV0YWxfYmluZGluZycsICctaW1hZScsICc8aW5maWxlLm1hZT4nLCAnLW9tYWUnLCAnPG91dGZpbGUubWFlPic=

> <r_lp_tautomer_probability>
0.999846

> <r_epik_Ionization_Penalty>
0.0229726

> <r_epik_Ionization_Penalty_Charging>
0.0229724

> <r_epik_Ionization_Penalty_Neutral>
1.97994e-07

> <r_epik_State_Penalty>
0.0185659

> <r_epik_Charging_Adjusted_Penalty>
0.0415384

> <i_epik_Tot_Q>
1

> <i_epik_Tot_abs_Q>
1

> <r_epik_Metal_State_Penalty>
2.0686

> <b_epik_Metal_Only>
0

> <s_lp_Force_Field>
OPLS_2005

> <r_lp_Energy>
29.6275

> <b_lp_Chiralities_Consistent>
1

> <s_lp_Variant>
AV-unprocessed.smi:2854-1

> <Gold.Version>
5.8.1

> <Gold.Id.Protein>
6NUR|6NUR_protein|mol2

> <Gold.PLP.Fitness>
34.4687

> <Gold.PLP.PLP>
-25.8595

> <Gold.PLP.part.hbond>
-3.0000

> <Gold.PLP.part.metal>
0.0000

> <Gold.PLP.part.buried>
-4.2544

> <Gold.PLP.part.nonpolar>
-18.8921

> <Gold.PLP.part.repulsive>
0.0817

> <Gold.PLP.ligand.clash>
0.0293

> <Gold.PLP.ligand.torsion>
0.2419

> <Gold.PLP.Chemscore.Hbond>
3.0000

> <Gold.PLP.Chemscore.CHOScore>
0.0000

> <Gold.PLP.Chemscore.Metal>
0.0000

> <Gold.Chemscore.Hbonds>
donor molecule, donor type, donor heavy atom, donor atom, acceptor molecule, acceptor atom, score
      L1  H     4    27       P1 10175  2.00
      P1  H  7997  8008       L1    11  1.00

> <Gold.PLP.Chemscore.Internal.Correction>
0.1224

> <Gold.Rescore>
     Score         DG    S(hbond)    S(metal)    S(lipo)     H(rot)  DE(clash)    DE(int)     intcor
     15.91     -16.27       1.93        0.00      59.08       1.00       0.00       0.36       ----

> <Gold.Chemscore.Fitness>
15.9119

> <Gold.Chemscore.DG>
-16.2719

> <Gold.Chemscore.ZeroCoef>
-5.4800

> <Gold.Chemscore.Hbond>
1.9281

> <Gold.Chemscore.Metal>
0.0000

> <Gold.Chemscore.Lipo>
59.0784

> <Gold.Chemscore.Internal_Hbond>
0.0000

> <Gold.Chemscore.DEClash>
0.0004

> <Gold.Chemscore.DEInternal>
0.3595

> <Gold.Chemscore.Rot>
1.0000

> <Gold.Chemscore.Internal.Correction>
   9.000000E+99

> <Gold.Chemscore.Hbonds>
donor molecule, donor type, donor heavy atom, donor atom, acceptor molecule, acceptor atom, score
      L1  H     4    27       P1 10175  0.41
      P1  H  7997  8008       L1    11  0.70

> <Gold.Chemscore.Hbond.Weighted>
-6.4397

> <Gold.Chemscore.Metal.Weighted>
-0.0000

> <Gold.Chemscore.Lipo.Weighted>
-6.9122

> <Gold.Chemscore.Internal_Hbond.Weighted>
0.0000

> <Gold.Chemscore.DEClash.Weighted>
0.0004

> <Gold.Chemscore.DEInternal.Weighted>
0.3595

> <Gold.Chemscore.Rot.Weighted>
2.5600

> <Gold.Chemscore.Internal.Correction.Weighted>
   9.000000E+99

> <Gold.Protein.RotatedTorsions>
[ 6907 6896 6895 6894 ] final -161.33 input  -60.11 | X-H torsion
[ 7974 7965 7964 7962 ] final   67.96 input  175.53 | X-H torsion
[ 8008 7997 7996 7995 ] final  -23.86 input   59.86 | X-H torsion
[ 10167 10162 10161 10158 ] final -116.56 input  -65.29 | X-H torsion
[ 10718 10713 10712 10709 ] final -168.77 input   66.30 | X-H torsion
[ 10763 10752 10751 10750 ] final  -71.68 input  -60.55 | X-H torsion
[ 11005 11000 10999 10996 ] final   51.60 input  -57.11 | X-H torsion

> <Gold.Protein.ActiveResidues>
 VAL166  LYS551  ARG553  GLY616  TRP617  ASP618  TYR619  PRO620  LYS621  CYS622 
 ASP623  PHE694  ASN695  SER759  ASP760  ASP761  ALA762  ILE779  LEU786  VAL792 
 PHE793  MET794  SER795  GLU796  ALA797  LYS798  CYS799  TRP800  GLU811  SER814 

> <Gold.Protein.RotatedAtoms>
  151.3629  133.3883  159.2691 H   0  0  0  0  0  0  0  0  0  0  0  0  # atno 6907 bound_to 6896
  150.9711  134.9085  159.7799 H   0  0  0  0  0  0  0  0  0  0  0  0  # atno 6908 bound_to 6896
  152.5185  134.3591  159.9330 H   0  0  0  0  0  0  0  0  0  0  0  0  # atno 6909 bound_to 6896
  145.8083  139.3019  143.1114 H   0  0  0  0  0  0  0  0  0  0  0  0  # atno 7974 bound_to 7965
  154.4561  140.1969  156.0375 H   0  0  0  0  0  0  0  0  0  0  0  0  # atno 8008 bound_to 7997
  156.0749  140.3279  155.7594 H   0  0  0  0  0  0  0  0  0  0  0  0  # atno 8009 bound_to 7997
  155.5204  140.0569  157.2898 H   0  0  0  0  0  0  0  0  0  0  0  0  # atno 8010 bound_to 7997
  140.0778  143.4816  152.1943 H   0  0  0  0  0  0  0  0  0  0  0  0  # atno 10167 bound_to 10162
  156.7018  130.9199  151.3080 H   0  0  0  0  0  0  0  0  0  0  0  0  # atno 10718 bound_to 10713
  154.4351  135.5954  153.6093 H   0  0  0  0  0  0  0  0  0  0  0  0  # atno 10763 bound_to 10752
  152.9801  135.5984  154.3791 H   0  0  0  0  0  0  0  0  0  0  0  0  # atno 10764 bound_to 10752
  154.3634  135.2841  155.2286 H   0  0  0  0  0  0  0  0  0  0  0  0  # atno 10765 bound_to 10752
  140.0919  134.5197  155.8844 H   0  0  0  0  0  0  0  0  0  0  0  0  # atno 11005 bound_to 11000
  145.9804  140.8687  143.0117 LP  0  0  0  0  0  0  0  0  0  0  0  0  # atno 17320 bound_to 7965
  144.6760  140.2073  143.7381 LP  0  0  0  0  0  0  0  0  0  0  0  0  # atno 17321 bound_to 7965
  139.5797  144.7504  151.3672 LP  0  0  0  0  0  0  0  0  0  0  0  0  # atno 17342 bound_to 10162
  140.7093  143.7432  150.7538 LP  0  0  0  0  0  0  0  0  0  0  0  0  # atno 17343 bound_to 10162
  157.6970  130.9292  150.0674 LP  0  0  0  0  0  0  0  0  0  0  0  0  # atno 17370 bound_to 10713
  156.1724  130.3647  149.9147 LP  0  0  0  0  0  0  0  0  0  0  0  0  # atno 17371 bound_to 10713
  141.2080  133.6670  156.6345 LP  0  0  0  0  0  0  0  0  0  0  0  0  # atno 17394 bound_to 11000
  140.3340  134.7905  157.4348 LP  0  0  0  0  0  0  0  0  0  0  0  0  # atno 17395 bound_to 11000

$$$$
