AV-unprocessed.smi:2414|AV-procd|sdf|9541|dock4
  -GOLD-   2272013173D 1   1.00000     0.00000
 Structure written by MMmdl.
 43 44  0  0  0  0  0  0  0  0  1 V2000
  151.6365  141.8884  158.7966 C   0  0  0  0  0  0  0  0  0  0  0  0
  151.2328  141.2522  157.5097 C   0  0  0  0  0  0  0  0  0  0  0  0
  150.9710  141.8749  156.3147 C   0  0  0  0  0  0  0  0  0  0  0  0
  150.6162  140.9983  155.2869 N   0  0  0  0  0  0  0  0  0  0  0  0
  150.6046  139.7224  155.6836 C   0  0  0  0  0  0  0  0  0  0  0  0
  150.2606  138.5750  154.7867 C   0  0  1  0  0  0  0  0  0  0  0  0
  151.5056  137.7471  154.4227 C   0  0  0  0  0  0  0  0  0  0  0  0
  149.0905  137.7427  155.3544 C   0  0  0  0  0  0  0  0  0  0  0  0
  148.6344  136.7112  154.4286 N   0  0  0  0  0  0  0  0  0  0  0  0
  147.6862  135.8033  154.6957 C   0  0  0  0  0  0  0  0  0  0  0  0
  147.0996  135.7140  155.7744 O   0  0  0  0  0  0  0  0  0  0  0  0
  147.4482  135.0122  153.6426 N   0  0  0  0  0  0  0  0  0  0  0  0
  146.4602  133.9401  153.6116 C   0  0  0  0  0  0  0  0  0  0  0  0
  146.8717  132.8101  152.6429 C   0  0  2  0  0  0  0  0  0  0  0  0
  148.2108  132.1578  153.0360 C   0  0  0  0  0  0  0  0  0  0  0  0
  146.8919  133.3100  151.1867 C   0  0  0  0  0  0  0  0  0  0  0  0
  145.5332  132.9053  150.6579 C   0  0  0  0  0  0  0  0  0  0  0  0
  145.3169  131.5866  151.3833 C   0  0  0  0  0  0  0  0  0  0  0  0
  145.8464  131.8132  152.6830 O   0  0  0  0  0  0  0  0  0  0  0  0
  151.0411  139.5233  157.3773 S   0  0  0  0  0  0  0  0  0  0  0  0
  151.1432  142.8521  158.9262 H   0  0  0  0  0  0  0  0  0  0  0  0
  152.7136  142.0542  158.8230 H   0  0  0  0  0  0  0  0  0  0  0  0
  151.3708  141.2593  159.6465 H   0  0  0  0  0  0  0  0  0  0  0  0
  151.0129  142.9340  156.1067 H   0  0  0  0  0  0  0  0  0  0  0  0
  149.9089  139.0201  153.8549 H   0  0  0  0  0  0  0  0  0  0  0  0
  152.2784  138.3785  153.9836 H   0  0  0  0  0  0  0  0  0  0  0  0
  151.2727  136.9684  153.6964 H   0  0  0  0  0  0  0  0  0  0  0  0
  151.9304  137.2643  155.3032 H   0  0  0  0  0  0  0  0  0  0  0  0
  149.3966  137.2509  156.2781 H   0  0  0  0  0  0  0  0  0  0  0  0
  148.2547  138.3941  155.6165 H   0  0  0  0  0  0  0  0  0  0  0  0
  149.0587  136.7017  153.5126 H   0  0  0  0  0  0  0  0  0  0  0  0
  147.9821  135.1615  152.7988 H   0  0  0  0  0  0  0  0  0  0  0  0
  146.3423  133.5504  154.6236 H   0  0  0  0  0  0  0  0  0  0  0  0
  145.4887  134.3375  153.3121 H   0  0  0  0  0  0  0  0  0  0  0  0
  149.0214  132.8868  153.0221 H   0  0  0  0  0  0  0  0  0  0  0  0
  148.4748  131.3550  152.3472 H   0  0  0  0  0  0  0  0  0  0  0  0
  148.1722  131.7228  154.0349 H   0  0  0  0  0  0  0  0  0  0  0  0
  147.0783  134.3809  151.0979 H   0  0  0  0  0  0  0  0  0  0  0  0
  147.6638  132.7962  150.6116 H   0  0  0  0  0  0  0  0  0  0  0  0
  144.7761  133.6312  150.9574 H   0  0  0  0  0  0  0  0  0  0  0  0
  145.5065  132.8057  149.5727 H   0  0  0  0  0  0  0  0  0  0  0  0
  144.2686  131.2906  151.4215 H   0  0  0  0  0  0  0  0  0  0  0  0
  145.8822  130.7870  150.9025 H   0  0  0  0  0  0  0  0  0  0  0  0
  1  2  1  0  0  0  0
  1 21  1  0  0  0  0
  1 22  1  0  0  0  0
  1 23  1  0  0  0  0
  2 20  1  0  0  0  0
  2  3  2  0  0  0  0
  3  4  1  0  0  0  0
  3 24  1  0  0  0  0
  4  5  2  0  0  0  0
  5  6  1  0  0  0  0
  5 20  1  0  0  0  0
  6  7  1  0  0  0  0
  6  8  1  0  0  0  0
  6 25  1  0  0  0  0
  7 26  1  0  0  0  0
  7 27  1  0  0  0  0
  7 28  1  0  0  0  0
  8  9  1  0  0  0  0
  8 29  1  0  0  0  0
  8 30  1  0  0  0  0
  9 10  1  0  0  0  0
  9 31  1  0  0  0  0
 10 11  2  0  0  0  0
 10 12  1  0  0  0  0
 12 13  1  0  0  0  0
 12 32  1  0  0  0  0
 13 14  1  0  0  0  0
 13 33  1  0  0  0  0
 13 34  1  0  0  0  0
 14 19  1  0  0  0  0
 14 15  1  0  0  0  0
 14 16  1  0  0  0  0
 15 35  1  0  0  0  0
 15 36  1  0  0  0  0
 15 37  1  0  0  0  0
 16 17  1  0  0  0  0
 16 38  1  0  0  0  0
 16 39  1  0  0  0  0
 17 18  1  0  0  0  0
 17 40  1  0  0  0  0
 17 41  1  0  0  0  0
 18 19  1  0  0  0  0
 18 42  1  0  0  0  0
 18 43  1  0  0  0  0
M  END
> <s_m_source_file>
AV-unprocessed.smi

> <i_m_source_file_index>
2414

> <i_lp_mmshare_version>
43012

> <i_f3d_flags>
0

> <s_epik_input>
W0NIM11jMVtjSF1uYyhzMSlbQ0BIXShbQ0gzXSlbQ0gyXVtOSF1DKD1PKVtOSF1bQ0gyXVtDQEBdMihbQ0gzXSlbQ0gyXVtDSDJdW0NIMl1PMg==

> <s_epik_cmdline>
J2VwaWtfcHl0aG9uJywgJy1waCcsICc3LjAnLCAnLXRuJywgJzgnLCAnLW1hJywgJzIwMCcsICctbWV0YWxfYmluZGluZycsICctaW1hZScsICc8aW5maWxlLm1hZT4nLCAnLW9tYWUnLCAnPG91dGZpbGUubWFlPic=

> <r_epik_Ionization_Penalty>
0.000646956

> <r_epik_Ionization_Penalty_Charging>
0

> <r_epik_Ionization_Penalty_Neutral>
0.000646956

> <r_epik_State_Penalty>
0.000375727

> <r_epik_Charging_Adjusted_Penalty>
0.000375727

> <i_epik_Tot_Q>
0

> <i_epik_Tot_abs_Q>
0

> <r_epik_Metal_State_Penalty>
-0

> <b_epik_Metal_Only>
0

> <s_lp_Force_Field>
OPLS_2005

> <r_lp_Energy>
8.05024

> <b_lp_Chiralities_Consistent>
1

> <s_lp_Variant>
AV-unprocessed.smi:2414-4

> <Gold.Version>
5.8.1

> <Gold.Id.Protein>
6NUR|6NUR_protein|mol2

> <Gold.PLP.Fitness>
41.9877

> <Gold.PLP.PLP>
-31.6299

> <Gold.PLP.part.hbond>
-3.0000

> <Gold.PLP.part.metal>
0.0000

> <Gold.PLP.part.buried>
-3.0983

> <Gold.PLP.part.nonpolar>
-25.5585

> <Gold.PLP.part.repulsive>
0.2927

> <Gold.PLP.ligand.clash>
0.0000

> <Gold.PLP.ligand.torsion>
0.3607

> <Gold.PLP.Chemscore.Hbond>
2.6468

> <Gold.PLP.Chemscore.CHOScore>
1.0000

> <Gold.PLP.Chemscore.Metal>
0.0000

> <Gold.Chemscore.Hbonds>
donor molecule, donor type, donor heavy atom, donor atom, acceptor molecule, acceptor atom, score
      L1  H     9    31       P1  7948  0.99
      L1  H    12    32       P1  7948  0.99
      P1  H  7989  7998       L1     4  0.69
      L1  C     3    24       P1  8028  0.31

> <Gold.PLP.Chemscore.Internal.Correction>
0.1388

> <Gold.Rescore>
     Score         DG    S(hbond)    S(metal)    S(lipo)     H(rot)  DE(clash)    DE(int)     intcor
     19.00     -19.63       2.57        0.00      83.72       1.65       0.16       0.47       ----

> <Gold.Chemscore.Fitness>
19.0037

> <Gold.Chemscore.DG>
-19.6290

> <Gold.Chemscore.ZeroCoef>
-5.4800

> <Gold.Chemscore.Hbond>
2.5698

> <Gold.Chemscore.Metal>
0.0000

> <Gold.Chemscore.Lipo>
83.7222

> <Gold.Chemscore.Internal_Hbond>
0.0000

> <Gold.Chemscore.DEClash>
0.1568

> <Gold.Chemscore.DEInternal>
0.4685

> <Gold.Chemscore.Rot>
1.6522

> <Gold.Chemscore.Internal.Correction>
   9.000000E+99

> <Gold.Chemscore.Hbonds>
donor molecule, donor type, donor heavy atom, donor atom, acceptor molecule, acceptor atom, score
      L1  H     9    31       P1  7948  0.93
      L1  H    12    32       P1  7948  0.92
      P1  H  7989  7998       L1     4  0.25

> <Gold.Chemscore.Hbond.Weighted>
-8.5830

> <Gold.Chemscore.Metal.Weighted>
-0.0000

> <Gold.Chemscore.Lipo.Weighted>
-9.7955

> <Gold.Chemscore.Internal_Hbond.Weighted>
0.0000

> <Gold.Chemscore.DEClash.Weighted>
0.1568

> <Gold.Chemscore.DEInternal.Weighted>
0.4685

> <Gold.Chemscore.Rot.Weighted>
4.2295

> <Gold.Chemscore.Internal.Correction.Weighted>
   9.000000E+99

> <Gold.Protein.RotatedTorsions>
[ 6907 6896 6895 6894 ] final   98.03 input  -60.11 | X-H torsion
[ 7974 7965 7964 7962 ] final  -43.39 input  175.53 | X-H torsion
[ 8008 7997 7996 7995 ] final  -28.12 input   59.86 | X-H torsion
[ 10167 10162 10161 10158 ] final  125.86 input  -65.29 | X-H torsion
[ 10718 10713 10712 10709 ] final  168.13 input   66.30 | X-H torsion
[ 10763 10752 10751 10750 ] final  125.43 input  -60.55 | X-H torsion
[ 11005 11000 10999 10996 ] final  115.81 input  -57.11 | X-H torsion

> <Gold.Protein.ActiveResidues>
 VAL166  LYS551  ARG553  GLY616  TRP617  ASP618  TYR619  PRO620  LYS621  CYS622 
 ASP623  PHE694  ASN695  SER759  ASP760  ASP761  ALA762  ILE779  LEU786  VAL792 
 PHE793  MET794  SER795  GLU796  ALA797  LYS798  CYS799  TRP800  GLU811  SER814 

> <Gold.Protein.RotatedAtoms>
  152.5415  134.0643  159.8165 H   0  0  0  0  0  0  0  0  0  0  0  0  # atno 6907 bound_to 6896
  151.0767  133.5415  159.2630 H   0  0  0  0  0  0  0  0  0  0  0  0  # atno 6908 bound_to 6896
  151.2258  135.0544  159.9022 H   0  0  0  0  0  0  0  0  0  0  0  0  # atno 6909 bound_to 6896
  146.0023  140.7060  142.9264 H   0  0  0  0  0  0  0  0  0  0  0  0  # atno 7974 bound_to 7965
  154.4346  140.1854  156.1039 H   0  0  0  0  0  0  0  0  0  0  0  0  # atno 8008 bound_to 7997
  156.0270  140.3334  155.7073 H   0  0  0  0  0  0  0  0  0  0  0  0  # atno 8009 bound_to 7997
  155.5894  140.0629  157.2753 H   0  0  0  0  0  0  0  0  0  0  0  0  # atno 8010 bound_to 7997
  139.5662  144.6912  151.3904 H   0  0  0  0  0  0  0  0  0  0  0  0  # atno 10167 bound_to 10162
  157.0415  131.0288  151.2711 H   0  0  0  0  0  0  0  0  0  0  0  0  # atno 10718 bound_to 10713
  153.6772  135.3320  155.3169 H   0  0  0  0  0  0  0  0  0  0  0  0  # atno 10763 bound_to 10752
  154.8475  135.4400  154.1643 H   0  0  0  0  0  0  0  0  0  0  0  0  # atno 10764 bound_to 10752
  153.2650  135.6995  153.7615 H   0  0  0  0  0  0  0  0  0  0  0  0  # atno 10765 bound_to 10752
  139.9021  134.9589  156.7102 H   0  0  0  0  0  0  0  0  0  0  0  0  # atno 11005 bound_to 11000
  144.6924  140.3255  143.7225 LP  0  0  0  0  0  0  0  0  0  0  0  0  # atno 17320 bound_to 7965
  145.7468  139.1781  143.2344 LP  0  0  0  0  0  0  0  0  0  0  0  0  # atno 17321 bound_to 7965
  140.6946  143.7781  150.7306 LP  0  0  0  0  0  0  0  0  0  0  0  0  # atno 17342 bound_to 10162
  140.1273  143.4557  152.2276 LP  0  0  0  0  0  0  0  0  0  0  0  0  # atno 17343 bound_to 10162
  157.5100  130.7933  149.7695 LP  0  0  0  0  0  0  0  0  0  0  0  0  # atno 17370 bound_to 10713
  156.0036  130.3867  150.2512 LP  0  0  0  0  0  0  0  0  0  0  0  0  # atno 17371 bound_to 10713
  140.7081  133.9247  155.8067 LP  0  0  0  0  0  0  0  0  0  0  0  0  # atno 17394 bound_to 11000
  141.0321  134.0742  157.4002 LP  0  0  0  0  0  0  0  0  0  0  0  0  # atno 17395 bound_to 11000

$$$$
