AV-unprocessed.smi:2032|AV-procd|sdf|8249|dock6
  -GOLD-   2272010523D 1   1.00000     0.00000
 Structure written by MMmdl.
 41 42  0  0  0  0  0  0  0  0  2 V2000
  152.1577  144.4437  158.6529 C   0  0  0  0  0  0  0  0  0  0  0  0
  151.9697  142.9710  159.0327 C   0  0  1  0  0  0  0  0  0  0  0  0
  151.3386  142.1550  157.8901 C   0  0  0  0  0  0  0  0  0  0  0  0
  151.2268  140.7276  158.2037 N   0  0  0  0  0  0  0  0  0  0  0  0
  150.5954  139.9518  157.1098 C   0  0  2  0  0  0  0  0  0  0  0  0
  149.2931  140.6090  156.5844 C   0  0  0  0  0  0  0  0  0  0  0  0
  150.2936  138.4744  157.4996 C   0  0  0  0  0  0  0  0  0  0  0  0
  149.2539  138.3341  158.5168 N   0  0  0  0  0  0  0  0  0  0  0  0
  148.7600  137.1788  158.9842 C   0  0  0  0  0  0  0  0  0  0  0  0
  149.1955  136.1062  158.5590 O   0  0  0  0  0  0  0  0  0  0  0  0
  147.7885  137.3391  159.9113 N   0  5  0  0  0  0  0  0  0  0  0  0
  147.2343  136.2659  160.4982 C   0  0  0  0  0  0  0  0  0  0  0  0
  147.1589  135.0682  159.9066 N   0  0  0  0  0  0  0  0  0  0  0  0
  146.5543  134.0932  160.7020 C   0  0  0  0  0  0  0  0  0  0  0  0
  146.1687  134.5569  161.9319 C   0  0  0  0  0  0  0  0  0  0  0  0
  146.5541  136.2429  162.1281 S   0  0  0  0  0  0  0  0  0  0  0  0
  152.5662  140.2371  158.5479 C   0  0  0  0  0  0  0  0  0  0  0  0
  153.2486  141.0441  159.6703 C   0  0  2  0  0  0  0  0  0  0  0  0
  152.6536  140.7725  161.0631 C   0  0  0  0  0  0  0  0  0  0  0  0
  153.2483  142.4341  159.3535 O   0  0  0  0  0  0  0  0  0  0  0  0
  151.2038  144.9116  158.4084 H   0  0  0  0  0  0  0  0  0  0  0  0
  152.8134  144.5476  157.7879 H   0  0  0  0  0  0  0  0  0  0  0  0
  152.6010  145.0045  159.4760 H   0  0  0  0  0  0  0  0  0  0  0  0
  151.3249  142.9254  159.9105 H   0  0  0  0  0  0  0  0  0  0  0  0
  150.3570  142.5847  157.7011 H   0  0  0  0  0  0  0  0  0  0  0  0
  151.9228  142.2867  156.9778 H   0  0  0  0  0  0  0  0  0  0  0  0
  151.2956  139.9271  156.2735 H   0  0  0  0  0  0  0  0  0  0  0  0
  148.8007  140.0084  155.8205 H   0  0  0  0  0  0  0  0  0  0  0  0
  149.4780  141.5701  156.1069 H   0  0  0  0  0  0  0  0  0  0  0  0
  148.5763  140.7629  157.3914 H   0  0  0  0  0  0  0  0  0  0  0  0
  149.9693  137.8834  156.6443 H   0  0  0  0  0  0  0  0  0  0  0  0
  151.1992  137.9990  157.8773 H   0  0  0  0  0  0  0  0  0  0  0  0
  148.8706  139.1874  158.8959 H   0  0  0  0  0  0  0  0  0  0  0  0
  146.4414  133.0923  160.3126 H   0  0  0  0  0  0  0  0  0  0  0  0
  145.6862  134.0136  162.7303 H   0  0  0  0  0  0  0  0  0  0  0  0
  152.5314  139.2010  158.8771 H   0  0  0  0  0  0  0  0  0  0  0  0
  153.1986  140.2608  157.6589 H   0  0  0  0  0  0  0  0  0  0  0  0
  154.2952  140.7416  159.7095 H   0  0  0  0  0  0  0  0  0  0  0  0
  152.7737  139.7242  161.3372 H   0  0  0  0  0  0  0  0  0  0  0  0
  151.5882  140.9979  161.1062 H   0  0  0  0  0  0  0  0  0  0  0  0
  153.1535  141.3725  161.8237 H   0  0  0  0  0  0  0  0  0  0  0  0
  1  2  1  0  0  0  0
  1 21  1  0  0  0  0
  1 22  1  0  0  0  0
  1 23  1  0  0  0  0
  2 20  1  0  0  0  0
  2  3  1  0  0  0  0
  2 24  1  0  0  0  0
  3  4  1  0  0  0  0
  3 25  1  0  0  0  0
  3 26  1  0  0  0  0
  4  5  1  0  0  0  0
  4 17  1  0  0  0  0
  5  6  1  0  0  0  0
  5  7  1  0  0  0  0
  5 27  1  0  0  0  0
  6 28  1  0  0  0  0
  6 29  1  0  0  0  0
  6 30  1  0  0  0  0
  7  8  1  0  0  0  0
  7 31  1  0  0  0  0
  7 32  1  0  0  0  0
  8  9  1  0  0  0  0
  8 33  1  0  0  0  0
  9 10  2  0  0  0  0
  9 11  1  0  0  0  0
 11 12  1  0  0  0  0
 12 16  1  0  0  0  0
 12 13  2  0  0  0  0
 13 14  1  0  0  0  0
 14 15  2  0  0  0  0
 14 34  1  0  0  0  0
 15 16  1  0  0  0  0
 15 35  1  0  0  0  0
 17 18  1  0  0  0  0
 17 36  1  0  0  0  0
 17 37  1  0  0  0  0
 18 19  1  0  0  0  0
 18 20  1  0  0  0  0
 18 38  1  0  0  0  0
 19 39  1  0  0  0  0
 19 40  1  0  0  0  0
 19 41  1  0  0  0  0
M  CHG  1  11  -1
M  END
> <s_m_source_file>
AV-unprocessed.smi

> <i_m_source_file_index>
2032

> <i_lp_mmshare_version>
43012

> <i_f3d_flags>
0

> <s_epik_input>
W0NIM11bQ0BASF0xW0NIMl1OKFtDSDJdW0NASF0oTzEpW0NIM10pW0NASF0oW0NIM10pW0NIMl1bTkhdQyg9TylbTkhdYzJuW2NIXVtjSF1zMg==

> <s_epik_cmdline>
J2VwaWtfcHl0aG9uJywgJy1waCcsICc3LjAnLCAnLXRuJywgJzgnLCAnLW1hJywgJzIwMCcsICctbWV0YWxfYmluZGluZycsICctaW1hZScsICc8aW5maWxlLm1hZT4nLCAnLW9tYWUnLCAnPG91dGZpbGUubWFlPic=

> <r_lp_tautomer_probability>
0.999

> <r_epik_Ionization_Penalty>
7.22375

> <r_epik_Ionization_Penalty_Charging>
5.82415

> <r_epik_Ionization_Penalty_Neutral>
1.39959

> <r_epik_State_Penalty>
6.03347

> <r_epik_Charging_Adjusted_Penalty>
11.8576

> <i_epik_Tot_Q>
-1

> <i_epik_Tot_abs_Q>
1

> <r_epik_Metal_State_Penalty>
2.01024

> <b_epik_Metal_Only>
1

> <s_lp_Force_Field>
OPLS_2005

> <r_lp_Energy>
25.9518

> <b_lp_Chiralities_Consistent>
1

> <s_lp_Variant>
AV-unprocessed.smi:2032-19

> <Gold.Version>
5.8.1

> <Gold.Id.Protein>
6NUR|6NUR_protein|mol2

> <Gold.PLP.Fitness>
47.4519

> <Gold.PLP.PLP>
-37.8573

> <Gold.PLP.part.hbond>
-3.0000

> <Gold.PLP.part.metal>
0.0000

> <Gold.PLP.part.buried>
-5.2149

> <Gold.PLP.part.nonpolar>
-31.8040

> <Gold.PLP.part.repulsive>
0.2323

> <Gold.PLP.ligand.clash>
0.0000

> <Gold.PLP.ligand.torsion>
0.2748

> <Gold.PLP.Chemscore.Hbond>
3.3572

> <Gold.PLP.Chemscore.CHOScore>
0.0000

> <Gold.PLP.Chemscore.Metal>
0.0000

> <Gold.Chemscore.Hbonds>
donor molecule, donor type, donor heavy atom, donor atom, acceptor molecule, acceptor atom, score
      P1  H  6896  6908       L1    10  0.21
      P1  H  6934  6947       L1    11  1.47

> <Gold.PLP.Chemscore.Internal.Correction>
0.0725

> <Gold.Rescore>
     Score         DG    S(hbond)    S(metal)    S(lipo)     H(rot)  DE(clash)    DE(int)     intcor
     16.68     -18.63       2.02        0.00      88.32       1.54       0.14       1.81       ----

> <Gold.Chemscore.Fitness>
16.6755

> <Gold.Chemscore.DG>
-18.6257

> <Gold.Chemscore.ZeroCoef>
-5.4800

> <Gold.Chemscore.Hbond>
2.0247

> <Gold.Chemscore.Metal>
0.0000

> <Gold.Chemscore.Lipo>
88.3198

> <Gold.Chemscore.Internal_Hbond>
0.0000

> <Gold.Chemscore.DEClash>
0.1354

> <Gold.Chemscore.DEInternal>
1.8148

> <Gold.Chemscore.Rot>
1.5431

> <Gold.Chemscore.Internal.Correction>
   9.000000E+99

> <Gold.Chemscore.Hbonds>
donor molecule, donor type, donor heavy atom, donor atom, acceptor molecule, acceptor atom, score
      P1  H  6896  6908       L1    10  0.21
      P1  H  6934  6947       L1    11  0.48

> <Gold.Chemscore.Hbond.Weighted>
-6.7626

> <Gold.Chemscore.Metal.Weighted>
-0.0000

> <Gold.Chemscore.Lipo.Weighted>
-10.3334

> <Gold.Chemscore.Internal_Hbond.Weighted>
0.0000

> <Gold.Chemscore.DEClash.Weighted>
0.1354

> <Gold.Chemscore.DEInternal.Weighted>
1.8148

> <Gold.Chemscore.Rot.Weighted>
3.9503

> <Gold.Chemscore.Internal.Correction.Weighted>
   9.000000E+99

> <Gold.Protein.RotatedTorsions>
[ 6907 6896 6895 6894 ] final  168.01 input  -60.11 | X-H torsion
[ 7974 7965 7964 7962 ] final  119.03 input  175.53 | X-H torsion
[ 8008 7997 7996 7995 ] final  -46.21 input   59.86 | X-H torsion
[ 10167 10162 10161 10158 ] final   10.18 input  -65.29 | X-H torsion
[ 10718 10713 10712 10709 ] final   27.41 input   66.30 | X-H torsion
[ 10763 10752 10751 10750 ] final -167.91 input  -60.55 | X-H torsion
[ 11005 11000 10999 10996 ] final -157.79 input  -57.11 | X-H torsion

> <Gold.Protein.ActiveResidues>
 VAL166  LYS551  ARG553  GLY616  TRP617  ASP618  TYR619  PRO620  LYS621  CYS622 
 ASP623  PHE694  ASN695  SER759  ASP760  ASP761  ALA762  ILE779  LEU786  VAL792 
 PHE793  MET794  SER795  GLU796  ALA797  LYS798  CYS799  TRP800  GLU811  SER814 

> <Gold.Protein.RotatedAtoms>
  151.8544  133.3445  159.3683 H   0  0  0  0  0  0  0  0  0  0  0  0  # atno 6907 bound_to 6896
  150.7197  134.5267  159.5689 H   0  0  0  0  0  0  0  0  0  0  0  0  # atno 6908 bound_to 6896
  152.2768  134.7873  160.0455 H   0  0  0  0  0  0  0  0  0  0  0  0  # atno 6909 bound_to 6896
  145.1481  139.3227  143.4581 H   0  0  0  0  0  0  0  0  0  0  0  0  # atno 7974 bound_to 7965
  154.4006  140.1377  156.3975 H   0  0  0  0  0  0  0  0  0  0  0  0  # atno 8008 bound_to 7997
  155.7856  140.3480  155.5301 H   0  0  0  0  0  0  0  0  0  0  0  0  # atno 8009 bound_to 7997
  155.8630  140.0959  157.1591 H   0  0  0  0  0  0  0  0  0  0  0  0  # atno 8010 bound_to 7997
  140.6210  143.8204  150.7175 H   0  0  0  0  0  0  0  0  0  0  0  0  # atno 10167 bound_to 10162
  157.2198  130.6973  149.6265 H   0  0  0  0  0  0  0  0  0  0  0  0  # atno 10718 bound_to 10713
  154.6684  135.2935  154.9775 H   0  0  0  0  0  0  0  0  0  0  0  0  # atno 10763 bound_to 10752
  154.0811  135.6604  153.4842 H   0  0  0  0  0  0  0  0  0  0  0  0  # atno 10764 bound_to 10752
  153.0471  135.5197  154.7667 H   0  0  0  0  0  0  0  0  0  0  0  0  # atno 10765 bound_to 10752
  140.6607  134.4352  157.5234 H   0  0  0  0  0  0  0  0  0  0  0  0  # atno 11005 bound_to 11000
  146.3498  140.1544  142.8592 LP  0  0  0  0  0  0  0  0  0  0  0  0  # atno 17320 bound_to 7965
  145.0460  140.8982  143.5024 LP  0  0  0  0  0  0  0  0  0  0  0  0  # atno 17321 bound_to 7965
  140.1795  143.4127  152.1943 LP  0  0  0  0  0  0  0  0  0  0  0  0  # atno 17342 bound_to 10162
  139.5439  144.7281  151.4647 LP  0  0  0  0  0  0  0  0  0  0  0  0  # atno 17343 bound_to 10162
  155.9683  130.4523  150.5770 LP  0  0  0  0  0  0  0  0  0  0  0  0  # atno 17370 bound_to 10713
  157.3587  131.0746  151.1654 LP  0  0  0  0  0  0  0  0  0  0  0  0  # atno 17371 bound_to 10713
  139.9014  134.8548  156.1882 LP  0  0  0  0  0  0  0  0  0  0  0  0  # atno 17394 bound_to 11000
  141.0467  133.6910  156.1696 LP  0  0  0  0  0  0  0  0  0  0  0  0  # atno 17395 bound_to 11000

$$$$
