AV-unprocessed.smi:3274|AV-procd|sdf|12522|dock1
  -GOLD-   2272018433D 1   1.00000     0.00000
 Structure written by MMmdl.
 43 44  0  0  0  0  0  0  0  0  2 V2000
  153.5728  141.8419  159.2171 C   0  0  0  0  0  0  0  0  0  0  0  0
  152.5555  142.9389  159.4844 C   0  0  0  0  0  0  0  0  0  0  0  0
  152.8647  143.9873  160.2730 C   0  0  0  0  0  0  0  0  0  0  0  0
  151.9075  145.1070  160.6415 C   0  0  0  0  0  0  0  0  0  0  0  0
  150.5796  145.0446  159.8691 C   0  0  0  0  0  0  0  0  0  0  0  0
  150.1145  143.5923  159.6685 C   0  0  1  0  0  0  0  0  0  0  0  0
  148.6807  143.5157  159.1161 C   0  0  0  0  0  0  0  0  0  0  0  0
  151.1631  142.7782  158.8579 C   0  0  1  0  0  0  0  0  0  0  0  0
  151.1628  143.1235  157.3461 C   0  0  0  0  0  0  0  0  0  0  0  0
  150.0231  142.5210  156.6220 N   0  3  0  0  0  0  0  0  0  0  0  0
  150.3592  141.3696  155.7558 C   0  0  2  0  0  0  0  0  0  0  0  0
  149.0717  140.8215  155.1176 C   0  0  0  0  0  0  0  0  0  0  0  0
  151.1278  140.2875  156.5500 C   0  0  0  0  0  0  0  0  0  0  0  0
  151.4937  139.1398  155.7401 N   0  0  0  0  0  0  0  0  0  0  0  0
  151.8114  137.8926  156.0916 C   0  0  0  0  0  0  0  0  0  0  0  0
  152.1114  137.1083  155.0659 N   0  0  0  0  0  0  0  0  0  0  0  0
  151.9579  138.0005  154.0424 C   0  0  0  0  0  0  0  0  0  0  0  0
  151.5940  139.2341  154.3933 N   0  0  0  0  0  0  0  0  0  0  0  0
  153.1285  140.8591  159.3764 H   0  0  0  0  0  0  0  0  0  0  0  0
  154.4282  141.9303  159.8878 H   0  0  0  0  0  0  0  0  0  0  0  0
  153.9558  141.8929  158.1992 H   0  0  0  0  0  0  0  0  0  0  0  0
  153.8487  144.0515  160.7147 H   0  0  0  0  0  0  0  0  0  0  0  0
  151.7130  145.0301  161.7117 H   0  0  0  0  0  0  0  0  0  0  0  0
  152.3924  146.0700  160.4783 H   0  0  0  0  0  0  0  0  0  0  0  0
  149.8234  145.6179  160.4065 H   0  0  0  0  0  0  0  0  0  0  0  0
  150.6946  145.5320  158.9007 H   0  0  0  0  0  0  0  0  0  0  0  0
  150.0687  143.1385  160.6605 H   0  0  0  0  0  0  0  0  0  0  0  0
  148.5691  144.0742  158.1867 H   0  0  0  0  0  0  0  0  0  0  0  0
  147.9710  143.9376  159.8282 H   0  0  0  0  0  0  0  0  0  0  0  0
  148.3828  142.4832  158.9315 H   0  0  0  0  0  0  0  0  0  0  0  0
  150.8843  141.7282  158.9604 H   0  0  0  0  0  0  0  0  0  0  0  0
  151.0936  144.1997  157.1949 H   0  0  0  0  0  0  0  0  0  0  0  0
  152.1008  142.8006  156.8962 H   0  0  0  0  0  0  0  0  0  0  0  0
  149.3215  142.2320  157.2886 H   0  0  0  0  0  0  0  0  0  0  0  0
  150.9923  141.7352  154.9457 H   0  0  0  0  0  0  0  0  0  0  0  0
  149.2843  140.0263  154.4026 H   0  0  0  0  0  0  0  0  0  0  0  0
  148.5388  141.6043  154.5767 H   0  0  0  0  0  0  0  0  0  0  0  0
  148.3950  140.4187  155.8722 H   0  0  0  0  0  0  0  0  0  0  0  0
  152.0444  140.6913  156.9796 H   0  0  0  0  0  0  0  0  0  0  0  0
  150.5216  139.9364  157.3865 H   0  0  0  0  0  0  0  0  0  0  0  0
  151.8232  137.5500  157.1160 H   0  0  0  0  0  0  0  0  0  0  0  0
  152.1211  137.7337  153.0085 H   0  0  0  0  0  0  0  0  0  0  0  0
  149.6282  143.2432  156.0366 H   0  0  0  0  0  0  0  0  0  0  0  0
  1  2  1  0  0  0  0
  1 19  1  0  0  0  0
  1 20  1  0  0  0  0
  1 21  1  0  0  0  0
  2  8  1  0  0  0  0
  2  3  2  0  0  0  0
  3  4  1  0  0  0  0
  3 22  1  0  0  0  0
  4  5  1  0  0  0  0
  4 23  1  0  0  0  0
  4 24  1  0  0  0  0
  5  6  1  0  0  0  0
  5 25  1  0  0  0  0
  5 26  1  0  0  0  0
  6  7  1  0  0  0  0
  6  8  1  0  0  0  0
  6 27  1  0  0  0  0
  7 28  1  0  0  0  0
  7 29  1  0  0  0  0
  7 30  1  0  0  0  0
  8  9  1  0  0  0  0
  8 31  1  0  0  0  0
  9 10  1  0  0  0  0
  9 32  1  0  0  0  0
  9 33  1  0  0  0  0
 10 11  1  0  0  0  0
 10 34  1  0  0  0  0
 10 43  1  0  0  0  0
 11 12  1  0  0  0  0
 11 13  1  0  0  0  0
 11 35  1  0  0  0  0
 12 36  1  0  0  0  0
 12 37  1  0  0  0  0
 12 38  1  0  0  0  0
 13 14  1  0  0  0  0
 13 39  1  0  0  0  0
 13 40  1  0  0  0  0
 14 18  1  0  0  0  0
 14 15  1  0  0  0  0
 15 16  2  0  0  0  0
 15 41  1  0  0  0  0
 16 17  1  0  0  0  0
 17 18  2  0  0  0  0
 17 42  1  0  0  0  0
M  CHG  1  10   1
M  END
> <s_m_source_file>
AV-unprocessed.smi

> <i_m_source_file_index>
3274

> <i_lp_mmshare_version>
43012

> <i_f3d_flags>
0

> <s_epik_input>
W0NIM11DMT1bQ0hdW0NIMl1bQ0gyXVtDQEBIXShbQ0gzXSlbQ0BIXTFbQ0gyXVtOSF1bQ0BIXShbQ0gzXSlbQ0gyXW4yW2NIXW5bY0hdbjI=

> <s_epik_cmdline>
J2VwaWtfcHl0aG9uJywgJy1waCcsICc3LjAnLCAnLXRuJywgJzgnLCAnLW1hJywgJzIwMCcsICctbWV0YWxfYmluZGluZycsICctaW1hZScsICc8aW5maWxlLm1hZT4nLCAnLW9tYWUnLCAnPG91dGZpbGUubWFlPic=

> <r_lp_tautomer_probability>
1

> <r_epik_Ionization_Penalty>
0.0017527

> <r_epik_Ionization_Penalty_Charging>
0.00175191

> <r_epik_Ionization_Penalty_Neutral>
7.94565e-07

> <r_epik_State_Penalty>
0.00118605

> <r_epik_Charging_Adjusted_Penalty>
0.00293796

> <i_epik_Tot_Q>
1

> <i_epik_Tot_abs_Q>
1

> <r_epik_Metal_State_Penalty>
-0

> <b_epik_Metal_Only>
0

> <s_lp_Force_Field>
OPLS_2005

> <r_lp_Energy>
17.2811

> <b_lp_Chiralities_Consistent>
1

> <s_lp_Variant>
AV-unprocessed.smi:3274-1

> <Gold.Version>
5.8.1

> <Gold.Id.Protein>
6NUR|6NUR_protein|mol2

> <Gold.PLP.Fitness>
48.1153

> <Gold.PLP.PLP>
-35.0073

> <Gold.PLP.part.hbond>
-3.0000

> <Gold.PLP.part.metal>
0.0000

> <Gold.PLP.part.buried>
-1.4780

> <Gold.PLP.part.nonpolar>
-30.9005

> <Gold.PLP.part.repulsive>
0.2946

> <Gold.PLP.ligand.clash>
0.0000

> <Gold.PLP.ligand.torsion>
0.8166

> <Gold.PLP.Chemscore.Hbond>
3.8880

> <Gold.PLP.Chemscore.CHOScore>
1.0000

> <Gold.PLP.Chemscore.Metal>
0.0000

> <Gold.Chemscore.Hbonds>
donor molecule, donor type, donor heavy atom, donor atom, acceptor molecule, acceptor atom, score
      L1  H    10    43       P1  8028  2.00
      P1  H  7989  7998       L1    18  1.00
      P1  H 10752 10765       L1    16  0.90
      L1  C    17    42       P1  7949  1.00

> <Gold.PLP.Chemscore.Internal.Correction>
0.0771

> <Gold.Rescore>
     Score         DG    S(hbond)    S(metal)    S(lipo)     H(rot)  DE(clash)    DE(int)     intcor
     18.32     -20.57       2.81        0.00     100.35       2.36       0.67       1.58       ----

> <Gold.Chemscore.Fitness>
18.3237

> <Gold.Chemscore.DG>
-20.5750

> <Gold.Chemscore.ZeroCoef>
-5.4800

> <Gold.Chemscore.Hbond>
2.8141

> <Gold.Chemscore.Metal>
0.0000

> <Gold.Chemscore.Lipo>
100.3539

> <Gold.Chemscore.Internal_Hbond>
0.0000

> <Gold.Chemscore.DEClash>
0.6719

> <Gold.Chemscore.DEInternal>
1.5793

> <Gold.Chemscore.Rot>
2.3615

> <Gold.Chemscore.Internal.Correction>
   9.000000E+99

> <Gold.Chemscore.Hbonds>
donor molecule, donor type, donor heavy atom, donor atom, acceptor molecule, acceptor atom, score
      L1  H    10    43       P1  8028  0.99
      P1  H  7989  7998       L1    18  0.97
      P1  H 10752 10765       L1    16  0.75

> <Gold.Chemscore.Hbond.Weighted>
-9.3990

> <Gold.Chemscore.Metal.Weighted>
-0.0000

> <Gold.Chemscore.Lipo.Weighted>
-11.7414

> <Gold.Chemscore.Internal_Hbond.Weighted>
0.0000

> <Gold.Chemscore.DEClash.Weighted>
0.6719

> <Gold.Chemscore.DEInternal.Weighted>
1.5793

> <Gold.Chemscore.Rot.Weighted>
6.0454

> <Gold.Chemscore.Internal.Correction.Weighted>
   9.000000E+99

> <Gold.Protein.RotatedTorsions>
[ 6907 6896 6895 6894 ] final  111.11 input  -60.11 | X-H torsion
[ 7974 7965 7964 7962 ] final -150.17 input  175.53 | X-H torsion
[ 8008 7997 7996 7995 ] final -148.72 input   59.86 | X-H torsion
[ 10167 10162 10161 10158 ] final  123.72 input  -65.29 | X-H torsion
[ 10718 10713 10712 10709 ] final   45.72 input   66.30 | X-H torsion
[ 10763 10752 10751 10750 ] final  177.79 input  -60.55 | X-H torsion
[ 11005 11000 10999 10996 ] final -149.02 input  -57.11 | X-H torsion

> <Gold.Protein.ActiveResidues>
 VAL166  LYS551  ARG553  GLY616  TRP617  ASP618  TYR619  PRO620  LYS621  CYS622 
 ASP623  PHE694  ASN695  SER759  ASP760  ASP761  ALA762  ILE779  LEU786  VAL792 
 PHE793  MET794  SER795  GLU796  ALA797  LYS798  CYS799  TRP800  GLU811  SER814 

> <Gold.Protein.RotatedAtoms>
  152.4986  133.8704  159.7295 H   0  0  0  0  0  0  0  0  0  0  0  0  # atno 6907 bound_to 6896
  150.9192  133.6892  159.2843 H   0  0  0  0  0  0  0  0  0  0  0  0  # atno 6908 bound_to 6896
  151.4275  135.1010  159.9685 H   0  0  0  0  0  0  0  0  0  0  0  0  # atno 6909 bound_to 6896
  144.7923  140.4967  143.5764 H   0  0  0  0  0  0  0  0  0  0  0  0  # atno 7974 bound_to 7965
  155.5961  140.0657  157.2745 H   0  0  0  0  0  0  0  0  0  0  0  0  # atno 8008 bound_to 7997
  154.4291  140.1826  156.1172 H   0  0  0  0  0  0  0  0  0  0  0  0  # atno 8009 bound_to 7997
  156.0195  140.3318  155.7027 H   0  0  0  0  0  0  0  0  0  0  0  0  # atno 8010 bound_to 7997
  139.5783  144.6974  151.3596 H   0  0  0  0  0  0  0  0  0  0  0  0  # atno 10167 bound_to 10162
  157.4405  130.8078  149.7690 H   0  0  0  0  0  0  0  0  0  0  0  0  # atno 10718 bound_to 10713
  154.4991  135.2782  155.1435 H   0  0  0  0  0  0  0  0  0  0  0  0  # atno 10763 bound_to 10752
  154.3076  135.6235  153.5455 H   0  0  0  0  0  0  0  0  0  0  0  0  # atno 10764 bound_to 10752
  152.9899  135.5712  154.5430 H   0  0  0  0  0  0  0  0  0  0  0  0  # atno 10765 bound_to 10752
  140.7551  134.3362  157.5116 H   0  0  0  0  0  0  0  0  0  0  0  0  # atno 11005 bound_to 11000
  145.5762  139.1486  143.3261 LP  0  0  0  0  0  0  0  0  0  0  0  0  # atno 17320 bound_to 7965
  146.2180  140.5893  142.9030 LP  0  0  0  0  0  0  0  0  0  0  0  0  # atno 17321 bound_to 7965
  140.7063  143.7504  150.7488 LP  0  0  0  0  0  0  0  0  0  0  0  0  # atno 17342 bound_to 10162
  140.1030  143.4770  152.2414 LP  0  0  0  0  0  0  0  0  0  0  0  0  # atno 17343 bound_to 10162
  155.9947  130.3916  150.2849 LP  0  0  0  0  0  0  0  0  0  0  0  0  # atno 17370 bound_to 10713
  157.1013  131.0196  151.3084 LP  0  0  0  0  0  0  0  0  0  0  0  0  # atno 17371 bound_to 10713
  139.8780  134.9167  156.3161 LP  0  0  0  0  0  0  0  0  0  0  0  0  # atno 17394 bound_to 11000
  140.9715  133.7324  156.0541 LP  0  0  0  0  0  0  0  0  0  0  0  0  # atno 17395 bound_to 11000

$$$$
