AV-unprocessed.smi:658|AV-procd|sdf|3234|dock9
  -GOLD-   22720 0183D 1   1.00000     0.00000
 Structure written by MMmdl.
 37 37  0  0  0  0  0  0  0  0  3 V2000
  151.8169  144.3361  157.4997 C   0  0  0  0  0  0  0  0  0  0  0  0
  151.0143  143.6413  158.6120 C   0  0  2  0  0  0  0  0  0  0  0  0
  149.5663  143.7539  158.3214 N   0  3  0  0  0  0  0  0  0  0  0  0
  148.8168  142.4842  158.3780 C   0  0  0  0  0  0  0  0  0  0  0  0
  147.3402  142.7110  158.0384 C   0  0  0  0  0  0  0  0  0  0  0  0
  146.7962  144.0177  158.6281 C   0  0  0  0  0  0  0  0  0  0  0  0
  146.8593  143.9812  160.4677 S   0  0  0  0  0  0  0  0  0  0  0  0
  146.1081  142.5867  160.7704 N   0  5  0  0  0  0  0  0  0  0  0  0
  148.2875  143.9432  160.8173 O   0  0  0  0  0  0  0  0  0  0  0  0
  146.0843  145.1462  160.9202 O   0  0  0  0  0  0  0  0  0  0  0  0
  151.3532  144.1837  160.0252 C   0  0  2  0  0  0  0  0  0  0  0  0
  151.9027  145.6226  159.9983 C   0  0  0  0  0  0  0  0  0  0  0  0
  152.2145  143.2892  160.7937 N   0  0  0  0  0  0  0  0  0  0  0  0
  152.8652  142.1522  160.3587 C   0  0  0  0  0  0  0  0  0  0  0  0
  153.5657  141.6495  161.4174 C   0  0  0  0  0  0  0  0  0  0  0  0
  153.2839  142.5603  162.4725 C   0  0  0  0  0  0  0  0  0  0  0  0
  152.4809  143.5418  162.0959 N   0  0  0  0  0  0  0  0  0  0  0  0
  152.8887  144.2632  157.6862 H   0  0  0  0  0  0  0  0  0  0  0  0
  151.5648  145.3939  157.4171 H   0  0  0  0  0  0  0  0  0  0  0  0
  151.6209  143.8749  156.5312 H   0  0  0  0  0  0  0  0  0  0  0  0
  151.2942  142.5864  158.5966 H   0  0  0  0  0  0  0  0  0  0  0  0
  149.1620  144.3894  158.9952 H   0  0  0  0  0  0  0  0  0  0  0  0
  149.2589  141.7739  157.6781 H   0  0  0  0  0  0  0  0  0  0  0  0
  148.9073  142.0579  159.3780 H   0  0  0  0  0  0  0  0  0  0  0  0
  147.2134  142.7233  156.9550 H   0  0  0  0  0  0  0  0  0  0  0  0
  146.7493  141.8730  158.4098 H   0  0  0  0  0  0  0  0  0  0  0  0
  147.3807  144.8730  158.2881 H   0  0  0  0  0  0  0  0  0  0  0  0
  145.7605  144.1796  158.3285 H   0  0  0  0  0  0  0  0  0  0  0  0
  145.3359  142.4881  160.1007 H   0  0  0  0  0  0  0  0  0  0  0  0
  150.4101  144.2358  160.5716 H   0  0  0  0  0  0  0  0  0  0  0  0
  151.2057  146.2981  159.5019 H   0  0  0  0  0  0  0  0  0  0  0  0
  152.8552  145.6876  159.4714 H   0  0  0  0  0  0  0  0  0  0  0  0
  152.0596  145.9991  161.0096 H   0  0  0  0  0  0  0  0  0  0  0  0
  152.7762  141.7971  159.3424 H   0  0  0  0  0  0  0  0  0  0  0  0
  154.1853  140.7650  161.4356 H   0  0  0  0  0  0  0  0  0  0  0  0
  153.6379  142.5393  163.4928 H   0  0  0  0  0  0  0  0  0  0  0  0
  149.4528  144.1553  157.4017 H   0  0  0  0  0  0  0  0  0  0  0  0
  1  2  1  0  0  0  0
  1 18  1  0  0  0  0
  1 19  1  0  0  0  0
  1 20  1  0  0  0  0
  2  3  1  0  0  0  0
  2 11  1  0  0  0  0
  2 21  1  0  0  0  0
  3  4  1  0  0  0  0
  3 22  1  0  0  0  0
  3 37  1  0  0  0  0
  4  5  1  0  0  0  0
  4 23  1  0  0  0  0
  4 24  1  0  0  0  0
  5  6  1  0  0  0  0
  5 25  1  0  0  0  0
  5 26  1  0  0  0  0
  6  7  1  0  0  0  0
  6 27  1  0  0  0  0
  6 28  1  0  0  0  0
  7  8  1  0  0  0  0
  7  9  2  0  0  0  0
  7 10  2  0  0  0  0
  8 29  1  0  0  0  0
 11 12  1  0  0  0  0
 11 13  1  0  0  0  0
 11 30  1  0  0  0  0
 12 31  1  0  0  0  0
 12 32  1  0  0  0  0
 12 33  1  0  0  0  0
 13 17  1  0  0  0  0
 13 14  1  0  0  0  0
 14 15  2  0  0  0  0
 14 34  1  0  0  0  0
 15 16  1  0  0  0  0
 15 35  1  0  0  0  0
 16 17  2  0  0  0  0
 16 36  1  0  0  0  0
M  CHG  1   3   1
M  CHG  1   8  -1
M  END
> <s_m_source_file>
AV-unprocessed.smi

> <i_m_source_file_index>
658

> <i_lp_mmshare_version>
43012

> <i_f3d_flags>
0

> <s_epik_input>
bjFbY0hdW2NIXVtjSF1uMVtDQEBIXShbQ0gzXSlbQ0BIXShbQ0gzXSlbTkhdW0NIMl1bQ0gyXVtDSDJdUyg9TykoPU8pW05IMl0=

> <s_epik_cmdline>
J2VwaWtfcHl0aG9uJywgJy1waCcsICc3LjAnLCAnLXRuJywgJzgnLCAnLW1hJywgJzIwMCcsICctbWV0YWxfYmluZGluZycsICctaW1hZScsICc8aW5maWxlLm1hZT4nLCAnLW9tYWUnLCAnPG91dGZpbGUubWFlPic=

> <r_lp_tautomer_probability>
1

> <r_epik_Ionization_Penalty>
4.63642

> <r_epik_Ionization_Penalty_Charging>
4.63641

> <r_epik_Ionization_Penalty_Neutral>
1.08396e-05

> <r_epik_State_Penalty>
4.63466

> <r_epik_Charging_Adjusted_Penalty>
9.27106

> <i_epik_Tot_Q>
0

> <i_epik_Tot_abs_Q>
2

> <r_epik_Metal_State_Penalty>
0.890424

> <b_epik_Metal_Only>
1

> <s_lp_Force_Field>
OPLS_2005

> <r_lp_Energy>
0.307927

> <b_lp_Chiralities_Consistent>
1

> <s_lp_Variant>
AV-unprocessed.smi:658-5

> <Gold.Version>
5.8.1

> <Gold.Id.Protein>
6NUR|6NUR_protein|mol2

> <Gold.PLP.Fitness>
49.7304

> <Gold.PLP.PLP>
-38.7143

> <Gold.PLP.part.hbond>
-4.5564

> <Gold.PLP.part.metal>
0.0000

> <Gold.PLP.part.buried>
-3.4863

> <Gold.PLP.part.nonpolar>
-30.7464

> <Gold.PLP.part.repulsive>
0.4633

> <Gold.PLP.ligand.clash>
0.0000

> <Gold.PLP.ligand.torsion>
2.0993

> <Gold.PLP.Chemscore.Hbond>
5.0000

> <Gold.PLP.Chemscore.CHOScore>
0.0000

> <Gold.PLP.Chemscore.Metal>
0.0000

> <Gold.Chemscore.Hbonds>
donor molecule, donor type, donor heavy atom, donor atom, acceptor molecule, acceptor atom, score
      L1  H     3    37       P1  8028  1.80
      P1  H  6933  6944       L1     9  1.00
      P1  H  6934  6946       L1     8  2.00

> <Gold.PLP.Chemscore.Internal.Correction>
0.2148

> <Gold.Rescore>
     Score         DG    S(hbond)    S(metal)    S(lipo)     H(rot)  DE(clash)    DE(int)     intcor
     13.01     -17.01       2.74        0.00      87.02       3.04       1.64       2.36       ----

> <Gold.Chemscore.Fitness>
13.0147

> <Gold.Chemscore.DG>
-17.0122

> <Gold.Chemscore.ZeroCoef>
-5.4800

> <Gold.Chemscore.Hbond>
2.7354

> <Gold.Chemscore.Metal>
0.0000

> <Gold.Chemscore.Lipo>
87.0165

> <Gold.Chemscore.Internal_Hbond>
0.0000

> <Gold.Chemscore.DEClash>
1.6422

> <Gold.Chemscore.DEInternal>
2.3554

> <Gold.Chemscore.Rot>
3.0409

> <Gold.Chemscore.Internal.Correction>
   9.000000E+99

> <Gold.Chemscore.Hbonds>
donor molecule, donor type, donor heavy atom, donor atom, acceptor molecule, acceptor atom, score
      L1  H     3    37       P1  8028  0.18
      P1  H  6933  6944       L1     9  0.44
      P1  H  6934  6946       L1     8  0.39

> <Gold.Chemscore.Hbond.Weighted>
-9.1361

> <Gold.Chemscore.Metal.Weighted>
-0.0000

> <Gold.Chemscore.Lipo.Weighted>
-10.1809

> <Gold.Chemscore.Internal_Hbond.Weighted>
0.0000

> <Gold.Chemscore.DEClash.Weighted>
1.6422

> <Gold.Chemscore.DEInternal.Weighted>
2.3554

> <Gold.Chemscore.Rot.Weighted>
7.7848

> <Gold.Chemscore.Internal.Correction.Weighted>
   9.000000E+99

> <Gold.Protein.RotatedTorsions>
[ 6907 6896 6895 6894 ] final  141.38 input  -60.11 | X-H torsion
[ 7974 7965 7964 7962 ] final -120.70 input  175.53 | X-H torsion
[ 8008 7997 7996 7995 ] final  -93.05 input   59.86 | X-H torsion
[ 10167 10162 10161 10158 ] final  -27.39 input  -65.29 | X-H torsion
[ 10718 10713 10712 10709 ] final -136.67 input   66.30 | X-H torsion
[ 10763 10752 10751 10750 ] final -113.85 input  -60.55 | X-H torsion
[ 11005 11000 10999 10996 ] final   86.79 input  -57.11 | X-H torsion

> <Gold.Protein.ActiveResidues>
 VAL166  LYS551  ARG553  GLY616  TRP617  ASP618  TYR619  PRO620  LYS621  CYS622 
 ASP623  PHE694  ASN695  SER759  ASP760  ASP761  ALA762  ILE779  LEU786  VAL792 
 PHE793  MET794  SER795  GLU796  ALA797  LYS798  CYS799  TRP800  GLU811  SER814 

> <Gold.Protein.RotatedAtoms>
  152.2317  133.5063  159.5219 H   0  0  0  0  0  0  0  0  0  0  0  0  # atno 6907 bound_to 6896
  150.7039  134.1208  159.4043 H   0  0  0  0  0  0  0  0  0  0  0  0  # atno 6908 bound_to 6896
  151.9129  135.0331  160.0566 H   0  0  0  0  0  0  0  0  0  0  0  0  # atno 6909 bound_to 6896
  145.0484  140.8199  143.4224 H   0  0  0  0  0  0  0  0  0  0  0  0  # atno 7974 bound_to 7965
  154.7308  140.0503  157.0725 H   0  0  0  0  0  0  0  0  0  0  0  0  # atno 8008 bound_to 7997
  155.0304  140.3157  155.4741 H   0  0  0  0  0  0  0  0  0  0  0  0  # atno 8009 bound_to 7997
  156.2841  140.2151  156.5425 H   0  0  0  0  0  0  0  0  0  0  0  0  # atno 8010 bound_to 7997
  140.7277  143.4098  151.1125 H   0  0  0  0  0  0  0  0  0  0  0  0  # atno 10167 bound_to 10162
  156.2796  130.7313  151.1306 H   0  0  0  0  0  0  0  0  0  0  0  0  # atno 10718 bound_to 10713
  154.8414  135.4439  154.1414 H   0  0  0  0  0  0  0  0  0  0  0  0  # atno 10763 bound_to 10752
  153.2598  135.6935  153.7596 H   0  0  0  0  0  0  0  0  0  0  0  0  # atno 10764 bound_to 10752
  153.6877  135.3392  155.3170 H   0  0  0  0  0  0  0  0  0  0  0  0  # atno 10765 bound_to 10752
  139.8936  134.8379  156.2769 H   0  0  0  0  0  0  0  0  0  0  0  0  # atno 11005 bound_to 11000
  145.1558  139.2487  143.5417 LP  0  0  0  0  0  0  0  0  0  0  0  0  # atno 17320 bound_to 7965
  146.3516  140.1272  142.8598 LP  0  0  0  0  0  0  0  0  0  0  0  0  # atno 17321 bound_to 7965
  139.7729  143.8467  152.3124 LP  0  0  0  0  0  0  0  0  0  0  0  0  # atno 17342 bound_to 10162
  139.8392  144.7218  150.9352 LP  0  0  0  0  0  0  0  0  0  0  0  0  # atno 17343 bound_to 10162
  157.7310  131.0611  150.5698 LP  0  0  0  0  0  0  0  0  0  0  0  0  # atno 17370 bound_to 10713
  156.5803  130.4302  149.5980 LP  0  0  0  0  0  0  0  0  0  0  0  0  # atno 17371 bound_to 10713
  141.0064  133.7121  156.1042 LP  0  0  0  0  0  0  0  0  0  0  0  0  # atno 17394 bound_to 11000
  140.7427  134.4132  157.5552 LP  0  0  0  0  0  0  0  0  0  0  0  0  # atno 17395 bound_to 11000

$$$$
