AV-unprocessed.smi:2911|AV-procd|sdf|11177|dock8
  -GOLD-   2272016 73D 1   1.00000     0.00000
 Structure written by MMmdl.
 41 42  0  0  0  0  0  0  0  0  1 V2000
  152.7571  138.4411  154.7273 C   0  0  0  0  0  0  0  0  0  0  0  0
  151.3436  138.9094  154.6616 C   0  0  0  0  0  0  0  0  0  0  0  0
  151.0403  140.1989  154.7466 N   0  0  0  0  0  0  0  0  0  0  0  0
  149.6416  140.2092  154.6446 O   0  0  0  0  0  0  0  0  0  0  0  0
  149.2733  138.9150  154.4868 C   0  0  0  0  0  0  0  0  0  0  0  0
  147.8220  138.5846  154.3869 C   0  0  0  0  0  0  0  0  0  0  0  0
  147.5632  137.0696  154.3895 C   0  0  0  0  0  0  0  0  0  0  0  0
  146.7257  136.6663  153.2659 N   0  0  0  0  0  0  0  0  0  0  0  0
  145.5175  136.0864  153.3674 C   0  0  0  0  0  0  0  0  0  0  0  0
  144.9836  135.8699  154.4555 O   0  0  0  0  0  0  0  0  0  0  0  0
  144.9092  135.8905  152.1699 N   0  0  0  0  0  0  0  0  0  0  0  0
  145.6927  135.5756  150.9620 C   0  0  0  0  0  0  0  0  0  0  0  0
  145.7851  134.0450  150.8085 C   0  0  0  0  0  0  0  0  0  0  0  0
  144.3846  133.3974  150.7561 C   0  0  1  0  0  0  0  0  0  0  0  0
  144.4690  131.8652  150.7264 C   0  0  0  0  0  0  0  0  0  0  0  0
  143.4952  133.8975  151.9152 C   0  0  0  0  0  0  0  0  0  0  0  0
  143.5110  135.4378  152.0002 C   0  0  1  0  0  0  0  0  0  0  0  0
  142.5077  135.9839  153.0384 C   0  0  0  0  0  0  0  0  0  0  0  0
  150.2919  138.0589  154.5074 N   0  0  0  0  0  0  0  0  0  0  0  0
  153.1731  138.3634  153.7229 H   0  0  0  0  0  0  0  0  0  0  0  0
  152.8126  137.4614  155.2026 H   0  0  0  0  0  0  0  0  0  0  0  0
  153.3684  139.1364  155.3037 H   0  0  0  0  0  0  0  0  0  0  0  0
  147.3027  139.0610  155.2191 H   0  0  0  0  0  0  0  0  0  0  0  0
  147.4262  139.0324  153.4747 H   0  0  0  0  0  0  0  0  0  0  0  0
  148.5091  136.5329  154.3137 H   0  0  0  0  0  0  0  0  0  0  0  0
  147.1039  136.7601  155.3299 H   0  0  0  0  0  0  0  0  0  0  0  0
  147.0838  136.8511  152.3400 H   0  0  0  0  0  0  0  0  0  0  0  0
  145.2104  136.0126  150.0866 H   0  0  0  0  0  0  0  0  0  0  0  0
  146.6976  135.9989  150.9770 H   0  0  0  0  0  0  0  0  0  0  0  0
  146.3443  133.7975  149.9056 H   0  0  0  0  0  0  0  0  0  0  0  0
  146.3518  133.6319  151.6443 H   0  0  0  0  0  0  0  0  0  0  0  0
  143.9142  133.7166  149.8248 H   0  0  0  0  0  0  0  0  0  0  0  0
  144.9317  131.4760  151.6339 H   0  0  0  0  0  0  0  0  0  0  0  0
  145.0598  131.5212  149.8771 H   0  0  0  0  0  0  0  0  0  0  0  0
  143.4777  131.4193  150.6407 H   0  0  0  0  0  0  0  0  0  0  0  0
  142.4737  133.5428  151.7722 H   0  0  0  0  0  0  0  0  0  0  0  0
  143.8398  133.4737  152.8597 H   0  0  0  0  0  0  0  0  0  0  0  0
  143.1662  135.8273  151.0409 H   0  0  0  0  0  0  0  0  0  0  0  0
  141.4847  135.7842  152.7188 H   0  0  0  0  0  0  0  0  0  0  0  0
  142.6059  137.0636  153.1550 H   0  0  0  0  0  0  0  0  0  0  0  0
  142.6244  135.5218  154.0182 H   0  0  0  0  0  0  0  0  0  0  0  0
  1  2  1  0  0  0  0
  1 20  1  0  0  0  0
  1 21  1  0  0  0  0
  1 22  1  0  0  0  0
  2 19  1  0  0  0  0
  2  3  2  0  0  0  0
  3  4  1  0  0  0  0
  4  5  1  0  0  0  0
  5  6  1  0  0  0  0
  5 19  2  0  0  0  0
  6  7  1  0  0  0  0
  6 23  1  0  0  0  0
  6 24  1  0  0  0  0
  7  8  1  0  0  0  0
  7 25  1  0  0  0  0
  7 26  1  0  0  0  0
  8  9  1  0  0  0  0
  8 27  1  0  0  0  0
  9 10  2  0  0  0  0
  9 11  1  0  0  0  0
 11 17  1  0  0  0  0
 11 12  1  0  0  0  0
 12 13  1  0  0  0  0
 12 28  1  0  0  0  0
 12 29  1  0  0  0  0
 13 14  1  0  0  0  0
 13 30  1  0  0  0  0
 13 31  1  0  0  0  0
 14 15  1  0  0  0  0
 14 16  1  0  0  0  0
 14 32  1  0  0  0  0
 15 33  1  0  0  0  0
 15 34  1  0  0  0  0
 15 35  1  0  0  0  0
 16 17  1  0  0  0  0
 16 36  1  0  0  0  0
 16 37  1  0  0  0  0
 17 18  1  0  0  0  0
 17 38  1  0  0  0  0
 18 39  1  0  0  0  0
 18 40  1  0  0  0  0
 18 41  1  0  0  0  0
M  END
> <s_m_source_file>
AV-unprocessed.smi

> <i_m_source_file_index>
2911

> <i_lp_mmshare_version>
43012

> <i_f3d_flags>
0

> <s_epik_input>
W0NIM11jMW5vYyhuMSlbQ0gyXVtDSDJdW05IXUMoPU8pTjJbQ0gyXVtDSDJdW0NAQEhdKFtDSDNdKVtDSDJdW0NASF0yW0NIM10=

> <s_epik_cmdline>
J2VwaWtfcHl0aG9uJywgJy1waCcsICc3LjAnLCAnLXRuJywgJzgnLCAnLW1hJywgJzIwMCcsICctbWV0YWxfYmluZGluZycsICctaW1hZScsICc8aW5maWxlLm1hZT4nLCAnLW9tYWUnLCAnPG91dGZpbGUubWFlPic=

> <r_lp_tautomer_probability>
1

> <r_epik_Ionization_Penalty>
6.61671e-05

> <r_epik_Ionization_Penalty_Charging>
0

> <r_epik_Ionization_Penalty_Neutral>
6.61671e-05

> <r_epik_State_Penalty>
-0

> <r_epik_Charging_Adjusted_Penalty>
0

> <i_epik_Tot_Q>
0

> <i_epik_Tot_abs_Q>
0

> <r_epik_Metal_State_Penalty>
-0

> <b_epik_Metal_Only>
0

> <s_lp_Force_Field>
OPLS_2005

> <r_lp_Energy>
29.1944

> <b_lp_Chiralities_Consistent>
1

> <s_lp_Variant>
AV-unprocessed.smi:2911-1

> <Gold.Version>
5.8.1

> <Gold.Id.Protein>
6NUR|6NUR_protein|mol2

> <Gold.PLP.Fitness>
35.2681

> <Gold.PLP.PLP>
-31.7862

> <Gold.PLP.part.hbond>
-2.1483

> <Gold.PLP.part.metal>
0.0000

> <Gold.PLP.part.buried>
-5.3695

> <Gold.PLP.part.nonpolar>
-24.4251

> <Gold.PLP.part.repulsive>
0.3962

> <Gold.PLP.ligand.clash>
0.0000

> <Gold.PLP.ligand.torsion>
0.5955

> <Gold.PLP.Chemscore.Hbond>
1.4160

> <Gold.PLP.Chemscore.CHOScore>
0.0000

> <Gold.PLP.Chemscore.Metal>
0.0000

> <Gold.Chemscore.Hbonds>
donor molecule, donor type, donor heavy atom, donor atom, acceptor molecule, acceptor atom, score
      L1  H     8    27       P1  7948  0.40
      P1  H  7989  7998       L1     3  1.00

> <Gold.PLP.Chemscore.Internal.Correction>
0.4249

> <Gold.Rescore>
     Score         DG    S(hbond)    S(metal)    S(lipo)     H(rot)  DE(clash)    DE(int)     intcor
     11.02     -12.98       1.34        0.00      60.96       1.61       0.06       1.90       ----

> <Gold.Chemscore.Fitness>
11.0208

> <Gold.Chemscore.DG>
-12.9764

> <Gold.Chemscore.ZeroCoef>
-5.4800

> <Gold.Chemscore.Hbond>
1.3423

> <Gold.Chemscore.Metal>
0.0000

> <Gold.Chemscore.Lipo>
60.9564

> <Gold.Chemscore.Internal_Hbond>
0.0000

> <Gold.Chemscore.DEClash>
0.0584

> <Gold.Chemscore.DEInternal>
1.8972

> <Gold.Chemscore.Rot>
1.6088

> <Gold.Chemscore.Internal.Correction>
   9.000000E+99

> <Gold.Chemscore.Hbonds>
donor molecule, donor type, donor heavy atom, donor atom, acceptor molecule, acceptor atom, score
      L1  H     8    27       P1  7948  0.38
      P1  H  7989  7998       L1     3  0.39

> <Gold.Chemscore.Hbond.Weighted>
-4.4832

> <Gold.Chemscore.Metal.Weighted>
-0.0000

> <Gold.Chemscore.Lipo.Weighted>
-7.1319

> <Gold.Chemscore.Internal_Hbond.Weighted>
0.0000

> <Gold.Chemscore.DEClash.Weighted>
0.0584

> <Gold.Chemscore.DEInternal.Weighted>
1.8972

> <Gold.Chemscore.Rot.Weighted>
4.1186

> <Gold.Chemscore.Internal.Correction.Weighted>
   9.000000E+99

> <Gold.Protein.RotatedTorsions>
[ 6907 6896 6895 6894 ] final  109.76 input  -60.11 | X-H torsion
[ 7974 7965 7964 7962 ] final -164.10 input  175.53 | X-H torsion
[ 8008 7997 7996 7995 ] final  123.71 input   59.86 | X-H torsion
[ 10167 10162 10161 10158 ] final  -45.02 input  -65.29 | X-H torsion
[ 10718 10713 10712 10709 ] final  -32.94 input   66.30 | X-H torsion
[ 10763 10752 10751 10750 ] final -108.40 input  -60.55 | X-H torsion
[ 11005 11000 10999 10996 ] final  102.41 input  -57.11 | X-H torsion

> <Gold.Protein.ActiveResidues>
 VAL166  LYS551  ARG553  GLY616  TRP617  ASP618  TYR619  PRO620  LYS621  CYS622 
 ASP623  PHE694  ASN695  SER759  ASP760  ASP761  ALA762  ILE779  LEU786  VAL792 
 PHE793  MET794  SER795  GLU796  ALA797  LYS798  CYS799  TRP800  GLU811  SER814 

> <Gold.Protein.RotatedAtoms>
  152.5052  133.8898  159.7387 H   0  0  0  0  0  0  0  0  0  0  0  0  # atno 6907 bound_to 6896
  150.9340  133.6725  159.2811 H   0  0  0  0  0  0  0  0  0  0  0  0  # atno 6908 bound_to 6896
  151.4060  135.0983  159.9623 H   0  0  0  0  0  0  0  0  0  0  0  0  # atno 6909 bound_to 6896
  144.7306  140.3011  143.6204 H   0  0  0  0  0  0  0  0  0  0  0  0  # atno 7974 bound_to 7965
  156.2775  140.2756  156.1671 H   0  0  0  0  0  0  0  0  0  0  0  0  # atno 8008 bound_to 7997
  155.0694  140.0387  157.2621 H   0  0  0  0  0  0  0  0  0  0  0  0  # atno 8009 bound_to 7997
  154.7053  140.2657  155.6686 H   0  0  0  0  0  0  0  0  0  0  0  0  # atno 8010 bound_to 7997
  140.6874  143.2900  151.3579 H   0  0  0  0  0  0  0  0  0  0  0  0  # atno 10167 bound_to 10162
  156.3688  130.4336  149.7563 H   0  0  0  0  0  0  0  0  0  0  0  0  # atno 10718 bound_to 10713
  154.8133  135.4639  154.0575 H   0  0  0  0  0  0  0  0  0  0  0  0  # atno 10763 bound_to 10752
  153.1988  135.6866  153.8264 H   0  0  0  0  0  0  0  0  0  0  0  0  # atno 10764 bound_to 10752
  153.7756  135.3264  155.3335 H   0  0  0  0  0  0  0  0  0  0  0  0  # atno 10765 bound_to 10752
  139.8777  134.9223  156.5054 H   0  0  0  0  0  0  0  0  0  0  0  0  # atno 11005 bound_to 11000
  145.7760  139.1874  143.2185 LP  0  0  0  0  0  0  0  0  0  0  0  0  # atno 17320 bound_to 7965
  146.0873  140.7696  142.9612 LP  0  0  0  0  0  0  0  0  0  0  0  0  # atno 17321 bound_to 7965
  139.6245  144.0841  152.2422 LP  0  0  0  0  0  0  0  0  0  0  0  0  # atno 17342 bound_to 10162
  140.0296  144.6091  150.7499 LP  0  0  0  0  0  0  0  0  0  0  0  0  # atno 17343 bound_to 10162
  156.4698  130.7991  151.3009 LP  0  0  0  0  0  0  0  0  0  0  0  0  # atno 17370 bound_to 10713
  157.7481  131.0039  150.3057 LP  0  0  0  0  0  0  0  0  0  0  0  0  # atno 17371 bound_to 10713
  140.8559  133.8096  155.9216 LP  0  0  0  0  0  0  0  0  0  0  0  0  # atno 17394 bound_to 11000
  140.9098  134.2275  157.4993 LP  0  0  0  0  0  0  0  0  0  0  0  0  # atno 17395 bound_to 11000

$$$$
