AV-unprocessed.smi:1569|AV-procd|sdf|6311|dock3
  -GOLD-   22720 6513D 1   1.00000     0.00000
 Structure written by MMmdl.
 33 34  0  0  0  0  0  0  0  0  1 V2000
  152.4219  143.9207  161.5794 C   0  0  0  0  0  0  0  0  0  0  0  0
  151.9399  143.7303  160.1826 C   0  0  0  0  0  0  0  0  0  0  0  0
  151.5410  142.5538  159.6925 N   0  0  0  0  0  0  0  0  0  0  0  0
  151.1610  142.6315  158.3492 C   0  0  0  0  0  0  0  0  0  0  0  0
  150.7265  141.3933  157.6188 C   0  0  0  0  0  0  0  0  0  0  0  0
  150.6302  141.5751  156.0904 C   0  0  0  0  0  0  0  0  0  0  0  0
  150.6189  140.2973  155.3802 N   0  0  0  0  0  0  0  0  0  0  0  0
  151.6723  139.4769  155.2408 C   0  0  0  0  0  0  0  0  0  0  0  0
  152.7682  139.6917  155.7607 O   0  0  0  0  0  0  0  0  0  0  0  0
  151.4452  138.2344  154.3707 C   0  0  0  0  0  0  0  0  0  0  0  0
  150.3694  137.3795  154.8793 N   0  0  0  0  0  0  0  0  0  0  0  0
  148.9898  137.8229  154.7090 C   0  0  0  0  0  0  0  0  0  0  0  0
  147.9355  136.3907  155.0465 S   0  0  0  0  0  0  0  0  0  0  0  0
  149.2647  135.4969  155.8699 C   0  0  0  0  0  0  0  0  0  0  0  0
  150.5584  136.1932  155.4832 C   0  0  0  0  0  0  0  0  0  0  0  0
  151.6543  135.6839  155.7146 O   0  0  0  0  0  0  0  0  0  0  0  0
  151.2571  143.9001  157.8324 C   0  0  0  0  0  0  0  0  0  0  0  0
  151.8509  145.0381  159.0098 S   0  0  0  0  0  0  0  0  0  0  0  0
  152.1260  143.0786  162.2059 H   0  0  0  0  0  0  0  0  0  0  0  0
  152.0000  144.8336  162.0000 H   0  0  0  0  0  0  0  0  0  0  0  0
  153.5091  143.9997  161.5883 H   0  0  0  0  0  0  0  0  0  0  0  0
  151.4122  140.5741  157.8375 H   0  0  0  0  0  0  0  0  0  0  0  0
  149.7558  141.0699  157.9961 H   0  0  0  0  0  0  0  0  0  0  0  0
  149.7422  142.1591  155.8431 H   0  0  0  0  0  0  0  0  0  0  0  0
  151.4808  142.1580  155.7367 H   0  0  0  0  0  0  0  0  0  0  0  0
  149.7549  140.0372  154.9272 H   0  0  0  0  0  0  0  0  0  0  0  0
  151.2373  138.5516  153.3476 H   0  0  0  0  0  0  0  0  0  0  0  0
  152.3669  137.6519  154.3281 H   0  0  0  0  0  0  0  0  0  0  0  0
  148.7675  138.6219  155.4167 H   0  0  0  0  0  0  0  0  0  0  0  0
  148.8104  138.1932  153.6998 H   0  0  0  0  0  0  0  0  0  0  0  0
  149.1317  135.5430  156.9508 H   0  0  0  0  0  0  0  0  0  0  0  0
  149.2714  134.4509  155.5621 H   0  0  0  0  0  0  0  0  0  0  0  0
  151.0291  144.2297  156.8300 H   0  0  0  0  0  0  0  0  0  0  0  0
  1  2  1  0  0  0  0
  1 19  1  0  0  0  0
  1 20  1  0  0  0  0
  1 21  1  0  0  0  0
  2 18  1  0  0  0  0
  2  3  2  0  0  0  0
  3  4  1  0  0  0  0
  4  5  1  0  0  0  0
  4 17  2  0  0  0  0
  5  6  1  0  0  0  0
  5 22  1  0  0  0  0
  5 23  1  0  0  0  0
  6  7  1  0  0  0  0
  6 24  1  0  0  0  0
  6 25  1  0  0  0  0
  7  8  1  0  0  0  0
  7 26  1  0  0  0  0
  8  9  2  0  0  0  0
  8 10  1  0  0  0  0
 10 11  1  0  0  0  0
 10 27  1  0  0  0  0
 10 28  1  0  0  0  0
 11 15  1  0  0  0  0
 11 12  1  0  0  0  0
 12 13  1  0  0  0  0
 12 29  1  0  0  0  0
 12 30  1  0  0  0  0
 13 14  1  0  0  0  0
 14 15  1  0  0  0  0
 14 31  1  0  0  0  0
 14 32  1  0  0  0  0
 15 16  2  0  0  0  0
 17 18  1  0  0  0  0
 17 33  1  0  0  0  0
M  END
> <s_m_source_file>
AV-unprocessed.smi

> <i_m_source_file_index>
1569

> <i_lp_mmshare_version>
43012

> <i_f3d_flags>
0

> <s_epik_input>
W0NIM11jMW5jKFtjSF1zMSlbQ0gyXVtDSDJdW05IXUMoPU8pW0NIMl1OMltDSDJdU1tDSDJdQzI9Tw==

> <s_epik_cmdline>
J2VwaWtfcHl0aG9uJywgJy1waCcsICc3LjAnLCAnLXRuJywgJzgnLCAnLW1hJywgJzIwMCcsICctbWV0YWxfYmluZGluZycsICctaW1hZScsICc8aW5maWxlLm1hZT4nLCAnLW9tYWUnLCAnPG91dGZpbGUubWFlPic=

> <r_epik_Ionization_Penalty>
0.00098942

> <r_epik_Ionization_Penalty_Charging>
0

> <r_epik_Ionization_Penalty_Neutral>
0.00098942

> <r_epik_State_Penalty>
0.00064447

> <r_epik_Charging_Adjusted_Penalty>
0.00064447

> <i_epik_Tot_Q>
0

> <i_epik_Tot_abs_Q>
0

> <r_epik_Metal_State_Penalty>
-0

> <b_epik_Metal_Only>
0

> <s_epik_Chemistry_Notes>
This compound contains an acetal/aminal-like group ( X-CH(R)-Y where X, Y are N, S, or O) that may be acid/base labile, releasing an aldehyde.

> <s_lp_Force_Field>
OPLS_2005

> <r_lp_Energy>
2.37506

> <b_lp_Chiralities_Consistent>
1

> <s_lp_Variant>
AV-unprocessed.smi:1569-1

> <Gold.Version>
5.8.1

> <Gold.Id.Protein>
6NUR|6NUR_protein|mol2

> <Gold.PLP.Fitness>
45.7439

> <Gold.PLP.PLP>
-37.6159

> <Gold.PLP.part.hbond>
-2.2151

> <Gold.PLP.part.metal>
0.0000

> <Gold.PLP.part.buried>
-5.1629

> <Gold.PLP.part.nonpolar>
-30.9036

> <Gold.PLP.part.repulsive>
0.1750

> <Gold.PLP.ligand.clash>
0.0000

> <Gold.PLP.ligand.torsion>
0.4223

> <Gold.PLP.Chemscore.Hbond>
2.0000

> <Gold.PLP.Chemscore.CHOScore>
0.9859

> <Gold.PLP.Chemscore.Metal>
0.0000

> <Gold.Chemscore.Hbonds>
donor molecule, donor type, donor heavy atom, donor atom, acceptor molecule, acceptor atom, score
      P1  H  7997  8008       L1     9  1.00
      P1  H 10752 10763       L1    16  1.00
      L1  C    17    33       P1  8028  1.00

> <Gold.PLP.Chemscore.Internal.Correction>
0.0150

> <Gold.Rescore>
     Score         DG    S(hbond)    S(metal)    S(lipo)     H(rot)  DE(clash)    DE(int)     intcor
     17.31     -17.75       2.00        0.00      89.89       1.92       0.03       0.42       ----

> <Gold.Chemscore.Fitness>
17.3083

> <Gold.Chemscore.DG>
-17.7515

> <Gold.Chemscore.ZeroCoef>
-5.4800

> <Gold.Chemscore.Hbond>
1.9981

> <Gold.Chemscore.Metal>
0.0000

> <Gold.Chemscore.Lipo>
89.8862

> <Gold.Chemscore.Internal_Hbond>
0.0000

> <Gold.Chemscore.DEClash>
0.0266

> <Gold.Chemscore.DEInternal>
0.4166

> <Gold.Chemscore.Rot>
1.9215

> <Gold.Chemscore.Internal.Correction>
   9.000000E+99

> <Gold.Chemscore.Hbonds>
donor molecule, donor type, donor heavy atom, donor atom, acceptor molecule, acceptor atom, score
      P1  H  7997  8008       L1     9  1.00
      P1  H 10752 10763       L1    16  0.96

> <Gold.Chemscore.Hbond.Weighted>
-6.6738

> <Gold.Chemscore.Metal.Weighted>
-0.0000

> <Gold.Chemscore.Lipo.Weighted>
-10.5167

> <Gold.Chemscore.Internal_Hbond.Weighted>
0.0000

> <Gold.Chemscore.DEClash.Weighted>
0.0266

> <Gold.Chemscore.DEInternal.Weighted>
0.4166

> <Gold.Chemscore.Rot.Weighted>
4.9190

> <Gold.Chemscore.Internal.Correction.Weighted>
   9.000000E+99

> <Gold.Protein.RotatedTorsions>
[ 6907 6896 6895 6894 ] final   -8.04 input  -60.11 | X-H torsion
[ 7974 7965 7964 7962 ] final -178.15 input  175.53 | X-H torsion
[ 8008 7997 7996 7995 ] final  -31.07 input   59.86 | X-H torsion
[ 10167 10162 10161 10158 ] final   86.83 input  -65.29 | X-H torsion
[ 10718 10713 10712 10709 ] final -157.49 input   66.30 | X-H torsion
[ 10763 10752 10751 10750 ] final   95.80 input  -60.55 | X-H torsion
[ 11005 11000 10999 10996 ] final    1.11 input  -57.11 | X-H torsion

> <Gold.Protein.ActiveResidues>
 VAL166  LYS551  ARG553  GLY616  TRP617  ASP618  TYR619  PRO620  LYS621  CYS622 
 ASP623  PHE694  ASN695  SER759  ASP760  ASP761  ALA762  ILE779  LEU786  VAL792 
 PHE793  MET794  SER795  GLU796  ALA797  LYS798  CYS799  TRP800  GLU811  SER814 

> <Gold.Protein.RotatedAtoms>
  151.4399  135.1019  159.9666 H   0  0  0  0  0  0  0  0  0  0  0  0  # atno 6907 bound_to 6896
  152.4926  133.8538  159.7226 H   0  0  0  0  0  0  0  0  0  0  0  0  # atno 6908 bound_to 6896
  150.9095  133.6956  159.2886 H   0  0  0  0  0  0  0  0  0  0  0  0  # atno 6909 bound_to 6896
  144.7130  140.0912  143.6421 H   0  0  0  0  0  0  0  0  0  0  0  0  # atno 7974 bound_to 7965
  154.4227  140.1774  156.1509 H   0  0  0  0  0  0  0  0  0  0  0  0  # atno 8008 bound_to 7997
  155.9916  140.3368  155.6734 H   0  0  0  0  0  0  0  0  0  0  0  0  # atno 8009 bound_to 7997
  155.6364  140.0675  157.2623 H   0  0  0  0  0  0  0  0  0  0  0  0  # atno 8010 bound_to 7997
  139.8835  144.6426  150.8817 H   0  0  0  0  0  0  0  0  0  0  0  0  # atno 10167 bound_to 10162
  156.5410  130.8563  151.2749 H   0  0  0  0  0  0  0  0  0  0  0  0  # atno 10718 bound_to 10713
  153.2574  135.4241  155.0859 H   0  0  0  0  0  0  0  0  0  0  0  0  # atno 10763 bound_to 10752
  154.8406  135.3440  154.6426 H   0  0  0  0  0  0  0  0  0  0  0  0  # atno 10764 bound_to 10752
  153.6847  135.7037  153.5164 H   0  0  0  0  0  0  0  0  0  0  0  0  # atno 10765 bound_to 10752
  140.6191  133.9678  155.8215 H   0  0  0  0  0  0  0  0  0  0  0  0  # atno 11005 bound_to 11000
  145.9618  139.2806  143.1151 LP  0  0  0  0  0  0  0  0  0  0  0  0  # atno 17320 bound_to 7965
  145.9212  140.9114  143.0404 LP  0  0  0  0  0  0  0  0  0  0  0  0  # atno 17321 bound_to 7965
  140.7740  143.3567  151.1908 LP  0  0  0  0  0  0  0  0  0  0  0  0  # atno 17342 bound_to 10162
  139.7174  143.9278  152.2972 LP  0  0  0  0  0  0  0  0  0  0  0  0  # atno 17343 bound_to 10162
  157.7405  130.9852  150.2383 LP  0  0  0  0  0  0  0  0  0  0  0  0  # atno 17370 bound_to 10713
  156.2971  130.3753  149.7785 LP  0  0  0  0  0  0  0  0  0  0  0  0  # atno 17371 bound_to 10713
  141.0755  134.0141  157.3464 LP  0  0  0  0  0  0  0  0  0  0  0  0  # atno 17394 bound_to 11000
  139.9161  135.0197  156.7885 LP  0  0  0  0  0  0  0  0  0  0  0  0  # atno 17395 bound_to 11000

$$$$
