AV-unprocessed.smi:2597|AV-procd|sdf|10170|dock1
  -GOLD-   2272014183D 1   1.00000     0.00000
 Structure written by MMmdl.
 31 32  0  0  0  0  0  0  0  0  2 V2000
  141.3499  138.8055  152.5534 N   0  3  0  0  0  0  0  0  0  0  0  0
  140.3245  138.6517  153.6030 C   0  0  1  0  0  0  0  0  0  0  0  0
  138.9058  138.8034  153.0171 C   0  0  0  0  0  0  0  0  0  0  0  0
  137.8333  138.6510  154.1074 C   0  0  0  0  0  0  0  0  0  0  0  0
  137.9742  137.3190  154.8603 C   0  0  0  0  0  0  0  0  0  0  0  0
  139.3878  137.1507  155.4485 C   0  0  0  0  0  0  0  0  0  0  0  0
  140.5186  137.3390  154.4101 C   0  0  1  0  0  0  0  0  0  0  0  0
  140.7271  136.1518  153.5792 N   0  0  0  0  0  0  0  0  0  0  0  0
  141.8328  135.8545  152.8073 C   0  0  0  0  0  0  0  0  0  0  0  0
  141.5138  134.6602  152.2266 C   0  0  0  0  0  0  0  0  0  0  0  0
  142.3093  133.8266  151.2692 C   0  0  0  0  0  0  0  0  0  0  0  0
  141.4160  133.4036  150.2618 O   0  0  0  0  0  0  0  0  0  0  0  0
  140.2483  134.2780  152.6649 N   0  0  0  0  0  0  0  0  0  0  0  0
  139.7899  135.1764  153.4767 N   0  0  0  0  0  0  0  0  0  0  0  0
  140.4759  139.4824  154.2937 H   0  0  0  0  0  0  0  0  0  0  0  0
  141.4412  137.4571  154.9809 H   0  0  0  0  0  0  0  0  0  0  0  0
  142.1861  139.2036  152.9569 H   0  0  0  0  0  0  0  0  0  0  0  0
  141.0032  139.4182  151.8292 H   0  0  0  0  0  0  0  0  0  0  0  0
  138.8032  139.7828  152.5485 H   0  0  0  0  0  0  0  0  0  0  0  0
  138.7316  138.0756  152.2252 H   0  0  0  0  0  0  0  0  0  0  0  0
  137.9141  139.4773  154.8148 H   0  0  0  0  0  0  0  0  0  0  0  0
  136.8398  138.7224  153.6637 H   0  0  0  0  0  0  0  0  0  0  0  0
  137.2382  137.2741  155.6636 H   0  0  0  0  0  0  0  0  0  0  0  0
  137.7359  136.4905  154.1945 H   0  0  0  0  0  0  0  0  0  0  0  0
  139.5184  137.8895  156.2404 H   0  0  0  0  0  0  0  0  0  0  0  0
  139.4777  136.1773  155.9324 H   0  0  0  0  0  0  0  0  0  0  0  0
  142.7057  136.4866  152.7347 H   0  0  0  0  0  0  0  0  0  0  0  0
  143.1199  134.4026  150.8228 H   0  0  0  0  0  0  0  0  0  0  0  0
  142.7483  132.9563  151.7582 H   0  0  0  0  0  0  0  0  0  0  0  0
  140.9697  134.1630  149.9194 H   0  0  0  0  0  0  0  0  0  0  0  0
  141.5655  137.9024  152.1559 H   0  0  0  0  0  0  0  0  0  0  0  0
  1  2  1  0  0  0  0
  1 17  1  0  0  0  0
  1 18  1  0  0  0  0
  1 31  1  0  0  0  0
  2 15  1  0  0  0  0
  2  7  1  0  0  0  0
  2  3  1  0  0  0  0
  3  4  1  0  0  0  0
  3 19  1  0  0  0  0
  3 20  1  0  0  0  0
  4  5  1  0  0  0  0
  4 21  1  0  0  0  0
  4 22  1  0  0  0  0
  5  6  1  0  0  0  0
  5 23  1  0  0  0  0
  5 24  1  0  0  0  0
  6  7  1  0  0  0  0
  6 25  1  0  0  0  0
  6 26  1  0  0  0  0
  7 16  1  0  0  0  0
  7  8  1  0  0  0  0
  8 14  1  0  0  0  0
  8  9  1  0  0  0  0
  9 10  2  0  0  0  0
  9 27  1  0  0  0  0
 10 11  1  0  0  0  0
 10 13  1  0  0  0  0
 11 12  1  0  0  0  0
 11 28  1  0  0  0  0
 11 29  1  0  0  0  0
 12 30  1  0  0  0  0
 13 14  2  0  0  0  0
M  CHG  1   1   1
M  END
> <s_m_source_file>
AV-unprocessed.smi

> <i_m_source_file_index>
2597

> <i_lp_mmshare_version>
43012

> <i_f3d_flags>
0

> <s_epik_input>
W05IMl1bQ0BIXTFbQ0gyXVtDSDJdW0NIMl1bQ0gyXVtDQEhdMW4yW2NIXWMobm4yKVtDSDJdW09IXQ==

> <s_epik_cmdline>
J2VwaWtfcHl0aG9uJywgJy1waCcsICc3LjAnLCAnLXRuJywgJzgnLCAnLW1hJywgJzIwMCcsICctbWV0YWxfYmluZGluZycsICctaW1hZScsICc8aW5maWxlLm1hZT4nLCAnLW9tYWUnLCAnPG91dGZpbGUubWFlPic=

> <r_lp_tautomer_probability>
1

> <r_epik_Ionization_Penalty>
0.014346

> <r_epik_Ionization_Penalty_Charging>
0.014316

> <r_epik_Ionization_Penalty_Neutral>
3.00097e-05

> <r_epik_State_Penalty>
0.0111909

> <r_epik_Charging_Adjusted_Penalty>
0.0255069

> <i_epik_Tot_Q>
1

> <i_epik_Tot_abs_Q>
1

> <r_epik_Metal_State_Penalty>
0.011192

> <b_epik_Metal_Only>
0

> <s_lp_Force_Field>
OPLS_2005

> <r_lp_Energy>
16.1833

> <b_lp_Chiralities_Consistent>
1

> <s_lp_Variant>
AV-unprocessed.smi:2597-1

> <Gold.Version>
5.8.1

> <Gold.Id.Protein>
6NUR|6NUR_protein|mol2

> <Gold.PLP.Fitness>
41.5426

> <Gold.PLP.PLP>
-27.5866

> <Gold.PLP.part.hbond>
-5.2671

> <Gold.PLP.part.metal>
0.0000

> <Gold.PLP.part.buried>
-4.0887

> <Gold.PLP.part.nonpolar>
-17.5827

> <Gold.PLP.part.repulsive>
0.5269

> <Gold.PLP.ligand.clash>
0.0000

> <Gold.PLP.ligand.torsion>
0.5305

> <Gold.PLP.Chemscore.Hbond>
4.9840

> <Gold.PLP.Chemscore.CHOScore>
0.0000

> <Gold.PLP.Chemscore.Metal>
0.0000

> <Gold.Chemscore.Hbonds>
donor molecule, donor type, donor heavy atom, donor atom, acceptor molecule, acceptor atom, score
      L1  H     1    17       P1 10175  1.54
      L1  H     1    18       P1 10160  1.00
      P1  H 10995 11001       L1    13  0.19
      P1  H 11000 11005       L1    14  0.01

> <Gold.PLP.Chemscore.Internal.Correction>
0.0650

> <Gold.Rescore>
     Score         DG    S(hbond)    S(metal)    S(lipo)     H(rot)  DE(clash)    DE(int)     intcor
     17.35     -18.34       3.52        0.00      49.99       1.86       0.17       0.82       ----

> <Gold.Chemscore.Fitness>
17.3496

> <Gold.Chemscore.DG>
-18.3393

> <Gold.Chemscore.ZeroCoef>
-5.4800

> <Gold.Chemscore.Hbond>
3.5208

> <Gold.Chemscore.Metal>
0.0000

> <Gold.Chemscore.Lipo>
49.9883

> <Gold.Chemscore.Internal_Hbond>
0.0000

> <Gold.Chemscore.DEClash>
0.1664

> <Gold.Chemscore.DEInternal>
0.8233

> <Gold.Chemscore.Rot>
1.8551

> <Gold.Chemscore.Internal.Correction>
   9.000000E+99

> <Gold.Chemscore.Hbonds>
donor molecule, donor type, donor heavy atom, donor atom, acceptor molecule, acceptor atom, score
      L1  H     1    17       P1 10175  0.73
      L1  H     1    18       P1 10160  0.94

> <Gold.Chemscore.Hbond.Weighted>
-11.7596

> <Gold.Chemscore.Metal.Weighted>
-0.0000

> <Gold.Chemscore.Lipo.Weighted>
-5.8486

> <Gold.Chemscore.Internal_Hbond.Weighted>
0.0000

> <Gold.Chemscore.DEClash.Weighted>
0.1664

> <Gold.Chemscore.DEInternal.Weighted>
0.8233

> <Gold.Chemscore.Rot.Weighted>
4.7489

> <Gold.Chemscore.Internal.Correction.Weighted>
   9.000000E+99

> <Gold.Protein.RotatedTorsions>
[ 6907 6896 6895 6894 ] final  -43.60 input  -60.11 | X-H torsion
[ 7974 7965 7964 7962 ] final  -63.81 input  175.53 | X-H torsion
[ 8008 7997 7996 7995 ] final  152.69 input   59.86 | X-H torsion
[ 10167 10162 10161 10158 ] final  120.39 input  -65.29 | X-H torsion
[ 10718 10713 10712 10709 ] final   72.53 input   66.30 | X-H torsion
[ 10763 10752 10751 10750 ] final -177.59 input  -60.55 | X-H torsion
[ 11005 11000 10999 10996 ] final   42.30 input  -57.11 | X-H torsion

> <Gold.Protein.ActiveResidues>
 VAL166  LYS551  ARG553  GLY616  TRP617  ASP618  TYR619  PRO620  LYS621  CYS622 
 ASP623  PHE694  ASN695  SER759  ASP760  ASP761  ALA762  ILE779  LEU786  VAL792 
 PHE793  MET794  SER795  GLU796  ALA797  LYS798  CYS799  TRP800  GLU811  SER814 

> <Gold.Protein.RotatedAtoms>
  150.9422  134.8830  159.7618 H   0  0  0  0  0  0  0  0  0  0  0  0  # atno 6907 bound_to 6896
  152.5085  134.3926  159.9399 H   0  0  0  0  0  0  0  0  0  0  0  0  # atno 6908 bound_to 6896
  151.3946  133.3737  159.2760 H   0  0  0  0  0  0  0  0  0  0  0  0  # atno 6909 bound_to 6896
  145.7744  140.8795  143.0363 H   0  0  0  0  0  0  0  0  0  0  0  0  # atno 7974 bound_to 7965
  156.2617  140.2014  156.6373 H   0  0  0  0  0  0  0  0  0  0  0  0  # atno 8008 bound_to 7997
  154.6636  140.0558  157.0114 H   0  0  0  0  0  0  0  0  0  0  0  0  # atno 8009 bound_to 7997
  155.1239  140.3227  155.4493 H   0  0  0  0  0  0  0  0  0  0  0  0  # atno 8010 bound_to 7997
  139.5985  144.7049  151.3118 H   0  0  0  0  0  0  0  0  0  0  0  0  # atno 10167 bound_to 10162
  157.6505  130.9583  150.0942 H   0  0  0  0  0  0  0  0  0  0  0  0  # atno 10718 bound_to 10713
  154.5582  135.2818  155.0944 H   0  0  0  0  0  0  0  0  0  0  0  0  # atno 10763 bound_to 10752
  154.2363  135.6365  153.5196 H   0  0  0  0  0  0  0  0  0  0  0  0  # atno 10764 bound_to 10752
  153.0022  135.5549  154.6169 H   0  0  0  0  0  0  0  0  0  0  0  0  # atno 10765 bound_to 10752
  140.1752  134.4172  155.8233 H   0  0  0  0  0  0  0  0  0  0  0  0  # atno 11005 bound_to 11000
  144.6807  139.9901  143.7484 LP  0  0  0  0  0  0  0  0  0  0  0  0  # atno 17320 bound_to 7965
  146.0137  139.3192  143.0855 LP  0  0  0  0  0  0  0  0  0  0  0  0  # atno 17321 bound_to 7965
  140.7231  143.7080  150.7792 LP  0  0  0  0  0  0  0  0  0  0  0  0  # atno 17342 bound_to 10162
  140.0651  143.5116  152.2608 LP  0  0  0  0  0  0  0  0  0  0  0  0  # atno 17343 bound_to 10162
  156.1882  130.3653  149.8944 LP  0  0  0  0  0  0  0  0  0  0  0  0  # atno 17370 bound_to 10713
  156.6879  130.8884  151.3584 LP  0  0  0  0  0  0  0  0  0  0  0  0  # atno 17371 bound_to 10713
  141.2220  133.6974  156.7833 LP  0  0  0  0  0  0  0  0  0  0  0  0  # atno 17394 bound_to 11000
  140.2331  134.8670  157.3497 LP  0  0  0  0  0  0  0  0  0  0  0  0  # atno 17395 bound_to 11000

$$$$
