AV-unprocessed.smi:2775|AV-procd|sdf|10698|dock6
  -GOLD-   2272015133D 1   1.00000     0.00000
 Structure written by MMmdl.
 43 46  0  0  0  0  0  0  0  0  2 V2000
  144.9728  131.4356  151.3681 C   0  0  0  0  0  0  0  0  0  0  0  0
  144.7084  132.8461  151.8589 C   0  0  0  0  0  0  0  0  0  0  0  0
  143.4211  133.2319  151.9995 N   0  3  0  0  0  0  0  0  0  0  0  0
  143.0645  134.4624  152.4221 C   0  0  0  0  0  0  0  0  0  0  0  0
  144.0555  135.4097  152.7453 C   0  0  0  0  0  0  0  0  0  0  0  0
  145.4233  135.0534  152.6302 C   0  0  0  0  0  0  0  0  0  0  0  0
  146.4953  135.9420  152.9205 N   0  0  0  0  0  0  0  0  0  0  0  0
  146.5290  137.0117  153.7385 C   0  0  0  0  0  0  0  0  0  0  0  0
  145.5785  137.4223  154.3999 O   0  0  0  0  0  0  0  0  0  0  0  0
  147.7282  137.6173  153.7886 N   0  0  0  0  0  0  0  0  0  0  0  0
  148.0935  138.7965  154.5754 C   0  0  2  0  0  0  0  0  0  0  0  0
  148.0957  140.0868  153.7344 C   0  0  1  0  0  0  0  0  0  0  0  0
  147.1283  141.1931  154.0596 C   0  0  0  0  0  0  0  0  0  0  0  0
  147.9741  142.1494  154.9047 C   0  0  0  0  0  0  0  0  0  0  0  0
  149.0251  141.3372  155.4228 O   0  0  0  0  0  0  0  0  0  0  0  0
  149.4261  140.4447  154.3877 C   0  0  1  0  0  0  0  0  0  0  0  0
  149.6087  138.9807  154.8060 C   0  0  0  0  0  0  0  0  0  0  0  0
  150.6754  138.1117  154.1126 C   0  0  0  0  0  0  0  0  0  0  0  0
  150.9307  137.4209  155.4549 C   0  0  0  0  0  0  0  0  0  0  0  0
  150.2618  138.6130  156.1458 C   0  0  0  0  0  0  0  0  0  0  0  0
  145.7484  133.7542  152.1669 C   0  0  0  0  0  0  0  0  0  0  0  0
  147.4030  133.2755  151.9816 Cl  0  0  0  0  0  0  0  0  0  0  0  0
  145.5723  130.8869  152.0953 H   0  0  0  0  0  0  0  0  0  0  0  0
  145.5143  131.4587  150.4220 H   0  0  0  0  0  0  0  0  0  0  0  0
  144.0434  130.8860  151.2135 H   0  0  0  0  0  0  0  0  0  0  0  0
  142.0030  134.6536  152.4847 H   0  0  0  0  0  0  0  0  0  0  0  0
  143.7426  136.3916  153.0637 H   0  0  0  0  0  0  0  0  0  0  0  0
  147.3771  135.6988  152.4925 H   0  0  0  0  0  0  0  0  0  0  0  0
  148.4607  137.2247  153.2146 H   0  0  0  0  0  0  0  0  0  0  0  0
  147.5193  138.9251  155.4956 H   0  0  0  0  0  0  0  0  0  0  0  0
  148.2206  139.8915  152.6677 H   0  0  0  0  0  0  0  0  0  0  0  0
  146.7358  141.6841  153.1688 H   0  0  0  0  0  0  0  0  0  0  0  0
  146.2822  140.8144  154.6337 H   0  0  0  0  0  0  0  0  0  0  0  0
  148.4063  142.9323  154.2797 H   0  0  0  0  0  0  0  0  0  0  0  0
  147.4027  142.6252  155.7017 H   0  0  0  0  0  0  0  0  0  0  0  0
  150.1685  140.8542  153.7014 H   0  0  0  0  0  0  0  0  0  0  0  0
  150.3193  137.4512  153.3222 H   0  0  0  0  0  0  0  0  0  0  0  0
  151.5359  138.6937  153.7795 H   0  0  0  0  0  0  0  0  0  0  0  0
  150.3685  136.4936  155.5678 H   0  0  0  0  0  0  0  0  0  0  0  0
  151.9841  137.2860  155.7022 H   0  0  0  0  0  0  0  0  0  0  0  0
  150.9812  139.3612  156.4818 H   0  0  0  0  0  0  0  0  0  0  0  0
  149.5619  138.3435  156.9370 H   0  0  0  0  0  0  0  0  0  0  0  0
  142.6847  132.5636  151.7714 H   0  0  0  0  0  0  0  0  0  0  0  0
  1  2  1  0  0  0  0
  1 23  1  0  0  0  0
  1 24  1  0  0  0  0
  1 25  1  0  0  0  0
  2 21  1  0  0  0  0
  2  3  2  0  0  0  0
  3  4  1  0  0  0  0
  3 43  1  0  0  0  0
  4  5  2  0  0  0  0
  4 26  1  0  0  0  0
  5  6  1  0  0  0  0
  5 27  1  0  0  0  0
  6  7  1  0  0  0  0
  6 21  2  0  0  0  0
  7  8  1  0  0  0  0
  7 28  1  0  0  0  0
  8  9  2  0  0  0  0
  8 10  1  0  0  0  0
 10 11  1  0  0  0  0
 10 29  1  0  0  0  0
 11 17  1  0  0  0  0
 11 12  1  0  0  0  0
 11 30  1  0  0  0  0
 12 16  1  0  0  0  0
 12 13  1  0  0  0  0
 12 31  1  0  0  0  0
 13 14  1  0  0  0  0
 13 32  1  0  0  0  0
 13 33  1  0  0  0  0
 14 15  1  0  0  0  0
 14 34  1  0  0  0  0
 14 35  1  0  0  0  0
 15 16  1  0  0  0  0
 16 17  1  0  0  0  0
 16 36  1  0  0  0  0
 17 20  1  0  0  0  0
 17 18  1  0  0  0  0
 18 19  1  0  0  0  0
 18 37  1  0  0  0  0
 18 38  1  0  0  0  0
 19 20  1  0  0  0  0
 19 39  1  0  0  0  0
 19 40  1  0  0  0  0
 20 41  1  0  0  0  0
 20 42  1  0  0  0  0
 21 22  1  0  0  0  0
M  CHG  1   3   1
M  END
> <s_m_source_file>
AV-unprocessed.smi

> <i_m_source_file_index>
2775

> <i_lp_mmshare_version>
43012

> <i_f3d_flags>
0

> <s_epik_input>
W0NIM11jMW5bY0hdW2NIXWMoYzFDbClbTkhdQyg9TylbTkhdW0NAQEhdMltDQEhdKFtDSDJdW0NIMl1PMylbQ0BASF0zQzI0W0NIMl1bQ0gyXVtDSDJdNA==

> <s_epik_cmdline>
J2VwaWtfcHl0aG9uJywgJy1waCcsICc3LjAnLCAnLXRuJywgJzgnLCAnLW1hJywgJzIwMCcsICctbWV0YWxfYmluZGluZycsICctaW1hZScsICc8aW5maWxlLm1hZT4nLCAnLW9tYWUnLCAnPG91dGZpbGUubWFlPic=

> <r_epik_Ionization_Penalty>
2.4104

> <r_epik_Ionization_Penalty_Charging>
2.41038

> <r_epik_Ionization_Penalty_Neutral>
1.9872e-05

> <r_epik_State_Penalty>
2.56896

> <r_epik_Charging_Adjusted_Penalty>
4.97934

> <i_epik_Tot_Q>
1

> <i_epik_Tot_abs_Q>
1

> <r_epik_Metal_State_Penalty>
2.57906

> <b_epik_Metal_Only>
0

> <s_lp_Force_Field>
OPLS_2005

> <r_lp_Energy>
60.4392

> <b_lp_Chiralities_Consistent>
1

> <s_lp_Variant>
AV-unprocessed.smi:2775-11

> <Gold.Version>
5.8.1

> <Gold.Id.Protein>
6NUR|6NUR_protein|mol2

> <Gold.PLP.Fitness>
36.5761

> <Gold.PLP.PLP>
-31.2015

> <Gold.PLP.part.hbond>
-2.2318

> <Gold.PLP.part.metal>
0.0000

> <Gold.PLP.part.buried>
-0.2691

> <Gold.PLP.part.nonpolar>
-27.9250

> <Gold.PLP.part.repulsive>
0.1996

> <Gold.PLP.ligand.clash>
0.0000

> <Gold.PLP.ligand.torsion>
0.4093

> <Gold.PLP.Chemscore.Hbond>
2.0000

> <Gold.PLP.Chemscore.CHOScore>
0.0000

> <Gold.PLP.Chemscore.Metal>
0.0000

> <Gold.Chemscore.Hbonds>
donor molecule, donor type, donor heavy atom, donor atom, acceptor molecule, acceptor atom, score
      L1  H     7    28       P1  7948  0.99
      L1  H    10    29       P1  7948  1.00

> <Gold.PLP.Chemscore.Internal.Correction>
0.1933

> <Gold.Rescore>
     Score         DG    S(hbond)    S(metal)    S(lipo)     H(rot)  DE(clash)    DE(int)     intcor
     16.89     -19.78       1.93        0.00      88.93       1.00       1.73       1.16       ----

> <Gold.Chemscore.Fitness>
16.8908

> <Gold.Chemscore.DG>
-19.7785

> <Gold.Chemscore.ZeroCoef>
-5.4800

> <Gold.Chemscore.Hbond>
1.9321

> <Gold.Chemscore.Metal>
0.0000

> <Gold.Chemscore.Lipo>
88.9330

> <Gold.Chemscore.Internal_Hbond>
0.0000

> <Gold.Chemscore.DEClash>
1.7293

> <Gold.Chemscore.DEInternal>
1.1585

> <Gold.Chemscore.Rot>
1.0000

> <Gold.Chemscore.Internal.Correction>
   9.000000E+99

> <Gold.Chemscore.Hbonds>
donor molecule, donor type, donor heavy atom, donor atom, acceptor molecule, acceptor atom, score
      L1  H     7    28       P1  7948  0.94
      L1  H    10    29       P1  7948  0.95

> <Gold.Chemscore.Hbond.Weighted>
-6.4534

> <Gold.Chemscore.Metal.Weighted>
-0.0000

> <Gold.Chemscore.Lipo.Weighted>
-10.4052

> <Gold.Chemscore.Internal_Hbond.Weighted>
0.0000

> <Gold.Chemscore.DEClash.Weighted>
1.7293

> <Gold.Chemscore.DEInternal.Weighted>
1.1585

> <Gold.Chemscore.Rot.Weighted>
2.5600

> <Gold.Chemscore.Internal.Correction.Weighted>
   9.000000E+99

> <Gold.Protein.RotatedTorsions>
[ 6907 6896 6895 6894 ] final -113.05 input  -60.11 | X-H torsion
[ 7974 7965 7964 7962 ] final  135.40 input  175.53 | X-H torsion
[ 8008 7997 7996 7995 ] final -103.36 input   59.86 | X-H torsion
[ 10167 10162 10161 10158 ] final -158.84 input  -65.29 | X-H torsion
[ 10718 10713 10712 10709 ] final -114.95 input   66.30 | X-H torsion
[ 10763 10752 10751 10750 ] final   98.32 input  -60.55 | X-H torsion
[ 11005 11000 10999 10996 ] final -167.07 input  -57.11 | X-H torsion

> <Gold.Protein.ActiveResidues>
 VAL166  LYS551  ARG553  GLY616  TRP617  ASP618  TYR619  PRO620  LYS621  CYS622 
 ASP623  PHE694  ASN695  SER759  ASP760  ASP761  ALA762  ILE779  LEU786  VAL792 
 PHE793  MET794  SER795  GLU796  ALA797  LYS798  CYS799  TRP800  GLU811  SER814 

> <Gold.Protein.RotatedAtoms>
  150.7802  133.9000  159.3338 H   0  0  0  0  0  0  0  0  0  0  0  0  # atno 6907 bound_to 6896
  151.6865  135.0951  160.0235 H   0  0  0  0  0  0  0  0  0  0  0  0  # atno 6908 bound_to 6896
  152.3850  133.6561  159.6227 H   0  0  0  0  0  0  0  0  0  0  0  0  # atno 6909 bound_to 6896
  144.9667  139.4650  143.5453 H   0  0  0  0  0  0  0  0  0  0  0  0  # atno 7974 bound_to 7965
  154.8698  140.0423  157.1717 H   0  0  0  0  0  0  0  0  0  0  0  0  # atno 8008 bound_to 7997
  154.8751  140.2964  155.5437 H   0  0  0  0  0  0  0  0  0  0  0  0  # atno 8009 bound_to 7997
  156.2999  140.2422  156.3746 H   0  0  0  0  0  0  0  0  0  0  0  0  # atno 8010 bound_to 7997
  139.6661  143.9827  152.2255 H   0  0  0  0  0  0  0  0  0  0  0  0  # atno 10167 bound_to 10162
  156.0863  130.6054  150.8842 H   0  0  0  0  0  0  0  0  0  0  0  0  # atno 10718 bound_to 10713
  153.2876  135.4152  155.1137 H   0  0  0  0  0  0  0  0  0  0  0  0  # atno 10763 bound_to 10752
  154.8510  135.3510  154.6026 H   0  0  0  0  0  0  0  0  0  0  0  0  # atno 10764 bound_to 10752
  153.6447  135.7055  153.5287 H   0  0  0  0  0  0  0  0  0  0  0  0  # atno 10765 bound_to 10752
  140.5573  134.5368  157.5136 H   0  0  0  0  0  0  0  0  0  0  0  0  # atno 11005 bound_to 11000
  146.3370  139.8853  142.8817 LP  0  0  0  0  0  0  0  0  0  0  0  0  # atno 17320 bound_to 7965
  145.2619  141.0080  143.3821 LP  0  0  0  0  0  0  0  0  0  0  0  0  # atno 17321 bound_to 7965
  139.9579  144.6577  150.8108 LP  0  0  0  0  0  0  0  0  0  0  0  0  # atno 17342 bound_to 10162
  140.7600  143.3140  151.2776 LP  0  0  0  0  0  0  0  0  0  0  0  0  # atno 17343 bound_to 10162
  157.5999  131.0941  150.8978 LP  0  0  0  0  0  0  0  0  0  0  0  0  # atno 17370 bound_to 10713
  156.9138  130.5290  149.5280 LP  0  0  0  0  0  0  0  0  0  0  0  0  # atno 17371 bound_to 10713
  139.9425  134.7761  156.0643 LP  0  0  0  0  0  0  0  0  0  0  0  0  # atno 17394 bound_to 11000
  141.1135  133.6635  156.3037 LP  0  0  0  0  0  0  0  0  0  0  0  0  # atno 17395 bound_to 11000

$$$$
