AV-unprocessed.smi:1218|AV-procd|sdf|5109|dock10
  -GOLD-   22720 4163D 1   1.00000     0.00000
 Structure written by MMmdl.
 45 46  0  0  0  0  0  0  0  0  2 V2000
  145.8139  139.3699  154.8353 C   0  0  0  0  0  0  0  0  0  0  0  0
  146.9797  138.6983  154.0900 C   0  0  0  0  0  0  0  0  0  0  0  0
  146.7039  138.6682  152.5793 C   0  0  0  0  0  0  0  0  0  0  0  0
  147.2572  137.2739  154.6182 C   0  0  0  0  0  0  0  0  0  0  0  0
  148.6623  136.8369  154.4142 N   0  3  2  0  0  0  0  0  0  0  0  0
  149.0422  135.6533  155.2247 C   0  0  0  0  0  0  0  0  0  0  0  0
  150.4953  135.2460  154.9319 C   0  0  0  0  0  0  0  0  0  0  0  0
  151.3563  136.3494  155.1794 O   0  0  0  0  0  0  0  0  0  0  0  0
  151.0676  137.4583  154.3335 C   0  0  2  0  0  0  0  0  0  0  0  0
  152.1118  138.5561  154.6028 C   0  0  0  0  0  0  0  0  0  0  0  0
  152.0515  139.0197  155.9840 N   0  0  0  0  0  0  0  0  0  0  0  0
  151.6299  140.2334  156.3702 C   0  0  0  0  0  0  0  0  0  0  0  0
  151.1955  141.0806  155.5898 O   0  0  0  0  0  0  0  0  0  0  0  0
  151.7392  140.5504  157.8613 C   0  0  0  0  0  0  0  0  0  0  0  0
  151.7846  141.9849  158.0788 N   0  0  0  0  0  0  0  0  0  0  0  0
  152.6159  142.6981  158.9175 C   0  0  0  0  0  0  0  0  0  0  0  0
  152.2832  144.0167  158.7938 C   0  0  0  0  0  0  0  0  0  0  0  0
  151.2223  144.0106  157.8454 C   0  0  0  0  0  0  0  0  0  0  0  0
  150.9239  142.7932  157.4210 N   0  0  0  0  0  0  0  0  0  0  0  0
  149.6327  137.9379  154.6240 C   0  0  0  0  0  0  0  0  0  0  0  0
  144.8905  138.8003  154.7236 H   0  0  0  0  0  0  0  0  0  0  0  0
  145.6314  140.3744  154.4522 H   0  0  0  0  0  0  0  0  0  0  0  0
  146.0210  139.4631  155.9015 H   0  0  0  0  0  0  0  0  0  0  0  0
  147.8675  139.3137  154.2320 H   0  0  0  0  0  0  0  0  0  0  0  0
  145.8192  138.0737  152.3484 H   0  0  0  0  0  0  0  0  0  0  0  0
  147.5453  138.2386  152.0347 H   0  0  0  0  0  0  0  0  0  0  0  0
  146.5410  139.6732  152.1884 H   0  0  0  0  0  0  0  0  0  0  0  0
  147.0233  137.2539  155.6839 H   0  0  0  0  0  0  0  0  0  0  0  0
  146.5878  136.5518  154.1479 H   0  0  0  0  0  0  0  0  0  0  0  0
  148.9282  135.8838  156.2852 H   0  0  0  0  0  0  0  0  0  0  0  0
  148.3856  134.8115  155.0084 H   0  0  0  0  0  0  0  0  0  0  0  0
  150.7901  134.4171  155.5756 H   0  0  0  0  0  0  0  0  0  0  0  0
  150.6069  134.9044  153.9014 H   0  0  0  0  0  0  0  0  0  0  0  0
  151.1352  137.1454  153.2898 H   0  0  0  0  0  0  0  0  0  0  0  0
  153.1159  138.1908  154.3812 H   0  0  0  0  0  0  0  0  0  0  0  0
  151.9403  139.4083  153.9447 H   0  0  0  0  0  0  0  0  0  0  0  0
  152.3961  138.3892  156.6940 H   0  0  0  0  0  0  0  0  0  0  0  0
  150.8782  140.1396  158.3902 H   0  0  0  0  0  0  0  0  0  0  0  0
  152.6304  140.0892  158.2909 H   0  0  0  0  0  0  0  0  0  0  0  0
  153.3651  142.2129  159.5258 H   0  0  0  0  0  0  0  0  0  0  0  0
  152.7299  144.8577  159.3031 H   0  0  0  0  0  0  0  0  0  0  0  0
  150.6635  144.8489  157.4564 H   0  0  0  0  0  0  0  0  0  0  0  0
  149.3870  138.7728  153.9661 H   0  0  0  0  0  0  0  0  0  0  0  0
  149.5550  138.3028  155.6496 H   0  0  0  0  0  0  0  0  0  0  0  0
  148.7432  136.5709  153.4429 H   0  0  0  0  0  0  0  0  0  0  0  0
  1  2  1  0  0  0  0
  1 21  1  0  0  0  0
  1 22  1  0  0  0  0
  1 23  1  0  0  0  0
  2  3  1  0  0  0  0
  2  4  1  0  0  0  0
  2 24  1  0  0  0  0
  3 25  1  0  0  0  0
  3 26  1  0  0  0  0
  3 27  1  0  0  0  0
  4  5  1  0  0  0  0
  4 28  1  0  0  0  0
  4 29  1  0  0  0  0
  5 20  1  0  0  0  0
  5  6  1  0  0  0  0
  5 45  1  0  0  0  0
  6  7  1  0  0  0  0
  6 30  1  0  0  0  0
  6 31  1  0  0  0  0
  7  8  1  0  0  0  0
  7 32  1  0  0  0  0
  7 33  1  0  0  0  0
  8  9  1  0  0  0  0
  9 10  1  0  0  0  0
  9 20  1  0  0  0  0
  9 34  1  0  0  0  0
 10 11  1  0  0  0  0
 10 35  1  0  0  0  0
 10 36  1  0  0  0  0
 11 12  1  0  0  0  0
 11 37  1  0  0  0  0
 12 13  2  0  0  0  0
 12 14  1  0  0  0  0
 14 15  1  0  0  0  0
 14 38  1  0  0  0  0
 14 39  1  0  0  0  0
 15 19  1  0  0  0  0
 15 16  1  0  0  0  0
 16 17  2  0  0  0  0
 16 40  1  0  0  0  0
 17 18  1  0  0  0  0
 17 41  1  0  0  0  0
 18 19  2  0  0  0  0
 18 42  1  0  0  0  0
 20 43  1  0  0  0  0
 20 44  1  0  0  0  0
M  CHG  1   5   1
M  END
> <s_m_source_file>
AV-unprocessed.smi

> <i_m_source_file_index>
1218

> <i_lp_mmshare_version>
43012

> <i_f3d_flags>
0

> <s_epik_input>
W0NIM11bQ0hdKFtDSDNdKVtDSDJdTjFbQ0gyXVtDSDJdT1tDQEhdKFtDSDJdMSlbQ0gyXVtOSF1DKD1PKVtDSDJdbjJbY0hdW2NIXVtjSF1uMg==

> <s_epik_cmdline>
J2VwaWtfcHl0aG9uJywgJy1waCcsICc3LjAnLCAnLXRuJywgJzgnLCAnLW1hJywgJzIwMCcsICctbWV0YWxfYmluZGluZycsICctaW1hZScsICc8aW5maWxlLm1hZT4nLCAnLW9tYWUnLCAnPG91dGZpbGUubWFlPic=

> <r_lp_tautomer_probability>
1

> <r_epik_Ionization_Penalty>
0.0995066

> <r_epik_Ionization_Penalty_Charging>
0.0994921

> <r_epik_Ionization_Penalty_Neutral>
1.44634e-05

> <r_epik_State_Penalty>
0.0895432

> <r_epik_Charging_Adjusted_Penalty>
0.189035

> <i_epik_Tot_Q>
1

> <i_epik_Tot_abs_Q>
1

> <r_epik_Metal_State_Penalty>
0.0895432

> <b_epik_Metal_Only>
0

> <s_lp_Force_Field>
OPLS_2005

> <r_lp_Energy>
17.6202

> <b_lp_Chiralities_Consistent>
1

> <s_lp_Variant>
AV-unprocessed.smi:1218-4

> <Gold.Version>
5.8.1

> <Gold.Id.Protein>
6NUR|6NUR_protein|mol2

> <Gold.PLP.Fitness>
47.2149

> <Gold.PLP.PLP>
-35.9123

> <Gold.PLP.part.hbond>
-3.0000

> <Gold.PLP.part.metal>
0.0000

> <Gold.PLP.part.buried>
-3.3447

> <Gold.PLP.part.nonpolar>
-30.3935

> <Gold.PLP.part.repulsive>
0.4135

> <Gold.PLP.ligand.clash>
0.0000

> <Gold.PLP.ligand.torsion>
0.9952

> <Gold.PLP.Chemscore.Hbond>
3.4810

> <Gold.PLP.Chemscore.CHOScore>
0.9197

> <Gold.PLP.Chemscore.Metal>
0.0000

> <Gold.Chemscore.Hbonds>
donor molecule, donor type, donor heavy atom, donor atom, acceptor molecule, acceptor atom, score
      L1  H     5    45       P1  7948  2.00
      P1  H  7989  7998       L1    13  0.45
      P1  H 10752 10765       L1     8  0.95
      L1  C    18    42       P1  8028  0.94

> <Gold.PLP.Chemscore.Internal.Correction>
0.0909

> <Gold.Rescore>
     Score         DG    S(hbond)    S(metal)    S(lipo)     H(rot)  DE(clash)    DE(int)     intcor
     14.46     -16.99       1.96        0.00      85.48       1.96       0.13       2.40       ----

> <Gold.Chemscore.Fitness>
14.4638

> <Gold.Chemscore.DG>
-16.9941

> <Gold.Chemscore.ZeroCoef>
-5.4800

> <Gold.Chemscore.Hbond>
1.9570

> <Gold.Chemscore.Metal>
0.0000

> <Gold.Chemscore.Lipo>
85.4838

> <Gold.Chemscore.Internal_Hbond>
0.0000

> <Gold.Chemscore.DEClash>
0.1348

> <Gold.Chemscore.DEInternal>
2.3956

> <Gold.Chemscore.Rot>
1.9624

> <Gold.Chemscore.Internal.Correction>
   9.000000E+99

> <Gold.Chemscore.Hbonds>
donor molecule, donor type, donor heavy atom, donor atom, acceptor molecule, acceptor atom, score
      L1  H     5    45       P1  7948  0.99
      P1  H  7989  7998       L1    13  0.45
      P1  H 10752 10765       L1     8  0.16

> <Gold.Chemscore.Hbond.Weighted>
-6.5362

> <Gold.Chemscore.Metal.Weighted>
-0.0000

> <Gold.Chemscore.Lipo.Weighted>
-10.0016

> <Gold.Chemscore.Internal_Hbond.Weighted>
0.0000

> <Gold.Chemscore.DEClash.Weighted>
0.1348

> <Gold.Chemscore.DEInternal.Weighted>
2.3956

> <Gold.Chemscore.Rot.Weighted>
5.0237

> <Gold.Chemscore.Internal.Correction.Weighted>
   9.000000E+99

> <Gold.Protein.RotatedTorsions>
[ 6907 6896 6895 6894 ] final  174.65 input  -60.11 | X-H torsion
[ 7974 7965 7964 7962 ] final   13.33 input  175.53 | X-H torsion
[ 8008 7997 7996 7995 ] final  144.85 input   59.86 | X-H torsion
[ 10167 10162 10161 10158 ] final   88.53 input  -65.29 | X-H torsion
[ 10718 10713 10712 10709 ] final   25.96 input   66.30 | X-H torsion
[ 10763 10752 10751 10750 ] final -174.63 input  -60.55 | X-H torsion
[ 11005 11000 10999 10996 ] final -107.19 input  -57.11 | X-H torsion

> <Gold.Protein.ActiveResidues>
 VAL166  LYS551  ARG553  GLY616  TRP617  ASP618  TYR619  PRO620  LYS621  CYS622 
 ASP623  PHE694  ASN695  SER759  ASP760  ASP761  ALA762  ILE779  LEU786  VAL792 
 PHE793  MET794  SER795  GLU796  ALA797  LYS798  CYS799  TRP800  GLU811  SER814 

> <Gold.Protein.RotatedAtoms>
  151.7489  133.3326  159.3385 H   0  0  0  0  0  0  0  0  0  0  0  0  # atno 6907 bound_to 6896
  150.7543  134.6210  159.6145 H   0  0  0  0  0  0  0  0  0  0  0  0  # atno 6908 bound_to 6896
  152.3481  134.7045  160.0296 H   0  0  0  0  0  0  0  0  0  0  0  0  # atno 6909 bound_to 6896
  146.2332  139.9205  142.8511 H   0  0  0  0  0  0  0  0  0  0  0  0  # atno 7974 bound_to 7965
  156.2898  140.2225  156.5120 H   0  0  0  0  0  0  0  0  0  0  0  0  # atno 8008 bound_to 7997
  154.7600  140.0474  157.0987 H   0  0  0  0  0  0  0  0  0  0  0  0  # atno 8009 bound_to 7997
  155.0002  140.3101  155.4873 H   0  0  0  0  0  0  0  0  0  0  0  0  # atno 8010 bound_to 7997
  139.8663  144.6517  150.9000 H   0  0  0  0  0  0  0  0  0  0  0  0  # atno 10167 bound_to 10162
  157.2003  130.6887  149.6186 H   0  0  0  0  0  0  0  0  0  0  0  0  # atno 10718 bound_to 10713
  154.5940  135.2848  155.0606 H   0  0  0  0  0  0  0  0  0  0  0  0  # atno 10763 bound_to 10752
  154.1896  135.6443  153.5060 H   0  0  0  0  0  0  0  0  0  0  0  0  # atno 10764 bound_to 10752
  153.0131  135.5443  154.6635 H   0  0  0  0  0  0  0  0  0  0  0  0  # atno 10765 bound_to 10752
  141.0967  133.8959  157.1946 H   0  0  0  0  0  0  0  0  0  0  0  0  # atno 11005 bound_to 11000
  145.2141  140.9908  143.4083 LP  0  0  0  0  0  0  0  0  0  0  0  0  # atno 17320 bound_to 7965
  144.9666  139.3924  143.6330 LP  0  0  0  0  0  0  0  0  0  0  0  0  # atno 17321 bound_to 7965
  140.7767  143.3701  151.1665 LP  0  0  0  0  0  0  0  0  0  0  0  0  # atno 17342 bound_to 10162
  139.7326  143.9049  152.3024 LP  0  0  0  0  0  0  0  0  0  0  0  0  # atno 17343 bound_to 10162
  155.9701  130.4585  150.6001 LP  0  0  0  0  0  0  0  0  0  0  0  0  # atno 17370 bound_to 10713
  157.3773  131.0775  151.1507 LP  0  0  0  0  0  0  0  0  0  0  0  0  # atno 17371 bound_to 10713
  139.9805  135.0099  156.9738 LP  0  0  0  0  0  0  0  0  0  0  0  0  # atno 17394 bound_to 11000
  140.5124  134.0989  155.7273 LP  0  0  0  0  0  0  0  0  0  0  0  0  # atno 17395 bound_to 11000

$$$$
