AV-unprocessed.smi:186|AV-procd|sdf|1467|dock1
  -GOLD-   2262019283D 1   1.00000     0.00000
 Structure written by MMmdl.
 48 51  0  0  0  0  0  0  0  0  1 V2000
  150.8582  138.2162  154.2620 C   0  0  0  0  0  0  0  0  0  0  0  0
  150.2150  137.0513  154.7481 O   0  0  0  0  0  0  0  0  0  0  0  0
  151.0926  136.2149  155.4864 C   0  0  0  0  0  0  0  0  0  0  0  0
  150.3834  134.9059  155.8377 C   0  0  0  0  0  0  0  0  0  0  0  0
  149.3584  134.9067  156.5203 O   0  0  0  0  0  0  0  0  0  0  0  0
  150.9478  133.7866  155.3621 N   0  0  0  0  0  0  0  0  0  0  0  0
  150.4277  132.4431  155.5813 C   0  0  0  0  0  0  0  0  0  0  0  0
  150.3992  131.5747  154.3208 C   0  0  0  0  0  0  0  0  0  0  0  0
  149.0977  131.1300  154.8048 N   0  0  0  0  0  0  0  0  0  0  0  0
  148.1386  130.8248  153.7977 C   0  0  0  0  0  0  0  0  0  0  0  0
  147.6828  129.5494  153.6725 N   0  0  0  0  0  0  0  0  0  0  0  0
  146.7908  129.2239  152.7327 C   0  0  0  0  0  0  0  0  0  0  0  0
  146.2328  130.0054  151.8086 N   0  0  0  0  0  0  0  0  0  0  0  0
  146.6979  131.2827  151.9024 C   0  0  0  0  0  0  0  0  0  0  0  0
  147.6363  131.7702  152.8567 C   0  0  0  0  0  0  0  0  0  0  0  0
  147.8623  133.1248  152.6412 N   0  0  0  0  0  0  0  0  0  0  0  0
  147.0993  133.4208  151.6249 C   0  0  0  0  0  0  0  0  0  0  0  0
  146.3757  132.3700  151.1083 N   0  0  0  0  0  0  0  0  0  0  0  0
  145.4559  132.4126  149.9808 C   0  0  0  0  0  0  0  0  0  0  0  0
  144.1422  133.1874  150.2596 C   0  0  2  0  0  0  0  0  0  0  0  0
  143.2738  133.0535  149.1495 O   0  0  0  0  0  0  0  0  0  0  0  0
  144.3420  134.6754  150.5605 C   0  0  0  0  0  0  0  0  0  0  0  0
  144.2350  134.7398  152.0774 C   0  0  0  0  0  0  0  0  0  0  0  0
  143.2078  133.8037  152.3481 O   0  0  0  0  0  0  0  0  0  0  0  0
  143.4362  132.6653  151.5275 C   0  0  0  0  0  0  0  0  0  0  0  0
  148.9012  132.3766  155.5389 C   0  0  0  0  0  0  0  0  0  0  0  0
  150.1447  138.8248  153.7066 H   0  0  0  0  0  0  0  0  0  0  0  0
  151.6782  137.9612  153.5894 H   0  0  0  0  0  0  0  0  0  0  0  0
  151.2514  138.8205  155.0805 H   0  0  0  0  0  0  0  0  0  0  0  0
  151.9872  135.9971  154.9006 H   0  0  0  0  0  0  0  0  0  0  0  0
  151.4044  136.7100  156.4074 H   0  0  0  0  0  0  0  0  0  0  0  0
  151.7895  133.8704  154.8110 H   0  0  0  0  0  0  0  0  0  0  0  0
  150.8515  131.9304  156.4484 H   0  0  0  0  0  0  0  0  0  0  0  0
  150.3420  132.1436  153.3904 H   0  0  0  0  0  0  0  0  0  0  0  0
  151.1580  130.7924  154.2935 H   0  0  0  0  0  0  0  0  0  0  0  0
  146.4828  128.1891  152.7174 H   0  0  0  0  0  0  0  0  0  0  0  0
  147.0489  134.4202  151.2177 H   0  0  0  0  0  0  0  0  0  0  0  0
  145.9802  132.8593  149.1349 H   0  0  0  0  0  0  0  0  0  0  0  0
  145.2300  131.3857  149.6896 H   0  0  0  0  0  0  0  0  0  0  0  0
  142.5760  133.6845  149.2368 H   0  0  0  0  0  0  0  0  0  0  0  0
  145.2790  135.0897  150.1926 H   0  0  0  0  0  0  0  0  0  0  0  0
  143.5346  135.2699  150.1292 H   0  0  0  0  0  0  0  0  0  0  0  0
  145.1643  134.4206  152.5519 H   0  0  0  0  0  0  0  0  0  0  0  0
  143.9810  135.7353  152.4418 H   0  0  0  0  0  0  0  0  0  0  0  0
  142.4981  132.1483  151.3205 H   0  0  0  0  0  0  0  0  0  0  0  0
  144.0748  131.9720  152.0770 H   0  0  0  0  0  0  0  0  0  0  0  0
  148.4238  132.2505  156.5110 H   0  0  0  0  0  0  0  0  0  0  0  0
  148.4441  133.1681  154.9414 H   0  0  0  0  0  0  0  0  0  0  0  0
  1  2  1  0  0  0  0
  1 27  1  0  0  0  0
  1 28  1  0  0  0  0
  1 29  1  0  0  0  0
  2  3  1  0  0  0  0
  3  4  1  0  0  0  0
  3 30  1  0  0  0  0
  3 31  1  0  0  0  0
  4  5  2  0  0  0  0
  4  6  1  0  0  0  0
  6  7  1  0  0  0  0
  6 32  1  0  0  0  0
  7 26  1  0  0  0  0
  7  8  1  0  0  0  0
  7 33  1  0  0  0  0
  8  9  1  0  0  0  0
  8 34  1  0  0  0  0
  8 35  1  0  0  0  0
  9 10  1  0  0  0  0
  9 26  1  0  0  0  0
 10 15  1  0  0  0  0
 10 11  2  0  0  0  0
 11 12  1  0  0  0  0
 12 13  2  0  0  0  0
 12 36  1  0  0  0  0
 13 14  1  0  0  0  0
 14 18  1  0  0  0  0
 14 15  2  0  0  0  0
 15 16  1  0  0  0  0
 16 17  2  0  0  0  0
 17 18  1  0  0  0  0
 17 37  1  0  0  0  0
 18 19  1  0  0  0  0
 19 20  1  0  0  0  0
 19 38  1  0  0  0  0
 19 39  1  0  0  0  0
 20 25  1  0  0  0  0
 20 21  1  0  0  0  0
 20 22  1  0  0  0  0
 21 40  1  0  0  0  0
 22 23  1  0  0  0  0
 22 41  1  0  0  0  0
 22 42  1  0  0  0  0
 23 24  1  0  0  0  0
 23 43  1  0  0  0  0
 23 44  1  0  0  0  0
 24 25  1  0  0  0  0
 25 45  1  0  0  0  0
 25 46  1  0  0  0  0
 26 47  1  0  0  0  0
 26 48  1  0  0  0  0
M  END
> <s_m_source_file>
AV-unprocessed.smi

> <i_m_source_file_index>
186

> <i_lp_mmshare_version>
43012

> <i_f3d_flags>
0

> <s_epik_input>
W0NIM11PW0NIMl1DKD1PKVtOSF1bQ0hdMVtDSDJdTihbQ0gyXTEpYyhuW2NIXW4yKWMoYzIzKW5bY0hdbjNbQ0gyXVtDQEBdNChbT0hdKVtDSDJdW0NIMl1PW0NIMl00

> <s_epik_cmdline>
J2VwaWtfcHl0aG9uJywgJy1waCcsICc3LjAnLCAnLXRuJywgJzgnLCAnLW1hJywgJzIwMCcsICctbWV0YWxfYmluZGluZycsICctaW1hZScsICc8aW5maWxlLm1hZT4nLCAnLW9tYWUnLCAnPG91dGZpbGUubWFlPic=

> <r_lp_tautomer_probability>
1

> <r_epik_Ionization_Penalty>
0.00138671

> <r_epik_Ionization_Penalty_Charging>
0

> <r_epik_Ionization_Penalty_Neutral>
0.00138671

> <r_epik_State_Penalty>
0.000746021

> <r_epik_Charging_Adjusted_Penalty>
0.000746021

> <i_epik_Tot_Q>
0

> <i_epik_Tot_abs_Q>
0

> <r_epik_Metal_State_Penalty>
-0

> <b_epik_Metal_Only>
0

> <s_lp_Force_Field>
OPLS_2005

> <r_lp_Energy>
43.6542

> <b_lp_Chiralities_Consistent>
1

> <s_lp_Variant>
AV-unprocessed.smi:186-2

> <Gold.Version>
5.8.1

> <Gold.Id.Protein>
6NUR|6NUR_protein|mol2

> <Gold.PLP.Fitness>
42.1294

> <Gold.PLP.PLP>
-37.8663

> <Gold.PLP.part.hbond>
-1.0000

> <Gold.PLP.part.metal>
0.0000

> <Gold.PLP.part.buried>
-6.6656

> <Gold.PLP.part.nonpolar>
-30.9051

> <Gold.PLP.part.repulsive>
0.9327

> <Gold.PLP.ligand.clash>
0.0000

> <Gold.PLP.ligand.torsion>
0.6230

> <Gold.PLP.Chemscore.Hbond>
1.0000

> <Gold.PLP.Chemscore.CHOScore>
0.6488

> <Gold.PLP.Chemscore.Metal>
0.0000

> <Gold.Chemscore.Hbonds>
donor molecule, donor type, donor heavy atom, donor atom, acceptor molecule, acceptor atom, score
      L1  H    21    40       P1 10186  1.00
      L1  C    17    37       P1  7948  0.57

> <Gold.PLP.Chemscore.Internal.Correction>
0.5628

> <Gold.Rescore>
     Score         DG    S(hbond)    S(metal)    S(lipo)     H(rot)  DE(clash)    DE(int)     intcor
      6.85     -10.19       1.37        0.00      74.59       3.36       0.53       2.82       ----

> <Gold.Chemscore.Fitness>
6.8484

> <Gold.Chemscore.DG>
-10.1925

> <Gold.Chemscore.ZeroCoef>
-5.4800

> <Gold.Chemscore.Hbond>
1.3750

> <Gold.Chemscore.Metal>
0.0000

> <Gold.Chemscore.Lipo>
74.5882

> <Gold.Chemscore.Internal_Hbond>
0.0000

> <Gold.Chemscore.DEClash>
0.5252

> <Gold.Chemscore.DEInternal>
2.8188

> <Gold.Chemscore.Rot>
3.3620

> <Gold.Chemscore.Internal.Correction>
   9.000000E+99

> <Gold.Chemscore.Hbonds>
donor molecule, donor type, donor heavy atom, donor atom, acceptor molecule, acceptor atom, score
      L1  H    21    40       P1 10186  1.00

> <Gold.Chemscore.Hbond.Weighted>
-4.5924

> <Gold.Chemscore.Metal.Weighted>
-0.0000

> <Gold.Chemscore.Lipo.Weighted>
-8.7268

> <Gold.Chemscore.Internal_Hbond.Weighted>
0.0000

> <Gold.Chemscore.DEClash.Weighted>
0.5252

> <Gold.Chemscore.DEInternal.Weighted>
2.8188

> <Gold.Chemscore.Rot.Weighted>
8.6067

> <Gold.Chemscore.Internal.Correction.Weighted>
   9.000000E+99

> <Gold.Protein.RotatedTorsions>
[ 6907 6896 6895 6894 ] final  102.66 input  -60.11 | X-H torsion
[ 7974 7965 7964 7962 ] final  128.12 input  175.53 | X-H torsion
[ 8008 7997 7996 7995 ] final -114.22 input   59.86 | X-H torsion
[ 10167 10162 10161 10158 ] final  142.68 input  -65.29 | X-H torsion
[ 10718 10713 10712 10709 ] final  -53.22 input   66.30 | X-H torsion
[ 10763 10752 10751 10750 ] final -167.53 input  -60.55 | X-H torsion
[ 11005 11000 10999 10996 ] final  155.13 input  -57.11 | X-H torsion

> <Gold.Protein.ActiveResidues>
 VAL166  LYS551  ARG553  GLY616  TRP617  ASP618  TYR619  PRO620  LYS621  CYS622 
 ASP623  PHE694  ASN695  SER759  ASP760  ASP761  ALA762  ILE779  LEU786  VAL792 
 PHE793  MET794  SER795  GLU796  ALA797  LYS798  CYS799  TRP800  GLU811  SER814 

> <Gold.Protein.RotatedAtoms>
  152.5317  133.9942  159.7864 H   0  0  0  0  0  0  0  0  0  0  0  0  # atno 6907 bound_to 6896
  151.0173  133.5901  159.2682 H   0  0  0  0  0  0  0  0  0  0  0  0  # atno 6908 bound_to 6896
  151.2954  135.0760  159.9273 H   0  0  0  0  0  0  0  0  0  0  0  0  # atno 6909 bound_to 6896
  145.0430  139.3947  143.5092 H   0  0  0  0  0  0  0  0  0  0  0  0  # atno 7974 bound_to 7965
  155.0330  140.0393  157.2481 H   0  0  0  0  0  0  0  0  0  0  0  0  # atno 8008 bound_to 7997
  154.7281  140.2725  155.6457 H   0  0  0  0  0  0  0  0  0  0  0  0  # atno 8009 bound_to 7997
  156.2834  140.2689  156.1972 H   0  0  0  0  0  0  0  0  0  0  0  0  # atno 8010 bound_to 7997
  139.4988  144.6091  151.6313 H   0  0  0  0  0  0  0  0  0  0  0  0  # atno 10167 bound_to 10162
  156.1554  130.4150  149.9878 H   0  0  0  0  0  0  0  0  0  0  0  0  # atno 10718 bound_to 10713
  154.6722  135.2941  154.9726 H   0  0  0  0  0  0  0  0  0  0  0  0  # atno 10763 bound_to 10752
  154.0749  135.6613  153.4833 H   0  0  0  0  0  0  0  0  0  0  0  0  # atno 10764 bound_to 10752
  153.0494  135.5183  154.7724 H   0  0  0  0  0  0  0  0  0  0  0  0  # atno 10765 bound_to 10752
  140.1553  134.8647  157.2506 H   0  0  0  0  0  0  0  0  0  0  0  0  # atno 11005 bound_to 11000
  146.3511  140.0041  142.8673 LP  0  0  0  0  0  0  0  0  0  0  0  0  # atno 17320 bound_to 7965
  145.1623  140.9679  143.4370 LP  0  0  0  0  0  0  0  0  0  0  0  0  # atno 17321 bound_to 7965
  140.5760  144.0027  150.6242 LP  0  0  0  0  0  0  0  0  0  0  0  0  # atno 17342 bound_to 10162
  140.3161  143.3167  152.0831 LP  0  0  0  0  0  0  0  0  0  0  0  0  # atno 17343 bound_to 10162
  156.7723  130.9191  151.3644 LP  0  0  0  0  0  0  0  0  0  0  0  0  # atno 17370 bound_to 10713
  157.6690  130.9034  149.9998 LP  0  0  0  0  0  0  0  0  0  0  0  0  # atno 17371 bound_to 10713
  140.2555  134.3633  155.7426 LP  0  0  0  0  0  0  0  0  0  0  0  0  # atno 17394 bound_to 11000
  141.2203  133.7340  156.9000 LP  0  0  0  0  0  0  0  0  0  0  0  0  # atno 17395 bound_to 11000

$$$$
