AV-unprocessed.smi:1043|AV-procd|sdf|4541|dock2
  -GOLD-   22720 2563D 1   1.00000     0.00000
 Structure written by MMmdl.
 34 35  0  0  0  0  0  0  0  0  2 V2000
  149.7999  139.9113  154.3500 C   0  0  0  0  0  0  0  0  0  0  0  0
  148.7281  140.7987  155.0252 C   0  0  0  0  0  0  0  0  0  0  0  0
  149.3908  141.8952  155.7477 N   0  0  0  0  0  0  0  0  0  0  0  0
  150.3645  141.8365  156.6718 C   0  0  0  0  0  0  0  0  0  0  0  0
  150.8199  140.7490  157.0322 O   0  0  0  0  0  0  0  0  0  0  0  0
  150.7605  143.0522  157.1127 N   0  5  0  0  0  0  0  0  0  0  0  0
  151.3597  143.1697  158.3089 C   0  0  0  0  0  0  0  0  0  0  0  0
  151.2838  142.2138  159.2486 N   0  0  0  0  0  0  0  0  0  0  0  0
  151.9693  142.5371  160.4121 N   0  0  0  0  0  0  0  0  0  0  0  0
  152.5389  143.7386  160.3225 C   0  0  0  0  0  0  0  0  0  0  0  0
  152.2904  144.5843  158.8100 S   0  0  0  0  0  0  0  0  0  0  0  0
  147.7318  141.3025  153.9403 C   0  0  0  0  0  0  0  0  0  0  0  0
  146.8594  142.5396  154.2511 C   0  0  0  0  0  0  0  0  0  0  0  0
  146.2497  142.6479  155.6594 C   0  0  0  0  0  0  0  0  0  0  0  0
  145.8218  141.3188  156.2959 C   0  0  0  0  0  0  0  0  0  0  0  0
  146.9843  140.5958  156.9945 C   0  0  0  0  0  0  0  0  0  0  0  0
  147.9825  139.9027  156.0497 C   0  0  0  0  0  0  0  0  0  0  0  0
  149.3478  139.0402  153.8745 H   0  0  0  0  0  0  0  0  0  0  0  0
  150.5298  139.5470  155.0740 H   0  0  0  0  0  0  0  0  0  0  0  0
  150.3514  140.4443  153.5755 H   0  0  0  0  0  0  0  0  0  0  0  0
  149.0755  142.8229  155.5057 H   0  0  0  0  0  0  0  0  0  0  0  0
  153.1073  144.1304  161.1526 H   0  0  0  0  0  0  0  0  0  0  0  0
  148.2812  141.5298  153.0257 H   0  0  0  0  0  0  0  0  0  0  0  0
  147.0761  140.4774  153.6600 H   0  0  0  0  0  0  0  0  0  0  0  0
  147.4361  143.4455  154.0616 H   0  0  0  0  0  0  0  0  0  0  0  0
  146.0504  142.5625  153.5201 H   0  0  0  0  0  0  0  0  0  0  0  0
  146.9475  143.1594  156.3235 H   0  0  0  0  0  0  0  0  0  0  0  0
  145.3832  143.3072  155.5991 H   0  0  0  0  0  0  0  0  0  0  0  0
  145.0675  141.5382  157.0525 H   0  0  0  0  0  0  0  0  0  0  0  0
  145.3339  140.6719  155.5662 H   0  0  0  0  0  0  0  0  0  0  0  0
  147.5079  141.2851  157.6580 H   0  0  0  0  0  0  0  0  0  0  0  0
  146.5635  139.8322  157.6489 H   0  0  0  0  0  0  0  0  0  0  0  0
  147.4644  139.1008  155.5220 H   0  0  0  0  0  0  0  0  0  0  0  0
  148.7201  139.3995  156.6769 H   0  0  0  0  0  0  0  0  0  0  0  0
  1  2  1  0  0  0  0
  1 18  1  0  0  0  0
  1 19  1  0  0  0  0
  1 20  1  0  0  0  0
  2 17  1  0  0  0  0
  2  3  1  0  0  0  0
  2 12  1  0  0  0  0
  3  4  1  0  0  0  0
  3 21  1  0  0  0  0
  4  5  2  0  0  0  0
  4  6  1  0  0  0  0
  6  7  1  0  0  0  0
  7 11  1  0  0  0  0
  7  8  2  0  0  0  0
  8  9  1  0  0  0  0
  9 10  2  0  0  0  0
 10 11  1  0  0  0  0
 10 22  1  0  0  0  0
 12 13  1  0  0  0  0
 12 23  1  0  0  0  0
 12 24  1  0  0  0  0
 13 14  1  0  0  0  0
 13 25  1  0  0  0  0
 13 26  1  0  0  0  0
 14 15  1  0  0  0  0
 14 27  1  0  0  0  0
 14 28  1  0  0  0  0
 15 16  1  0  0  0  0
 15 29  1  0  0  0  0
 15 30  1  0  0  0  0
 16 17  1  0  0  0  0
 16 31  1  0  0  0  0
 16 32  1  0  0  0  0
 17 33  1  0  0  0  0
 17 34  1  0  0  0  0
M  CHG  1   6  -1
M  END
> <s_m_source_file>
AV-unprocessed.smi

> <i_m_source_file_index>
1043

> <i_lp_mmshare_version>
43012

> <i_f3d_flags>
0

> <s_epik_input>
W0NIMl0xW0NIMl1bQ0gyXVtDSDJdW0NIMl1bQ0gyXUMxKFtDSDNdKVtOSF1DKD1PKVtOSF1jMm5uW2NIXXMy

> <s_epik_cmdline>
J2VwaWtfcHl0aG9uJywgJy1waCcsICc3LjAnLCAnLXRuJywgJzgnLCAnLW1hJywgJzIwMCcsICctbWV0YWxfYmluZGluZycsICctaW1hZScsICc8aW5maWxlLm1hZT4nLCAnLW9tYWUnLCAnPG91dGZpbGUubWFlPic=

> <r_lp_tautomer_probability>
1

> <r_epik_Ionization_Penalty>
4.55555

> <r_epik_Ionization_Penalty_Charging>
4.50588

> <r_epik_Ionization_Penalty_Neutral>
0.0496753

> <r_epik_State_Penalty>
4.50558

> <r_epik_Charging_Adjusted_Penalty>
9.01146

> <i_epik_Tot_Q>
-1

> <i_epik_Tot_abs_Q>
1

> <r_epik_Metal_State_Penalty>
0.822218

> <b_epik_Metal_Only>
1

> <s_lp_Force_Field>
OPLS_2005

> <r_lp_Energy>
17.5754

> <b_lp_Chiralities_Consistent>
1

> <s_lp_Variant>
AV-unprocessed.smi:1043-2

> <Gold.Version>
5.8.1

> <Gold.Id.Protein>
6NUR|6NUR_protein|mol2

> <Gold.PLP.Fitness>
32.7833

> <Gold.PLP.PLP>
-30.2110

> <Gold.PLP.part.hbond>
-1.9079

> <Gold.PLP.part.metal>
0.0000

> <Gold.PLP.part.buried>
-4.0399

> <Gold.PLP.part.nonpolar>
-25.1409

> <Gold.PLP.part.repulsive>
1.7890

> <Gold.PLP.ligand.clash>
0.0000

> <Gold.PLP.ligand.torsion>
0.2197

> <Gold.PLP.Chemscore.Hbond>
1.0000

> <Gold.PLP.Chemscore.CHOScore>
0.0000

> <Gold.PLP.Chemscore.Metal>
0.0000

> <Gold.Chemscore.Hbonds>
donor molecule, donor type, donor heavy atom, donor atom, acceptor molecule, acceptor atom, score
      L1  H     3    21       P1  8028  1.00

> <Gold.PLP.Chemscore.Internal.Correction>
0.0116

> <Gold.Rescore>
     Score         DG    S(hbond)    S(metal)    S(lipo)     H(rot)  DE(clash)    DE(int)     intcor
      9.29     -13.51       1.01        0.00      61.75       1.00       1.24       2.98       ----

> <Gold.Chemscore.Fitness>
9.2890

> <Gold.Chemscore.DG>
-13.5099

> <Gold.Chemscore.ZeroCoef>
-5.4800

> <Gold.Chemscore.Hbond>
1.0077

> <Gold.Chemscore.Metal>
0.0000

> <Gold.Chemscore.Lipo>
61.7465

> <Gold.Chemscore.Internal_Hbond>
0.0000

> <Gold.Chemscore.DEClash>
1.2403

> <Gold.Chemscore.DEInternal>
2.9806

> <Gold.Chemscore.Rot>
1.0000

> <Gold.Chemscore.Internal.Correction>
   9.000000E+99

> <Gold.Chemscore.Hbonds>
donor molecule, donor type, donor heavy atom, donor atom, acceptor molecule, acceptor atom, score
      L1  H     3    21       P1  8028  0.99

> <Gold.Chemscore.Hbond.Weighted>
-3.3656

> <Gold.Chemscore.Metal.Weighted>
-0.0000

> <Gold.Chemscore.Lipo.Weighted>
-7.2243

> <Gold.Chemscore.Internal_Hbond.Weighted>
0.0000

> <Gold.Chemscore.DEClash.Weighted>
1.2403

> <Gold.Chemscore.DEInternal.Weighted>
2.9806

> <Gold.Chemscore.Rot.Weighted>
2.5600

> <Gold.Chemscore.Internal.Correction.Weighted>
   9.000000E+99

> <Gold.Protein.RotatedTorsions>
[ 6907 6896 6895 6894 ] final  -44.22 input  -60.11 | X-H torsion
[ 7974 7965 7964 7962 ] final   83.01 input  175.53 | X-H torsion
[ 8008 7997 7996 7995 ] final   63.99 input   59.86 | X-H torsion
[ 10167 10162 10161 10158 ] final  137.81 input  -65.29 | X-H torsion
[ 10718 10713 10712 10709 ] final   95.19 input   66.30 | X-H torsion
[ 10763 10752 10751 10750 ] final   -9.48 input  -60.55 | X-H torsion
[ 11005 11000 10999 10996 ] final  -83.47 input  -57.11 | X-H torsion

> <Gold.Protein.ActiveResidues>
 VAL166  LYS551  ARG553  GLY616  TRP617  ASP618  TYR619  PRO620  LYS621  CYS622 
 ASP623  PHE694  ASN695  SER759  ASP760  ASP761  ALA762  ILE779  LEU786  VAL792 
 PHE793  MET794  SER795  GLU796  ALA797  LYS798  CYS799  TRP800  GLU811  SER814 

> <Gold.Protein.RotatedAtoms>
  150.9352  134.8765  159.7576 H   0  0  0  0  0  0  0  0  0  0  0  0  # atno 6907 bound_to 6896
  152.5056  134.4021  159.9430 H   0  0  0  0  0  0  0  0  0  0  0  0  # atno 6908 bound_to 6896
  151.4045  133.3707  159.2771 H   0  0  0  0  0  0  0  0  0  0  0  0  # atno 6909 bound_to 6896
  145.6175  139.2379  143.2157 H   0  0  0  0  0  0  0  0  0  0  0  0  # atno 7974 bound_to 7965
  155.6389  140.3496  155.4708 H   0  0  0  0  0  0  0  0  0  0  0  0  # atno 8008 bound_to 7997
  155.9942  140.1200  157.0633 H   0  0  0  0  0  0  0  0  0  0  0  0  # atno 8009 bound_to 7997
  154.4228  140.1113  156.5593 H   0  0  0  0  0  0  0  0  0  0  0  0  # atno 8010 bound_to 7997
  139.5132  144.6389  151.5623 H   0  0  0  0  0  0  0  0  0  0  0  0  # atno 10167 bound_to 10162
  157.6941  131.0537  150.4301 H   0  0  0  0  0  0  0  0  0  0  0  0  # atno 10718 bound_to 10713
  153.4553  135.7015  153.6083 H   0  0  0  0  0  0  0  0  0  0  0  0  # atno 10763 bound_to 10752
  153.4401  135.3782  155.2223 H   0  0  0  0  0  0  0  0  0  0  0  0  # atno 10764 bound_to 10752
  154.8728  135.3971  154.3971 H   0  0  0  0  0  0  0  0  0  0  0  0  # atno 10765 bound_to 10752
  141.1657  133.7296  156.8725 H   0  0  0  0  0  0  0  0  0  0  0  0  # atno 11005 bound_to 11000
  146.1457  140.6996  142.9346 LP  0  0  0  0  0  0  0  0  0  0  0  0  # atno 17320 bound_to 7965
  144.7244  140.4479  143.6984 LP  0  0  0  0  0  0  0  0  0  0  0  0  # atno 17321 bound_to 7965
  140.6148  143.9369  150.6480 LP  0  0  0  0  0  0  0  0  0  0  0  0  # atno 17342 bound_to 10162
  140.2623  143.3515  152.1312 LP  0  0  0  0  0  0  0  0  0  0  0  0  # atno 17343 bound_to 10162
  156.4668  130.4044  149.6542 LP  0  0  0  0  0  0  0  0  0  0  0  0  # atno 17370 bound_to 10713
  156.3637  130.7495  151.2470 LP  0  0  0  0  0  0  0  0  0  0  0  0  # atno 17371 bound_to 10713
  140.1771  134.9059  157.2904 LP  0  0  0  0  0  0  0  0  0  0  0  0  # atno 17394 bound_to 11000
  140.2436  134.3766  155.7470 LP  0  0  0  0  0  0  0  0  0  0  0  0  # atno 17395 bound_to 11000

$$$$
