AV-unprocessed.smi:3034|AV-procd|sdf|11577|dock8
  -GOLD-   2272016543D 1   1.00000     0.00000
 Structure written by MMmdl.
 32 32  0  0  0  0  0  0  0  0  1 V2000
  149.5783  135.5915  155.0265 C   0  0  0  0  0  0  0  0  0  0  0  0
  150.4133  136.5963  155.8270 C   0  0  0  0  0  0  0  0  0  0  0  0
  150.8448  137.8056  154.9876 C   0  0  0  0  0  0  0  0  0  0  0  0
  151.9998  138.8819  155.9344 S   0  0  0  0  0  0  0  0  0  0  0  0
  152.1957  138.3106  157.2754 O   0  0  0  0  0  0  0  0  0  0  0  0
  153.1648  139.1789  155.0869 O   0  0  0  0  0  0  0  0  0  0  0  0
  151.0971  140.3370  156.1164 N   0  0  0  0  0  0  0  0  0  0  0  0
  151.1791  141.0294  157.4028 C   0  0  0  0  0  0  0  0  0  0  0  0
  150.2492  142.2552  157.4284 C   0  0  2  0  0  0  0  0  0  0  0  0
  150.0823  142.7250  156.1035 O   0  0  0  0  0  0  0  0  0  0  0  0
  150.8022  143.3395  158.3436 C   0  0  0  0  0  0  0  0  0  0  0  0
  152.0001  144.0087  158.0111 C   0  0  0  0  0  0  0  0  0  0  0  0
  152.4696  145.0185  158.8730 C   0  0  0  0  0  0  0  0  0  0  0  0
  151.7275  145.3220  160.0302 C   0  0  0  0  0  0  0  0  0  0  0  0
  150.5435  144.5989  160.2749 C   0  0  0  0  0  0  0  0  0  0  0  0
  150.0846  143.6297  159.4545 N   0  0  0  0  0  0  0  0  0  0  0  0
  149.3035  134.7366  155.6447 H   0  0  0  0  0  0  0  0  0  0  0  0
  150.1319  135.2155  154.1656 H   0  0  0  0  0  0  0  0  0  0  0  0
  148.6576  136.0475  154.6614 H   0  0  0  0  0  0  0  0  0  0  0  0
  149.8371  136.9368  156.6879 H   0  0  0  0  0  0  0  0  0  0  0  0
  151.2967  136.0960  156.2249 H   0  0  0  0  0  0  0  0  0  0  0  0
  151.3505  137.4826  154.0773 H   0  0  0  0  0  0  0  0  0  0  0  0
  149.9830  138.4061  154.6955 H   0  0  0  0  0  0  0  0  0  0  0  0
  150.1255  140.1969  155.8414 H   0  0  0  0  0  0  0  0  0  0  0  0
  150.8720  140.3265  158.1786 H   0  0  0  0  0  0  0  0  0  0  0  0
  152.2127  141.3067  157.6144 H   0  0  0  0  0  0  0  0  0  0  0  0
  149.2669  141.9607  157.8011 H   0  0  0  0  0  0  0  0  0  0  0  0
  149.7471  143.6076  156.1400 H   0  0  0  0  0  0  0  0  0  0  0  0
  152.5470  143.7591  157.1137 H   0  0  0  0  0  0  0  0  0  0  0  0
  153.3813  145.5522  158.6491 H   0  0  0  0  0  0  0  0  0  0  0  0
  152.0568  146.0912  160.7130 H   0  0  0  0  0  0  0  0  0  0  0  0
  149.9485  144.8058  161.1522 H   0  0  0  0  0  0  0  0  0  0  0  0
  1  2  1  0  0  0  0
  1 17  1  0  0  0  0
  1 18  1  0  0  0  0
  1 19  1  0  0  0  0
  2  3  1  0  0  0  0
  2 20  1  0  0  0  0
  2 21  1  0  0  0  0
  3  4  1  0  0  0  0
  3 22  1  0  0  0  0
  3 23  1  0  0  0  0
  4  5  2  0  0  0  0
  4  6  2  0  0  0  0
  4  7  1  0  0  0  0
  7  8  1  0  0  0  0
  7 24  1  0  0  0  0
  8  9  1  0  0  0  0
  8 25  1  0  0  0  0
  8 26  1  0  0  0  0
  9 10  1  0  0  0  0
  9 11  1  0  0  0  0
  9 27  1  0  0  0  0
 10 28  1  0  0  0  0
 11 16  1  0  0  0  0
 11 12  2  0  0  0  0
 12 13  1  0  0  0  0
 12 29  1  0  0  0  0
 13 14  2  0  0  0  0
 13 30  1  0  0  0  0
 14 15  1  0  0  0  0
 14 31  1  0  0  0  0
 15 16  2  0  0  0  0
 15 32  1  0  0  0  0
M  END
> <s_m_source_file>
AV-unprocessed.smi

> <i_m_source_file_index>
3034

> <i_lp_mmshare_version>
43012

> <i_f3d_flags>
0

> <s_epik_input>
W0NIM11bQ0gyXVtDSDJdUyg9TykoPU8pW05IXVtDSDJdW0NASF0oW09IXSljMVtjSF1bY0hdW2NIXVtjSF1uMQ==

> <s_epik_cmdline>
J2VwaWtfcHl0aG9uJywgJy1waCcsICc3LjAnLCAnLXRuJywgJzgnLCAnLW1hJywgJzIwMCcsICctbWV0YWxfYmluZGluZycsICctaW1hZScsICc8aW5maWxlLm1hZT4nLCAnLW9tYWUnLCAnPG91dGZpbGUubWFlPic=

> <r_epik_Ionization_Penalty>
0.00187371

> <r_epik_Ionization_Penalty_Charging>
0

> <r_epik_Ionization_Penalty_Neutral>
0.00187371

> <r_epik_State_Penalty>
0.0012608

> <r_epik_Charging_Adjusted_Penalty>
0.0012608

> <i_epik_Tot_Q>
0

> <i_epik_Tot_abs_Q>
0

> <r_epik_Metal_State_Penalty>
0.0168387

> <b_epik_Metal_Only>
0

> <s_lp_Force_Field>
OPLS_2005

> <r_lp_Energy>
4.86563

> <b_lp_Chiralities_Consistent>
1

> <s_lp_Variant>
AV-unprocessed.smi:3034-1

> <Gold.Version>
5.8.1

> <Gold.Id.Protein>
6NUR|6NUR_protein|mol2

> <Gold.PLP.Fitness>
41.0916

> <Gold.PLP.PLP>
-36.8156

> <Gold.PLP.part.hbond>
-4.0780

> <Gold.PLP.part.metal>
0.0000

> <Gold.PLP.part.buried>
-5.2301

> <Gold.PLP.part.nonpolar>
-27.5685

> <Gold.PLP.part.repulsive>
0.1192

> <Gold.PLP.ligand.clash>
0.0000

> <Gold.PLP.ligand.torsion>
0.9537

> <Gold.PLP.Chemscore.Hbond>
2.0000

> <Gold.PLP.Chemscore.CHOScore>
0.0000

> <Gold.PLP.Chemscore.Metal>
0.0000

> <Gold.Chemscore.Hbonds>
donor molecule, donor type, donor heavy atom, donor atom, acceptor molecule, acceptor atom, score
      L1  H    10    28       P1  8028  0.88
      P1  H  7997  8009       L1     6  1.00

> <Gold.PLP.Chemscore.Internal.Correction>
0.1835

> <Gold.Rescore>
     Score         DG    S(hbond)    S(metal)    S(lipo)     H(rot)  DE(clash)    DE(int)     intcor
     13.74     -15.14       1.89        0.00      86.12       2.63       0.03       1.37       ----

> <Gold.Chemscore.Fitness>
13.7380

> <Gold.Chemscore.DG>
-15.1402

> <Gold.Chemscore.ZeroCoef>
-5.4800

> <Gold.Chemscore.Hbond>
1.8893

> <Gold.Chemscore.Metal>
0.0000

> <Gold.Chemscore.Lipo>
86.1240

> <Gold.Chemscore.Internal_Hbond>
0.0000

> <Gold.Chemscore.DEClash>
0.0272

> <Gold.Chemscore.DEInternal>
1.3750

> <Gold.Chemscore.Rot>
2.6275

> <Gold.Chemscore.Internal.Correction>
   9.000000E+99

> <Gold.Chemscore.Hbonds>
donor molecule, donor type, donor heavy atom, donor atom, acceptor molecule, acceptor atom, score
      L1  H    10    28       P1  8028  0.83
      P1  H  7997  8009       L1     6  0.96

> <Gold.Chemscore.Hbond.Weighted>
-6.3102

> <Gold.Chemscore.Metal.Weighted>
-0.0000

> <Gold.Chemscore.Lipo.Weighted>
-10.0765

> <Gold.Chemscore.Internal_Hbond.Weighted>
0.0000

> <Gold.Chemscore.DEClash.Weighted>
0.0272

> <Gold.Chemscore.DEInternal.Weighted>
1.3750

> <Gold.Chemscore.Rot.Weighted>
6.7265

> <Gold.Chemscore.Internal.Correction.Weighted>
   9.000000E+99

> <Gold.Protein.RotatedTorsions>
[ 6907 6896 6895 6894 ] final  124.27 input  -60.11 | X-H torsion
[ 7974 7965 7964 7962 ] final -125.65 input  175.53 | X-H torsion
[ 8008 7997 7996 7995 ] final -122.20 input   59.86 | X-H torsion
[ 10167 10162 10161 10158 ] final   88.90 input  -65.29 | X-H torsion
[ 10718 10713 10712 10709 ] final -149.92 input   66.30 | X-H torsion
[ 10763 10752 10751 10750 ] final    3.46 input  -60.55 | X-H torsion
[ 11005 11000 10999 10996 ] final  108.49 input  -57.11 | X-H torsion

> <Gold.Protein.ActiveResidues>
 VAL166  LYS551  ARG553  GLY616  TRP617  ASP618  TYR619  PRO620  LYS621  CYS622 
 ASP623  PHE694  ASN695  SER759  ASP760  ASP761  ALA762  ILE779  LEU786  VAL792 
 PHE793  MET794  SER795  GLU796  ALA797  LYS798  CYS799  TRP800  GLU811  SER814 

> <Gold.Protein.RotatedAtoms>
  152.4092  133.6937  159.6382 H   0  0  0  0  0  0  0  0  0  0  0  0  # atno 6907 bound_to 6896
  150.7974  133.8654  159.3252 H   0  0  0  0  0  0  0  0  0  0  0  0  # atno 6908 bound_to 6896
  151.6401  135.1015  160.0191 H   0  0  0  0  0  0  0  0  0  0  0  0  # atno 6909 bound_to 6896
  144.9954  140.7771  143.4529 H   0  0  0  0  0  0  0  0  0  0  0  0  # atno 7974 bound_to 7965
  155.1603  140.0406  157.2841 H   0  0  0  0  0  0  0  0  0  0  0  0  # atno 8008 bound_to 7997
  154.6341  140.2531  155.7372 H   0  0  0  0  0  0  0  0  0  0  0  0  # atno 8009 bound_to 7997
  156.2499  140.2869  156.0705 H   0  0  0  0  0  0  0  0  0  0  0  0  # atno 8010 bound_to 7997
  139.8627  144.6535  150.9040 H   0  0  0  0  0  0  0  0  0  0  0  0  # atno 10167 bound_to 10162
  156.4394  130.8114  151.2344 H   0  0  0  0  0  0  0  0  0  0  0  0  # atno 10718 bound_to 10713
  153.2830  135.6942  153.7367 H   0  0  0  0  0  0  0  0  0  0  0  0  # atno 10763 bound_to 10752
  153.6347  135.3404  155.3053 H   0  0  0  0  0  0  0  0  0  0  0  0  # atno 10764 bound_to 10752
  154.8501  135.4417  154.1889 H   0  0  0  0  0  0  0  0  0  0  0  0  # atno 10765 bound_to 10752
  139.8845  134.9432  156.5980 H   0  0  0  0  0  0  0  0  0  0  0  0  # atno 11005 bound_to 11000
  145.2227  139.2151  143.5084 LP  0  0  0  0  0  0  0  0  0  0  0  0  # atno 17320 bound_to 7965
  146.3440  140.2088  142.8590 LP  0  0  0  0  0  0  0  0  0  0  0  0  # atno 17321 bound_to 7965
  140.7773  143.3731  151.1613 LP  0  0  0  0  0  0  0  0  0  0  0  0  # atno 17342 bound_to 10162
  139.7359  143.9000  152.3034 LP  0  0  0  0  0  0  0  0  0  0  0  0  # atno 17343 bound_to 10162
  157.7506  131.0173  150.3579 LP  0  0  0  0  0  0  0  0  0  0  0  0  # atno 17370 bound_to 10713
  156.3933  130.3902  149.7013 LP  0  0  0  0  0  0  0  0  0  0  0  0  # atno 17371 bound_to 10713
  140.7905  133.8586  155.8642 LP  0  0  0  0  0  0  0  0  0  0  0  0  # atno 17394 bound_to 11000
  140.9681  134.1567  157.4599 LP  0  0  0  0  0  0  0  0  0  0  0  0  # atno 17395 bound_to 11000

$$$$
