AV-unprocessed.smi:33|AV-procd|sdf|201|dock8
  -GOLD-   2262015473D 1   1.00000     0.00000
 Structure written by MMmdl.
 67 72  0  0  0  0  0  0  0  0  1 V2000
  153.1514  140.0499  158.3050 O   0  0  0  0  0  0  0  0  0  0  0  0
  152.4344  141.0509  158.3638 C   0  0  0  0  0  0  0  0  0  0  0  0
  151.5693  141.4059  157.3939 O   0  0  0  0  0  0  0  0  0  0  0  0
  151.5889  140.7328  156.1458 C   0  0  0  0  0  0  0  0  0  0  0  0
  150.2268  140.8992  155.4615 C   0  0  2  0  0  0  0  0  0  0  0  0
  149.1731  140.8505  156.4101 O   0  0  0  0  0  0  0  0  0  0  0  0
  147.9862  140.5661  155.7387 C   0  0  2  0  0  0  0  0  0  0  0  0
  147.1413  139.7196  156.6322 N   0  0  0  0  0  0  0  0  0  0  0  0
  147.4954  139.1585  157.8391 C   0  0  0  0  0  0  0  0  0  0  0  0
  146.5625  138.4580  158.4257 N   0  0  0  0  0  0  0  0  0  0  0  0
  145.4846  138.5383  157.5532 C   0  0  0  0  0  0  0  0  0  0  0  0
  144.1639  138.0131  157.5625 C   0  0  0  0  0  0  0  0  0  0  0  0
  143.6869  137.2360  158.5635 N   0  0  0  0  0  0  0  0  0  0  0  0
  142.4163  137.6445  159.1809 C   0  0  0  0  0  0  0  0  0  0  0  0
  142.0703  138.8267  159.1368 O   0  0  0  0  0  0  0  0  0  0  0  0
  141.5631  136.6410  159.9039 C   0  0  0  0  0  0  0  0  0  0  0  0
  141.4804  135.3128  159.4310 C   0  0  0  0  0  0  0  0  0  0  0  0
  140.6959  134.3634  160.1139 C   0  0  0  0  0  0  0  0  0  0  0  0
  140.0041  134.7307  161.2839 C   0  0  0  0  0  0  0  0  0  0  0  0
  140.1047  136.0458  161.7766 C   0  0  0  0  0  0  0  0  0  0  0  0
  140.8887  136.9960  161.0941 C   0  0  0  0  0  0  0  0  0  0  0  0
  144.4858  136.0632  158.9487 C   0  0  0  0  0  0  0  0  0  0  0  0
  145.2391  135.5430  158.1233 O   0  0  0  0  0  0  0  0  0  0  0  0
  144.3446  135.4626  160.3190 C   0  0  0  0  0  0  0  0  0  0  0  0
  144.1311  136.2969  161.4383 C   0  0  0  0  0  0  0  0  0  0  0  0
  143.9889  135.7382  162.7233 C   0  0  0  0  0  0  0  0  0  0  0  0
  144.0386  134.3415  162.8944 C   0  0  0  0  0  0  0  0  0  0  0  0
  144.2221  133.5026  161.7789 C   0  0  0  0  0  0  0  0  0  0  0  0
  144.3662  134.0604  160.4940 C   0  0  0  0  0  0  0  0  0  0  0  0
  143.3537  138.3072  156.5124 N   0  0  0  0  0  0  0  0  0  0  0  0
  143.8108  139.0682  155.5139 C   0  0  0  0  0  0  0  0  0  0  0  0
  145.0165  139.6228  155.3719 N   0  0  0  0  0  0  0  0  0  0  0  0
  145.8337  139.3303  156.4252 C   0  0  0  0  0  0  0  0  0  0  0  0
  148.3461  139.8141  154.4449 C   0  0  1  0  0  0  0  0  0  0  0  0
  147.9121  140.5100  153.2938 O   0  0  0  0  0  0  0  0  0  0  0  0
  149.8691  139.7767  154.4850 C   0  0  2  0  0  0  0  0  0  0  0  0
  150.2713  138.5933  154.9512 F   0  0  0  0  0  0  0  0  0  0  0  0
  152.4336  141.9962  159.5175 C   0  0  0  0  0  0  0  0  0  0  0  0
  153.0791  141.6230  160.7196 C   0  0  0  0  0  0  0  0  0  0  0  0
  153.0916  142.4928  161.8274 C   0  0  0  0  0  0  0  0  0  0  0  0
  152.4580  143.7465  161.7470 C   0  0  0  0  0  0  0  0  0  0  0  0
  151.8118  144.1295  160.5572 C   0  0  0  0  0  0  0  0  0  0  0  0
  151.7986  143.2612  159.4481 C   0  0  0  0  0  0  0  0  0  0  0  0
  152.3722  141.1645  155.5212 H   0  0  0  0  0  0  0  0  0  0  0  0
  151.8216  139.6759  156.2855 H   0  0  0  0  0  0  0  0  0  0  0  0
  150.1813  141.8555  154.9370 H   0  0  0  0  0  0  0  0  0  0  0  0
  147.4064  141.4758  155.5741 H   0  0  0  0  0  0  0  0  0  0  0  0
  148.4748  139.2880  158.2763 H   0  0  0  0  0  0  0  0  0  0  0  0
  142.0077  135.0194  158.5346 H   0  0  0  0  0  0  0  0  0  0  0  0
  140.6262  133.3525  159.7406 H   0  0  0  0  0  0  0  0  0  0  0  0
  139.4026  134.0021  161.8071 H   0  0  0  0  0  0  0  0  0  0  0  0
  139.5821  136.3253  162.6795 H   0  0  0  0  0  0  0  0  0  0  0  0
  140.9633  138.0009  161.4847 H   0  0  0  0  0  0  0  0  0  0  0  0
  144.0919  137.3700  161.3193 H   0  0  0  0  0  0  0  0  0  0  0  0
  143.8414  136.3819  163.5779 H   0  0  0  0  0  0  0  0  0  0  0  0
  143.9295  133.9136  163.8800 H   0  0  0  0  0  0  0  0  0  0  0  0
  144.2519  132.4308  161.9083 H   0  0  0  0  0  0  0  0  0  0  0  0
  144.5028  133.4065  159.6447 H   0  0  0  0  0  0  0  0  0  0  0  0
  143.1111  139.2595  154.7137 H   0  0  0  0  0  0  0  0  0  0  0  0
  147.9174  138.8105  154.4361 H   0  0  0  0  0  0  0  0  0  0  0  0
  148.6015  140.4829  152.6481 H   0  0  0  0  0  0  0  0  0  0  0  0
  150.3377  139.9002  153.5078 H   0  0  0  0  0  0  0  0  0  0  0  0
  153.5713  140.6648  160.8057 H   0  0  0  0  0  0  0  0  0  0  0  0
  153.5873  142.1965  162.7403 H   0  0  0  0  0  0  0  0  0  0  0  0
  152.4678  144.4132  162.5964 H   0  0  0  0  0  0  0  0  0  0  0  0
  151.3242  145.0911  160.4942 H   0  0  0  0  0  0  0  0  0  0  0  0
  151.2919  143.5856  158.5510 H   0  0  0  0  0  0  0  0  0  0  0  0
  1  2  2  0  0  0  0
  2  3  1  0  0  0  0
  2 38  1  0  0  0  0
  3  4  1  0  0  0  0
  4  5  1  0  0  0  0
  4 44  1  0  0  0  0
  4 45  1  0  0  0  0
  5 36  1  0  0  0  0
  5  6  1  0  0  0  0
  5 46  1  0  0  0  0
  6  7  1  0  0  0  0
  7  8  1  0  0  0  0
  7 34  1  0  0  0  0
  7 47  1  0  0  0  0
  8 33  1  0  0  0  0
  8  9  1  0  0  0  0
  9 10  2  0  0  0  0
  9 48  1  0  0  0  0
 10 11  1  0  0  0  0
 11 33  2  0  0  0  0
 11 12  1  0  0  0  0
 12 13  1  0  0  0  0
 12 30  2  0  0  0  0
 13 14  1  0  0  0  0
 13 22  1  0  0  0  0
 14 15  2  0  0  0  0
 14 16  1  0  0  0  0
 16 21  1  0  0  0  0
 16 17  2  0  0  0  0
 17 18  1  0  0  0  0
 17 49  1  0  0  0  0
 18 19  2  0  0  0  0
 18 50  1  0  0  0  0
 19 20  1  0  0  0  0
 19 51  1  0  0  0  0
 20 21  2  0  0  0  0
 20 52  1  0  0  0  0
 21 53  1  0  0  0  0
 22 23  2  0  0  0  0
 22 24  1  0  0  0  0
 24 29  1  0  0  0  0
 24 25  2  0  0  0  0
 25 26  1  0  0  0  0
 25 54  1  0  0  0  0
 26 27  2  0  0  0  0
 26 55  1  0  0  0  0
 27 28  1  0  0  0  0
 27 56  1  0  0  0  0
 28 29  2  0  0  0  0
 28 57  1  0  0  0  0
 29 58  1  0  0  0  0
 30 31  1  0  0  0  0
 31 32  2  0  0  0  0
 31 59  1  0  0  0  0
 32 33  1  0  0  0  0
 34 35  1  0  0  0  0
 34 36  1  0  0  0  0
 34 60  1  0  0  0  0
 35 61  1  0  0  0  0
 36 37  1  0  0  0  0
 36 62  1  0  0  0  0
 38 43  1  0  0  0  0
 38 39  2  0  0  0  0
 39 40  1  0  0  0  0
 39 63  1  0  0  0  0
 40 41  2  0  0  0  0
 40 64  1  0  0  0  0
 41 42  1  0  0  0  0
 41 65  1  0  0  0  0
 42 43  2  0  0  0  0
 42 66  1  0  0  0  0
 43 67  1  0  0  0  0
M  END
> <s_m_source_file>
AV-unprocessed.smi

> <i_m_source_file_index>
33

> <i_lp_mmshare_version>
43012

> <i_f3d_flags>
0

> <s_epik_input>
W2NIXTFbY0hdW2NIXVtjSF1bY0hdYzFDKD1PKU9bQ0gyXVtDQEBIXTJPW0NASF0oW0NAQEhdKFtPSF0pW0NAQEhdMkYpbihbY0hdbjMpYyhjMzQpbltjSF1uYzROKEMoPU8pYzVbY0hdW2NIXVtjSF1bY0hdW2NIXTUpQyg9TyljNltjSF1bY0hdW2NIXVtjSF1bY0hdNg==

> <s_epik_cmdline>
J2VwaWtfcHl0aG9uJywgJy1waCcsICc3LjAnLCAnLXRuJywgJzgnLCAnLW1hJywgJzIwMCcsICctbWV0YWxfYmluZGluZycsICctaW1hZScsICc8aW5maWxlLm1hZT4nLCAnLW9tYWUnLCAnPG91dGZpbGUubWFlPic=

> <r_lp_tautomer_probability>
1

> <r_epik_Ionization_Penalty>
0.00067664

> <r_epik_Ionization_Penalty_Charging>
0

> <r_epik_Ionization_Penalty_Neutral>
0.00067664

> <r_epik_State_Penalty>
0.000428095

> <r_epik_Charging_Adjusted_Penalty>
0.000428095

> <i_epik_Tot_Q>
0

> <i_epik_Tot_abs_Q>
0

> <r_epik_Metal_State_Penalty>
-0

> <b_epik_Metal_Only>
0

> <s_epik_Chemistry_Notes>
This compound has an ester and may undergo hydrolysis at high or low pH. This compound contains an acetal/aminal-like group ( X-CH(R)-Y where X, Y are N, S, or O) that may be acid/base labile, releasing an aldehyde.

> <s_lp_Force_Field>
OPLS_2005

> <r_lp_Energy>
66.4626

> <b_lp_Chiralities_Consistent>
1

> <s_lp_Variant>
AV-unprocessed.smi:33-3

> <Gold.Version>
5.8.1

> <Gold.Id.Protein>
6NUR|6NUR_protein|mol2

> <Gold.PLP.Fitness>
58.7673

> <Gold.PLP.PLP>
-51.6859

> <Gold.PLP.part.hbond>
-2.8652

> <Gold.PLP.part.metal>
0.0000

> <Gold.PLP.part.buried>
-6.5566

> <Gold.PLP.part.nonpolar>
-40.4903

> <Gold.PLP.part.repulsive>
0.1939

> <Gold.PLP.ligand.clash>
0.0000

> <Gold.PLP.ligand.torsion>
3.1836

> <Gold.PLP.Chemscore.Hbond>
2.0000

> <Gold.PLP.Chemscore.CHOScore>
0.9411

> <Gold.PLP.Chemscore.Metal>
0.0000

> <Gold.Chemscore.Hbonds>
donor molecule, donor type, donor heavy atom, donor atom, acceptor molecule, acceptor atom, score
      L1  H    35    61       P1  7957  1.00
      P1  H  7997  8010       L1     1  1.00
      L1  C    31    59       P1 10175  0.84

> <Gold.PLP.Chemscore.Internal.Correction>
4.6253

> <Gold.Rescore>
     Score         DG    S(hbond)    S(metal)    S(lipo)     H(rot)  DE(clash)    DE(int)     intcor
     16.59     -20.98       1.92        0.00     132.93       2.52       0.06       4.33       ----

> <Gold.Chemscore.Fitness>
16.5921

> <Gold.Chemscore.DG>
-20.9829

> <Gold.Chemscore.ZeroCoef>
-5.4800

> <Gold.Chemscore.Hbond>
1.9201

> <Gold.Chemscore.Metal>
0.0000

> <Gold.Chemscore.Lipo>
132.9326

> <Gold.Chemscore.Internal_Hbond>
0.0000

> <Gold.Chemscore.DEClash>
0.0560

> <Gold.Chemscore.DEInternal>
4.3348

> <Gold.Chemscore.Rot>
2.5247

> <Gold.Chemscore.Internal.Correction>
   9.000000E+99

> <Gold.Chemscore.Hbonds>
donor molecule, donor type, donor heavy atom, donor atom, acceptor molecule, acceptor atom, score
      L1  H    35    61       P1  7957  1.00
      P1  H  7997  8010       L1     1  0.92

> <Gold.Chemscore.Hbond.Weighted>
-6.4131

> <Gold.Chemscore.Metal.Weighted>
-0.0000

> <Gold.Chemscore.Lipo.Weighted>
-15.5531

> <Gold.Chemscore.Internal_Hbond.Weighted>
0.0000

> <Gold.Chemscore.DEClash.Weighted>
0.0560

> <Gold.Chemscore.DEInternal.Weighted>
4.3348

> <Gold.Chemscore.Rot.Weighted>
6.4633

> <Gold.Chemscore.Internal.Correction.Weighted>
   9.000000E+99

> <Gold.Protein.RotatedTorsions>
[ 6907 6896 6895 6894 ] final   59.92 input  -60.11 | X-H torsion
[ 7974 7965 7964 7962 ] final   45.45 input  175.53 | X-H torsion
[ 8008 7997 7996 7995 ] final   28.28 input   59.86 | X-H torsion
[ 10167 10162 10161 10158 ] final  111.90 input  -65.29 | X-H torsion
[ 10718 10713 10712 10709 ] final   78.74 input   66.30 | X-H torsion
[ 10763 10752 10751 10750 ] final -166.31 input  -60.55 | X-H torsion
[ 11005 11000 10999 10996 ] final  171.83 input  -57.11 | X-H torsion

> <Gold.Protein.ActiveResidues>
 VAL166  LYS551  ARG553  GLY616  TRP617  ASP618  TYR619  PRO620  LYS621  CYS622 
 ASP623  PHE694  ASN695  SER759  ASP760  ASP761  ALA762  ILE779  LEU786  VAL792 
 PHE793  MET794  SER795  GLU796  ALA797  LYS798  CYS799  TRP800  GLU811  SER814 

> <Gold.Protein.RotatedAtoms>
  152.3957  134.6369  160.0089 H   0  0  0  0  0  0  0  0  0  0  0  0  # atno 6907 bound_to 6896
  151.6589  133.3312  159.3177 H   0  0  0  0  0  0  0  0  0  0  0  0  # atno 6908 bound_to 6896
  150.7865  134.6897  159.6535 H   0  0  0  0  0  0  0  0  0  0  0  0  # atno 6909 bound_to 6896
  146.0478  139.4962  142.9737 H   0  0  0  0  0  0  0  0  0  0  0  0  # atno 7974 bound_to 7965
  155.0561  140.3185  155.4676 H   0  0  0  0  0  0  0  0  0  0  0  0  # atno 8008 bound_to 7997
  156.2823  140.2137  156.5632 H   0  0  0  0  0  0  0  0  0  0  0  0  # atno 8009 bound_to 7997
  154.7170  140.0493  157.0592 H   0  0  0  0  0  0  0  0  0  0  0  0  # atno 8010 bound_to 7997
  139.6576  144.7129  151.1926 H   0  0  0  0  0  0  0  0  0  0  0  0  # atno 10167 bound_to 10162
  157.6754  130.9882  150.1830 H   0  0  0  0  0  0  0  0  0  0  0  0  # atno 10718 bound_to 10713
  154.6846  135.2960  154.9566 H   0  0  0  0  0  0  0  0  0  0  0  0  # atno 10763 bound_to 10752
  154.0549  135.6639  153.4809 H   0  0  0  0  0  0  0  0  0  0  0  0  # atno 10764 bound_to 10752
  153.0570  135.5138  154.7906 H   0  0  0  0  0  0  0  0  0  0  0  0  # atno 10765 bound_to 10752
  140.3232  134.7420  157.4079 H   0  0  0  0  0  0  0  0  0  0  0  0  # atno 11005 bound_to 11000
  145.6775  141.0200  143.1624 LP  0  0  0  0  0  0  0  0  0  0  0  0  # atno 17320 bound_to 7965
  144.7107  139.8383  143.7415 LP  0  0  0  0  0  0  0  0  0  0  0  0  # atno 17321 bound_to 7965
  140.7566  143.6046  150.8666 LP  0  0  0  0  0  0  0  0  0  0  0  0  # atno 17342 bound_to 10162
  139.9700  143.6067  152.2976 LP  0  0  0  0  0  0  0  0  0  0  0  0  # atno 17343 bound_to 10162
  156.2558  130.3705  149.8183 LP  0  0  0  0  0  0  0  0  0  0  0  0  # atno 17370 bound_to 10713
  156.5942  130.8519  151.3416 LP  0  0  0  0  0  0  0  0  0  0  0  0  # atno 17371 bound_to 10713
  140.0924  134.5583  155.8431 LP  0  0  0  0  0  0  0  0  0  0  0  0  # atno 17394 bound_to 11000
  141.2081  133.6671  156.6352 LP  0  0  0  0  0  0  0  0  0  0  0  0  # atno 17395 bound_to 11000

$$$$
