AV-unprocessed.smi:1834|AV-procd|sdf|7470|dock10
  -GOLD-   22720 9163D 1   1.00000     0.00000
 Structure written by MMmdl.
 46 47  0  0  0  0  0  0  0  0  2 V2000
  144.8583  131.8768  150.7399 C   0  0  0  0  0  0  0  0  0  0  0  0
  145.2891  133.3368  150.5374 C   0  0  0  0  0  0  0  0  0  0  0  0
  144.7451  134.2478  151.5767 N   0  3  2  0  0  0  0  0  0  0  0  0
  143.2957  134.0166  151.8120 C   0  0  0  0  0  0  0  0  0  0  0  0
  142.7664  134.8816  152.9672 C   0  0  0  0  0  0  0  0  0  0  0  0
  143.0673  136.3691  152.7303 C   0  0  0  0  0  0  0  0  0  0  0  0
  144.5656  136.5982  152.4570 C   0  0  1  0  0  0  0  0  0  0  0  0
  145.4142  136.4760  153.7457 C   0  0  0  0  0  0  0  0  0  0  0  0
  146.7749  136.9759  153.5704 N   0  0  0  0  0  0  0  0  0  0  0  0
  147.3294  137.9713  154.2774 C   0  0  0  0  0  0  0  0  0  0  0  0
  146.7289  138.5918  155.1548 O   0  0  0  0  0  0  0  0  0  0  0  0
  148.6062  138.1759  153.9114 N   0  0  0  0  0  0  0  0  0  0  0  0
  149.5163  139.0314  154.4484 C   0  0  0  0  0  0  0  0  0  0  0  0
  149.3059  140.2405  155.0538 C   0  0  0  0  0  0  0  0  0  0  0  0
  150.6257  140.6513  155.4016 C   0  0  0  0  0  0  0  0  0  0  0  0
  151.0488  141.9117  156.0968 C   0  0  0  0  0  0  0  0  0  0  0  0
  151.5491  139.7689  155.0377 N   0  0  0  0  0  0  0  0  0  0  0  0
  150.8679  138.7630  154.4487 N   0  0  0  0  0  0  0  0  0  0  0  0
  151.5901  137.6192  153.9259 C   0  0  0  0  0  0  0  0  0  0  0  0
  145.0264  135.6823  151.2982 C   0  0  0  0  0  0  0  0  0  0  0  0
  145.2423  131.2511  149.9341 H   0  0  0  0  0  0  0  0  0  0  0  0
  143.7723  131.7832  150.7358 H   0  0  0  0  0  0  0  0  0  0  0  0
  145.2293  131.4604  151.6760 H   0  0  0  0  0  0  0  0  0  0  0  0
  146.3768  133.4158  150.5046 H   0  0  0  0  0  0  0  0  0  0  0  0
  144.9290  133.6520  149.5571 H   0  0  0  0  0  0  0  0  0  0  0  0
  142.7408  134.2333  150.8977 H   0  0  0  0  0  0  0  0  0  0  0  0
  143.1213  132.9658  152.0462 H   0  0  0  0  0  0  0  0  0  0  0  0
  141.6910  134.7357  153.0744 H   0  0  0  0  0  0  0  0  0  0  0  0
  143.2110  134.5530  153.9069 H   0  0  0  0  0  0  0  0  0  0  0  0
  142.4883  136.7173  151.8737 H   0  0  0  0  0  0  0  0  0  0  0  0
  142.7360  136.9636  153.5824 H   0  0  0  0  0  0  0  0  0  0  0  0
  144.6739  137.6282  152.1138 H   0  0  0  0  0  0  0  0  0  0  0  0
  144.9543  137.0656  154.5394 H   0  0  0  0  0  0  0  0  0  0  0  0
  145.4264  135.4481  154.1100 H   0  0  0  0  0  0  0  0  0  0  0  0
  147.3369  136.5239  152.8632 H   0  0  0  0  0  0  0  0  0  0  0  0
  148.9549  137.5922  153.1655 H   0  0  0  0  0  0  0  0  0  0  0  0
  148.3771  140.7626  155.2275 H   0  0  0  0  0  0  0  0  0  0  0  0
  150.1852  142.4882  156.4287 H   0  0  0  0  0  0  0  0  0  0  0  0
  151.6365  142.5467  155.4336 H   0  0  0  0  0  0  0  0  0  0  0  0
  151.6573  141.6920  156.9744 H   0  0  0  0  0  0  0  0  0  0  0  0
  150.9425  136.7429  153.8962 H   0  0  0  0  0  0  0  0  0  0  0  0
  152.4484  137.3957  154.5605 H   0  0  0  0  0  0  0  0  0  0  0  0
  151.9399  137.8389  152.9170 H   0  0  0  0  0  0  0  0  0  0  0  0
  146.0843  135.8375  151.0940 H   0  0  0  0  0  0  0  0  0  0  0  0
  144.5053  135.9684  150.3830 H   0  0  0  0  0  0  0  0  0  0  0  0
  145.2164  134.0141  152.4395 H   0  0  0  0  0  0  0  0  0  0  0  0
  1  2  1  0  0  0  0
  1 21  1  0  0  0  0
  1 22  1  0  0  0  0
  1 23  1  0  0  0  0
  2  3  1  0  0  0  0
  2 24  1  0  0  0  0
  2 25  1  0  0  0  0
  3 20  1  0  0  0  0
  3  4  1  0  0  0  0
  3 46  1  0  0  0  0
  4  5  1  0  0  0  0
  4 26  1  0  0  0  0
  4 27  1  0  0  0  0
  5  6  1  0  0  0  0
  5 28  1  0  0  0  0
  5 29  1  0  0  0  0
  6  7  1  0  0  0  0
  6 30  1  0  0  0  0
  6 31  1  0  0  0  0
  7  8  1  0  0  0  0
  7 20  1  0  0  0  0
  7 32  1  0  0  0  0
  8  9  1  0  0  0  0
  8 33  1  0  0  0  0
  8 34  1  0  0  0  0
  9 10  1  0  0  0  0
  9 35  1  0  0  0  0
 10 11  2  0  0  0  0
 10 12  1  0  0  0  0
 12 13  1  0  0  0  0
 12 36  1  0  0  0  0
 13 18  1  0  0  0  0
 13 14  2  0  0  0  0
 14 15  1  0  0  0  0
 14 37  1  0  0  0  0
 15 16  1  0  0  0  0
 15 17  2  0  0  0  0
 16 38  1  0  0  0  0
 16 39  1  0  0  0  0
 16 40  1  0  0  0  0
 17 18  1  0  0  0  0
 18 19  1  0  0  0  0
 19 41  1  0  0  0  0
 19 42  1  0  0  0  0
 19 43  1  0  0  0  0
 20 44  1  0  0  0  0
 20 45  1  0  0  0  0
M  CHG  1   3   1
M  END
> <s_m_source_file>
AV-unprocessed.smi

> <i_m_source_file_index>
1834

> <i_lp_mmshare_version>
43012

> <i_f3d_flags>
0

> <s_epik_input>
W0NIM11bQ0gyXU4xW0NIMl1bQ0gyXVtDSDJdW0NASF0oW0NIMl0xKVtDSDJdW05IXUMoPU8pW05IXWMyW2NIXWMoW0NIM10pbm4yW0NIM10=

> <s_epik_cmdline>
J2VwaWtfcHl0aG9uJywgJy1waCcsICc3LjAnLCAnLXRuJywgJzgnLCAnLW1hJywgJzIwMCcsICctbWV0YWxfYmluZGluZycsICctaW1hZScsICc8aW5maWxlLm1hZT4nLCAnLW9tYWUnLCAnPG91dGZpbGUubWFlPic=

> <r_lp_tautomer_probability>
1

> <r_epik_Ionization_Penalty>
0.000466842

> <r_epik_Ionization_Penalty_Charging>
0.000378984

> <r_epik_Ionization_Penalty_Neutral>
8.78572e-05

> <r_epik_State_Penalty>
0.000231434

> <r_epik_Charging_Adjusted_Penalty>
0.000610418

> <i_epik_Tot_Q>
1

> <i_epik_Tot_abs_Q>
1

> <r_epik_Metal_State_Penalty>
-0

> <b_epik_Metal_Only>
0

> <s_lp_Force_Field>
OPLS_2005

> <r_lp_Energy>
21.1664

> <b_lp_Chiralities_Consistent>
1

> <s_lp_Variant>
AV-unprocessed.smi:1834-2

> <Gold.Version>
5.8.1

> <Gold.Id.Protein>
6NUR|6NUR_protein|mol2

> <Gold.PLP.Fitness>
42.4686

> <Gold.PLP.PLP>
-36.2195

> <Gold.PLP.part.hbond>
-3.0000

> <Gold.PLP.part.metal>
0.0000

> <Gold.PLP.part.buried>
-6.1257

> <Gold.PLP.part.nonpolar>
-27.7501

> <Gold.PLP.part.repulsive>
0.0777

> <Gold.PLP.ligand.clash>
0.0000

> <Gold.PLP.ligand.torsion>
0.3042

> <Gold.PLP.Chemscore.Hbond>
2.2750

> <Gold.PLP.Chemscore.CHOScore>
0.0000

> <Gold.PLP.Chemscore.Metal>
0.0000

> <Gold.Chemscore.Hbonds>
donor molecule, donor type, donor heavy atom, donor atom, acceptor molecule, acceptor atom, score
      L1  H     9    35       P1  7948  1.00
      L1  H    12    36       P1  7948  1.00
      P1  H  7989  7998       L1    17  0.12

> <Gold.PLP.Chemscore.Internal.Correction>
0.0325

> <Gold.Rescore>
     Score         DG    S(hbond)    S(metal)    S(lipo)     H(rot)  DE(clash)    DE(int)     intcor
     16.69     -17.16       1.98        0.00      74.64       1.43       0.05       0.42       ----

> <Gold.Chemscore.Fitness>
16.6885

> <Gold.Chemscore.DG>
-17.1564

> <Gold.Chemscore.ZeroCoef>
-5.4800

> <Gold.Chemscore.Hbond>
1.9765

> <Gold.Chemscore.Metal>
0.0000

> <Gold.Chemscore.Lipo>
74.6450

> <Gold.Chemscore.Internal_Hbond>
0.0000

> <Gold.Chemscore.DEClash>
0.0498

> <Gold.Chemscore.DEInternal>
0.4180

> <Gold.Chemscore.Rot>
1.4291

> <Gold.Chemscore.Internal.Correction>
   9.000000E+99

> <Gold.Chemscore.Hbonds>
donor molecule, donor type, donor heavy atom, donor atom, acceptor molecule, acceptor atom, score
      L1  H     9    35       P1  7948  0.98
      L1  H    12    36       P1  7948  1.00

> <Gold.Chemscore.Hbond.Weighted>
-6.6014

> <Gold.Chemscore.Metal.Weighted>
-0.0000

> <Gold.Chemscore.Lipo.Weighted>
-8.7335

> <Gold.Chemscore.Internal_Hbond.Weighted>
0.0000

> <Gold.Chemscore.DEClash.Weighted>
0.0498

> <Gold.Chemscore.DEInternal.Weighted>
0.4180

> <Gold.Chemscore.Rot.Weighted>
3.6584

> <Gold.Chemscore.Internal.Correction.Weighted>
   9.000000E+99

> <Gold.Protein.RotatedTorsions>
[ 6907 6896 6895 6894 ] final   37.58 input  -60.11 | X-H torsion
[ 7974 7965 7964 7962 ] final   99.80 input  175.53 | X-H torsion
[ 8008 7997 7996 7995 ] final -102.93 input   59.86 | X-H torsion
[ 10167 10162 10161 10158 ] final  -73.94 input  -65.29 | X-H torsion
[ 10718 10713 10712 10709 ] final -123.91 input   66.30 | X-H torsion
[ 10763 10752 10751 10750 ] final -149.50 input  -60.55 | X-H torsion
[ 11005 11000 10999 10996 ] final   58.98 input  -57.11 | X-H torsion

> <Gold.Protein.ActiveResidues>
 VAL166  LYS551  ARG553  GLY616  TRP617  ASP618  TYR619  PRO620  LYS621  CYS622 
 ASP623  PHE694  ASN695  SER759  ASP760  ASP761  ALA762  ILE779  LEU786  VAL792 
 PHE793  MET794  SER795  GLU796  ALA797  LYS798  CYS799  TRP800  GLU811  SER814 

> <Gold.Protein.RotatedAtoms>
  152.1450  134.9033  160.0551 H   0  0  0  0  0  0  0  0  0  0  0  0  # atno 6907 bound_to 6896
  152.0086  133.3848  159.4219 H   0  0  0  0  0  0  0  0  0  0  0  0  # atno 6908 bound_to 6896
  150.6869  134.3677  159.5022 H   0  0  0  0  0  0  0  0  0  0  0  0  # atno 6909 bound_to 6896
  145.3940  139.2358  143.3336 H   0  0  0  0  0  0  0  0  0  0  0  0  # atno 7974 bound_to 7965
  154.8637  140.0425  157.1681 H   0  0  0  0  0  0  0  0  0  0  0  0  # atno 8008 bound_to 7997
  154.8812  140.2973  155.5403 H   0  0  0  0  0  0  0  0  0  0  0  0  # atno 8009 bound_to 7997
  156.2999  140.2411  156.3815 H   0  0  0  0  0  0  0  0  0  0  0  0  # atno 8010 bound_to 7997
  140.5068  143.2351  151.7660 H   0  0  0  0  0  0  0  0  0  0  0  0  # atno 10167 bound_to 10162
  156.1542  130.6556  150.9957 H   0  0  0  0  0  0  0  0  0  0  0  0  # atno 10718 bound_to 10713
  154.8173  135.3307  154.7139 H   0  0  0  0  0  0  0  0  0  0  0  0  # atno 10763 bound_to 10752
  153.7777  135.6921  153.4898 H   0  0  0  0  0  0  0  0  0  0  0  0  # atno 10764 bound_to 10752
  153.2001  135.4519  155.0204 H   0  0  0  0  0  0  0  0  0  0  0  0  # atno 10765 bound_to 10752
  140.0337  134.5974  155.9472 H   0  0  0  0  0  0  0  0  0  0  0  0  # atno 11005 bound_to 11000
  146.2784  140.4627  142.8786 LP  0  0  0  0  0  0  0  0  0  0  0  0  # atno 17320 bound_to 7965
  144.8420  140.6872  143.6223 LP  0  0  0  0  0  0  0  0  0  0  0  0  # atno 17321 bound_to 7965
  139.4886  144.4446  151.9725 LP  0  0  0  0  0  0  0  0  0  0  0  0  # atno 17342 bound_to 10162
  140.3536  144.3058  150.5945 LP  0  0  0  0  0  0  0  0  0  0  0  0  # atno 17343 bound_to 10162
  157.6681  131.0867  150.7678 LP  0  0  0  0  0  0  0  0  0  0  0  0  # atno 17370 bound_to 10713
  156.7745  130.4839  149.5412 LP  0  0  0  0  0  0  0  0  0  0  0  0  # atno 17371 bound_to 10713
  141.1845  133.6553  156.5161 LP  0  0  0  0  0  0  0  0  0  0  0  0  # atno 17394 bound_to 11000
  140.4183  134.7210  157.4875 LP  0  0  0  0  0  0  0  0  0  0  0  0  # atno 17395 bound_to 11000

$$$$
