AV-unprocessed.smi:2095|AV-procd|sdf|8559|dock10
  -GOLD-   2272011283D 1   1.00000     0.00000
 Structure written by MMmdl.
 42 43  0  0  0  0  0  0  0  0  2 V2000
  147.6578  133.9635  149.0940 C   0  0  0  0  0  0  0  0  0  0  0  0
  146.1284  134.1316  149.1410 C   0  0  1  0  0  0  0  0  0  0  0  0
  145.4697  133.2602  150.2234 C   0  0  0  0  0  0  0  0  0  0  0  0
  145.7261  133.8356  151.6204 C   0  0  0  0  0  0  0  0  0  0  0  0
  145.2856  135.3045  151.6907 C   0  0  0  0  0  0  0  0  0  0  0  0
  145.9746  136.1370  150.6636 N   0  3  2  0  0  0  0  0  0  0  0  0
  145.7273  137.6018  150.8766 C   0  0  1  0  0  0  0  0  0  0  0  0
  145.9899  137.9528  152.3578 C   0  0  0  0  0  0  0  0  0  0  0  0
  146.5339  138.5364  149.9327 C   0  0  0  0  0  0  0  0  0  0  0  0
  147.9796  138.3839  150.0852 N   0  0  0  0  0  0  0  0  0  0  0  0
  148.9076  139.2411  149.6305 C   0  0  0  0  0  0  0  0  0  0  0  0
  148.6328  140.2671  149.0082 O   0  0  0  0  0  0  0  0  0  0  0  0
  150.3680  138.8775  149.9107 C   0  0  0  0  0  0  0  0  0  0  0  0
  151.0732  139.9698  150.5557 N   0  0  0  0  0  0  0  0  0  0  0  0
  152.0769  140.7392  150.1292 C   0  0  0  0  0  0  0  0  0  0  0  0
  152.4325  141.6301  151.0421 N   0  0  0  0  0  0  0  0  0  0  0  0
  151.5688  141.3662  152.0921 N   0  0  0  0  0  0  0  0  0  0  0  0
  150.7593  140.3827  151.8089 N   0  0  0  0  0  0  0  0  0  0  0  0
  145.7083  135.6100  149.2915 C   0  0  0  0  0  0  0  0  0  0  0  0
  148.1360  134.3180  150.0071 H   0  0  0  0  0  0  0  0  0  0  0  0
  148.0874  134.5214  148.2615 H   0  0  0  0  0  0  0  0  0  0  0  0
  147.9323  132.9167  148.9607 H   0  0  0  0  0  0  0  0  0  0  0  0
  145.7548  133.7843  148.1768 H   0  0  0  0  0  0  0  0  0  0  0  0
  144.3940  133.2183  150.0467 H   0  0  0  0  0  0  0  0  0  0  0  0
  145.8300  132.2327  150.1630 H   0  0  0  0  0  0  0  0  0  0  0  0
  145.1843  133.2509  152.3644 H   0  0  0  0  0  0  0  0  0  0  0  0
  146.7828  133.7519  151.8762 H   0  0  0  0  0  0  0  0  0  0  0  0
  144.2060  135.3748  151.5479 H   0  0  0  0  0  0  0  0  0  0  0  0
  145.4879  135.6776  152.6936 H   0  0  0  0  0  0  0  0  0  0  0  0
  144.6729  137.7890  150.6659 H   0  0  0  0  0  0  0  0  0  0  0  0
  145.6905  138.9745  152.5895 H   0  0  0  0  0  0  0  0  0  0  0  0
  147.0484  137.8551  152.6016 H   0  0  0  0  0  0  0  0  0  0  0  0
  145.4374  137.3130  153.0441 H   0  0  0  0  0  0  0  0  0  0  0  0
  146.2375  138.3807  148.8938 H   0  0  0  0  0  0  0  0  0  0  0  0
  146.3264  139.5815  150.1629 H   0  0  0  0  0  0  0  0  0  0  0  0
  148.2996  137.5655  150.5830 H   0  0  0  0  0  0  0  0  0  0  0  0
  150.4325  137.9976  150.5527 H   0  0  0  0  0  0  0  0  0  0  0  0
  150.8649  138.6287  148.9719 H   0  0  0  0  0  0  0  0  0  0  0  0
  152.5434  140.6464  149.1596 H   0  0  0  0  0  0  0  0  0  0  0  0
  146.2528  136.1779  148.5379 H   0  0  0  0  0  0  0  0  0  0  0  0
  144.6459  135.7193  149.0673 H   0  0  0  0  0  0  0  0  0  0  0  0
  146.9665  136.0082  150.8056 H   0  0  0  0  0  0  0  0  0  0  0  0
  1  2  1  0  0  0  0
  1 20  1  0  0  0  0
  1 21  1  0  0  0  0
  1 22  1  0  0  0  0
  2 19  1  0  0  0  0
  2  3  1  0  0  0  0
  2 23  1  0  0  0  0
  3  4  1  0  0  0  0
  3 24  1  0  0  0  0
  3 25  1  0  0  0  0
  4  5  1  0  0  0  0
  4 26  1  0  0  0  0
  4 27  1  0  0  0  0
  5  6  1  0  0  0  0
  5 28  1  0  0  0  0
  5 29  1  0  0  0  0
  6  7  1  0  0  0  0
  6 19  1  0  0  0  0
  6 42  1  0  0  0  0
  7  8  1  0  0  0  0
  7  9  1  0  0  0  0
  7 30  1  0  0  0  0
  8 31  1  0  0  0  0
  8 32  1  0  0  0  0
  8 33  1  0  0  0  0
  9 10  1  0  0  0  0
  9 34  1  0  0  0  0
  9 35  1  0  0  0  0
 10 11  1  0  0  0  0
 10 36  1  0  0  0  0
 11 12  2  0  0  0  0
 11 13  1  0  0  0  0
 13 14  1  0  0  0  0
 13 37  1  0  0  0  0
 13 38  1  0  0  0  0
 14 18  1  0  0  0  0
 14 15  1  0  0  0  0
 15 16  2  0  0  0  0
 15 39  1  0  0  0  0
 16 17  1  0  0  0  0
 17 18  2  0  0  0  0
 19 40  1  0  0  0  0
 19 41  1  0  0  0  0
M  CHG  1   6   1
M  END
> <s_m_source_file>
AV-unprocessed.smi

> <i_m_source_file_index>
2095

> <i_lp_mmshare_version>
43012

> <i_f3d_flags>
0

> <s_epik_input>
W0NIM11bQ0BASF0xW0NIMl1bQ0gyXVtDSDJdTihbQ0gyXTEpW0NASF0oW0NIM10pW0NIMl1bTkhdQyg9TylbQ0gyXW4yW2NIXW5ubjI=

> <s_epik_cmdline>
J2VwaWtfcHl0aG9uJywgJy1waCcsICc3LjAnLCAnLXRuJywgJzgnLCAnLW1hJywgJzIwMCcsICctbWV0YWxfYmluZGluZycsICctaW1hZScsICc8aW5maWxlLm1hZT4nLCAnLW9tYWUnLCAnPG91dGZpbGUubWFlPic=

> <r_lp_tautomer_probability>
1

> <r_epik_Ionization_Penalty>
0.00268321

> <r_epik_Ionization_Penalty_Charging>
0.00267875

> <r_epik_Ionization_Penalty_Neutral>
4.46125e-06

> <r_epik_State_Penalty>
0.00186642

> <r_epik_Charging_Adjusted_Penalty>
0.00454517

> <i_epik_Tot_Q>
1

> <i_epik_Tot_abs_Q>
1

> <r_epik_Metal_State_Penalty>
-0

> <b_epik_Metal_Only>
0

> <s_lp_Force_Field>
OPLS_2005

> <r_lp_Energy>
29.9009

> <b_lp_Chiralities_Consistent>
1

> <s_lp_Variant>
AV-unprocessed.smi:2095-6

> <Gold.Version>
5.8.1

> <Gold.Id.Protein>
6NUR|6NUR_protein|mol2

> <Gold.PLP.Fitness>
46.2592

> <Gold.PLP.PLP>
-32.6320

> <Gold.PLP.part.hbond>
-4.8748

> <Gold.PLP.part.metal>
0.0000

> <Gold.PLP.part.buried>
-4.1670

> <Gold.PLP.part.nonpolar>
-25.0700

> <Gold.PLP.part.repulsive>
0.1146

> <Gold.PLP.ligand.clash>
0.0000

> <Gold.PLP.ligand.torsion>
0.2286

> <Gold.PLP.Chemscore.Hbond>
4.6720

> <Gold.PLP.Chemscore.CHOScore>
0.0000

> <Gold.PLP.Chemscore.Metal>
0.0000

> <Gold.Chemscore.Hbonds>
donor molecule, donor type, donor heavy atom, donor atom, acceptor molecule, acceptor atom, score
      L1  H     6    42       P1  7948  1.14
      L1  H    10    36       P1  7948  1.00
      P1  H  8011  8017       L1    17  0.03

> <Gold.PLP.Chemscore.Internal.Correction>
0.0683

> <Gold.Rescore>
     Score         DG    S(hbond)    S(metal)    S(lipo)     H(rot)  DE(clash)    DE(int)     intcor
     13.96     -14.70       2.88        0.00      54.49       2.64       0.24       0.49       ----

> <Gold.Chemscore.Fitness>
13.9620

> <Gold.Chemscore.DG>
-14.6963

> <Gold.Chemscore.ZeroCoef>
-5.4800

> <Gold.Chemscore.Hbond>
2.8770

> <Gold.Chemscore.Metal>
0.0000

> <Gold.Chemscore.Lipo>
54.4908

> <Gold.Chemscore.Internal_Hbond>
0.0000

> <Gold.Chemscore.DEClash>
0.2402

> <Gold.Chemscore.DEInternal>
0.4940

> <Gold.Chemscore.Rot>
2.6439

> <Gold.Chemscore.Internal.Correction>
   9.000000E+99

> <Gold.Chemscore.Hbonds>
donor molecule, donor type, donor heavy atom, donor atom, acceptor molecule, acceptor atom, score
      L1  H     6    42       P1  7948  0.51
      L1  H    10    36       P1  7948  0.35

> <Gold.Chemscore.Hbond.Weighted>
-9.6093

> <Gold.Chemscore.Metal.Weighted>
-0.0000

> <Gold.Chemscore.Lipo.Weighted>
-6.3754

> <Gold.Chemscore.Internal_Hbond.Weighted>
0.0000

> <Gold.Chemscore.DEClash.Weighted>
0.2402

> <Gold.Chemscore.DEInternal.Weighted>
0.4940

> <Gold.Chemscore.Rot.Weighted>
6.7685

> <Gold.Chemscore.Internal.Correction.Weighted>
   9.000000E+99

> <Gold.Protein.RotatedTorsions>
[ 6907 6896 6895 6894 ] final   33.02 input  -60.11 | X-H torsion
[ 7974 7965 7964 7962 ] final -152.64 input  175.53 | X-H torsion
[ 8008 7997 7996 7995 ] final   80.04 input   59.86 | X-H torsion
[ 10167 10162 10161 10158 ] final  159.76 input  -65.29 | X-H torsion
[ 10718 10713 10712 10709 ] final  -51.62 input   66.30 | X-H torsion
[ 10763 10752 10751 10750 ] final   49.94 input  -60.55 | X-H torsion
[ 11005 11000 10999 10996 ] final  117.34 input  -57.11 | X-H torsion

> <Gold.Protein.ActiveResidues>
 VAL166  LYS551  ARG553  GLY616  TRP617  ASP618  TYR619  PRO620  LYS621  CYS622 
 ASP623  PHE694  ASN695  SER759  ASP760  ASP761  ALA762  ILE779  LEU786  VAL792 
 PHE793  MET794  SER795  GLU796  ALA797  LYS798  CYS799  TRP800  GLU811  SER814 

> <Gold.Protein.RotatedAtoms>
  152.0826  134.9461  160.0573 H   0  0  0  0  0  0  0  0  0  0  0  0  # atno 6907 bound_to 6896
  152.0744  133.4117  159.4481 H   0  0  0  0  0  0  0  0  0  0  0  0  # atno 6908 bound_to 6896
  150.6836  134.2975  159.4736 H   0  0  0  0  0  0  0  0  0  0  0  0  # atno 6909 bound_to 6896
  144.7783  140.4635  143.5857 H   0  0  0  0  0  0  0  0  0  0  0  0  # atno 7974 bound_to 7965
  155.8780  140.3445  155.5867 H   0  0  0  0  0  0  0  0  0  0  0  0  # atno 8008 bound_to 7997
  155.7752  140.0851  157.2106 H   0  0  0  0  0  0  0  0  0  0  0  0  # atno 8009 bound_to 7997
  154.4022  140.1511  156.2976 H   0  0  0  0  0  0  0  0  0  0  0  0  # atno 8010 bound_to 7997
  139.4835  144.4699  151.8590 H   0  0  0  0  0  0  0  0  0  0  0  0  # atno 10167 bound_to 10162
  156.1694  130.4149  149.9670 H   0  0  0  0  0  0  0  0  0  0  0  0  # atno 10718 bound_to 10713
  152.9785  135.5895  154.4171 H   0  0  0  0  0  0  0  0  0  0  0  0  # atno 10763 bound_to 10752
  154.3799  135.2767  155.2219 H   0  0  0  0  0  0  0  0  0  0  0  0  # atno 10764 bound_to 10752
  154.4137  135.6075  153.6023 H   0  0  0  0  0  0  0  0  0  0  0  0  # atno 10765 bound_to 10752
  139.9071  134.9609  156.7336 H   0  0  0  0  0  0  0  0  0  0  0  0  # atno 11005 bound_to 11000
  145.6122  139.1514  143.3069 LP  0  0  0  0  0  0  0  0  0  0  0  0  # atno 17320 bound_to 7965
  146.1977  140.6237  142.9117 LP  0  0  0  0  0  0  0  0  0  0  0  0  # atno 17321 bound_to 7965
  140.4167  144.2297  150.5887 LP  0  0  0  0  0  0  0  0  0  0  0  0  # atno 17342 bound_to 10162
  140.4914  143.2346  151.8813 LP  0  0  0  0  0  0  0  0  0  0  0  0  # atno 17343 bound_to 10162
  156.7475  130.9103  151.3635 LP  0  0  0  0  0  0  0  0  0  0  0  0  # atno 17370 bound_to 10713
  157.6792  130.9123  150.0224 LP  0  0  0  0  0  0  0  0  0  0  0  0  # atno 17371 bound_to 10713
  140.6905  133.9394  155.7963 LP  0  0  0  0  0  0  0  0  0  0  0  0  # atno 17394 bound_to 11000
  141.0445  134.0574  157.3861 LP  0  0  0  0  0  0  0  0  0  0  0  0  # atno 17395 bound_to 11000

$$$$
