AV-unprocessed.smi:1599|AV-procd|sdf|6426|dock9
  -GOLD-   22720 7 73D 1   1.00000     0.00000
 Structure written by MMmdl.
 39 40  0  0  0  0  0  0  0  0  1 V2000
  143.8010  135.8433  152.1978 C   0  0  0  0  0  0  0  0  0  0  0  0
  144.9119  135.8586  151.1335 C   0  0  1  0  0  0  0  0  0  0  0  0
  146.1082  136.4917  151.6829 N   0  0  0  0  0  0  0  0  0  0  0  0
  146.1575  137.7176  152.2234 C   0  0  0  0  0  0  0  0  0  0  0  0
  145.1759  138.4517  152.3392 O   0  0  0  0  0  0  0  0  0  0  0  0
  147.4040  138.0284  152.6154 N   0  0  0  0  0  0  0  0  0  0  0  0
  147.8403  139.2371  153.2144 C   0  0  0  0  0  0  0  0  0  0  0  0
  147.2204  140.5008  153.0334 C   0  0  0  0  0  0  0  0  0  0  0  0
  147.8470  141.4448  153.7194 N   0  0  0  0  0  0  0  0  0  0  0  0
  148.8697  140.8073  154.3428 N   0  0  0  0  0  0  0  0  0  0  0  0
  149.7752  141.5601  155.1963 C   0  0  0  0  0  0  0  0  0  0  0  0
  150.8287  140.6769  155.8775 C   0  0  0  0  0  0  0  0  0  0  0  0
  150.8489  140.7010  157.2125 N   0  0  0  0  0  0  0  0  0  0  0  0
  151.6124  139.9862  155.2274 O   0  0  0  0  0  0  0  0  0  0  0  0
  148.8933  139.4560  154.0568 C   0  0  0  0  0  0  0  0  0  0  0  0
  145.2714  134.4436  150.6423 C   0  0  1  0  0  0  0  0  0  0  0  0
  145.7803  133.4963  151.7303 C   0  0  0  0  0  0  0  0  0  0  0  0
  145.4245  132.1141  151.2033 C   0  0  0  0  0  0  0  0  0  0  0  0
  144.4415  132.3896  150.0624 C   0  0  0  0  0  0  0  0  0  0  0  0
  144.1117  133.7653  150.1837 O   0  0  0  0  0  0  0  0  0  0  0  0
  142.8795  135.4151  151.8034 H   0  0  0  0  0  0  0  0  0  0  0  0
  143.5669  136.8523  152.5390 H   0  0  0  0  0  0  0  0  0  0  0  0
  144.0943  135.2574  153.0694 H   0  0  0  0  0  0  0  0  0  0  0  0
  144.5639  136.4368  150.2756 H   0  0  0  0  0  0  0  0  0  0  0  0
  146.9659  135.9624  151.6262 H   0  0  0  0  0  0  0  0  0  0  0  0
  148.1164  137.3294  152.4643 H   0  0  0  0  0  0  0  0  0  0  0  0
  146.3549  140.7596  152.4416 H   0  0  0  0  0  0  0  0  0  0  0  0
  150.2742  142.3288  154.6041 H   0  0  0  0  0  0  0  0  0  0  0  0
  149.1835  142.0729  155.9557 H   0  0  0  0  0  0  0  0  0  0  0  0
  151.5186  140.1397  157.7183 H   0  0  0  0  0  0  0  0  0  0  0  0
  150.1909  141.2813  157.7125 H   0  0  0  0  0  0  0  0  0  0  0  0
  149.6416  138.7966  154.4706 H   0  0  0  0  0  0  0  0  0  0  0  0
  145.9952  134.4940  149.8262 H   0  0  0  0  0  0  0  0  0  0  0  0
  146.8472  133.6124  151.9231 H   0  0  0  0  0  0  0  0  0  0  0  0
  145.2491  133.6754  152.6660 H   0  0  0  0  0  0  0  0  0  0  0  0
  146.3040  131.5855  150.8341 H   0  0  0  0  0  0  0  0  0  0  0  0
  144.9712  131.5062  151.9869 H   0  0  0  0  0  0  0  0  0  0  0  0
  144.9176  132.2191  149.0958 H   0  0  0  0  0  0  0  0  0  0  0  0
  143.5495  131.7654  150.1175 H   0  0  0  0  0  0  0  0  0  0  0  0
  1  2  1  0  0  0  0
  1 21  1  0  0  0  0
  1 22  1  0  0  0  0
  1 23  1  0  0  0  0
  2  3  1  0  0  0  0
  2 16  1  0  0  0  0
  2 24  1  0  0  0  0
  3  4  1  0  0  0  0
  3 25  1  0  0  0  0
  4  5  2  0  0  0  0
  4  6  1  0  0  0  0
  6  7  1  0  0  0  0
  6 26  1  0  0  0  0
  7 15  2  0  0  0  0
  7  8  1  0  0  0  0
  8  9  2  0  0  0  0
  8 27  1  0  0  0  0
  9 10  1  0  0  0  0
 10 11  1  0  0  0  0
 10 15  1  0  0  0  0
 11 12  1  0  0  0  0
 11 28  1  0  0  0  0
 11 29  1  0  0  0  0
 12 13  1  0  0  0  0
 12 14  2  0  0  0  0
 13 30  1  0  0  0  0
 13 31  1  0  0  0  0
 15 32  1  0  0  0  0
 16 20  1  0  0  0  0
 16 17  1  0  0  0  0
 16 33  1  0  0  0  0
 17 18  1  0  0  0  0
 17 34  1  0  0  0  0
 17 35  1  0  0  0  0
 18 19  1  0  0  0  0
 18 36  1  0  0  0  0
 18 37  1  0  0  0  0
 19 20  1  0  0  0  0
 19 38  1  0  0  0  0
 19 39  1  0  0  0  0
M  END
> <s_m_source_file>
AV-unprocessed.smi

> <i_m_source_file_index>
1599

> <i_lp_mmshare_version>
43012

> <i_f3d_flags>
0

> <s_epik_input>
TzFbQ0gyXVtDSDJdW0NIMl1bQ0BIXTFbQ0BIXShbQ0gzXSlbTkhdQyg9TylbTkhdYzJbY0hdbm4oW2NIXTIpW0NIMl1DKD1PKVtOSDJd

> <s_epik_cmdline>
J2VwaWtfcHl0aG9uJywgJy1waCcsICc3LjAnLCAnLXRuJywgJzgnLCAnLW1hJywgJzIwMCcsICctbWV0YWxfYmluZGluZycsICctaW1hZScsICc8aW5maWxlLm1hZT4nLCAnLW9tYWUnLCAnPG91dGZpbGUubWFlPic=

> <r_lp_tautomer_probability>
1

> <r_epik_Ionization_Penalty>
4.15391e-05

> <r_epik_Ionization_Penalty_Charging>
0

> <r_epik_Ionization_Penalty_Neutral>
4.15391e-05

> <r_epik_State_Penalty>
-0

> <r_epik_Charging_Adjusted_Penalty>
0

> <i_epik_Tot_Q>
0

> <i_epik_Tot_abs_Q>
0

> <r_epik_Metal_State_Penalty>
-0

> <b_epik_Metal_Only>
0

> <s_lp_Force_Field>
OPLS_2005

> <r_lp_Energy>
23.4533

> <b_lp_Chiralities_Consistent>
1

> <s_lp_Variant>
AV-unprocessed.smi:1599-4

> <Gold.Version>
5.8.1

> <Gold.Id.Protein>
6NUR|6NUR_protein|mol2

> <Gold.PLP.Fitness>
43.7453

> <Gold.PLP.PLP>
-32.6133

> <Gold.PLP.part.hbond>
-2.9367

> <Gold.PLP.part.metal>
0.0000

> <Gold.PLP.part.buried>
-4.5608

> <Gold.PLP.part.nonpolar>
-29.2243

> <Gold.PLP.part.repulsive>
3.7838

> <Gold.PLP.ligand.clash>
0.0000

> <Gold.PLP.ligand.torsion>
0.1908

> <Gold.PLP.Chemscore.Hbond>
2.8240

> <Gold.PLP.Chemscore.CHOScore>
1.0000

> <Gold.PLP.Chemscore.Metal>
0.0000

> <Gold.Chemscore.Hbonds>
donor molecule, donor type, donor heavy atom, donor atom, acceptor molecule, acceptor atom, score
      L1  H     3    25       P1  7948  0.80
      L1  H     6    26       P1  7948  0.91
      P1  H  7989  7998       L1    14  1.00
      L1  C     8    27       P1 10175  0.63

> <Gold.PLP.Chemscore.Internal.Correction>
0.0417

> <Gold.Rescore>
     Score         DG    S(hbond)    S(metal)    S(lipo)     H(rot)  DE(clash)    DE(int)     intcor
     11.87     -16.53       2.76        0.00      65.53       2.28       1.70       2.95       ----

> <Gold.Chemscore.Fitness>
11.8748

> <Gold.Chemscore.DG>
-16.5278

> <Gold.Chemscore.ZeroCoef>
-5.4800

> <Gold.Chemscore.Hbond>
2.7614

> <Gold.Chemscore.Metal>
0.0000

> <Gold.Chemscore.Lipo>
65.5344

> <Gold.Chemscore.Internal_Hbond>
0.0000

> <Gold.Chemscore.DEClash>
1.7003

> <Gold.Chemscore.DEInternal>
2.9527

> <Gold.Chemscore.Rot>
2.2823

> <Gold.Chemscore.Internal.Correction>
   9.000000E+99

> <Gold.Chemscore.Hbonds>
donor molecule, donor type, donor heavy atom, donor atom, acceptor molecule, acceptor atom, score
      L1  H     3    25       P1  7948  0.77
      L1  H     6    26       P1  7948  0.87
      P1  H  7989  7998       L1    14  0.38

> <Gold.Chemscore.Hbond.Weighted>
-9.2230

> <Gold.Chemscore.Metal.Weighted>
-0.0000

> <Gold.Chemscore.Lipo.Weighted>
-7.6675

> <Gold.Chemscore.Internal_Hbond.Weighted>
0.0000

> <Gold.Chemscore.DEClash.Weighted>
1.7003

> <Gold.Chemscore.DEInternal.Weighted>
2.9527

> <Gold.Chemscore.Rot.Weighted>
5.8427

> <Gold.Chemscore.Internal.Correction.Weighted>
   9.000000E+99

> <Gold.Protein.RotatedTorsions>
[ 6907 6896 6895 6894 ] final   73.27 input  -60.11 | X-H torsion
[ 7974 7965 7964 7962 ] final  -24.59 input  175.53 | X-H torsion
[ 8008 7997 7996 7995 ] final -130.85 input   59.86 | X-H torsion
[ 10167 10162 10161 10158 ] final -140.74 input  -65.29 | X-H torsion
[ 10718 10713 10712 10709 ] final  -16.46 input   66.30 | X-H torsion
[ 10763 10752 10751 10750 ] final  157.37 input  -60.55 | X-H torsion
[ 11005 11000 10999 10996 ] final -132.79 input  -57.11 | X-H torsion

> <Gold.Protein.ActiveResidues>
 VAL166  LYS551  ARG553  GLY616  TRP617  ASP618  TYR619  PRO620  LYS621  CYS622 
 ASP623  PHE694  ASN695  SER759  ASP760  ASP761  ALA762  ILE779  LEU786  VAL792 
 PHE793  MET794  SER795  GLU796  ALA797  LYS798  CYS799  TRP800  GLU811  SER814 

> <Gold.Protein.RotatedAtoms>
  152.4914  134.4447  159.9554 H   0  0  0  0  0  0  0  0  0  0  0  0  # atno 6907 bound_to 6896
  151.4434  133.3631  159.2793 H   0  0  0  0  0  0  0  0  0  0  0  0  # atno 6908 bound_to 6896
  150.9072  134.8511  159.7460 H   0  0  0  0  0  0  0  0  0  0  0  0  # atno 6909 bound_to 6896
  146.1545  140.4772  142.8597 H   0  0  0  0  0  0  0  0  0  0  0  0  # atno 7974 bound_to 7965
  155.3027  140.0453  157.3030 H   0  0  0  0  0  0  0  0  0  0  0  0  # atno 8008 bound_to 7997
  154.5477  140.2308  155.8502 H   0  0  0  0  0  0  0  0  0  0  0  0  # atno 8009 bound_to 7997
  156.1939  140.3043  155.9395 H   0  0  0  0  0  0  0  0  0  0  0  0  # atno 8010 bound_to 7997
  139.8252  143.7520  152.2666 H   0  0  0  0  0  0  0  0  0  0  0  0  # atno 10167 bound_to 10162
  156.5873  130.4790  149.6294 H   0  0  0  0  0  0  0  0  0  0  0  0  # atno 10718 bound_to 10713
  154.1992  135.2791  155.2996 H   0  0  0  0  0  0  0  0  0  0  0  0  # atno 10763 bound_to 10752
  154.5867  135.5572  153.7242 H   0  0  0  0  0  0  0  0  0  0  0  0  # atno 10764 bound_to 10752
  153.0092  135.6358  154.2131 H   0  0  0  0  0  0  0  0  0  0  0  0  # atno 10765 bound_to 10752
  140.9139  134.1532  157.4368 H   0  0  0  0  0  0  0  0  0  0  0  0  # atno 11005 bound_to 11000
  144.7945  140.6097  143.6519 LP  0  0  0  0  0  0  0  0  0  0  0  0  # atno 17320 bound_to 7965
  145.4743  139.1500  143.3797 LP  0  0  0  0  0  0  0  0  0  0  0  0  # atno 17321 bound_to 7965
  139.7711  144.7476  151.0223 LP  0  0  0  0  0  0  0  0  0  0  0  0  # atno 17342 bound_to 10162
  140.7810  143.4644  151.0232 LP  0  0  0  0  0  0  0  0  0  0  0  0  # atno 17343 bound_to 10162
  156.2580  130.6945  151.1705 LP  0  0  0  0  0  0  0  0  0  0  0  0  # atno 17370 bound_to 10713
  157.7312  131.0610  150.5689 LP  0  0  0  0  0  0  0  0  0  0  0  0  # atno 17371 bound_to 10713
  139.8762  134.9946  156.5702 LP  0  0  0  0  0  0  0  0  0  0  0  0  # atno 17394 bound_to 11000
  140.8075  133.8455  155.8781 LP  0  0  0  0  0  0  0  0  0  0  0  0  # atno 17395 bound_to 11000

$$$$
