AV-unprocessed.smi:94|AV-procd|sdf|854|dock6
  -GOLD-   2262017303D 1   1.00000     0.00000
 Structure written by MMmdl.
 53 55  0  0  0  0  0  0  0  0  1 V2000
  151.7753  143.3275  157.1012 C   0  0  0  0  0  0  0  0  0  0  0  0
  152.3871  142.4051  157.9907 O   0  0  0  0  0  0  0  0  0  0  0  0
  152.4838  142.7420  159.3261 C   0  0  0  0  0  0  0  0  0  0  0  0
  152.1084  144.0120  159.8347 C   0  0  0  0  0  0  0  0  0  0  0  0
  152.2421  144.3076  161.2035 C   0  0  0  0  0  0  0  0  0  0  0  0
  152.7587  143.3426  162.0867 C   0  0  0  0  0  0  0  0  0  0  0  0
  152.9141  143.6582  163.5602 C   0  0  0  0  0  0  0  0  0  0  0  0
  153.1298  142.0776  161.5939 C   0  0  0  0  0  0  0  0  0  0  0  0
  152.9883  141.7640  160.2213 C   0  0  0  0  0  0  0  0  0  0  0  0
  153.4091  140.3889  159.6994 C   0  0  1  0  0  0  0  0  0  0  0  0
  154.2323  139.6328  160.7556 C   0  0  0  0  0  0  0  0  0  0  0  0
  152.2671  139.5804  159.2721 N   0  0  0  0  0  0  0  0  0  0  0  0
  152.3216  138.3132  158.8337 C   0  0  0  0  0  0  0  0  0  0  0  0
  153.3692  137.6700  158.7538 O   0  0  0  0  0  0  0  0  0  0  0  0
  150.9799  137.6948  158.4125 C   0  0  0  0  0  0  0  0  0  0  0  0
  150.9462  137.2687  156.9963 N   0  0  0  0  0  0  0  0  0  0  0  0
  151.3704  138.1882  156.0048 C   0  0  0  0  0  0  0  0  0  0  0  0
  151.7665  139.3150  156.3066 O   0  0  0  0  0  0  0  0  0  0  0  0
  151.2954  137.7105  154.6287 C   0  0  0  0  0  0  0  0  0  0  0  0
  151.6717  138.5176  153.6223 F   0  0  0  0  0  0  0  0  0  0  0  0
  150.8490  136.4693  154.3481 C   0  0  0  0  0  0  0  0  0  0  0  0
  150.4409  135.5815  155.3262 N   0  0  0  0  0  0  0  0  0  0  0  0
  149.9281  134.2062  154.9647 C   0  0  1  0  0  0  0  0  0  0  0  0
  148.4585  134.0623  155.3782 C   0  0  0  0  0  0  0  0  0  0  0  0
  147.7349  134.3507  154.0799 C   0  0  0  0  0  0  0  0  0  0  0  0
  148.7028  133.7717  153.0553 C   0  0  0  0  0  0  0  0  0  0  0  0
  149.9993  134.0471  153.5766 O   0  0  0  0  0  0  0  0  0  0  0  0
  150.4667  135.9744  156.6822 C   0  0  0  0  0  0  0  0  0  0  0  0
  150.0704  135.2127  157.5671 O   0  0  0  0  0  0  0  0  0  0  0  0
  151.7824  142.9128  156.0933 H   0  0  0  0  0  0  0  0  0  0  0  0
  152.3176  144.2735  157.0711 H   0  0  0  0  0  0  0  0  0  0  0  0
  150.7353  143.5135  157.3725 H   0  0  0  0  0  0  0  0  0  0  0  0
  151.7150  144.7850  159.1924 H   0  0  0  0  0  0  0  0  0  0  0  0
  151.9510  145.2811  161.5706 H   0  0  0  0  0  0  0  0  0  0  0  0
  153.8411  143.2350  163.9478 H   0  0  0  0  0  0  0  0  0  0  0  0
  152.0815  143.2376  164.1243 H   0  0  0  0  0  0  0  0  0  0  0  0
  152.9373  144.7347  163.7322 H   0  0  0  0  0  0  0  0  0  0  0  0
  153.5329  141.3493  162.2821 H   0  0  0  0  0  0  0  0  0  0  0  0
  154.0368  140.5442  158.8204 H   0  0  0  0  0  0  0  0  0  0  0  0
  155.1175  140.2017  161.0419 H   0  0  0  0  0  0  0  0  0  0  0  0
  154.5730  138.6674  160.3807 H   0  0  0  0  0  0  0  0  0  0  0  0
  153.6475  139.4519  161.6579 H   0  0  0  0  0  0  0  0  0  0  0  0
  151.3629  140.0286  159.3006 H   0  0  0  0  0  0  0  0  0  0  0  0
  150.7530  136.8542  159.0709 H   0  0  0  0  0  0  0  0  0  0  0  0
  150.1914  138.4174  158.6279 H   0  0  0  0  0  0  0  0  0  0  0  0
  150.8087  136.1695  153.3115 H   0  0  0  0  0  0  0  0  0  0  0  0
  150.5933  133.4874  155.4455 H   0  0  0  0  0  0  0  0  0  0  0  0
  148.2850  133.0320  155.6909 H   0  0  0  0  0  0  0  0  0  0  0  0
  148.1890  134.7309  156.1970 H   0  0  0  0  0  0  0  0  0  0  0  0
  146.7434  133.8999  154.0319 H   0  0  0  0  0  0  0  0  0  0  0  0
  147.6289  135.4267  153.9364 H   0  0  0  0  0  0  0  0  0  0  0  0
  148.5760  132.6908  152.9814 H   0  0  0  0  0  0  0  0  0  0  0  0
  148.5710  134.1996  152.0614 H   0  0  0  0  0  0  0  0  0  0  0  0
  1  2  1  0  0  0  0
  1 30  1  0  0  0  0
  1 31  1  0  0  0  0
  1 32  1  0  0  0  0
  2  3  1  0  0  0  0
  3  9  1  0  0  0  0
  3  4  2  0  0  0  0
  4  5  1  0  0  0  0
  4 33  1  0  0  0  0
  5  6  2  0  0  0  0
  5 34  1  0  0  0  0
  6  7  1  0  0  0  0
  6  8  1  0  0  0  0
  7 35  1  0  0  0  0
  7 36  1  0  0  0  0
  7 37  1  0  0  0  0
  8  9  2  0  0  0  0
  8 38  1  0  0  0  0
  9 10  1  0  0  0  0
 10 11  1  0  0  0  0
 10 12  1  0  0  0  0
 10 39  1  0  0  0  0
 11 40  1  0  0  0  0
 11 41  1  0  0  0  0
 11 42  1  0  0  0  0
 12 13  1  0  0  0  0
 12 43  1  0  0  0  0
 13 14  2  0  0  0  0
 13 15  1  0  0  0  0
 15 16  1  0  0  0  0
 15 44  1  0  0  0  0
 15 45  1  0  0  0  0
 16 28  1  0  0  0  0
 16 17  1  0  0  0  0
 17 18  2  0  0  0  0
 17 19  1  0  0  0  0
 19 20  1  0  0  0  0
 19 21  2  0  0  0  0
 21 22  1  0  0  0  0
 21 46  1  0  0  0  0
 22 23  1  0  0  0  0
 22 28  1  0  0  0  0
 23 27  1  0  0  0  0
 23 24  1  0  0  0  0
 23 47  1  0  0  0  0
 24 25  1  0  0  0  0
 24 48  1  0  0  0  0
 24 49  1  0  0  0  0
 25 26  1  0  0  0  0
 25 50  1  0  0  0  0
 25 51  1  0  0  0  0
 26 27  1  0  0  0  0
 26 52  1  0  0  0  0
 26 53  1  0  0  0  0
 28 29  2  0  0  0  0
M  END
> <s_m_source_file>
AV-unprocessed.smi

> <i_m_source_file_index>
94

> <i_lp_mmshare_version>
43012

> <i_f3d_flags>
0

> <s_epik_input>
W0NIM11PYzFbY0hdW2NIXWMoW0NIM10pW2NIXWMxW0NASF0oW0NIM10pW05IXUMoPU8pW0NIMl1uMmMoPU8pYyhGKVtjSF1uKGMyPU8pW0NAQEhdM1tDSDJdW0NIMl1bQ0gyXU8z

> <s_epik_cmdline>
J2VwaWtfcHl0aG9uJywgJy1waCcsICc3LjAnLCAnLXRuJywgJzgnLCAnLW1hJywgJzIwMCcsICctbWV0YWxfYmluZGluZycsICctaW1hZScsICc8aW5maWxlLm1hZT4nLCAnLW9tYWUnLCAnPG91dGZpbGUubWFlPic=

> <r_lp_tautomer_probability>
1

> <r_epik_Ionization_Penalty>
3.37009e-08

> <r_epik_Ionization_Penalty_Charging>
3.59856e-09

> <r_epik_Ionization_Penalty_Neutral>
3.01024e-08

> <r_epik_State_Penalty>
-0

> <r_epik_Charging_Adjusted_Penalty>
3.59856e-09

> <i_epik_Tot_Q>
0

> <i_epik_Tot_abs_Q>
0

> <r_epik_Metal_State_Penalty>
-0

> <b_epik_Metal_Only>
0

> <s_epik_Chemistry_Notes>
This compound contains an acetal/aminal-like group ( X-CH(R)-Y where X, Y are N, S, or O) that may be acid/base labile, releasing an aldehyde.

> <s_lp_Force_Field>
OPLS_2005

> <r_lp_Energy>
32.8189

> <b_lp_Chiralities_Consistent>
1

> <s_lp_Variant>
AV-unprocessed.smi:94-4

> <Gold.Version>
5.8.1

> <Gold.Id.Protein>
6NUR|6NUR_protein|mol2

> <Gold.PLP.Fitness>
52.4603

> <Gold.PLP.PLP>
-50.0234

> <Gold.PLP.part.hbond>
-0.7690

> <Gold.PLP.part.metal>
0.0000

> <Gold.PLP.part.buried>
-7.1161

> <Gold.PLP.part.nonpolar>
-42.3058

> <Gold.PLP.part.repulsive>
0.3044

> <Gold.PLP.ligand.clash>
0.0000

> <Gold.PLP.ligand.torsion>
0.4191

> <Gold.PLP.Chemscore.Hbond>
0.5440

> <Gold.PLP.Chemscore.CHOScore>
0.5262

> <Gold.PLP.Chemscore.Metal>
0.0000

> <Gold.Chemscore.Hbonds>
donor molecule, donor type, donor heavy atom, donor atom, acceptor molecule, acceptor atom, score
      P1  H  6896  6909       L1    29  0.28
      L1  C    21    46       P1  7949  0.36

> <Gold.PLP.Chemscore.Internal.Correction>
0.0646

> <Gold.Rescore>
     Score         DG    S(hbond)    S(metal)    S(lipo)     H(rot)  DE(clash)    DE(int)     intcor
     11.86     -16.43       0.47        0.00     131.22       2.34       0.25       4.32       ----

> <Gold.Chemscore.Fitness>
11.8594

> <Gold.Chemscore.DG>
-16.4313

> <Gold.Chemscore.ZeroCoef>
-5.4800

> <Gold.Chemscore.Hbond>
0.4734

> <Gold.Chemscore.Metal>
0.0000

> <Gold.Chemscore.Lipo>
131.2190

> <Gold.Chemscore.Internal_Hbond>
0.0000

> <Gold.Chemscore.DEClash>
0.2543

> <Gold.Chemscore.DEInternal>
4.3175

> <Gold.Chemscore.Rot>
2.3370

> <Gold.Chemscore.Internal.Correction>
   9.000000E+99

> <Gold.Chemscore.Hbonds>
donor molecule, donor type, donor heavy atom, donor atom, acceptor molecule, acceptor atom, score
      P1  H  6896  6909       L1    29  0.28

> <Gold.Chemscore.Hbond.Weighted>
-1.5813

> <Gold.Chemscore.Metal.Weighted>
-0.0000

> <Gold.Chemscore.Lipo.Weighted>
-15.3526

> <Gold.Chemscore.Internal_Hbond.Weighted>
0.0000

> <Gold.Chemscore.DEClash.Weighted>
0.2543

> <Gold.Chemscore.DEInternal.Weighted>
4.3175

> <Gold.Chemscore.Rot.Weighted>
5.9827

> <Gold.Chemscore.Internal.Correction.Weighted>
   9.000000E+99

> <Gold.Protein.RotatedTorsions>
[ 6907 6896 6895 6894 ] final    8.85 input  -60.11 | X-H torsion
[ 7974 7965 7964 7962 ] final   42.38 input  175.53 | X-H torsion
[ 8008 7997 7996 7995 ] final  106.17 input   59.86 | X-H torsion
[ 10167 10162 10161 10158 ] final  138.53 input  -65.29 | X-H torsion
[ 10718 10713 10712 10709 ] final -155.06 input   66.30 | X-H torsion
[ 10763 10752 10751 10750 ] final  147.71 input  -60.55 | X-H torsion
[ 11005 11000 10999 10996 ] final  -37.42 input  -57.11 | X-H torsion

> <Gold.Protein.ActiveResidues>
 VAL166  LYS551  ARG553  GLY616  TRP617  ASP618  TYR619  PRO620  LYS621  CYS622 
 ASP623  PHE694  ASN695  SER759  ASP760  ASP761  ALA762  ILE779  LEU786  VAL792 
 PHE793  MET794  SER795  GLU796  ALA797  LYS798  CYS799  TRP800  GLU811  SER814 

> <Gold.Protein.RotatedAtoms>
  151.7127  135.0909  160.0270 H   0  0  0  0  0  0  0  0  0  0  0  0  # atno 6907 bound_to 6896
  152.3651  133.6342  159.6053 H   0  0  0  0  0  0  0  0  0  0  0  0  # atno 6908 bound_to 6896
  150.7632  133.9277  159.3458 H   0  0  0  0  0  0  0  0  0  0  0  0  # atno 6909 bound_to 6896
  146.0745  139.5306  142.9577 H   0  0  0  0  0  0  0  0  0  0  0  0  # atno 7974 bound_to 7965
  156.1720  140.3117  155.8991 H   0  0  0  0  0  0  0  0  0  0  0  0  # atno 8008 bound_to 7997
  155.3566  140.0474  157.3063 H   0  0  0  0  0  0  0  0  0  0  0  0  # atno 8009 bound_to 7997
  154.5251  140.2211  155.8915 H   0  0  0  0  0  0  0  0  0  0  0  0  # atno 8010 bound_to 7997
  139.5108  144.6348  151.5725 H   0  0  0  0  0  0  0  0  0  0  0  0  # atno 10167 bound_to 10162
  156.5077  130.8420  151.2634 H   0  0  0  0  0  0  0  0  0  0  0  0  # atno 10718 bound_to 10713
  154.0429  135.2888  155.3352 H   0  0  0  0  0  0  0  0  0  0  0  0  # atno 10763 bound_to 10752
  154.6918  135.5223  153.8406 H   0  0  0  0  0  0  0  0  0  0  0  0  # atno 10764 bound_to 10752
  153.0592  135.6607  154.0632 H   0  0  0  0  0  0  0  0  0  0  0  0  # atno 10765 bound_to 10752
  140.9950  133.6985  156.1918 H   0  0  0  0  0  0  0  0  0  0  0  0  # atno 11005 bound_to 11000
  145.6332  141.0300  143.1852 LP  0  0  0  0  0  0  0  0  0  0  0  0  # atno 17320 bound_to 7965
  144.7252  139.7898  143.7367 LP  0  0  0  0  0  0  0  0  0  0  0  0  # atno 17321 bound_to 7965
  140.6093  143.9466  150.6441 LP  0  0  0  0  0  0  0  0  0  0  0  0  # atno 17342 bound_to 10162
  140.2703  143.3461  152.1244 LP  0  0  0  0  0  0  0  0  0  0  0  0  # atno 17343 bound_to 10162
  157.7454  130.9960  150.2764 LP  0  0  0  0  0  0  0  0  0  0  0  0  # atno 17370 bound_to 10713
  156.3270  130.3794  149.7524 LP  0  0  0  0  0  0  0  0  0  0  0  0  # atno 17371 bound_to 10713
  140.6980  134.4595  157.5587 LP  0  0  0  0  0  0  0  0  0  0  0  0  # atno 17394 bound_to 11000
  139.9010  134.8556  156.1895 LP  0  0  0  0  0  0  0  0  0  0  0  0  # atno 17395 bound_to 11000

$$$$
