AV-unprocessed.smi:3172|AV-procd|sdf|12116|dock8
  -GOLD-   2272017553D 1   1.00000     0.00000
 Structure written by MMmdl.
 43 44  0  0  0  0  0  0  0  0  2 V2000
  151.2500  135.6385  155.8205 C   0  0  0  0  0  0  0  0  0  0  0  0
  151.2078  137.0890  155.4511 C   0  0  0  0  0  0  0  0  0  0  0  0
  150.5821  137.5208  154.2844 N   0  0  0  0  0  0  0  0  0  0  0  0
  150.7474  138.8355  154.3048 C   0  0  0  0  0  0  0  0  0  0  0  0
  151.4255  139.2953  155.3658 N   0  0  0  0  0  0  0  0  0  0  0  0
  151.7576  140.6829  155.6442 C   0  0  0  0  0  0  0  0  0  0  0  0
  150.5161  141.5636  155.8932 C   0  0  1  0  0  0  0  0  0  0  0  0
  149.5578  140.9691  156.9395 C   0  0  0  0  0  0  0  0  0  0  0  0
  150.9485  142.9151  156.3154 N   0  3  0  0  0  0  0  0  0  0  0  0
  151.1991  143.0938  157.7635 C   0  0  0  0  0  0  0  0  0  0  0  0
  151.8068  144.4866  158.0168 C   0  0  0  0  0  0  0  0  0  0  0  0
  152.1070  144.7110  159.5075 C   0  0  0  0  0  0  0  0  0  0  0  0
  153.0259  143.6109  160.0602 C   0  0  0  0  0  0  0  0  0  0  0  0
  152.4290  142.2166  159.8144 C   0  0  0  0  0  0  0  0  0  0  0  0
  152.1264  141.9930  158.3236 C   0  0  0  0  0  0  0  0  0  0  0  0
  151.7267  138.1702  156.1317 C   0  0  0  0  0  0  0  0  0  0  0  0
  152.4735  138.2213  157.4261 C   0  0  0  0  0  0  0  0  0  0  0  0
  150.7110  135.4553  156.7502 H   0  0  0  0  0  0  0  0  0  0  0  0
  152.2767  135.2989  155.9598 H   0  0  0  0  0  0  0  0  0  0  0  0
  150.7982  135.0135  155.0492 H   0  0  0  0  0  0  0  0  0  0  0  0
  150.3709  139.4800  153.5237 H   0  0  0  0  0  0  0  0  0  0  0  0
  152.4176  140.7102  156.5128 H   0  0  0  0  0  0  0  0  0  0  0  0
  152.3382  141.0721  154.8070 H   0  0  0  0  0  0  0  0  0  0  0  0
  149.9713  141.6423  154.9522 H   0  0  0  0  0  0  0  0  0  0  0  0
  149.1549  140.0097  156.6137 H   0  0  0  0  0  0  0  0  0  0  0  0
  148.7081  141.6284  157.1184 H   0  0  0  0  0  0  0  0  0  0  0  0
  150.0612  140.8119  157.8940 H   0  0  0  0  0  0  0  0  0  0  0  0
  151.7795  143.1718  155.8019 H   0  0  0  0  0  0  0  0  0  0  0  0
  150.2390  143.0497  158.2808 H   0  0  0  0  0  0  0  0  0  0  0  0
  152.7277  144.5996  157.4425 H   0  0  0  0  0  0  0  0  0  0  0  0
  151.1254  145.2612  157.6627 H   0  0  0  0  0  0  0  0  0  0  0  0
  152.5692  145.6880  159.6509 H   0  0  0  0  0  0  0  0  0  0  0  0
  151.1733  144.7254  160.0714 H   0  0  0  0  0  0  0  0  0  0  0  0
  154.0054  143.6788  159.5851 H   0  0  0  0  0  0  0  0  0  0  0  0
  153.1883  143.7634  161.1275 H   0  0  0  0  0  0  0  0  0  0  0  0
  153.1162  141.4500  160.1736 H   0  0  0  0  0  0  0  0  0  0  0  0
  151.5117  142.1048  160.3940 H   0  0  0  0  0  0  0  0  0  0  0  0
  151.6742  141.0090  158.1978 H   0  0  0  0  0  0  0  0  0  0  0  0
  153.0622  141.9766  157.7628 H   0  0  0  0  0  0  0  0  0  0  0  0
  152.4336  137.2601  157.9387 H   0  0  0  0  0  0  0  0  0  0  0  0
  152.0494  138.9695  158.0957 H   0  0  0  0  0  0  0  0  0  0  0  0
  153.5229  138.4653  157.2611 H   0  0  0  0  0  0  0  0  0  0  0  0
  150.2105  143.5556  156.0602 H   0  0  0  0  0  0  0  0  0  0  0  0
  1  2  1  0  0  0  0
  1 18  1  0  0  0  0
  1 19  1  0  0  0  0
  1 20  1  0  0  0  0
  2 16  2  0  0  0  0
  2  3  1  0  0  0  0
  3  4  2  0  0  0  0
  4  5  1  0  0  0  0
  4 21  1  0  0  0  0
  5  6  1  0  0  0  0
  5 16  1  0  0  0  0
  6  7  1  0  0  0  0
  6 22  1  0  0  0  0
  6 23  1  0  0  0  0
  7  8  1  0  0  0  0
  7  9  1  0  0  0  0
  7 24  1  0  0  0  0
  8 25  1  0  0  0  0
  8 26  1  0  0  0  0
  8 27  1  0  0  0  0
  9 10  1  0  0  0  0
  9 28  1  0  0  0  0
  9 43  1  0  0  0  0
 10 15  1  0  0  0  0
 10 11  1  0  0  0  0
 10 29  1  0  0  0  0
 11 12  1  0  0  0  0
 11 30  1  0  0  0  0
 11 31  1  0  0  0  0
 12 13  1  0  0  0  0
 12 32  1  0  0  0  0
 12 33  1  0  0  0  0
 13 14  1  0  0  0  0
 13 34  1  0  0  0  0
 13 35  1  0  0  0  0
 14 15  1  0  0  0  0
 14 36  1  0  0  0  0
 14 37  1  0  0  0  0
 15 38  1  0  0  0  0
 15 39  1  0  0  0  0
 16 17  1  0  0  0  0
 17 40  1  0  0  0  0
 17 41  1  0  0  0  0
 17 42  1  0  0  0  0
M  CHG  1   9   1
M  END
> <s_m_source_file>
AV-unprocessed.smi

> <i_m_source_file_index>
3172

> <i_lp_mmshare_version>
43012

> <i_f3d_flags>
0

> <s_epik_input>
W0NIM11jMW5bY0hdbihjMVtDSDNdKVtDSDJdW0NASF0oW0NIM10pW05IXVtDSF0yW0NIMl1bQ0gyXVtDSDJdW0NIMl1bQ0gyXTI=

> <s_epik_cmdline>
J2VwaWtfcHl0aG9uJywgJy1waCcsICc3LjAnLCAnLXRuJywgJzgnLCAnLW1hJywgJzIwMCcsICctbWV0YWxfYmluZGluZycsICctaW1hZScsICc8aW5maWxlLm1hZT4nLCAnLW9tYWUnLCAnPG91dGZpbGUubWFlPic=

> <r_lp_tautomer_probability>
1

> <r_epik_Ionization_Penalty>
0.328572

> <r_epik_Ionization_Penalty_Charging>
0.328572

> <r_epik_Ionization_Penalty_Neutral>
3.58496e-13

> <r_epik_State_Penalty>
0.596179

> <r_epik_Charging_Adjusted_Penalty>
0.924751

> <i_epik_Tot_Q>
1

> <i_epik_Tot_abs_Q>
1

> <r_epik_Metal_State_Penalty>
0.00102252

> <b_epik_Metal_Only>
0

> <s_lp_Force_Field>
OPLS_2005

> <r_lp_Energy>
17.121

> <b_lp_Chiralities_Consistent>
1

> <s_lp_Variant>
AV-unprocessed.smi:3172-4

> <Gold.Version>
5.8.1

> <Gold.Id.Protein>
6NUR|6NUR_protein|mol2

> <Gold.PLP.Fitness>
44.7012

> <Gold.PLP.PLP>
-36.4362

> <Gold.PLP.part.hbond>
-1.0000

> <Gold.PLP.part.metal>
0.0000

> <Gold.PLP.part.buried>
-2.7442

> <Gold.PLP.part.nonpolar>
-32.1832

> <Gold.PLP.part.repulsive>
0.7799

> <Gold.PLP.ligand.clash>
0.0000

> <Gold.PLP.ligand.torsion>
0.3530

> <Gold.PLP.Chemscore.Hbond>
2.0000

> <Gold.PLP.Chemscore.CHOScore>
0.9792

> <Gold.PLP.Chemscore.Metal>
0.0000

> <Gold.Chemscore.Hbonds>
donor molecule, donor type, donor heavy atom, donor atom, acceptor molecule, acceptor atom, score
      L1  H     9    43       P1  8028  2.00
      L1  C     4    21       P1  7957  0.99

> <Gold.PLP.Chemscore.Internal.Correction>
0.0335

> <Gold.Rescore>
     Score         DG    S(hbond)    S(metal)    S(lipo)     H(rot)  DE(clash)    DE(int)     intcor
     16.75     -17.27       1.00        0.00     105.05       1.50       0.15       0.37       ----

> <Gold.Chemscore.Fitness>
16.7488

> <Gold.Chemscore.DG>
-17.2704

> <Gold.Chemscore.ZeroCoef>
-5.4800

> <Gold.Chemscore.Hbond>
0.9999

> <Gold.Chemscore.Metal>
0.0000

> <Gold.Chemscore.Lipo>
105.0455

> <Gold.Chemscore.Internal_Hbond>
0.0000

> <Gold.Chemscore.DEClash>
0.1476

> <Gold.Chemscore.DEInternal>
0.3740

> <Gold.Chemscore.Rot>
1.4999

> <Gold.Chemscore.Internal.Correction>
   9.000000E+99

> <Gold.Chemscore.Hbonds>
donor molecule, donor type, donor heavy atom, donor atom, acceptor molecule, acceptor atom, score
      L1  H     9    43       P1  8028  1.00

> <Gold.Chemscore.Hbond.Weighted>
-3.3398

> <Gold.Chemscore.Metal.Weighted>
-0.0000

> <Gold.Chemscore.Lipo.Weighted>
-12.2903

> <Gold.Chemscore.Internal_Hbond.Weighted>
0.0000

> <Gold.Chemscore.DEClash.Weighted>
0.1476

> <Gold.Chemscore.DEInternal.Weighted>
0.3740

> <Gold.Chemscore.Rot.Weighted>
3.8397

> <Gold.Chemscore.Internal.Correction.Weighted>
   9.000000E+99

> <Gold.Protein.RotatedTorsions>
[ 6907 6896 6895 6894 ] final -162.76 input  -60.11 | X-H torsion
[ 7974 7965 7964 7962 ] final  -81.48 input  175.53 | X-H torsion
[ 8008 7997 7996 7995 ] final   17.46 input   59.86 | X-H torsion
[ 10167 10162 10161 10158 ] final  -56.78 input  -65.29 | X-H torsion
[ 10718 10713 10712 10709 ] final  176.89 input   66.30 | X-H torsion
[ 10763 10752 10751 10750 ] final -157.20 input  -60.55 | X-H torsion
[ 11005 11000 10999 10996 ] final    4.80 input  -57.11 | X-H torsion

> <Gold.Protein.ActiveResidues>
 VAL166  LYS551  ARG553  GLY616  TRP617  ASP618  TYR619  PRO620  LYS621  CYS622 
 ASP623  PHE694  ASN695  SER759  ASP760  ASP761  ALA762  ILE779  LEU786  VAL792 
 PHE793  MET794  SER795  GLU796  ALA797  LYS798  CYS799  TRP800  GLU811  SER814 

> <Gold.Protein.RotatedAtoms>
  151.3854  133.3807  159.2714 H   0  0  0  0  0  0  0  0  0  0  0  0  # atno 6907 bound_to 6896
  150.9545  134.8942  159.7703 H   0  0  0  0  0  0  0  0  0  0  0  0  # atno 6908 bound_to 6896
  152.5125  134.3811  159.9403 H   0  0  0  0  0  0  0  0  0  0  0  0  # atno 6909 bound_to 6896
  145.5461  140.9503  143.1525 H   0  0  0  0  0  0  0  0  0  0  0  0  # atno 7974 bound_to 7965
  154.8917  140.2988  155.5367 H   0  0  0  0  0  0  0  0  0  0  0  0  # atno 8008 bound_to 7997
  156.3021  140.2423  156.3868 H   0  0  0  0  0  0  0  0  0  0  0  0  # atno 8009 bound_to 7997
  154.8612  140.0405  157.1655 H   0  0  0  0  0  0  0  0  0  0  0  0  # atno 8010 bound_to 7997
  140.6297  143.2454  151.5273 H   0  0  0  0  0  0  0  0  0  0  0  0  # atno 10167 bound_to 10162
  156.9134  130.9917  151.3017 H   0  0  0  0  0  0  0  0  0  0  0  0  # atno 10718 bound_to 10713
  154.7654  135.3129  154.8296 H   0  0  0  0  0  0  0  0  0  0  0  0  # atno 10763 bound_to 10752
  153.9046  135.6812  153.4758 H   0  0  0  0  0  0  0  0  0  0  0  0  # atno 10764 bound_to 10752
  153.1259  135.4801  154.9205 H   0  0  0  0  0  0  0  0  0  0  0  0  # atno 10765 bound_to 10752
  140.5779  134.0040  155.8035 H   0  0  0  0  0  0  0  0  0  0  0  0  # atno 11005 bound_to 11000
  144.7553  139.7091  143.7256 LP  0  0  0  0  0  0  0  0  0  0  0  0  # atno 17320 bound_to 7965
  146.1948  139.5209  142.9781 LP  0  0  0  0  0  0  0  0  0  0  0  0  # atno 17321 bound_to 7965
  139.5512  144.2390  152.1534 LP  0  0  0  0  0  0  0  0  0  0  0  0  # atno 17342 bound_to 10162
  140.1630  144.5008  150.6622 LP  0  0  0  0  0  0  0  0  0  0  0  0  # atno 17343 bound_to 10162
  157.5953  130.8473  149.8720 LP  0  0  0  0  0  0  0  0  0  0  0  0  # atno 17370 bound_to 10713
  156.0525  130.3715  150.1167 LP  0  0  0  0  0  0  0  0  0  0  0  0  # atno 17371 bound_to 10713
  141.1015  133.9761  157.3071 LP  0  0  0  0  0  0  0  0  0  0  0  0  # atno 17394 bound_to 11000
  139.9331  135.0198  156.8466 LP  0  0  0  0  0  0  0  0  0  0  0  0  # atno 17395 bound_to 11000

$$$$
