AV-unprocessed.smi:47|AV-procd|sdf|431|dock3
  -GOLD-   2262016303D 1   1.00000     0.00000
 Structure written by MMmdl.
 32 34  0  0  0  0  0  0  0  0  2 V2000
  145.2478  140.9833  154.5457 O   0  0  0  0  0  0  0  0  0  0  0  0
  146.6158  140.6834  154.7231 C   0  0  1  0  0  0  0  0  0  0  0  0
  147.1613  139.7934  153.6067 C   0  0  0  0  0  0  0  0  0  0  0  0
  148.6129  140.0495  153.5829 N   0  3  0  0  0  0  0  0  0  0  0  0
  148.8588  141.3863  154.1696 C   0  0  2  0  0  0  0  0  0  0  0  0
  149.8178  141.1265  155.2961 C   0  0  0  0  0  0  0  0  0  0  0  0
  150.4054  139.9357  155.4542 N   0  0  0  0  0  0  0  0  0  0  0  0
  151.2277  139.9752  156.5243 N   0  0  0  0  0  0  0  0  0  0  0  0
  151.0686  141.2307  156.9385 C   0  0  0  0  0  0  0  0  0  0  0  0
  151.7892  141.7608  158.1193 C   0  0  0  0  0  0  0  0  0  0  0  0
  152.4415  140.8911  159.0270 C   0  0  0  0  0  0  0  0  0  0  0  0
  153.1283  141.3908  160.1505 C   0  0  0  0  0  0  0  0  0  0  0  0
  153.1749  142.7757  160.3887 C   0  0  0  0  0  0  0  0  0  0  0  0
  152.5334  143.6565  159.5004 C   0  0  0  0  0  0  0  0  0  0  0  0
  151.8485  143.1520  158.3780 C   0  0  0  0  0  0  0  0  0  0  0  0
  150.2049  142.0079  156.2178 N   0  0  0  0  0  0  0  0  0  0  0  0
  147.4961  141.9281  154.6267 C   0  0  0  0  0  0  0  0  0  0  0  0
  146.7618  140.1983  155.6893 H   0  0  0  0  0  0  0  0  0  0  0  0
  149.3214  142.0457  153.4340 H   0  0  0  0  0  0  0  0  0  0  0  0
  144.9673  140.6403  153.7104 H   0  0  0  0  0  0  0  0  0  0  0  0
  146.9378  138.7370  153.7579 H   0  0  0  0  0  0  0  0  0  0  0  0
  146.7482  140.0937  152.6425 H   0  0  0  0  0  0  0  0  0  0  0  0
  149.0706  139.3674  154.1715 H   0  0  0  0  0  0  0  0  0  0  0  0
  152.4242  139.8229  158.8695 H   0  0  0  0  0  0  0  0  0  0  0  0
  153.6198  140.7099  160.8295 H   0  0  0  0  0  0  0  0  0  0  0  0
  153.7011  143.1608  161.2497 H   0  0  0  0  0  0  0  0  0  0  0  0
  152.5651  144.7211  159.6793 H   0  0  0  0  0  0  0  0  0  0  0  0
  151.3642  143.8526  157.7139 H   0  0  0  0  0  0  0  0  0  0  0  0
  147.1038  142.5865  153.8499 H   0  0  0  0  0  0  0  0  0  0  0  0
  147.5424  142.5041  155.5519 H   0  0  0  0  0  0  0  0  0  0  0  0
  148.9754  139.9872  152.6424 H   0  0  0  0  0  0  0  0  0  0  0  0
  150.2854  139.1097  154.8845 H   0  0  0  0  0  0  0  0  0  0  0  0
  1  2  1  0  0  0  0
  1 20  1  0  0  0  0
  2 18  1  0  0  0  0
  2 17  1  0  0  0  0
  2  3  1  0  0  0  0
  3  4  1  0  0  0  0
  3 21  1  0  0  0  0
  3 22  1  0  0  0  0
  4  5  1  0  0  0  0
  4 23  1  0  0  0  0
  4 31  1  0  0  0  0
  5 19  1  0  0  0  0
  5  6  1  0  0  0  0
  5 17  1  0  0  0  0
  6 16  2  0  0  0  0
  6  7  1  0  0  0  0
  7  8  1  0  0  0  0
  7 32  1  0  0  0  0
  8  9  2  0  0  0  0
  9 10  1  0  0  0  0
  9 16  1  0  0  0  0
 10 15  1  0  0  0  0
 10 11  2  0  0  0  0
 11 12  1  0  0  0  0
 11 24  1  0  0  0  0
 12 13  2  0  0  0  0
 12 25  1  0  0  0  0
 13 14  1  0  0  0  0
 13 26  1  0  0  0  0
 14 15  2  0  0  0  0
 14 27  1  0  0  0  0
 15 28  1  0  0  0  0
 17 29  1  0  0  0  0
 17 30  1  0  0  0  0
M  CHG  1   4   1
M  END
> <s_m_source_file>
AV-unprocessed.smi

> <i_m_source_file_index>
47

> <i_lp_mmshare_version>
43012

> <i_f3d_flags>
0

> <s_epik_input>
W09IXVtDQEhdMVtDSDJdW05IXVtDQEBIXShbQ0gyXTEpYzJuW25IXWMobjIpLWMzW2NIXVtjSF1bY0hdW2NIXVtjSF0z

> <s_epik_cmdline>
J2VwaWtfcHl0aG9uJywgJy1waCcsICc3LjAnLCAnLXRuJywgJzgnLCAnLW1hJywgJzIwMCcsICctbWV0YWxfYmluZGluZycsICctaW1hZScsICc8aW5maWxlLm1hZT4nLCAnLW9tYWUnLCAnPG91dGZpbGUubWFlPic=

> <r_epik_Ionization_Penalty>
1.14296

> <r_epik_Ionization_Penalty_Charging>
0.0688988

> <r_epik_Ionization_Penalty_Neutral>
1.07406

> <r_epik_State_Penalty>
1.72347

> <r_epik_Charging_Adjusted_Penalty>
1.79237

> <i_epik_Tot_Q>
1

> <i_epik_Tot_abs_Q>
1

> <r_epik_Metal_State_Penalty>
2.22085

> <b_epik_Metal_Only>
0

> <s_lp_Force_Field>
OPLS_2005

> <r_lp_Energy>
30.356

> <b_lp_Chiralities_Consistent>
1

> <s_lp_Variant>
AV-unprocessed.smi:47-9

> <Gold.Version>
5.8.1

> <Gold.Id.Protein>
6NUR|6NUR_protein|mol2

> <Gold.PLP.Fitness>
40.8085

> <Gold.PLP.PLP>
-35.3592

> <Gold.PLP.part.hbond>
-2.0000

> <Gold.PLP.part.metal>
0.0000

> <Gold.PLP.part.buried>
-4.1031

> <Gold.PLP.part.nonpolar>
-30.1169

> <Gold.PLP.part.repulsive>
0.7310

> <Gold.PLP.ligand.clash>
0.0000

> <Gold.PLP.ligand.torsion>
0.2004

> <Gold.PLP.Chemscore.Hbond>
1.9440

> <Gold.PLP.Chemscore.CHOScore>
0.0000

> <Gold.PLP.Chemscore.Metal>
0.0000

> <Gold.Chemscore.Hbonds>
donor molecule, donor type, donor heavy atom, donor atom, acceptor molecule, acceptor atom, score
      L1  H     1    20       P1 10175  0.96
      L1  H     4    31       P1  7957  1.00

> <Gold.PLP.Chemscore.Internal.Correction>
0.0181

> <Gold.Rescore>
     Score         DG    S(hbond)    S(metal)    S(lipo)     H(rot)  DE(clash)    DE(int)     intcor
     18.16     -18.30       1.92        0.00      87.62       1.50       0.04       0.10       ----

> <Gold.Chemscore.Fitness>
18.1594

> <Gold.Chemscore.DG>
-18.3041

> <Gold.Chemscore.ZeroCoef>
-5.4800

> <Gold.Chemscore.Hbond>
1.9171

> <Gold.Chemscore.Metal>
0.0000

> <Gold.Chemscore.Lipo>
87.6244

> <Gold.Chemscore.Internal_Hbond>
0.0000

> <Gold.Chemscore.DEClash>
0.0436

> <Gold.Chemscore.DEInternal>
0.1012

> <Gold.Chemscore.Rot>
1.4966

> <Gold.Chemscore.Internal.Correction>
   9.000000E+99

> <Gold.Chemscore.Hbonds>
donor molecule, donor type, donor heavy atom, donor atom, acceptor molecule, acceptor atom, score
      L1  H     1    20       P1 10175  0.91
      L1  H     4    31       P1  7957  0.99

> <Gold.Chemscore.Hbond.Weighted>
-6.4033

> <Gold.Chemscore.Metal.Weighted>
-0.0000

> <Gold.Chemscore.Lipo.Weighted>
-10.2521

> <Gold.Chemscore.Internal_Hbond.Weighted>
0.0000

> <Gold.Chemscore.DEClash.Weighted>
0.0436

> <Gold.Chemscore.DEInternal.Weighted>
0.1012

> <Gold.Chemscore.Rot.Weighted>
3.8312

> <Gold.Chemscore.Internal.Correction.Weighted>
   9.000000E+99

> <Gold.Protein.RotatedTorsions>
[ 6907 6896 6895 6894 ] final  127.49 input  -60.11 | X-H torsion
[ 7974 7965 7964 7962 ] final -169.39 input  175.53 | X-H torsion
[ 8008 7997 7996 7995 ] final -110.96 input   59.86 | X-H torsion
[ 10167 10162 10161 10158 ] final    7.02 input  -65.29 | X-H torsion
[ 10718 10713 10712 10709 ] final    9.43 input   66.30 | X-H torsion
[ 10763 10752 10751 10750 ] final  -49.27 input  -60.55 | X-H torsion
[ 11005 11000 10999 10996 ] final -110.61 input  -57.11 | X-H torsion

> <Gold.Protein.ActiveResidues>
 VAL166  LYS551  ARG553  GLY616  TRP617  ASP618  TYR619  PRO620  LYS621  CYS622 
 ASP623  PHE694  ASN695  SER759  ASP760  ASP761  ALA762  ILE779  LEU786  VAL792 
 PHE793  MET794  SER795  GLU796  ALA797  LYS798  CYS799  TRP800  GLU811  SER814 

> <Gold.Protein.RotatedAtoms>
  152.3807  133.6542  159.6158 H   0  0  0  0  0  0  0  0  0  0  0  0  # atno 6907 bound_to 6896
  150.7739  133.9118  159.3380 H   0  0  0  0  0  0  0  0  0  0  0  0  # atno 6908 bound_to 6896
  151.6924  135.0945  160.0287 H   0  0  0  0  0  0  0  0  0  0  0  0  # atno 6909 bound_to 6896
  144.7186  140.2228  143.6314 H   0  0  0  0  0  0  0  0  0  0  0  0  # atno 7974 bound_to 7965
  154.9825  140.0396  157.2284 H   0  0  0  0  0  0  0  0  0  0  0  0  # atno 8008 bound_to 7997
  154.7701  140.2800  155.6122 H   0  0  0  0  0  0  0  0  0  0  0  0  # atno 8009 bound_to 7997
  156.2919  140.2611  156.2502 H   0  0  0  0  0  0  0  0  0  0  0  0  # atno 8010 bound_to 7997
  140.6395  143.7808  150.7407 H   0  0  0  0  0  0  0  0  0  0  0  0  # atno 10167 bound_to 10162
  156.9662  130.5951  149.5665 H   0  0  0  0  0  0  0  0  0  0  0  0  # atno 10718 bound_to 10713
  154.0914  135.6577  153.4853 H   0  0  0  0  0  0  0  0  0  0  0  0  # atno 10763 bound_to 10752
  153.0320  135.5203  154.7377 H   0  0  0  0  0  0  0  0  0  0  0  0  # atno 10764 bound_to 10752
  154.6502  135.3000  154.9965 H   0  0  0  0  0  0  0  0  0  0  0  0  # atno 10765 bound_to 10752
  141.0782  133.9266  157.2346 H   0  0  0  0  0  0  0  0  0  0  0  0  # atno 11005 bound_to 11000
  145.8485  139.2164  143.1786 LP  0  0  0  0  0  0  0  0  0  0  0  0  # atno 17320 bound_to 7965
  146.0282  140.8283  142.9889 LP  0  0  0  0  0  0  0  0  0  0  0  0  # atno 17321 bound_to 7965
  140.1436  143.4419  152.2177 LP  0  0  0  0  0  0  0  0  0  0  0  0  # atno 17342 bound_to 10162
  139.5604  144.7402  151.4171 LP  0  0  0  0  0  0  0  0  0  0  0  0  # atno 17343 bound_to 10162
  156.0302  130.5393  150.8513 LP  0  0  0  0  0  0  0  0  0  0  0  0  # atno 17370 bound_to 10713
  157.5624  131.0946  150.9539 LP  0  0  0  0  0  0  0  0  0  0  0  0  # atno 17371 bound_to 10713
  139.9594  135.0158  156.9219 LP  0  0  0  0  0  0  0  0  0  0  0  0  # atno 17394 bound_to 11000
  140.5528  134.0611  155.7374 LP  0  0  0  0  0  0  0  0  0  0  0  0  # atno 17395 bound_to 11000

$$$$
