AV-unprocessed.smi:34|AV-procd|sdf|229|dock6
  -GOLD-   2262015553D 1   1.00000     0.00000
 Structure written by MMmdl.
 55 59  0  0  0  0  0  0  0  0  1 V2000
  152.5048  139.6290  158.0487 O   0  0  0  0  0  0  0  0  0  0  0  0
  151.6800  140.5414  158.1103 C   0  0  0  0  0  0  0  0  0  0  0  0
  150.5258  140.6019  157.2312 N   0  0  0  0  0  0  0  0  0  0  0  0
  150.1381  139.7010  156.2985 C   0  0  0  0  0  0  0  0  0  0  0  0
  150.3201  139.9059  154.9674 N   0  0  0  0  0  0  0  0  0  0  0  0
  149.9165  138.9879  154.0852 C   0  0  0  0  0  0  0  0  0  0  0  0
  149.3213  137.8168  154.3172 N   0  0  0  0  0  0  0  0  0  0  0  0
  149.1393  137.5977  155.6509 C   0  0  0  0  0  0  0  0  0  0  0  0
  149.5217  138.4855  156.6952 C   0  0  0  0  0  0  0  0  0  0  0  0
  149.1839  137.9378  157.9256 N   0  0  0  0  0  0  0  0  0  0  0  0
  148.6295  136.7956  157.6212 C   0  0  0  0  0  0  0  0  0  0  0  0
  148.5549  136.5124  156.2755 N   0  0  0  0  0  0  0  0  0  0  0  0
  147.9590  135.2916  155.6428 C   0  0  2  0  0  0  0  0  0  0  0  0
  147.4719  134.4288  156.6289 O   0  0  0  0  0  0  0  0  0  0  0  0
  147.7955  133.0673  156.3277 C   0  0  2  0  0  0  0  0  0  0  0  0
  148.7964  132.5514  157.3740 C   0  0  0  0  0  0  0  0  0  0  0  0
  148.5720  133.2306  158.5990 O   0  0  0  0  0  0  0  0  0  0  0  0
  147.5500  132.8684  159.3992 C   0  0  0  0  0  0  0  0  0  0  0  0
  146.8510  131.8713  159.2070 O   0  0  0  0  0  0  0  0  0  0  0  0
  147.3611  133.7949  160.5522 C   0  0  0  0  0  0  0  0  0  0  0  0
  147.7334  135.1530  160.4183 C   0  0  0  0  0  0  0  0  0  0  0  0
  147.5617  136.0526  161.4884 C   0  0  0  0  0  0  0  0  0  0  0  0
  147.0156  135.6051  162.7054 C   0  0  0  0  0  0  0  0  0  0  0  0
  146.6417  134.2568  162.8512 C   0  0  0  0  0  0  0  0  0  0  0  0
  146.8121  133.3558  161.7820 C   0  0  0  0  0  0  0  0  0  0  0  0
  148.3602  133.1158  154.9036 C   0  0  2  0  0  0  0  0  0  0  0  0
  149.2088  132.1330  154.5962 F   0  0  0  0  0  0  0  0  0  0  0  0
  148.9637  134.5029  154.7935 C   0  0  2  0  0  0  0  0  0  0  0  0
  150.2904  134.5629  155.2886 O   0  0  0  0  0  0  0  0  0  0  0  0
  151.8601  141.7066  159.0386 C   0  0  0  0  0  0  0  0  0  0  0  0
  152.5748  141.5432  160.2465 C   0  0  0  0  0  0  0  0  0  0  0  0
  152.7397  142.6281  161.1295 C   0  0  0  0  0  0  0  0  0  0  0  0
  152.1832  143.8825  160.8164 C   0  0  0  0  0  0  0  0  0  0  0  0
  151.4584  144.0506  159.6215 C   0  0  0  0  0  0  0  0  0  0  0  0
  151.2940  142.9669  158.7367 C   0  0  0  0  0  0  0  0  0  0  0  0
  149.9441  141.4217  157.3232 H   0  0  0  0  0  0  0  0  0  0  0  0
  150.0935  139.2252  153.0463 H   0  0  0  0  0  0  0  0  0  0  0  0
  148.2495  136.1241  158.3776 H   0  0  0  0  0  0  0  0  0  0  0  0
  147.1180  135.6632  155.0558 H   0  0  0  0  0  0  0  0  0  0  0  0
  146.8939  132.4541  156.3533 H   0  0  0  0  0  0  0  0  0  0  0  0
  148.6574  131.4824  157.5381 H   0  0  0  0  0  0  0  0  0  0  0  0
  149.8199  132.6953  157.0283 H   0  0  0  0  0  0  0  0  0  0  0  0
  148.1529  135.5196  159.4927 H   0  0  0  0  0  0  0  0  0  0  0  0
  147.8485  137.0875  161.3741 H   0  0  0  0  0  0  0  0  0  0  0  0
  146.8835  136.2949  163.5260 H   0  0  0  0  0  0  0  0  0  0  0  0
  146.2221  133.9119  163.7846 H   0  0  0  0  0  0  0  0  0  0  0  0
  146.5135  132.3280  161.9270 H   0  0  0  0  0  0  0  0  0  0  0  0
  147.5338  133.0353  154.1959 H   0  0  0  0  0  0  0  0  0  0  0  0
  148.9563  134.8767  153.7692 H   0  0  0  0  0  0  0  0  0  0  0  0
  150.2576  134.5803  156.2329 H   0  0  0  0  0  0  0  0  0  0  0  0
  153.0072  140.5864  160.5012 H   0  0  0  0  0  0  0  0  0  0  0  0
  153.2932  142.4965  162.0473 H   0  0  0  0  0  0  0  0  0  0  0  0
  152.3090  144.7139  161.4943 H   0  0  0  0  0  0  0  0  0  0  0  0
  151.0256  145.0111  159.3837 H   0  0  0  0  0  0  0  0  0  0  0  0
  150.7270  143.1146  157.8289 H   0  0  0  0  0  0  0  0  0  0  0  0
  1  2  2  0  0  0  0
  2  3  1  0  0  0  0
  2 30  1  0  0  0  0
  3  4  1  0  0  0  0
  3 36  1  0  0  0  0
  4  9  1  0  0  0  0
  4  5  2  0  0  0  0
  5  6  1  0  0  0  0
  6  7  2  0  0  0  0
  6 37  1  0  0  0  0
  7  8  1  0  0  0  0
  8 12  1  0  0  0  0
  8  9  2  0  0  0  0
  9 10  1  0  0  0  0
 10 11  2  0  0  0  0
 11 12  1  0  0  0  0
 11 38  1  0  0  0  0
 12 13  1  0  0  0  0
 13 28  1  0  0  0  0
 13 14  1  0  0  0  0
 13 39  1  0  0  0  0
 14 15  1  0  0  0  0
 15 16  1  0  0  0  0
 15 26  1  0  0  0  0
 15 40  1  0  0  0  0
 16 17  1  0  0  0  0
 16 41  1  0  0  0  0
 16 42  1  0  0  0  0
 17 18  1  0  0  0  0
 18 19  2  0  0  0  0
 18 20  1  0  0  0  0
 20 25  1  0  0  0  0
 20 21  2  0  0  0  0
 21 22  1  0  0  0  0
 21 43  1  0  0  0  0
 22 23  2  0  0  0  0
 22 44  1  0  0  0  0
 23 24  1  0  0  0  0
 23 45  1  0  0  0  0
 24 25  2  0  0  0  0
 24 46  1  0  0  0  0
 25 47  1  0  0  0  0
 26 27  1  0  0  0  0
 26 28  1  0  0  0  0
 26 48  1  0  0  0  0
 28 29  1  0  0  0  0
 28 49  1  0  0  0  0
 29 50  1  0  0  0  0
 30 35  1  0  0  0  0
 30 31  2  0  0  0  0
 31 32  1  0  0  0  0
 31 51  1  0  0  0  0
 32 33  2  0  0  0  0
 32 52  1  0  0  0  0
 33 34  1  0  0  0  0
 33 53  1  0  0  0  0
 34 35  2  0  0  0  0
 34 54  1  0  0  0  0
 35 55  1  0  0  0  0
M  END
> <s_m_source_file>
AV-unprocessed.smi

> <i_m_source_file_index>
34

> <i_lp_mmshare_version>
43012

> <i_f3d_flags>
0

> <s_epik_input>
W2NIXTFbY0hdW2NIXVtjSF1bY0hdYzFDKD1PKVtOSF1jKG5bY0hdbjIpYyhjMjMpbltjSF1uM1tDQEBIXTRPW0NASF0oW0NAQEhdKEYpW0NASF00W09IXSlbQ0gyXU9DKD1PKWM1W2NIXVtjSF1bY0hdW2NIXVtjSF01

> <s_epik_cmdline>
J2VwaWtfcHl0aG9uJywgJy1waCcsICc3LjAnLCAnLXRuJywgJzgnLCAnLW1hJywgJzIwMCcsICctbWV0YWxfYmluZGluZycsICctaW1hZScsICc8aW5maWxlLm1hZT4nLCAnLW9tYWUnLCAnPG91dGZpbGUubWFlPic=

> <r_lp_tautomer_probability>
1

> <r_epik_Ionization_Penalty>
0.00257489

> <r_epik_Ionization_Penalty_Charging>
0

> <r_epik_Ionization_Penalty_Neutral>
0.00257489

> <r_epik_State_Penalty>
0.00519398

> <r_epik_Charging_Adjusted_Penalty>
0.00519398

> <i_epik_Tot_Q>
0

> <i_epik_Tot_abs_Q>
0

> <r_epik_Metal_State_Penalty>
0.335891

> <b_epik_Metal_Only>
0

> <s_epik_Chemistry_Notes>
This compound has an ester and may undergo hydrolysis at high or low pH. This compound contains an acetal/aminal-like group ( X-CH(R)-Y where X, Y are N, S, or O) that may be acid/base labile, releasing an aldehyde.

> <s_lp_Force_Field>
OPLS_2005

> <r_lp_Energy>
55.6649

> <b_lp_Chiralities_Consistent>
1

> <s_lp_Variant>
AV-unprocessed.smi:34-15

> <Gold.Version>
5.8.1

> <Gold.Id.Protein>
6NUR|6NUR_protein|mol2

> <Gold.PLP.Fitness>
59.9795

> <Gold.PLP.PLP>
-55.1004

> <Gold.PLP.part.hbond>
-3.9759

> <Gold.PLP.part.metal>
0.0000

> <Gold.PLP.part.buried>
-5.2804

> <Gold.PLP.part.nonpolar>
-46.5950

> <Gold.PLP.part.repulsive>
0.3409

> <Gold.PLP.ligand.clash>
0.0000

> <Gold.PLP.ligand.torsion>
1.8937

> <Gold.PLP.Chemscore.Hbond>
1.7243

> <Gold.PLP.Chemscore.CHOScore>
1.0000

> <Gold.PLP.Chemscore.Metal>
0.0000

> <Gold.Chemscore.Hbonds>
donor molecule, donor type, donor heavy atom, donor atom, acceptor molecule, acceptor atom, score
      P1  H  7989  7998       L1     5  0.36
      P1  H  7997  8009       L1     1  0.19
      L1  C     6    37       P1  7957  1.00

> <Gold.PLP.Chemscore.Internal.Correction>
0.4934

> <Gold.Rescore>
     Score         DG    S(hbond)    S(metal)    S(lipo)     H(rot)  DE(clash)    DE(int)     intcor
     16.50     -20.64       1.87        0.00     135.89       2.72       2.91       1.24       ----

> <Gold.Chemscore.Fitness>
16.4957

> <Gold.Chemscore.DG>
-20.6449

> <Gold.Chemscore.ZeroCoef>
-5.4800

> <Gold.Chemscore.Hbond>
1.8663

> <Gold.Chemscore.Metal>
0.0000

> <Gold.Chemscore.Lipo>
135.8857

> <Gold.Chemscore.Internal_Hbond>
0.0000

> <Gold.Chemscore.DEClash>
2.9101

> <Gold.Chemscore.DEInternal>
1.2392

> <Gold.Chemscore.Rot>
2.7215

> <Gold.Chemscore.Internal.Correction>
   9.000000E+99

> <Gold.Chemscore.Hbonds>
donor molecule, donor type, donor heavy atom, donor atom, acceptor molecule, acceptor atom, score
      P1  H  7989  7998       L1     5  0.03
      P1  H  7997  8009       L1     1  0.19

> <Gold.Chemscore.Hbond.Weighted>
-6.2334

> <Gold.Chemscore.Metal.Weighted>
-0.0000

> <Gold.Chemscore.Lipo.Weighted>
-15.8986

> <Gold.Chemscore.Internal_Hbond.Weighted>
0.0000

> <Gold.Chemscore.DEClash.Weighted>
2.9101

> <Gold.Chemscore.DEInternal.Weighted>
1.2392

> <Gold.Chemscore.Rot.Weighted>
6.9670

> <Gold.Chemscore.Internal.Correction.Weighted>
   9.000000E+99

> <Gold.Protein.RotatedTorsions>
[ 6907 6896 6895 6894 ] final  102.15 input  -60.11 | X-H torsion
[ 7974 7965 7964 7962 ] final -176.19 input  175.53 | X-H torsion
[ 8008 7997 7996 7995 ] final  154.62 input   59.86 | X-H torsion
[ 10167 10162 10161 10158 ] final  139.46 input  -65.29 | X-H torsion
[ 10718 10713 10712 10709 ] final   50.84 input   66.30 | X-H torsion
[ 10763 10752 10751 10750 ] final   73.13 input  -60.55 | X-H torsion
[ 11005 11000 10999 10996 ] final -118.75 input  -57.11 | X-H torsion

> <Gold.Protein.ActiveResidues>
 VAL166  LYS551  ARG553  GLY616  TRP617  ASP618  TYR619  PRO620  LYS621  CYS622 
 ASP623  PHE694  ASN695  SER759  ASP760  ASP761  ALA762  ILE779  LEU786  VAL792 
 PHE793  MET794  SER795  GLU796  ALA797  LYS798  CYS799  TRP800  GLU811  SER814 

> <Gold.Protein.RotatedAtoms>
  152.5331  134.0018  159.7897 H   0  0  0  0  0  0  0  0  0  0  0  0  # atno 6907 bound_to 6896
  151.0236  133.5846  159.2675 H   0  0  0  0  0  0  0  0  0  0  0  0  # atno 6908 bound_to 6896
  151.2877  135.0739  159.9246 H   0  0  0  0  0  0  0  0  0  0  0  0  # atno 6909 bound_to 6896
  144.7127  140.1207  143.6405 H   0  0  0  0  0  0  0  0  0  0  0  0  # atno 7974 bound_to 7965
  156.2521  140.1961  156.6675 H   0  0  0  0  0  0  0  0  0  0  0  0  # atno 8008 bound_to 7997
  154.6418  140.0582  156.9880 H   0  0  0  0  0  0  0  0  0  0  0  0  # atno 8009 bound_to 7997
  155.1552  140.3255  155.4425 H   0  0  0  0  0  0  0  0  0  0  0  0  # atno 8010 bound_to 7997
  139.5078  144.6293  151.5858 H   0  0  0  0  0  0  0  0  0  0  0  0  # atno 10167 bound_to 10162
  157.4924  130.8384  149.8218 H   0  0  0  0  0  0  0  0  0  0  0  0  # atno 10718 bound_to 10713
  153.0502  135.5074  154.7848 H   0  0  0  0  0  0  0  0  0  0  0  0  # atno 10763 bound_to 10752
  154.6716  135.2954  154.9736 H   0  0  0  0  0  0  0  0  0  0  0  0  # atno 10764 bound_to 10752
  154.0553  135.6698  153.4858 H   0  0  0  0  0  0  0  0  0  0  0  0  # atno 10765 bound_to 10752
  141.0264  134.0047  157.3208 H   0  0  0  0  0  0  0  0  0  0  0  0  # atno 11005 bound_to 11000
  145.9373  139.2646  143.1289 LP  0  0  0  0  0  0  0  0  0  0  0  0  # atno 17320 bound_to 7965
  145.9460  140.8944  143.0283 LP  0  0  0  0  0  0  0  0  0  0  0  0  # atno 17321 bound_to 7965
  140.6020  143.9592  150.6393 LP  0  0  0  0  0  0  0  0  0  0  0  0  # atno 17342 bound_to 10162
  140.2807  143.3392  152.1154 LP  0  0  0  0  0  0  0  0  0  0  0  0  # atno 17343 bound_to 10162
  156.0181  130.3806  150.2048 LP  0  0  0  0  0  0  0  0  0  0  0  0  # atno 17370 bound_to 10713
  157.0237  130.9987  151.3332 LP  0  0  0  0  0  0  0  0  0  0  0  0  # atno 17371 bound_to 10713
  139.9179  135.0198  156.7951 LP  0  0  0  0  0  0  0  0  0  0  0  0  # atno 17394 bound_to 11000
  140.6484  133.9754  155.7742 LP  0  0  0  0  0  0  0  0  0  0  0  0  # atno 17395 bound_to 11000

$$$$
