AV-unprocessed.smi:1511|AV-procd|sdf|6098|dock3
  -GOLD-   22720 6223D 1   1.00000     0.00000
 Structure written by MMmdl.
 32 33  0  0  0  0  0  0  0  0  1 V2000
  143.9817  136.4319  152.3984 O   0  0  0  0  0  0  0  0  0  0  0  0
  145.1812  136.3627  152.1324 C   0  0  0  0  0  0  0  0  0  0  0  0
  145.6392  135.7302  150.8163 C   0  0  0  0  0  0  0  0  0  0  0  0
  145.3911  134.2979  150.8047 N   0  0  0  0  0  0  0  0  0  0  0  0
  144.1812  133.6382  150.7398 C   0  0  0  0  0  0  0  0  0  0  0  0
  144.4453  132.2990  150.7769 C   0  0  0  0  0  0  0  0  0  0  0  0
  145.8642  132.2365  150.8630 C   0  0  0  0  0  0  0  0  0  0  0  0
  146.4274  133.4338  150.8783 N   0  0  0  0  0  0  0  0  0  0  0  0
  146.1450  136.8340  152.9390 N   0  0  0  0  0  0  0  0  0  0  0  0
  145.9180  137.5839  154.1684 C   0  0  0  0  0  0  0  0  0  0  0  0
  147.2041  138.2725  154.6694 C   0  0  2  0  0  0  0  0  0  0  0  0
  146.9600  139.2762  155.8169 C   0  0  0  0  0  0  0  0  0  0  0  0
  148.2375  140.0928  156.0287 C   0  0  0  0  0  0  0  0  0  0  0  0
  148.9713  140.2962  154.3641 S   0  0  0  0  0  0  0  0  0  0  0  0
  148.5996  141.6124  153.8235 O   0  0  0  0  0  0  0  0  0  0  0  0
  150.3761  139.8624  154.4020 O   0  0  0  0  0  0  0  0  0  0  0  0
  147.9507  139.0104  153.5467 C   0  0  0  0  0  0  0  0  0  0  0  0
  145.1086  136.1910  149.9822 H   0  0  0  0  0  0  0  0  0  0  0  0
  146.7044  135.9092  150.6605 H   0  0  0  0  0  0  0  0  0  0  0  0
  143.2435  134.1705  150.6778 H   0  0  0  0  0  0  0  0  0  0  0  0
  143.7335  131.4877  150.7474 H   0  0  0  0  0  0  0  0  0  0  0  0
  146.4970  131.3631  150.9158 H   0  0  0  0  0  0  0  0  0  0  0  0
  147.1045  136.7208  152.6456 H   0  0  0  0  0  0  0  0  0  0  0  0
  145.1274  138.3202  154.0143 H   0  0  0  0  0  0  0  0  0  0  0  0
  145.5490  136.8875  154.9220 H   0  0  0  0  0  0  0  0  0  0  0  0
  147.8815  137.5079  155.0528 H   0  0  0  0  0  0  0  0  0  0  0  0
  146.1501  139.9511  155.5373 H   0  0  0  0  0  0  0  0  0  0  0  0
  146.6562  138.7781  156.7385 H   0  0  0  0  0  0  0  0  0  0  0  0
  148.0559  141.0656  156.4856 H   0  0  0  0  0  0  0  0  0  0  0  0
  148.9481  139.5423  156.6457 H   0  0  0  0  0  0  0  0  0  0  0  0
  148.5837  138.3492  152.9550 H   0  0  0  0  0  0  0  0  0  0  0  0
  147.2563  139.5161  152.8755 H   0  0  0  0  0  0  0  0  0  0  0  0
  1  2  2  0  0  0  0
  2  3  1  0  0  0  0
  2  9  1  0  0  0  0
  3  4  1  0  0  0  0
  3 18  1  0  0  0  0
  3 19  1  0  0  0  0
  4  8  1  0  0  0  0
  4  5  1  0  0  0  0
  5  6  2  0  0  0  0
  5 20  1  0  0  0  0
  6  7  1  0  0  0  0
  6 21  1  0  0  0  0
  7  8  2  0  0  0  0
  7 22  1  0  0  0  0
  9 10  1  0  0  0  0
  9 23  1  0  0  0  0
 10 11  1  0  0  0  0
 10 24  1  0  0  0  0
 10 25  1  0  0  0  0
 11 17  1  0  0  0  0
 11 12  1  0  0  0  0
 11 26  1  0  0  0  0
 12 13  1  0  0  0  0
 12 27  1  0  0  0  0
 12 28  1  0  0  0  0
 13 14  1  0  0  0  0
 13 29  1  0  0  0  0
 13 30  1  0  0  0  0
 14 15  2  0  0  0  0
 14 16  2  0  0  0  0
 14 17  1  0  0  0  0
 17 31  1  0  0  0  0
 17 32  1  0  0  0  0
M  END
> <s_m_source_file>
AV-unprocessed.smi

> <i_m_source_file_index>
1511

> <i_lp_mmshare_version>
43012

> <i_f3d_flags>
0

> <s_epik_input>
bjFbY0hdW2NIXVtjSF1uMVtDSDJdQyg9TylbTkhdW0NIMl1bQ0BASF0oW0NIMl0yKVtDSDJdW0NIMl1TMig9Tyk9Tw==

> <s_epik_cmdline>
J2VwaWtfcHl0aG9uJywgJy1waCcsICc3LjAnLCAnLXRuJywgJzgnLCAnLW1hJywgJzIwMCcsICctbWV0YWxfYmluZGluZycsICctaW1hZScsICc8aW5maWxlLm1hZT4nLCAnLW9tYWUnLCAnPG91dGZpbGUubWFlPic=

> <r_lp_tautomer_probability>
1

> <r_epik_Ionization_Penalty>
1.34373e-05

> <r_epik_Ionization_Penalty_Charging>
0

> <r_epik_Ionization_Penalty_Neutral>
1.34373e-05

> <r_epik_State_Penalty>
-0

> <r_epik_Charging_Adjusted_Penalty>
0

> <i_epik_Tot_Q>
0

> <i_epik_Tot_abs_Q>
0

> <r_epik_Metal_State_Penalty>
-0

> <b_epik_Metal_Only>
0

> <s_lp_Force_Field>
OPLS_2005

> <r_lp_Energy>
3.80917

> <b_lp_Chiralities_Consistent>
1

> <s_lp_Variant>
AV-unprocessed.smi:1511-1

> <Gold.Version>
5.8.1

> <Gold.Id.Protein>
6NUR|6NUR_protein|mol2

> <Gold.PLP.Fitness>
37.6133

> <Gold.PLP.PLP>
-24.7037

> <Gold.PLP.part.hbond>
-3.0000

> <Gold.PLP.part.metal>
0.0000

> <Gold.PLP.part.buried>
-4.6467

> <Gold.PLP.part.nonpolar>
-17.5919

> <Gold.PLP.part.repulsive>
0.6741

> <Gold.PLP.ligand.clash>
0.0000

> <Gold.PLP.ligand.torsion>
0.3244

> <Gold.PLP.Chemscore.Hbond>
2.6136

> <Gold.PLP.Chemscore.CHOScore>
1.9014

> <Gold.PLP.Chemscore.Metal>
0.0000

> <Gold.Chemscore.Hbonds>
donor molecule, donor type, donor heavy atom, donor atom, acceptor molecule, acceptor atom, score
      L1  H     9    23       P1  7948  0.93
      P1  H  7989  7998       L1    16  1.00
      P1  H  8011  8017       L1    15  0.58
      L1  C     5    20       P1 10186  1.00
      L1  C     7    22       P1 10747  0.81

> <Gold.PLP.Chemscore.Internal.Correction>
0.0135

> <Gold.Rescore>
     Score         DG    S(hbond)    S(metal)    S(lipo)     H(rot)  DE(clash)    DE(int)     intcor
     14.13     -14.47       2.55        0.00      43.75       1.82       0.18       0.16       ----

> <Gold.Chemscore.Fitness>
14.1348

> <Gold.Chemscore.DG>
-14.4728

> <Gold.Chemscore.ZeroCoef>
-5.4800

> <Gold.Chemscore.Hbond>
2.5531

> <Gold.Chemscore.Metal>
0.0000

> <Gold.Chemscore.Lipo>
43.7525

> <Gold.Chemscore.Internal_Hbond>
0.0000

> <Gold.Chemscore.DEClash>
0.1754

> <Gold.Chemscore.DEInternal>
0.1627

> <Gold.Chemscore.Rot>
1.8178

> <Gold.Chemscore.Internal.Correction>
   9.000000E+99

> <Gold.Chemscore.Hbonds>
donor molecule, donor type, donor heavy atom, donor atom, acceptor molecule, acceptor atom, score
      L1  H     9    23       P1  7948  0.89
      P1  H  7989  7998       L1    16  0.96
      P1  H  8011  8017       L1    15  0.53

> <Gold.Chemscore.Hbond.Weighted>
-8.5274

> <Gold.Chemscore.Metal.Weighted>
-0.0000

> <Gold.Chemscore.Lipo.Weighted>
-5.1190

> <Gold.Chemscore.Internal_Hbond.Weighted>
0.0000

> <Gold.Chemscore.DEClash.Weighted>
0.1754

> <Gold.Chemscore.DEInternal.Weighted>
0.1627

> <Gold.Chemscore.Rot.Weighted>
4.6537

> <Gold.Chemscore.Internal.Correction.Weighted>
   9.000000E+99

> <Gold.Protein.RotatedTorsions>
[ 6907 6896 6895 6894 ] final   34.77 input  -60.11 | X-H torsion
[ 7974 7965 7964 7962 ] final  119.66 input  175.53 | X-H torsion
[ 8008 7997 7996 7995 ] final  126.05 input   59.86 | X-H torsion
[ 10167 10162 10161 10158 ] final -165.64 input  -65.29 | X-H torsion
[ 10718 10713 10712 10709 ] final -104.37 input   66.30 | X-H torsion
[ 10763 10752 10751 10750 ] final -103.39 input  -60.55 | X-H torsion
[ 11005 11000 10999 10996 ] final -121.45 input  -57.11 | X-H torsion

> <Gold.Protein.ActiveResidues>
 VAL166  LYS551  ARG553  GLY616  TRP617  ASP618  TYR619  PRO620  LYS621  CYS622 
 ASP623  PHE694  ASN695  SER759  ASP760  ASP761  ALA762  ILE779  LEU786  VAL792 
 PHE793  MET794  SER795  GLU796  ALA797  LYS798  CYS799  TRP800  GLU811  SER814 

> <Gold.Protein.RotatedAtoms>
  152.1070  134.9302  160.0567 H   0  0  0  0  0  0  0  0  0  0  0  0  # atno 6907 bound_to 6896
  152.0494  133.4007  159.4379 H   0  0  0  0  0  0  0  0  0  0  0  0  # atno 6908 bound_to 6896
  150.6841  134.3246  159.4844 H   0  0  0  0  0  0  0  0  0  0  0  0  # atno 6909 bound_to 6896
  145.1404  139.3271  143.4619 H   0  0  0  0  0  0  0  0  0  0  0  0  # atno 7974 bound_to 7965
  156.2852  140.2702  156.2048 H   0  0  0  0  0  0  0  0  0  0  0  0  # atno 8008 bound_to 7997
  155.0324  140.0386  157.2497 H   0  0  0  0  0  0  0  0  0  0  0  0  # atno 8009 bound_to 7997
  154.7343  140.2712  155.6434 H   0  0  0  0  0  0  0  0  0  0  0  0  # atno 8010 bound_to 7997
  139.6168  144.0704  152.1895 H   0  0  0  0  0  0  0  0  0  0  0  0  # atno 10167 bound_to 10162
  156.0302  130.5512  150.7387 H   0  0  0  0  0  0  0  0  0  0  0  0  # atno 10718 bound_to 10713
  154.7803  135.4825  153.9831 H   0  0  0  0  0  0  0  0  0  0  0  0  # atno 10763 bound_to 10752
  153.1485  135.6786  153.8925 H   0  0  0  0  0  0  0  0  0  0  0  0  # atno 10764 bound_to 10752
  153.8577  135.3159  155.3414 H   0  0  0  0  0  0  0  0  0  0  0  0  # atno 10765 bound_to 10752
  141.0069  134.0321  157.3465 H   0  0  0  0  0  0  0  0  0  0  0  0  # atno 11005 bound_to 11000
  146.3505  140.1439  142.8594 LP  0  0  0  0  0  0  0  0  0  0  0  0  # atno 17320 bound_to 7965
  145.0538  140.9037  143.4979 LP  0  0  0  0  0  0  0  0  0  0  0  0  # atno 17321 bound_to 7965
  140.0336  144.6062  150.7468 LP  0  0  0  0  0  0  0  0  0  0  0  0  # atno 17342 bound_to 10162
  140.7356  143.2743  151.3791 LP  0  0  0  0  0  0  0  0  0  0  0  0  # atno 17343 bound_to 10162
  157.4961  131.0915  151.0370 LP  0  0  0  0  0  0  0  0  0  0  0  0  # atno 17370 bound_to 10713
  157.0763  130.5885  149.5412 LP  0  0  0  0  0  0  0  0  0  0  0  0  # atno 17371 bound_to 10713
  139.9068  135.0181  156.7521 LP  0  0  0  0  0  0  0  0  0  0  0  0  # atno 17394 bound_to 11000
  140.6798  133.9485  155.7903 LP  0  0  0  0  0  0  0  0  0  0  0  0  # atno 17395 bound_to 11000

$$$$
