AV-unprocessed.smi:109|AV-procd|sdf|1049|dock7
  -GOLD-   2262018 93D 1   1.00000     0.00000
 Structure written by MMmdl.
 58 61  0  0  0  0  0  0  0  0  1 V2000
  153.3065  139.0759  157.5428 O   0  0  0  0  0  0  0  0  0  0  0  0
  152.9078  139.3972  158.8578 C   0  0  0  0  0  0  0  0  0  0  0  0
  151.4240  139.8028  158.8690 C   0  0  0  0  0  0  0  0  0  0  0  0
  151.1203  141.0738  158.0410 C   0  0  2  0  0  0  0  0  0  0  0  0
  151.3471  140.7849  156.6229 N   0  0  0  0  0  0  0  0  0  0  0  0
  150.5649  139.9354  155.9199 C   0  0  0  0  0  0  0  0  0  0  0  0
  150.9088  139.5152  154.6758 N   0  0  0  0  0  0  0  0  0  0  0  0
  150.1148  138.6705  154.0139 C   0  0  0  0  0  0  0  0  0  0  0  0
  148.9590  138.1334  154.4074 N   0  0  0  0  0  0  0  0  0  0  0  0
  148.5987  138.5514  155.6564 C   0  0  0  0  0  0  0  0  0  0  0  0
  149.3483  139.4516  156.4669 C   0  0  0  0  0  0  0  0  0  0  0  0
  148.6900  139.6664  157.6683 N   0  0  0  0  0  0  0  0  0  0  0  0
  147.6143  138.9347  157.5707 C   0  0  0  0  0  0  0  0  0  0  0  0
  147.4823  138.2110  156.4049 N   0  0  0  0  0  0  0  0  0  0  0  0
  146.3294  137.3060  156.0599 C   0  0  1  0  0  0  0  0  0  0  0  0
  145.7879  137.7156  154.8453 O   0  0  0  0  0  0  0  0  0  0  0  0
  146.3501  136.9580  153.7834 C   0  0  2  0  0  0  0  0  0  0  0  0
  145.3829  136.9427  152.5891 C   0  0  0  0  0  0  0  0  0  0  0  0
  145.3668  138.2045  151.9570 O   0  0  0  0  0  0  0  0  0  0  0  0
  146.5580  135.5683  154.4088 C   0  0  1  0  0  0  0  0  0  0  0  0
  147.7170  134.9633  153.8716 O   0  0  0  0  0  0  0  0  0  0  0  0
  146.7287  135.8287  155.9094 C   0  0  2  0  0  0  0  0  0  0  0  0
  145.8652  134.9915  156.6519 O   0  0  0  0  0  0  0  0  0  0  0  0
  151.9609  142.3146  158.4578 C   0  0  0  0  0  0  0  0  0  0  0  0
  151.9455  142.5778  159.9846 C   0  0  0  0  0  0  0  0  0  0  0  0
  152.7410  143.8346  160.3736 C   0  0  0  0  0  0  0  0  0  0  0  0
  152.2344  145.0729  159.6249 C   0  0  0  0  0  0  0  0  0  0  0  0
  152.2750  144.8402  158.1102 C   0  0  0  0  0  0  0  0  0  0  0  0
  151.4738  143.5886  157.7199 C   0  0  0  0  0  0  0  0  0  0  0  0
  145.6157  137.4789  156.8668 H   0  0  0  0  0  0  0  0  0  0  0  0
  147.3045  137.3982  153.4939 H   0  0  0  0  0  0  0  0  0  0  0  0
  145.6906  134.9333  154.2202 H   0  0  0  0  0  0  0  0  0  0  0  0
  147.7451  135.6650  156.2677 H   0  0  0  0  0  0  0  0  0  0  0  0
  153.0711  138.1771  157.3688 H   0  0  0  0  0  0  0  0  0  0  0  0
  153.0874  138.5315  159.4956 H   0  0  0  0  0  0  0  0  0  0  0  0
  153.5310  140.2115  159.2289 H   0  0  0  0  0  0  0  0  0  0  0  0
  150.8635  138.9577  158.4728 H   0  0  0  0  0  0  0  0  0  0  0  0
  151.0860  139.9431  159.8969 H   0  0  0  0  0  0  0  0  0  0  0  0
  150.0783  141.3323  158.2263 H   0  0  0  0  0  0  0  0  0  0  0  0
  152.1346  141.2610  156.2072 H   0  0  0  0  0  0  0  0  0  0  0  0
  150.4549  138.3817  153.0305 H   0  0  0  0  0  0  0  0  0  0  0  0
  146.8800  138.8976  158.3623 H   0  0  0  0  0  0  0  0  0  0  0  0
  145.7152  136.2133  151.8496 H   0  0  0  0  0  0  0  0  0  0  0  0
  144.3760  136.6576  152.8958 H   0  0  0  0  0  0  0  0  0  0  0  0
  144.6692  138.7199  152.3324 H   0  0  0  0  0  0  0  0  0  0  0  0
  147.9558  135.4265  153.0821 H   0  0  0  0  0  0  0  0  0  0  0  0
  145.4440  134.3912  156.0558 H   0  0  0  0  0  0  0  0  0  0  0  0
  152.9968  142.1335  158.1662 H   0  0  0  0  0  0  0  0  0  0  0  0
  150.9158  142.6761  160.3309 H   0  0  0  0  0  0  0  0  0  0  0  0
  152.3785  141.7389  160.5270 H   0  0  0  0  0  0  0  0  0  0  0  0
  152.6723  143.9985  161.4495 H   0  0  0  0  0  0  0  0  0  0  0  0
  153.7979  143.6808  160.1523 H   0  0  0  0  0  0  0  0  0  0  0  0
  151.2135  145.2986  159.9357 H   0  0  0  0  0  0  0  0  0  0  0  0
  152.8389  145.9418  159.8865 H   0  0  0  0  0  0  0  0  0  0  0  0
  151.8770  145.7123  157.5906 H   0  0  0  0  0  0  0  0  0  0  0  0
  153.3095  144.7299  157.7826 H   0  0  0  0  0  0  0  0  0  0  0  0
  151.5455  143.4610  156.6396 H   0  0  0  0  0  0  0  0  0  0  0  0
  150.4175  143.7545  157.9363 H   0  0  0  0  0  0  0  0  0  0  0  0
  1  2  1  0  0  0  0
  1 34  1  0  0  0  0
  2  3  1  0  0  0  0
  2 35  1  0  0  0  0
  2 36  1  0  0  0  0
  3  4  1  0  0  0  0
  3 37  1  0  0  0  0
  3 38  1  0  0  0  0
  4  5  1  0  0  0  0
  4 24  1  0  0  0  0
  4 39  1  0  0  0  0
  5  6  1  0  0  0  0
  5 40  1  0  0  0  0
  6 11  1  0  0  0  0
  6  7  2  0  0  0  0
  7  8  1  0  0  0  0
  8  9  2  0  0  0  0
  8 41  1  0  0  0  0
  9 10  1  0  0  0  0
 10 14  1  0  0  0  0
 10 11  2  0  0  0  0
 11 12  1  0  0  0  0
 12 13  2  0  0  0  0
 13 14  1  0  0  0  0
 13 42  1  0  0  0  0
 14 15  1  0  0  0  0
 15 30  1  0  0  0  0
 15 22  1  0  0  0  0
 15 16  1  0  0  0  0
 16 17  1  0  0  0  0
 17 31  1  0  0  0  0
 17 18  1  0  0  0  0
 17 20  1  0  0  0  0
 18 19  1  0  0  0  0
 18 43  1  0  0  0  0
 18 44  1  0  0  0  0
 19 45  1  0  0  0  0
 20 32  1  0  0  0  0
 20 21  1  0  0  0  0
 20 22  1  0  0  0  0
 21 46  1  0  0  0  0
 22 33  1  0  0  0  0
 22 23  1  0  0  0  0
 23 47  1  0  0  0  0
 24 29  1  0  0  0  0
 24 25  1  0  0  0  0
 24 48  1  0  0  0  0
 25 26  1  0  0  0  0
 25 49  1  0  0  0  0
 25 50  1  0  0  0  0
 26 27  1  0  0  0  0
 26 51  1  0  0  0  0
 26 52  1  0  0  0  0
 27 28  1  0  0  0  0
 27 53  1  0  0  0  0
 27 54  1  0  0  0  0
 28 29  1  0  0  0  0
 28 55  1  0  0  0  0
 28 56  1  0  0  0  0
 29 57  1  0  0  0  0
 29 58  1  0  0  0  0
M  END
> <s_m_source_file>
AV-unprocessed.smi

> <i_m_source_file_index>
109

> <i_lp_mmshare_version>
43012

> <i_f3d_flags>
0

> <s_epik_input>
W0NIMl0xW0NIMl1bQ0gyXVtDSDJdW0NIMl1bQ0hdMVtDQEhdKFtDSDJdW0NIMl1bT0hdKVtOSF1jKG5bY0hdbjIpYyhjMjMpbltjSF1uM1tDQEBIXTRPW0NASF0oW0NIMl1bT0hdKVtDQEBIXShbT0hdKVtDQEhdNFtPSF0=

> <s_epik_cmdline>
J2VwaWtfcHl0aG9uJywgJy1waCcsICc3LjAnLCAnLXRuJywgJzgnLCAnLW1hJywgJzIwMCcsICctbWV0YWxfYmluZGluZycsICctaW1hZScsICc8aW5maWxlLm1hZT4nLCAnLW9tYWUnLCAnPG91dGZpbGUubWFlPic=

> <r_lp_tautomer_probability>
1

> <r_epik_Ionization_Penalty>
0.000793976

> <r_epik_Ionization_Penalty_Charging>
0

> <r_epik_Ionization_Penalty_Neutral>
0.000793976

> <r_epik_State_Penalty>
-0

> <r_epik_Charging_Adjusted_Penalty>
0

> <i_epik_Tot_Q>
0

> <i_epik_Tot_abs_Q>
0

> <r_epik_Metal_State_Penalty>
-0

> <b_epik_Metal_Only>
0

> <s_epik_Chemistry_Notes>
This compound contains an acetal/aminal-like group ( X-CH(R)-Y where X, Y are N, S, or O) that may be acid/base labile, releasing an aldehyde.

> <s_lp_Force_Field>
OPLS_2005

> <r_lp_Energy>
48.8451

> <b_lp_Chiralities_Consistent>
1

> <s_lp_Variant>
AV-unprocessed.smi:109-19

> <Gold.Version>
5.8.1

> <Gold.Id.Protein>
6NUR|6NUR_protein|mol2

> <Gold.PLP.Fitness>
51.9363

> <Gold.PLP.PLP>
-37.8211

> <Gold.PLP.part.hbond>
-5.0000

> <Gold.PLP.part.metal>
0.0000

> <Gold.PLP.part.buried>
-6.8626

> <Gold.PLP.part.nonpolar>
-27.8896

> <Gold.PLP.part.repulsive>
0.4726

> <Gold.PLP.ligand.clash>
0.0000

> <Gold.PLP.ligand.torsion>
0.3290

> <Gold.PLP.Chemscore.Hbond>
3.9920

> <Gold.PLP.Chemscore.CHOScore>
0.8783

> <Gold.PLP.Chemscore.Metal>
0.0000

> <Gold.Chemscore.Hbonds>
donor molecule, donor type, donor heavy atom, donor atom, acceptor molecule, acceptor atom, score
      L1  H    19    45       P1 10175  0.99
      L1  H    21    46       P1  7948  1.00
      P1  H  7989  7998       L1     7  1.00
      P1  H  7997  8010       L1     1  1.00
      L1  C     8    41       P1  7948  0.16
      L1  C     8    41       P1  7949  0.01
      L1  C     8    41       P1  7957  0.51

> <Gold.PLP.Chemscore.Internal.Correction>
0.1625

> <Gold.Rescore>
     Score         DG    S(hbond)    S(metal)    S(lipo)     H(rot)  DE(clash)    DE(int)     intcor
     11.42     -15.52       3.67        0.00     100.50       5.47       0.03       4.07       ----

> <Gold.Chemscore.Fitness>
11.4164

> <Gold.Chemscore.DG>
-15.5182

> <Gold.Chemscore.ZeroCoef>
-5.4800

> <Gold.Chemscore.Hbond>
3.6745

> <Gold.Chemscore.Metal>
0.0000

> <Gold.Chemscore.Lipo>
100.5025

> <Gold.Chemscore.Internal_Hbond>
0.0000

> <Gold.Chemscore.DEClash>
0.0333

> <Gold.Chemscore.DEInternal>
4.0685

> <Gold.Chemscore.Rot>
5.4662

> <Gold.Chemscore.Internal.Correction>
   9.000000E+99

> <Gold.Chemscore.Hbonds>
donor molecule, donor type, donor heavy atom, donor atom, acceptor molecule, acceptor atom, score
      L1  H    19    45       P1 10175  0.91
      L1  H    21    46       P1  7948  1.00
      P1  H  7989  7998       L1     7  0.72
      P1  H  7997  8010       L1     1  0.78

> <Gold.Chemscore.Hbond.Weighted>
-12.2729

> <Gold.Chemscore.Metal.Weighted>
-0.0000

> <Gold.Chemscore.Lipo.Weighted>
-11.7588

> <Gold.Chemscore.Internal_Hbond.Weighted>
0.0000

> <Gold.Chemscore.DEClash.Weighted>
0.0333

> <Gold.Chemscore.DEInternal.Weighted>
4.0685

> <Gold.Chemscore.Rot.Weighted>
13.9935

> <Gold.Chemscore.Internal.Correction.Weighted>
   9.000000E+99

> <Gold.Protein.RotatedTorsions>
[ 6907 6896 6895 6894 ] final    2.46 input  -60.11 | X-H torsion
[ 7974 7965 7964 7962 ] final -126.85 input  175.53 | X-H torsion
[ 8008 7997 7996 7995 ] final   30.09 input   59.86 | X-H torsion
[ 10167 10162 10161 10158 ] final  145.17 input  -65.29 | X-H torsion
[ 10718 10713 10712 10709 ] final   79.92 input   66.30 | X-H torsion
[ 10763 10752 10751 10750 ] final   91.39 input  -60.55 | X-H torsion
[ 11005 11000 10999 10996 ] final  -34.22 input  -57.11 | X-H torsion

> <Gold.Protein.ActiveResidues>
 VAL166  LYS551  ARG553  GLY616  TRP617  ASP618  TYR619  PRO620  LYS621  CYS622 
 ASP623  PHE694  ASN695  SER759  ASP760  ASP761  ALA762  ILE779  LEU786  VAL792 
 PHE793  MET794  SER795  GLU796  ALA797  LYS798  CYS799  TRP800  GLU811  SER814 

> <Gold.Protein.RotatedAtoms>
  151.6093  135.1041  160.0077 H   0  0  0  0  0  0  0  0  0  0  0  0  # atno 6907 bound_to 6896
  152.4217  133.7123  159.6496 H   0  0  0  0  0  0  0  0  0  0  0  0  # atno 6908 bound_to 6896
  150.8104  133.8359  159.3207 H   0  0  0  0  0  0  0  0  0  0  0  0  # atno 6909 bound_to 6896
  144.9830  140.7659  143.4600 H   0  0  0  0  0  0  0  0  0  0  0  0  # atno 7974 bound_to 7965
  155.0848  140.3214  155.4591 H   0  0  0  0  0  0  0  0  0  0  0  0  # atno 8008 bound_to 7997
  156.2758  140.2088  156.5922 H   0  0  0  0  0  0  0  0  0  0  0  0  # atno 8009 bound_to 7997
  154.6949  140.0512  157.0388 H   0  0  0  0  0  0  0  0  0  0  0  0  # atno 8010 bound_to 7997
  139.4931  144.5920  151.6660 H   0  0  0  0  0  0  0  0  0  0  0  0  # atno 10167 bound_to 10162
  157.6791  130.9936  150.2003 H   0  0  0  0  0  0  0  0  0  0  0  0  # atno 10718 bound_to 10713
  153.2078  135.4399  155.0343 H   0  0  0  0  0  0  0  0  0  0  0  0  # atno 10763 bound_to 10752
  154.8183  135.3325  154.7115 H   0  0  0  0  0  0  0  0  0  0  0  0  # atno 10764 bound_to 10752
  153.7555  135.6995  153.4992 H   0  0  0  0  0  0  0  0  0  0  0  0  # atno 10765 bound_to 10752
  140.9698  133.7116  156.1505 H   0  0  0  0  0  0  0  0  0  0  0  0  # atno 11005 bound_to 11000
  145.2393  139.2079  143.5001 LP  0  0  0  0  0  0  0  0  0  0  0  0  # atno 17320 bound_to 7965
  146.3413  140.2286  142.8593 LP  0  0  0  0  0  0  0  0  0  0  0  0  # atno 17321 bound_to 7965
  140.5550  144.0363  150.6143 LP  0  0  0  0  0  0  0  0  0  0  0  0  # atno 17342 bound_to 10162
  140.3430  143.3008  152.0568 LP  0  0  0  0  0  0  0  0  0  0  0  0  # atno 17343 bound_to 10162
  156.2695  130.3720  149.8046 LP  0  0  0  0  0  0  0  0  0  0  0  0  # atno 17370 bound_to 10713
  156.5767  130.8448  151.3371 LP  0  0  0  0  0  0  0  0  0  0  0  0  # atno 17371 bound_to 10713
  140.7345  134.4218  157.5562 LP  0  0  0  0  0  0  0  0  0  0  0  0  # atno 17394 bound_to 11000
  139.8908  134.8796  156.2351 LP  0  0  0  0  0  0  0  0  0  0  0  0  # atno 17395 bound_to 11000

$$$$
