AV-unprocessed.smi:794|AV-procd|sdf|3761|dock2
  -GOLD-   22720 1193D 1   1.00000     0.00000
 Structure written by MMmdl.
 41 43  0  0  0  0  0  0  0  0  1 V2000
  137.7930  136.9270  155.5536 C   0  0  0  0  0  0  0  0  0  0  0  0
  138.9830  136.9483  154.6440 C   0  0  0  0  0  0  0  0  0  0  0  0
  139.7597  135.7954  154.4973 N   0  0  0  0  0  0  0  0  0  0  0  0
  140.7825  135.9769  153.6561 C   0  0  0  0  0  0  0  0  0  0  0  0
  141.7345  134.9776  153.3243 N   0  0  0  0  0  0  0  0  0  0  0  0
  142.7534  135.0584  152.4507 C   0  0  0  0  0  0  0  0  0  0  0  0
  143.0455  136.0535  151.7867 O   0  0  0  0  0  0  0  0  0  0  0  0
  143.4293  133.9028  152.3847 N   0  0  0  0  0  0  0  0  0  0  0  0
  144.5838  133.6618  151.5218 C   0  0  1  0  0  0  0  0  0  0  0  0
  145.9240  133.5820  152.2947 C   0  0  1  0  0  0  0  0  0  0  0  0
  145.8460  132.5752  153.4630 C   0  0  0  0  0  0  0  0  0  0  0  0
  145.7748  131.2198  152.7352 C   0  0  0  0  0  0  0  0  0  0  0  0
  145.8455  131.6260  151.2504 C   0  0  2  0  0  0  0  0  0  0  0  0
  146.7958  132.8171  151.3074 C   0  0  0  0  0  0  0  0  0  0  0  0
  144.5032  132.2747  150.8331 C   0  0  2  0  0  0  0  0  0  0  0  0
  144.3133  132.3808  149.3074 C   0  0  0  0  0  0  0  0  0  0  0  0
  143.0101  131.9766  148.9430 O   0  0  0  0  0  0  0  0  0  0  0  0
  140.8581  137.5945  152.9791 S   0  0  0  0  0  0  0  0  0  0  0  0
  139.4348  138.0140  153.9000 C   0  0  0  0  0  0  0  0  0  0  0  0
  138.8499  139.3852  153.8258 C   0  0  0  0  0  0  0  0  0  0  0  0
  136.9195  137.3645  155.0703 H   0  0  0  0  0  0  0  0  0  0  0  0
  137.9873  137.4944  156.4640 H   0  0  0  0  0  0  0  0  0  0  0  0
  137.5286  135.9108  155.8482 H   0  0  0  0  0  0  0  0  0  0  0  0
  141.6178  134.0941  153.7980 H   0  0  0  0  0  0  0  0  0  0  0  0
  143.1270  133.1364  152.9679 H   0  0  0  0  0  0  0  0  0  0  0  0
  144.6472  134.4497  150.7682 H   0  0  0  0  0  0  0  0  0  0  0  0
  146.3161  134.5566  152.5871 H   0  0  0  0  0  0  0  0  0  0  0  0
  146.7491  132.6286  154.0722 H   0  0  0  0  0  0  0  0  0  0  0  0
  144.9974  132.7416  154.1267 H   0  0  0  0  0  0  0  0  0  0  0  0
  146.6263  130.5947  153.0072 H   0  0  0  0  0  0  0  0  0  0  0  0
  144.8661  130.6655  152.9724 H   0  0  0  0  0  0  0  0  0  0  0  0
  146.1680  130.8128  150.5995 H   0  0  0  0  0  0  0  0  0  0  0  0
  146.9179  133.3285  150.3515 H   0  0  0  0  0  0  0  0  0  0  0  0
  147.7819  132.5662  151.7026 H   0  0  0  0  0  0  0  0  0  0  0  0
  143.6730  131.6909  151.2357 H   0  0  0  0  0  0  0  0  0  0  0  0
  144.4534  133.4124  148.9830 H   0  0  0  0  0  0  0  0  0  0  0  0
  145.0417  131.7735  148.7701 H   0  0  0  0  0  0  0  0  0  0  0  0
  142.4039  132.6589  149.1886 H   0  0  0  0  0  0  0  0  0  0  0  0
  138.6933  139.7939  154.8243 H   0  0  0  0  0  0  0  0  0  0  0  0
  137.8877  139.3666  153.3140 H   0  0  0  0  0  0  0  0  0  0  0  0
  139.5063  140.0673  153.2852 H   0  0  0  0  0  0  0  0  0  0  0  0
  1  2  1  0  0  0  0
  1 21  1  0  0  0  0
  1 22  1  0  0  0  0
  1 23  1  0  0  0  0
  2 19  2  0  0  0  0
  2  3  1  0  0  0  0
  3  4  2  0  0  0  0
  4  5  1  0  0  0  0
  4 18  1  0  0  0  0
  5  6  1  0  0  0  0
  5 24  1  0  0  0  0
  6  7  2  0  0  0  0
  6  8  1  0  0  0  0
  8  9  1  0  0  0  0
  8 25  1  0  0  0  0
  9 15  1  0  0  0  0
  9 10  1  0  0  0  0
  9 26  1  0  0  0  0
 10 14  1  0  0  0  0
 10 11  1  0  0  0  0
 10 27  1  0  0  0  0
 11 12  1  0  0  0  0
 11 28  1  0  0  0  0
 11 29  1  0  0  0  0
 12 13  1  0  0  0  0
 12 30  1  0  0  0  0
 12 31  1  0  0  0  0
 13 14  1  0  0  0  0
 13 15  1  0  0  0  0
 13 32  1  0  0  0  0
 14 33  1  0  0  0  0
 14 34  1  0  0  0  0
 15 16  1  0  0  0  0
 15 35  1  0  0  0  0
 16 17  1  0  0  0  0
 16 36  1  0  0  0  0
 16 37  1  0  0  0  0
 17 38  1  0  0  0  0
 18 19  1  0  0  0  0
 19 20  1  0  0  0  0
 20 39  1  0  0  0  0
 20 40  1  0  0  0  0
 20 41  1  0  0  0  0
M  END
> <s_m_source_file>
AV-unprocessed.smi

> <i_m_source_file_index>
794

> <i_lp_mmshare_version>
43012

> <i_f3d_flags>
0

> <s_epik_input>
W0NIM11jMW5jKHNjMVtDSDNdKVtOSF1DKD1PKVtOSF1bQ0BIXShbQ0BASF0yMylbQ0BIXShbQ0gyXVtPSF0pW0NAQEhdKFtDSDJdMylbQ0gyXVtDSDJdMg==

> <s_epik_cmdline>
J2VwaWtfcHl0aG9uJywgJy1waCcsICc3LjAnLCAnLXRuJywgJzgnLCAnLW1hJywgJzIwMCcsICctbWV0YWxfYmluZGluZycsICctaW1hZScsICc8aW5maWxlLm1hZT4nLCAnLW9tYWUnLCAnPG91dGZpbGUubWFlPic=

> <r_lp_tautomer_probability>
0.999

> <r_epik_Ionization_Penalty>
0.000713029

> <r_epik_Ionization_Penalty_Charging>
0

> <r_epik_Ionization_Penalty_Neutral>
0.000713029

> <r_epik_State_Penalty>
0.000177984

> <r_epik_Charging_Adjusted_Penalty>
0.000177984

> <i_epik_Tot_Q>
0

> <i_epik_Tot_abs_Q>
0

> <r_epik_Metal_State_Penalty>
-0

> <b_epik_Metal_Only>
0

> <s_lp_Force_Field>
OPLS_2005

> <r_lp_Energy>
47.7468

> <b_lp_Chiralities_Consistent>
1

> <s_lp_Variant>
AV-unprocessed.smi:794-6

> <Gold.Version>
5.8.1

> <Gold.Id.Protein>
6NUR|6NUR_protein|mol2

> <Gold.PLP.Fitness>
43.2683

> <Gold.PLP.PLP>
-35.6256

> <Gold.PLP.part.hbond>
-4.3949

> <Gold.PLP.part.metal>
0.0000

> <Gold.PLP.part.buried>
-6.2013

> <Gold.PLP.part.nonpolar>
-26.8881

> <Gold.PLP.part.repulsive>
0.3905

> <Gold.PLP.ligand.clash>
0.0000

> <Gold.PLP.ligand.torsion>
0.8446

> <Gold.PLP.Chemscore.Hbond>
3.1050

> <Gold.PLP.Chemscore.CHOScore>
0.0000

> <Gold.PLP.Chemscore.Metal>
0.0000

> <Gold.Chemscore.Hbonds>
donor molecule, donor type, donor heavy atom, donor atom, acceptor molecule, acceptor atom, score
      L1  H     8    25       P1 10957  0.31
      L1  H    17    38       P1 10186  0.41
      P1  H 10785 10796       L1    17  1.00
      P1  H 11000 11005       L1     3  1.00

> <Gold.PLP.Chemscore.Internal.Correction>
0.0169

> <Gold.Rescore>
     Score         DG    S(hbond)    S(metal)    S(lipo)     H(rot)  DE(clash)    DE(int)     intcor
     15.31     -17.67       2.16        0.00      81.54       1.78       0.37       1.99       ----

> <Gold.Chemscore.Fitness>
15.3051

> <Gold.Chemscore.DG>
-17.6652

> <Gold.Chemscore.ZeroCoef>
-5.4800

> <Gold.Chemscore.Hbond>
2.1561

> <Gold.Chemscore.Metal>
0.0000

> <Gold.Chemscore.Lipo>
81.5390

> <Gold.Chemscore.Internal_Hbond>
0.0000

> <Gold.Chemscore.DEClash>
0.3687

> <Gold.Chemscore.DEInternal>
1.9914

> <Gold.Chemscore.Rot>
1.7798

> <Gold.Chemscore.Internal.Correction>
   9.000000E+99

> <Gold.Chemscore.Hbonds>
donor molecule, donor type, donor heavy atom, donor atom, acceptor molecule, acceptor atom, score
      L1  H     8    25       P1 10957  0.20
      L1  H    17    38       P1 10186  0.41
      P1  H 10785 10796       L1    17  0.39
      P1  H 11000 11005       L1     3  0.88

> <Gold.Chemscore.Hbond.Weighted>
-7.2013

> <Gold.Chemscore.Metal.Weighted>
-0.0000

> <Gold.Chemscore.Lipo.Weighted>
-9.5401

> <Gold.Chemscore.Internal_Hbond.Weighted>
0.0000

> <Gold.Chemscore.DEClash.Weighted>
0.3687

> <Gold.Chemscore.DEInternal.Weighted>
1.9914

> <Gold.Chemscore.Rot.Weighted>
4.5562

> <Gold.Chemscore.Internal.Correction.Weighted>
   9.000000E+99

> <Gold.Protein.RotatedTorsions>
[ 6907 6896 6895 6894 ] final  -29.51 input  -60.11 | X-H torsion
[ 7974 7965 7964 7962 ] final -136.78 input  175.53 | X-H torsion
[ 8008 7997 7996 7995 ] final  -92.58 input   59.86 | X-H torsion
[ 10167 10162 10161 10158 ] final   34.98 input  -65.29 | X-H torsion
[ 10718 10713 10712 10709 ] final  139.51 input   66.30 | X-H torsion
[ 10763 10752 10751 10750 ] final -106.71 input  -60.55 | X-H torsion
[ 11005 11000 10999 10996 ] final   49.22 input  -57.11 | X-H torsion

> <Gold.Protein.ActiveResidues>
 VAL166  LYS551  ARG553  GLY616  TRP617  ASP618  TYR619  PRO620  LYS621  CYS622 
 ASP623  PHE694  ASN695  SER759  ASP760  ASP761  ALA762  ILE779  LEU786  VAL792 
 PHE793  MET794  SER795  GLU796  ALA797  LYS798  CYS799  TRP800  GLU811  SER814 

> <Gold.Protein.RotatedAtoms>
  151.1182  135.0064  159.8525 H   0  0  0  0  0  0  0  0  0  0  0  0  # atno 6907 bound_to 6896
  152.5446  134.1754  159.8624 H   0  0  0  0  0  0  0  0  0  0  0  0  # atno 6908 bound_to 6896
  151.1810  133.4680  159.2627 H   0  0  0  0  0  0  0  0  0  0  0  0  # atno 6909 bound_to 6896
  144.8897  140.6625  143.5153 H   0  0  0  0  0  0  0  0  0  0  0  0  # atno 7974 bound_to 7965
  154.7249  140.0507  157.0673 H   0  0  0  0  0  0  0  0  0  0  0  0  # atno 8008 bound_to 7997
  155.0378  140.3165  155.4716 H   0  0  0  0  0  0  0  0  0  0  0  0  # atno 8009 bound_to 7997
  156.2826  140.2138  156.5501 H   0  0  0  0  0  0  0  0  0  0  0  0  # atno 8010 bound_to 7997
  140.4265  144.1386  150.6154 H   0  0  0  0  0  0  0  0  0  0  0  0  # atno 10167 bound_to 10162
  157.4136  131.1031  151.0428 H   0  0  0  0  0  0  0  0  0  0  0  0  # atno 10718 bound_to 10713
  154.8029  135.4702  154.0320 H   0  0  0  0  0  0  0  0  0  0  0  0  # atno 10763 bound_to 10752
  153.1812  135.6841  153.8483 H   0  0  0  0  0  0  0  0  0  0  0  0  # atno 10764 bound_to 10752
  153.8033  135.3227  155.3370 H   0  0  0  0  0  0  0  0  0  0  0  0  # atno 10765 bound_to 10752
  140.1122  134.4939  155.8668 H   0  0  0  0  0  0  0  0  0  0  0  0  # atno 11005 bound_to 11000
  145.3804  139.1638  143.4283 LP  0  0  0  0  0  0  0  0  0  0  0  0  # atno 17320 bound_to 7965
  146.3046  140.3885  142.8691 LP  0  0  0  0  0  0  0  0  0  0  0  0  # atno 17321 bound_to 7965
  140.4476  143.2500  151.9391 LP  0  0  0  0  0  0  0  0  0  0  0  0  # atno 17342 bound_to 10162
  139.4783  144.5594  151.8263 LP  0  0  0  0  0  0  0  0  0  0  0  0  # atno 17343 bound_to 10162
  157.1383  130.6132  149.5548 LP  0  0  0  0  0  0  0  0  0  0  0  0  # atno 17370 bound_to 10713
  155.9858  130.4890  150.7050 LP  0  0  0  0  0  0  0  0  0  0  0  0  # atno 17371 bound_to 10713
  141.2133  133.6731  156.6727 LP  0  0  0  0  0  0  0  0  0  0  0  0  # atno 17394 bound_to 11000
  140.3075  134.8113  157.4149 LP  0  0  0  0  0  0  0  0  0  0  0  0  # atno 17395 bound_to 11000

$$$$
