AV-unprocessed.smi:1875|AV-procd|sdf|7614|dock7
  -GOLD-   22720 9333D 1   1.00000     0.00000
 Structure written by MMmdl.
 47 49  0  0  0  0  0  0  0  0  1 V2000
  143.5609  144.9840  156.9744 C   0  0  0  0  0  0  0  0  0  0  0  0
  144.2407  144.6812  155.6551 C   0  0  0  0  0  0  0  0  0  0  0  0
  144.0130  145.5286  154.6465 N   0  0  0  0  0  0  0  0  0  0  0  0
  144.6207  145.2561  153.4712 C   0  0  0  0  0  0  0  0  0  0  0  0
  145.4574  144.1331  153.3106 C   0  0  0  0  0  0  0  0  0  0  0  0
  145.6216  143.3116  154.4461 C   0  0  0  0  0  0  0  0  0  0  0  0
  146.4910  142.0710  154.4019 C   0  0  0  0  0  0  0  0  0  0  0  0
  147.9035  142.3953  154.2303 N   0  0  0  0  0  0  0  0  0  0  0  0
  148.7483  141.2152  154.0694 C   0  0  0  0  0  0  0  0  0  0  0  0
  149.3416  140.7624  155.4139 C   0  0  2  0  0  0  0  0  0  0  0  0
  148.2869  140.6368  156.3475 O   0  0  0  0  0  0  0  0  0  0  0  0
  150.3668  141.7788  155.9528 C   0  0  0  0  0  0  0  0  0  0  0  0
  151.3546  141.1672  156.8239 N   0  0  0  0  0  0  0  0  0  0  0  0
  152.0140  140.0099  156.6224 C   0  0  0  0  0  0  0  0  0  0  0  0
  152.8795  139.6314  157.5587 N   0  0  0  0  0  0  0  0  0  0  0  0
  152.7694  140.6643  158.4739 C   0  0  0  0  0  0  0  0  0  0  0  0
  153.4267  140.8715  159.7064 C   0  0  0  0  0  0  0  0  0  0  0  0
  153.1529  142.0146  160.4907 C   0  0  0  0  0  0  0  0  0  0  0  0
  153.8804  142.1953  161.8114 C   0  0  0  0  0  0  0  0  0  0  0  0
  152.2096  142.9744  160.0431 C   0  0  0  0  0  0  0  0  0  0  0  0
  151.8998  144.2102  160.8690 C   0  0  0  0  0  0  0  0  0  0  0  0
  151.5448  142.7838  158.8135 C   0  0  0  0  0  0  0  0  0  0  0  0
  151.8241  141.6408  158.0436 C   0  0  0  0  0  0  0  0  0  0  0  0
  145.0104  143.5893  155.6191 N   0  0  0  0  0  0  0  0  0  0  0  0
  142.9642  145.8954  156.9173 H   0  0  0  0  0  0  0  0  0  0  0  0
  144.3038  145.1140  157.7617 H   0  0  0  0  0  0  0  0  0  0  0  0
  142.9010  144.1634  157.2572 H   0  0  0  0  0  0  0  0  0  0  0  0
  144.4393  145.9384  152.6538 H   0  0  0  0  0  0  0  0  0  0  0  0
  145.9432  143.9169  152.3708 H   0  0  0  0  0  0  0  0  0  0  0  0
  146.3425  141.5133  155.3274 H   0  0  0  0  0  0  0  0  0  0  0  0
  146.1536  141.4248  153.5901 H   0  0  0  0  0  0  0  0  0  0  0  0
  148.2240  142.9308  155.0308 H   0  0  0  0  0  0  0  0  0  0  0  0
  148.1433  140.4044  153.6613 H   0  0  0  0  0  0  0  0  0  0  0  0
  149.5422  141.4016  153.3444 H   0  0  0  0  0  0  0  0  0  0  0  0
  149.8291  139.7930  155.2986 H   0  0  0  0  0  0  0  0  0  0  0  0
  148.5234  141.1133  157.1290 H   0  0  0  0  0  0  0  0  0  0  0  0
  150.8950  142.2553  155.1262 H   0  0  0  0  0  0  0  0  0  0  0  0
  149.8631  142.5768  156.5008 H   0  0  0  0  0  0  0  0  0  0  0  0
  151.8500  139.4123  155.7375 H   0  0  0  0  0  0  0  0  0  0  0  0
  154.1455  140.1405  160.0462 H   0  0  0  0  0  0  0  0  0  0  0  0
  153.1686  142.2482  162.6355 H   0  0  0  0  0  0  0  0  0  0  0  0
  154.4689  143.1129  161.8018 H   0  0  0  0  0  0  0  0  0  0  0  0
  154.5588  141.3647  162.0092 H   0  0  0  0  0  0  0  0  0  0  0  0
  151.1663  144.8467  160.3733 H   0  0  0  0  0  0  0  0  0  0  0  0
  152.8026  144.8007  161.0266 H   0  0  0  0  0  0  0  0  0  0  0  0
  151.4955  143.9280  161.8414 H   0  0  0  0  0  0  0  0  0  0  0  0
  150.8238  143.5058  158.4602 H   0  0  0  0  0  0  0  0  0  0  0  0
  1  2  1  0  0  0  0
  1 25  1  0  0  0  0
  1 26  1  0  0  0  0
  1 27  1  0  0  0  0
  2 24  1  0  0  0  0
  2  3  2  0  0  0  0
  3  4  1  0  0  0  0
  4  5  2  0  0  0  0
  4 28  1  0  0  0  0
  5  6  1  0  0  0  0
  5 29  1  0  0  0  0
  6  7  1  0  0  0  0
  6 24  2  0  0  0  0
  7  8  1  0  0  0  0
  7 30  1  0  0  0  0
  7 31  1  0  0  0  0
  8  9  1  0  0  0  0
  8 32  1  0  0  0  0
  9 10  1  0  0  0  0
  9 33  1  0  0  0  0
  9 34  1  0  0  0  0
 10 11  1  0  0  0  0
 10 12  1  0  0  0  0
 10 35  1  0  0  0  0
 11 36  1  0  0  0  0
 12 13  1  0  0  0  0
 12 37  1  0  0  0  0
 12 38  1  0  0  0  0
 13 23  1  0  0  0  0
 13 14  1  0  0  0  0
 14 15  2  0  0  0  0
 14 39  1  0  0  0  0
 15 16  1  0  0  0  0
 16 23  2  0  0  0  0
 16 17  1  0  0  0  0
 17 18  2  0  0  0  0
 17 40  1  0  0  0  0
 18 19  1  0  0  0  0
 18 20  1  0  0  0  0
 19 41  1  0  0  0  0
 19 42  1  0  0  0  0
 19 43  1  0  0  0  0
 20 21  1  0  0  0  0
 20 22  2  0  0  0  0
 21 44  1  0  0  0  0
 21 45  1  0  0  0  0
 21 46  1  0  0  0  0
 22 23  1  0  0  0  0
 22 47  1  0  0  0  0
M  END
> <s_m_source_file>
AV-unprocessed.smi

> <i_m_source_file_index>
1875

> <i_lp_mmshare_version>
43012

> <i_f3d_flags>
0

> <s_epik_input>
W0NIM11jMW5bY0hdW2NIXWMobjEpW0NIMl1bTkhdW0NIMl1bQ0BIXShbT0hdKVtDSDJdbihbY0hdbjIpYyhjMjMpW2NIXWMoW0NIM10pYyhbY0hdMylbQ0gzXQ==

> <s_epik_cmdline>
J2VwaWtfcHl0aG9uJywgJy1waCcsICc3LjAnLCAnLXRuJywgJzgnLCAnLW1hJywgJzIwMCcsICctbWV0YWxfYmluZGluZycsICctaW1hZScsICc8aW5maWxlLm1hZT4nLCAnLW9tYWUnLCAnPG91dGZpbGUubWFlPic=

> <r_lp_tautomer_probability>
1

> <r_epik_Ionization_Penalty>
1.21192

> <r_epik_Ionization_Penalty_Charging>
0

> <r_epik_Ionization_Penalty_Neutral>
1.21192

> <r_epik_State_Penalty>
1.26105

> <r_epik_Charging_Adjusted_Penalty>
1.26105

> <i_epik_Tot_Q>
0

> <i_epik_Tot_abs_Q>
0

> <r_epik_Metal_State_Penalty>
1.2224

> <b_epik_Metal_Only>
0

> <s_epik_Chemistry_Notes>
This compound contains an electron-poor aromatic ring that is susceptible to covalent hydrolysis at low pH, typically resulting in measured values for nitrogen ring protonation that are around two units higher than predicted values.

> <s_lp_Force_Field>
OPLS_2005

> <r_lp_Energy>
12.1971

> <b_lp_Chiralities_Consistent>
1

> <s_lp_Variant>
AV-unprocessed.smi:1875-3

> <Gold.Version>
5.8.1

> <Gold.Id.Protein>
6NUR|6NUR_protein|mol2

> <Gold.PLP.Fitness>
57.8079

> <Gold.PLP.PLP>
-53.5093

> <Gold.PLP.part.hbond>
-2.9466

> <Gold.PLP.part.metal>
0.0000

> <Gold.PLP.part.buried>
-4.7798

> <Gold.PLP.part.nonpolar>
-45.1203

> <Gold.PLP.part.repulsive>
0.2354

> <Gold.PLP.ligand.clash>
0.0000

> <Gold.PLP.ligand.torsion>
0.8231

> <Gold.PLP.Chemscore.Hbond>
1.9440

> <Gold.PLP.Chemscore.CHOScore>
0.0000

> <Gold.PLP.Chemscore.Metal>
0.0000

> <Gold.Chemscore.Hbonds>
donor molecule, donor type, donor heavy atom, donor atom, acceptor molecule, acceptor atom, score
      L1  H     8    32       P1  8028  0.88
      P1  H  7997  8009       L1    15  0.90

> <Gold.PLP.Chemscore.Internal.Correction>
0.1128

> <Gold.Rescore>
     Score         DG    S(hbond)    S(metal)    S(lipo)     H(rot)  DE(clash)    DE(int)     intcor
     16.96     -19.12       1.42        0.00     135.67       2.72       0.62       1.53       ----

> <Gold.Chemscore.Fitness>
16.9615

> <Gold.Chemscore.DG>
-19.1192

> <Gold.Chemscore.ZeroCoef>
-5.4800

> <Gold.Chemscore.Hbond>
1.4181

> <Gold.Chemscore.Metal>
0.0000

> <Gold.Chemscore.Lipo>
135.6664

> <Gold.Chemscore.Internal_Hbond>
0.0000

> <Gold.Chemscore.DEClash>
0.6231

> <Gold.Chemscore.DEInternal>
1.5346

> <Gold.Chemscore.Rot>
2.7228

> <Gold.Chemscore.Internal.Correction>
   9.000000E+99

> <Gold.Chemscore.Hbonds>
donor molecule, donor type, donor heavy atom, donor atom, acceptor molecule, acceptor atom, score
      L1  H     8    32       P1  8028  0.83
      P1  H  7997  8009       L1    15  0.08

> <Gold.Chemscore.Hbond.Weighted>
-4.7365

> <Gold.Chemscore.Metal.Weighted>
-0.0000

> <Gold.Chemscore.Lipo.Weighted>
-15.8730

> <Gold.Chemscore.Internal_Hbond.Weighted>
0.0000

> <Gold.Chemscore.DEClash.Weighted>
0.6231

> <Gold.Chemscore.DEInternal.Weighted>
1.5346

> <Gold.Chemscore.Rot.Weighted>
6.9702

> <Gold.Chemscore.Internal.Correction.Weighted>
   9.000000E+99

> <Gold.Protein.RotatedTorsions>
[ 6907 6896 6895 6894 ] final   13.64 input  -60.11 | X-H torsion
[ 7974 7965 7964 7962 ] final  -22.64 input  175.53 | X-H torsion
[ 8008 7997 7996 7995 ] final  165.32 input   59.86 | X-H torsion
[ 10167 10162 10161 10158 ] final -141.66 input  -65.29 | X-H torsion
[ 10718 10713 10712 10709 ] final -163.16 input   66.30 | X-H torsion
[ 10763 10752 10751 10750 ] final    9.10 input  -60.55 | X-H torsion
[ 11005 11000 10999 10996 ] final  162.68 input  -57.11 | X-H torsion

> <Gold.Protein.ActiveResidues>
 VAL166  LYS551  ARG553  GLY616  TRP617  ASP618  TYR619  PRO620  LYS621  CYS622 
 ASP623  PHE694  ASN695  SER759  ASP760  ASP761  ALA762  ILE779  LEU786  VAL792 
 PHE793  MET794  SER795  GLU796  ALA797  LYS798  CYS799  TRP800  GLU811  SER814 

> <Gold.Protein.RotatedAtoms>
  151.7896  135.0739  160.0385 H   0  0  0  0  0  0  0  0  0  0  0  0  # atno 6907 bound_to 6896
  152.3166  133.5804  159.5724 H   0  0  0  0  0  0  0  0  0  0  0  0  # atno 6908 bound_to 6896
  150.7347  133.9990  159.3674 H   0  0  0  0  0  0  0  0  0  0  0  0  # atno 6909 bound_to 6896
  146.1664  140.4506  142.8550 H   0  0  0  0  0  0  0  0  0  0  0  0  # atno 7974 bound_to 7965
  156.1810  140.1673  156.8274 H   0  0  0  0  0  0  0  0  0  0  0  0  # atno 8008 bound_to 7997
  154.5360  140.0746  156.8461 H   0  0  0  0  0  0  0  0  0  0  0  0  # atno 8009 bound_to 7997
  155.3310  140.3379  155.4242 H   0  0  0  0  0  0  0  0  0  0  0  0  # atno 8010 bound_to 7997
  139.8163  143.7634  152.2665 H   0  0  0  0  0  0  0  0  0  0  0  0  # atno 10167 bound_to 10162
  156.6208  130.8889  151.2957 H   0  0  0  0  0  0  0  0  0  0  0  0  # atno 10718 bound_to 10713
  153.2178  135.6877  153.8037 H   0  0  0  0  0  0  0  0  0  0  0  0  # atno 10763 bound_to 10752
  153.7246  135.3262  155.3274 H   0  0  0  0  0  0  0  0  0  0  0  0  # atno 10764 bound_to 10752
  154.8254  135.4621  154.1012 H   0  0  0  0  0  0  0  0  0  0  0  0  # atno 10765 bound_to 10752
  140.2282  134.8144  157.3290 H   0  0  0  0  0  0  0  0  0  0  0  0  # atno 11005 bound_to 11000
  144.8098  140.6366  143.6422 LP  0  0  0  0  0  0  0  0  0  0  0  0  # atno 17320 bound_to 7965
  145.4457  139.1530  143.3946 LP  0  0  0  0  0  0  0  0  0  0  0  0  # atno 17321 bound_to 7965
  139.7798  144.7448  151.0104 LP  0  0  0  0  0  0  0  0  0  0  0  0  # atno 17342 bound_to 10162
  140.7815  143.4554  151.0353 LP  0  0  0  0  0  0  0  0  0  0  0  0  # atno 17343 bound_to 10162
  157.7228  130.9581  150.1509 LP  0  0  0  0  0  0  0  0  0  0  0  0  # atno 17370 bound_to 10713
  156.2313  130.3682  149.8441 LP  0  0  0  0  0  0  0  0  0  0  0  0  # atno 17371 bound_to 10713
  140.1778  134.4527  155.7790 LP  0  0  0  0  0  0  0  0  0  0  0  0  # atno 17394 bound_to 11000
  141.2219  133.6970  156.7818 LP  0  0  0  0  0  0  0  0  0  0  0  0  # atno 17395 bound_to 11000

$$$$
