AV-unprocessed.smi:72|AV-procd|sdf|681|dock3
  -GOLD-   2262016593D 1   1.00000     0.00000
 Structure written by MMmdl.
 29 30  0  0  0  0  0  0  0  0  1 V2000
  154.1034  138.2218  154.9704 N   0  0  0  0  0  0  0  0  0  0  0  0
  152.8357  138.4279  154.9411 C   0  0  0  0  0  0  0  0  0  0  0  0
  151.8826  137.5519  154.4013 N   0  0  0  0  0  0  0  0  0  0  0  0
  150.6327  137.8999  154.4264 C   0  0  0  0  0  0  0  0  0  0  0  0
  150.1906  139.1760  154.9769 N   0  0  0  0  0  0  0  0  0  0  0  0
  148.7291  139.5927  155.0219 C   0  0  2  0  0  0  0  0  0  0  0  0
  147.9683  138.7558  154.1983 O   0  0  0  0  0  0  0  0  0  0  0  0
  147.7503  139.3857  152.9390 C   0  0  1  0  0  0  0  0  0  0  0  0
  146.5961  138.7181  152.1715 C   0  0  0  0  0  0  0  0  0  0  0  0
  147.0899  137.6467  151.3963 O   0  0  0  0  0  0  0  0  0  0  0  0
  147.5229  140.8423  153.3532 C   0  0  1  0  0  0  0  0  0  0  0  0
  146.1882  141.0283  153.7965 O   0  0  0  0  0  0  0  0  0  0  0  0
  148.5464  141.0258  154.4740 C   0  0  1  0  0  0  0  0  0  0  0  0
  148.1166  141.9534  155.4532 O   0  0  0  0  0  0  0  0  0  0  0  0
  151.1407  140.0504  155.5614 C   0  0  0  0  0  0  0  0  0  0  0  0
  150.8203  141.1194  156.0811 O   0  0  0  0  0  0  0  0  0  0  0  0
  152.4258  139.6395  155.5099 N   0  0  0  0  0  0  0  0  0  0  0  0
  148.4239  139.4605  156.0616 H   0  0  0  0  0  0  0  0  0  0  0  0
  148.6653  139.3420  152.3454 H   0  0  0  0  0  0  0  0  0  0  0  0
  147.7052  141.5311  152.5278 H   0  0  0  0  0  0  0  0  0  0  0  0
  149.4872  141.3721  154.0429 H   0  0  0  0  0  0  0  0  0  0  0  0
  154.3195  137.3321  154.5438 H   0  0  0  0  0  0  0  0  0  0  0  0
  149.8461  137.2536  154.0370 H   0  0  0  0  0  0  0  0  0  0  0  0
  145.8164  138.3669  152.8484 H   0  0  0  0  0  0  0  0  0  0  0  0
  146.1373  139.4323  151.4871 H   0  0  0  0  0  0  0  0  0  0  0  0
  147.6621  137.1241  151.9370 H   0  0  0  0  0  0  0  0  0  0  0  0
  145.6066  140.7060  153.1246 H   0  0  0  0  0  0  0  0  0  0  0  0
  148.3934  142.8173  155.1864 H   0  0  0  0  0  0  0  0  0  0  0  0
  153.1281  140.2444  155.9099 H   0  0  0  0  0  0  0  0  0  0  0  0
  1  2  2  0  0  0  0
  1 22  1  0  0  0  0
  2 17  1  0  0  0  0
  2  3  1  0  0  0  0
  3  4  2  0  0  0  0
  4  5  1  0  0  0  0
  4 23  1  0  0  0  0
  5  6  1  0  0  0  0
  5 15  1  0  0  0  0
  6 18  1  0  0  0  0
  6 13  1  0  0  0  0
  6  7  1  0  0  0  0
  7  8  1  0  0  0  0
  8 19  1  0  0  0  0
  8  9  1  0  0  0  0
  8 11  1  0  0  0  0
  9 10  1  0  0  0  0
  9 24  1  0  0  0  0
  9 25  1  0  0  0  0
 10 26  1  0  0  0  0
 11 20  1  0  0  0  0
 11 12  1  0  0  0  0
 11 13  1  0  0  0  0
 12 27  1  0  0  0  0
 13 21  1  0  0  0  0
 13 14  1  0  0  0  0
 14 28  1  0  0  0  0
 15 16  2  0  0  0  0
 15 17  1  0  0  0  0
 17 29  1  0  0  0  0
M  END
> <s_m_source_file>
AV-unprocessed.smi

> <i_m_source_file_index>
72

> <i_lp_mmshare_version>
43012

> <i_f3d_flags>
0

> <s_epik_input>
W05IMl1jMW5bY0hdbihjKD1PKW4xKVtDQEBIXTJPW0NASF0oW0NIMl1bT0hdKVtDQEBIXShbT0hdKVtDQEhdMltPSF0=

> <s_epik_cmdline>
J2VwaWtfcHl0aG9uJywgJy1waCcsICc3LjAnLCAnLXRuJywgJzgnLCAnLW1hJywgJzIwMCcsICctbWV0YWxfYmluZGluZycsICctaW1hZScsICc8aW5maWxlLm1hZT4nLCAnLW9tYWUnLCAnPG91dGZpbGUubWFlPic=

> <r_lp_tautomer_probability>
7.17554e-07

> <r_epik_Ionization_Penalty>
0.0066451

> <r_epik_Ionization_Penalty_Charging>
0.00663793

> <r_epik_Ionization_Penalty_Neutral>
7.17052e-06

> <r_epik_State_Penalty>
0.419231

> <r_epik_Charging_Adjusted_Penalty>
0.425868

> <i_epik_Tot_Q>
0

> <i_epik_Tot_abs_Q>
0

> <r_epik_Metal_State_Penalty>
1.44144

> <b_epik_Metal_Only>
0

> <s_epik_Chemistry_Notes>
This compound contains an acetal/aminal-like group ( X-CH(R)-Y where X, Y are N, S, or O) that may be acid/base labile, releasing an aldehyde.

> <s_lp_Force_Field>
OPLS_2005

> <r_lp_Energy>
42.1864

> <b_lp_Chiralities_Consistent>
1

> <s_lp_Variant>
AV-unprocessed.smi:72-19

> <Gold.Version>
5.8.1

> <Gold.Id.Protein>
6NUR|6NUR_protein|mol2

> <Gold.PLP.Fitness>
46.0053

> <Gold.PLP.PLP>
-30.2130

> <Gold.PLP.part.hbond>
-6.2442

> <Gold.PLP.part.metal>
0.0000

> <Gold.PLP.part.buried>
-2.6189

> <Gold.PLP.part.nonpolar>
-24.0361

> <Gold.PLP.part.repulsive>
0.7538

> <Gold.PLP.ligand.clash>
0.0000

> <Gold.PLP.ligand.torsion>
0.5263

> <Gold.PLP.Chemscore.Hbond>
4.6073

> <Gold.PLP.Chemscore.CHOScore>
1.0000

> <Gold.PLP.Chemscore.Metal>
0.0000

> <Gold.Chemscore.Hbonds>
donor molecule, donor type, donor heavy atom, donor atom, acceptor molecule, acceptor atom, score
      L1  H    10    26       P1  7948  0.80
      L1  H    12    27       P1 10175  0.94
      L1  H    14    28       P1  8028  1.00
      P1  H  7954  7966       L1    10  1.00
      P1  H  7997  8008       L1     1  0.24
      P1  H 10752 10765       L1     3  0.59
      L1  C     4    23       P1  7948  1.00

> <Gold.PLP.Chemscore.Internal.Correction>
0.0229

> <Gold.Rescore>
     Score         DG    S(hbond)    S(metal)    S(lipo)     H(rot)  DE(clash)    DE(int)     intcor
      6.61      -8.65       2.92        0.00      32.70       4.06       1.69       0.35       ----

> <Gold.Chemscore.Fitness>
6.6132

> <Gold.Chemscore.DG>
-8.6543

> <Gold.Chemscore.ZeroCoef>
-5.4800

> <Gold.Chemscore.Hbond>
2.9169

> <Gold.Chemscore.Metal>
0.0000

> <Gold.Chemscore.Lipo>
32.6952

> <Gold.Chemscore.Internal_Hbond>
0.0000

> <Gold.Chemscore.DEClash>
1.6887

> <Gold.Chemscore.DEInternal>
0.3524

> <Gold.Chemscore.Rot>
4.0600

> <Gold.Chemscore.Internal.Correction>
   9.000000E+99

> <Gold.Chemscore.Hbonds>
donor molecule, donor type, donor heavy atom, donor atom, acceptor molecule, acceptor atom, score
      L1  H    10    26       P1  7948  0.76
      L1  H    12    27       P1 10175  0.63
      L1  H    14    28       P1  8028  0.91
      P1  H  7954  7966       L1    10  0.25
      P1  H  7997  8008       L1     1  0.02
      P1  H 10752 10765       L1     3  0.23

> <Gold.Chemscore.Hbond.Weighted>
-9.7425

> <Gold.Chemscore.Metal.Weighted>
-0.0000

> <Gold.Chemscore.Lipo.Weighted>
-3.8253

> <Gold.Chemscore.Internal_Hbond.Weighted>
0.0000

> <Gold.Chemscore.DEClash.Weighted>
1.6887

> <Gold.Chemscore.DEInternal.Weighted>
0.3524

> <Gold.Chemscore.Rot.Weighted>
10.3936

> <Gold.Chemscore.Internal.Correction.Weighted>
   9.000000E+99

> <Gold.Protein.RotatedTorsions>
[ 6907 6896 6895 6894 ] final -132.89 input  -60.11 | X-H torsion
[ 7974 7965 7964 7962 ] final -144.52 input  175.53 | X-H torsion
[ 8008 7997 7996 7995 ] final  -13.84 input   59.86 | X-H torsion
[ 10167 10162 10161 10158 ] final  105.55 input  -65.29 | X-H torsion
[ 10718 10713 10712 10709 ] final   99.30 input   66.30 | X-H torsion
[ 10763 10752 10751 10750 ] final  152.93 input  -60.55 | X-H torsion
[ 11005 11000 10999 10996 ] final  -10.88 input  -57.11 | X-H torsion

> <Gold.Protein.ActiveResidues>
 VAL166  LYS551  ARG553  GLY616  TRP617  ASP618  TYR619  PRO620  LYS621  CYS622 
 ASP623  PHE694  ASN695  SER759  ASP760  ASP761  ALA762  ILE779  LEU786  VAL792 
 PHE793  MET794  SER795  GLU796  ALA797  LYS798  CYS799  TRP800  GLU811  SER814 

> <Gold.Protein.RotatedAtoms>
  150.9676  133.6378  159.2743 H   0  0  0  0  0  0  0  0  0  0  0  0  # atno 6907 bound_to 6896
  151.3678  135.0915  159.9465 H   0  0  0  0  0  0  0  0  0  0  0  0  # atno 6908 bound_to 6896
  152.5171  133.9237  159.7601 H   0  0  0  0  0  0  0  0  0  0  0  0  # atno 6909 bound_to 6896
  144.8291  140.5699  143.5527 H   0  0  0  0  0  0  0  0  0  0  0  0  # atno 7974 bound_to 7965
  154.5259  140.2239  155.8890 H   0  0  0  0  0  0  0  0  0  0  0  0  # atno 8008 bound_to 7997
  156.1713  140.3121  155.8943 H   0  0  0  0  0  0  0  0  0  0  0  0  # atno 8009 bound_to 7997
  155.3552  140.0458  157.3037 H   0  0  0  0  0  0  0  0  0  0  0  0  # atno 8010 bound_to 7997
  139.7083  144.7082  151.1070 H   0  0  0  0  0  0  0  0  0  0  0  0  # atno 10167 bound_to 10162
  157.6879  131.0665  150.4927 H   0  0  0  0  0  0  0  0  0  0  0  0  # atno 10718 bound_to 10713
  154.1279  135.2828  155.3192 H   0  0  0  0  0  0  0  0  0  0  0  0  # atno 10763 bound_to 10752
  154.6376  135.5413  153.7755 H   0  0  0  0  0  0  0  0  0  0  0  0  # atno 10764 bound_to 10752
  153.0291  135.6478  154.1431 H   0  0  0  0  0  0  0  0  0  0  0  0  # atno 10765 bound_to 10752
  140.7494  133.8605  155.9032 H   0  0  0  0  0  0  0  0  0  0  0  0  # atno 11005 bound_to 11000
  145.4934  139.1487  143.3697 LP  0  0  0  0  0  0  0  0  0  0  0  0  # atno 17320 bound_to 7965
  146.2595  140.5073  142.8859 LP  0  0  0  0  0  0  0  0  0  0  0  0  # atno 17321 bound_to 7965
  140.7727  143.5328  150.9403 LP  0  0  0  0  0  0  0  0  0  0  0  0  # atno 17342 bound_to 10162
  139.9012  143.6833  152.3131 LP  0  0  0  0  0  0  0  0  0  0  0  0  # atno 17343 bound_to 10162
  156.5252  130.4171  149.6230 LP  0  0  0  0  0  0  0  0  0  0  0  0  # atno 17370 bound_to 10713
  156.3118  130.7233  151.2127 LP  0  0  0  0  0  0  0  0  0  0  0  0  # atno 17371 bound_to 10713
  140.9765  134.1462  157.4532 LP  0  0  0  0  0  0  0  0  0  0  0  0  # atno 17394 bound_to 11000
  139.8790  134.9996  156.5964 LP  0  0  0  0  0  0  0  0  0  0  0  0  # atno 17395 bound_to 11000

$$$$
