AV-unprocessed.smi:2095|AV-procd|sdf|8555|dock7
  -GOLD-   2272011283D 1   1.00000     0.00000
 Structure written by MMmdl.
 42 43  0  0  0  0  0  0  0  0  2 V2000
  154.2775  141.7326  159.6800 C   0  0  0  0  0  0  0  0  0  0  0  0
  152.9157  142.2251  160.2006 C   0  0  1  0  0  0  0  0  0  0  0  0
  152.7699  143.7576  160.1290 C   0  0  0  0  0  0  0  0  0  0  0  0
  152.5466  144.2341  158.6858 C   0  0  0  0  0  0  0  0  0  0  0  0
  151.3671  143.4918  158.0387 C   0  0  0  0  0  0  0  0  0  0  0  0
  151.5840  142.0206  158.0895 N   0  3  2  0  0  0  0  0  0  0  0  0
  150.6438  141.2034  157.2679 C   0  0  2  0  0  0  0  0  0  0  0  0
  151.0870  139.7269  157.2517 C   0  0  0  0  0  0  0  0  0  0  0  0
  150.3997  141.7917  155.8540 C   0  0  0  0  0  0  0  0  0  0  0  0
  149.2706  141.1505  155.1873 N   0  0  0  0  0  0  0  0  0  0  0  0
  149.3452  140.0619  154.4040 C   0  0  0  0  0  0  0  0  0  0  0  0
  150.4046  139.5172  154.0959 O   0  0  0  0  0  0  0  0  0  0  0  0
  148.0175  139.4776  153.9224 C   0  0  0  0  0  0  0  0  0  0  0  0
  147.1313  139.2343  155.0454 N   0  0  0  0  0  0  0  0  0  0  0  0
  145.8660  139.6007  155.2598 C   0  0  0  0  0  0  0  0  0  0  0  0
  145.4337  139.1968  156.4441 N   0  0  0  0  0  0  0  0  0  0  0  0
  146.5302  138.5349  156.9705 N   0  0  0  0  0  0  0  0  0  0  0  0
  147.5408  138.5542  156.1455 N   0  0  0  0  0  0  0  0  0  0  0  0
  151.7351  141.5335  159.4871 C   0  0  0  0  0  0  0  0  0  0  0  0
  154.4112  141.9466  158.6196 H   0  0  0  0  0  0  0  0  0  0  0  0
  154.3799  140.6552  159.8129 H   0  0  0  0  0  0  0  0  0  0  0  0
  155.0975  142.2072  160.2198 H   0  0  0  0  0  0  0  0  0  0  0  0
  152.8709  141.9441  161.2536 H   0  0  0  0  0  0  0  0  0  0  0  0
  151.9196  144.0649  160.7395 H   0  0  0  0  0  0  0  0  0  0  0  0
  153.6448  144.2469  160.5586 H   0  0  0  0  0  0  0  0  0  0  0  0
  152.3595  145.3082  158.6759 H   0  0  0  0  0  0  0  0  0  0  0  0
  153.4499  144.0769  158.0956 H   0  0  0  0  0  0  0  0  0  0  0  0
  150.4450  143.7537  158.5588 H   0  0  0  0  0  0  0  0  0  0  0  0
  151.2586  143.8284  157.0083 H   0  0  0  0  0  0  0  0  0  0  0  0
  149.6871  141.2113  157.7925 H   0  0  0  0  0  0  0  0  0  0  0  0
  150.3018  139.0800  156.8593 H   0  0  0  0  0  0  0  0  0  0  0  0
  151.3140  139.3737  158.2579 H   0  0  0  0  0  0  0  0  0  0  0  0
  151.9722  139.5732  156.6348 H   0  0  0  0  0  0  0  0  0  0  0  0
  150.1718  142.8551  155.9215 H   0  0  0  0  0  0  0  0  0  0  0  0
  151.2949  141.7118  155.2361 H   0  0  0  0  0  0  0  0  0  0  0  0
  148.3553  141.5337  155.3752 H   0  0  0  0  0  0  0  0  0  0  0  0
  147.5334  140.1653  153.2278 H   0  0  0  0  0  0  0  0  0  0  0  0
  148.1860  138.5410  153.3887 H   0  0  0  0  0  0  0  0  0  0  0  0
  145.2711  140.1682  154.5595 H   0  0  0  0  0  0  0  0  0  0  0  0
  151.8869  140.4535  159.4974 H   0  0  0  0  0  0  0  0  0  0  0  0
  150.8134  141.7239  160.0385 H   0  0  0  0  0  0  0  0  0  0  0  0
  152.4883  141.8679  157.6659 H   0  0  0  0  0  0  0  0  0  0  0  0
  1  2  1  0  0  0  0
  1 20  1  0  0  0  0
  1 21  1  0  0  0  0
  1 22  1  0  0  0  0
  2 19  1  0  0  0  0
  2  3  1  0  0  0  0
  2 23  1  0  0  0  0
  3  4  1  0  0  0  0
  3 24  1  0  0  0  0
  3 25  1  0  0  0  0
  4  5  1  0  0  0  0
  4 26  1  0  0  0  0
  4 27  1  0  0  0  0
  5  6  1  0  0  0  0
  5 28  1  0  0  0  0
  5 29  1  0  0  0  0
  6  7  1  0  0  0  0
  6 19  1  0  0  0  0
  6 42  1  0  0  0  0
  7  8  1  0  0  0  0
  7  9  1  0  0  0  0
  7 30  1  0  0  0  0
  8 31  1  0  0  0  0
  8 32  1  0  0  0  0
  8 33  1  0  0  0  0
  9 10  1  0  0  0  0
  9 34  1  0  0  0  0
  9 35  1  0  0  0  0
 10 11  1  0  0  0  0
 10 36  1  0  0  0  0
 11 12  2  0  0  0  0
 11 13  1  0  0  0  0
 13 14  1  0  0  0  0
 13 37  1  0  0  0  0
 13 38  1  0  0  0  0
 14 18  1  0  0  0  0
 14 15  1  0  0  0  0
 15 16  2  0  0  0  0
 15 39  1  0  0  0  0
 16 17  1  0  0  0  0
 17 18  2  0  0  0  0
 19 40  1  0  0  0  0
 19 41  1  0  0  0  0
M  CHG  1   6   1
M  END
> <s_m_source_file>
AV-unprocessed.smi

> <i_m_source_file_index>
2095

> <i_lp_mmshare_version>
43012

> <i_f3d_flags>
0

> <s_epik_input>
W0NIM11bQ0BASF0xW0NIMl1bQ0gyXVtDSDJdTihbQ0gyXTEpW0NASF0oW0NIM10pW0NIMl1bTkhdQyg9TylbQ0gyXW4yW2NIXW5ubjI=

> <s_epik_cmdline>
J2VwaWtfcHl0aG9uJywgJy1waCcsICc3LjAnLCAnLXRuJywgJzgnLCAnLW1hJywgJzIwMCcsICctbWV0YWxfYmluZGluZycsICctaW1hZScsICc8aW5maWxlLm1hZT4nLCAnLW9tYWUnLCAnPG91dGZpbGUubWFlPic=

> <r_lp_tautomer_probability>
1

> <r_epik_Ionization_Penalty>
0.00268321

> <r_epik_Ionization_Penalty_Charging>
0.00267875

> <r_epik_Ionization_Penalty_Neutral>
4.46125e-06

> <r_epik_State_Penalty>
0.00186642

> <r_epik_Charging_Adjusted_Penalty>
0.00454517

> <i_epik_Tot_Q>
1

> <i_epik_Tot_abs_Q>
1

> <r_epik_Metal_State_Penalty>
-0

> <b_epik_Metal_Only>
0

> <s_lp_Force_Field>
OPLS_2005

> <r_lp_Energy>
25.1095

> <b_lp_Chiralities_Consistent>
1

> <s_lp_Variant>
AV-unprocessed.smi:2095-2

> <Gold.Version>
5.8.1

> <Gold.Id.Protein>
6NUR|6NUR_protein|mol2

> <Gold.PLP.Fitness>
36.6662

> <Gold.PLP.PLP>
-31.4274

> <Gold.PLP.part.hbond>
-1.0000

> <Gold.PLP.part.metal>
0.0000

> <Gold.PLP.part.buried>
-3.7173

> <Gold.PLP.part.nonpolar>
-27.2722

> <Gold.PLP.part.repulsive>
0.4143

> <Gold.PLP.ligand.clash>
0.0000

> <Gold.PLP.ligand.torsion>
0.4391

> <Gold.PLP.Chemscore.Hbond>
1.0000

> <Gold.PLP.Chemscore.CHOScore>
0.9990

> <Gold.PLP.Chemscore.Metal>
0.0000

> <Gold.Chemscore.Hbonds>
donor molecule, donor type, donor heavy atom, donor atom, acceptor molecule, acceptor atom, score
      P1  H  7989  7998       L1    12  1.00
      L1  C    15    39       P1 10175  0.74

> <Gold.PLP.Chemscore.Internal.Correction>
0.1198

> <Gold.Rescore>
     Score         DG    S(hbond)    S(metal)    S(lipo)     H(rot)  DE(clash)    DE(int)     intcor
     12.00     -12.63       0.95        0.00      91.88       2.64       0.11       0.51       ----

> <Gold.Chemscore.Fitness>
12.0027

> <Gold.Chemscore.DG>
-12.6261

> <Gold.Chemscore.ZeroCoef>
-5.4800

> <Gold.Chemscore.Hbond>
0.9474

> <Gold.Chemscore.Metal>
0.0000

> <Gold.Chemscore.Lipo>
91.8836

> <Gold.Chemscore.Internal_Hbond>
0.0000

> <Gold.Chemscore.DEClash>
0.1141

> <Gold.Chemscore.DEInternal>
0.5093

> <Gold.Chemscore.Rot>
2.6439

> <Gold.Chemscore.Internal.Correction>
   9.000000E+99

> <Gold.Chemscore.Hbonds>
donor molecule, donor type, donor heavy atom, donor atom, acceptor molecule, acceptor atom, score
      P1  H  7989  7998       L1    12  0.69

> <Gold.Chemscore.Hbond.Weighted>
-3.1642

> <Gold.Chemscore.Metal.Weighted>
-0.0000

> <Gold.Chemscore.Lipo.Weighted>
-10.7504

> <Gold.Chemscore.Internal_Hbond.Weighted>
0.0000

> <Gold.Chemscore.DEClash.Weighted>
0.1141

> <Gold.Chemscore.DEInternal.Weighted>
0.5093

> <Gold.Chemscore.Rot.Weighted>
6.7685

> <Gold.Chemscore.Internal.Correction.Weighted>
   9.000000E+99

> <Gold.Protein.RotatedTorsions>
[ 6907 6896 6895 6894 ] final  -94.79 input  -60.11 | X-H torsion
[ 7974 7965 7964 7962 ] final  143.27 input  175.53 | X-H torsion
[ 8008 7997 7996 7995 ] final   12.14 input   59.86 | X-H torsion
[ 10167 10162 10161 10158 ] final -163.53 input  -65.29 | X-H torsion
[ 10718 10713 10712 10709 ] final -131.29 input   66.30 | X-H torsion
[ 10763 10752 10751 10750 ] final  105.74 input  -60.55 | X-H torsion
[ 11005 11000 10999 10996 ] final -153.08 input  -57.11 | X-H torsion

> <Gold.Protein.ActiveResidues>
 VAL166  LYS551  ARG553  GLY616  TRP617  ASP618  TYR619  PRO620  LYS621  CYS622 
 ASP623  PHE694  ASN695  SER759  ASP760  ASP761  ALA762  ILE779  LEU786  VAL792 
 PHE793  MET794  SER795  GLU796  ALA797  LYS798  CYS799  TRP800  GLU811  SER814 

> <Gold.Protein.RotatedAtoms>
  150.6949  134.1757  159.4229 H   0  0  0  0  0  0  0  0  0  0  0  0  # atno 6907 bound_to 6896
  151.9733  135.0063  160.0563 H   0  0  0  0  0  0  0  0  0  0  0  0  # atno 6908 bound_to 6896
  152.1821  133.4680  159.5000 H   0  0  0  0  0  0  0  0  0  0  0  0  # atno 6909 bound_to 6896
  144.8935  139.5524  143.5787 H   0  0  0  0  0  0  0  0  0  0  0  0  # atno 7974 bound_to 7965
  154.8165  140.2877  155.5817 H   0  0  0  0  0  0  0  0  0  0  0  0  # atno 8008 bound_to 7997
  156.2993  140.2558  156.2993 H   0  0  0  0  0  0  0  0  0  0  0  0  # atno 8009 bound_to 7997
  154.9388  140.0382  157.2075 H   0  0  0  0  0  0  0  0  0  0  0  0  # atno 8010 bound_to 7997
  139.6314  144.0433  152.2018 H   0  0  0  0  0  0  0  0  0  0  0  0  # atno 10167 bound_to 10162
  156.2230  130.6990  151.0776 H   0  0  0  0  0  0  0  0  0  0  0  0  # atno 10718 bound_to 10713
  153.3835  135.3900  155.1873 H   0  0  0  0  0  0  0  0  0  0  0  0  # atno 10763 bound_to 10752
  154.8710  135.3731  154.4828 H   0  0  0  0  0  0  0  0  0  0  0  0  # atno 10764 bound_to 10752
  153.5307  135.7086  153.5746 H   0  0  0  0  0  0  0  0  0  0  0  0  # atno 10765 bound_to 10752
  140.7120  134.3822  157.5196 H   0  0  0  0  0  0  0  0  0  0  0  0  # atno 11005 bound_to 11000
  146.3068  139.7607  142.9050 LP  0  0  0  0  0  0  0  0  0  0  0  0  # atno 17320 bound_to 7965
  145.3741  141.0347  143.3214 LP  0  0  0  0  0  0  0  0  0  0  0  0  # atno 17321 bound_to 7965
  140.0099  144.6231  150.7656 LP  0  0  0  0  0  0  0  0  0  0  0  0  # atno 17342 bound_to 10162
  140.7441  143.2856  151.3474 LP  0  0  0  0  0  0  0  0  0  0  0  0  # atno 17343 bound_to 10162
  157.7097  131.0740  150.6545 LP  0  0  0  0  0  0  0  0  0  0  0  0  # atno 17370 bound_to 10713
  156.6609  130.4512  149.5688 LP  0  0  0  0  0  0  0  0  0  0  0  0  # atno 17371 bound_to 10713
  139.8869  134.8896  156.2557 LP  0  0  0  0  0  0  0  0  0  0  0  0  # atno 17394 bound_to 11000
  141.0077  133.7114  156.1061 LP  0  0  0  0  0  0  0  0  0  0  0  0  # atno 17395 bound_to 11000

$$$$
