AV-unprocessed.smi:260|AV-procd|sdf|1978|dock9
  -GOLD-   2262021153D 1   1.00000     0.00000
 Structure written by MMmdl.
 53 56  0  0  0  0  0  0  0  0  1 V2000
  147.9488  132.4165  152.6757 C   0  0  0  0  0  0  0  0  0  0  0  0
  148.6996  132.3955  153.9213 N   0  0  0  0  0  0  0  0  0  0  0  0
  149.0540  133.4902  154.6131 C   0  0  0  0  0  0  0  0  0  0  0  0
  148.7716  134.6253  154.2270 O   0  0  0  0  0  0  0  0  0  0  0  0
  149.8514  133.3082  155.9313 C   0  0  2  0  0  0  0  0  0  0  0  0
  150.2977  131.8376  156.0447 C   0  0  0  0  0  0  0  0  0  0  0  0
  149.1038  133.7877  157.1965 C   0  0  0  0  0  0  0  0  0  0  0  0
  149.3405  135.3027  157.2438 C   0  0  0  0  0  0  0  0  0  0  0  0
  150.5472  135.5318  156.4619 N   0  0  0  0  0  0  0  0  0  0  0  0
  151.3729  136.5763  156.7314 C   0  0  0  0  0  0  0  0  0  0  0  0
  152.7106  136.3476  156.8121 N   0  0  0  0  0  0  0  0  0  0  0  0
  153.5562  137.3464  157.0799 C   0  0  0  0  0  0  0  0  0  0  0  0
  153.2842  138.6344  157.2936 N   0  0  0  0  0  0  0  0  0  0  0  0
  151.9462  138.8776  157.2004 C   0  0  0  0  0  0  0  0  0  0  0  0
  150.9291  137.9183  156.9240 C   0  0  0  0  0  0  0  0  0  0  0  0
  149.6891  138.5491  156.8995 N   0  0  0  0  0  0  0  0  0  0  0  0
  149.9561  139.8000  157.1569 C   0  0  0  0  0  0  0  0  0  0  0  0
  151.2869  140.0843  157.3551 N   0  0  0  0  0  0  0  0  0  0  0  0
  151.8572  141.3854  157.6596 C   0  0  0  0  0  0  0  0  0  0  0  0
  152.0165  141.6145  159.1753 C   0  0  1  0  0  0  0  0  0  0  0  0
  152.9846  140.7167  159.6835 O   0  0  0  0  0  0  0  0  0  0  0  0
  152.4524  143.0537  159.5057 C   0  0  2  0  0  0  0  0  0  0  0  0
  152.0092  143.5517  160.8828 C   0  0  0  0  0  0  0  0  0  0  0  0
  151.9640  145.0631  160.7214 C   0  0  0  0  0  0  0  0  0  0  0  0
  151.9835  145.2760  159.2054 C   0  0  0  0  0  0  0  0  0  0  0  0
  151.8095  143.9818  158.6457 O   0  0  0  0  0  0  0  0  0  0  0  0
  151.0589  134.2652  155.9516 C   0  0  0  0  0  0  0  0  0  0  0  0
  147.8383  131.4024  152.2916 H   0  0  0  0  0  0  0  0  0  0  0  0
  148.4618  133.0138  151.9206 H   0  0  0  0  0  0  0  0  0  0  0  0
  146.9530  132.8332  152.8326 H   0  0  0  0  0  0  0  0  0  0  0  0
  148.9624  131.4919  154.2873 H   0  0  0  0  0  0  0  0  0  0  0  0
  150.8963  131.6719  156.9411 H   0  0  0  0  0  0  0  0  0  0  0  0
  150.9050  131.5335  155.1912 H   0  0  0  0  0  0  0  0  0  0  0  0
  149.4392  131.1670  156.0977 H   0  0  0  0  0  0  0  0  0  0  0  0
  148.0464  133.5234  157.2341 H   0  0  0  0  0  0  0  0  0  0  0  0
  149.5610  133.3376  158.0789 H   0  0  0  0  0  0  0  0  0  0  0  0
  148.5117  135.8392  156.7808 H   0  0  0  0  0  0  0  0  0  0  0  0
  149.4422  135.6481  158.2733 H   0  0  0  0  0  0  0  0  0  0  0  0
  154.6000  137.0737  157.1314 H   0  0  0  0  0  0  0  0  0  0  0  0
  149.1846  140.5546  157.2123 H   0  0  0  0  0  0  0  0  0  0  0  0
  152.8191  141.4780  157.1538 H   0  0  0  0  0  0  0  0  0  0  0  0
  151.2062  142.1470  157.2287 H   0  0  0  0  0  0  0  0  0  0  0  0
  151.0687  141.4028  159.6723 H   0  0  0  0  0  0  0  0  0  0  0  0
  153.8317  140.9682  159.3484 H   0  0  0  0  0  0  0  0  0  0  0  0
  153.5337  143.1622  159.3991 H   0  0  0  0  0  0  0  0  0  0  0  0
  151.0097  143.1809  161.1139 H   0  0  0  0  0  0  0  0  0  0  0  0
  152.6787  143.2312  161.6814 H   0  0  0  0  0  0  0  0  0  0  0  0
  151.0642  145.4772  161.1775 H   0  0  0  0  0  0  0  0  0  0  0  0
  152.8270  145.5404  161.1869 H   0  0  0  0  0  0  0  0  0  0  0  0
  151.2019  145.9568  158.8675 H   0  0  0  0  0  0  0  0  0  0  0  0
  152.9463  145.6788  158.8876 H   0  0  0  0  0  0  0  0  0  0  0  0
  151.8357  133.8922  156.6210 H   0  0  0  0  0  0  0  0  0  0  0  0
  151.5082  134.3960  154.9661 H   0  0  0  0  0  0  0  0  0  0  0  0
  1  2  1  0  0  0  0
  1 28  1  0  0  0  0
  1 29  1  0  0  0  0
  1 30  1  0  0  0  0
  2  3  1  0  0  0  0
  2 31  1  0  0  0  0
  3  4  2  0  0  0  0
  3  5  1  0  0  0  0
  5 27  1  0  0  0  0
  5  6  1  0  0  0  0
  5  7  1  0  0  0  0
  6 32  1  0  0  0  0
  6 33  1  0  0  0  0
  6 34  1  0  0  0  0
  7  8  1  0  0  0  0
  7 35  1  0  0  0  0
  7 36  1  0  0  0  0
  8  9  1  0  0  0  0
  8 37  1  0  0  0  0
  8 38  1  0  0  0  0
  9 10  1  0  0  0  0
  9 27  1  0  0  0  0
 10 15  1  0  0  0  0
 10 11  2  0  0  0  0
 11 12  1  0  0  0  0
 12 13  2  0  0  0  0
 12 39  1  0  0  0  0
 13 14  1  0  0  0  0
 14 18  1  0  0  0  0
 14 15  2  0  0  0  0
 15 16  1  0  0  0  0
 16 17  2  0  0  0  0
 17 18  1  0  0  0  0
 17 40  1  0  0  0  0
 18 19  1  0  0  0  0
 19 20  1  0  0  0  0
 19 41  1  0  0  0  0
 19 42  1  0  0  0  0
 20 21  1  0  0  0  0
 20 22  1  0  0  0  0
 20 43  1  0  0  0  0
 21 44  1  0  0  0  0
 22 26  1  0  0  0  0
 22 23  1  0  0  0  0
 22 45  1  0  0  0  0
 23 24  1  0  0  0  0
 23 46  1  0  0  0  0
 23 47  1  0  0  0  0
 24 25  1  0  0  0  0
 24 48  1  0  0  0  0
 24 49  1  0  0  0  0
 25 26  1  0  0  0  0
 25 50  1  0  0  0  0
 25 51  1  0  0  0  0
 27 52  1  0  0  0  0
 27 53  1  0  0  0  0
M  END
> <s_m_source_file>
AV-unprocessed.smi

> <i_m_source_file_index>
260

> <i_lp_mmshare_version>
43012

> <i_f3d_flags>
0

> <s_epik_input>
W0NIM11bTkhdQyg9TylbQ0BAXTEoW0NIM10pW0NIMl1bQ0gyXU4oW0NIMl0xKWMobltjSF1uMiljKGMyMyluW2NIXW4zW0NIMl1bQ0BIXShbT0hdKVtDQEBIXTRbQ0gyXVtDSDJdW0NIMl1PNA==

> <s_epik_cmdline>
J2VwaWtfcHl0aG9uJywgJy1waCcsICc3LjAnLCAnLXRuJywgJzgnLCAnLW1hJywgJzIwMCcsICctbWV0YWxfYmluZGluZycsICctaW1hZScsICc8aW5maWxlLm1hZT4nLCAnLW9tYWUnLCAnPG91dGZpbGUubWFlPic=

> <r_lp_tautomer_probability>
1

> <r_epik_Ionization_Penalty>
0.00115068

> <r_epik_Ionization_Penalty_Charging>
0

> <r_epik_Ionization_Penalty_Neutral>
0.00115068

> <r_epik_State_Penalty>
0.000668876

> <r_epik_Charging_Adjusted_Penalty>
0.000668876

> <i_epik_Tot_Q>
0

> <i_epik_Tot_abs_Q>
0

> <r_epik_Metal_State_Penalty>
-0

> <b_epik_Metal_Only>
0

> <s_lp_Force_Field>
OPLS_2005

> <r_lp_Energy>
50.1788

> <b_lp_Chiralities_Consistent>
1

> <s_lp_Variant>
AV-unprocessed.smi:260-4

> <Gold.Version>
5.8.1

> <Gold.Id.Protein>
6NUR|6NUR_protein|mol2

> <Gold.PLP.Fitness>
40.3864

> <Gold.PLP.PLP>
-38.6762

> <Gold.PLP.part.hbond>
-2.0000

> <Gold.PLP.part.metal>
0.0000

> <Gold.PLP.part.buried>
-7.1583

> <Gold.PLP.part.nonpolar>
-30.2219

> <Gold.PLP.part.repulsive>
0.7796

> <Gold.PLP.ligand.clash>
1.2447

> <Gold.PLP.ligand.torsion>
1.6354

> <Gold.PLP.Chemscore.Hbond>
1.9600

> <Gold.PLP.Chemscore.CHOScore>
0.0000

> <Gold.PLP.Chemscore.Metal>
0.0000

> <Gold.Chemscore.Hbonds>
donor molecule, donor type, donor heavy atom, donor atom, acceptor molecule, acceptor atom, score
      P1  H  7997  8009       L1    13  0.98
      P1  H 10752 10765       L1    11  1.00

> <Gold.PLP.Chemscore.Internal.Correction>
0.3457

> <Gold.Rescore>
     Score         DG    S(hbond)    S(metal)    S(lipo)     H(rot)  DE(clash)    DE(int)     intcor
     13.08     -15.72       1.61        0.00      96.82       2.53       0.27       2.37       ----

> <Gold.Chemscore.Fitness>
13.0834

> <Gold.Chemscore.DG>
-15.7249

> <Gold.Chemscore.ZeroCoef>
-5.4800

> <Gold.Chemscore.Hbond>
1.6116

> <Gold.Chemscore.Metal>
0.0000

> <Gold.Chemscore.Lipo>
96.8232

> <Gold.Chemscore.Internal_Hbond>
0.0000

> <Gold.Chemscore.DEClash>
0.2678

> <Gold.Chemscore.DEInternal>
2.3737

> <Gold.Chemscore.Rot>
2.5259

> <Gold.Chemscore.Internal.Correction>
   9.000000E+99

> <Gold.Chemscore.Hbonds>
donor molecule, donor type, donor heavy atom, donor atom, acceptor molecule, acceptor atom, score
      P1  H  7997  8009       L1    13  0.90
      P1  H 10752 10765       L1    11  0.47

> <Gold.Chemscore.Hbond.Weighted>
-5.3829

> <Gold.Chemscore.Metal.Weighted>
-0.0000

> <Gold.Chemscore.Lipo.Weighted>
-11.3283

> <Gold.Chemscore.Internal_Hbond.Weighted>
0.0000

> <Gold.Chemscore.DEClash.Weighted>
0.2678

> <Gold.Chemscore.DEInternal.Weighted>
2.3737

> <Gold.Chemscore.Rot.Weighted>
6.4663

> <Gold.Chemscore.Internal.Correction.Weighted>
   9.000000E+99

> <Gold.Protein.RotatedTorsions>
[ 6907 6896 6895 6894 ] final   98.64 input  -60.11 | X-H torsion
[ 7974 7965 7964 7962 ] final   10.05 input  175.53 | X-H torsion
[ 8008 7997 7996 7995 ] final  151.05 input   59.86 | X-H torsion
[ 10167 10162 10161 10158 ] final -142.96 input  -65.29 | X-H torsion
[ 10718 10713 10712 10709 ] final   52.94 input   66.30 | X-H torsion
[ 10763 10752 10751 10750 ] final -121.86 input  -60.55 | X-H torsion
[ 11005 11000 10999 10996 ] final  168.76 input  -57.11 | X-H torsion

> <Gold.Protein.ActiveResidues>
 VAL166  LYS551  ARG553  GLY616  TRP617  ASP618  TYR619  PRO620  LYS621  CYS622 
 ASP623  PHE694  ASN695  SER759  ASP760  ASP761  ALA762  ILE779  LEU786  VAL792 
 PHE793  MET794  SER795  GLU796  ALA797  LYS798  CYS799  TRP800  GLU811  SER814 

> <Gold.Protein.RotatedAtoms>
  152.5406  134.0550  159.8126 H   0  0  0  0  0  0  0  0  0  0  0  0  # atno 6907 bound_to 6896
  151.0686  133.5477  159.2636 H   0  0  0  0  0  0  0  0  0  0  0  0  # atno 6908 bound_to 6896
  151.2349  135.0576  159.9056 H   0  0  0  0  0  0  0  0  0  0  0  0  # atno 6909 bound_to 6896
  146.2394  139.9692  142.8449 H   0  0  0  0  0  0  0  0  0  0  0  0  # atno 7974 bound_to 7965
  156.2690  140.2058  156.6115 H   0  0  0  0  0  0  0  0  0  0  0  0  # atno 8008 bound_to 7997
  154.6828  140.0538  157.0307 H   0  0  0  0  0  0  0  0  0  0  0  0  # atno 8009 bound_to 7997
  155.0976  140.3203  155.4559 H   0  0  0  0  0  0  0  0  0  0  0  0  # atno 8010 bound_to 7997
  139.8038  143.7796  152.2660 H   0  0  0  0  0  0  0  0  0  0  0  0  # atno 10167 bound_to 10162
  157.5121  130.8508  149.8449 H   0  0  0  0  0  0  0  0  0  0  0  0  # atno 10718 bound_to 10713
  154.8677  135.4153  154.2688 H   0  0  0  0  0  0  0  0  0  0  0  0  # atno 10763 bound_to 10752
  153.3602  135.7003  153.6724 H   0  0  0  0  0  0  0  0  0  0  0  0  # atno 10764 bound_to 10752
  153.5628  135.3606  155.2778 H   0  0  0  0  0  0  0  0  0  0  0  0  # atno 10765 bound_to 10752
  140.2906  134.7676  157.3835 H   0  0  0  0  0  0  0  0  0  0  0  0  # atno 11005 bound_to 11000
  145.1698  140.9715  143.4328 LP  0  0  0  0  0  0  0  0  0  0  0  0  # atno 17320 bound_to 7965
  145.0039  139.3572  143.6153 LP  0  0  0  0  0  0  0  0  0  0  0  0  # atno 17321 bound_to 7965
  139.7924  144.7405  150.9936 LP  0  0  0  0  0  0  0  0  0  0  0  0  # atno 17342 bound_to 10162
  140.7819  143.4428  151.0527 LP  0  0  0  0  0  0  0  0  0  0  0  0  # atno 17343 bound_to 10162
  156.0296  130.3768  150.1724 LP  0  0  0  0  0  0  0  0  0  0  0  0  # atno 17370 bound_to 10713
  156.9914  130.9894  151.3414 LP  0  0  0  0  0  0  0  0  0  0  0  0  # atno 17371 bound_to 10713
  140.1199  134.5234  155.8193 LP  0  0  0  0  0  0  0  0  0  0  0  0  # atno 17394 bound_to 11000
  141.2147  133.6752  156.6846 LP  0  0  0  0  0  0  0  0  0  0  0  0  # atno 17395 bound_to 11000

$$$$
