AV-unprocessed.smi:308|AV-procd|sdf|2286|dock4
  -GOLD-   2262022183D 1   1.00000     0.00000
 Structure written by MMmdl.
 51 52  0  0  0  0  0  0  0  0  3 V2000
  144.9666  132.0418  151.9343 C   0  0  0  0  0  0  0  0  0  0  0  0
  146.3176  132.7249  151.6572 C   0  0  2  0  0  0  0  0  0  0  0  0
  146.8391  133.5275  152.8627 C   0  0  0  0  0  0  0  0  0  0  0  0
  146.0588  134.8378  153.0712 C   0  0  0  0  0  0  0  0  0  0  0  0
  146.0688  135.6752  151.8442 N   0  3  2  0  0  0  0  0  0  0  0  0
  145.4255  136.9962  152.0656 C   0  0  0  0  0  0  0  0  0  0  0  0
  146.2715  138.1867  151.5646 C   0  0  0  0  0  0  0  0  0  0  0  0
  147.5195  138.3615  152.3046 N   0  0  0  0  0  0  0  0  0  0  0  0
  147.7308  139.2966  153.2421 C   0  0  0  0  0  0  0  0  0  0  0  0
  146.8617  140.0818  153.6183 O   0  0  0  0  0  0  0  0  0  0  0  0
  148.9980  139.2622  153.6904 N   0  0  0  0  0  0  0  0  0  0  0  0
  149.6257  140.1048  154.6492 C   0  0  0  0  0  0  0  0  0  0  0  0
  150.7335  139.5864  155.3521 C   0  0  0  0  0  0  0  0  0  0  0  0
  151.3868  140.3783  156.3184 C   0  0  0  0  0  0  0  0  0  0  0  0
  150.9237  141.6899  156.5854 C   0  0  0  0  0  0  0  0  0  0  0  0
  151.5251  142.5442  157.5351 N   0  0  0  0  0  0  0  0  0  0  0  0
  151.5055  143.9861  157.3260 C   0  0  0  0  0  0  0  0  0  0  0  0
  152.0576  141.9881  158.7741 C   0  0  0  0  0  0  0  0  0  0  0  0
  149.8479  142.1394  155.8941 N   0  3  0  0  0  0  0  0  0  0  0  0
  149.1934  141.4164  154.9598 C   0  0  0  0  0  0  0  0  0  0  0  0
  145.5137  134.9441  150.6746 C   0  0  0  0  0  0  0  0  0  0  0  0
  146.2816  133.6351  150.4166 C   0  0  0  0  0  0  0  0  0  0  0  0
  144.1754  132.7612  152.1444 H   0  0  0  0  0  0  0  0  0  0  0  0
  145.0372  131.3713  152.7912 H   0  0  0  0  0  0  0  0  0  0  0  0
  144.6494  131.4442  151.0792 H   0  0  0  0  0  0  0  0  0  0  0  0
  147.0322  131.9246  151.4595 H   0  0  0  0  0  0  0  0  0  0  0  0
  146.7997  132.9198  153.7674 H   0  0  0  0  0  0  0  0  0  0  0  0
  147.8922  133.7648  152.7048 H   0  0  0  0  0  0  0  0  0  0  0  0
  145.0292  134.6285  153.3639 H   0  0  0  0  0  0  0  0  0  0  0  0
  146.5115  135.3912  153.8951 H   0  0  0  0  0  0  0  0  0  0  0  0
  144.4378  137.0107  151.6024 H   0  0  0  0  0  0  0  0  0  0  0  0
  145.2565  137.1294  153.1352 H   0  0  0  0  0  0  0  0  0  0  0  0
  146.5236  138.0530  150.5130 H   0  0  0  0  0  0  0  0  0  0  0  0
  145.6844  139.1053  151.6128 H   0  0  0  0  0  0  0  0  0  0  0  0
  148.2893  137.7604  152.0481 H   0  0  0  0  0  0  0  0  0  0  0  0
  149.6062  138.5924  153.2423 H   0  0  0  0  0  0  0  0  0  0  0  0
  151.0896  138.5865  155.1514 H   0  0  0  0  0  0  0  0  0  0  0  0
  152.2359  139.9631  156.8403 H   0  0  0  0  0  0  0  0  0  0  0  0
  152.0491  144.2492  156.4182 H   0  0  0  0  0  0  0  0  0  0  0  0
  151.9727  144.5137  158.1577 H   0  0  0  0  0  0  0  0  0  0  0  0
  150.4805  144.3472  157.2365 H   0  0  0  0  0  0  0  0  0  0  0  0
  152.8321  141.2501  158.5624 H   0  0  0  0  0  0  0  0  0  0  0  0
  151.2658  141.5060  159.3486 H   0  0  0  0  0  0  0  0  0  0  0  0
  152.5003  142.7637  159.3994 H   0  0  0  0  0  0  0  0  0  0  0  0
  148.3505  141.9201  154.5123 H   0  0  0  0  0  0  0  0  0  0  0  0
  144.4547  134.7402  150.8381 H   0  0  0  0  0  0  0  0  0  0  0  0
  145.5768  135.5644  149.7810 H   0  0  0  0  0  0  0  0  0  0  0  0
  147.3035  133.8777  150.1215 H   0  0  0  0  0  0  0  0  0  0  0  0
  145.8420  133.1042  149.5715 H   0  0  0  0  0  0  0  0  0  0  0  0
  147.0399  135.8626  151.6402 H   0  0  0  0  0  0  0  0  0  0  0  0
  149.5103  143.0818  156.0910 H   0  0  0  0  0  0  0  0  0  0  0  0
  1  2  1  0  0  0  0
  1 23  1  0  0  0  0
  1 24  1  0  0  0  0
  1 25  1  0  0  0  0
  2 22  1  0  0  0  0
  2  3  1  0  0  0  0
  2 26  1  0  0  0  0
  3  4  1  0  0  0  0
  3 27  1  0  0  0  0
  3 28  1  0  0  0  0
  4  5  1  0  0  0  0
  4 29  1  0  0  0  0
  4 30  1  0  0  0  0
  5  6  1  0  0  0  0
  5 21  1  0  0  0  0
  5 50  1  0  0  0  0
  6  7  1  0  0  0  0
  6 31  1  0  0  0  0
  6 32  1  0  0  0  0
  7  8  1  0  0  0  0
  7 33  1  0  0  0  0
  7 34  1  0  0  0  0
  8  9  1  0  0  0  0
  8 35  1  0  0  0  0
  9 10  2  0  0  0  0
  9 11  1  0  0  0  0
 11 12  1  0  0  0  0
 11 36  1  0  0  0  0
 12 20  1  0  0  0  0
 12 13  2  0  0  0  0
 13 14  1  0  0  0  0
 13 37  1  0  0  0  0
 14 15  2  0  0  0  0
 14 38  1  0  0  0  0
 15 16  1  0  0  0  0
 15 19  1  0  0  0  0
 16 17  1  0  0  0  0
 16 18  1  0  0  0  0
 17 39  1  0  0  0  0
 17 40  1  0  0  0  0
 17 41  1  0  0  0  0
 18 42  1  0  0  0  0
 18 43  1  0  0  0  0
 18 44  1  0  0  0  0
 19 20  2  0  0  0  0
 19 51  1  0  0  0  0
 20 45  1  0  0  0  0
 21 22  1  0  0  0  0
 21 46  1  0  0  0  0
 21 47  1  0  0  0  0
 22 48  1  0  0  0  0
 22 49  1  0  0  0  0
M  CHG  1   5   1
M  CHG  1  19   1
M  END
> <s_m_source_file>
AV-unprocessed.smi

> <i_m_source_file_index>
308

> <i_lp_mmshare_version>
43012

> <i_f3d_flags>
0

> <s_epik_input>
W0NIM11bQ0hdMVtDSDJdW0NIMl1OKFtDSDJdW0NIMl0xKVtDSDJdW0NIMl1bTkhdQyg9TylbTkhdYzJbY0hdW2NIXWMoTihbQ0gzXSlbQ0gzXSluW2NIXTI=

> <s_epik_cmdline>
J2VwaWtfcHl0aG9uJywgJy1waCcsICc3LjAnLCAnLXRuJywgJzgnLCAnLW1hJywgJzIwMCcsICctbWV0YWxfYmluZGluZycsICctaW1hZScsICc8aW5maWxlLm1hZT4nLCAnLW9tYWUnLCAnPG91dGZpbGUubWFlPic=

> <r_lp_tautomer_probability>
0.999994

> <r_epik_Ionization_Penalty>
0.309846

> <r_epik_Ionization_Penalty_Charging>
0.309826

> <r_epik_Ionization_Penalty_Neutral>
1.97883e-05

> <r_epik_State_Penalty>
0.302329

> <r_epik_Charging_Adjusted_Penalty>
0.612155

> <i_epik_Tot_Q>
2

> <i_epik_Tot_abs_Q>
2

> <r_epik_Metal_State_Penalty>
0.577265

> <b_epik_Metal_Only>
0

> <s_lp_Force_Field>
OPLS_2005

> <r_lp_Energy>
37.2755

> <b_lp_Chiralities_Consistent>
1

> <s_lp_Variant>
AV-unprocessed.smi:308-2

> <Gold.Version>
5.8.1

> <Gold.Id.Protein>
6NUR|6NUR_protein|mol2

> <Gold.PLP.Fitness>
55.3720

> <Gold.PLP.PLP>
-43.0545

> <Gold.PLP.part.hbond>
-5.0000

> <Gold.PLP.part.metal>
0.0000

> <Gold.PLP.part.buried>
-1.8780

> <Gold.PLP.part.nonpolar>
-36.6304

> <Gold.PLP.part.repulsive>
0.4752

> <Gold.PLP.ligand.clash>
0.0000

> <Gold.PLP.ligand.torsion>
1.3605

> <Gold.PLP.Chemscore.Hbond>
4.9920

> <Gold.PLP.Chemscore.CHOScore>
0.0000

> <Gold.PLP.Chemscore.Metal>
0.0000

> <Gold.Chemscore.Hbonds>
donor molecule, donor type, donor heavy atom, donor atom, acceptor molecule, acceptor atom, score
      L1  H     5    50       P1  7948  2.00
      L1  H     8    35       P1  7948  1.00
      L1  H    19    51       P1  8028  2.00

> <Gold.PLP.Chemscore.Internal.Correction>
0.0626

> <Gold.Rescore>
     Score         DG    S(hbond)    S(metal)    S(lipo)     H(rot)  DE(clash)    DE(int)     intcor
     20.21     -22.75       2.93        0.00      95.66       1.45       0.08       2.46       ----

> <Gold.Chemscore.Fitness>
20.2145

> <Gold.Chemscore.DG>
-22.7535

> <Gold.Chemscore.ZeroCoef>
-5.4800

> <Gold.Chemscore.Hbond>
2.9304

> <Gold.Chemscore.Metal>
0.0000

> <Gold.Chemscore.Lipo>
95.6624

> <Gold.Chemscore.Internal_Hbond>
0.0000

> <Gold.Chemscore.DEClash>
0.0797

> <Gold.Chemscore.DEInternal>
2.4593

> <Gold.Chemscore.Rot>
1.4479

> <Gold.Chemscore.Internal.Correction>
   9.000000E+99

> <Gold.Chemscore.Hbonds>
donor molecule, donor type, donor heavy atom, donor atom, acceptor molecule, acceptor atom, score
      L1  H     5    50       P1  7948  0.99
      L1  H     8    35       P1  7948  0.96
      L1  H    19    51       P1  8028  0.98

> <Gold.Chemscore.Hbond.Weighted>
-9.7876

> <Gold.Chemscore.Metal.Weighted>
-0.0000

> <Gold.Chemscore.Lipo.Weighted>
-11.1925

> <Gold.Chemscore.Internal_Hbond.Weighted>
0.0000

> <Gold.Chemscore.DEClash.Weighted>
0.0797

> <Gold.Chemscore.DEInternal.Weighted>
2.4593

> <Gold.Chemscore.Rot.Weighted>
3.7065

> <Gold.Chemscore.Internal.Correction.Weighted>
   9.000000E+99

> <Gold.Protein.RotatedTorsions>
[ 6907 6896 6895 6894 ] final  -53.33 input  -60.11 | X-H torsion
[ 7974 7965 7964 7962 ] final  -42.54 input  175.53 | X-H torsion
[ 8008 7997 7996 7995 ] final -109.31 input   59.86 | X-H torsion
[ 10167 10162 10161 10158 ] final -144.23 input  -65.29 | X-H torsion
[ 10718 10713 10712 10709 ] final -156.66 input   66.30 | X-H torsion
[ 10763 10752 10751 10750 ] final -105.51 input  -60.55 | X-H torsion
[ 11005 11000 10999 10996 ] final   14.14 input  -57.11 | X-H torsion

> <Gold.Protein.ActiveResidues>
 VAL166  LYS551  ARG553  GLY616  TRP617  ASP618  TYR619  PRO620  LYS621  CYS622 
 ASP623  PHE694  ASN695  SER759  ASP760  ASP761  ALA762  ILE779  LEU786  VAL792 
 PHE793  MET794  SER795  GLU796  ALA797  LYS798  CYS799  TRP800  GLU811  SER814 

> <Gold.Protein.RotatedAtoms>
  150.8437  134.7738  159.6952 H   0  0  0  0  0  0  0  0  0  0  0  0  # atno 6907 bound_to 6896
  152.4519  134.5373  159.9838 H   0  0  0  0  0  0  0  0  0  0  0  0  # atno 6908 bound_to 6896
  151.5507  133.3380  159.2988 H   0  0  0  0  0  0  0  0  0  0  0  0  # atno 6909 bound_to 6896
  146.0106  140.6969  142.9226 H   0  0  0  0  0  0  0  0  0  0  0  0  # atno 7974 bound_to 7965
  154.9573  140.0399  157.2173 H   0  0  0  0  0  0  0  0  0  0  0  0  # atno 8008 bound_to 7997
  154.7922  140.2837  155.5961 H   0  0  0  0  0  0  0  0  0  0  0  0  # atno 8009 bound_to 7997
  156.2951  140.2571  156.2771 H   0  0  0  0  0  0  0  0  0  0  0  0  # atno 8010 bound_to 7997
  139.7919  143.7955  152.2650 H   0  0  0  0  0  0  0  0  0  0  0  0  # atno 10167 bound_to 10162
  156.5296  130.8515  151.2711 H   0  0  0  0  0  0  0  0  0  0  0  0  # atno 10718 bound_to 10713
  154.7951  135.4746  154.0142 H   0  0  0  0  0  0  0  0  0  0  0  0  # atno 10763 bound_to 10752
  153.1691  135.6822  153.8640 H   0  0  0  0  0  0  0  0  0  0  0  0  # atno 10764 bound_to 10752
  153.8228  135.3202  155.3389 H   0  0  0  0  0  0  0  0  0  0  0  0  # atno 10765 bound_to 10752
  140.4729  134.1013  155.7736 H   0  0  0  0  0  0  0  0  0  0  0  0  # atno 11005 bound_to 11000
  144.6951  140.3391  143.7202 LP  0  0  0  0  0  0  0  0  0  0  0  0  # atno 17320 bound_to 7965
  145.7348  139.1747  143.2409 LP  0  0  0  0  0  0  0  0  0  0  0  0  # atno 17321 bound_to 7965
  139.8048  144.7359  150.9776 LP  0  0  0  0  0  0  0  0  0  0  0  0  # atno 17342 bound_to 10162
  140.7820  143.4309  151.0697 LP  0  0  0  0  0  0  0  0  0  0  0  0  # atno 17343 bound_to 10162
  157.7424  130.9889  150.2513 LP  0  0  0  0  0  0  0  0  0  0  0  0  # atno 17370 bound_to 10713
  156.3072  130.3767  149.7695 LP  0  0  0  0  0  0  0  0  0  0  0  0  # atno 17371 bound_to 10713
  141.1568  133.8867  157.1955 LP  0  0  0  0  0  0  0  0  0  0  0  0  # atno 17394 bound_to 11000
  139.9874  135.0077  156.9895 LP  0  0  0  0  0  0  0  0  0  0  0  0  # atno 17395 bound_to 11000

$$$$
