AV-unprocessed.smi:2344|AV-procd|sdf|9358|dock2
  -GOLD-   2272012583D 1   1.00000     0.00000
 Structure written by MMmdl.
 35 36  0  0  0  0  0  0  0  0  1 V2000
  152.8482  143.3646  162.2125 C   0  0  0  0  0  0  0  0  0  0  0  0
  152.1487  143.2054  160.8792 C   0  0  0  0  0  0  0  0  0  0  0  0
  152.4998  142.1694  159.9933 C   0  0  0  0  0  0  0  0  0  0  0  0
  151.8174  142.0658  158.7659 C   0  0  0  0  0  0  0  0  0  0  0  0
  150.8012  142.9969  158.4536 C   0  0  0  0  0  0  0  0  0  0  0  0
  150.1783  142.8054  157.1916 N   0  0  0  0  0  0  0  0  0  0  0  0
  150.1279  141.6852  156.4497 C   0  0  0  0  0  0  0  0  0  0  0  0
  150.6335  140.6042  156.7533 O   0  0  0  0  0  0  0  0  0  0  0  0
  149.4492  141.8888  155.3115 N   0  0  0  0  0  0  0  0  0  0  0  0
  149.2266  140.8805  154.2817 C   0  0  1  0  0  0  0  0  0  0  0  0
  148.8816  139.5568  154.9061 C   0  0  0  0  0  0  0  0  0  0  0  0
  147.6886  139.1045  154.5271 C   0  0  0  0  0  0  0  0  0  0  0  0
  146.9760  140.0433  153.5893 C   0  0  2  0  0  0  0  0  0  0  0  0
  146.5568  139.3469  152.2843 C   0  0  0  0  0  0  0  0  0  0  0  0
  147.6573  138.6686  151.7169 O   0  0  0  0  0  0  0  0  0  0  0  0
  147.9968  141.1943  153.3897 C   0  0  0  0  0  0  0  0  0  0  0  0
  150.4681  143.9899  159.3153 N   0  0  0  0  0  0  0  0  0  0  0  0
  151.1224  144.0885  160.4914 C   0  0  0  0  0  0  0  0  0  0  0  0
  150.1253  140.7550  153.6751 H   0  0  0  0  0  0  0  0  0  0  0  0
  146.0921  140.4150  154.1093 H   0  0  0  0  0  0  0  0  0  0  0  0
  153.8382  142.9078  162.1917 H   0  0  0  0  0  0  0  0  0  0  0  0
  152.2660  142.8887  163.0019 H   0  0  0  0  0  0  0  0  0  0  0  0
  152.9677  144.4197  162.4608 H   0  0  0  0  0  0  0  0  0  0  0  0
  153.2783  141.4645  160.2462 H   0  0  0  0  0  0  0  0  0  0  0  0
  152.0758  141.2774  158.0740 H   0  0  0  0  0  0  0  0  0  0  0  0
  149.7175  143.6171  156.8084 H   0  0  0  0  0  0  0  0  0  0  0  0
  149.0677  142.8072  155.1396 H   0  0  0  0  0  0  0  0  0  0  0  0
  149.5546  139.0450  155.5784 H   0  0  0  0  0  0  0  0  0  0  0  0
  147.2455  138.1755  154.8545 H   0  0  0  0  0  0  0  0  0  0  0  0
  145.7466  138.6387  152.4617 H   0  0  0  0  0  0  0  0  0  0  0  0
  146.1945  140.0792  151.5621 H   0  0  0  0  0  0  0  0  0  0  0  0
  148.4490  139.1233  151.9607 H   0  0  0  0  0  0  0  0  0  0  0  0
  147.5408  142.1532  153.6403 H   0  0  0  0  0  0  0  0  0  0  0  0
  148.3109  141.2653  152.3478 H   0  0  0  0  0  0  0  0  0  0  0  0
  150.8166  144.8962  161.1400 H   0  0  0  0  0  0  0  0  0  0  0  0
  1  2  1  0  0  0  0
  1 21  1  0  0  0  0
  1 22  1  0  0  0  0
  1 23  1  0  0  0  0
  2 18  1  0  0  0  0
  2  3  2  0  0  0  0
  3  4  1  0  0  0  0
  3 24  1  0  0  0  0
  4  5  2  0  0  0  0
  4 25  1  0  0  0  0
  5  6  1  0  0  0  0
  5 17  1  0  0  0  0
  6  7  1  0  0  0  0
  6 26  1  0  0  0  0
  7  8  2  0  0  0  0
  7  9  1  0  0  0  0
  9 10  1  0  0  0  0
  9 27  1  0  0  0  0
 10 19  1  0  0  0  0
 10 16  1  0  0  0  0
 10 11  1  0  0  0  0
 11 12  2  0  0  0  0
 11 28  1  0  0  0  0
 12 13  1  0  0  0  0
 12 29  1  0  0  0  0
 13 20  1  0  0  0  0
 13 14  1  0  0  0  0
 13 16  1  0  0  0  0
 14 15  1  0  0  0  0
 14 30  1  0  0  0  0
 14 31  1  0  0  0  0
 15 32  1  0  0  0  0
 16 33  1  0  0  0  0
 16 34  1  0  0  0  0
 17 18  2  0  0  0  0
 18 35  1  0  0  0  0
M  END
> <s_m_source_file>
AV-unprocessed.smi

> <i_m_source_file_index>
2344

> <i_lp_mmshare_version>
43012

> <i_f3d_flags>
0

> <s_epik_input>
W0NIM11jMVtjSF1bY0hdYyhuW2NIXTEpW05IXUMoPU8pW05IXVtDQEBIXTJbQ0hdPVtDSF1bQ0BASF0oW0NIMl0yKVtDSDJdW09IXQ==

> <s_epik_cmdline>
J2VwaWtfcHl0aG9uJywgJy1waCcsICc3LjAnLCAnLXRuJywgJzgnLCAnLW1hJywgJzIwMCcsICctbWV0YWxfYmluZGluZycsICctaW1hZScsICc8aW5maWxlLm1hZT4nLCAnLW9tYWUnLCAnPG91dGZpbGUubWFlPic=

> <r_lp_tautomer_probability>
1

> <r_epik_Ionization_Penalty>
5.7643e-05

> <r_epik_Ionization_Penalty_Charging>
0

> <r_epik_Ionization_Penalty_Neutral>
5.7643e-05

> <r_epik_State_Penalty>
-0

> <r_epik_Charging_Adjusted_Penalty>
0

> <i_epik_Tot_Q>
0

> <i_epik_Tot_abs_Q>
0

> <r_epik_Metal_State_Penalty>
-0

> <b_epik_Metal_Only>
0

> <s_lp_Force_Field>
OPLS_2005

> <r_lp_Energy>
17.6743

> <b_lp_Chiralities_Consistent>
1

> <s_lp_Variant>
AV-unprocessed.smi:2344-2

> <Gold.Version>
5.8.1

> <Gold.Id.Protein>
6NUR|6NUR_protein|mol2

> <Gold.PLP.Fitness>
45.5001

> <Gold.PLP.PLP>
-35.5362

> <Gold.PLP.part.hbond>
-4.6312

> <Gold.PLP.part.metal>
0.0000

> <Gold.PLP.part.buried>
-1.3703

> <Gold.PLP.part.nonpolar>
-29.2061

> <Gold.PLP.part.repulsive>
0.3235

> <Gold.PLP.ligand.clash>
0.0000

> <Gold.PLP.ligand.torsion>
0.4148

> <Gold.PLP.Chemscore.Hbond>
3.5917

> <Gold.PLP.Chemscore.CHOScore>
0.0000

> <Gold.PLP.Chemscore.Metal>
0.0000

> <Gold.Chemscore.Hbonds>
donor molecule, donor type, donor heavy atom, donor atom, acceptor molecule, acceptor atom, score
      L1  H     6    26       P1  8028  1.00
      L1  H     9    27       P1  8028  1.00
      L1  H    15    32       P1  7957  0.69
      P1  H  7954  7966       L1    15  0.90

> <Gold.PLP.Chemscore.Internal.Correction>
0.0182

> <Gold.Rescore>
     Score         DG    S(hbond)    S(metal)    S(lipo)     H(rot)  DE(clash)    DE(int)     intcor
     15.95     -21.55       2.80        0.00      97.30       1.82       2.37       3.23       ----

> <Gold.Chemscore.Fitness>
15.9506

> <Gold.Chemscore.DG>
-21.5494

> <Gold.Chemscore.ZeroCoef>
-5.4800

> <Gold.Chemscore.Hbond>
2.7965

> <Gold.Chemscore.Metal>
0.0000

> <Gold.Chemscore.Lipo>
97.3012

> <Gold.Chemscore.Internal_Hbond>
0.0000

> <Gold.Chemscore.DEClash>
2.3689

> <Gold.Chemscore.DEInternal>
3.2299

> <Gold.Chemscore.Rot>
1.8184

> <Gold.Chemscore.Internal.Correction>
   9.000000E+99

> <Gold.Chemscore.Hbonds>
donor molecule, donor type, donor heavy atom, donor atom, acceptor molecule, acceptor atom, score
      L1  H     6    26       P1  8028  0.99
      L1  H     9    27       P1  8028  0.93
      L1  H    15    32       P1  7957  0.67
      P1  H  7954  7966       L1    15  0.25

> <Gold.Chemscore.Hbond.Weighted>
-9.3402

> <Gold.Chemscore.Metal.Weighted>
-0.0000

> <Gold.Chemscore.Lipo.Weighted>
-11.3842

> <Gold.Chemscore.Internal_Hbond.Weighted>
0.0000

> <Gold.Chemscore.DEClash.Weighted>
2.3689

> <Gold.Chemscore.DEInternal.Weighted>
3.2299

> <Gold.Chemscore.Rot.Weighted>
4.6551

> <Gold.Chemscore.Internal.Correction.Weighted>
   9.000000E+99

> <Gold.Protein.RotatedTorsions>
[ 6907 6896 6895 6894 ] final   40.16 input  -60.11 | X-H torsion
[ 7974 7965 7964 7962 ] final  160.35 input  175.53 | X-H torsion
[ 8008 7997 7996 7995 ] final  103.49 input   59.86 | X-H torsion
[ 10167 10162 10161 10158 ] final  134.12 input  -65.29 | X-H torsion
[ 10718 10713 10712 10709 ] final  -29.55 input   66.30 | X-H torsion
[ 10763 10752 10751 10750 ] final  -44.74 input  -60.55 | X-H torsion
[ 11005 11000 10999 10996 ] final -177.34 input  -57.11 | X-H torsion

> <Gold.Protein.ActiveResidues>
 VAL166  LYS551  ARG553  GLY616  TRP617  ASP618  TYR619  PRO620  LYS621  CYS622 
 ASP623  PHE694  ASN695  SER759  ASP760  ASP761  ALA762  ILE779  LEU786  VAL792 
 PHE793  MET794  SER795  GLU796  ALA797  LYS798  CYS799  TRP800  GLU811  SER814 

> <Gold.Protein.RotatedAtoms>
  152.1790  134.8770  160.0527 H   0  0  0  0  0  0  0  0  0  0  0  0  # atno 6907 bound_to 6896
  151.9702  133.3718  159.4076 H   0  0  0  0  0  0  0  0  0  0  0  0  # atno 6908 bound_to 6896
  150.6914  134.4071  159.5189 H   0  0  0  0  0  0  0  0  0  0  0  0  # atno 6909 bound_to 6896
  144.7741  139.7745  143.6285 H   0  0  0  0  0  0  0  0  0  0  0  0  # atno 7974 bound_to 7965
  156.1488  140.3164  155.8614 H   0  0  0  0  0  0  0  0  0  0  0  0  # atno 8008 bound_to 7997
  155.4011  140.0499  157.3053 H   0  0  0  0  0  0  0  0  0  0  0  0  # atno 8009 bound_to 7997
  154.5040  140.2140  155.9300 H   0  0  0  0  0  0  0  0  0  0  0  0  # atno 8010 bound_to 7997
  139.5269  144.6583  151.5094 H   0  0  0  0  0  0  0  0  0  0  0  0  # atno 10167 bound_to 10162
  156.4110  130.4408  149.7252 H   0  0  0  0  0  0  0  0  0  0  0  0  # atno 10718 bound_to 10713
  154.0171  135.6674  153.4769 H   0  0  0  0  0  0  0  0  0  0  0  0  # atno 10763 bound_to 10752
  153.0596  135.5036  154.8058 H   0  0  0  0  0  0  0  0  0  0  0  0  # atno 10764 bound_to 10752
  154.6960  135.3070  154.9375 H   0  0  0  0  0  0  0  0  0  0  0  0  # atno 10765 bound_to 10752
  140.4420  134.6423  157.4762 H   0  0  0  0  0  0  0  0  0  0  0  0  # atno 11005 bound_to 11000
  146.1909  139.5149  142.9806 LP  0  0  0  0  0  0  0  0  0  0  0  0  # atno 17320 bound_to 7965
  145.6236  141.0318  143.1901 LP  0  0  0  0  0  0  0  0  0  0  0  0  # atno 17321 bound_to 7965
  140.6419  143.8872  150.6699 LP  0  0  0  0  0  0  0  0  0  0  0  0  # atno 17342 bound_to 10162
  140.2210  143.3809  152.1643 LP  0  0  0  0  0  0  0  0  0  0  0  0  # atno 17343 bound_to 10162
  156.4230  130.7778  151.2796 LP  0  0  0  0  0  0  0  0  0  0  0  0  # atno 17370 bound_to 10713
  157.7507  131.0177  150.3596 LP  0  0  0  0  0  0  0  0  0  0  0  0  # atno 17371 bound_to 10713
  140.0064  134.6758  155.9449 LP  0  0  0  0  0  0  0  0  0  0  0  0  # atno 17394 bound_to 11000
  141.1701  133.6537  156.4622 LP  0  0  0  0  0  0  0  0  0  0  0  0  # atno 17395 bound_to 11000

$$$$
