AV-unprocessed.smi:1328|AV-procd|sdf|5481|dock7
  -GOLD-   22720 5 53D 1   1.00000     0.00000
 Structure written by MMmdl.
 38 39  0  0  0  0  0  0  0  0  1 V2000
  148.7600  140.0160  154.0146 C   0  0  0  0  0  0  0  0  0  0  0  0
  149.7301  139.5357  155.0557 C   0  0  0  0  0  0  0  0  0  0  0  0
  149.8820  138.2380  155.2613 N   0  0  0  0  0  0  0  0  0  0  0  0
  150.8355  138.1207  156.2774 O   0  0  0  0  0  0  0  0  0  0  0  0
  151.2240  139.3672  156.6479 C   0  0  0  0  0  0  0  0  0  0  0  0
  152.2407  139.4559  157.7351 C   0  0  0  0  0  0  0  0  0  0  0  0
  150.5652  140.3115  155.9092 C   0  0  0  0  0  0  0  0  0  0  0  0
  150.6835  141.8139  155.9772 C   0  0  0  0  0  0  0  0  0  0  0  0
  150.5392  142.3200  157.4170 C   0  0  0  0  0  0  0  0  0  0  0  0
  149.7707  141.7686  158.2065 O   0  0  0  0  0  0  0  0  0  0  0  0
  151.3045  143.3720  157.7477 N   0  0  0  0  0  0  0  0  0  0  0  0
  151.3559  144.0098  159.0615 C   0  0  2  0  0  0  0  0  0  0  0  0
  152.3340  145.1924  158.9893 C   0  0  0  0  0  0  0  0  0  0  0  0
  151.7643  142.9773  160.1341 C   0  0  1  0  0  0  0  0  0  0  0  0
  153.1424  142.3512  159.9284 C   0  0  0  0  0  0  0  0  0  0  0  0
  153.4811  141.8315  161.3124 C   0  0  0  0  0  0  0  0  0  0  0  0
  152.6805  142.7421  162.2475 C   0  0  0  0  0  0  0  0  0  0  0  0
  151.9164  143.5962  161.4038 O   0  0  0  0  0  0  0  0  0  0  0  0
  149.2824  140.5088  153.1947 H   0  0  0  0  0  0  0  0  0  0  0  0
  148.0570  140.7329  154.4390 H   0  0  0  0  0  0  0  0  0  0  0  0
  148.1795  139.1951  153.5915 H   0  0  0  0  0  0  0  0  0  0  0  0
  152.1510  140.3985  158.2754 H   0  0  0  0  0  0  0  0  0  0  0  0
  153.2489  139.3944  157.3255 H   0  0  0  0  0  0  0  0  0  0  0  0
  152.1154  138.6453  158.4532 H   0  0  0  0  0  0  0  0  0  0  0  0
  151.6477  142.1507  155.5950 H   0  0  0  0  0  0  0  0  0  0  0  0
  149.9273  142.2896  155.3512 H   0  0  0  0  0  0  0  0  0  0  0  0
  151.9092  143.7552  157.0358 H   0  0  0  0  0  0  0  0  0  0  0  0
  150.3718  144.4104  159.3118 H   0  0  0  0  0  0  0  0  0  0  0  0
  152.3557  145.7486  159.9265 H   0  0  0  0  0  0  0  0  0  0  0  0
  152.0454  145.8929  158.2048 H   0  0  0  0  0  0  0  0  0  0  0  0
  153.3496  144.8560  158.7780 H   0  0  0  0  0  0  0  0  0  0  0  0
  151.0106  142.1915  160.2152 H   0  0  0  0  0  0  0  0  0  0  0  0
  153.1474  141.5666  159.1714 H   0  0  0  0  0  0  0  0  0  0  0  0
  153.8640  143.1142  159.6333 H   0  0  0  0  0  0  0  0  0  0  0  0
  153.1476  140.7989  161.4217 H   0  0  0  0  0  0  0  0  0  0  0  0
  154.5526  141.8628  161.5123 H   0  0  0  0  0  0  0  0  0  0  0  0
  152.0145  142.1573  162.8829 H   0  0  0  0  0  0  0  0  0  0  0  0
  153.3267  143.3395  162.8912 H   0  0  0  0  0  0  0  0  0  0  0  0
  1  2  1  0  0  0  0
  1 19  1  0  0  0  0
  1 20  1  0  0  0  0
  1 21  1  0  0  0  0
  2  7  1  0  0  0  0
  2  3  2  0  0  0  0
  3  4  1  0  0  0  0
  4  5  1  0  0  0  0
  5  6  1  0  0  0  0
  5  7  2  0  0  0  0
  6 22  1  0  0  0  0
  6 23  1  0  0  0  0
  6 24  1  0  0  0  0
  7  8  1  0  0  0  0
  8  9  1  0  0  0  0
  8 25  1  0  0  0  0
  8 26  1  0  0  0  0
  9 10  2  0  0  0  0
  9 11  1  0  0  0  0
 11 12  1  0  0  0  0
 11 27  1  0  0  0  0
 12 13  1  0  0  0  0
 12 14  1  0  0  0  0
 12 28  1  0  0  0  0
 13 29  1  0  0  0  0
 13 30  1  0  0  0  0
 13 31  1  0  0  0  0
 14 18  1  0  0  0  0
 14 15  1  0  0  0  0
 14 32  1  0  0  0  0
 15 16  1  0  0  0  0
 15 33  1  0  0  0  0
 15 34  1  0  0  0  0
 16 17  1  0  0  0  0
 16 35  1  0  0  0  0
 16 36  1  0  0  0  0
 17 18  1  0  0  0  0
 17 37  1  0  0  0  0
 17 38  1  0  0  0  0
M  END
> <s_m_source_file>
AV-unprocessed.smi

> <i_m_source_file_index>
1328

> <i_lp_mmshare_version>
43012

> <i_f3d_flags>
0

> <s_epik_input>
W0NIM11jMW5vYyhbQ0gzXSljMVtDSDJdQyg9TylbTkhdW0NASF0oW0NIM10pW0NAQEhdMltDSDJdW0NIMl1bQ0gyXU8y

> <s_epik_cmdline>
J2VwaWtfcHl0aG9uJywgJy1waCcsICc3LjAnLCAnLXRuJywgJzgnLCAnLW1hJywgJzIwMCcsICctbWV0YWxfYmluZGluZycsICctaW1hZScsICc8aW5maWxlLm1hZT4nLCAnLW9tYWUnLCAnPG91dGZpbGUubWFlPic=

> <r_lp_tautomer_probability>
1

> <r_epik_Ionization_Penalty>
2.66156e-08

> <r_epik_Ionization_Penalty_Charging>
0

> <r_epik_Ionization_Penalty_Neutral>
2.66156e-08

> <r_epik_State_Penalty>
-0

> <r_epik_Charging_Adjusted_Penalty>
0

> <i_epik_Tot_Q>
0

> <i_epik_Tot_abs_Q>
0

> <r_epik_Metal_State_Penalty>
-0

> <b_epik_Metal_Only>
0

> <s_lp_Force_Field>
OPLS_2005

> <r_lp_Energy>
12.7116

> <b_lp_Chiralities_Consistent>
1

> <s_lp_Variant>
AV-unprocessed.smi:1328-3

> <Gold.Version>
5.8.1

> <Gold.Id.Protein>
6NUR|6NUR_protein|mol2

> <Gold.PLP.Fitness>
37.3461

> <Gold.PLP.PLP>
-38.1855

> <Gold.PLP.part.hbond>
0.0000

> <Gold.PLP.part.metal>
0.0000

> <Gold.PLP.part.buried>
-3.5253

> <Gold.PLP.part.nonpolar>
-34.3234

> <Gold.PLP.part.repulsive>
0.3044

> <Gold.PLP.ligand.clash>
0.0000

> <Gold.PLP.ligand.torsion>
0.4402

> <Gold.PLP.Chemscore.Hbond>
0.0000

> <Gold.PLP.Chemscore.CHOScore>
0.0000

> <Gold.PLP.Chemscore.Metal>
0.0000

> <Gold.PLP.Chemscore.Internal.Correction>
0.0410

> <Gold.Rescore>
     Score         DG    S(hbond)    S(metal)    S(lipo)     H(rot)  DE(clash)    DE(int)     intcor
     12.53     -14.09       0.00        0.00     106.76       1.52       0.03       1.53       ----

> <Gold.Chemscore.Fitness>
12.5349

> <Gold.Chemscore.DG>
-14.0904

> <Gold.Chemscore.ZeroCoef>
-5.4800

> <Gold.Chemscore.Hbond>
0.0000

> <Gold.Chemscore.Metal>
0.0000

> <Gold.Chemscore.Lipo>
106.7621

> <Gold.Chemscore.Internal_Hbond>
0.0000

> <Gold.Chemscore.DEClash>
0.0259

> <Gold.Chemscore.DEInternal>
1.5296

> <Gold.Chemscore.Rot>
1.5159

> <Gold.Chemscore.Internal.Correction>
   9.000000E+99

> <Gold.Chemscore.Hbond.Weighted>
-0.0000

> <Gold.Chemscore.Metal.Weighted>
-0.0000

> <Gold.Chemscore.Lipo.Weighted>
-12.4912

> <Gold.Chemscore.Internal_Hbond.Weighted>
0.0000

> <Gold.Chemscore.DEClash.Weighted>
0.0259

> <Gold.Chemscore.DEInternal.Weighted>
1.5296

> <Gold.Chemscore.Rot.Weighted>
3.8807

> <Gold.Chemscore.Internal.Correction.Weighted>
   9.000000E+99

> <Gold.Protein.RotatedTorsions>
[ 6907 6896 6895 6894 ] final  131.89 input  -60.11 | X-H torsion
[ 7974 7965 7964 7962 ] final   -3.12 input  175.53 | X-H torsion
[ 8008 7997 7996 7995 ] final  137.58 input   59.86 | X-H torsion
[ 10167 10162 10161 10158 ] final  -49.86 input  -65.29 | X-H torsion
[ 10718 10713 10712 10709 ] final  111.58 input   66.30 | X-H torsion
[ 10763 10752 10751 10750 ] final  -55.39 input  -60.55 | X-H torsion
[ 11005 11000 10999 10996 ] final  -30.74 input  -57.11 | X-H torsion

> <Gold.Protein.ActiveResidues>
 VAL166  LYS551  ARG553  GLY616  TRP617  ASP618  TYR619  PRO620  LYS621  CYS622 
 ASP623  PHE694  ASN695  SER759  ASP760  ASP761  ALA762  ILE779  LEU786  VAL792 
 PHE793  MET794  SER795  GLU796  ALA797  LYS798  CYS799  TRP800  GLU811  SER814 

> <Gold.Protein.RotatedAtoms>
  152.3380  133.6033  159.5855 H   0  0  0  0  0  0  0  0  0  0  0  0  # atno 6907 bound_to 6896
  150.7461  133.9767  159.3572 H   0  0  0  0  0  0  0  0  0  0  0  0  # atno 6908 bound_to 6896
  151.7634  135.0805  160.0400 H   0  0  0  0  0  0  0  0  0  0  0  0  # atno 6909 bound_to 6896
  146.2394  140.1673  142.8332 H   0  0  0  0  0  0  0  0  0  0  0  0  # atno 7974 bound_to 7965
  156.3001  140.2416  156.3932 H   0  0  0  0  0  0  0  0  0  0  0  0  # atno 8008 bound_to 7997
  154.8594  140.0420  157.1675 H   0  0  0  0  0  0  0  0  0  0  0  0  # atno 8009 bound_to 7997
  154.8912  140.2963  155.5373 H   0  0  0  0  0  0  0  0  0  0  0  0  # atno 8010 bound_to 7997
  140.6665  143.2680  151.4276 H   0  0  0  0  0  0  0  0  0  0  0  0  # atno 10167 bound_to 10162
  157.6437  131.0953  150.6769 H   0  0  0  0  0  0  0  0  0  0  0  0  # atno 10718 bound_to 10713
  154.1900  135.6429  153.5057 H   0  0  0  0  0  0  0  0  0  0  0  0  # atno 10763 bound_to 10752
  153.0037  135.5426  154.6425 H   0  0  0  0  0  0  0  0  0  0  0  0  # atno 10764 bound_to 10752
  154.5811  135.2925  155.0704 H   0  0  0  0  0  0  0  0  0  0  0  0  # atno 10765 bound_to 10752
  140.9409  133.7279  156.1074 H   0  0  0  0  0  0  0  0  0  0  0  0  # atno 11005 bound_to 11000
  145.0040  140.8657  143.5264 LP  0  0  0  0  0  0  0  0  0  0  0  0  # atno 17320 bound_to 7965
  145.1697  139.2411  143.5348 LP  0  0  0  0  0  0  0  0  0  0  0  0  # atno 17321 bound_to 7965
  139.5916  144.1487  152.2095 LP  0  0  0  0  0  0  0  0  0  0  0  0  # atno 17342 bound_to 10162
  140.0843  144.5674  150.7100 LP  0  0  0  0  0  0  0  0  0  0  0  0  # atno 17343 bound_to 10162
  156.7089  130.4646  149.5552 LP  0  0  0  0  0  0  0  0  0  0  0  0  # atno 17370 bound_to 10713
  156.1743  130.6458  151.0876 LP  0  0  0  0  0  0  0  0  0  0  0  0  # atno 17371 bound_to 10713
  140.7736  134.3805  157.5502 LP  0  0  0  0  0  0  0  0  0  0  0  0  # atno 17394 bound_to 11000
  139.8820  134.9037  156.2861 LP  0  0  0  0  0  0  0  0  0  0  0  0  # atno 17395 bound_to 11000

$$$$
