AV-unprocessed.smi:800|AV-procd|sdf|3787|dock4
  -GOLD-   22720 1223D 1   1.00000     0.00000
 Structure written by MMmdl.
 36 37  0  0  0  0  0  0  0  0  1 V2000
  146.1820  142.8413  154.9133 C   0  0  0  0  0  0  0  0  0  0  0  0
  147.3909  142.3655  154.0974 C   0  0  0  0  0  0  0  0  0  0  0  0
  147.0310  141.1795  153.1891 C   0  0  0  0  0  0  0  0  0  0  0  0
  148.4740  142.0010  155.0047 N   0  0  0  0  0  0  0  0  0  0  0  0
  149.5621  141.2865  154.6745 C   0  0  0  0  0  0  0  0  0  0  0  0
  149.7931  140.8813  153.5347 O   0  0  0  0  0  0  0  0  0  0  0  0
  150.5519  141.0651  155.7819 C   0  0  0  0  0  0  0  0  0  0  0  0
  150.7293  142.0938  156.6423 N   0  0  0  0  0  0  0  0  0  0  0  0
  151.6051  141.9499  157.6445 C   0  0  0  0  0  0  0  0  0  0  0  0
  151.7673  143.0286  158.5235 N   0  0  0  0  0  0  0  0  0  0  0  0
  152.4935  142.8978  159.7895 C   0  0  0  0  0  0  0  0  0  0  0  0
  151.9078  143.8385  160.8561 C   0  0  0  0  0  0  0  0  0  0  0  0
  151.9001  145.1747  160.3692 O   0  0  0  0  0  0  0  0  0  0  0  0
  151.0848  145.3035  159.2113 C   0  0  0  0  0  0  0  0  0  0  0  0
  151.6403  144.4197  158.0817 C   0  0  0  0  0  0  0  0  0  0  0  0
  152.3376  140.8514  157.8653 N   0  0  0  0  0  0  0  0  0  0  0  0
  152.1897  139.8158  157.0136 C   0  0  0  0  0  0  0  0  0  0  0  0
  151.2958  139.8649  155.9264 C   0  0  0  0  0  0  0  0  0  0  0  0
  151.1847  138.5191  154.8432 Cl  0  0  0  0  0  0  0  0  0  0  0  0
  145.3627  143.1434  154.2604 H   0  0  0  0  0  0  0  0  0  0  0  0
  146.4404  143.6999  155.5341 H   0  0  0  0  0  0  0  0  0  0  0  0
  145.8102  142.0542  155.5705 H   0  0  0  0  0  0  0  0  0  0  0  0
  147.7169  143.1975  153.4707 H   0  0  0  0  0  0  0  0  0  0  0  0
  146.2279  141.4440  152.5011 H   0  0  0  0  0  0  0  0  0  0  0  0
  146.7004  140.3189  153.7717 H   0  0  0  0  0  0  0  0  0  0  0  0
  147.8856  140.8658  152.5887 H   0  0  0  0  0  0  0  0  0  0  0  0
  148.3872  142.3061  155.9635 H   0  0  0  0  0  0  0  0  0  0  0  0
  152.4626  141.8809  160.1793 H   0  0  0  0  0  0  0  0  0  0  0  0
  153.5428  143.1371  159.6151 H   0  0  0  0  0  0  0  0  0  0  0  0
  150.8969  143.5327  161.1309 H   0  0  0  0  0  0  0  0  0  0  0  0
  152.5100  143.7962  161.7636 H   0  0  0  0  0  0  0  0  0  0  0  0
  150.0537  145.0331  159.4455 H   0  0  0  0  0  0  0  0  0  0  0  0
  151.0754  146.3477  158.8996 H   0  0  0  0  0  0  0  0  0  0  0  0
  152.6232  144.7788  157.7753 H   0  0  0  0  0  0  0  0  0  0  0  0
  150.9842  144.5191  157.2177 H   0  0  0  0  0  0  0  0  0  0  0  0
  152.7978  138.9425  157.1975 H   0  0  0  0  0  0  0  0  0  0  0  0
  1  2  1  0  0  0  0
  1 20  1  0  0  0  0
  1 21  1  0  0  0  0
  1 22  1  0  0  0  0
  2  3  1  0  0  0  0
  2  4  1  0  0  0  0
  2 23  1  0  0  0  0
  3 24  1  0  0  0  0
  3 25  1  0  0  0  0
  3 26  1  0  0  0  0
  4  5  1  0  0  0  0
  4 27  1  0  0  0  0
  5  6  2  0  0  0  0
  5  7  1  0  0  0  0
  7 18  1  0  0  0  0
  7  8  2  0  0  0  0
  8  9  1  0  0  0  0
  9 10  1  0  0  0  0
  9 16  2  0  0  0  0
 10 15  1  0  0  0  0
 10 11  1  0  0  0  0
 11 12  1  0  0  0  0
 11 28  1  0  0  0  0
 11 29  1  0  0  0  0
 12 13  1  0  0  0  0
 12 30  1  0  0  0  0
 12 31  1  0  0  0  0
 13 14  1  0  0  0  0
 14 15  1  0  0  0  0
 14 32  1  0  0  0  0
 14 33  1  0  0  0  0
 15 34  1  0  0  0  0
 15 35  1  0  0  0  0
 16 17  1  0  0  0  0
 17 18  2  0  0  0  0
 17 36  1  0  0  0  0
 18 19  1  0  0  0  0
M  END
> <s_m_source_file>
AV-unprocessed.smi

> <i_m_source_file_index>
800

> <i_lp_mmshare_version>
43012

> <i_f3d_flags>
0

> <s_epik_input>
W0NIM11bQ0hdKFtDSDNdKVtOSF1DKD1PKWMxbmMobltjSF1jMUNsKU4yW0NIMl1bQ0gyXU9bQ0gyXVtDSDJdMg==

> <s_epik_cmdline>
J2VwaWtfcHl0aG9uJywgJy1waCcsICc3LjAnLCAnLXRuJywgJzgnLCAnLW1hJywgJzIwMCcsICctbWV0YWxfYmluZGluZycsICctaW1hZScsICc8aW5maWxlLm1hZT4nLCAnLW9tYWUnLCAnPG91dGZpbGUubWFlPic=

> <r_lp_tautomer_probability>
1

> <r_epik_Ionization_Penalty>
1.24434e-05

> <r_epik_Ionization_Penalty_Charging>
0

> <r_epik_Ionization_Penalty_Neutral>
1.24434e-05

> <r_epik_State_Penalty>
-0

> <r_epik_Charging_Adjusted_Penalty>
0

> <i_epik_Tot_Q>
0

> <i_epik_Tot_abs_Q>
0

> <r_epik_Metal_State_Penalty>
0.0120585

> <b_epik_Metal_Only>
0

> <s_lp_Force_Field>
OPLS_2005

> <r_lp_Energy>
14.0321

> <b_lp_Chiralities_Consistent>
1

> <s_lp_Variant>
AV-unprocessed.smi:800-1

> <Gold.Version>
5.8.1

> <Gold.Id.Protein>
6NUR|6NUR_protein|mol2

> <Gold.PLP.Fitness>
44.5025

> <Gold.PLP.PLP>
-42.3116

> <Gold.PLP.part.hbond>
-2.9785

> <Gold.PLP.part.metal>
0.0000

> <Gold.PLP.part.buried>
-4.5978

> <Gold.PLP.part.nonpolar>
-37.1031

> <Gold.PLP.part.repulsive>
4.2755

> <Gold.PLP.ligand.clash>
0.0000

> <Gold.PLP.ligand.torsion>
1.0382

> <Gold.PLP.Chemscore.Hbond>
1.3840

> <Gold.PLP.Chemscore.CHOScore>
0.0000

> <Gold.PLP.Chemscore.Metal>
0.0000

> <Gold.Chemscore.Hbonds>
donor molecule, donor type, donor heavy atom, donor atom, acceptor molecule, acceptor atom, score
      P1  H  7989  7998       L1     6  0.34
      P1  H  8011  8017       L1     6  1.00

> <Gold.PLP.Chemscore.Internal.Correction>
0.1154

> <Gold.Rescore>
     Score         DG    S(hbond)    S(metal)    S(lipo)     H(rot)  DE(clash)    DE(int)     intcor
     14.32     -17.34       1.16        0.00      90.24       1.00       1.35       1.68       ----

> <Gold.Chemscore.Fitness>
14.3154

> <Gold.Chemscore.DG>
-17.3393

> <Gold.Chemscore.ZeroCoef>
-5.4800

> <Gold.Chemscore.Hbond>
1.1560

> <Gold.Chemscore.Metal>
0.0000

> <Gold.Chemscore.Lipo>
90.2420

> <Gold.Chemscore.Internal_Hbond>
0.0000

> <Gold.Chemscore.DEClash>
1.3487

> <Gold.Chemscore.DEInternal>
1.6752

> <Gold.Chemscore.Rot>
1.0000

> <Gold.Chemscore.Internal.Correction>
   9.000000E+99

> <Gold.Chemscore.Hbonds>
donor molecule, donor type, donor heavy atom, donor atom, acceptor molecule, acceptor atom, score
      P1  H  7989  7998       L1     6  0.13
      P1  H  8011  8017       L1     6  0.67

> <Gold.Chemscore.Hbond.Weighted>
-3.8610

> <Gold.Chemscore.Metal.Weighted>
-0.0000

> <Gold.Chemscore.Lipo.Weighted>
-10.5583

> <Gold.Chemscore.Internal_Hbond.Weighted>
0.0000

> <Gold.Chemscore.DEClash.Weighted>
1.3487

> <Gold.Chemscore.DEInternal.Weighted>
1.6752

> <Gold.Chemscore.Rot.Weighted>
2.5600

> <Gold.Chemscore.Internal.Correction.Weighted>
   9.000000E+99

> <Gold.Protein.RotatedTorsions>
[ 6907 6896 6895 6894 ] final -115.80 input  -60.11 | X-H torsion
[ 7974 7965 7964 7962 ] final   29.95 input  175.53 | X-H torsion
[ 8008 7997 7996 7995 ] final  -70.19 input   59.86 | X-H torsion
[ 10167 10162 10161 10158 ] final    5.47 input  -65.29 | X-H torsion
[ 10718 10713 10712 10709 ] final  -48.83 input   66.30 | X-H torsion
[ 10763 10752 10751 10750 ] final  -55.96 input  -60.55 | X-H torsion
[ 11005 11000 10999 10996 ] final   74.24 input  -57.11 | X-H torsion

> <Gold.Protein.ActiveResidues>
 VAL166  LYS551  ARG553  GLY616  TRP617  ASP618  TYR619  PRO620  LYS621  CYS622 
 ASP623  PHE694  ASN695  SER759  ASP760  ASP761  ALA762  ILE779  LEU786  VAL792 
 PHE793  MET794  SER795  GLU796  ALA797  LYS798  CYS799  TRP800  GLU811  SER814 

> <Gold.Protein.RotatedAtoms>
  150.8006  133.8606  159.3230 H   0  0  0  0  0  0  0  0  0  0  0  0  # atno 6907 bound_to 6896
  151.6419  135.1010  160.0152 H   0  0  0  0  0  0  0  0  0  0  0  0  # atno 6908 bound_to 6896
  152.4093  133.6898  159.6419 H   0  0  0  0  0  0  0  0  0  0  0  0  # atno 6909 bound_to 6896
  146.1641  139.6853  142.9013 H   0  0  0  0  0  0  0  0  0  0  0  0  # atno 7974 bound_to 7965
  154.4994  140.0839  156.7765 H   0  0  0  0  0  0  0  0  0  0  0  0  # atno 8008 bound_to 7997
  155.4040  140.3438  155.4240 H   0  0  0  0  0  0  0  0  0  0  0  0  # atno 8009 bound_to 7997
  156.1436  140.1537  156.8869 H   0  0  0  0  0  0  0  0  0  0  0  0  # atno 8010 bound_to 7997
  140.6480  143.7614  150.7530 H   0  0  0  0  0  0  0  0  0  0  0  0  # atno 10167 bound_to 10162
  156.1951  130.4154  149.9318 H   0  0  0  0  0  0  0  0  0  0  0  0  # atno 10718 bound_to 10713
  154.1990  135.6414  153.5081 H   0  0  0  0  0  0  0  0  0  0  0  0  # atno 10763 bound_to 10752
  153.0016  135.5447  154.6335 H   0  0  0  0  0  0  0  0  0  0  0  0  # atno 10764 bound_to 10752
  154.5743  135.2919  155.0769 H   0  0  0  0  0  0  0  0  0  0  0  0  # atno 10765 bound_to 10752
  139.9401  134.7416  156.1123 H   0  0  0  0  0  0  0  0  0  0  0  0  # atno 11005 bound_to 11000
  145.4513  141.0428  143.2803 LP  0  0  0  0  0  0  0  0  0  0  0  0  # atno 17320 bound_to 7965
  144.8068  139.6037  143.7047 LP  0  0  0  0  0  0  0  0  0  0  0  0  # atno 17321 bound_to 7965
  140.1259  143.4569  152.2284 LP  0  0  0  0  0  0  0  0  0  0  0  0  # atno 17342 bound_to 10162
  139.5692  144.7453  151.3936 LP  0  0  0  0  0  0  0  0  0  0  0  0  # atno 17343 bound_to 10162
  156.7045  130.8946  151.3603 LP  0  0  0  0  0  0  0  0  0  0  0  0  # atno 17370 bound_to 10713
  157.6952  130.9275  150.0626 LP  0  0  0  0  0  0  0  0  0  0  0  0  # atno 17371 bound_to 10713
  141.1031  133.6670  156.2801 LP  0  0  0  0  0  0  0  0  0  0  0  0  # atno 17394 bound_to 11000
  140.5975  134.5588  157.5511 LP  0  0  0  0  0  0  0  0  0  0  0  0  # atno 17395 bound_to 11000

$$$$
