AV-unprocessed.smi:1|AV-procd|sdf|14|dock7
  -GOLD-   2262015113D 1   1.00000     0.00000
 Structure written by MMmdl.
 57 62  0  0  0  0  0  0  0  0  1 V2000
  150.8766  141.8618  155.4664 O   0  0  0  0  0  0  0  0  0  0  0  0
  151.0298  141.4098  156.6045 C   0  0  0  0  0  0  0  0  0  0  0  0
  150.8411  140.1108  157.0580 N   0  0  0  0  0  0  0  0  0  0  0  0
  151.0331  139.1065  156.2572 C   0  0  0  0  0  0  0  0  0  0  0  0
  151.4149  139.0289  154.9117 N   0  0  0  0  0  0  0  0  0  0  0  0
  151.5597  137.8506  154.1644 C   0  0  0  0  0  0  0  0  0  0  0  0
  151.3630  136.6453  154.6265 N   0  0  0  0  0  0  0  0  0  0  0  0
  150.9931  136.6615  155.9652 C   0  0  0  0  0  0  0  0  0  0  0  0
  150.8168  137.7469  156.7972 C   0  0  0  0  0  0  0  0  0  0  0  0
  150.4437  137.3392  158.0734 N   0  0  0  0  0  0  0  0  0  0  0  0
  150.4133  136.0148  157.9578 C   0  0  0  0  0  0  0  0  0  0  0  0
  150.7290  135.5325  156.7417 N   0  0  0  0  0  0  0  0  0  0  0  0
  150.7784  134.0847  156.3612 C   0  0  1  0  0  0  0  0  0  0  0  0
  150.3797  133.3241  157.4590 O   0  0  0  0  0  0  0  0  0  0  0  0
  149.6764  132.1783  157.0066 C   0  0  1  0  0  0  0  0  0  0  0  0
  148.8057  131.5973  158.1279 C   0  0  0  0  0  0  0  0  0  0  0  0
  148.2176  132.6584  158.8635 O   0  0  0  0  0  0  0  0  0  0  0  0
  147.6212  132.4122  160.0468 C   0  0  0  0  0  0  0  0  0  0  0  0
  147.2863  131.2867  160.4219 O   0  0  0  0  0  0  0  0  0  0  0  0
  147.4131  133.6458  160.8587 C   0  0  0  0  0  0  0  0  0  0  0  0
  146.5678  133.5950  161.9917 C   0  0  0  0  0  0  0  0  0  0  0  0
  146.3535  134.7428  162.7792 C   0  0  0  0  0  0  0  0  0  0  0  0
  146.9798  135.9566  162.4416 C   0  0  0  0  0  0  0  0  0  0  0  0
  147.8213  136.0208  161.3156 C   0  0  0  0  0  0  0  0  0  0  0  0
  148.0386  134.8732  160.5283 C   0  0  0  0  0  0  0  0  0  0  0  0
  148.9124  132.6752  155.7781 C   0  0  1  0  0  0  0  0  0  0  0  0
  147.6829  133.2854  156.1307 O   0  0  0  0  0  0  0  0  0  0  0  0
  147.4717  134.6181  155.1505 S   0  0  0  0  0  0  0  0  0  0  0  0
  146.7553  134.1855  153.9408 O   0  0  0  0  0  0  0  0  0  0  0  0
  147.0152  135.7463  155.9758 O   0  0  0  0  0  0  0  0  0  0  0  0
  149.0728  134.8642  154.7417 O   0  0  0  0  0  0  0  0  0  0  0  0
  149.8373  133.7498  155.1850 C   0  0  1  0  0  0  0  0  0  0  0  0
  151.4855  142.3482  157.6737 C   0  0  0  0  0  0  0  0  0  0  0  0
  151.9064  141.8455  158.9233 C   0  0  0  0  0  0  0  0  0  0  0  0
  152.3412  142.7294  159.9301 C   0  0  0  0  0  0  0  0  0  0  0  0
  152.3591  144.1172  159.6900 C   0  0  0  0  0  0  0  0  0  0  0  0
  151.9431  144.6215  158.4426 C   0  0  0  0  0  0  0  0  0  0  0  0
  151.5073  143.7389  157.4348 C   0  0  0  0  0  0  0  0  0  0  0  0
  151.8596  138.0157  153.1286 H   0  0  0  0  0  0  0  0  0  0  0  0
  150.1578  135.3719  158.7873 H   0  0  0  0  0  0  0  0  0  0  0  0
  151.8269  133.8909  156.1309 H   0  0  0  0  0  0  0  0  0  0  0  0
  150.4192  131.4421  156.6944 H   0  0  0  0  0  0  0  0  0  0  0  0
  148.0151  130.9764  157.7052 H   0  0  0  0  0  0  0  0  0  0  0  0
  149.4069  130.9591  158.7772 H   0  0  0  0  0  0  0  0  0  0  0  0
  146.0760  132.6741  162.2708 H   0  0  0  0  0  0  0  0  0  0  0  0
  145.7075  134.6912  163.6433 H   0  0  0  0  0  0  0  0  0  0  0  0
  146.8148  136.8369  163.0454 H   0  0  0  0  0  0  0  0  0  0  0  0
  148.3015  136.9523  161.0547 H   0  0  0  0  0  0  0  0  0  0  0  0
  148.6899  134.9575  159.6706 H   0  0  0  0  0  0  0  0  0  0  0  0
  148.7102  131.8700  155.0709 H   0  0  0  0  0  0  0  0  0  0  0  0
  150.4344  133.3489  154.3654 H   0  0  0  0  0  0  0  0  0  0  0  0
  151.8981  140.7818  159.1137 H   0  0  0  0  0  0  0  0  0  0  0  0
  152.6628  142.3428  160.8859 H   0  0  0  0  0  0  0  0  0  0  0  0
  152.6934  144.7939  160.4626 H   0  0  0  0  0  0  0  0  0  0  0  0
  151.9585  145.6856  158.2581 H   0  0  0  0  0  0  0  0  0  0  0  0
  151.1914  144.1333  156.4799 H   0  0  0  0  0  0  0  0  0  0  0  0
  151.5966  139.9010  154.4362 H   0  0  0  0  0  0  0  0  0  0  0  0
  1  2  2  0  0  0  0
  2  3  1  0  0  0  0
  2 33  1  0  0  0  0
  3  4  2  0  0  0  0
  4  9  1  0  0  0  0
  4  5  1  0  0  0  0
  5  6  1  0  0  0  0
  5 57  1  0  0  0  0
  6  7  2  0  0  0  0
  6 39  1  0  0  0  0
  7  8  1  0  0  0  0
  8 12  1  0  0  0  0
  8  9  2  0  0  0  0
  9 10  1  0  0  0  0
 10 11  2  0  0  0  0
 11 12  1  0  0  0  0
 11 40  1  0  0  0  0
 12 13  1  0  0  0  0
 13 32  1  0  0  0  0
 13 14  1  0  0  0  0
 13 41  1  0  0  0  0
 14 15  1  0  0  0  0
 15 16  1  0  0  0  0
 15 26  1  0  0  0  0
 15 42  1  0  0  0  0
 16 17  1  0  0  0  0
 16 43  1  0  0  0  0
 16 44  1  0  0  0  0
 17 18  1  0  0  0  0
 18 19  2  0  0  0  0
 18 20  1  0  0  0  0
 20 25  1  0  0  0  0
 20 21  2  0  0  0  0
 21 22  1  0  0  0  0
 21 45  1  0  0  0  0
 22 23  2  0  0  0  0
 22 46  1  0  0  0  0
 23 24  1  0  0  0  0
 23 47  1  0  0  0  0
 24 25  2  0  0  0  0
 24 48  1  0  0  0  0
 25 49  1  0  0  0  0
 26 32  1  0  0  0  0
 26 27  1  0  0  0  0
 26 50  1  0  0  0  0
 27 28  1  0  0  0  0
 28 29  2  0  0  0  0
 28 30  2  0  0  0  0
 28 31  1  0  0  0  0
 31 32  1  0  0  0  0
 32 51  1  0  0  0  0
 33 38  1  0  0  0  0
 33 34  2  0  0  0  0
 34 35  1  0  0  0  0
 34 52  1  0  0  0  0
 35 36  2  0  0  0  0
 35 53  1  0  0  0  0
 36 37  1  0  0  0  0
 36 54  1  0  0  0  0
 37 38  2  0  0  0  0
 37 55  1  0  0  0  0
 38 56  1  0  0  0  0
M  END
> <s_m_source_file>
AV-unprocessed.smi

> <i_m_source_file_index>
1

> <i_lp_mmshare_version>
43012

> <i_f3d_flags>
0

> <s_epik_input>
W2NIXTFbY0hdW2NIXVtjSF1bY0hdYzFDKD1PKVtOSF1jKG5bY0hdbjIpYyhjMjMpbltjSF1uM1tDQEBIXShbQ0BIXShbQ0BIXTQ1KU9TKE81KSg9Tyk9TylPW0NASF00W0NIMl1PQyg9TyljNltjSF1bY0hdW2NIXVtjSF1bY0hdNg==

> <s_epik_cmdline>
J2VwaWtfcHl0aG9uJywgJy1waCcsICc3LjAnLCAnLXRuJywgJzgnLCAnLW1hJywgJzIwMCcsICctbWV0YWxfYmluZGluZycsICctaW1hZScsICc8aW5maWxlLm1hZT4nLCAnLW9tYWUnLCAnPG91dGZpbGUubWFlPic=

> <r_epik_Ionization_Penalty>
0.122545

> <r_epik_Ionization_Penalty_Charging>
0.122545

> <r_epik_Ionization_Penalty_Neutral>
7.8935e-16

> <r_epik_State_Penalty>
2.69178

> <r_epik_Charging_Adjusted_Penalty>
2.81433

> <i_epik_Tot_Q>
0

> <i_epik_Tot_abs_Q>
0

> <r_epik_Metal_State_Penalty>
3.02665

> <b_epik_Metal_Only>
0

> <s_epik_Chemistry_Notes>
This compound has an ester and may undergo hydrolysis at high or low pH. This compound contains an acetal/aminal-like group ( X-CH(R)-Y where X, Y are N, S, or O) that may be acid/base labile, releasing an aldehyde.

> <s_lp_Force_Field>
OPLS_2005

> <r_lp_Energy>
60.6373

> <b_lp_Chiralities_Consistent>
1

> <s_lp_Variant>
AV-unprocessed.smi:1-14

> <Gold.Version>
5.8.1

> <Gold.Id.Protein>
6NUR|6NUR_protein|mol2

> <Gold.PLP.Fitness>
58.6365

> <Gold.PLP.PLP>
-52.7891

> <Gold.PLP.part.hbond>
-3.0000

> <Gold.PLP.part.metal>
0.0000

> <Gold.PLP.part.buried>
-3.4854

> <Gold.PLP.part.nonpolar>
-47.5799

> <Gold.PLP.part.repulsive>
0.7859

> <Gold.PLP.ligand.clash>
0.0000

> <Gold.PLP.ligand.torsion>
0.7697

> <Gold.PLP.Chemscore.Hbond>
2.0419

> <Gold.PLP.Chemscore.CHOScore>
0.3843

> <Gold.PLP.Chemscore.Metal>
0.0000

> <Gold.Chemscore.Hbonds>
donor molecule, donor type, donor heavy atom, donor atom, acceptor molecule, acceptor atom, score
      P1  H  6896  6907       L1    14  0.93
      P1  H  7989  7998       L1     1  0.09
      P1  H 10752 10764       L1     7  1.00
      L1  C     6    39       P1  7949  0.41

> <Gold.PLP.Chemscore.Internal.Correction>
0.1081

> <Gold.Rescore>
     Score         DG    S(hbond)    S(metal)    S(lipo)     H(rot)  DE(clash)    DE(int)     intcor
     14.32     -18.85       1.41        0.00     120.67       2.13       1.45       3.08       ----

> <Gold.Chemscore.Fitness>
14.3208

> <Gold.Chemscore.DG>
-18.8536

> <Gold.Chemscore.ZeroCoef>
-5.4800

> <Gold.Chemscore.Hbond>
1.4121

> <Gold.Chemscore.Metal>
0.0000

> <Gold.Chemscore.Lipo>
120.6719

> <Gold.Chemscore.Internal_Hbond>
0.0000

> <Gold.Chemscore.DEClash>
1.4500

> <Gold.Chemscore.DEInternal>
3.0828

> <Gold.Chemscore.Rot>
2.1333

> <Gold.Chemscore.Internal.Correction>
   9.000000E+99

> <Gold.Chemscore.Hbonds>
donor molecule, donor type, donor heavy atom, donor atom, acceptor molecule, acceptor atom, score
      P1  H  6896  6907       L1    14  0.90
      P1  H  7989  7998       L1     1  0.09
      P1  H 10752 10764       L1     7  0.26

> <Gold.Chemscore.Hbond.Weighted>
-4.7163

> <Gold.Chemscore.Metal.Weighted>
-0.0000

> <Gold.Chemscore.Lipo.Weighted>
-14.1186

> <Gold.Chemscore.Internal_Hbond.Weighted>
0.0000

> <Gold.Chemscore.DEClash.Weighted>
1.4500

> <Gold.Chemscore.DEInternal.Weighted>
3.0828

> <Gold.Chemscore.Rot.Weighted>
5.4614

> <Gold.Chemscore.Internal.Correction.Weighted>
   9.000000E+99

> <Gold.Protein.RotatedTorsions>
[ 6907 6896 6895 6894 ] final -118.06 input  -60.11 | X-H torsion
[ 7974 7965 7964 7962 ] final   25.51 input  175.53 | X-H torsion
[ 8008 7997 7996 7995 ] final -154.06 input   59.86 | X-H torsion
[ 10167 10162 10161 10158 ] final   31.86 input  -65.29 | X-H torsion
[ 10718 10713 10712 10709 ] final -172.40 input   66.30 | X-H torsion
[ 10763 10752 10751 10750 ] final  -51.13 input  -60.55 | X-H torsion
[ 11005 11000 10999 10996 ] final  149.66 input  -57.11 | X-H torsion

> <Gold.Protein.ActiveResidues>
 VAL166  LYS551  ARG553  GLY616  TRP617  ASP618  TYR619  PRO620  LYS621  CYS622 
 ASP623  PHE694  ASN695  SER759  ASP760  ASP761  ALA762  ILE779  LEU786  VAL792 
 PHE793  MET794  SER795  GLU796  ALA797  LYS798  CYS799  TRP800  GLU811  SER814 

> <Gold.Protein.RotatedAtoms>
  150.8188  133.8289  159.3148 H   0  0  0  0  0  0  0  0  0  0  0  0  # atno 6907 bound_to 6896
  151.6053  135.1042  160.0079 H   0  0  0  0  0  0  0  0  0  0  0  0  # atno 6908 bound_to 6896
  152.4278  133.7185  159.6576 H   0  0  0  0  0  0  0  0  0  0  0  0  # atno 6909 bound_to 6896
  146.1885  139.7456  142.8849 H   0  0  0  0  0  0  0  0  0  0  0  0  # atno 7974 bound_to 7965
  155.6805  140.0744  157.2486 H   0  0  0  0  0  0  0  0  0  0  0  0  # atno 8008 bound_to 7997
  154.4106  140.1682  156.2029 H   0  0  0  0  0  0  0  0  0  0  0  0  # atno 8009 bound_to 7997
  155.9539  140.3375  155.6434 H   0  0  0  0  0  0  0  0  0  0  0  0  # atno 8010 bound_to 7997
  140.4550  144.0991  150.6200 H   0  0  0  0  0  0  0  0  0  0  0  0  # atno 10167 bound_to 10162
  156.7550  130.9392  151.3116 H   0  0  0  0  0  0  0  0  0  0  0  0  # atno 10718 bound_to 10713
  154.1217  135.6534  153.4904 H   0  0  0  0  0  0  0  0  0  0  0  0  # atno 10763 bound_to 10752
  153.0223  135.5271  154.7090 H   0  0  0  0  0  0  0  0  0  0  0  0  # atno 10764 bound_to 10752
  154.6300  135.2975  155.0198 H   0  0  0  0  0  0  0  0  0  0  0  0  # atno 10765 bound_to 10752
  140.1064  134.8951  157.1872 H   0  0  0  0  0  0  0  0  0  0  0  0  # atno 11005 bound_to 11000
  145.3865  141.0366  143.3148 LP  0  0  0  0  0  0  0  0  0  0  0  0  # atno 17320 bound_to 7965
  144.8442  139.5424  143.6886 LP  0  0  0  0  0  0  0  0  0  0  0  0  # atno 17321 bound_to 7965
  140.4161  143.2633  151.9773 LP  0  0  0  0  0  0  0  0  0  0  0  0  # atno 17342 bound_to 10162
  139.4800  144.5872  151.7833 LP  0  0  0  0  0  0  0  0  0  0  0  0  # atno 17343 bound_to 10162
  157.6760  130.9095  150.0151 LP  0  0  0  0  0  0  0  0  0  0  0  0  # atno 17370 bound_to 10713
  156.1376  130.3642  149.9632 LP  0  0  0  0  0  0  0  0  0  0  0  0  # atno 17371 bound_to 10713
  140.3150  134.2981  155.7258 LP  0  0  0  0  0  0  0  0  0  0  0  0  # atno 17394 bound_to 11000
  141.2119  133.7674  156.9830 LP  0  0  0  0  0  0  0  0  0  0  0  0  # atno 17395 bound_to 11000

$$$$
