AV-unprocessed.smi:762|AV-procd|sdf|3633|dock5
  -GOLD-   22720 1 23D 1   1.00000     0.00000
 Structure written by MMmdl.
 42 44  0  0  0  0  0  0  0  0  1 V2000
  152.9650  139.4096  157.7771 O   0  0  0  0  0  0  0  0  0  0  0  0
  151.7974  139.7984  157.8055 C   0  0  0  0  0  0  0  0  0  0  0  0
  151.4750  141.2692  157.5413 C   0  0  0  0  0  0  0  0  0  0  0  0
  151.8927  142.2243  158.6458 C   0  0  0  0  0  0  0  0  0  0  0  0
  152.5327  141.8006  159.7531 C   0  0  0  0  0  0  0  0  0  0  0  0
  152.9216  142.7032  160.9098 C   0  0  0  0  0  0  0  0  0  0  0  0
  152.1835  144.0516  160.8688 C   0  0  0  0  0  0  0  0  0  0  0  0
  152.1745  144.6341  159.4502 C   0  0  0  0  0  0  0  0  0  0  0  0
  151.4905  143.6820  158.4517 C   0  0  0  0  0  0  0  0  0  0  0  0
  150.7570  138.9934  158.0699 N   0  0  0  0  0  0  0  0  0  0  0  0
  150.8571  137.5704  158.3689 C   0  0  0  0  0  0  0  0  0  0  0  0
  150.0768  137.2019  159.6420 C   0  0  0  0  0  0  0  0  0  0  0  0
  148.9275  136.3684  159.3408 N   0  0  0  0  0  0  0  0  0  0  0  0
  148.6204  135.7635  158.1832 C   0  0  0  0  0  0  0  0  0  0  0  0
  147.4820  135.0715  158.1927 N   0  0  0  0  0  0  0  0  0  0  0  0
  146.9860  135.2367  159.4704 N   0  0  0  0  0  0  0  0  0  0  0  0
  147.8822  135.9986  160.1091 C   0  0  0  0  0  0  0  0  0  0  0  0
  147.7219  136.4529  161.5248 C   0  0  0  0  0  0  0  0  0  0  0  0
  147.7161  135.4618  162.6677 C   0  0  0  0  0  0  0  0  0  0  0  0
  146.4475  136.1827  162.2936 C   0  0  0  0  0  0  0  0  0  0  0  0
  151.9915  141.5517  156.6229 H   0  0  0  0  0  0  0  0  0  0  0  0
  150.4120  141.3987  157.3327 H   0  0  0  0  0  0  0  0  0  0  0  0
  152.8001  140.7586  159.8523 H   0  0  0  0  0  0  0  0  0  0  0  0
  152.7095  142.1937  161.8500 H   0  0  0  0  0  0  0  0  0  0  0  0
  153.9999  142.8601  160.8691 H   0  0  0  0  0  0  0  0  0  0  0  0
  151.1549  143.9142  161.2056 H   0  0  0  0  0  0  0  0  0  0  0  0
  152.6458  144.7516  161.5654 H   0  0  0  0  0  0  0  0  0  0  0  0
  151.6743  145.6031  159.4412 H   0  0  0  0  0  0  0  0  0  0  0  0
  153.2023  144.8153  159.1332 H   0  0  0  0  0  0  0  0  0  0  0  0
  151.7261  143.9954  157.4342 H   0  0  0  0  0  0  0  0  0  0  0  0
  150.4074  143.7483  158.5589 H   0  0  0  0  0  0  0  0  0  0  0  0
  149.8318  139.3983  158.0755 H   0  0  0  0  0  0  0  0  0  0  0  0
  150.5022  136.9868  157.5175 H   0  0  0  0  0  0  0  0  0  0  0  0
  151.9120  137.3261  158.4921 H   0  0  0  0  0  0  0  0  0  0  0  0
  150.7223  136.6834  160.3514 H   0  0  0  0  0  0  0  0  0  0  0  0
  149.7181  138.1004  160.1455 H   0  0  0  0  0  0  0  0  0  0  0  0
  149.2468  135.8345  157.3060 H   0  0  0  0  0  0  0  0  0  0  0  0
  148.2173  137.4093  161.6801 H   0  0  0  0  0  0  0  0  0  0  0  0
  147.7758  134.4030  162.4251 H   0  0  0  0  0  0  0  0  0  0  0  0
  148.2118  135.7583  163.5898 H   0  0  0  0  0  0  0  0  0  0  0  0
  146.0932  136.9606  162.9667 H   0  0  0  0  0  0  0  0  0  0  0  0
  145.6695  135.6029  161.8006 H   0  0  0  0  0  0  0  0  0  0  0  0
  1  2  2  0  0  0  0
  2  3  1  0  0  0  0
  2 10  1  0  0  0  0
  3  4  1  0  0  0  0
  3 21  1  0  0  0  0
  3 22  1  0  0  0  0
  4  9  1  0  0  0  0
  4  5  2  0  0  0  0
  5  6  1  0  0  0  0
  5 23  1  0  0  0  0
  6  7  1  0  0  0  0
  6 24  1  0  0  0  0
  6 25  1  0  0  0  0
  7  8  1  0  0  0  0
  7 26  1  0  0  0  0
  7 27  1  0  0  0  0
  8  9  1  0  0  0  0
  8 28  1  0  0  0  0
  8 29  1  0  0  0  0
  9 30  1  0  0  0  0
  9 31  1  0  0  0  0
 10 11  1  0  0  0  0
 10 32  1  0  0  0  0
 11 12  1  0  0  0  0
 11 33  1  0  0  0  0
 11 34  1  0  0  0  0
 12 13  1  0  0  0  0
 12 35  1  0  0  0  0
 12 36  1  0  0  0  0
 13 17  1  0  0  0  0
 13 14  1  0  0  0  0
 14 15  2  0  0  0  0
 14 37  1  0  0  0  0
 15 16  1  0  0  0  0
 16 17  2  0  0  0  0
 17 18  1  0  0  0  0
 18 20  1  0  0  0  0
 18 19  1  0  0  0  0
 18 38  1  0  0  0  0
 19 20  1  0  0  0  0
 19 39  1  0  0  0  0
 19 40  1  0  0  0  0
 20 41  1  0  0  0  0
 20 42  1  0  0  0  0
M  END
> <s_m_source_file>
AV-unprocessed.smi

> <i_m_source_file_index>
762

> <i_lp_mmshare_version>
43012

> <i_f3d_flags>
0

> <s_epik_input>
W0NIMl0xW0NIMl1bQ0gyXVtDSDJdW0NIXT1DMVtDSDJdQyg9TylbTkhdW0NIMl1bQ0gyXW4yW2NIXW5uYzJbQ0hdM1tDSDJdW0NIMl0z

> <s_epik_cmdline>
J2VwaWtfcHl0aG9uJywgJy1waCcsICc3LjAnLCAnLXRuJywgJzgnLCAnLW1hJywgJzIwMCcsICctbWV0YWxfYmluZGluZycsICctaW1hZScsICc8aW5maWxlLm1hZT4nLCAnLW9tYWUnLCAnPG91dGZpbGUubWFlPic=

> <r_lp_tautomer_probability>
1

> <r_epik_Ionization_Penalty>
0.000270947

> <r_epik_Ionization_Penalty_Charging>
0

> <r_epik_Ionization_Penalty_Neutral>
0.000270947

> <r_epik_State_Penalty>
-0

> <r_epik_Charging_Adjusted_Penalty>
0

> <i_epik_Tot_Q>
0

> <i_epik_Tot_abs_Q>
0

> <r_epik_Metal_State_Penalty>
-0

> <b_epik_Metal_Only>
0

> <s_lp_Force_Field>
OPLS_2005

> <r_lp_Energy>
11.3747

> <b_lp_Chiralities_Consistent>
1

> <s_lp_Variant>
AV-unprocessed.smi:762-1

> <Gold.Version>
5.8.1

> <Gold.Id.Protein>
6NUR|6NUR_protein|mol2

> <Gold.PLP.Fitness>
43.5412

> <Gold.PLP.PLP>
-41.7809

> <Gold.PLP.part.hbond>
-1.0000

> <Gold.PLP.part.metal>
0.0000

> <Gold.PLP.part.buried>
-3.2480

> <Gold.PLP.part.nonpolar>
-37.9556

> <Gold.PLP.part.repulsive>
0.0887

> <Gold.PLP.ligand.clash>
0.0000

> <Gold.PLP.ligand.torsion>
0.7139

> <Gold.PLP.Chemscore.Hbond>
1.0000

> <Gold.PLP.Chemscore.CHOScore>
0.0000

> <Gold.PLP.Chemscore.Metal>
0.0000

> <Gold.Chemscore.Hbonds>
donor molecule, donor type, donor heavy atom, donor atom, acceptor molecule, acceptor atom, score
      P1  H  7997  8010       L1     1  1.00

> <Gold.PLP.Chemscore.Internal.Correction>
0.1882

> <Gold.Rescore>
     Score         DG    S(hbond)    S(metal)    S(lipo)     H(rot)  DE(clash)    DE(int)     intcor
     15.77     -16.51       1.00        0.00     111.77       2.10       0.06       0.68       ----

> <Gold.Chemscore.Fitness>
15.7737

> <Gold.Chemscore.DG>
-16.5120

> <Gold.Chemscore.ZeroCoef>
-5.4800

> <Gold.Chemscore.Hbond>
0.9995

> <Gold.Chemscore.Metal>
0.0000

> <Gold.Chemscore.Lipo>
111.7746

> <Gold.Chemscore.Internal_Hbond>
0.0000

> <Gold.Chemscore.DEClash>
0.0580

> <Gold.Chemscore.DEInternal>
0.6803

> <Gold.Chemscore.Rot>
2.1031

> <Gold.Chemscore.Internal.Correction>
   9.000000E+99

> <Gold.Chemscore.Hbonds>
donor molecule, donor type, donor heavy atom, donor atom, acceptor molecule, acceptor atom, score
      P1  H  7997  8010       L1     1  1.00

> <Gold.Chemscore.Hbond.Weighted>
-3.3382

> <Gold.Chemscore.Metal.Weighted>
-0.0000

> <Gold.Chemscore.Lipo.Weighted>
-13.0776

> <Gold.Chemscore.Internal_Hbond.Weighted>
0.0000

> <Gold.Chemscore.DEClash.Weighted>
0.0580

> <Gold.Chemscore.DEInternal.Weighted>
0.6803

> <Gold.Chemscore.Rot.Weighted>
5.3838

> <Gold.Chemscore.Internal.Correction.Weighted>
   9.000000E+99

> <Gold.Protein.RotatedTorsions>
[ 6907 6896 6895 6894 ] final   72.95 input  -60.11 | X-H torsion
[ 7974 7965 7964 7962 ] final   89.18 input  175.53 | X-H torsion
[ 8008 7997 7996 7995 ] final   39.35 input   59.86 | X-H torsion
[ 10167 10162 10161 10158 ] final  -45.68 input  -65.29 | X-H torsion
[ 10718 10713 10712 10709 ] final    1.60 input   66.30 | X-H torsion
[ 10763 10752 10751 10750 ] final  176.09 input  -60.55 | X-H torsion
[ 11005 11000 10999 10996 ] final   18.47 input  -57.11 | X-H torsion

> <Gold.Protein.ActiveResidues>
 VAL166  LYS551  ARG553  GLY616  TRP617  ASP618  TYR619  PRO620  LYS621  CYS622 
 ASP623  PHE694  ASN695  SER759  ASP760  ASP761  ALA762  ILE779  LEU786  VAL792 
 PHE793  MET794  SER795  GLU796  ALA797  LYS798  CYS799  TRP800  GLU811  SER814 

> <Gold.Protein.RotatedAtoms>
  152.4897  134.4494  159.9569 H   0  0  0  0  0  0  0  0  0  0  0  0  # atno 6907 bound_to 6896
  151.4483  133.3618  159.2799 H   0  0  0  0  0  0  0  0  0  0  0  0  # atno 6908 bound_to 6896
  150.9039  134.8477  159.7439 H   0  0  0  0  0  0  0  0  0  0  0  0  # atno 6909 bound_to 6896
  145.5358  139.2285  143.2593 H   0  0  0  0  0  0  0  0  0  0  0  0  # atno 7974 bound_to 7965
  155.2352  140.3341  155.4298 H   0  0  0  0  0  0  0  0  0  0  0  0  # atno 8008 bound_to 7997
  156.2278  140.1837  156.7364 H   0  0  0  0  0  0  0  0  0  0  0  0  # atno 8009 bound_to 7997
  154.5928  140.0635  156.9247 H   0  0  0  0  0  0  0  0  0  0  0  0  # atno 8010 bound_to 7997
  140.6848  143.2868  151.3673 H   0  0  0  0  0  0  0  0  0  0  0  0  # atno 10167 bound_to 10162
  156.8506  130.5552  149.5670 H   0  0  0  0  0  0  0  0  0  0  0  0  # atno 10718 bound_to 10713
  154.4764  135.2773  155.1604 H   0  0  0  0  0  0  0  0  0  0  0  0  # atno 10763 bound_to 10752
  154.3332  135.6186  153.5564 H   0  0  0  0  0  0  0  0  0  0  0  0  # atno 10764 bound_to 10752
  152.9870  135.5770  154.5156 H   0  0  0  0  0  0  0  0  0  0  0  0  # atno 10765 bound_to 10752
  140.4244  134.1485  155.7675 H   0  0  0  0  0  0  0  0  0  0  0  0  # atno 11005 bound_to 11000
  146.2014  140.6176  142.9100 LP  0  0  0  0  0  0  0  0  0  0  0  0  # atno 17320 bound_to 7965
  144.7602  140.5404  143.6740 LP  0  0  0  0  0  0  0  0  0  0  0  0  # atno 17321 bound_to 7965
  139.6198  144.0929  152.2380 LP  0  0  0  0  0  0  0  0  0  0  0  0  # atno 17342 bound_to 10162
  140.0370  144.6037  150.7441 LP  0  0  0  0  0  0  0  0  0  0  0  0  # atno 17343 bound_to 10162
  156.0830  130.5836  150.9597 LP  0  0  0  0  0  0  0  0  0  0  0  0  # atno 17370 bound_to 10713
  157.6305  131.0921  150.8450 LP  0  0  0  0  0  0  0  0  0  0  0  0  # atno 17371 bound_to 10713
  141.1771  133.8491  157.1385 LP  0  0  0  0  0  0  0  0  0  0  0  0  # atno 17394 bound_to 11000
  140.0177  134.9960  157.0528 LP  0  0  0  0  0  0  0  0  0  0  0  0  # atno 17395 bound_to 11000

$$$$
