AV-unprocessed.smi:3282|AV-procd|sdf|12560|dock8
  -GOLD-   2272018483D 1   1.00000     0.00000
 Structure written by MMmdl.
 34 35  0  0  0  0  0  0  0  0  1 V2000
  152.7495  143.3366  162.3946 C   0  0  0  0  0  0  0  0  0  0  0  0
  152.9553  142.7017  161.0098 C   0  0  0  0  0  0  0  0  0  0  0  0
  152.1230  143.3596  159.8963 C   0  0  0  0  0  0  0  0  0  0  0  0
  151.7263  144.5183  160.0298 O   0  0  0  0  0  0  0  0  0  0  0  0
  151.8508  142.6346  158.7912 N   0  0  0  0  0  0  0  0  0  0  0  0
  152.2674  141.2542  158.5527 C   0  0  0  0  0  0  0  0  0  0  0  0
  151.5530  140.8142  157.2748 C   0  0  0  0  0  0  0  0  0  0  0  0
  151.2407  142.1155  156.5369 C   0  0  1  0  0  0  0  0  0  0  0  0
  150.0276  142.0268  155.7308 N   0  0  0  0  0  0  0  0  0  0  0  0
  149.6739  140.9625  154.9963 C   0  0  0  0  0  0  0  0  0  0  0  0
  150.3414  139.9294  154.9325 O   0  0  0  0  0  0  0  0  0  0  0  0
  148.5130  141.1754  154.3541 N   0  0  0  0  0  0  0  0  0  0  0  0
  147.8391  140.2911  153.4744 C   0  0  0  0  0  0  0  0  0  0  0  0
  148.0547  138.9811  153.3448 N   0  0  0  0  0  0  0  0  0  0  0  0
  147.1596  138.5748  152.3657 C   0  0  0  0  0  0  0  0  0  0  0  0
  146.4469  139.6722  151.9557 C   0  0  0  0  0  0  0  0  0  0  0  0
  146.8692  140.7724  152.6526 O   0  0  0  0  0  0  0  0  0  0  0  0
  151.0927  143.1527  157.6551 C   0  0  0  0  0  0  0  0  0  0  0  0
  153.3665  142.8371  163.1418 H   0  0  0  0  0  0  0  0  0  0  0  0
  151.7117  143.2569  162.7201 H   0  0  0  0  0  0  0  0  0  0  0  0
  153.0241  144.3920  162.3944 H   0  0  0  0  0  0  0  0  0  0  0  0
  154.0120  142.7625  160.7476 H   0  0  0  0  0  0  0  0  0  0  0  0
  152.6995  141.6429  161.0602 H   0  0  0  0  0  0  0  0  0  0  0  0
  153.3485  141.2277  158.4096 H   0  0  0  0  0  0  0  0  0  0  0  0
  152.0171  140.5966  159.3861 H   0  0  0  0  0  0  0  0  0  0  0  0
  152.1490  140.1244  156.6764 H   0  0  0  0  0  0  0  0  0  0  0  0
  150.6270  140.3028  157.5429 H   0  0  0  0  0  0  0  0  0  0  0  0
  152.0940  142.3912  155.9138 H   0  0  0  0  0  0  0  0  0  0  0  0
  149.4218  142.8344  155.7274 H   0  0  0  0  0  0  0  0  0  0  0  0
  148.0666  142.0683  154.5029 H   0  0  0  0  0  0  0  0  0  0  0  0
  147.1008  137.5470  152.0394 H   0  0  0  0  0  0  0  0  0  0  0  0
  145.6627  139.8286  151.2297 H   0  0  0  0  0  0  0  0  0  0  0  0
  150.0503  143.2633  157.9594 H   0  0  0  0  0  0  0  0  0  0  0  0
  151.4547  144.1309  157.3344 H   0  0  0  0  0  0  0  0  0  0  0  0
  1  2  1  0  0  0  0
  1 19  1  0  0  0  0
  1 20  1  0  0  0  0
  1 21  1  0  0  0  0
  2  3  1  0  0  0  0
  2 22  1  0  0  0  0
  2 23  1  0  0  0  0
  3  4  2  0  0  0  0
  3  5  1  0  0  0  0
  5 18  1  0  0  0  0
  5  6  1  0  0  0  0
  6  7  1  0  0  0  0
  6 24  1  0  0  0  0
  6 25  1  0  0  0  0
  7  8  1  0  0  0  0
  7 26  1  0  0  0  0
  7 27  1  0  0  0  0
  8  9  1  0  0  0  0
  8 18  1  0  0  0  0
  8 28  1  0  0  0  0
  9 10  1  0  0  0  0
  9 29  1  0  0  0  0
 10 11  2  0  0  0  0
 10 12  1  0  0  0  0
 12 13  1  0  0  0  0
 12 30  1  0  0  0  0
 13 17  1  0  0  0  0
 13 14  2  0  0  0  0
 14 15  1  0  0  0  0
 15 16  2  0  0  0  0
 15 31  1  0  0  0  0
 16 17  1  0  0  0  0
 16 32  1  0  0  0  0
 18 33  1  0  0  0  0
 18 34  1  0  0  0  0
M  END
> <s_m_source_file>
AV-unprocessed.smi

> <i_m_source_file_index>
3282

> <i_lp_mmshare_version>
43012

> <i_f3d_flags>
0

> <s_epik_input>
W0NIM11bQ0gyXUMoPU8pTjFbQ0gyXVtDSDJdW0NASF0oW0NIMl0xKVtOSF1DKD1PKVtOSF1jMm5bY0hdW2NIXW8y

> <s_epik_cmdline>
J2VwaWtfcHl0aG9uJywgJy1waCcsICc3LjAnLCAnLXRuJywgJzgnLCAnLW1hJywgJzIwMCcsICctbWV0YWxfYmluZGluZycsICctaW1hZScsICc8aW5maWxlLm1hZT4nLCAnLW9tYWUnLCAnPG91dGZpbGUubWFlPic=

> <r_lp_tautomer_probability>
0.785861

> <r_epik_Ionization_Penalty>
4.35681e-05

> <r_epik_Ionization_Penalty_Charging>
0

> <r_epik_Ionization_Penalty_Neutral>
4.35681e-05

> <r_epik_State_Penalty>
0.0212547

> <r_epik_Charging_Adjusted_Penalty>
0.0212547

> <i_epik_Tot_Q>
0

> <i_epik_Tot_abs_Q>
0

> <r_epik_Metal_State_Penalty>
0.00779955

> <b_epik_Metal_Only>
0

> <s_lp_Force_Field>
OPLS_2005

> <r_lp_Energy>
25.4051

> <b_lp_Chiralities_Consistent>
1

> <s_lp_Variant>
AV-unprocessed.smi:3282-1

> <Gold.Version>
5.8.1

> <Gold.Id.Protein>
6NUR|6NUR_protein|mol2

> <Gold.PLP.Fitness>
40.0383

> <Gold.PLP.PLP>
-30.6790

> <Gold.PLP.part.hbond>
-1.3727

> <Gold.PLP.part.metal>
0.0000

> <Gold.PLP.part.buried>
0.3346

> <Gold.PLP.part.nonpolar>
-31.5256

> <Gold.PLP.part.repulsive>
1.6256

> <Gold.PLP.ligand.clash>
0.0000

> <Gold.PLP.ligand.torsion>
0.6880

> <Gold.PLP.Chemscore.Hbond>
1.2194

> <Gold.PLP.Chemscore.CHOScore>
2.3564

> <Gold.PLP.Chemscore.Metal>
0.0000

> <Gold.Chemscore.Hbonds>
donor molecule, donor type, donor heavy atom, donor atom, acceptor molecule, acceptor atom, score
      L1  H     9    29       P1  8028  1.00
      P1  H  7989  7998       L1    11  0.32
      L1  C    15    31       P1  7948  0.84
      L1  C    16    32       P1 10171  0.91
      L1  C    16    32       P1 10175  0.48

> <Gold.PLP.Chemscore.Internal.Correction>
0.0078

> <Gold.Rescore>
     Score         DG    S(hbond)    S(metal)    S(lipo)     H(rot)  DE(clash)    DE(int)     intcor
      9.41     -14.12       1.00        0.00      74.12       1.32       1.46       3.24       ----

> <Gold.Chemscore.Fitness>
9.4116

> <Gold.Chemscore.DG>
-14.1159

> <Gold.Chemscore.ZeroCoef>
-5.4800

> <Gold.Chemscore.Hbond>
1.0009

> <Gold.Chemscore.Metal>
0.0000

> <Gold.Chemscore.Lipo>
74.1167

> <Gold.Chemscore.Internal_Hbond>
0.0000

> <Gold.Chemscore.DEClash>
1.4597

> <Gold.Chemscore.DEInternal>
3.2446

> <Gold.Chemscore.Rot>
1.3199

> <Gold.Chemscore.Internal.Correction>
   9.000000E+99

> <Gold.Chemscore.Hbonds>
donor molecule, donor type, donor heavy atom, donor atom, acceptor molecule, acceptor atom, score
      L1  H     9    29       P1  8028  0.98
      P1  H  7989  7998       L1    11  0.01

> <Gold.Chemscore.Hbond.Weighted>
-3.3432

> <Gold.Chemscore.Metal.Weighted>
-0.0000

> <Gold.Chemscore.Lipo.Weighted>
-8.6717

> <Gold.Chemscore.Internal_Hbond.Weighted>
0.0000

> <Gold.Chemscore.DEClash.Weighted>
1.4597

> <Gold.Chemscore.DEInternal.Weighted>
3.2446

> <Gold.Chemscore.Rot.Weighted>
3.3789

> <Gold.Chemscore.Internal.Correction.Weighted>
   9.000000E+99

> <Gold.Protein.RotatedTorsions>
[ 6907 6896 6895 6894 ] final   63.28 input  -60.11 | X-H torsion
[ 7974 7965 7964 7962 ] final  -51.42 input  175.53 | X-H torsion
[ 8008 7997 7996 7995 ] final    3.59 input   59.86 | X-H torsion
[ 10167 10162 10161 10158 ] final   28.73 input  -65.29 | X-H torsion
[ 10718 10713 10712 10709 ] final   96.15 input   66.30 | X-H torsion
[ 10763 10752 10751 10750 ] final  -41.99 input  -60.55 | X-H torsion
[ 11005 11000 10999 10996 ] final  -51.81 input  -57.11 | X-H torsion

> <Gold.Protein.ActiveResidues>
 VAL166  LYS551  ARG553  GLY616  TRP617  ASP618  TYR619  PRO620  LYS621  CYS622 
 ASP623  PHE694  ASN695  SER759  ASP760  ASP761  ALA762  ILE779  LEU786  VAL792 
 PHE793  MET794  SER795  GLU796  ALA797  LYS798  CYS799  TRP800  GLU811  SER814 

> <Gold.Protein.RotatedAtoms>
  152.4241  134.5902  159.9971 H   0  0  0  0  0  0  0  0  0  0  0  0  # atno 6907 bound_to 6896
  151.6043  133.3347  159.3062 H   0  0  0  0  0  0  0  0  0  0  0  0  # atno 6908 bound_to 6896
  150.8129  134.7332  159.6770 H   0  0  0  0  0  0  0  0  0  0  0  0  # atno 6909 bound_to 6896
  145.9192  140.7848  142.9656 H   0  0  0  0  0  0  0  0  0  0  0  0  # atno 7974 bound_to 7965
  154.7055  140.2682  155.6679 H   0  0  0  0  0  0  0  0  0  0  0  0  # atno 8008 bound_to 7997
  156.2779  140.2763  156.1604 H   0  0  0  0  0  0  0  0  0  0  0  0  # atno 8009 bound_to 7997
  155.0706  140.0372  157.2597 H   0  0  0  0  0  0  0  0  0  0  0  0  # atno 8010 bound_to 7997
  140.4827  144.0591  150.6270 H   0  0  0  0  0  0  0  0  0  0  0  0  # atno 10167 bound_to 10162
  157.6930  131.0569  150.4447 H   0  0  0  0  0  0  0  0  0  0  0  0  # atno 10718 bound_to 10713
  153.9716  135.6728  153.4747 H   0  0  0  0  0  0  0  0  0  0  0  0  # atno 10763 bound_to 10752
  153.0790  135.4933  154.8461 H   0  0  0  0  0  0  0  0  0  0  0  0  # atno 10764 bound_to 10752
  154.7216  135.3118  154.8999 H   0  0  0  0  0  0  0  0  0  0  0  0  # atno 10765 bound_to 10752
  141.0891  133.6636  156.3932 H   0  0  0  0  0  0  0  0  0  0  0  0  # atno 11005 bound_to 11000
  144.6751  140.1948  143.7393 LP  0  0  0  0  0  0  0  0  0  0  0  0  # atno 17320 bound_to 7965
  145.8572  139.2204  143.1738 LP  0  0  0  0  0  0  0  0  0  0  0  0  # atno 17321 bound_to 7965
  140.3837  143.2789  152.0141 LP  0  0  0  0  0  0  0  0  0  0  0  0  # atno 17342 bound_to 10162
  139.4836  144.6134  151.7392 LP  0  0  0  0  0  0  0  0  0  0  0  0  # atno 17343 bound_to 10162
  156.4803  130.4072  149.6465 LP  0  0  0  0  0  0  0  0  0  0  0  0  # atno 17370 bound_to 10713
  156.3513  130.7433  151.2393 LP  0  0  0  0  0  0  0  0  0  0  0  0  # atno 17371 bound_to 10713
  140.5294  134.6227  157.5345 LP  0  0  0  0  0  0  0  0  0  0  0  0  # atno 17394 bound_to 11000
  139.9714  134.7287  156.0034 LP  0  0  0  0  0  0  0  0  0  0  0  0  # atno 17395 bound_to 11000

$$$$
