AV-unprocessed.smi:1072|AV-procd|sdf|4685|dock1
  -GOLD-   22720 3203D 1   1.00000     0.00000
 Structure written by MMmdl.
 46 47  0  0  0  0  0  0  0  0  1 V2000
  148.9004  135.8956  155.2983 C   0  0  0  0  0  0  0  0  0  0  0  0
  148.9736  137.1614  156.1247 C   0  0  0  0  0  0  0  0  0  0  0  0
  149.1227  138.3122  155.3682 N   0  0  0  0  0  0  0  0  0  0  0  0
  149.2034  139.5208  156.0373 C   0  0  0  0  0  0  0  0  0  0  0  0
  149.3701  140.7319  155.1357 C   0  0  0  0  0  0  0  0  0  0  0  0
  149.1322  139.5805  157.3914 C   0  0  0  0  0  0  0  0  0  0  0  0
  149.2125  140.8960  158.1653 C   0  0  0  0  0  0  0  0  0  0  0  0
  150.4670  141.7379  157.9199 C   0  0  0  0  0  0  0  0  0  0  0  0
  151.2621  141.4183  157.0365 O   0  0  0  0  0  0  0  0  0  0  0  0
  150.6224  142.8076  158.7199 N   0  0  0  0  0  0  0  0  0  0  0  0
  151.7182  143.7879  158.7378 C   0  0  1  0  0  0  0  0  0  0  0  0
  151.7591  144.5520  157.3964 C   0  0  0  0  0  0  0  0  0  0  0  0
  151.5789  144.7818  159.9214 C   0  0  0  0  0  0  0  0  0  0  0  0
  151.6841  144.0944  161.2946 C   0  0  0  0  0  0  0  0  0  0  0  0
  153.0066  143.3197  161.4361 C   0  0  1  0  0  0  0  0  0  0  0  0
  153.1091  142.6272  162.8021 C   0  0  0  0  0  0  0  0  0  0  0  0
  153.1661  142.3167  160.2791 C   0  0  0  0  0  0  0  0  0  0  0  0
  153.0441  143.0070  158.9072 C   0  0  0  0  0  0  0  0  0  0  0  0
  148.9611  138.3163  158.1460 C   0  0  0  0  0  0  0  0  0  0  0  0
  148.8731  138.3055  159.3729 O   0  0  0  0  0  0  0  0  0  0  0  0
  148.8947  137.1158  157.4199 N   0  0  0  0  0  0  0  0  0  0  0  0
  149.1764  138.3133  154.3597 H   0  0  0  0  0  0  0  0  0  0  0  0
  148.9567  135.0114  155.9345 H   0  0  0  0  0  0  0  0  0  0  0  0
  149.7253  135.8540  154.5861 H   0  0  0  0  0  0  0  0  0  0  0  0
  147.9614  135.8594  154.7454 H   0  0  0  0  0  0  0  0  0  0  0  0
  150.3070  141.2441  155.3547 H   0  0  0  0  0  0  0  0  0  0  0  0
  148.5491  141.4339  155.2836 H   0  0  0  0  0  0  0  0  0  0  0  0
  149.3821  140.4497  154.0823 H   0  0  0  0  0  0  0  0  0  0  0  0
  149.1499  140.6676  159.2298 H   0  0  0  0  0  0  0  0  0  0  0  0
  148.3397  141.5177  157.9644 H   0  0  0  0  0  0  0  0  0  0  0  0
  149.8951  142.9645  159.4025 H   0  0  0  0  0  0  0  0  0  0  0  0
  152.6189  145.2211  157.3500 H   0  0  0  0  0  0  0  0  0  0  0  0
  150.8714  145.1666  157.2466 H   0  0  0  0  0  0  0  0  0  0  0  0
  151.8325  143.8666  156.5512 H   0  0  0  0  0  0  0  0  0  0  0  0
  152.3653  145.5347  159.8506 H   0  0  0  0  0  0  0  0  0  0  0  0
  150.6428  145.3366  159.8616 H   0  0  0  0  0  0  0  0  0  0  0  0
  151.6097  144.8454  162.0817 H   0  0  0  0  0  0  0  0  0  0  0  0
  150.8389  143.4197  161.4369 H   0  0  0  0  0  0  0  0  0  0  0  0
  153.8249  144.0383  161.3711 H   0  0  0  0  0  0  0  0  0  0  0  0
  152.3114  141.8962  162.9376 H   0  0  0  0  0  0  0  0  0  0  0  0
  153.0390  143.3508  163.6149 H   0  0  0  0  0  0  0  0  0  0  0  0
  154.0608  142.1059  162.9072 H   0  0  0  0  0  0  0  0  0  0  0  0
  154.1355  141.8222  160.3497 H   0  0  0  0  0  0  0  0  0  0  0  0
  152.4168  141.5287  160.3657 H   0  0  0  0  0  0  0  0  0  0  0  0
  153.1472  142.2636  158.1153 H   0  0  0  0  0  0  0  0  0  0  0  0
  153.8868  143.6895  158.7868 H   0  0  0  0  0  0  0  0  0  0  0  0
  1 23  1  0  0  0  0
  1 24  1  0  0  0  0
  1 25  1  0  0  0  0
  1  2  1  0  0  0  0
  2  3  1  0  0  0  0
  2 21  2  0  0  0  0
  3  4  1  0  0  0  0
  3 22  1  0  0  0  0
  4  6  2  0  0  0  0
  4  5  1  0  0  0  0
  5 26  1  0  0  0  0
  5 27  1  0  0  0  0
  5 28  1  0  0  0  0
  6 19  1  0  0  0  0
  6  7  1  0  0  0  0
  7  8  1  0  0  0  0
  7 29  1  0  0  0  0
  7 30  1  0  0  0  0
  8  9  2  0  0  0  0
  8 10  1  0  0  0  0
 10 11  1  0  0  0  0
 10 31  1  0  0  0  0
 11 18  1  0  0  0  0
 11 12  1  0  0  0  0
 11 13  1  0  0  0  0
 12 32  1  0  0  0  0
 12 33  1  0  0  0  0
 12 34  1  0  0  0  0
 13 14  1  0  0  0  0
 13 35  1  0  0  0  0
 13 36  1  0  0  0  0
 14 15  1  0  0  0  0
 14 37  1  0  0  0  0
 14 38  1  0  0  0  0
 15 16  1  0  0  0  0
 15 17  1  0  0  0  0
 15 39  1  0  0  0  0
 16 40  1  0  0  0  0
 16 41  1  0  0  0  0
 16 42  1  0  0  0  0
 17 18  1  0  0  0  0
 17 43  1  0  0  0  0
 17 44  1  0  0  0  0
 18 45  1  0  0  0  0
 18 46  1  0  0  0  0
 19 20  2  0  0  0  0
 19 21  1  0  0  0  0
M  END
> <s_m_source_file>
AV-unprocessed.smi

> <i_m_source_file_index>
1072

> <i_lp_mmshare_version>
43012

> <i_f3d_flags>
0

> <s_epik_input>
W0NIM11jMW5jKFtDSDNdKWMoYyg9TylbbkhdMSlbQ0gyXUMoPU8pW05IXVtDQEBdMihbQ0gzXSlbQ0gyXVtDSDJdW0NAQEhdKFtDSDNdKVtDSDJdW0NIMl0y

> <s_epik_cmdline>
J2VwaWtfcHl0aG9uJywgJy1waCcsICc3LjAnLCAnLXRuJywgJzgnLCAnLW1hJywgJzIwMCcsICctbWV0YWxfYmluZGluZycsICctaW1hZScsICc8aW5maWxlLm1hZT4nLCAnLW9tYWUnLCAnPG91dGZpbGUubWFlPic=

> <r_lp_tautomer_probability>
0.156392

> <r_epik_Ionization_Penalty>
0.0131066

> <r_epik_Ionization_Penalty_Charging>
0.0129643

> <r_epik_Ionization_Penalty_Neutral>
0.000142248

> <r_epik_State_Penalty>
1.15342

> <r_epik_Charging_Adjusted_Penalty>
1.16638

> <i_epik_Tot_Q>
0

> <i_epik_Tot_abs_Q>
0

> <r_epik_Metal_State_Penalty>
1.30766

> <b_epik_Metal_Only>
0

> <s_lp_Force_Field>
OPLS_2005

> <r_lp_Energy>
14.6826

> <b_lp_Chiralities_Consistent>
1

> <s_lp_Variant>
AV-unprocessed.smi:1072-3

> <Gold.Version>
5.8.1

> <Gold.Id.Protein>
6NUR|6NUR_protein|mol2

> <Gold.PLP.Fitness>
38.9210

> <Gold.PLP.PLP>
-39.1281

> <Gold.PLP.part.hbond>
-1.6525

> <Gold.PLP.part.metal>
0.0000

> <Gold.PLP.part.buried>
-4.0467

> <Gold.PLP.part.nonpolar>
-32.2021

> <Gold.PLP.part.repulsive>
0.1119

> <Gold.PLP.ligand.clash>
0.0000

> <Gold.PLP.ligand.torsion>
0.1080

> <Gold.PLP.Chemscore.Hbond>
0.0000

> <Gold.PLP.Chemscore.CHOScore>
0.0000

> <Gold.PLP.Chemscore.Metal>
0.0000

> <Gold.PLP.Chemscore.Internal.Correction>
0.0089

> <Gold.Rescore>
     Score         DG    S(hbond)    S(metal)    S(lipo)     H(rot)  DE(clash)    DE(int)     intcor
     14.23     -15.15       0.00        0.00     114.78       1.47       0.18       0.74       ----

> <Gold.Chemscore.Fitness>
14.2264

> <Gold.Chemscore.DG>
-15.1488

> <Gold.Chemscore.ZeroCoef>
-5.4800

> <Gold.Chemscore.Hbond>
0.0000

> <Gold.Chemscore.Metal>
0.0000

> <Gold.Chemscore.Lipo>
114.7820

> <Gold.Chemscore.Internal_Hbond>
0.0000

> <Gold.Chemscore.DEClash>
0.1776

> <Gold.Chemscore.DEInternal>
0.7448

> <Gold.Chemscore.Rot>
1.4690

> <Gold.Chemscore.Internal.Correction>
   9.000000E+99

> <Gold.Chemscore.Hbonds>
donor molecule, donor type, donor heavy atom, donor atom, acceptor molecule, acceptor atom, score
      P1  H  6934  6947       L1    20  0.01

> <Gold.Chemscore.Hbond.Weighted>
-0.0000

> <Gold.Chemscore.Metal.Weighted>
-0.0000

> <Gold.Chemscore.Lipo.Weighted>
-13.4295

> <Gold.Chemscore.Internal_Hbond.Weighted>
0.0000

> <Gold.Chemscore.DEClash.Weighted>
0.1776

> <Gold.Chemscore.DEInternal.Weighted>
0.7448

> <Gold.Chemscore.Rot.Weighted>
3.7607

> <Gold.Chemscore.Internal.Correction.Weighted>
   9.000000E+99

> <Gold.Protein.RotatedTorsions>
[ 6907 6896 6895 6894 ] final  175.84 input  -60.11 | X-H torsion
[ 7974 7965 7964 7962 ] final   99.48 input  175.53 | X-H torsion
[ 8008 7997 7996 7995 ] final -161.96 input   59.86 | X-H torsion
[ 10167 10162 10161 10158 ] final  153.21 input  -65.29 | X-H torsion
[ 10718 10713 10712 10709 ] final -179.53 input   66.30 | X-H torsion
[ 10763 10752 10751 10750 ] final -163.63 input  -60.55 | X-H torsion
[ 11005 11000 10999 10996 ] final   23.20 input  -57.11 | X-H torsion

> <Gold.Protein.ActiveResidues>
 VAL166  LYS551  ARG553  GLY616  TRP617  ASP618  TYR619  PRO620  LYS621  CYS622 
 ASP623  PHE694  ASN695  SER759  ASP760  ASP761  ALA762  ILE779  LEU786  VAL792 
 PHE793  MET794  SER795  GLU796  ALA797  LYS798  CYS799  TRP800  GLU811  SER814 

> <Gold.Protein.RotatedAtoms>
  151.7297  133.3317  159.3336 H   0  0  0  0  0  0  0  0  0  0  0  0  # atno 6907 bound_to 6896
  150.7618  134.6374  159.6228 H   0  0  0  0  0  0  0  0  0  0  0  0  # atno 6908 bound_to 6896
  152.3599  134.6888  160.0262 H   0  0  0  0  0  0  0  0  0  0  0  0  # atno 6909 bound_to 6896
  145.3983  139.2351  143.3314 H   0  0  0  0  0  0  0  0  0  0  0  0  # atno 7974 bound_to 7965
  155.7998  140.0890  157.1963 H   0  0  0  0  0  0  0  0  0  0  0  0  # atno 8008 bound_to 7997
  154.3982  140.1474  156.3320 H   0  0  0  0  0  0  0  0  0  0  0  0  # atno 8009 bound_to 7997
  155.8474  140.3436  155.5674 H   0  0  0  0  0  0  0  0  0  0  0  0  # atno 8010 bound_to 7997
  139.4828  144.5292  151.7750 H   0  0  0  0  0  0  0  0  0  0  0  0  # atno 10167 bound_to 10162
  156.8605  130.9750  151.3084 H   0  0  0  0  0  0  0  0  0  0  0  0  # atno 10718 bound_to 10713
  154.7105  135.3005  154.9205 H   0  0  0  0  0  0  0  0  0  0  0  0  # atno 10763 bound_to 10752
  154.0108  135.6695  153.4769 H   0  0  0  0  0  0  0  0  0  0  0  0  # atno 10764 bound_to 10752
  153.0751  135.5039  154.8300 H   0  0  0  0  0  0  0  0  0  0  0  0  # atno 10765 bound_to 10752
  140.3722  134.2010  155.7666 H   0  0  0  0  0  0  0  0  0  0  0  0  # atno 11005 bound_to 11000
  146.2764  140.4676  142.8794 LP  0  0  0  0  0  0  0  0  0  0  0  0  # atno 17320 bound_to 7965
  144.8392  140.6830  143.6241 LP  0  0  0  0  0  0  0  0  0  0  0  0  # atno 17321 bound_to 7965
  140.4816  144.1441  150.5933 LP  0  0  0  0  0  0  0  0  0  0  0  0  # atno 17342 bound_to 10162
  140.4271  143.2585  151.9642 LP  0  0  0  0  0  0  0  0  0  0  0  0  # atno 17343 bound_to 10162
  157.6253  130.8686  149.9178 LP  0  0  0  0  0  0  0  0  0  0  0  0  # atno 17370 bound_to 10713
  156.0779  130.3676  150.0639 LP  0  0  0  0  0  0  0  0  0  0  0  0  # atno 17371 bound_to 10713
  141.1951  133.8114  157.0731 LP  0  0  0  0  0  0  0  0  0  0  0  0  # atno 17394 bound_to 11000
  140.0542  134.9789  157.1191 LP  0  0  0  0  0  0  0  0  0  0  0  0  # atno 17395 bound_to 11000

$$$$
