AV-unprocessed.smi:579|AV-procd|sdf|2987|dock1
  -GOLD-   2262023493D 1   1.00000     0.00000
 Structure written by MMmdl.
 26 27  0  0  0  0  0  0  0  0  1 V2000
  150.3525  138.1290  153.4006 N   0  0  0  0  0  0  0  0  0  0  0  0
  150.6998  139.0546  154.3834 C   0  0  0  0  0  0  0  0  0  0  0  0
  149.7958  140.0598  154.7793 C   0  0  0  0  0  0  0  0  0  0  0  0
  150.1906  140.9722  155.7764 C   0  0  0  0  0  0  0  0  0  0  0  0
  151.4773  140.8457  156.3411 C   0  0  0  0  0  0  0  0  0  0  0  0
  151.8740  141.7506  157.3357 N   0  0  0  0  0  0  0  0  0  0  0  0
  151.2958  143.0788  157.1736 C   0  0  0  0  0  0  0  0  0  0  0  0
  151.8779  144.0380  158.2263 C   0  0  0  0  0  0  0  0  0  0  0  0
  151.6600  143.5063  159.5303 O   0  0  0  0  0  0  0  0  0  0  0  0
  152.2896  142.2398  159.7045 C   0  0  0  0  0  0  0  0  0  0  0  0
  151.7165  141.2352  158.6902 C   0  0  0  0  0  0  0  0  0  0  0  0
  152.3496  139.8802  155.9624 N   0  0  0  0  0  0  0  0  0  0  0  0
  151.9639  139.0086  155.0061 C   0  0  0  0  0  0  0  0  0  0  0  0
  150.9924  137.4041  153.1088 H   0  0  0  0  0  0  0  0  0  0  0  0
  149.4467  138.1479  152.9538 H   0  0  0  0  0  0  0  0  0  0  0  0
  148.8163  140.1333  154.3296 H   0  0  0  0  0  0  0  0  0  0  0  0
  149.5178  141.7531  156.1000 H   0  0  0  0  0  0  0  0  0  0  0  0
  151.5029  143.4527  156.1702 H   0  0  0  0  0  0  0  0  0  0  0  0
  150.2114  143.0256  157.2818 H   0  0  0  0  0  0  0  0  0  0  0  0
  152.9448  144.1963  158.0602 H   0  0  0  0  0  0  0  0  0  0  0  0
  151.3957  145.0129  158.1546 H   0  0  0  0  0  0  0  0  0  0  0  0
  153.3698  142.3393  159.5855 H   0  0  0  0  0  0  0  0  0  0  0  0
  152.1115  141.8909  160.7217 H   0  0  0  0  0  0  0  0  0  0  0  0
  150.6602  141.0610  158.8997 H   0  0  0  0  0  0  0  0  0  0  0  0
  152.2274  140.2759  158.7823 H   0  0  0  0  0  0  0  0  0  0  0  0
  152.6868  138.2539  154.7323 H   0  0  0  0  0  0  0  0  0  0  0  0
  1  2  1  0  0  0  0
  1 14  1  0  0  0  0
  1 15  1  0  0  0  0
  2 13  1  0  0  0  0
  2  3  2  0  0  0  0
  3  4  1  0  0  0  0
  3 16  1  0  0  0  0
  4  5  2  0  0  0  0
  4 17  1  0  0  0  0
  5  6  1  0  0  0  0
  5 12  1  0  0  0  0
  6 11  1  0  0  0  0
  6  7  1  0  0  0  0
  7  8  1  0  0  0  0
  7 18  1  0  0  0  0
  7 19  1  0  0  0  0
  8  9  1  0  0  0  0
  8 20  1  0  0  0  0
  8 21  1  0  0  0  0
  9 10  1  0  0  0  0
 10 11  1  0  0  0  0
 10 22  1  0  0  0  0
 10 23  1  0  0  0  0
 11 24  1  0  0  0  0
 11 25  1  0  0  0  0
 12 13  2  0  0  0  0
 13 26  1  0  0  0  0
M  END
> <s_m_source_file>
AV-unprocessed.smi

> <i_m_source_file_index>
579

> <i_lp_mmshare_version>
43012

> <i_f3d_flags>
0

> <s_epik_input>
W05IMl1jMVtjSF1bY0hdYyhuW2NIXTEpTjJbQ0gyXVtDSDJdT1tDSDJdW0NIMl0y

> <s_epik_cmdline>
J2VwaWtfcHl0aG9uJywgJy1waCcsICc3LjAnLCAnLXRuJywgJzgnLCAnLW1hJywgJzIwMCcsICctbWV0YWxfYmluZGluZycsICctaW1hZScsICc8aW5maWxlLm1hZT4nLCAnLW9tYWUnLCAnPG91dGZpbGUubWFlPic=

> <r_lp_tautomer_probability>
1

> <r_epik_Ionization_Penalty>
0.00957298

> <r_epik_Ionization_Penalty_Charging>
0

> <r_epik_Ionization_Penalty_Neutral>
0.00957298

> <r_epik_State_Penalty>
0.00726246

> <r_epik_Charging_Adjusted_Penalty>
0.00726246

> <i_epik_Tot_Q>
0

> <i_epik_Tot_abs_Q>
0

> <r_epik_Metal_State_Penalty>
7.30711e-06

> <b_epik_Metal_Only>
0

> <s_lp_Force_Field>
OPLS_2005

> <r_lp_Energy>
21.013

> <b_lp_Chiralities_Consistent>
1

> <s_lp_Variant>
AV-unprocessed.smi:579-1

> <Gold.Version>
5.8.1

> <Gold.Id.Protein>
6NUR|6NUR_protein|mol2

> <Gold.PLP.Fitness>
31.6856

> <Gold.PLP.PLP>
-28.0934

> <Gold.PLP.part.hbond>
-3.8382

> <Gold.PLP.part.metal>
0.0000

> <Gold.PLP.part.buried>
-0.1870

> <Gold.PLP.part.nonpolar>
-23.4584

> <Gold.PLP.part.repulsive>
0.1195

> <Gold.PLP.ligand.clash>
0.0000

> <Gold.PLP.ligand.torsion>
0.6825

> <Gold.PLP.Chemscore.Hbond>
1.6183

> <Gold.PLP.Chemscore.CHOScore>
0.0000

> <Gold.PLP.Chemscore.Metal>
0.0000

> <Gold.Chemscore.Hbonds>
donor molecule, donor type, donor heavy atom, donor atom, acceptor molecule, acceptor atom, score
      L1  H     1    14       P1  7949  0.51
      L1  H     1    15       P1  7948  0.13
      P1  H  7997  8008       L1    12  0.99

> <Gold.PLP.Chemscore.Internal.Correction>
0.1023

> <Gold.Rescore>
     Score         DG    S(hbond)    S(metal)    S(lipo)     H(rot)  DE(clash)    DE(int)     intcor
     13.92     -14.84       1.16        0.00      68.64       1.00       0.37       0.54       ----

> <Gold.Chemscore.Fitness>
13.9247

> <Gold.Chemscore.DG>
-14.8362

> <Gold.Chemscore.ZeroCoef>
-5.4800

> <Gold.Chemscore.Hbond>
1.1632

> <Gold.Chemscore.Metal>
0.0000

> <Gold.Chemscore.Lipo>
68.6406

> <Gold.Chemscore.Internal_Hbond>
0.0000

> <Gold.Chemscore.DEClash>
0.3731

> <Gold.Chemscore.DEInternal>
0.5385

> <Gold.Chemscore.Rot>
1.0000

> <Gold.Chemscore.Internal.Correction>
   9.000000E+99

> <Gold.Chemscore.Hbonds>
donor molecule, donor type, donor heavy atom, donor atom, acceptor molecule, acceptor atom, score
      L1  H     1    14       P1  7949  0.15
      L1  H     1    15       P1  7948  0.11
      P1  H  7997  8008       L1    12  0.87

> <Gold.Chemscore.Hbond.Weighted>
-3.8853

> <Gold.Chemscore.Metal.Weighted>
-0.0000

> <Gold.Chemscore.Lipo.Weighted>
-8.0310

> <Gold.Chemscore.Internal_Hbond.Weighted>
0.0000

> <Gold.Chemscore.DEClash.Weighted>
0.3731

> <Gold.Chemscore.DEInternal.Weighted>
0.5385

> <Gold.Chemscore.Rot.Weighted>
2.5600

> <Gold.Chemscore.Internal.Correction.Weighted>
   9.000000E+99

> <Gold.Protein.RotatedTorsions>
[ 6907 6896 6895 6894 ] final  110.31 input  -60.11 | X-H torsion
[ 7974 7965 7964 7962 ] final -175.73 input  175.53 | X-H torsion
[ 8008 7997 7996 7995 ] final  -43.09 input   59.86 | X-H torsion
[ 10167 10162 10161 10158 ] final  -13.92 input  -65.29 | X-H torsion
[ 10718 10713 10712 10709 ] final   76.62 input   66.30 | X-H torsion
[ 10763 10752 10751 10750 ] final -146.02 input  -60.55 | X-H torsion
[ 11005 11000 10999 10996 ] final   24.74 input  -57.11 | X-H torsion

> <Gold.Protein.ActiveResidues>
 VAL166  LYS551  ARG553  GLY616  TRP617  ASP618  TYR619  PRO620  LYS621  CYS622 
 ASP623  PHE694  ASN695  SER759  ASP760  ASP761  ALA762  ILE779  LEU786  VAL792 
 PHE793  MET794  SER795  GLU796  ALA797  LYS798  CYS799  TRP800  GLU811  SER814 

> <Gold.Protein.RotatedAtoms>
  152.5026  133.8819  159.7350 H   0  0  0  0  0  0  0  0  0  0  0  0  # atno 6907 bound_to 6896
  150.9279  133.6793  159.2824 H   0  0  0  0  0  0  0  0  0  0  0  0  # atno 6908 bound_to 6896
  151.4148  135.0994  159.9648 H   0  0  0  0  0  0  0  0  0  0  0  0  # atno 6909 bound_to 6896
  144.7127  140.1277  143.6401 H   0  0  0  0  0  0  0  0  0  0  0  0  # atno 7974 bound_to 7965
  154.3997  140.1457  156.3461 H   0  0  0  0  0  0  0  0  0  0  0  0  # atno 8008 bound_to 7997
  155.8311  140.3466  155.5552 H   0  0  0  0  0  0  0  0  0  0  0  0  # atno 8009 bound_to 7997
  155.8186  140.0894  157.1852 H   0  0  0  0  0  0  0  0  0  0  0  0  # atno 8010 bound_to 7997
  140.7191  143.5376  150.9447 H   0  0  0  0  0  0  0  0  0  0  0  0  # atno 10167 bound_to 10162
  157.6680  130.9783  150.1523 H   0  0  0  0  0  0  0  0  0  0  0  0  # atno 10718 bound_to 10713
  154.8356  135.3397  154.6596 H   0  0  0  0  0  0  0  0  0  0  0  0  # atno 10763 bound_to 10752
  153.7211  135.6958  153.5017 H   0  0  0  0  0  0  0  0  0  0  0  0  # atno 10764 bound_to 10752
  153.2381  135.4394  155.0621 H   0  0  0  0  0  0  0  0  0  0  0  0  # atno 10765 bound_to 10752
  140.3554  134.2183  155.7676 H   0  0  0  0  0  0  0  0  0  0  0  0  # atno 11005 bound_to 11000
  145.9315  139.2609  143.1322 LP  0  0  0  0  0  0  0  0  0  0  0  0  # atno 17320 bound_to 7965
  145.9518  140.8903  143.0255 LP  0  0  0  0  0  0  0  0  0  0  0  0  # atno 17321 bound_to 7965
  139.9098  143.6734  152.3117 LP  0  0  0  0  0  0  0  0  0  0  0  0  # atno 17342 bound_to 10162
  139.7113  144.7619  151.1107 LP  0  0  0  0  0  0  0  0  0  0  0  0  # atno 17343 bound_to 10162
  156.2319  130.3683  149.8435 LP  0  0  0  0  0  0  0  0  0  0  0  0  # atno 17370 bound_to 10713
  156.6260  130.8646  151.3485 LP  0  0  0  0  0  0  0  0  0  0  0  0  # atno 17371 bound_to 10713
  141.2000  133.7998  157.0511 LP  0  0  0  0  0  0  0  0  0  0  0  0  # atno 17394 bound_to 11000
  140.0669  134.9724  157.1401 LP  0  0  0  0  0  0  0  0  0  0  0  0  # atno 17395 bound_to 11000

$$$$
