AV-unprocessed.smi:2797|AV-procd|sdf|10784|dock9
  -GOLD-   2272015223D 1   1.00000     0.00000
 Structure written by MMmdl.
 38 39  0  0  0  0  0  0  0  0  2 V2000
  155.0481  134.7515  161.4997 C   0  0  0  0  0  0  0  0  0  0  0  0
  155.6402  135.8617  162.1638 O   0  0  0  0  0  0  0  0  0  0  0  0
  154.9268  137.1030  162.1288 C   0  0  0  0  0  0  0  0  0  0  0  0
  154.6680  137.5621  160.6875 C   0  0  0  0  0  0  0  0  0  0  0  0
  153.8800  138.7906  160.6602 N   0  0  0  0  0  0  0  0  0  0  0  0
  153.5073  139.4541  159.5572 C   0  0  0  0  0  0  0  0  0  0  0  0
  153.8408  139.1279  158.4187 O   0  0  0  0  0  0  0  0  0  0  0  0
  152.7450  140.5167  159.8658 N   0  0  0  0  0  0  0  0  0  0  0  0
  152.1370  141.4587  158.9888 C   0  0  0  0  0  0  0  0  0  0  0  0
  151.5384  141.0943  157.7560 C   0  0  0  0  0  0  0  0  0  0  0  0
  150.9415  142.0872  156.9554 C   0  0  0  0  0  0  0  0  0  0  0  0
  150.9327  143.3708  157.3701 N   0  3  0  0  0  0  0  0  0  0  0  0
  151.4742  143.7696  158.5421 C   0  0  0  0  0  0  0  0  0  0  0  0
  151.3884  145.2423  158.8930 C   0  0  0  0  0  0  0  0  0  0  0  0
  152.0896  142.8176  159.3891 C   0  0  0  0  0  0  0  0  0  0  0  0
  152.7814  143.3162  160.8964 Cl  0  0  0  0  0  0  0  0  0  0  0  0
  153.7101  136.9352  163.0596 C   0  0  0  0  0  0  0  0  0  0  0  0
  154.5570  137.4681  164.2167 C   0  0  0  0  0  0  0  0  0  0  0  0
  155.4585  138.1175  163.1657 C   0  0  0  0  0  0  0  0  0  0  0  0
  155.6692  133.8716  161.6666 H   0  0  0  0  0  0  0  0  0  0  0  0
  154.9860  134.8994  160.4229 H   0  0  0  0  0  0  0  0  0  0  0  0
  154.0535  134.5186  161.8755 H   0  0  0  0  0  0  0  0  0  0  0  0
  155.6157  137.7818  160.1954 H   0  0  0  0  0  0  0  0  0  0  0  0
  154.2115  136.7764  160.0854 H   0  0  0  0  0  0  0  0  0  0  0  0
  153.5654  139.1404  161.5533 H   0  0  0  0  0  0  0  0  0  0  0  0
  152.6338  140.7096  160.8505 H   0  0  0  0  0  0  0  0  0  0  0  0
  151.5127  140.0711  157.4140 H   0  0  0  0  0  0  0  0  0  0  0  0
  150.4673  141.8921  156.0044 H   0  0  0  0  0  0  0  0  0  0  0  0
  152.3871  145.6611  159.0191 H   0  0  0  0  0  0  0  0  0  0  0  0
  150.8369  145.3789  159.8237 H   0  0  0  0  0  0  0  0  0  0  0  0
  150.8801  145.8100  158.1126 H   0  0  0  0  0  0  0  0  0  0  0  0
  152.8870  137.6050  162.8051 H   0  0  0  0  0  0  0  0  0  0  0  0
  153.3614  135.9092  163.1838 H   0  0  0  0  0  0  0  0  0  0  0  0
  154.0441  138.1688  164.8759 H   0  0  0  0  0  0  0  0  0  0  0  0
  155.0589  136.6758  164.7743 H   0  0  0  0  0  0  0  0  0  0  0  0
  156.5211  138.0744  163.3981 H   0  0  0  0  0  0  0  0  0  0  0  0
  155.1545  139.1413  162.9410 H   0  0  0  0  0  0  0  0  0  0  0  0
  150.4920  144.0719  156.7738 H   0  0  0  0  0  0  0  0  0  0  0  0
  1  2  1  0  0  0  0
  1 20  1  0  0  0  0
  1 21  1  0  0  0  0
  1 22  1  0  0  0  0
  2  3  1  0  0  0  0
  3 19  1  0  0  0  0
  3  4  1  0  0  0  0
  3 17  1  0  0  0  0
  4  5  1  0  0  0  0
  4 23  1  0  0  0  0
  4 24  1  0  0  0  0
  5  6  1  0  0  0  0
  5 25  1  0  0  0  0
  6  7  2  0  0  0  0
  6  8  1  0  0  0  0
  8  9  1  0  0  0  0
  8 26  1  0  0  0  0
  9 15  1  0  0  0  0
  9 10  2  0  0  0  0
 10 11  1  0  0  0  0
 10 27  1  0  0  0  0
 11 12  2  0  0  0  0
 11 28  1  0  0  0  0
 12 13  1  0  0  0  0
 12 38  1  0  0  0  0
 13 14  1  0  0  0  0
 13 15  2  0  0  0  0
 14 29  1  0  0  0  0
 14 30  1  0  0  0  0
 14 31  1  0  0  0  0
 15 16  1  0  0  0  0
 17 18  1  0  0  0  0
 17 32  1  0  0  0  0
 17 33  1  0  0  0  0
 18 19  1  0  0  0  0
 18 34  1  0  0  0  0
 18 35  1  0  0  0  0
 19 36  1  0  0  0  0
 19 37  1  0  0  0  0
M  CHG  1  12   1
M  END
> <s_m_source_file>
AV-unprocessed.smi

> <i_m_source_file_index>
2797

> <i_lp_mmshare_version>
43012

> <i_f3d_flags>
0

> <s_epik_input>
W0NIMl0xW0NIMl1bQ0gyXUMxKE9bQ0gzXSlbQ0gyXVtOSF1DKD1PKVtOSF1jMltjSF1bY0hdbmMoW0NIM10pYzJDbA==

> <s_epik_cmdline>
J2VwaWtfcHl0aG9uJywgJy1waCcsICc3LjAnLCAnLXRuJywgJzgnLCAnLW1hJywgJzIwMCcsICctbWV0YWxfYmluZGluZycsICctaW1hZScsICc8aW5maWxlLm1hZT4nLCAnLW9tYWUnLCAnPG91dGZpbGUubWFlPic=

> <r_epik_Ionization_Penalty>
2.42651

> <r_epik_Ionization_Penalty_Charging>
2.42649

> <r_epik_Ionization_Penalty_Neutral>
1.93283e-05

> <r_epik_State_Penalty>
2.58622

> <r_epik_Charging_Adjusted_Penalty>
5.01271

> <i_epik_Tot_Q>
1

> <i_epik_Tot_abs_Q>
1

> <r_epik_Metal_State_Penalty>
2.59605

> <b_epik_Metal_Only>
0

> <s_lp_Force_Field>
OPLS_2005

> <r_lp_Energy>
25.6694

> <b_lp_Chiralities_Consistent>
1

> <s_lp_Variant>
AV-unprocessed.smi:2797-2

> <Gold.Version>
5.8.1

> <Gold.Id.Protein>
6NUR|6NUR_protein|mol2

> <Gold.PLP.Fitness>
45.1676

> <Gold.PLP.PLP>
-36.7399

> <Gold.PLP.part.hbond>
-2.0000

> <Gold.PLP.part.metal>
0.0000

> <Gold.PLP.part.buried>
-5.4996

> <Gold.PLP.part.nonpolar>
-28.9407

> <Gold.PLP.part.repulsive>
0.1594

> <Gold.PLP.ligand.clash>
0.0000

> <Gold.PLP.ligand.torsion>
0.4270

> <Gold.PLP.Chemscore.Hbond>
3.0000

> <Gold.PLP.Chemscore.CHOScore>
0.0000

> <Gold.PLP.Chemscore.Metal>
0.0000

> <Gold.Chemscore.Hbonds>
donor molecule, donor type, donor heavy atom, donor atom, acceptor molecule, acceptor atom, score
      L1  H    12    38       P1  8028  1.95
      P1  H  7997  8009       L1     7  1.00

> <Gold.PLP.Chemscore.Internal.Correction>
0.2818

> <Gold.Rescore>
     Score         DG    S(hbond)    S(metal)    S(lipo)     H(rot)  DE(clash)    DE(int)     intcor
     20.35     -20.86       1.95        0.00     107.32       1.44       0.03       0.48       ----

> <Gold.Chemscore.Fitness>
20.3528

> <Gold.Chemscore.DG>
-20.8624

> <Gold.Chemscore.ZeroCoef>
-5.4800

> <Gold.Chemscore.Hbond>
1.9479

> <Gold.Chemscore.Metal>
0.0000

> <Gold.Chemscore.Lipo>
107.3201

> <Gold.Chemscore.Internal_Hbond>
0.0000

> <Gold.Chemscore.DEClash>
0.0323

> <Gold.Chemscore.DEInternal>
0.4774

> <Gold.Chemscore.Rot>
1.4375

> <Gold.Chemscore.Internal.Correction>
   9.000000E+99

> <Gold.Chemscore.Hbonds>
donor molecule, donor type, donor heavy atom, donor atom, acceptor molecule, acceptor atom, score
      L1  H    12    38       P1  8028  0.89
      P1  H  7997  8009       L1     7  1.00

> <Gold.Chemscore.Hbond.Weighted>
-6.5060

> <Gold.Chemscore.Metal.Weighted>
-0.0000

> <Gold.Chemscore.Lipo.Weighted>
-12.5564

> <Gold.Chemscore.Internal_Hbond.Weighted>
0.0000

> <Gold.Chemscore.DEClash.Weighted>
0.0323

> <Gold.Chemscore.DEInternal.Weighted>
0.4774

> <Gold.Chemscore.Rot.Weighted>
3.6800

> <Gold.Chemscore.Internal.Correction.Weighted>
   9.000000E+99

> <Gold.Protein.RotatedTorsions>
[ 6907 6896 6895 6894 ] final   86.10 input  -60.11 | X-H torsion
[ 7974 7965 7964 7962 ] final -134.59 input  175.53 | X-H torsion
[ 8008 7997 7996 7995 ] final  134.56 input   59.86 | X-H torsion
[ 10167 10162 10161 10158 ] final -106.96 input  -65.29 | X-H torsion
[ 10718 10713 10712 10709 ] final   46.84 input   66.30 | X-H torsion
[ 10763 10752 10751 10750 ] final   18.87 input  -60.55 | X-H torsion
[ 11005 11000 10999 10996 ] final   39.75 input  -57.11 | X-H torsion

> <Gold.Protein.ActiveResidues>
 VAL166  LYS551  ARG553  GLY616  TRP617  ASP618  TYR619  PRO620  LYS621  CYS622 
 ASP623  PHE694  ASN695  SER759  ASP760  ASP761  ALA762  ILE779  LEU786  VAL792 
 PHE793  MET794  SER795  GLU796  ALA797  LYS798  CYS799  TRP800  GLU811  SER814 

> <Gold.Protein.RotatedAtoms>
  152.5388  134.2484  159.8888 H   0  0  0  0  0  0  0  0  0  0  0  0  # atno 6907 bound_to 6896
  151.2448  133.4374  159.2616 H   0  0  0  0  0  0  0  0  0  0  0  0  # atno 6908 bound_to 6896
  151.0593  134.9740  159.8308 H   0  0  0  0  0  0  0  0  0  0  0  0  # atno 6909 bound_to 6896
  144.9089  140.6869  143.5038 H   0  0  0  0  0  0  0  0  0  0  0  0  # atno 7974 bound_to 7965
  156.2999  140.2493  156.3437 H   0  0  0  0  0  0  0  0  0  0  0  0  # atno 8008 bound_to 7997
  154.9031  140.0405  157.1923 H   0  0  0  0  0  0  0  0  0  0  0  0  # atno 8009 bound_to 7997
  154.8481  140.2901  155.5620 H   0  0  0  0  0  0  0  0  0  0  0  0  # atno 8010 bound_to 7997
  140.1822  143.3958  152.1273 H   0  0  0  0  0  0  0  0  0  0  0  0  # atno 10167 bound_to 10162
  157.4523  130.8146  149.7801 H   0  0  0  0  0  0  0  0  0  0  0  0  # atno 10718 bound_to 10713
  153.1211  135.6719  153.9333 H   0  0  0  0  0  0  0  0  0  0  0  0  # atno 10763 bound_to 10752
  153.8848  135.3054  155.3447 H   0  0  0  0  0  0  0  0  0  0  0  0  # atno 10764 bound_to 10752
  154.7623  135.4982  153.9566 H   0  0  0  0  0  0  0  0  0  0  0  0  # atno 10765 bound_to 10752
  140.1997  134.3885  155.8102 H   0  0  0  0  0  0  0  0  0  0  0  0  # atno 11005 bound_to 11000
  145.3488  139.1712  143.4446 LP  0  0  0  0  0  0  0  0  0  0  0  0  # atno 17320 bound_to 7965
  146.3148  140.3538  142.8658 LP  0  0  0  0  0  0  0  0  0  0  0  0  # atno 17321 bound_to 7965
  139.5291  144.7138  151.5119 LP  0  0  0  0  0  0  0  0  0  0  0  0  # atno 17342 bound_to 10162
  140.6512  143.8692  150.6788 LP  0  0  0  0  0  0  0  0  0  0  0  0  # atno 17343 bound_to 10162
  155.9992  130.3890  150.2672 LP  0  0  0  0  0  0  0  0  0  0  0  0  # atno 17370 bound_to 10713
  157.0845  131.0152  151.3144 LP  0  0  0  0  0  0  0  0  0  0  0  0  # atno 17371 bound_to 10713
  141.2227  133.7088  156.8237 LP  0  0  0  0  0  0  0  0  0  0  0  0  # atno 17394 bound_to 11000
  140.2068  134.8857  157.3230 LP  0  0  0  0  0  0  0  0  0  0  0  0  # atno 17395 bound_to 11000

$$$$
