AV-unprocessed.smi:3114|AV-procd|sdf|11856|dock3
  -GOLD-   2272017243D 1   1.00000     0.00000
 Structure written by MMmdl.
 30 30  0  0  0  0  0  0  0  0  1 V2000
  153.8712  141.5851  161.1638 C   0  0  0  0  0  0  0  0  0  0  0  0
  153.0553  141.2239  160.0553 O   0  0  0  0  0  0  0  0  0  0  0  0
  152.5542  142.2329  159.2593 C   0  0  0  0  0  0  0  0  0  0  0  0
  153.0417  143.5456  159.4187 C   0  0  0  0  0  0  0  0  0  0  0  0
  152.4861  144.5291  158.5768 C   0  0  0  0  0  0  0  0  0  0  0  0
  151.5382  144.2295  157.6632 N   0  0  0  0  0  0  0  0  0  0  0  0
  151.1467  142.9520  157.5893 C   0  0  0  0  0  0  0  0  0  0  0  0
  150.1812  142.6114  156.6590 N   0  0  0  0  0  0  0  0  0  0  0  0
  149.7383  141.2519  156.3795 C   0  0  0  0  0  0  0  0  0  0  0  0
  149.5216  141.0077  154.8798 C   0  0  0  0  0  0  0  0  0  0  0  0
  150.5927  140.2249  154.3793 O   0  0  0  0  0  0  0  0  0  0  0  0
  150.4452  138.8450  154.6704 C   0  0  0  0  0  0  0  0  0  0  0  0
  151.7648  138.1269  154.3658 C   0  0  0  0  0  0  0  0  0  0  0  0
  151.5194  136.7646  154.0916 O   0  0  0  0  0  0  0  0  0  0  0  0
  151.6018  141.9438  158.3370 N   0  0  0  0  0  0  0  0  0  0  0  0
  154.1871  140.6833  161.6879 H   0  0  0  0  0  0  0  0  0  0  0  0
  153.3259  142.2071  161.8749 H   0  0  0  0  0  0  0  0  0  0  0  0
  154.7704  142.1127  160.8422 H   0  0  0  0  0  0  0  0  0  0  0  0
  153.8000  143.7857  160.1492 H   0  0  0  0  0  0  0  0  0  0  0  0
  152.8036  145.5596  158.6360 H   0  0  0  0  0  0  0  0  0  0  0  0
  149.6568  143.3694  156.2471 H   0  0  0  0  0  0  0  0  0  0  0  0
  150.4794  140.5532  156.7678 H   0  0  0  0  0  0  0  0  0  0  0  0
  148.8155  141.0564  156.9268 H   0  0  0  0  0  0  0  0  0  0  0  0
  148.5843  140.4695  154.7323 H   0  0  0  0  0  0  0  0  0  0  0  0
  149.4421  141.9511  154.3376 H   0  0  0  0  0  0  0  0  0  0  0  0
  150.1378  138.6834  155.7051 H   0  0  0  0  0  0  0  0  0  0  0  0
  149.6605  138.4370  154.0315 H   0  0  0  0  0  0  0  0  0  0  0  0
  152.2284  138.5643  153.4813 H   0  0  0  0  0  0  0  0  0  0  0  0
  152.4736  138.2301  155.1881 H   0  0  0  0  0  0  0  0  0  0  0  0
  151.2473  136.6868  153.1898 H   0  0  0  0  0  0  0  0  0  0  0  0
  1  2  1  0  0  0  0
  1 16  1  0  0  0  0
  1 17  1  0  0  0  0
  1 18  1  0  0  0  0
  2  3  1  0  0  0  0
  3 15  1  0  0  0  0
  3  4  2  0  0  0  0
  4  5  1  0  0  0  0
  4 19  1  0  0  0  0
  5  6  2  0  0  0  0
  5 20  1  0  0  0  0
  6  7  1  0  0  0  0
  7  8  1  0  0  0  0
  7 15  2  0  0  0  0
  8  9  1  0  0  0  0
  8 21  1  0  0  0  0
  9 10  1  0  0  0  0
  9 22  1  0  0  0  0
  9 23  1  0  0  0  0
 10 11  1  0  0  0  0
 10 24  1  0  0  0  0
 10 25  1  0  0  0  0
 11 12  1  0  0  0  0
 12 13  1  0  0  0  0
 12 26  1  0  0  0  0
 12 27  1  0  0  0  0
 13 14  1  0  0  0  0
 13 28  1  0  0  0  0
 13 29  1  0  0  0  0
 14 30  1  0  0  0  0
M  END
> <s_m_source_file>
AV-unprocessed.smi

> <i_m_source_file_index>
3114

> <i_lp_mmshare_version>
43012

> <i_f3d_flags>
0

> <s_epik_input>
W0NIM11PYzFbY0hdW2NIXW5jKG4xKVtOSF1bQ0gyXVtDSDJdT1tDSDJdW0NIMl1bT0hd

> <s_epik_cmdline>
J2VwaWtfcHl0aG9uJywgJy1waCcsICc3LjAnLCAnLXRuJywgJzgnLCAnLW1hJywgJzIwMCcsICctbWV0YWxfYmluZGluZycsICctaW1hZScsICc8aW5maWxlLm1hZT4nLCAnLW9tYWUnLCAnPG91dGZpbGUubWFlPic=

> <r_lp_tautomer_probability>
1

> <r_epik_Ionization_Penalty>
0.0343038

> <r_epik_Ionization_Penalty_Charging>
0

> <r_epik_Ionization_Penalty_Neutral>
0.0343038

> <r_epik_State_Penalty>
0.0285297

> <r_epik_Charging_Adjusted_Penalty>
0.0285297

> <i_epik_Tot_Q>
0

> <i_epik_Tot_abs_Q>
0

> <r_epik_Metal_State_Penalty>
0.0269624

> <b_epik_Metal_Only>
0

> <s_lp_Force_Field>
OPLS_2005

> <r_lp_Energy>
-3.75924

> <b_lp_Chiralities_Consistent>
1

> <s_lp_Variant>
AV-unprocessed.smi:3114-1

> <Gold.Version>
5.8.1

> <Gold.Id.Protein>
6NUR|6NUR_protein|mol2

> <Gold.PLP.Fitness>
47.1170

> <Gold.PLP.PLP>
-36.6575

> <Gold.PLP.part.hbond>
-3.9463

> <Gold.PLP.part.metal>
0.0000

> <Gold.PLP.part.buried>
-7.0145

> <Gold.PLP.part.nonpolar>
-26.9883

> <Gold.PLP.part.repulsive>
0.3047

> <Gold.PLP.ligand.clash>
0.0000

> <Gold.PLP.ligand.torsion>
0.8386

> <Gold.PLP.Chemscore.Hbond>
4.0000

> <Gold.PLP.Chemscore.CHOScore>
0.0000

> <Gold.PLP.Chemscore.Metal>
0.0000

> <Gold.Chemscore.Hbonds>
donor molecule, donor type, donor heavy atom, donor atom, acceptor molecule, acceptor atom, score
      L1  H     8    21       P1  8028  1.00
      L1  H    14    30       P1  7949  1.00
      P1  H  7989  7998       L1    11  0.94
      P1  H 10752 10765       L1    14  1.00

> <Gold.PLP.Chemscore.Internal.Correction>
0.1367

> <Gold.Rescore>
     Score         DG    S(hbond)    S(metal)    S(lipo)     H(rot)  DE(clash)    DE(int)     intcor
     16.73     -17.62       3.77        0.00      66.37       3.21       0.00       0.89       ----

> <Gold.Chemscore.Fitness>
16.7307

> <Gold.Chemscore.DG>
-17.6162

> <Gold.Chemscore.ZeroCoef>
-5.4800

> <Gold.Chemscore.Hbond>
3.7672

> <Gold.Chemscore.Metal>
0.0000

> <Gold.Chemscore.Lipo>
66.3747

> <Gold.Chemscore.Internal_Hbond>
0.0000

> <Gold.Chemscore.DEClash>
0.0000

> <Gold.Chemscore.DEInternal>
0.8855

> <Gold.Chemscore.Rot>
3.2078

> <Gold.Chemscore.Internal.Correction>
   9.000000E+99

> <Gold.Chemscore.Hbonds>
donor molecule, donor type, donor heavy atom, donor atom, acceptor molecule, acceptor atom, score
      L1  H     8    21       P1  8028  1.00
      L1  H    14    30       P1  7949  0.60
      P1  H  7989  7998       L1    11  0.87
      P1  H 10752 10765       L1    14  0.36

> <Gold.Chemscore.Hbond.Weighted>
-12.5824

> <Gold.Chemscore.Metal.Weighted>
-0.0000

> <Gold.Chemscore.Lipo.Weighted>
-7.7658

> <Gold.Chemscore.Internal_Hbond.Weighted>
0.0000

> <Gold.Chemscore.DEClash.Weighted>
0.0000

> <Gold.Chemscore.DEInternal.Weighted>
0.8855

> <Gold.Chemscore.Rot.Weighted>
8.2120

> <Gold.Chemscore.Internal.Correction.Weighted>
   9.000000E+99

> <Gold.Protein.RotatedTorsions>
[ 6907 6896 6895 6894 ] final  172.89 input  -60.11 | X-H torsion
[ 7974 7965 7964 7962 ] final  -22.26 input  175.53 | X-H torsion
[ 8008 7997 7996 7995 ] final   21.90 input   59.86 | X-H torsion
[ 10167 10162 10161 10158 ] final  -85.02 input  -65.29 | X-H torsion
[ 10718 10713 10712 10709 ] final   28.26 input   66.30 | X-H torsion
[ 10763 10752 10751 10750 ] final  155.43 input  -60.55 | X-H torsion
[ 11005 11000 10999 10996 ] final  117.34 input  -57.11 | X-H torsion

> <Gold.Protein.ActiveResidues>
 VAL166  LYS551  ARG553  GLY616  TRP617  ASP618  TYR619  PRO620  LYS621  CYS622 
 ASP623  PHE694  ASN695  SER759  ASP760  ASP761  ALA762  ILE779  LEU786  VAL792 
 PHE793  MET794  SER795  GLU796  ALA797  LYS798  CYS799  TRP800  GLU811  SER814 

> <Gold.Protein.RotatedAtoms>
  151.7770  133.3346  159.3460 H   0  0  0  0  0  0  0  0  0  0  0  0  # atno 6907 bound_to 6896
  150.7440  134.5966  159.6024 H   0  0  0  0  0  0  0  0  0  0  0  0  # atno 6908 bound_to 6896
  152.3302  134.7271  160.0343 H   0  0  0  0  0  0  0  0  0  0  0  0  # atno 6909 bound_to 6896
  146.1686  140.4454  142.8542 H   0  0  0  0  0  0  0  0  0  0  0  0  # atno 7974 bound_to 7965
  154.9576  140.3074  155.5046 H   0  0  0  0  0  0  0  0  0  0  0  0  # atno 8008 bound_to 7997
  156.2980  140.2307  156.4597 H   0  0  0  0  0  0  0  0  0  0  0  0  # atno 8009 bound_to 7997
  154.7996  140.0435  157.1251 H   0  0  0  0  0  0  0  0  0  0  0  0  # atno 8010 bound_to 7997
  140.4077  143.2636  151.9059 H   0  0  0  0  0  0  0  0  0  0  0  0  # atno 10167 bound_to 10162
  157.2311  130.7024  149.6314 H   0  0  0  0  0  0  0  0  0  0  0  0  # atno 10718 bound_to 10713
  154.1683  135.2806  155.3088 H   0  0  0  0  0  0  0  0  0  0  0  0  # atno 10763 bound_to 10752
  154.6094  135.5503  153.7461 H   0  0  0  0  0  0  0  0  0  0  0  0  # atno 10764 bound_to 10752
  153.0172  135.6411  154.1824 H   0  0  0  0  0  0  0  0  0  0  0  0  # atno 10765 bound_to 10752
  139.9071  134.9609  156.7335 H   0  0  0  0  0  0  0  0  0  0  0  0  # atno 11005 bound_to 11000
  144.8129  140.6417  143.6403 LP  0  0  0  0  0  0  0  0  0  0  0  0  # atno 17320 bound_to 7965
  145.4401  139.1537  143.3975 LP  0  0  0  0  0  0  0  0  0  0  0  0  # atno 17321 bound_to 7965
  139.4783  144.5569  151.8299 LP  0  0  0  0  0  0  0  0  0  0  0  0  # atno 17342 bound_to 10162
  140.4672  144.1638  150.5913 LP  0  0  0  0  0  0  0  0  0  0  0  0  # atno 17343 bound_to 10162
  155.9675  130.4488  150.5635 LP  0  0  0  0  0  0  0  0  0  0  0  0  # atno 17370 bound_to 10713
  157.3477  131.0728  151.1738 LP  0  0  0  0  0  0  0  0  0  0  0  0  # atno 17371 bound_to 10713
  140.6906  133.9393  155.7964 LP  0  0  0  0  0  0  0  0  0  0  0  0  # atno 17394 bound_to 11000
  141.0444  134.0575  157.3862 LP  0  0  0  0  0  0  0  0  0  0  0  0  # atno 17395 bound_to 11000

$$$$
