AV-unprocessed.smi:249|AV-procd|sdf|1921|dock3
  -GOLD-   2262021 23D 1   1.00000     0.00000
 Structure written by MMmdl.
 64 67  0  0  0  0  0  0  0  0  2 V2000
  144.2842  132.4669  150.8943 C   0  0  0  0  0  0  0  0  0  0  0  0
  145.6694  132.1399  150.3117 C   0  0  0  0  0  0  0  0  0  0  0  0
  146.6413  131.6360  151.3259 N   0  3  1  0  0  0  0  0  0  0  0  0
  147.0949  132.7213  152.2445 C   0  0  0  0  0  0  0  0  0  0  0  0
  148.1805  132.2429  153.2185 C   0  0  0  0  0  0  0  0  0  0  0  0
  147.6720  131.0513  154.0370 C   0  0  2  0  0  0  0  0  0  0  0  0
  148.6595  130.5850  155.0143 N   0  0  0  0  0  0  0  0  0  0  0  0
  149.5250  129.4419  154.7329 C   0  0  0  0  0  0  0  0  0  0  0  0
  148.9796  131.3900  156.0601 C   0  0  0  0  0  0  0  0  0  0  0  0
  150.0311  132.2419  155.9330 N   0  0  0  0  0  0  0  0  0  0  0  0
  150.3678  133.0564  156.9371 C   0  0  0  0  0  0  0  0  0  0  0  0
  149.8031  133.1751  158.1398 N   0  0  0  0  0  0  0  0  0  0  0  0
  148.7593  132.3099  158.2831 C   0  0  0  0  0  0  0  0  0  0  0  0
  148.2819  131.3932  157.3032 C   0  0  0  0  0  0  0  0  0  0  0  0
  147.2076  130.6741  157.8168 N   0  0  0  0  0  0  0  0  0  0  0  0
  147.0506  131.1476  159.0223 C   0  0  0  0  0  0  0  0  0  0  0  0
  147.9521  132.1200  159.3914 N   0  0  0  0  0  0  0  0  0  0  0  0
  148.0041  132.8146  160.6656 C   0  0  0  0  0  0  0  0  0  0  0  0
  146.6674  133.4683  161.1052 C   0  0  1  0  0  0  0  0  0  0  0  0
  145.7894  132.4055  161.8059 C   0  0  0  0  0  0  0  0  0  0  0  0
  144.4275  132.7827  161.8216 O   0  0  0  0  0  0  0  0  0  0  0  0
  146.8306  134.7613  161.9574 C   0  0  2  0  0  0  0  0  0  0  0  0
  145.5780  135.6187  162.0547 C   0  0  0  0  0  0  0  0  0  0  0  0
  146.1393  136.9556  162.5151 C   0  0  0  0  0  0  0  0  0  0  0  0
  147.3633  137.0849  161.8087 O   0  0  0  0  0  0  0  0  0  0  0  0
  147.8340  135.7968  161.4224 C   0  0  0  0  0  0  0  0  0  0  0  0
  147.2294  129.9390  153.0780 C   0  0  0  0  0  0  0  0  0  0  0  0
  146.1558  130.4358  152.0852 C   0  0  2  0  0  0  0  0  0  0  0  0
  145.7498  129.2599  151.1724 C   0  0  0  0  0  0  0  0  0  0  0  0
  143.6726  132.9789  150.1509 H   0  0  0  0  0  0  0  0  0  0  0  0
  144.3635  133.1230  151.7615 H   0  0  0  0  0  0  0  0  0  0  0  0
  143.7346  131.5737  151.1893 H   0  0  0  0  0  0  0  0  0  0  0  0
  145.5786  131.4223  149.4951 H   0  0  0  0  0  0  0  0  0  0  0  0
  146.0284  133.0672  149.8714 H   0  0  0  0  0  0  0  0  0  0  0  0
  147.5073  133.5563  151.6811 H   0  0  0  0  0  0  0  0  0  0  0  0
  146.2389  133.1082  152.8001 H   0  0  0  0  0  0  0  0  0  0  0  0
  149.0760  131.9723  152.6576 H   0  0  0  0  0  0  0  0  0  0  0  0
  148.4636  133.0594  153.8838 H   0  0  0  0  0  0  0  0  0  0  0  0
  146.7875  131.4053  154.5652 H   0  0  0  0  0  0  0  0  0  0  0  0
  149.7795  128.9143  155.6530 H   0  0  0  0  0  0  0  0  0  0  0  0
  150.4494  129.7707  154.2574 H   0  0  0  0  0  0  0  0  0  0  0  0
  149.0392  128.7291  154.0679 H   0  0  0  0  0  0  0  0  0  0  0  0
  151.2105  133.7055  156.7501 H   0  0  0  0  0  0  0  0  0  0  0  0
  146.2773  130.7872  159.6853 H   0  0  0  0  0  0  0  0  0  0  0  0
  148.3263  132.0891  161.4135 H   0  0  0  0  0  0  0  0  0  0  0  0
  148.7906  133.5687  160.6144 H   0  0  0  0  0  0  0  0  0  0  0  0
  146.1258  133.7463  160.2006 H   0  0  0  0  0  0  0  0  0  0  0  0
  145.8810  131.4348  161.3190 H   0  0  0  0  0  0  0  0  0  0  0  0
  146.1208  132.2586  162.8344 H   0  0  0  0  0  0  0  0  0  0  0  0
  143.9591  132.1963  162.3960 H   0  0  0  0  0  0  0  0  0  0  0  0
  147.1272  134.4877  162.9715 H   0  0  0  0  0  0  0  0  0  0  0  0
  145.1105  135.7281  161.0748 H   0  0  0  0  0  0  0  0  0  0  0  0
  144.8358  135.2213  162.7475 H   0  0  0  0  0  0  0  0  0  0  0  0
  145.4675  137.7898  162.3119 H   0  0  0  0  0  0  0  0  0  0  0  0
  146.3474  136.9347  163.5857 H   0  0  0  0  0  0  0  0  0  0  0  0
  148.8373  135.6364  161.8145 H   0  0  0  0  0  0  0  0  0  0  0  0
  147.8877  135.7725  160.3335 H   0  0  0  0  0  0  0  0  0  0  0  0
  148.0849  129.5535  152.5224 H   0  0  0  0  0  0  0  0  0  0  0  0
  146.8371  129.1023  153.6577 H   0  0  0  0  0  0  0  0  0  0  0  0
  145.2772  130.7354  152.6593 H   0  0  0  0  0  0  0  0  0  0  0  0
  145.5632  128.3592  151.7580 H   0  0  0  0  0  0  0  0  0  0  0  0
  146.5341  129.0248  150.4523 H   0  0  0  0  0  0  0  0  0  0  0  0
  144.8284  129.4564  150.6253 H   0  0  0  0  0  0  0  0  0  0  0  0
  147.4564  131.3322  150.8125 H   0  0  0  0  0  0  0  0  0  0  0  0
  1  2  1  0  0  0  0
  1 30  1  0  0  0  0
  1 31  1  0  0  0  0
  1 32  1  0  0  0  0
  2  3  1  0  0  0  0
  2 33  1  0  0  0  0
  2 34  1  0  0  0  0
  3 28  1  0  0  0  0
  3  4  1  0  0  0  0
  3 64  1  0  0  0  0
  4  5  1  0  0  0  0
  4 35  1  0  0  0  0
  4 36  1  0  0  0  0
  5  6  1  0  0  0  0
  5 37  1  0  0  0  0
  5 38  1  0  0  0  0
  6  7  1  0  0  0  0
  6 27  1  0  0  0  0
  6 39  1  0  0  0  0
  7  8  1  0  0  0  0
  7  9  1  0  0  0  0
  8 40  1  0  0  0  0
  8 41  1  0  0  0  0
  8 42  1  0  0  0  0
  9 14  1  0  0  0  0
  9 10  2  0  0  0  0
 10 11  1  0  0  0  0
 11 12  2  0  0  0  0
 11 43  1  0  0  0  0
 12 13  1  0  0  0  0
 13 17  1  0  0  0  0
 13 14  2  0  0  0  0
 14 15  1  0  0  0  0
 15 16  2  0  0  0  0
 16 17  1  0  0  0  0
 16 44  1  0  0  0  0
 17 18  1  0  0  0  0
 18 19  1  0  0  0  0
 18 45  1  0  0  0  0
 18 46  1  0  0  0  0
 19 20  1  0  0  0  0
 19 22  1  0  0  0  0
 19 47  1  0  0  0  0
 20 21  1  0  0  0  0
 20 48  1  0  0  0  0
 20 49  1  0  0  0  0
 21 50  1  0  0  0  0
 22 26  1  0  0  0  0
 22 23  1  0  0  0  0
 22 51  1  0  0  0  0
 23 24  1  0  0  0  0
 23 52  1  0  0  0  0
 23 53  1  0  0  0  0
 24 25  1  0  0  0  0
 24 54  1  0  0  0  0
 24 55  1  0  0  0  0
 25 26  1  0  0  0  0
 26 56  1  0  0  0  0
 26 57  1  0  0  0  0
 27 28  1  0  0  0  0
 27 58  1  0  0  0  0
 27 59  1  0  0  0  0
 28 29  1  0  0  0  0
 28 60  1  0  0  0  0
 29 61  1  0  0  0  0
 29 62  1  0  0  0  0
 29 63  1  0  0  0  0
M  CHG  1   3   1
M  END
> <s_m_source_file>
AV-unprocessed.smi

> <i_m_source_file_index>
249

> <i_lp_mmshare_version>
43012

> <i_f3d_flags>
0

> <s_epik_input>
W0NIM11bQ0gyXU4xW0NIMl1bQ0gyXVtDQEhdKFtDSDJdW0NASF0xW0NIM10pTihbQ0gzXSljKG5bY0hdbjIpYyhjMjMpbltjSF1uM1tDSDJdW0NASF0oW0NIMl1bT0hdKVtDQEBIXTRbQ0gyXVtDSDJdT1tDSDJdNA==

> <s_epik_cmdline>
J2VwaWtfcHl0aG9uJywgJy1waCcsICc3LjAnLCAnLXRuJywgJzgnLCAnLW1hJywgJzIwMCcsICctbWV0YWxfYmluZGluZycsICctaW1hZScsICc8aW5maWxlLm1hZT4nLCAnLW9tYWUnLCAnPG91dGZpbGUubWFlPic=

> <r_lp_tautomer_probability>
1

> <r_epik_Ionization_Penalty>
0.00294688

> <r_epik_Ionization_Penalty_Charging>
0.00169971

> <r_epik_Ionization_Penalty_Neutral>
0.00124717

> <r_epik_State_Penalty>
-0

> <r_epik_Charging_Adjusted_Penalty>
0.00169971

> <i_epik_Tot_Q>
1

> <i_epik_Tot_abs_Q>
1

> <r_epik_Metal_State_Penalty>
-0

> <b_epik_Metal_Only>
0

> <s_lp_Force_Field>
OPLS_2005

> <r_lp_Energy>
53.8216

> <b_lp_Chiralities_Consistent>
1

> <s_lp_Variant>
AV-unprocessed.smi:249-24

> <Gold.Version>
5.8.1

> <Gold.Id.Protein>
6NUR|6NUR_protein|mol2

> <Gold.PLP.Fitness>
50.6883

> <Gold.PLP.PLP>
-44.1365

> <Gold.PLP.part.hbond>
-4.1338

> <Gold.PLP.part.metal>
0.0000

> <Gold.PLP.part.buried>
-7.2021

> <Gold.PLP.part.nonpolar>
-33.0697

> <Gold.PLP.part.repulsive>
0.0116

> <Gold.PLP.ligand.clash>
0.0000

> <Gold.PLP.ligand.torsion>
2.5485

> <Gold.PLP.Chemscore.Hbond>
3.7280

> <Gold.PLP.Chemscore.CHOScore>
0.0000

> <Gold.PLP.Chemscore.Metal>
0.0000

> <Gold.Chemscore.Hbonds>
donor molecule, donor type, donor heavy atom, donor atom, acceptor molecule, acceptor atom, score
      L1  H     3    64       P1 10747  1.00
      P1  H  6896  6909       L1    12  1.00
      P1  H  6931  6943       L1    25  0.94
      P1  H  6934  6947       L1    25  0.62

> <Gold.PLP.Chemscore.Internal.Correction>
0.4649

> <Gold.Rescore>
     Score         DG    S(hbond)    S(metal)    S(lipo)     H(rot)  DE(clash)    DE(int)     intcor
     18.38     -21.08       2.80        0.00     111.58       2.65       0.04       2.66       ----

> <Gold.Chemscore.Fitness>
18.3834

> <Gold.Chemscore.DG>
-21.0831

> <Gold.Chemscore.ZeroCoef>
-5.4800

> <Gold.Chemscore.Hbond>
2.7954

> <Gold.Chemscore.Metal>
0.0000

> <Gold.Chemscore.Lipo>
111.5767

> <Gold.Chemscore.Internal_Hbond>
0.0000

> <Gold.Chemscore.DEClash>
0.0354

> <Gold.Chemscore.DEInternal>
2.6644

> <Gold.Chemscore.Rot>
2.6515

> <Gold.Chemscore.Internal.Correction>
   9.000000E+99

> <Gold.Chemscore.Hbonds>
donor molecule, donor type, donor heavy atom, donor atom, acceptor molecule, acceptor atom, score
      L1  H     3    64       P1 10747  1.00
      P1  H  6896  6909       L1    12  0.91
      P1  H  6931  6943       L1    25  0.47
      P1  H  6934  6947       L1    25  0.21

> <Gold.Chemscore.Hbond.Weighted>
-9.3366

> <Gold.Chemscore.Metal.Weighted>
-0.0000

> <Gold.Chemscore.Lipo.Weighted>
-13.0545

> <Gold.Chemscore.Internal_Hbond.Weighted>
0.0000

> <Gold.Chemscore.DEClash.Weighted>
0.0354

> <Gold.Chemscore.DEInternal.Weighted>
2.6644

> <Gold.Chemscore.Rot.Weighted>
6.7880

> <Gold.Chemscore.Internal.Correction.Weighted>
   9.000000E+99

> <Gold.Protein.RotatedTorsions>
[ 6907 6896 6895 6894 ] final   12.14 input  -60.11 | X-H torsion
[ 7974 7965 7964 7962 ] final   54.51 input  175.53 | X-H torsion
[ 8008 7997 7996 7995 ] final  162.77 input   59.86 | X-H torsion
[ 10167 10162 10161 10158 ] final   25.25 input  -65.29 | X-H torsion
[ 10718 10713 10712 10709 ] final   68.31 input   66.30 | X-H torsion
[ 10763 10752 10751 10750 ] final   43.72 input  -60.55 | X-H torsion
[ 11005 11000 10999 10996 ] final  140.57 input  -57.11 | X-H torsion

> <Gold.Protein.ActiveResidues>
 VAL166  LYS551  ARG553  GLY616  TRP617  ASP618  TYR619  PRO620  LYS621  CYS622 
 ASP623  PHE694  ASN695  SER759  ASP760  ASP761  ALA762  ILE779  LEU786  VAL792 
 PHE793  MET794  SER795  GLU796  ALA797  LYS798  CYS799  TRP800  GLU811  SER814 

> <Gold.Protein.RotatedAtoms>
  151.7656  135.0799  160.0351 H   0  0  0  0  0  0  0  0  0  0  0  0  # atno 6907 bound_to 6896
  152.3323  133.5968  159.5827 H   0  0  0  0  0  0  0  0  0  0  0  0  # atno 6908 bound_to 6896
  150.7430  133.9765  159.3604 H   0  0  0  0  0  0  0  0  0  0  0  0  # atno 6909 bound_to 6896
  145.9601  139.4051  143.0253 H   0  0  0  0  0  0  0  0  0  0  0  0  # atno 7974 bound_to 7965
  156.2007  140.1741  156.7906 H   0  0  0  0  0  0  0  0  0  0  0  0  # atno 8008 bound_to 7997
  154.5588  140.0703  156.8816 H   0  0  0  0  0  0  0  0  0  0  0  0  # atno 8009 bound_to 7997
  155.2888  140.3354  155.4256 H   0  0  0  0  0  0  0  0  0  0  0  0  # atno 8010 bound_to 7997
  140.5122  144.0142  150.6378 H   0  0  0  0  0  0  0  0  0  0  0  0  # atno 10167 bound_to 10162
  157.6281  130.9366  150.0359 H   0  0  0  0  0  0  0  0  0  0  0  0  # atno 10718 bound_to 10713
  152.9855  135.6092  154.3158 H   0  0  0  0  0  0  0  0  0  0  0  0  # atno 10763 bound_to 10752
  154.2870  135.2775  155.2673 H   0  0  0  0  0  0  0  0  0  0  0  0  # atno 10764 bound_to 10752
  154.4986  135.5873  153.6570 H   0  0  0  0  0  0  0  0  0  0  0  0  # atno 10765 bound_to 10752
  140.0337  134.9339  157.0712 H   0  0  0  0  0  0  0  0  0  0  0  0  # atno 11005 bound_to 11000
  145.8051  140.9752  143.0978 LP  0  0  0  0  0  0  0  0  0  0  0  0  # atno 17320 bound_to 7965
  144.6813  139.9851  143.7484 LP  0  0  0  0  0  0  0  0  0  0  0  0  # atno 17321 bound_to 7965
  140.3467  143.2987  152.0530 LP  0  0  0  0  0  0  0  0  0  0  0  0  # atno 17342 bound_to 10162
  139.4899  144.6403  151.6890 LP  0  0  0  0  0  0  0  0  0  0  0  0  # atno 17343 bound_to 10162
  156.1467  130.3642  149.9500 LP  0  0  0  0  0  0  0  0  0  0  0  0  # atno 17370 bound_to 10713
  156.7529  130.9122  151.3638 LP  0  0  0  0  0  0  0  0  0  0  0  0  # atno 17371 bound_to 10713
  140.4183  134.1908  155.7164 LP  0  0  0  0  0  0  0  0  0  0  0  0  # atno 17394 bound_to 11000
  141.1845  133.8342  157.1136 LP  0  0  0  0  0  0  0  0  0  0  0  0  # atno 17395 bound_to 11000

$$$$
