AV-unprocessed.smi:21|AV-procd|sdf|160|dock9
  -GOLD-   2262015393D 1   1.00000     0.00000
 Structure written by MMmdl.
 61 64  0  0  0  0  0  0  0  0  1 V2000
  147.3411  136.2594  162.6646 C   0  0  0  0  0  0  0  0  0  0  0  0
  148.0981  136.8587  161.6247 O   0  0  0  0  0  0  0  0  0  0  0  0
  148.2444  136.0245  160.4841 C   0  0  2  0  0  0  0  0  0  0  0  0
  149.2936  136.5723  159.5023 C   0  0  0  0  0  0  0  0  0  0  0  0
  148.5862  136.5406  158.1405 C   0  0  2  0  0  0  0  0  0  0  0  0
  149.1882  137.5135  157.1005 C   0  0  0  0  0  0  0  0  0  0  0  0
  150.5117  137.1114  156.6220 N   0  0  0  0  0  0  0  0  0  0  0  0
  150.6639  135.7550  156.1044 C   0  0  0  0  0  0  0  0  0  0  0  0
  151.5979  137.7109  157.1785 C   0  0  0  0  0  0  0  0  0  0  0  0
  152.8199  137.1299  157.0374 N   0  0  0  0  0  0  0  0  0  0  0  0
  153.8982  137.6680  157.6135 C   0  0  0  0  0  0  0  0  0  0  0  0
  153.9813  138.7677  158.3628 N   0  0  0  0  0  0  0  0  0  0  0  0
  152.7650  139.3695  158.4921 C   0  0  0  0  0  0  0  0  0  0  0  0
  151.5359  138.9210  157.9295 C   0  0  0  0  0  0  0  0  0  0  0  0
  150.5209  139.8149  158.2525 N   0  0  0  0  0  0  0  0  0  0  0  0
  151.1094  140.7238  158.9799 C   0  0  0  0  0  0  0  0  0  0  0  0
  152.4519  140.5170  159.1995 N   0  0  0  0  0  0  0  0  0  0  0  0
  153.3440  141.3579  159.9773 C   0  0  0  0  0  0  0  0  0  0  0  0
  152.6281  142.3773  160.9080 C   0  0  1  0  0  0  0  0  0  0  0  0
  153.4735  142.5736  162.1901 C   0  0  0  0  0  0  0  0  0  0  0  0
  152.7162  143.1745  163.2207 O   0  0  0  0  0  0  0  0  0  0  0  0
  152.3262  143.7393  160.2119 C   0  0  2  0  0  0  0  0  0  0  0  0
  150.8510  144.0243  159.9690 C   0  0  0  0  0  0  0  0  0  0  0  0
  150.8978  145.1214  158.9159 C   0  0  0  0  0  0  0  0  0  0  0  0
  151.9840  144.7633  158.0782 O   0  0  0  0  0  0  0  0  0  0  0  0
  152.8716  143.9005  158.7818 C   0  0  0  0  0  0  0  0  0  0  0  0
  147.1944  136.8031  158.4691 N   0  0  0  0  0  0  0  0  0  0  0  0
  146.2596  136.4829  157.3984 C   0  0  0  0  0  0  0  0  0  0  0  0
  146.9476  136.0160  159.6645 C   0  0  0  0  0  0  0  0  0  0  0  0
  148.4789  135.0019  160.7858 H   0  0  0  0  0  0  0  0  0  0  0  0
  148.6589  135.5233  157.7518 H   0  0  0  0  0  0  0  0  0  0  0  0
  147.2625  136.9506  163.5035 H   0  0  0  0  0  0  0  0  0  0  0  0
  147.8101  135.3442  163.0276 H   0  0  0  0  0  0  0  0  0  0  0  0
  146.3300  136.0237  162.3306 H   0  0  0  0  0  0  0  0  0  0  0  0
  149.5534  137.5999  159.7629 H   0  0  0  0  0  0  0  0  0  0  0  0
  150.2099  135.9824  159.5127 H   0  0  0  0  0  0  0  0  0  0  0  0
  148.5400  137.5623  156.2260 H   0  0  0  0  0  0  0  0  0  0  0  0
  149.1941  138.5221  157.5076 H   0  0  0  0  0  0  0  0  0  0  0  0
  151.5336  135.6854  155.4501 H   0  0  0  0  0  0  0  0  0  0  0  0
  149.7870  135.4670  155.5242 H   0  0  0  0  0  0  0  0  0  0  0  0
  150.7822  135.0382  156.9177 H   0  0  0  0  0  0  0  0  0  0  0  0
  154.8257  137.1372  157.4575 H   0  0  0  0  0  0  0  0  0  0  0  0
  150.5718  141.5642  159.3941 H   0  0  0  0  0  0  0  0  0  0  0  0
  153.9774  140.6868  160.5578 H   0  0  0  0  0  0  0  0  0  0  0  0
  154.0096  141.8852  159.2927 H   0  0  0  0  0  0  0  0  0  0  0  0
  151.6739  141.9515  161.2210 H   0  0  0  0  0  0  0  0  0  0  0  0
  153.8718  141.6213  162.5419 H   0  0  0  0  0  0  0  0  0  0  0  0
  154.3235  143.2307  162.0127 H   0  0  0  0  0  0  0  0  0  0  0  0
  152.1200  143.7971  162.8328 H   0  0  0  0  0  0  0  0  0  0  0  0
  152.7236  144.5483  160.8272 H   0  0  0  0  0  0  0  0  0  0  0  0
  150.3512  143.1422  159.5664 H   0  0  0  0  0  0  0  0  0  0  0  0
  150.3186  144.3436  160.8652 H   0  0  0  0  0  0  0  0  0  0  0  0
  149.9685  145.2077  158.3524 H   0  0  0  0  0  0  0  0  0  0  0  0
  151.1105  146.0862  159.3779 H   0  0  0  0  0  0  0  0  0  0  0  0
  153.8757  144.3216  158.7677 H   0  0  0  0  0  0  0  0  0  0  0  0
  152.8969  142.9451  158.2573 H   0  0  0  0  0  0  0  0  0  0  0  0
  145.2322  136.6415  157.7278 H   0  0  0  0  0  0  0  0  0  0  0  0
  146.3580  135.4429  157.0845 H   0  0  0  0  0  0  0  0  0  0  0  0
  146.4257  137.1185  156.5290 H   0  0  0  0  0  0  0  0  0  0  0  0
  146.7164  134.9857  159.3886 H   0  0  0  0  0  0  0  0  0  0  0  0
  146.0949  136.4013  160.2243 H   0  0  0  0  0  0  0  0  0  0  0  0
  1  2  1  0  0  0  0
  1 32  1  0  0  0  0
  1 33  1  0  0  0  0
  1 34  1  0  0  0  0
  2  3  1  0  0  0  0
  3 30  1  0  0  0  0
  3 29  1  0  0  0  0
  3  4  1  0  0  0  0
  4  5  1  0  0  0  0
  4 35  1  0  0  0  0
  4 36  1  0  0  0  0
  5 31  1  0  0  0  0
  5  6  1  0  0  0  0
  5 27  1  0  0  0  0
  6  7  1  0  0  0  0
  6 37  1  0  0  0  0
  6 38  1  0  0  0  0
  7  8  1  0  0  0  0
  7  9  1  0  0  0  0
  8 39  1  0  0  0  0
  8 40  1  0  0  0  0
  8 41  1  0  0  0  0
  9 14  1  0  0  0  0
  9 10  2  0  0  0  0
 10 11  1  0  0  0  0
 11 12  2  0  0  0  0
 11 42  1  0  0  0  0
 12 13  1  0  0  0  0
 13 17  1  0  0  0  0
 13 14  2  0  0  0  0
 14 15  1  0  0  0  0
 15 16  2  0  0  0  0
 16 17  1  0  0  0  0
 16 43  1  0  0  0  0
 17 18  1  0  0  0  0
 18 19  1  0  0  0  0
 18 44  1  0  0  0  0
 18 45  1  0  0  0  0
 19 20  1  0  0  0  0
 19 22  1  0  0  0  0
 19 46  1  0  0  0  0
 20 21  1  0  0  0  0
 20 47  1  0  0  0  0
 20 48  1  0  0  0  0
 21 49  1  0  0  0  0
 22 26  1  0  0  0  0
 22 23  1  0  0  0  0
 22 50  1  0  0  0  0
 23 24  1  0  0  0  0
 23 51  1  0  0  0  0
 23 52  1  0  0  0  0
 24 25  1  0  0  0  0
 24 53  1  0  0  0  0
 24 54  1  0  0  0  0
 25 26  1  0  0  0  0
 26 55  1  0  0  0  0
 26 56  1  0  0  0  0
 27 28  1  0  0  0  0
 27 29  1  0  0  0  0
 28 57  1  0  0  0  0
 28 58  1  0  0  0  0
 28 59  1  0  0  0  0
 29 60  1  0  0  0  0
 29 61  1  0  0  0  0
M  END
> <s_m_source_file>
AV-unprocessed.smi

> <i_m_source_file_index>
21

> <i_lp_mmshare_version>
43012

> <i_f3d_flags>
0

> <s_epik_input>
W0NIM11PW0NASF0xW0NIMl1bQ0BIXShOKFtDSDNdKVtDSDJdMSlbQ0gyXU4oW0NIM10pYyhuW2NIXW4yKWMoYzIzKW5bY0hdbjNbQ0gyXVtDQEhdKFtDSDJdW09IXSlbQ0BASF00W0NIMl1bQ0gyXU9bQ0gyXTQ=

> <s_epik_cmdline>
J2VwaWtfcHl0aG9uJywgJy1waCcsICc3LjAnLCAnLXRuJywgJzgnLCAnLW1hJywgJzIwMCcsICctbWV0YWxfYmluZGluZycsICctaW1hZScsICc8aW5maWxlLm1hZT4nLCAnLW9tYWUnLCAnPG91dGZpbGUubWFlPic=

> <r_lp_tautomer_probability>
1

> <r_epik_Ionization_Penalty>
2.17574

> <r_epik_Ionization_Penalty_Charging>
0

> <r_epik_Ionization_Penalty_Neutral>
2.17574

> <r_epik_State_Penalty>
2.31336

> <r_epik_Charging_Adjusted_Penalty>
2.31336

> <i_epik_Tot_Q>
0

> <i_epik_Tot_abs_Q>
0

> <r_epik_Metal_State_Penalty>
2.31025

> <b_epik_Metal_Only>
0

> <s_lp_Force_Field>
OPLS_2005

> <r_lp_Energy>
69.8382

> <b_lp_Chiralities_Consistent>
1

> <s_lp_Variant>
AV-unprocessed.smi:21-40

> <Gold.Version>
5.8.1

> <Gold.Id.Protein>
6NUR|6NUR_protein|mol2

> <Gold.PLP.Fitness>
52.7586

> <Gold.PLP.PLP>
-48.7952

> <Gold.PLP.part.hbond>
-4.0000

> <Gold.PLP.part.metal>
0.0000

> <Gold.PLP.part.buried>
-7.9456

> <Gold.PLP.part.nonpolar>
-36.0038

> <Gold.PLP.part.repulsive>
0.0762

> <Gold.PLP.ligand.clash>
0.0000

> <Gold.PLP.ligand.torsion>
2.5600

> <Gold.PLP.Chemscore.Hbond>
2.7680

> <Gold.PLP.Chemscore.CHOScore>
0.0000

> <Gold.PLP.Chemscore.Metal>
0.0000

> <Gold.Chemscore.Hbonds>
donor molecule, donor type, donor heavy atom, donor atom, acceptor molecule, acceptor atom, score
      P1  H  6931  6943       L1     2  1.00
      P1  H  7997  8009       L1    12  1.00

> <Gold.PLP.Chemscore.Internal.Correction>
0.7794

> <Gold.Rescore>
     Score         DG    S(hbond)    S(metal)    S(lipo)     H(rot)  DE(clash)    DE(int)     intcor
     11.54     -15.65       1.36        0.00     113.70       3.00       0.42       3.68       ----

> <Gold.Chemscore.Fitness>
11.5442

> <Gold.Chemscore.DG>
-15.6453

> <Gold.Chemscore.ZeroCoef>
-5.4800

> <Gold.Chemscore.Hbond>
1.3624

> <Gold.Chemscore.Metal>
0.0000

> <Gold.Chemscore.Lipo>
113.7001

> <Gold.Chemscore.Internal_Hbond>
0.0000

> <Gold.Chemscore.DEClash>
0.4173

> <Gold.Chemscore.DEInternal>
3.6837

> <Gold.Chemscore.Rot>
3.0031

> <Gold.Chemscore.Internal.Correction>
   9.000000E+99

> <Gold.Chemscore.Hbonds>
donor molecule, donor type, donor heavy atom, donor atom, acceptor molecule, acceptor atom, score
      P1  H  6931  6943       L1     2  0.98
      P1  H  6934  6947       L1     2  0.02
      P1  H  7997  8009       L1    12  0.10

> <Gold.Chemscore.Hbond.Weighted>
-4.5503

> <Gold.Chemscore.Metal.Weighted>
-0.0000

> <Gold.Chemscore.Lipo.Weighted>
-13.3029

> <Gold.Chemscore.Internal_Hbond.Weighted>
0.0000

> <Gold.Chemscore.DEClash.Weighted>
0.4173

> <Gold.Chemscore.DEInternal.Weighted>
3.6837

> <Gold.Chemscore.Rot.Weighted>
7.6880

> <Gold.Chemscore.Internal.Correction.Weighted>
   9.000000E+99

> <Gold.Protein.RotatedTorsions>
[ 6907 6896 6895 6894 ] final  132.21 input  -60.11 | X-H torsion
[ 7974 7965 7964 7962 ] final   41.07 input  175.53 | X-H torsion
[ 8008 7997 7996 7995 ] final  136.30 input   59.86 | X-H torsion
[ 10167 10162 10161 10158 ] final -166.82 input  -65.29 | X-H torsion
[ 10718 10713 10712 10709 ] final   23.54 input   66.30 | X-H torsion
[ 10763 10752 10751 10750 ] final  -15.05 input  -60.55 | X-H torsion
[ 11005 11000 10999 10996 ] final -139.95 input  -57.11 | X-H torsion

> <Gold.Protein.ActiveResidues>
 VAL166  LYS551  ARG553  GLY616  TRP617  ASP618  TYR619  PRO620  LYS621  CYS622 
 ASP623  PHE694  ASN695  SER759  ASP760  ASP761  ALA762  ILE779  LEU786  VAL792 
 PHE793  MET794  SER795  GLU796  ALA797  LYS798  CYS799  TRP800  GLU811  SER814 

> <Gold.Protein.RotatedAtoms>
  152.3347  133.5998  159.5834 H   0  0  0  0  0  0  0  0  0  0  0  0  # atno 6907 bound_to 6896
  150.7443  133.9813  159.3586 H   0  0  0  0  0  0  0  0  0  0  0  0  # atno 6908 bound_to 6896
  151.7684  135.0793  160.0407 H   0  0  0  0  0  0  0  0  0  0  0  0  # atno 6909 bound_to 6896
  146.0854  139.5459  142.9510 H   0  0  0  0  0  0  0  0  0  0  0  0  # atno 7974 bound_to 7965
  156.3004  140.2448  156.3723 H   0  0  0  0  0  0  0  0  0  0  0  0  # atno 8008 bound_to 7997
  154.8778  140.0413  157.1783 H   0  0  0  0  0  0  0  0  0  0  0  0  # atno 8009 bound_to 7997
  154.8728  140.2937  155.5475 H   0  0  0  0  0  0  0  0  0  0  0  0  # atno 8010 bound_to 7997
  139.6089  144.0855  152.1822 H   0  0  0  0  0  0  0  0  0  0  0  0  # atno 10167 bound_to 10162
  157.1675  130.6744  149.6066 H   0  0  0  0  0  0  0  0  0  0  0  0  # atno 10718 bound_to 10713
  153.5375  135.7014  153.5653 H   0  0  0  0  0  0  0  0  0  0  0  0  # atno 10763 bound_to 10752
  153.3633  135.3964  155.1734 H   0  0  0  0  0  0  0  0  0  0  0  0  # atno 10764 bound_to 10752
  154.8677  135.3794  154.4877 H   0  0  0  0  0  0  0  0  0  0  0  0  # atno 10765 bound_to 10752
  140.8470  134.2332  157.4780 H   0  0  0  0  0  0  0  0  0  0  0  0  # atno 11005 bound_to 11000
  145.6140  141.0334  143.1951 LP  0  0  0  0  0  0  0  0  0  0  0  0  # atno 17320 bound_to 7965
  144.7322  139.7692  143.7343 LP  0  0  0  0  0  0  0  0  0  0  0  0  # atno 17321 bound_to 7965
  140.0469  144.5963  150.7367 LP  0  0  0  0  0  0  0  0  0  0  0  0  # atno 17342 bound_to 10162
  140.7305  143.2684  151.3968 LP  0  0  0  0  0  0  0  0  0  0  0  0  # atno 17343 bound_to 10162
  155.9743  130.4690  150.6381 LP  0  0  0  0  0  0  0  0  0  0  0  0  # atno 17370 bound_to 10713
  157.4075  131.0819  151.1252 LP  0  0  0  0  0  0  0  0  0  0  0  0  # atno 17371 bound_to 10713
  139.8703  134.9664  156.4562 LP  0  0  0  0  0  0  0  0  0  0  0  0  # atno 17394 bound_to 11000
  140.8832  133.7902  155.9490 LP  0  0  0  0  0  0  0  0  0  0  0  0  # atno 17395 bound_to 11000

$$$$
