AV-unprocessed.smi:1047|AV-procd|sdf|4601|dock6
  -GOLD-   22720 3 93D 1   1.00000     0.00000
 Structure written by MMmdl.
 57 59  0  0  0  0  0  0  0  0  3 V2000
  145.1342  133.6015  162.2531 C   0  0  0  0  0  0  0  0  0  0  0  0
  145.8233  134.2628  161.0507 C   0  0  0  0  0  0  0  0  0  0  0  0
  147.3068  134.2113  161.1445 N   0  3  2  0  0  0  0  0  0  0  0  0
  147.8337  134.6778  162.4502 C   0  0  0  0  0  0  0  0  0  0  0  0
  147.8310  136.2146  162.5342 C   0  0  0  0  0  0  0  0  0  0  0  0
  148.5794  136.7508  161.4493 O   0  0  0  0  0  0  0  0  0  0  0  0
  148.0221  136.4173  160.1826 C   0  0  1  0  0  0  0  0  0  0  0  0
  148.8676  137.1118  159.1040 C   0  0  0  0  0  0  0  0  0  0  0  0
  150.2288  136.5853  159.0781 N   0  0  0  0  0  0  0  0  0  0  0  0
  150.9605  136.9233  157.8616 C   0  0  0  0  0  0  0  0  0  0  0  0
  151.6921  138.2683  158.0026 C   0  0  1  0  0  0  0  0  0  0  0  0
  152.9704  138.0102  158.5461 O   0  0  0  0  0  0  0  0  0  0  0  0
  151.8429  139.0101  156.6574 C   0  0  0  0  0  0  0  0  0  0  0  0
  151.2886  140.3710  156.6937 N   0  0  0  0  0  0  0  0  0  0  0  0
  150.4097  140.9704  155.8456 C   0  0  0  0  0  0  0  0  0  0  0  0
  150.2022  142.2380  156.2966 N   0  3  0  0  0  0  0  0  0  0  0  0
  150.9565  142.4505  157.4526 C   0  0  0  0  0  0  0  0  0  0  0  0
  151.0744  143.5697  158.2681 C   0  0  0  0  0  0  0  0  0  0  0  0
  151.9321  143.4655  159.3861 C   0  0  0  0  0  0  0  0  0  0  0  0
  152.0837  144.6707  160.2984 C   0  0  0  0  0  0  0  0  0  0  0  0
  152.6383  142.2644  159.6549 C   0  0  0  0  0  0  0  0  0  0  0  0
  153.5569  142.1629  160.8609 C   0  0  0  0  0  0  0  0  0  0  0  0
  152.5053  141.1374  158.8126 C   0  0  0  0  0  0  0  0  0  0  0  0
  151.6565  141.2565  157.7142 C   0  0  0  0  0  0  0  0  0  0  0  0
  148.0270  134.8783  160.0297 C   0  0  0  0  0  0  0  0  0  0  0  0
  144.0551  133.7497  162.2036 H   0  0  0  0  0  0  0  0  0  0  0  0
  145.4828  134.0309  163.1929 H   0  0  0  0  0  0  0  0  0  0  0  0
  145.3089  132.5264  162.2873 H   0  0  0  0  0  0  0  0  0  0  0  0
  145.4740  133.8159  160.1200 H   0  0  0  0  0  0  0  0  0  0  0  0
  145.5078  135.3066  161.0241 H   0  0  0  0  0  0  0  0  0  0  0  0
  147.2680  134.2419  163.2745 H   0  0  0  0  0  0  0  0  0  0  0  0
  148.8568  134.3146  162.5566 H   0  0  0  0  0  0  0  0  0  0  0  0
  146.8148  136.6114  162.5270 H   0  0  0  0  0  0  0  0  0  0  0  0
  148.2892  136.5372  163.4693 H   0  0  0  0  0  0  0  0  0  0  0  0
  147.0046  136.8088  160.1349 H   0  0  0  0  0  0  0  0  0  0  0  0
  148.4029  136.9534  158.1301 H   0  0  0  0  0  0  0  0  0  0  0  0
  148.8760  138.1896  159.2715 H   0  0  0  0  0  0  0  0  0  0  0  0
  150.2069  135.5766  159.1909 H   0  0  0  0  0  0  0  0  0  0  0  0
  151.6886  136.1386  157.6494 H   0  0  0  0  0  0  0  0  0  0  0  0
  150.2816  136.9559  157.0084 H   0  0  0  0  0  0  0  0  0  0  0  0
  151.1574  138.9016  158.7119 H   0  0  0  0  0  0  0  0  0  0  0  0
  153.6141  138.1073  157.8613 H   0  0  0  0  0  0  0  0  0  0  0  0
  152.8845  139.0495  156.3385 H   0  0  0  0  0  0  0  0  0  0  0  0
  151.3072  138.4744  155.8729 H   0  0  0  0  0  0  0  0  0  0  0  0
  149.9582  140.5220  154.9724 H   0  0  0  0  0  0  0  0  0  0  0  0
  150.5321  144.4799  158.0576 H   0  0  0  0  0  0  0  0  0  0  0  0
  153.1215  145.0043  160.3223 H   0  0  0  0  0  0  0  0  0  0  0  0
  151.7746  144.4241  161.3146 H   0  0  0  0  0  0  0  0  0  0  0  0
  151.4724  145.5075  159.9587 H   0  0  0  0  0  0  0  0  0  0  0  0
  154.0190  141.1775  160.9290 H   0  0  0  0  0  0  0  0  0  0  0  0
  153.0000  142.3333  161.7824 H   0  0  0  0  0  0  0  0  0  0  0  0
  154.3561  142.9018  160.7962 H   0  0  0  0  0  0  0  0  0  0  0  0
  153.0412  140.2240  159.0224 H   0  0  0  0  0  0  0  0  0  0  0  0
  149.0574  134.5201  160.0358 H   0  0  0  0  0  0  0  0  0  0  0  0
  147.6147  134.5813  159.0665 H   0  0  0  0  0  0  0  0  0  0  0  0
  147.5384  133.2295  161.0894 H   0  0  0  0  0  0  0  0  0  0  0  0
  149.5901  142.9066  155.8469 H   0  0  0  0  0  0  0  0  0  0  0  0
  1  2  1  0  0  0  0
  1 26  1  0  0  0  0
  1 27  1  0  0  0  0
  1 28  1  0  0  0  0
  2  3  1  0  0  0  0
  2 29  1  0  0  0  0
  2 30  1  0  0  0  0
  3 25  1  0  0  0  0
  3  4  1  0  0  0  0
  3 56  1  0  0  0  0
  4  5  1  0  0  0  0
  4 31  1  0  0  0  0
  4 32  1  0  0  0  0
  5  6  1  0  0  0  0
  5 33  1  0  0  0  0
  5 34  1  0  0  0  0
  6  7  1  0  0  0  0
  7  8  1  0  0  0  0
  7 25  1  0  0  0  0
  7 35  1  0  0  0  0
  8  9  1  0  0  0  0
  8 36  1  0  0  0  0
  8 37  1  0  0  0  0
  9 10  1  0  0  0  0
  9 38  1  0  0  0  0
 10 11  1  0  0  0  0
 10 39  1  0  0  0  0
 10 40  1  0  0  0  0
 11 12  1  0  0  0  0
 11 13  1  0  0  0  0
 11 41  1  0  0  0  0
 12 42  1  0  0  0  0
 13 14  1  0  0  0  0
 13 43  1  0  0  0  0
 13 44  1  0  0  0  0
 14 24  1  0  0  0  0
 14 15  1  0  0  0  0
 15 16  2  0  0  0  0
 15 45  1  0  0  0  0
 16 17  1  0  0  0  0
 16 57  1  0  0  0  0
 17 24  2  0  0  0  0
 17 18  1  0  0  0  0
 18 19  2  0  0  0  0
 18 46  1  0  0  0  0
 19 20  1  0  0  0  0
 19 21  1  0  0  0  0
 20 47  1  0  0  0  0
 20 48  1  0  0  0  0
 20 49  1  0  0  0  0
 21 22  1  0  0  0  0
 21 23  2  0  0  0  0
 22 50  1  0  0  0  0
 22 51  1  0  0  0  0
 22 52  1  0  0  0  0
 23 24  1  0  0  0  0
 23 53  1  0  0  0  0
 25 54  1  0  0  0  0
 25 55  1  0  0  0  0
M  CHG  1   3   1
M  CHG  1  16   1
M  END
> <s_m_source_file>
AV-unprocessed.smi

> <i_m_source_file_index>
1047

> <i_lp_mmshare_version>
43012

> <i_f3d_flags>
0

> <s_epik_input>
W0NIM11bQ0gyXU4xW0NIMl1bQ0gyXU9bQ0BIXShbQ0gyXTEpW0NIMl1bTkhdW0NIMl1bQ0BIXShbT0hdKVtDSDJdbihbY0hdbjIpYyhjMjMpW2NIXWMoW0NIM10pYyhbY0hdMylbQ0gzXQ==

> <s_epik_cmdline>
J2VwaWtfcHl0aG9uJywgJy1waCcsICc3LjAnLCAnLXRuJywgJzgnLCAnLW1hJywgJzIwMCcsICctbWV0YWxfYmluZGluZycsICctaW1hZScsICc8aW5maWxlLm1hZT4nLCAnLW9tYWUnLCAnPG91dGZpbGUubWFlPic=

> <r_epik_Ionization_Penalty>
2.03028

> <r_epik_Ionization_Penalty_Charging>
1.21256

> <r_epik_Ionization_Penalty_Neutral>
0.817715

> <r_epik_State_Penalty>
2.54959

> <r_epik_Charging_Adjusted_Penalty>
3.76215

> <i_epik_Tot_Q>
2

> <i_epik_Tot_abs_Q>
2

> <r_epik_Metal_State_Penalty>
6.52811

> <b_epik_Metal_Only>
0

> <s_lp_Force_Field>
OPLS_2005

> <r_lp_Energy>
33.7029

> <b_lp_Chiralities_Consistent>
1

> <s_lp_Variant>
AV-unprocessed.smi:1047-42

> <Gold.Version>
5.8.1

> <Gold.Id.Protein>
6NUR|6NUR_protein|mol2

> <Gold.PLP.Fitness>
58.2014

> <Gold.PLP.PLP>
-52.0202

> <Gold.PLP.part.hbond>
-3.2926

> <Gold.PLP.part.metal>
0.0000

> <Gold.PLP.part.buried>
-7.8215

> <Gold.PLP.part.nonpolar>
-41.0820

> <Gold.PLP.part.repulsive>
0.1261

> <Gold.PLP.ligand.clash>
0.0000

> <Gold.PLP.ligand.torsion>
1.4531

> <Gold.PLP.Chemscore.Hbond>
3.0000

> <Gold.PLP.Chemscore.CHOScore>
0.0000

> <Gold.PLP.Chemscore.Metal>
0.0000

> <Gold.Chemscore.Hbonds>
donor molecule, donor type, donor heavy atom, donor atom, acceptor molecule, acceptor atom, score
      L1  H    16    57       P1  8028  2.00
      P1  H  6931  6943       L1     6  1.00

> <Gold.PLP.Chemscore.Internal.Correction>
0.0874

> <Gold.Rescore>
     Score         DG    S(hbond)    S(metal)    S(lipo)     H(rot)  DE(clash)    DE(int)     intcor
     19.57     -21.01       1.89        0.00     138.00       2.71       0.03       1.41       ----

> <Gold.Chemscore.Fitness>
19.5743

> <Gold.Chemscore.DG>
-21.0096

> <Gold.Chemscore.ZeroCoef>
-5.4800

> <Gold.Chemscore.Hbond>
1.8916

> <Gold.Chemscore.Metal>
0.0000

> <Gold.Chemscore.Lipo>
138.0033

> <Gold.Chemscore.Internal_Hbond>
0.0000

> <Gold.Chemscore.DEClash>
0.0297

> <Gold.Chemscore.DEInternal>
1.4056

> <Gold.Chemscore.Rot>
2.7088

> <Gold.Chemscore.Internal.Correction>
   9.000000E+99

> <Gold.Chemscore.Hbonds>
donor molecule, donor type, donor heavy atom, donor atom, acceptor molecule, acceptor atom, score
      L1  H    16    57       P1  8028  0.94
      P1  H  6931  6943       L1     6  0.55

> <Gold.Chemscore.Hbond.Weighted>
-6.3178

> <Gold.Chemscore.Metal.Weighted>
-0.0000

> <Gold.Chemscore.Lipo.Weighted>
-16.1464

> <Gold.Chemscore.Internal_Hbond.Weighted>
0.0000

> <Gold.Chemscore.DEClash.Weighted>
0.0297

> <Gold.Chemscore.DEInternal.Weighted>
1.4056

> <Gold.Chemscore.Rot.Weighted>
6.9346

> <Gold.Chemscore.Internal.Correction.Weighted>
   9.000000E+99

> <Gold.Protein.RotatedTorsions>
[ 6907 6896 6895 6894 ] final -179.33 input  -60.11 | X-H torsion
[ 7974 7965 7964 7962 ] final   11.58 input  175.53 | X-H torsion
[ 8008 7997 7996 7995 ] final   89.06 input   59.86 | X-H torsion
[ 10167 10162 10161 10158 ] final   84.97 input  -65.29 | X-H torsion
[ 10718 10713 10712 10709 ] final  113.70 input   66.30 | X-H torsion
[ 10763 10752 10751 10750 ] final  -85.11 input  -60.55 | X-H torsion
[ 11005 11000 10999 10996 ] final  -18.59 input  -57.11 | X-H torsion

> <Gold.Protein.ActiveResidues>
 VAL166  LYS551  ARG553  GLY616  TRP617  ASP618  TYR619  PRO620  LYS621  CYS622 
 ASP623  PHE694  ASN695  SER759  ASP760  ASP761  ALA762  ILE779  LEU786  VAL792 
 PHE793  MET794  SER795  GLU796  ALA797  LYS798  CYS799  TRP800  GLU811  SER814 

> <Gold.Protein.RotatedAtoms>
  151.6517  133.3320  159.3153 H   0  0  0  0  0  0  0  0  0  0  0  0  # atno 6907 bound_to 6896
  150.7957  134.7018  159.6564 H   0  0  0  0  0  0  0  0  0  0  0  0  # atno 6908 bound_to 6896
  152.4043  134.6237  160.0109 H   0  0  0  0  0  0  0  0  0  0  0  0  # atno 6909 bound_to 6896
  146.2368  139.9464  142.8476 H   0  0  0  0  0  0  0  0  0  0  0  0  # atno 7974 bound_to 7965
  155.9954  140.3365  155.6794 H   0  0  0  0  0  0  0  0  0  0  0  0  # atno 8008 bound_to 7997
  155.6363  140.0690  157.2651 H   0  0  0  0  0  0  0  0  0  0  0  0  # atno 8009 bound_to 7997
  154.4232  140.1750  156.1513 H   0  0  0  0  0  0  0  0  0  0  0  0  # atno 8010 bound_to 7997
  139.9026  144.6320  150.8621 H   0  0  0  0  0  0  0  0  0  0  0  0  # atno 10167 bound_to 10162
  157.6323  131.0987  150.7079 H   0  0  0  0  0  0  0  0  0  0  0  0  # atno 10718 bound_to 10713
  154.6073  135.5496  153.7436 H   0  0  0  0  0  0  0  0  0  0  0  0  # atno 10763 bound_to 10752
  153.0180  135.6381  154.1629 H   0  0  0  0  0  0  0  0  0  0  0  0  # atno 10764 bound_to 10752
  154.1567  135.2899  155.3100 H   0  0  0  0  0  0  0  0  0  0  0  0  # atno 10765 bound_to 10752
  140.8283  133.8016  155.9731 H   0  0  0  0  0  0  0  0  0  0  0  0  # atno 11005 bound_to 11000
  145.1903  140.9808  143.4215 LP  0  0  0  0  0  0  0  0  0  0  0  0  # atno 17320 bound_to 7965
  144.9863  139.3733  143.6237 LP  0  0  0  0  0  0  0  0  0  0  0  0  # atno 17321 bound_to 7965
  140.7703  143.3425  151.2178 LP  0  0  0  0  0  0  0  0  0  0  0  0  # atno 17342 bound_to 10162
  139.7012  143.9529  152.2906 LP  0  0  0  0  0  0  0  0  0  0  0  0  # atno 17343 bound_to 10162
  156.7416  130.4741  149.5476 LP  0  0  0  0  0  0  0  0  0  0  0  0  # atno 17370 bound_to 10713
  156.1536  130.6326  151.0627 LP  0  0  0  0  0  0  0  0  0  0  0  0  # atno 17371 bound_to 10713
  140.9025  134.2360  157.5033 LP  0  0  0  0  0  0  0  0  0  0  0  0  # atno 17394 bound_to 11000
  139.8706  134.9713  156.4733 LP  0  0  0  0  0  0  0  0  0  0  0  0  # atno 17395 bound_to 11000

$$$$
