AV-unprocessed.smi:1410|AV-procd|sdf|5730|dock3
  -GOLD-   22720 5363D 1   1.00000     0.00000
 Structure written by MMmdl.
 40 41  0  0  0  0  0  0  0  0  2 V2000
  144.7755  138.1525  152.9761 N   0  0  0  0  0  0  0  0  0  0  0  0
  145.8397  137.7081  152.3040 C   0  0  0  0  0  0  0  0  0  0  0  0
  146.1319  136.5146  152.2543 O   0  0  0  0  0  0  0  0  0  0  0  0
  146.6830  138.7564  151.5704 C   0  0  0  0  0  0  0  0  0  0  0  0
  147.3912  139.6793  152.4943 N   0  3  2  0  0  0  0  0  0  0  0  0
  148.2106  138.9701  153.5134 C   0  0  0  0  0  0  0  0  0  0  0  0
  149.0372  139.9629  154.3467 C   0  0  0  0  0  0  0  0  0  0  0  0
  148.1339  141.0096  155.0183 C   0  0  1  0  0  0  0  0  0  0  0  0
  148.9526  141.9863  155.7308 N   0  0  0  0  0  0  0  0  0  0  0  0
  149.7892  141.7021  156.7396 C   0  0  0  0  0  0  0  0  0  0  0  0
  149.9452  140.5668  157.1888 O   0  0  0  0  0  0  0  0  0  0  0  0
  150.4000  142.8114  157.1913 N   0  0  0  0  0  0  0  0  0  0  0  0
  151.3723  142.9335  158.2209 C   0  0  0  0  0  0  0  0  0  0  0  0
  151.5931  144.2148  158.7670 C   0  0  0  0  0  0  0  0  0  0  0  0
  152.5654  144.3646  159.7760 C   0  0  0  0  0  0  0  0  0  0  0  0
  153.3103  143.3423  160.2458 N   0  0  0  0  0  0  0  0  0  0  0  0
  153.1079  142.1192  159.7119 C   0  0  0  0  0  0  0  0  0  0  0  0
  152.1612  141.8602  158.7006 C   0  0  0  0  0  0  0  0  0  0  0  0
  147.2607  141.6976  153.9526 C   0  0  0  0  0  0  0  0  0  0  0  0
  146.4775  140.6670  153.1223 C   0  0  0  0  0  0  0  0  0  0  0  0
  144.1889  137.4974  153.4734 H   0  0  0  0  0  0  0  0  0  0  0  0
  144.5552  139.1381  152.9870 H   0  0  0  0  0  0  0  0  0  0  0  0
  147.4108  138.2062  150.9723 H   0  0  0  0  0  0  0  0  0  0  0  0
  146.0681  139.3252  150.8707 H   0  0  0  0  0  0  0  0  0  0  0  0
  147.5579  138.3866  154.1647 H   0  0  0  0  0  0  0  0  0  0  0  0
  148.8853  138.2630  153.0300 H   0  0  0  0  0  0  0  0  0  0  0  0
  149.6090  139.4220  155.1020 H   0  0  0  0  0  0  0  0  0  0  0  0
  149.7657  140.4568  153.7017 H   0  0  0  0  0  0  0  0  0  0  0  0
  147.4874  140.4954  155.7324 H   0  0  0  0  0  0  0  0  0  0  0  0
  148.8818  142.9476  155.4299 H   0  0  0  0  0  0  0  0  0  0  0  0
  150.1011  143.6823  156.7773 H   0  0  0  0  0  0  0  0  0  0  0  0
  151.0276  145.0701  158.4269 H   0  0  0  0  0  0  0  0  0  0  0  0
  152.7508  145.3333  160.2159 H   0  0  0  0  0  0  0  0  0  0  0  0
  153.7247  141.3215  160.0980 H   0  0  0  0  0  0  0  0  0  0  0  0
  152.0718  140.8582  158.3107 H   0  0  0  0  0  0  0  0  0  0  0  0
  146.5634  142.3909  154.4246 H   0  0  0  0  0  0  0  0  0  0  0  0
  147.8877  142.2946  153.2886 H   0  0  0  0  0  0  0  0  0  0  0  0
  145.9112  141.1888  152.3500 H   0  0  0  0  0  0  0  0  0  0  0  0
  145.7531  140.1467  153.7511 H   0  0  0  0  0  0  0  0  0  0  0  0
  148.0307  140.2100  151.9196 H   0  0  0  0  0  0  0  0  0  0  0  0
  1  2  1  0  0  0  0
  1 21  1  0  0  0  0
  1 22  1  0  0  0  0
  2  3  2  0  0  0  0
  2  4  1  0  0  0  0
  4  5  1  0  0  0  0
  4 23  1  0  0  0  0
  4 24  1  0  0  0  0
  5 20  1  0  0  0  0
  5  6  1  0  0  0  0
  5 40  1  0  0  0  0
  6  7  1  0  0  0  0
  6 25  1  0  0  0  0
  6 26  1  0  0  0  0
  7  8  1  0  0  0  0
  7 27  1  0  0  0  0
  7 28  1  0  0  0  0
  8  9  1  0  0  0  0
  8 19  1  0  0  0  0
  8 29  1  0  0  0  0
  9 10  1  0  0  0  0
  9 30  1  0  0  0  0
 10 11  2  0  0  0  0
 10 12  1  0  0  0  0
 12 13  1  0  0  0  0
 12 31  1  0  0  0  0
 13 18  1  0  0  0  0
 13 14  2  0  0  0  0
 14 15  1  0  0  0  0
 14 32  1  0  0  0  0
 15 16  2  0  0  0  0
 15 33  1  0  0  0  0
 16 17  1  0  0  0  0
 17 18  2  0  0  0  0
 17 34  1  0  0  0  0
 18 35  1  0  0  0  0
 19 20  1  0  0  0  0
 19 36  1  0  0  0  0
 19 37  1  0  0  0  0
 20 38  1  0  0  0  0
 20 39  1  0  0  0  0
M  CHG  1   5   1
M  END
> <s_m_source_file>
AV-unprocessed.smi

> <i_m_source_file_index>
1410

> <i_lp_mmshare_version>
43012

> <i_f3d_flags>
0

> <s_epik_input>
W05IMl1DKD1PKVtDSDJdTjFbQ0gyXVtDSDJdW0NIXShbQ0gyXVtDSDJdMSlbTkhdQyg9TylbTkhdYzJbY0hdW2NIXW5bY0hdW2NIXTI=

> <s_epik_cmdline>
J2VwaWtfcHl0aG9uJywgJy1waCcsICc3LjAnLCAnLXRuJywgJzgnLCAnLW1hJywgJzIwMCcsICctbWV0YWxfYmluZGluZycsICctaW1hZScsICc8aW5maWxlLm1hZT4nLCAnLW9tYWUnLCAnPG91dGZpbGUubWFlPic=

> <r_epik_Ionization_Penalty>
0.938358

> <r_epik_Ionization_Penalty_Charging>
0.838844

> <r_epik_Ionization_Penalty_Neutral>
0.0995144

> <r_epik_State_Penalty>
0.957795

> <r_epik_Charging_Adjusted_Penalty>
1.79664

> <i_epik_Tot_Q>
1

> <i_epik_Tot_abs_Q>
1

> <r_epik_Metal_State_Penalty>
0.97276

> <b_epik_Metal_Only>
0

> <s_lp_Force_Field>
OPLS_2005

> <r_lp_Energy>
17.3232

> <b_lp_Chiralities_Consistent>
1

> <s_lp_Variant>
AV-unprocessed.smi:1410-2

> <Gold.Version>
5.8.1

> <Gold.Id.Protein>
6NUR|6NUR_protein|mol2

> <Gold.PLP.Fitness>
48.1191

> <Gold.PLP.PLP>
-36.5621

> <Gold.PLP.part.hbond>
-4.2198

> <Gold.PLP.part.metal>
0.0000

> <Gold.PLP.part.buried>
0.2079

> <Gold.PLP.part.nonpolar>
-33.8248

> <Gold.PLP.part.repulsive>
1.8326

> <Gold.PLP.ligand.clash>
0.0000

> <Gold.PLP.ligand.torsion>
0.1830

> <Gold.PLP.Chemscore.Hbond>
3.9680

> <Gold.PLP.Chemscore.CHOScore>
0.0000

> <Gold.PLP.Chemscore.Metal>
0.0000

> <Gold.Chemscore.Hbonds>
donor molecule, donor type, donor heavy atom, donor atom, acceptor molecule, acceptor atom, score
      L1  H     1    22       P1 10175  1.00
      L1  H     5    40       P1  7957  0.82
      L1  H     9    30       P1  8028  1.00
      L1  H    12    31       P1  8028  1.00

> <Gold.PLP.Chemscore.Internal.Correction>
0.0190

> <Gold.Rescore>
     Score         DG    S(hbond)    S(metal)    S(lipo)     H(rot)  DE(clash)    DE(int)     intcor
     21.79     -24.12       3.62        0.00      99.09       1.96       1.05       1.28       ----

> <Gold.Chemscore.Fitness>
21.7886

> <Gold.Chemscore.DG>
-24.1219

> <Gold.Chemscore.ZeroCoef>
-5.4800

> <Gold.Chemscore.Hbond>
3.6159

> <Gold.Chemscore.Metal>
0.0000

> <Gold.Chemscore.Lipo>
99.0864

> <Gold.Chemscore.Internal_Hbond>
0.0000

> <Gold.Chemscore.DEClash>
1.0526

> <Gold.Chemscore.DEInternal>
1.2807

> <Gold.Chemscore.Rot>
1.9642

> <Gold.Chemscore.Internal.Correction>
   9.000000E+99

> <Gold.Chemscore.Hbonds>
donor molecule, donor type, donor heavy atom, donor atom, acceptor molecule, acceptor atom, score
      L1  H     1    22       P1 10175  0.95
      L1  H     5    40       P1  7957  0.80
      L1  H     9    30       P1  8028  0.99
      L1  H    12    31       P1  8028  0.96

> <Gold.Chemscore.Hbond.Weighted>
-12.0771

> <Gold.Chemscore.Metal.Weighted>
-0.0000

> <Gold.Chemscore.Lipo.Weighted>
-11.5931

> <Gold.Chemscore.Internal_Hbond.Weighted>
0.0000

> <Gold.Chemscore.DEClash.Weighted>
1.0526

> <Gold.Chemscore.DEInternal.Weighted>
1.2807

> <Gold.Chemscore.Rot.Weighted>
5.0283

> <Gold.Chemscore.Internal.Correction.Weighted>
   9.000000E+99

> <Gold.Protein.RotatedTorsions>
[ 6907 6896 6895 6894 ] final -121.03 input  -60.11 | X-H torsion
[ 7974 7965 7964 7962 ] final   60.21 input  175.53 | X-H torsion
[ 8008 7997 7996 7995 ] final  -36.64 input   59.86 | X-H torsion
[ 10167 10162 10161 10158 ] final -162.82 input  -65.29 | X-H torsion
[ 10718 10713 10712 10709 ] final  -61.88 input   66.30 | X-H torsion
[ 10763 10752 10751 10750 ] final   46.63 input  -60.55 | X-H torsion
[ 11005 11000 10999 10996 ] final  -66.43 input  -57.11 | X-H torsion

> <Gold.Protein.ActiveResidues>
 VAL166  LYS551  ARG553  GLY616  TRP617  ASP618  TYR619  PRO620  LYS621  CYS622 
 ASP623  PHE694  ASN695  SER759  ASP760  ASP761  ALA762  ILE779  LEU786  VAL792 
 PHE793  MET794  SER795  GLU796  ALA797  LYS798  CYS799  TRP800  GLU811  SER814 

> <Gold.Protein.RotatedAtoms>
  150.8446  133.7882  159.3047 H   0  0  0  0  0  0  0  0  0  0  0  0  # atno 6907 bound_to 6896
  151.5572  135.1064  159.9973 H   0  0  0  0  0  0  0  0  0  0  0  0  # atno 6908 bound_to 6896
  152.4503  133.7573  159.6783 H   0  0  0  0  0  0  0  0  0  0  0  0  # atno 6909 bound_to 6896
  145.8985  139.3564  143.0606 H   0  0  0  0  0  0  0  0  0  0  0  0  # atno 7974 bound_to 7965
  154.4069  140.1625  156.2407 H   0  0  0  0  0  0  0  0  0  0  0  0  # atno 8008 bound_to 7997
  155.9204  140.3421  155.6145 H   0  0  0  0  0  0  0  0  0  0  0  0  # atno 8009 bound_to 7997
  155.7229  140.0770  157.2313 H   0  0  0  0  0  0  0  0  0  0  0  0  # atno 8010 bound_to 7997
  139.6365  144.0341  152.2058 H   0  0  0  0  0  0  0  0  0  0  0  0  # atno 10167 bound_to 10162
  156.0892  130.4203  150.1057 H   0  0  0  0  0  0  0  0  0  0  0  0  # atno 10718 bound_to 10713
  152.9808  135.6002  154.3631 H   0  0  0  0  0  0  0  0  0  0  0  0  # atno 10763 bound_to 10752
  154.3311  135.2768  155.2473 H   0  0  0  0  0  0  0  0  0  0  0  0  # atno 10764 bound_to 10752
  154.4596  135.5969  153.6302 H   0  0  0  0  0  0  0  0  0  0  0  0  # atno 10765 bound_to 10752
  141.1482  133.6699  156.6138 H   0  0  0  0  0  0  0  0  0  0  0  0  # atno 11005 bound_to 11000
  145.8820  140.9357  143.0596 LP  0  0  0  0  0  0  0  0  0  0  0  0  # atno 17320 bound_to 7965
  144.6734  140.0792  143.7470 LP  0  0  0  0  0  0  0  0  0  0  0  0  # atno 17321 bound_to 7965
  140.0019  144.6287  150.7722 LP  0  0  0  0  0  0  0  0  0  0  0  0  # atno 17342 bound_to 10162
  140.7468  143.2896  151.3367 LP  0  0  0  0  0  0  0  0  0  0  0  0  # atno 17343 bound_to 10162
  156.9071  130.9639  151.3568 LP  0  0  0  0  0  0  0  0  0  0  0  0  # atno 17370 bound_to 10713
  157.6036  130.8530  149.8840 LP  0  0  0  0  0  0  0  0  0  0  0  0  # atno 17371 bound_to 10713
  140.3593  134.7701  157.4523 LP  0  0  0  0  0  0  0  0  0  0  0  0  # atno 17394 bound_to 11000
  140.0797  134.5747  155.8553 LP  0  0  0  0  0  0  0  0  0  0  0  0  # atno 17395 bound_to 11000

$$$$
