AV-unprocessed.smi:109|AV-procd|sdf|1055|dock1
  -GOLD-   2262018113D 1   1.00000     0.00000
 Structure written by MMmdl.
 58 61  0  0  0  0  0  0  0  0  1 V2000
  148.9951  142.0575  154.8532 O   0  0  0  0  0  0  0  0  0  0  0  0
  149.8932  141.1301  155.4230 C   0  0  0  0  0  0  0  0  0  0  0  0
  150.2788  141.5819  156.8419 C   0  0  0  0  0  0  0  0  0  0  0  0
  151.5458  140.8910  157.4029 C   0  0  2  0  0  0  0  0  0  0  0  0
  151.1623  139.6445  158.0697 N   0  0  0  0  0  0  0  0  0  0  0  0
  151.7087  138.4512  157.7457 C   0  0  0  0  0  0  0  0  0  0  0  0
  153.0459  138.2300  157.8408 N   0  0  0  0  0  0  0  0  0  0  0  0
  153.5536  137.0383  157.5125 C   0  0  0  0  0  0  0  0  0  0  0  0
  152.9148  135.9510  157.0738 N   0  0  0  0  0  0  0  0  0  0  0  0
  151.5719  136.1711  156.9738 C   0  0  0  0  0  0  0  0  0  0  0  0
  150.8965  137.3819  157.2888 C   0  0  0  0  0  0  0  0  0  0  0  0
  149.5339  137.2320  157.0653 N   0  0  0  0  0  0  0  0  0  0  0  0
  149.4168  136.0007  156.6448 C   0  0  0  0  0  0  0  0  0  0  0  0
  150.5958  135.2907  156.5626 N   0  0  0  0  0  0  0  0  0  0  0  0
  150.8190  133.8758  156.1282 C   0  0  2  0  0  0  0  0  0  0  0  0
  150.3778  133.7681  154.8072 O   0  0  0  0  0  0  0  0  0  0  0  0
  149.4203  132.7188  154.6774 C   0  0  2  0  0  0  0  0  0  0  0  0
  148.4323  133.0090  153.5338 C   0  0  0  0  0  0  0  0  0  0  0  0
  147.8321  131.8091  153.0960 O   0  0  0  0  0  0  0  0  0  0  0  0
  148.7997  132.5925  156.0757 C   0  0  2  0  0  0  0  0  0  0  0  0
  147.7442  133.5229  156.2560 O   0  0  0  0  0  0  0  0  0  0  0  0
  149.9997  132.8784  156.9693 C   0  0  2  0  0  0  0  0  0  0  0  0
  149.6414  133.3135  158.2703 O   0  0  0  0  0  0  0  0  0  0  0  0
  152.3543  141.7777  158.3933 C   0  0  0  0  0  0  0  0  0  0  0  0
  153.2080  140.9560  159.3918 C   0  0  0  0  0  0  0  0  0  0  0  0
  153.9664  141.8465  160.3900 C   0  0  0  0  0  0  0  0  0  0  0  0
  153.0137  142.7736  161.1542 C   0  0  0  0  0  0  0  0  0  0  0  0
  152.1833  143.6148  160.1783 C   0  0  0  0  0  0  0  0  0  0  0  0
  151.4171  142.7213  159.1909 C   0  0  0  0  0  0  0  0  0  0  0  0
  151.8972  133.7280  156.2002 H   0  0  0  0  0  0  0  0  0  0  0  0
  149.9652  131.7949  154.4733 H   0  0  0  0  0  0  0  0  0  0  0  0
  148.4002  131.5927  156.2491 H   0  0  0  0  0  0  0  0  0  0  0  0
  150.5979  131.9707  157.0600 H   0  0  0  0  0  0  0  0  0  0  0  0
  149.1421  142.9018  155.2515 H   0  0  0  0  0  0  0  0  0  0  0  0
  149.4164  140.1500  155.4342 H   0  0  0  0  0  0  0  0  0  0  0  0
  150.7774  141.0576  154.7893 H   0  0  0  0  0  0  0  0  0  0  0  0
  150.4326  142.6585  156.7953 H   0  0  0  0  0  0  0  0  0  0  0  0
  149.4412  141.4195  157.5216 H   0  0  0  0  0  0  0  0  0  0  0  0
  152.2079  140.6903  156.5610 H   0  0  0  0  0  0  0  0  0  0  0  0
  150.4679  139.7404  158.7967 H   0  0  0  0  0  0  0  0  0  0  0  0
  154.6244  136.9425  157.6160 H   0  0  0  0  0  0  0  0  0  0  0  0
  148.4591  135.5763  156.3811 H   0  0  0  0  0  0  0  0  0  0  0  0
  147.6322  133.6617  153.8844 H   0  0  0  0  0  0  0  0  0  0  0  0
  148.9239  133.5120  152.7004 H   0  0  0  0  0  0  0  0  0  0  0  0
  148.0157  131.6990  152.1755 H   0  0  0  0  0  0  0  0  0  0  0  0
  147.8084  134.1854  155.5855 H   0  0  0  0  0  0  0  0  0  0  0  0
  148.7111  133.1904  158.3817 H   0  0  0  0  0  0  0  0  0  0  0  0
  153.0365  142.3977  157.8091 H   0  0  0  0  0  0  0  0  0  0  0  0
  152.5688  140.2593  159.9358 H   0  0  0  0  0  0  0  0  0  0  0  0
  153.9484  140.3547  158.8671 H   0  0  0  0  0  0  0  0  0  0  0  0
  154.5217  141.2252  161.0932 H   0  0  0  0  0  0  0  0  0  0  0  0
  154.7062  142.4442  159.8559 H   0  0  0  0  0  0  0  0  0  0  0  0
  152.3508  142.1811  161.7862 H   0  0  0  0  0  0  0  0  0  0  0  0
  153.5802  143.4248  161.8208 H   0  0  0  0  0  0  0  0  0  0  0  0
  151.4830  144.2414  160.7314 H   0  0  0  0  0  0  0  0  0  0  0  0
  152.8367  144.2926  159.6276 H   0  0  0  0  0  0  0  0  0  0  0  0
  150.8512  143.3659  158.5183 H   0  0  0  0  0  0  0  0  0  0  0  0
  150.6801  142.1297  159.7356 H   0  0  0  0  0  0  0  0  0  0  0  0
  1  2  1  0  0  0  0
  1 34  1  0  0  0  0
  2  3  1  0  0  0  0
  2 35  1  0  0  0  0
  2 36  1  0  0  0  0
  3  4  1  0  0  0  0
  3 37  1  0  0  0  0
  3 38  1  0  0  0  0
  4  5  1  0  0  0  0
  4 24  1  0  0  0  0
  4 39  1  0  0  0  0
  5  6  1  0  0  0  0
  5 40  1  0  0  0  0
  6 11  1  0  0  0  0
  6  7  2  0  0  0  0
  7  8  1  0  0  0  0
  8  9  2  0  0  0  0
  8 41  1  0  0  0  0
  9 10  1  0  0  0  0
 10 14  1  0  0  0  0
 10 11  2  0  0  0  0
 11 12  1  0  0  0  0
 12 13  2  0  0  0  0
 13 14  1  0  0  0  0
 13 42  1  0  0  0  0
 14 15  1  0  0  0  0
 15 30  1  0  0  0  0
 15 22  1  0  0  0  0
 15 16  1  0  0  0  0
 16 17  1  0  0  0  0
 17 31  1  0  0  0  0
 17 18  1  0  0  0  0
 17 20  1  0  0  0  0
 18 19  1  0  0  0  0
 18 43  1  0  0  0  0
 18 44  1  0  0  0  0
 19 45  1  0  0  0  0
 20 32  1  0  0  0  0
 20 21  1  0  0  0  0
 20 22  1  0  0  0  0
 21 46  1  0  0  0  0
 22 33  1  0  0  0  0
 22 23  1  0  0  0  0
 23 47  1  0  0  0  0
 24 29  1  0  0  0  0
 24 25  1  0  0  0  0
 24 48  1  0  0  0  0
 25 26  1  0  0  0  0
 25 49  1  0  0  0  0
 25 50  1  0  0  0  0
 26 27  1  0  0  0  0
 26 51  1  0  0  0  0
 26 52  1  0  0  0  0
 27 28  1  0  0  0  0
 27 53  1  0  0  0  0
 27 54  1  0  0  0  0
 28 29  1  0  0  0  0
 28 55  1  0  0  0  0
 28 56  1  0  0  0  0
 29 57  1  0  0  0  0
 29 58  1  0  0  0  0
M  END
> <s_m_source_file>
AV-unprocessed.smi

> <i_m_source_file_index>
109

> <i_lp_mmshare_version>
43012

> <i_f3d_flags>
0

> <s_epik_input>
W0NIMl0xW0NIMl1bQ0gyXVtDSDJdW0NIMl1bQ0hdMVtDQEhdKFtDSDJdW0NIMl1bT0hdKVtOSF1jKG5bY0hdbjIpYyhjMjMpbltjSF1uM1tDQEBIXTRPW0NASF0oW0NIMl1bT0hdKVtDQEBIXShbT0hdKVtDQEhdNFtPSF0=

> <s_epik_cmdline>
J2VwaWtfcHl0aG9uJywgJy1waCcsICc3LjAnLCAnLXRuJywgJzgnLCAnLW1hJywgJzIwMCcsICctbWV0YWxfYmluZGluZycsICctaW1hZScsICc8aW5maWxlLm1hZT4nLCAnLW9tYWUnLCAnPG91dGZpbGUubWFlPic=

> <r_lp_tautomer_probability>
1

> <r_epik_Ionization_Penalty>
0.000793976

> <r_epik_Ionization_Penalty_Charging>
0

> <r_epik_Ionization_Penalty_Neutral>
0.000793976

> <r_epik_State_Penalty>
-0

> <r_epik_Charging_Adjusted_Penalty>
0

> <i_epik_Tot_Q>
0

> <i_epik_Tot_abs_Q>
0

> <r_epik_Metal_State_Penalty>
-0

> <b_epik_Metal_Only>
0

> <s_epik_Chemistry_Notes>
This compound contains an acetal/aminal-like group ( X-CH(R)-Y where X, Y are N, S, or O) that may be acid/base labile, releasing an aldehyde.

> <s_lp_Force_Field>
OPLS_2005

> <r_lp_Energy>
59.4654

> <b_lp_Chiralities_Consistent>
1

> <s_lp_Variant>
AV-unprocessed.smi:109-25

> <Gold.Version>
5.8.1

> <Gold.Id.Protein>
6NUR|6NUR_protein|mol2

> <Gold.PLP.Fitness>
50.5801

> <Gold.PLP.PLP>
-42.0338

> <Gold.PLP.part.hbond>
-5.0000

> <Gold.PLP.part.metal>
0.0000

> <Gold.PLP.part.buried>
-3.8089

> <Gold.PLP.part.nonpolar>
-32.8273

> <Gold.PLP.part.repulsive>
0.2194

> <Gold.PLP.ligand.clash>
0.0000

> <Gold.PLP.ligand.torsion>
1.9427

> <Gold.PLP.Chemscore.Hbond>
4.0146

> <Gold.PLP.Chemscore.CHOScore>
0.0000

> <Gold.PLP.Chemscore.Metal>
0.0000

> <Gold.Chemscore.Hbonds>
donor molecule, donor type, donor heavy atom, donor atom, acceptor molecule, acceptor atom, score
      L1  H     1    34       P1  8028  1.00
      L1  H    19    45       P1 10747  0.37
      P1  H  6896  6908       L1    23  1.00
      P1  H 10752 10765       L1     9  1.00

> <Gold.PLP.Chemscore.Internal.Correction>
0.3880

> <Gold.Rescore>
     Score         DG    S(hbond)    S(metal)    S(lipo)     H(rot)  DE(clash)    DE(int)     intcor
     11.56     -14.70       3.54        0.00      97.30       5.47       0.42       2.72       ----

> <Gold.Chemscore.Fitness>
11.5592

> <Gold.Chemscore.DG>
-14.6955

> <Gold.Chemscore.ZeroCoef>
-5.4800

> <Gold.Chemscore.Hbond>
3.5403

> <Gold.Chemscore.Metal>
0.0000

> <Gold.Chemscore.Lipo>
97.3011

> <Gold.Chemscore.Internal_Hbond>
0.0000

> <Gold.Chemscore.DEClash>
0.4212

> <Gold.Chemscore.DEInternal>
2.7151

> <Gold.Chemscore.Rot>
5.4662

> <Gold.Chemscore.Internal.Correction>
   9.000000E+99

> <Gold.Chemscore.Hbonds>
donor molecule, donor type, donor heavy atom, donor atom, acceptor molecule, acceptor atom, score
      L1  H     1    34       P1  8028  0.99
      L1  H    19    45       P1 10747  0.37
      P1  H  6896  6908       L1    23  0.84
      P1  H 10752 10765       L1     9  0.39

> <Gold.Chemscore.Hbond.Weighted>
-11.8248

> <Gold.Chemscore.Metal.Weighted>
-0.0000

> <Gold.Chemscore.Lipo.Weighted>
-11.3842

> <Gold.Chemscore.Internal_Hbond.Weighted>
0.0000

> <Gold.Chemscore.DEClash.Weighted>
0.4212

> <Gold.Chemscore.DEInternal.Weighted>
2.7151

> <Gold.Chemscore.Rot.Weighted>
13.9935

> <Gold.Chemscore.Internal.Correction.Weighted>
   9.000000E+99

> <Gold.Protein.RotatedTorsions>
[ 6907 6896 6895 6894 ] final  104.33 input  -60.11 | X-H torsion
[ 7974 7965 7964 7962 ] final -169.37 input  175.53 | X-H torsion
[ 8008 7997 7996 7995 ] final  141.50 input   59.86 | X-H torsion
[ 10167 10162 10161 10158 ] final -173.19 input  -65.29 | X-H torsion
[ 10718 10713 10712 10709 ] final   87.46 input   66.30 | X-H torsion
[ 10763 10752 10751 10750 ] final -129.07 input  -60.55 | X-H torsion
[ 11005 11000 10999 10996 ] final -144.46 input  -57.11 | X-H torsion

> <Gold.Protein.ActiveResidues>
 VAL166  LYS551  ARG553  GLY616  TRP617  ASP618  TYR619  PRO620  LYS621  CYS622 
 ASP623  PHE694  ASN695  SER759  ASP760  ASP761  ALA762  ILE779  LEU786  VAL792 
 PHE793  MET794  SER795  GLU796  ALA797  LYS798  CYS799  TRP800  GLU811  SER814 

> <Gold.Protein.RotatedAtoms>
  152.5267  133.9692  159.7753 H   0  0  0  0  0  0  0  0  0  0  0  0  # atno 6907 bound_to 6896
  150.9968  133.6087  159.2707 H   0  0  0  0  0  0  0  0  0  0  0  0  # atno 6908 bound_to 6896
  151.3211  135.0825  159.9359 H   0  0  0  0  0  0  0  0  0  0  0  0  # atno 6909 bound_to 6896
  144.7187  140.2232  143.6313 H   0  0  0  0  0  0  0  0  0  0  0  0  # atno 7974 bound_to 7965
  156.2964  140.2313  156.4574 H   0  0  0  0  0  0  0  0  0  0  0  0  # atno 8008 bound_to 7997
  154.8048  140.0446  157.1320 H   0  0  0  0  0  0  0  0  0  0  0  0  # atno 8009 bound_to 7997
  154.9492  140.3039  155.5087 H   0  0  0  0  0  0  0  0  0  0  0  0  # atno 8010 bound_to 7997
  139.5702  144.1659  152.1373 H   0  0  0  0  0  0  0  0  0  0  0  0  # atno 10167 bound_to 10162
  157.6940  131.0256  150.3127 H   0  0  0  0  0  0  0  0  0  0  0  0  # atno 10718 bound_to 10713
  154.8757  135.3907  154.3860 H   0  0  0  0  0  0  0  0  0  0  0  0  # atno 10763 bound_to 10752
  153.4601  135.7029  153.6060 H   0  0  0  0  0  0  0  0  0  0  0  0  # atno 10764 bound_to 10752
  153.4563  135.3822  155.2281 H   0  0  0  0  0  0  0  0  0  0  0  0  # atno 10765 bound_to 10752
  140.8022  134.2843  157.4974 H   0  0  0  0  0  0  0  0  0  0  0  0  # atno 11005 bound_to 11000
  145.8481  139.2162  143.1788 LP  0  0  0  0  0  0  0  0  0  0  0  0  # atno 17320 bound_to 7965
  146.0285  140.8280  142.9888 LP  0  0  0  0  0  0  0  0  0  0  0  0  # atno 17321 bound_to 7965
  140.1190  144.5390  150.6875 LP  0  0  0  0  0  0  0  0  0  0  0  0  # atno 17342 bound_to 10162
  140.6987  143.2420  151.4928 LP  0  0  0  0  0  0  0  0  0  0  0  0  # atno 17343 bound_to 10162
  156.3626  130.3849  149.7239 LP  0  0  0  0  0  0  0  0  0  0  0  0  # atno 17370 bound_to 10713
  156.4681  130.7983  151.3002 LP  0  0  0  0  0  0  0  0  0  0  0  0  # atno 17371 bound_to 10713
  139.8721  134.9436  156.3857 LP  0  0  0  0  0  0  0  0  0  0  0  0  # atno 17394 bound_to 11000
  140.9283  133.7597  155.9993 LP  0  0  0  0  0  0  0  0  0  0  0  0  # atno 17395 bound_to 11000

$$$$
