AV-unprocessed.smi:1639|AV-procd|sdf|6551|dock7
  -GOLD-   22720 7233D 1   1.00000     0.00000
 Structure written by MMmdl.
 38 39  0  0  0  0  0  0  0  0  2 V2000
  147.9666  145.0904  160.4576 C   0  0  0  0  0  0  0  0  0  0  0  0
  149.4607  145.3745  160.2515 C   0  0  0  0  0  0  0  0  0  0  0  0
  150.2709  144.3452  160.8034 O   0  0  0  0  0  0  0  0  0  0  0  0
  151.3259  143.8918  159.9643 C   0  0  1  0  0  0  0  0  0  0  0  0
  152.3371  143.1028  160.8143 C   0  0  0  0  0  0  0  0  0  0  0  0
  153.4030  142.4626  159.9108 C   0  0  0  0  0  0  0  0  0  0  0  0
  152.7480  141.6028  158.8156 C   0  0  0  0  0  0  0  0  0  0  0  0
  151.7692  142.3809  158.0607 N   0  0  0  0  0  0  0  0  0  0  0  0
  151.2647  141.6926  156.9512 C   0  0  0  0  0  0  0  0  0  0  0  0
  151.6520  140.3771  156.6171 C   0  0  0  0  0  0  0  0  0  0  0  0
  151.0575  139.8130  155.4749 C   0  0  0  0  0  0  0  0  0  0  0  0
  151.3904  138.4088  155.0165 C   0  0  0  0  0  0  0  0  0  0  0  0
  150.1617  140.4977  154.7351 N   0  0  0  0  0  0  0  0  0  0  0  0
  149.8372  141.7416  155.1049 C   0  0  0  0  0  0  0  0  0  0  0  0
  148.9229  142.4298  154.3442 N   0  0  0  0  0  0  0  0  0  0  0  0
  150.3609  142.3467  156.1810 N   0  3  0  0  0  0  0  0  0  0  0  0
  150.7203  142.9902  158.8745 C   0  0  0  0  0  0  0  0  0  0  0  0
  147.3587  145.8549  159.9735 H   0  0  0  0  0  0  0  0  0  0  0  0
  147.6989  145.0782  161.5140 H   0  0  0  0  0  0  0  0  0  0  0  0
  147.6907  144.1259  160.0308 H   0  0  0  0  0  0  0  0  0  0  0  0
  149.6682  145.4207  159.1823 H   0  0  0  0  0  0  0  0  0  0  0  0
  149.7388  146.3465  160.6618 H   0  0  0  0  0  0  0  0  0  0  0  0
  151.8415  144.7230  159.4787 H   0  0  0  0  0  0  0  0  0  0  0  0
  152.8087  143.7554  161.5494 H   0  0  0  0  0  0  0  0  0  0  0  0
  151.8190  142.3241  161.3753 H   0  0  0  0  0  0  0  0  0  0  0  0
  154.0078  143.2443  159.4491 H   0  0  0  0  0  0  0  0  0  0  0  0
  154.0839  141.8546  160.5069 H   0  0  0  0  0  0  0  0  0  0  0  0
  153.5132  141.2182  158.1400 H   0  0  0  0  0  0  0  0  0  0  0  0
  152.2579  140.7397  159.2684 H   0  0  0  0  0  0  0  0  0  0  0  0
  152.3697  139.8288  157.2099 H   0  0  0  0  0  0  0  0  0  0  0  0
  152.1170  137.9394  155.6805 H   0  0  0  0  0  0  0  0  0  0  0  0
  151.8105  138.4267  154.0105 H   0  0  0  0  0  0  0  0  0  0  0  0
  150.4927  137.7901  155.0032 H   0  0  0  0  0  0  0  0  0  0  0  0
  148.5112  142.0000  153.5283 H   0  0  0  0  0  0  0  0  0  0  0  0
  148.6475  143.3685  154.5944 H   0  0  0  0  0  0  0  0  0  0  0  0
  150.1171  142.2077  159.3366 H   0  0  0  0  0  0  0  0  0  0  0  0
  150.0540  143.5748  158.2386 H   0  0  0  0  0  0  0  0  0  0  0  0
  150.0882  143.2967  156.4333 H   0  0  0  0  0  0  0  0  0  0  0  0
  1  2  1  0  0  0  0
  1 18  1  0  0  0  0
  1 19  1  0  0  0  0
  1 20  1  0  0  0  0
  2  3  1  0  0  0  0
  2 21  1  0  0  0  0
  2 22  1  0  0  0  0
  3  4  1  0  0  0  0
  4 17  1  0  0  0  0
  4  5  1  0  0  0  0
  4 23  1  0  0  0  0
  5  6  1  0  0  0  0
  5 24  1  0  0  0  0
  5 25  1  0  0  0  0
  6  7  1  0  0  0  0
  6 26  1  0  0  0  0
  6 27  1  0  0  0  0
  7  8  1  0  0  0  0
  7 28  1  0  0  0  0
  7 29  1  0  0  0  0
  8  9  1  0  0  0  0
  8 17  1  0  0  0  0
  9 16  1  0  0  0  0
  9 10  2  0  0  0  0
 10 11  1  0  0  0  0
 10 30  1  0  0  0  0
 11 12  1  0  0  0  0
 11 13  2  0  0  0  0
 12 31  1  0  0  0  0
 12 32  1  0  0  0  0
 12 33  1  0  0  0  0
 13 14  1  0  0  0  0
 14 15  1  0  0  0  0
 14 16  2  0  0  0  0
 15 34  1  0  0  0  0
 15 35  1  0  0  0  0
 16 38  1  0  0  0  0
 17 36  1  0  0  0  0
 17 37  1  0  0  0  0
M  CHG  1  16   1
M  END
> <s_m_source_file>
AV-unprocessed.smi

> <i_m_source_file_index>
1639

> <i_lp_mmshare_version>
43012

> <i_f3d_flags>
0

> <s_epik_input>
W0NIM11bQ0gyXU9bQ0BASF0xW0NIMl1bQ0gyXVtDSDJdTihbQ0gyXTEpYzJbY0hdYyhbQ0gzXSluYyhuMilbTkgyXQ==

> <s_epik_cmdline>
J2VwaWtfcHl0aG9uJywgJy1waCcsICc3LjAnLCAnLXRuJywgJzgnLCAnLW1hJywgJzIwMCcsICctbWV0YWxfYmluZGluZycsICctaW1hZScsICc8aW5maWxlLm1hZT4nLCAnLW9tYWUnLCAnPG91dGZpbGUubWFlPic=

> <r_lp_tautomer_probability>
0.424989

> <r_epik_Ionization_Penalty>
0.443088

> <r_epik_Ionization_Penalty_Charging>
0.443085

> <r_epik_Ionization_Penalty_Neutral>
3.21819e-06

> <r_epik_State_Penalty>
1.26241

> <r_epik_Charging_Adjusted_Penalty>
1.70549

> <i_epik_Tot_Q>
1

> <i_epik_Tot_abs_Q>
1

> <r_epik_Metal_State_Penalty>
1.59997

> <b_epik_Metal_Only>
0

> <s_lp_Force_Field>
OPLS_2005

> <r_lp_Energy>
15.005

> <b_lp_Chiralities_Consistent>
1

> <s_lp_Variant>
AV-unprocessed.smi:1639-4

> <Gold.Version>
5.8.1

> <Gold.Id.Protein>
6NUR|6NUR_protein|mol2

> <Gold.PLP.Fitness>
45.0052

> <Gold.PLP.PLP>
-35.4416

> <Gold.PLP.part.hbond>
-4.0000

> <Gold.PLP.part.metal>
0.0000

> <Gold.PLP.part.buried>
-5.8012

> <Gold.PLP.part.nonpolar>
-25.6603

> <Gold.PLP.part.repulsive>
2.4122

> <Gold.PLP.ligand.clash>
0.1663

> <Gold.PLP.ligand.torsion>
0.5631

> <Gold.PLP.Chemscore.Hbond>
3.5720

> <Gold.PLP.Chemscore.CHOScore>
0.0000

> <Gold.PLP.Chemscore.Metal>
0.0000

> <Gold.Chemscore.Hbonds>
donor molecule, donor type, donor heavy atom, donor atom, acceptor molecule, acceptor atom, score
      L1  H    15    35       P1  8028  1.95
      L1  H    16    38       P1  8028  1.47
      P1  H  7989  7998       L1    13  0.38

> <Gold.PLP.Chemscore.Internal.Correction>
0.1402

> <Gold.Rescore>
     Score         DG    S(hbond)    S(metal)    S(lipo)     H(rot)  DE(clash)    DE(int)     intcor
     14.88     -16.65       1.50        0.00      84.57       1.46       0.82       0.95       ----

> <Gold.Chemscore.Fitness>
14.8785

> <Gold.Chemscore.DG>
-16.6505

> <Gold.Chemscore.ZeroCoef>
-5.4800

> <Gold.Chemscore.Hbond>
1.4981

> <Gold.Chemscore.Metal>
0.0000

> <Gold.Chemscore.Lipo>
84.5667

> <Gold.Chemscore.Internal_Hbond>
0.0000

> <Gold.Chemscore.DEClash>
0.8177

> <Gold.Chemscore.DEInternal>
0.9544

> <Gold.Chemscore.Rot>
1.4560

> <Gold.Chemscore.Internal.Correction>
   9.000000E+99

> <Gold.Chemscore.Hbonds>
donor molecule, donor type, donor heavy atom, donor atom, acceptor molecule, acceptor atom, score
      L1  H    15    35       P1  8028  0.93
      L1  H    16    38       P1  8028  0.70

> <Gold.Chemscore.Hbond.Weighted>
-5.0035

> <Gold.Chemscore.Metal.Weighted>
-0.0000

> <Gold.Chemscore.Lipo.Weighted>
-9.8943

> <Gold.Chemscore.Internal_Hbond.Weighted>
0.0000

> <Gold.Chemscore.DEClash.Weighted>
0.8177

> <Gold.Chemscore.DEInternal.Weighted>
0.9544

> <Gold.Chemscore.Rot.Weighted>
3.7272

> <Gold.Chemscore.Internal.Correction.Weighted>
   9.000000E+99

> <Gold.Protein.RotatedTorsions>
[ 6907 6896 6895 6894 ] final -153.26 input  -60.11 | X-H torsion
[ 7974 7965 7964 7962 ] final  120.00 input  175.53 | X-H torsion
[ 8008 7997 7996 7995 ] final -159.27 input   59.86 | X-H torsion
[ 10167 10162 10161 10158 ] final  171.75 input  -65.29 | X-H torsion
[ 10718 10713 10712 10709 ] final  122.43 input   66.30 | X-H torsion
[ 10763 10752 10751 10750 ] final  103.32 input  -60.55 | X-H torsion
[ 11005 11000 10999 10996 ] final  -41.70 input  -57.11 | X-H torsion

> <Gold.Protein.ActiveResidues>
 VAL166  LYS551  ARG553  GLY616  TRP617  ASP618  TYR619  PRO620  LYS621  CYS622 
 ASP623  PHE694  ASN695  SER759  ASP760  ASP761  ALA762  ILE779  LEU786  VAL792 
 PHE793  MET794  SER795  GLU796  ALA797  LYS798  CYS799  TRP800  GLU811  SER814 

> <Gold.Protein.RotatedAtoms>
  151.2400  133.4405  159.2606 H   0  0  0  0  0  0  0  0  0  0  0  0  # atno 6907 bound_to 6896
  151.0714  134.9801  159.8321 H   0  0  0  0  0  0  0  0  0  0  0  0  # atno 6908 bound_to 6896
  152.5412  134.2345  159.8890 H   0  0  0  0  0  0  0  0  0  0  0  0  # atno 6909 bound_to 6896
  145.1364  139.3295  143.4639 H   0  0  0  0  0  0  0  0  0  0  0  0  # atno 7974 bound_to 7965
  155.7600  140.0838  157.2159 H   0  0  0  0  0  0  0  0  0  0  0  0  # atno 8008 bound_to 7997
  154.4004  140.1544  156.2879 H   0  0  0  0  0  0  0  0  0  0  0  0  # atno 8009 bound_to 7997
  155.8848  140.3418  155.5916 H   0  0  0  0  0  0  0  0  0  0  0  0  # atno 8010 bound_to 7997
  139.5056  144.3451  151.9979 H   0  0  0  0  0  0  0  0  0  0  0  0  # atno 10167 bound_to 10162
  157.5742  131.1080  150.8310 H   0  0  0  0  0  0  0  0  0  0  0  0  # atno 10718 bound_to 10713
  153.3511  135.3981  155.1646 H   0  0  0  0  0  0  0  0  0  0  0  0  # atno 10763 bound_to 10752
  154.8662  135.3656  154.5221 H   0  0  0  0  0  0  0  0  0  0  0  0  # atno 10764 bound_to 10752
  153.5673  135.7080  153.5580 H   0  0  0  0  0  0  0  0  0  0  0  0  # atno 10765 bound_to 10752
  141.0264  133.6839  156.2493 H   0  0  0  0  0  0  0  0  0  0  0  0  # atno 11005 bound_to 11000
  146.3509  140.1383  142.8595 LP  0  0  0  0  0  0  0  0  0  0  0  0  # atno 17320 bound_to 7965
  145.0580  140.9067  143.4956 LP  0  0  0  0  0  0  0  0  0  0  0  0  # atno 17321 bound_to 7965
  140.2888  144.3777  150.6095 LP  0  0  0  0  0  0  0  0  0  0  0  0  # atno 17342 bound_to 10162
  140.5962  143.2167  151.7160 LP  0  0  0  0  0  0  0  0  0  0  0  0  # atno 17343 bound_to 10162
  156.8773  130.5167  149.5293 LP  0  0  0  0  0  0  0  0  0  0  0  0  # atno 17370 bound_to 10713
  156.0787  130.5803  150.9523 LP  0  0  0  0  0  0  0  0  0  0  0  0  # atno 17371 bound_to 10713
  140.6484  134.5093  157.5575 LP  0  0  0  0  0  0  0  0  0  0  0  0  # atno 17394 bound_to 11000
  139.9179  134.8209  156.1307 LP  0  0  0  0  0  0  0  0  0  0  0  0  # atno 17395 bound_to 11000

$$$$
