AV-unprocessed.smi:37|AV-procd|sdf|325|dock5
  -GOLD-   2262016153D 1   1.00000     0.00000
 Structure written by MMmdl.
 43 44  0  0  0  0  0  0  0  0  2 V2000
  146.7457  135.6091  162.9766 C   0  0  0  0  0  0  0  0  0  0  0  0
  147.7061  135.2072  161.8489 C   0  0  0  0  0  0  0  0  0  0  0  0
  147.9337  136.3561  160.8716 C   0  0  0  0  0  0  0  0  0  0  0  0
  147.4036  137.4542  161.0408 O   0  0  0  0  0  0  0  0  0  0  0  0
  148.7279  136.0056  159.8422 O   0  0  0  0  0  0  0  0  0  0  0  0
  149.4629  136.9877  159.1235 C   0  0  0  0  0  0  0  0  0  0  0  0
  148.9982  137.0166  157.6585 C   0  0  2  0  0  0  0  0  0  0  0  0
  148.8709  135.6708  157.2056 O   0  0  0  0  0  0  0  0  0  0  0  0
  149.6188  135.4909  156.0453 C   0  0  2  0  0  0  0  0  0  0  0  0
  150.1226  134.0652  155.9426 N   0  0  0  0  0  0  0  0  0  0  0  0
  149.6952  133.3000  154.8726 C   0  0  0  0  0  0  0  0  0  0  0  0
  150.0887  132.0193  154.7201 C   0  0  0  0  0  0  0  0  0  0  0  0
  149.6589  131.3082  153.6635 F   0  0  0  0  0  0  0  0  0  0  0  0
  150.9809  131.4158  155.7070 C   0  0  0  0  0  0  0  0  0  0  0  0
  151.3489  130.2519  155.5561 O   0  0  0  0  0  0  0  0  0  0  0  0
  151.3689  132.1820  156.7666 N   0  5  0  0  0  0  0  0  0  0  0  0
  150.9665  133.4765  156.9307 C   0  0  0  0  0  0  0  0  0  0  0  0
  151.2998  134.1546  157.9018 O   0  0  0  0  0  0  0  0  0  0  0  0
  150.6927  136.5883  155.9864 C   0  0  2  0  0  0  0  0  0  0  0  0
  152.3949  136.1920  156.9511 Br  0  0  0  0  0  0  0  0  0  0  0  0
  149.9840  137.7205  156.7077 C   0  0  1  0  0  0  0  0  0  0  0  0
  149.2415  138.5137  155.7883 O   0  0  0  0  0  0  0  0  0  0  0  0
  149.8728  139.3336  154.9270 C   0  0  0  0  0  0  0  0  0  0  0  0
  151.0849  139.5425  154.8804 O   0  0  0  0  0  0  0  0  0  0  0  0
  148.9111  140.0280  153.9659 C   0  0  0  0  0  0  0  0  0  0  0  0
  148.8544  141.5439  154.1974 C   0  0  0  0  0  0  0  0  0  0  0  0
  146.5998  134.7818  163.6707 H   0  0  0  0  0  0  0  0  0  0  0  0
  145.7664  135.8914  162.5878 H   0  0  0  0  0  0  0  0  0  0  0  0
  147.1357  136.4537  163.5457 H   0  0  0  0  0  0  0  0  0  0  0  0
  148.6652  134.8999  162.2667 H   0  0  0  0  0  0  0  0  0  0  0  0
  147.3073  134.3511  161.3039 H   0  0  0  0  0  0  0  0  0  0  0  0
  149.3974  137.9779  159.5760 H   0  0  0  0  0  0  0  0  0  0  0  0
  150.5143  136.7023  159.1608 H   0  0  0  0  0  0  0  0  0  0  0  0
  148.0140  137.4856  157.6115 H   0  0  0  0  0  0  0  0  0  0  0  0
  148.9135  135.6008  155.2199 H   0  0  0  0  0  0  0  0  0  0  0  0
  149.0369  133.7355  154.1352 H   0  0  0  0  0  0  0  0  0  0  0  0
  150.9489  136.8204  154.9524 H   0  0  0  0  0  0  0  0  0  0  0  0
  150.6929  138.3421  157.2533 H   0  0  0  0  0  0  0  0  0  0  0  0
  149.2214  139.8163  152.9426 H   0  0  0  0  0  0  0  0  0  0  0  0
  147.9171  139.5972  154.0901 H   0  0  0  0  0  0  0  0  0  0  0  0
  148.1325  142.0075  153.5250 H   0  0  0  0  0  0  0  0  0  0  0  0
  149.8219  142.0133  154.0161 H   0  0  0  0  0  0  0  0  0  0  0  0
  148.5520  141.7778  155.2186 H   0  0  0  0  0  0  0  0  0  0  0  0
  1  2  1  0  0  0  0
  1 27  1  0  0  0  0
  1 28  1  0  0  0  0
  1 29  1  0  0  0  0
  2  3  1  0  0  0  0
  2 30  1  0  0  0  0
  2 31  1  0  0  0  0
  3  4  2  0  0  0  0
  3  5  1  0  0  0  0
  5  6  1  0  0  0  0
  6  7  1  0  0  0  0
  6 32  1  0  0  0  0
  6 33  1  0  0  0  0
  7 21  1  0  0  0  0
  7  8  1  0  0  0  0
  7 34  1  0  0  0  0
  8  9  1  0  0  0  0
  9 10  1  0  0  0  0
  9 19  1  0  0  0  0
  9 35  1  0  0  0  0
 10 17  1  0  0  0  0
 10 11  1  0  0  0  0
 11 12  2  0  0  0  0
 11 36  1  0  0  0  0
 12 13  1  0  0  0  0
 12 14  1  0  0  0  0
 14 15  2  0  0  0  0
 14 16  1  0  0  0  0
 16 17  1  0  0  0  0
 17 18  2  0  0  0  0
 19 20  1  0  0  0  0
 19 21  1  0  0  0  0
 19 37  1  0  0  0  0
 21 22  1  0  0  0  0
 21 38  1  0  0  0  0
 22 23  1  0  0  0  0
 23 24  2  0  0  0  0
 23 25  1  0  0  0  0
 25 26  1  0  0  0  0
 25 39  1  0  0  0  0
 25 40  1  0  0  0  0
 26 41  1  0  0  0  0
 26 42  1  0  0  0  0
 26 43  1  0  0  0  0
M  CHG  1  16  -1
M  END
> <s_m_source_file>
AV-unprocessed.smi

> <i_m_source_file_index>
37

> <i_lp_mmshare_version>
43012

> <i_f3d_flags>
0

> <s_epik_input>
W0NIM11bQ0gyXUMoPU8pT1tDSDJdW0NAQEhdMU9bQ0BASF0objJbY0hdYyhGKWMoPU8pW25IXWMyPU8pW0NAQEhdKEJyKVtDQEhdMU9DKD1PKVtDSDJdW0NIM10=

> <s_epik_cmdline>
J2VwaWtfcHl0aG9uJywgJy1waCcsICc3LjAnLCAnLXRuJywgJzgnLCAnLW1hJywgJzIwMCcsICctbWV0YWxfYmluZGluZycsICctaW1hZScsICc8aW5maWxlLm1hZT4nLCAnLW9tYWUnLCAnPG91dGZpbGUubWFlPic=

> <r_epik_Ionization_Penalty>
1.08158

> <r_epik_Ionization_Penalty_Charging>
9.05154e-09

> <r_epik_Ionization_Penalty_Neutral>
1.08158

> <r_epik_State_Penalty>
1.13706

> <r_epik_Charging_Adjusted_Penalty>
1.13706

> <i_epik_Tot_Q>
-1

> <i_epik_Tot_abs_Q>
1

> <r_epik_Metal_State_Penalty>
0.00343535

> <b_epik_Metal_Only>
0

> <s_epik_Chemistry_Notes>
This compound has an ester and may undergo hydrolysis at high or low pH. This compound contains an acetal/aminal-like group ( X-CH(R)-Y where X, Y are N, S, or O) that may be acid/base labile, releasing an aldehyde.

> <s_lp_Force_Field>
OPLS_2005

> <r_lp_Energy>
32.7064

> <b_lp_Chiralities_Consistent>
1

> <s_lp_Variant>
AV-unprocessed.smi:37-23

> <Gold.Version>
5.8.1

> <Gold.Id.Protein>
6NUR|6NUR_protein|mol2

> <Gold.PLP.Fitness>
43.1427

> <Gold.PLP.PLP>
-34.8199

> <Gold.PLP.part.hbond>
-3.9604

> <Gold.PLP.part.metal>
0.0000

> <Gold.PLP.part.buried>
1.2346

> <Gold.PLP.part.nonpolar>
-31.1133

> <Gold.PLP.part.repulsive>
0.1238

> <Gold.PLP.ligand.clash>
0.0000

> <Gold.PLP.ligand.torsion>
0.9734

> <Gold.PLP.Chemscore.Hbond>
3.3590

> <Gold.PLP.Chemscore.CHOScore>
0.0000

> <Gold.PLP.Chemscore.Metal>
0.0000

> <Gold.Chemscore.Hbonds>
donor molecule, donor type, donor heavy atom, donor atom, acceptor molecule, acceptor atom, score
      P1  H  6896  6908       L1    18  0.15
      P1  H  6931  6943       L1     4  0.50
      P1  H  6934  6947       L1     4  1.00
      P1  H  7989  7998       L1    24  1.00

> <Gold.PLP.Chemscore.Internal.Correction>
0.1927

> <Gold.Rescore>
     Score         DG    S(hbond)    S(metal)    S(lipo)     H(rot)  DE(clash)    DE(int)     intcor
      8.67     -14.40       3.01        0.00      61.88       3.27       1.78       3.95       ----

> <Gold.Chemscore.Fitness>
8.6673

> <Gold.Chemscore.DG>
-14.4024

> <Gold.Chemscore.ZeroCoef>
-5.4800

> <Gold.Chemscore.Hbond>
3.0077

> <Gold.Chemscore.Metal>
0.0000

> <Gold.Chemscore.Lipo>
61.8813

> <Gold.Chemscore.Internal_Hbond>
0.0000

> <Gold.Chemscore.DEClash>
1.7802

> <Gold.Chemscore.DEInternal>
3.9549

> <Gold.Chemscore.Rot>
3.2669

> <Gold.Chemscore.Internal.Correction>
   9.000000E+99

> <Gold.Chemscore.Hbonds>
donor molecule, donor type, donor heavy atom, donor atom, acceptor molecule, acceptor atom, score
      P1  H  6896  6908       L1    18  0.14
      P1  H  6931  6943       L1     4  0.05
      P1  H  6934  6947       L1     4  0.93
      P1  H  7989  7998       L1    24  0.88

> <Gold.Chemscore.Hbond.Weighted>
-10.0456

> <Gold.Chemscore.Metal.Weighted>
-0.0000

> <Gold.Chemscore.Lipo.Weighted>
-7.2401

> <Gold.Chemscore.Internal_Hbond.Weighted>
0.0000

> <Gold.Chemscore.DEClash.Weighted>
1.7802

> <Gold.Chemscore.DEInternal.Weighted>
3.9549

> <Gold.Chemscore.Rot.Weighted>
8.3634

> <Gold.Chemscore.Internal.Correction.Weighted>
   9.000000E+99

> <Gold.Protein.RotatedTorsions>
[ 6907 6896 6895 6894 ] final  102.34 input  -60.11 | X-H torsion
[ 7974 7965 7964 7962 ] final  -70.98 input  175.53 | X-H torsion
[ 8008 7997 7996 7995 ] final  139.01 input   59.86 | X-H torsion
[ 10167 10162 10161 10158 ] final  -47.46 input  -65.29 | X-H torsion
[ 10718 10713 10712 10709 ] final  -20.23 input   66.30 | X-H torsion
[ 10763 10752 10751 10750 ] final   25.04 input  -60.55 | X-H torsion
[ 11005 11000 10999 10996 ] final  -38.50 input  -57.11 | X-H torsion

> <Gold.Protein.ActiveResidues>
 VAL166  LYS551  ARG553  GLY616  TRP617  ASP618  TYR619  PRO620  LYS621  CYS622 
 ASP623  PHE694  ASN695  SER759  ASP760  ASP761  ALA762  ILE779  LEU786  VAL792 
 PHE793  MET794  SER795  GLU796  ALA797  LYS798  CYS799  TRP800  GLU811  SER814 

> <Gold.Protein.RotatedAtoms>
  152.5326  133.9990  159.7885 H   0  0  0  0  0  0  0  0  0  0  0  0  # atno 6907 bound_to 6896
  151.0212  133.5867  159.2678 H   0  0  0  0  0  0  0  0  0  0  0  0  # atno 6908 bound_to 6896
  151.2905  135.0747  159.9256 H   0  0  0  0  0  0  0  0  0  0  0  0  # atno 6909 bound_to 6896
  145.6839  140.9178  143.0817 H   0  0  0  0  0  0  0  0  0  0  0  0  # atno 7974 bound_to 7965
  156.2993  140.2378  156.4168 H   0  0  0  0  0  0  0  0  0  0  0  0  # atno 8008 bound_to 7997
  154.8391  140.0429  157.1549 H   0  0  0  0  0  0  0  0  0  0  0  0  # atno 8009 bound_to 7997
  154.9122  140.2992  155.5264 H   0  0  0  0  0  0  0  0  0  0  0  0  # atno 8010 bound_to 7997
  140.6774  143.2783  151.3930 H   0  0  0  0  0  0  0  0  0  0  0  0  # atno 10167 bound_to 10162
  156.5347  130.4663  149.6529 H   0  0  0  0  0  0  0  0  0  0  0  0  # atno 10718 bound_to 10713
  153.0720  135.6592  154.0226 H   0  0  0  0  0  0  0  0  0  0  0  0  # atno 10763 bound_to 10752
  153.9869  135.2950  155.3417 H   0  0  0  0  0  0  0  0  0  0  0  0  # atno 10764 bound_to 10752
  154.7098  135.5210  153.8719 H   0  0  0  0  0  0  0  0  0  0  0  0  # atno 10765 bound_to 10752
  141.0032  133.6945  156.2061 H   0  0  0  0  0  0  0  0  0  0  0  0  # atno 11005 bound_to 11000
  144.7017  139.8733  143.7442 LP  0  0  0  0  0  0  0  0  0  0  0  0  # atno 17320 bound_to 7965
  146.0940  139.3931  143.0388 LP  0  0  0  0  0  0  0  0  0  0  0  0  # atno 17321 bound_to 7965
  139.6074  144.1168  152.2264 LP  0  0  0  0  0  0  0  0  0  0  0  0  # atno 17342 bound_to 10162
  140.0571  144.5886  150.7291 LP  0  0  0  0  0  0  0  0  0  0  0  0  # atno 17343 bound_to 10162
  156.3027  130.7186  151.2061 LP  0  0  0  0  0  0  0  0  0  0  0  0  # atno 17370 bound_to 10713
  157.7416  131.0502  150.5087 LP  0  0  0  0  0  0  0  0  0  0  0  0  # atno 17371 bound_to 10713
  140.6855  134.4722  157.5589 LP  0  0  0  0  0  0  0  0  0  0  0  0  # atno 17394 bound_to 11000
  139.9049  134.8470  156.1744 LP  0  0  0  0  0  0  0  0  0  0  0  0  # atno 17395 bound_to 11000

$$$$
