AV-unprocessed.smi:2409|AV-procd|sdf|9524|dock2
  -GOLD-   2272013153D 1   1.00000     0.00000
 Structure written by MMmdl.
 35 36  0  0  0  0  0  0  0  0  1 V2000
  152.2554  139.0394  157.5566 C   0  0  0  0  0  0  0  0  0  0  0  0
  152.3863  140.0440  156.5654 O   0  0  0  0  0  0  0  0  0  0  0  0
  151.2771  140.2059  155.8129 C   0  0  0  0  0  0  0  0  0  0  0  0
  150.4178  141.2588  155.6631 C   0  0  0  0  0  0  0  0  0  0  0  0
  150.4276  142.5380  156.2747 N   0  0  0  0  0  0  0  0  0  0  0  0
  151.1738  142.9406  157.3199 C   0  0  0  0  0  0  0  0  0  0  0  0
  151.9662  142.2209  157.9237 O   0  0  0  0  0  0  0  0  0  0  0  0
  150.9862  144.2235  157.6770 N   0  0  0  0  0  0  0  0  0  0  0  0
  151.6220  144.9478  158.7383 C   0  0  2  0  0  0  0  0  0  0  0  0
  151.8901  144.1937  160.0229 C   0  0  0  0  0  0  0  0  0  0  0  0
  150.8286  145.2614  159.9937 C   0  0  2  0  0  0  0  0  0  0  0  0
  149.3632  144.8981  160.1328 C   0  0  0  0  0  0  0  0  0  0  0  0
  149.4109  140.7900  154.7749 C   0  0  0  0  0  0  0  0  0  0  0  0
  148.1858  141.4964  154.2700 C   0  0  0  0  0  0  0  0  0  0  0  0
  149.6667  139.5503  154.3717 N   0  0  0  0  0  0  0  0  0  0  0  0
  150.8141  139.1934  154.9992 N   0  0  0  0  0  0  0  0  0  0  0  0
  151.3688  137.8728  154.7846 C   0  0  0  0  0  0  0  0  0  0  0  0
  153.1862  138.9565  158.1174 H   0  0  0  0  0  0  0  0  0  0  0  0
  152.0472  138.0689  157.1039 H   0  0  0  0  0  0  0  0  0  0  0  0
  151.4579  139.2720  158.2631 H   0  0  0  0  0  0  0  0  0  0  0  0
  149.8805  143.2503  155.8140 H   0  0  0  0  0  0  0  0  0  0  0  0
  150.2880  144.7351  157.1568 H   0  0  0  0  0  0  0  0  0  0  0  0
  152.3954  145.6642  158.4650 H   0  0  0  0  0  0  0  0  0  0  0  0
  151.5647  143.1564  160.0810 H   0  0  0  0  0  0  0  0  0  0  0  0
  152.8124  144.4198  160.5543 H   0  0  0  0  0  0  0  0  0  0  0  0
  151.0834  146.2017  160.4792 H   0  0  0  0  0  0  0  0  0  0  0  0
  149.1602  143.9105  159.7173 H   0  0  0  0  0  0  0  0  0  0  0  0
  148.7462  145.6295  159.6107 H   0  0  0  0  0  0  0  0  0  0  0  0
  149.0799  144.8921  161.1855 H   0  0  0  0  0  0  0  0  0  0  0  0
  148.2027  142.5557  154.5259 H   0  0  0  0  0  0  0  0  0  0  0  0
  147.2821  141.0659  154.7013 H   0  0  0  0  0  0  0  0  0  0  0  0
  148.1069  141.4213  153.1852 H   0  0  0  0  0  0  0  0  0  0  0  0
  152.4546  137.9060  154.8787 H   0  0  0  0  0  0  0  0  0  0  0  0
  151.1139  137.5124  153.7871 H   0  0  0  0  0  0  0  0  0  0  0  0
  150.9679  137.1836  155.5280 H   0  0  0  0  0  0  0  0  0  0  0  0
  1  2  1  0  0  0  0
  1 18  1  0  0  0  0
  1 19  1  0  0  0  0
  1 20  1  0  0  0  0
  2  3  1  0  0  0  0
  3 16  1  0  0  0  0
  3  4  2  0  0  0  0
  4  5  1  0  0  0  0
  4 13  1  0  0  0  0
  5  6  1  0  0  0  0
  5 21  1  0  0  0  0
  6  7  2  0  0  0  0
  6  8  1  0  0  0  0
  8  9  1  0  0  0  0
  8 22  1  0  0  0  0
  9 11  1  0  0  0  0
  9 10  1  0  0  0  0
  9 23  1  0  0  0  0
 10 11  1  0  0  0  0
 10 24  1  0  0  0  0
 10 25  1  0  0  0  0
 11 12  1  0  0  0  0
 11 26  1  0  0  0  0
 12 27  1  0  0  0  0
 12 28  1  0  0  0  0
 12 29  1  0  0  0  0
 13 14  1  0  0  0  0
 13 15  2  0  0  0  0
 14 30  1  0  0  0  0
 14 31  1  0  0  0  0
 14 32  1  0  0  0  0
 15 16  1  0  0  0  0
 16 17  1  0  0  0  0
 17 33  1  0  0  0  0
 17 34  1  0  0  0  0
 17 35  1  0  0  0  0
M  END
> <s_m_source_file>
AV-unprocessed.smi

> <i_m_source_file_index>
2409

> <i_lp_mmshare_version>
43012

> <i_f3d_flags>
0

> <s_epik_input>
W0NIM11uMW5jKFtDSDNdKWMoYzFPW0NIM10pW05IXUMoPU8pW05IXVtDQEBIXTJbQ0gyXVtDQEhdMltDSDNd

> <s_epik_cmdline>
J2VwaWtfcHl0aG9uJywgJy1waCcsICc3LjAnLCAnLXRuJywgJzgnLCAnLW1hJywgJzIwMCcsICctbWV0YWxfYmluZGluZycsICctaW1hZScsICc8aW5maWxlLm1hZT4nLCAnLW9tYWUnLCAnPG91dGZpbGUubWFlPic=

> <r_lp_tautomer_probability>
1

> <r_epik_Ionization_Penalty>
0.000417804

> <r_epik_Ionization_Penalty_Charging>
0

> <r_epik_Ionization_Penalty_Neutral>
0.000417804

> <r_epik_State_Penalty>
-0

> <r_epik_Charging_Adjusted_Penalty>
0

> <i_epik_Tot_Q>
0

> <i_epik_Tot_abs_Q>
0

> <r_epik_Metal_State_Penalty>
-0

> <b_epik_Metal_Only>
0

> <s_lp_Force_Field>
OPLS_2005

> <r_lp_Energy>
35.5407

> <b_lp_Chiralities_Consistent>
1

> <s_lp_Variant>
AV-unprocessed.smi:2409-3

> <Gold.Version>
5.8.1

> <Gold.Id.Protein>
6NUR|6NUR_protein|mol2

> <Gold.PLP.Fitness>
47.8842

> <Gold.PLP.PLP>
-39.4630

> <Gold.PLP.part.hbond>
-3.0000

> <Gold.PLP.part.metal>
0.0000

> <Gold.PLP.part.buried>
-4.4293

> <Gold.PLP.part.nonpolar>
-31.9791

> <Gold.PLP.part.repulsive>
0.3023

> <Gold.PLP.ligand.clash>
0.0000

> <Gold.PLP.ligand.torsion>
0.2997

> <Gold.PLP.Chemscore.Hbond>
2.9920

> <Gold.PLP.Chemscore.CHOScore>
0.0000

> <Gold.PLP.Chemscore.Metal>
0.0000

> <Gold.Chemscore.Hbonds>
donor molecule, donor type, donor heavy atom, donor atom, acceptor molecule, acceptor atom, score
      L1  H     5    21       P1  8028  1.00
      L1  H     8    22       P1  8028  0.99
      P1  H  7997  8010       L1     2  1.00

> <Gold.PLP.Chemscore.Internal.Correction>
0.0444

> <Gold.Rescore>
     Score         DG    S(hbond)    S(metal)    S(lipo)     H(rot)  DE(clash)    DE(int)     intcor
     14.97     -19.31       2.41        0.00      76.39       1.23       0.06       4.28       ----

> <Gold.Chemscore.Fitness>
14.9668

> <Gold.Chemscore.DG>
-19.3109

> <Gold.Chemscore.ZeroCoef>
-5.4800

> <Gold.Chemscore.Hbond>
2.4072

> <Gold.Chemscore.Metal>
0.0000

> <Gold.Chemscore.Lipo>
76.3876

> <Gold.Chemscore.Internal_Hbond>
0.0000

> <Gold.Chemscore.DEClash>
0.0618

> <Gold.Chemscore.DEInternal>
4.2823

> <Gold.Chemscore.Rot>
1.2292

> <Gold.Chemscore.Internal.Correction>
   9.000000E+99

> <Gold.Chemscore.Hbonds>
donor molecule, donor type, donor heavy atom, donor atom, acceptor molecule, acceptor atom, score
      L1  H     5    21       P1  8028  0.99
      L1  H     8    22       P1  8028  0.35
      P1  H  7997  8010       L1     2  0.34

> <Gold.Chemscore.Hbond.Weighted>
-8.0402

> <Gold.Chemscore.Metal.Weighted>
-0.0000

> <Gold.Chemscore.Lipo.Weighted>
-8.9373

> <Gold.Chemscore.Internal_Hbond.Weighted>
0.0000

> <Gold.Chemscore.DEClash.Weighted>
0.0618

> <Gold.Chemscore.DEInternal.Weighted>
4.2823

> <Gold.Chemscore.Rot.Weighted>
3.1467

> <Gold.Chemscore.Internal.Correction.Weighted>
   9.000000E+99

> <Gold.Protein.RotatedTorsions>
[ 6907 6896 6895 6894 ] final  -81.73 input  -60.11 | X-H torsion
[ 7974 7965 7964 7962 ] final   20.59 input  175.53 | X-H torsion
[ 8008 7997 7996 7995 ] final   77.23 input   59.86 | X-H torsion
[ 10167 10162 10161 10158 ] final   33.00 input  -65.29 | X-H torsion
[ 10718 10713 10712 10709 ] final  -87.49 input   66.30 | X-H torsion
[ 10763 10752 10751 10750 ] final -154.19 input  -60.55 | X-H torsion
[ 11005 11000 10999 10996 ] final  -35.60 input  -57.11 | X-H torsion

> <Gold.Protein.ActiveResidues>
 VAL166  LYS551  ARG553  GLY616  TRP617  ASP618  TYR619  PRO620  LYS621  CYS622 
 ASP623  PHE694  ASN695  SER759  ASP760  ASP761  ALA762  ILE779  LEU786  VAL792 
 PHE793  MET794  SER795  GLU796  ALA797  LYS798  CYS799  TRP800  GLU811  SER814 

> <Gold.Protein.RotatedAtoms>
  150.6907  134.3773  159.5018 H   0  0  0  0  0  0  0  0  0  0  0  0  # atno 6907 bound_to 6896
  152.1580  134.8932  160.0553 H   0  0  0  0  0  0  0  0  0  0  0  0  # atno 6908 bound_to 6896
  152.0005  133.3789  159.4216 H   0  0  0  0  0  0  0  0  0  0  0  0  # atno 6909 bound_to 6896
  146.2105  139.8148  142.8692 H   0  0  0  0  0  0  0  0  0  0  0  0  # atno 7974 bound_to 7965
  155.8386  140.3463  155.5617 H   0  0  0  0  0  0  0  0  0  0  0  0  # atno 8008 bound_to 7997
  155.8165  140.0906  157.1893 H   0  0  0  0  0  0  0  0  0  0  0  0  # atno 8009 bound_to 7997
  154.4004  140.1438  156.3436 H   0  0  0  0  0  0  0  0  0  0  0  0  # atno 8010 bound_to 7997
  140.4448  144.1135  150.6180 H   0  0  0  0  0  0  0  0  0  0  0  0  # atno 10167 bound_to 10162
  155.9985  130.4802  150.4875 H   0  0  0  0  0  0  0  0  0  0  0  0  # atno 10718 bound_to 10713
  154.7876  135.3195  154.7851 H   0  0  0  0  0  0  0  0  0  0  0  0  # atno 10763 bound_to 10752
  153.8548  135.6859  153.4793 H   0  0  0  0  0  0  0  0  0  0  0  0  # atno 10764 bound_to 10752
  153.1533  135.4690  154.9608 H   0  0  0  0  0  0  0  0  0  0  0  0  # atno 10765 bound_to 10752
  140.9809  133.7057  156.1682 H   0  0  0  0  0  0  0  0  0  0  0  0  # atno 11005 bound_to 11000
  145.3158  141.0231  143.3529 LP  0  0  0  0  0  0  0  0  0  0  0  0  # atno 17320 bound_to 7965
  144.8903  139.4784  143.6681 LP  0  0  0  0  0  0  0  0  0  0  0  0  # atno 17321 bound_to 7965
  140.4277  143.2582  151.9636 LP  0  0  0  0  0  0  0  0  0  0  0  0  # atno 17342 bound_to 10162
  139.4792  144.5773  151.7991 LP  0  0  0  0  0  0  0  0  0  0  0  0  # atno 17343 bound_to 10162
  157.2873  131.0619  151.2157 LP  0  0  0  0  0  0  0  0  0  0  0  0  # atno 17370 bound_to 10713
  157.3182  130.6924  149.6254 LP  0  0  0  0  0  0  0  0  0  0  0  0  # atno 17371 bound_to 10713
  140.7188  134.4381  157.5576 LP  0  0  0  0  0  0  0  0  0  0  0  0  # atno 17394 bound_to 11000
  139.8950  134.8694  156.2153 LP  0  0  0  0  0  0  0  0  0  0  0  0  # atno 17395 bound_to 11000

$$$$
