AV-unprocessed.smi:1821|AV-procd|sdf|7386|dock2
  -GOLD-   22720 9 53D 1   1.00000     0.00000
 Structure written by MMmdl.
 35 37  0  0  0  0  0  0  0  0  1 V2000
  152.1025  138.7373  155.4868 C   0  0  0  0  0  0  0  0  0  0  0  0
  150.7899  139.2721  155.0087 C   0  0  0  0  0  0  0  0  0  0  0  0
  149.9688  138.5562  154.2398 N   0  0  0  0  0  0  0  0  0  0  0  0
  148.9071  139.4188  154.0458 C   0  0  0  0  0  0  0  0  0  0  0  0
  147.7087  139.2513  153.3158 C   0  0  0  0  0  0  0  0  0  0  0  0
  146.7557  140.2896  153.2599 C   0  0  0  0  0  0  0  0  0  0  0  0
  146.9865  141.5076  153.9320 C   0  0  0  0  0  0  0  0  0  0  0  0
  148.1734  141.6950  154.6661 C   0  0  0  0  0  0  0  0  0  0  0  0
  149.1213  140.6554  154.7181 C   0  0  0  0  0  0  0  0  0  0  0  0
  150.3610  140.5170  155.3332 N   0  0  0  0  0  0  0  0  0  0  0  0
  151.0310  141.5190  156.1511 C   0  0  0  0  0  0  0  0  0  0  0  0
  150.3951  141.6671  157.5485 C   0  0  2  0  0  0  0  0  0  0  0  0
  149.3624  142.6344  157.5193 O   0  0  0  0  0  0  0  0  0  0  0  0
  151.4478  141.9691  158.6098 C   0  0  0  0  0  0  0  0  0  0  0  0
  151.7595  143.3047  158.9614 C   0  0  0  0  0  0  0  0  0  0  0  0
  151.1301  144.3416  158.3579 F   0  0  0  0  0  0  0  0  0  0  0  0
  152.7346  143.5724  159.9414 C   0  0  0  0  0  0  0  0  0  0  0  0
  153.4113  142.5134  160.5739 C   0  0  0  0  0  0  0  0  0  0  0  0
  153.1148  141.1837  160.2225 C   0  0  0  0  0  0  0  0  0  0  0  0
  152.1395  140.9104  159.2438 C   0  0  0  0  0  0  0  0  0  0  0  0
  151.8763  139.6223  158.9166 F   0  0  0  0  0  0  0  0  0  0  0  0
  152.3042  137.7631  155.0402 H   0  0  0  0  0  0  0  0  0  0  0  0
  152.0895  138.6227  156.5708 H   0  0  0  0  0  0  0  0  0  0  0  0
  152.9120  139.4136  155.2122 H   0  0  0  0  0  0  0  0  0  0  0  0
  147.5222  138.3222  152.7979 H   0  0  0  0  0  0  0  0  0  0  0  0
  145.8431  140.1503  152.6990 H   0  0  0  0  0  0  0  0  0  0  0  0
  146.2516  142.2978  153.8838 H   0  0  0  0  0  0  0  0  0  0  0  0
  148.3539  142.6262  155.1823 H   0  0  0  0  0  0  0  0  0  0  0  0
  152.0762  141.2235  156.2511 H   0  0  0  0  0  0  0  0  0  0  0  0
  151.0375  142.4736  155.6257 H   0  0  0  0  0  0  0  0  0  0  0  0
  149.9050  140.7271  157.8021 H   0  0  0  0  0  0  0  0  0  0  0  0
  149.4732  143.1689  156.7480 H   0  0  0  0  0  0  0  0  0  0  0  0
  152.9653  144.5938  160.2066 H   0  0  0  0  0  0  0  0  0  0  0  0
  154.1592  142.7209  161.3247 H   0  0  0  0  0  0  0  0  0  0  0  0
  153.6376  140.3705  160.7042 H   0  0  0  0  0  0  0  0  0  0  0  0
  1  2  1  0  0  0  0
  1 22  1  0  0  0  0
  1 23  1  0  0  0  0
  1 24  1  0  0  0  0
  2 10  1  0  0  0  0
  2  3  2  0  0  0  0
  3  4  1  0  0  0  0
  4  9  2  0  0  0  0
  4  5  1  0  0  0  0
  5  6  2  0  0  0  0
  5 25  1  0  0  0  0
  6  7  1  0  0  0  0
  6 26  1  0  0  0  0
  7  8  2  0  0  0  0
  7 27  1  0  0  0  0
  8  9  1  0  0  0  0
  8 28  1  0  0  0  0
  9 10  1  0  0  0  0
 10 11  1  0  0  0  0
 11 12  1  0  0  0  0
 11 29  1  0  0  0  0
 11 30  1  0  0  0  0
 12 13  1  0  0  0  0
 12 14  1  0  0  0  0
 12 31  1  0  0  0  0
 13 32  1  0  0  0  0
 14 20  1  0  0  0  0
 14 15  2  0  0  0  0
 15 16  1  0  0  0  0
 15 17  1  0  0  0  0
 17 18  2  0  0  0  0
 17 33  1  0  0  0  0
 18 19  1  0  0  0  0
 18 34  1  0  0  0  0
 19 20  2  0  0  0  0
 19 35  1  0  0  0  0
 20 21  1  0  0  0  0
M  END
> <s_m_source_file>
AV-unprocessed.smi

> <i_m_source_file_index>
1821

> <i_lp_mmshare_version>
43012

> <i_f3d_flags>
0

> <s_epik_input>
W2NIXTFbY0hdW2NIXVtjSF1jKGMxMiluKGMobjIpW0NIM10pW0NIMl1bQ0BIXShbT0hdKWMzYyhGKVtjSF1bY0hdW2NIXWMzRg==

> <s_epik_cmdline>
J2VwaWtfcHl0aG9uJywgJy1waCcsICc3LjAnLCAnLXRuJywgJzgnLCAnLW1hJywgJzIwMCcsICctbWV0YWxfYmluZGluZycsICctaW1hZScsICc8aW5maWxlLm1hZT4nLCAnLW9tYWUnLCAnPG91dGZpbGUubWFlPic=

> <r_epik_Ionization_Penalty>
0.129663

> <r_epik_Ionization_Penalty_Charging>
0

> <r_epik_Ionization_Penalty_Neutral>
0.129663

> <r_epik_State_Penalty>
0.119073

> <r_epik_Charging_Adjusted_Penalty>
0.119073

> <i_epik_Tot_Q>
0

> <i_epik_Tot_abs_Q>
0

> <r_epik_Metal_State_Penalty>
0.000131867

> <b_epik_Metal_Only>
0

> <s_lp_Force_Field>
OPLS_2005

> <r_lp_Energy>
13.297

> <b_lp_Chiralities_Consistent>
1

> <s_lp_Variant>
AV-unprocessed.smi:1821-1

> <Gold.Version>
5.8.1

> <Gold.Id.Protein>
6NUR|6NUR_protein|mol2

> <Gold.PLP.Fitness>
49.0024

> <Gold.PLP.PLP>
-48.6938

> <Gold.PLP.part.hbond>
-1.0000

> <Gold.PLP.part.metal>
0.0000

> <Gold.PLP.part.buried>
-2.0507

> <Gold.PLP.part.nonpolar>
-46.4287

> <Gold.PLP.part.repulsive>
0.2182

> <Gold.PLP.ligand.clash>
0.0000

> <Gold.PLP.ligand.torsion>
1.3268

> <Gold.PLP.Chemscore.Hbond>
0.9760

> <Gold.PLP.Chemscore.CHOScore>
0.0000

> <Gold.PLP.Chemscore.Metal>
0.0000

> <Gold.Chemscore.Hbonds>
donor molecule, donor type, donor heavy atom, donor atom, acceptor molecule, acceptor atom, score
      L1  H    13    32       P1  8028  0.96

> <Gold.PLP.Chemscore.Internal.Correction>
0.0342

> <Gold.Rescore>
     Score         DG    S(hbond)    S(metal)    S(lipo)     H(rot)  DE(clash)    DE(int)     intcor
     15.17     -18.19       0.91        0.00     123.89       1.88       0.08       2.94       ----

> <Gold.Chemscore.Fitness>
15.1705

> <Gold.Chemscore.DG>
-18.1862

> <Gold.Chemscore.ZeroCoef>
-5.4800

> <Gold.Chemscore.Hbond>
0.9083

> <Gold.Chemscore.Metal>
0.0000

> <Gold.Chemscore.Lipo>
123.8903

> <Gold.Chemscore.Internal_Hbond>
0.0000

> <Gold.Chemscore.DEClash>
0.0780

> <Gold.Chemscore.DEInternal>
2.9377

> <Gold.Chemscore.Rot>
1.8839

> <Gold.Chemscore.Internal.Correction>
   9.000000E+99

> <Gold.Chemscore.Hbonds>
donor molecule, donor type, donor heavy atom, donor atom, acceptor molecule, acceptor atom, score
      L1  H    13    32       P1  8028  0.90

> <Gold.Chemscore.Hbond.Weighted>
-3.0337

> <Gold.Chemscore.Metal.Weighted>
-0.0000

> <Gold.Chemscore.Lipo.Weighted>
-14.4952

> <Gold.Chemscore.Internal_Hbond.Weighted>
0.0000

> <Gold.Chemscore.DEClash.Weighted>
0.0780

> <Gold.Chemscore.DEInternal.Weighted>
2.9377

> <Gold.Chemscore.Rot.Weighted>
4.8227

> <Gold.Chemscore.Internal.Correction.Weighted>
   9.000000E+99

> <Gold.Protein.RotatedTorsions>
[ 6907 6896 6895 6894 ] final   94.37 input  -60.11 | X-H torsion
[ 7974 7965 7964 7962 ] final   71.00 input  175.53 | X-H torsion
[ 8008 7997 7996 7995 ] final    1.12 input   59.86 | X-H torsion
[ 10167 10162 10161 10158 ] final -158.34 input  -65.29 | X-H torsion
[ 10718 10713 10712 10709 ] final   42.12 input   66.30 | X-H torsion
[ 10763 10752 10751 10750 ] final  178.65 input  -60.55 | X-H torsion
[ 11005 11000 10999 10996 ] final  -96.98 input  -57.11 | X-H torsion

> <Gold.Protein.ActiveResidues>
 VAL166  LYS551  ARG553  GLY616  TRP617  ASP618  TYR619  PRO620  LYS621  CYS622 
 ASP623  PHE694  ASN695  SER759  ASP760  ASP761  ALA762  ILE779  LEU786  VAL792 
 PHE793  MET794  SER795  GLU796  ALA797  LYS798  CYS799  TRP800  GLU811  SER814 

> <Gold.Protein.RotatedAtoms>
  152.5449  134.1203  159.8395 H   0  0  0  0  0  0  0  0  0  0  0  0  # atno 6907 bound_to 6896
  151.1260  133.5063  159.2608 H   0  0  0  0  0  0  0  0  0  0  0  0  # atno 6908 bound_to 6896
  151.1727  135.0335  159.8813 H   0  0  0  0  0  0  0  0  0  0  0  0  # atno 6909 bound_to 6896
  145.7712  139.2844  143.1320 H   0  0  0  0  0  0  0  0  0  0  0  0  # atno 7974 bound_to 7965
  154.6760  140.2622  155.6957 H   0  0  0  0  0  0  0  0  0  0  0  0  # atno 8008 bound_to 7997
  156.2678  140.2820  156.1209 H   0  0  0  0  0  0  0  0  0  0  0  0  # atno 8009 bound_to 7997
  155.1100  140.0375  157.2711 H   0  0  0  0  0  0  0  0  0  0  0  0  # atno 8010 bound_to 7997
  139.6700  143.9762  152.2278 H   0  0  0  0  0  0  0  0  0  0  0  0  # atno 10167 bound_to 10162
  157.4012  130.7861  149.7350 H   0  0  0  0  0  0  0  0  0  0  0  0  # atno 10718 bound_to 10713
  154.5104  135.2788  155.1347 H   0  0  0  0  0  0  0  0  0  0  0  0  # atno 10763 bound_to 10752
  154.2944  135.6260  153.5402 H   0  0  0  0  0  0  0  0  0  0  0  0  # atno 10764 bound_to 10752
  152.9918  135.5682  154.5569 H   0  0  0  0  0  0  0  0  0  0  0  0  # atno 10765 bound_to 10752
  141.1394  133.8137  157.0644 H   0  0  0  0  0  0  0  0  0  0  0  0  # atno 11005 bound_to 11000
  146.0168  140.8385  142.9943 LP  0  0  0  0  0  0  0  0  0  0  0  0  # atno 17320 bound_to 7965
  144.6812  140.2570  143.7324 LP  0  0  0  0  0  0  0  0  0  0  0  0  # atno 17321 bound_to 7965
  139.9524  144.6612  150.8159 LP  0  0  0  0  0  0  0  0  0  0  0  0  # atno 17342 bound_to 10162
  140.7614  143.3174  151.2701 LP  0  0  0  0  0  0  0  0  0  0  0  0  # atno 17343 bound_to 10162
  155.9824  130.4010  150.3420 LP  0  0  0  0  0  0  0  0  0  0  0  0  # atno 17370 bound_to 10713
  157.1547  131.0330  151.2868 LP  0  0  0  0  0  0  0  0  0  0  0  0  # atno 17371 bound_to 10713
  140.0551  134.9785  157.1206 LP  0  0  0  0  0  0  0  0  0  0  0  0  # atno 17394 bound_to 11000
  140.3932  134.2162  155.7165 LP  0  0  0  0  0  0  0  0  0  0  0  0  # atno 17395 bound_to 11000

$$$$
