AV-unprocessed.smi:1599|AV-procd|sdf|6426|dock5
  -GOLD-   22720 7 63D 1   1.00000     0.00000
 Structure written by MMmdl.
 39 40  0  0  0  0  0  0  0  0  1 V2000
  149.1188  134.0954  157.0958 C   0  0  0  0  0  0  0  0  0  0  0  0
  149.8736  134.8381  155.9796 C   0  0  1  0  0  0  0  0  0  0  0  0
  149.0515  134.8750  154.7728 N   0  0  0  0  0  0  0  0  0  0  0  0
  148.5030  133.8073  154.1758 C   0  0  0  0  0  0  0  0  0  0  0  0
  148.6151  132.6567  154.5994 O   0  0  0  0  0  0  0  0  0  0  0  0
  147.8251  134.1602  153.0713 N   0  0  0  0  0  0  0  0  0  0  0  0
  147.1287  133.3050  152.1804 C   0  0  0  0  0  0  0  0  0  0  0  0
  146.5792  132.0444  152.5307 C   0  0  0  0  0  0  0  0  0  0  0  0
  145.9848  131.4754  151.4929 N   0  0  0  0  0  0  0  0  0  0  0  0
  146.1445  132.3530  150.4706 N   0  0  0  0  0  0  0  0  0  0  0  0
  145.6014  132.0382  149.1587 C   0  0  0  0  0  0  0  0  0  0  0  0
  144.1531  132.5124  148.9808 C   0  0  0  0  0  0  0  0  0  0  0  0
  143.9880  133.7299  148.4578 N   0  0  0  0  0  0  0  0  0  0  0  0
  143.1974  131.8084  149.3048 O   0  0  0  0  0  0  0  0  0  0  0  0
  146.8382  133.4833  150.8574 C   0  0  0  0  0  0  0  0  0  0  0  0
  150.2434  136.2785  156.3813 C   0  0  1  0  0  0  0  0  0  0  0  0
  151.1989  136.3880  157.5710 C   0  0  0  0  0  0  0  0  0  0  0  0
  151.9040  137.7178  157.3487 C   0  0  0  0  0  0  0  0  0  0  0  0
  151.5716  138.0805  155.8990 C   0  0  0  0  0  0  0  0  0  0  0  0
  150.9882  136.9083  155.3497 O   0  0  0  0  0  0  0  0  0  0  0  0
  149.7248  134.0134  157.9981 H   0  0  0  0  0  0  0  0  0  0  0  0
  148.8584  133.0817  156.7896 H   0  0  0  0  0  0  0  0  0  0  0  0
  148.1948  134.6103  157.3608 H   0  0  0  0  0  0  0  0  0  0  0  0
  150.7978  134.2982  155.7658 H   0  0  0  0  0  0  0  0  0  0  0  0
  148.9093  135.7809  154.3507 H   0  0  0  0  0  0  0  0  0  0  0  0
  147.8105  135.1428  152.8406 H   0  0  0  0  0  0  0  0  0  0  0  0
  146.5899  131.5343  153.4826 H   0  0  0  0  0  0  0  0  0  0  0  0
  146.2288  132.4919  148.3898 H   0  0  0  0  0  0  0  0  0  0  0  0
  145.6508  130.9577  149.0176 H   0  0  0  0  0  0  0  0  0  0  0  0
  143.0584  134.0970  148.3148 H   0  0  0  0  0  0  0  0  0  0  0  0
  144.7965  134.2798  148.2050 H   0  0  0  0  0  0  0  0  0  0  0  0
  147.0538  134.2861  150.1682 H   0  0  0  0  0  0  0  0  0  0  0  0
  149.3429  136.8656  156.5736 H   0  0  0  0  0  0  0  0  0  0  0  0
  150.6828  136.3395  158.5302 H   0  0  0  0  0  0  0  0  0  0  0  0
  151.9313  135.5802  157.5430 H   0  0  0  0  0  0  0  0  0  0  0  0
  151.5385  138.4860  158.0309 H   0  0  0  0  0  0  0  0  0  0  0  0
  152.9789  137.6161  157.5016 H   0  0  0  0  0  0  0  0  0  0  0  0
  150.8445  138.8930  155.8635 H   0  0  0  0  0  0  0  0  0  0  0  0
  152.4506  138.3851  155.3307 H   0  0  0  0  0  0  0  0  0  0  0  0
  1  2  1  0  0  0  0
  1 21  1  0  0  0  0
  1 22  1  0  0  0  0
  1 23  1  0  0  0  0
  2  3  1  0  0  0  0
  2 16  1  0  0  0  0
  2 24  1  0  0  0  0
  3  4  1  0  0  0  0
  3 25  1  0  0  0  0
  4  5  2  0  0  0  0
  4  6  1  0  0  0  0
  6  7  1  0  0  0  0
  6 26  1  0  0  0  0
  7 15  2  0  0  0  0
  7  8  1  0  0  0  0
  8  9  2  0  0  0  0
  8 27  1  0  0  0  0
  9 10  1  0  0  0  0
 10 11  1  0  0  0  0
 10 15  1  0  0  0  0
 11 12  1  0  0  0  0
 11 28  1  0  0  0  0
 11 29  1  0  0  0  0
 12 13  1  0  0  0  0
 12 14  2  0  0  0  0
 13 30  1  0  0  0  0
 13 31  1  0  0  0  0
 15 32  1  0  0  0  0
 16 20  1  0  0  0  0
 16 17  1  0  0  0  0
 16 33  1  0  0  0  0
 17 18  1  0  0  0  0
 17 34  1  0  0  0  0
 17 35  1  0  0  0  0
 18 19  1  0  0  0  0
 18 36  1  0  0  0  0
 18 37  1  0  0  0  0
 19 20  1  0  0  0  0
 19 38  1  0  0  0  0
 19 39  1  0  0  0  0
M  END
> <s_m_source_file>
AV-unprocessed.smi

> <i_m_source_file_index>
1599

> <i_lp_mmshare_version>
43012

> <i_f3d_flags>
0

> <s_epik_input>
TzFbQ0gyXVtDSDJdW0NIMl1bQ0BIXTFbQ0BIXShbQ0gzXSlbTkhdQyg9TylbTkhdYzJbY0hdbm4oW2NIXTIpW0NIMl1DKD1PKVtOSDJd

> <s_epik_cmdline>
J2VwaWtfcHl0aG9uJywgJy1waCcsICc3LjAnLCAnLXRuJywgJzgnLCAnLW1hJywgJzIwMCcsICctbWV0YWxfYmluZGluZycsICctaW1hZScsICc8aW5maWxlLm1hZT4nLCAnLW9tYWUnLCAnPG91dGZpbGUubWFlPic=

> <r_lp_tautomer_probability>
1

> <r_epik_Ionization_Penalty>
4.15391e-05

> <r_epik_Ionization_Penalty_Charging>
0

> <r_epik_Ionization_Penalty_Neutral>
4.15391e-05

> <r_epik_State_Penalty>
-0

> <r_epik_Charging_Adjusted_Penalty>
0

> <i_epik_Tot_Q>
0

> <i_epik_Tot_abs_Q>
0

> <r_epik_Metal_State_Penalty>
-0

> <b_epik_Metal_Only>
0

> <s_lp_Force_Field>
OPLS_2005

> <r_lp_Energy>
23.4533

> <b_lp_Chiralities_Consistent>
1

> <s_lp_Variant>
AV-unprocessed.smi:1599-4

> <Gold.Version>
5.8.1

> <Gold.Id.Protein>
6NUR|6NUR_protein|mol2

> <Gold.PLP.Fitness>
44.0631

> <Gold.PLP.PLP>
-30.2919

> <Gold.PLP.part.hbond>
-5.7610

> <Gold.PLP.part.metal>
0.0000

> <Gold.PLP.part.buried>
-5.2915

> <Gold.PLP.part.nonpolar>
-23.2147

> <Gold.PLP.part.repulsive>
3.6924

> <Gold.PLP.ligand.clash>
0.0000

> <Gold.PLP.ligand.torsion>
0.9222

> <Gold.PLP.Chemscore.Hbond>
4.9848

> <Gold.PLP.Chemscore.CHOScore>
0.1964

> <Gold.PLP.Chemscore.Metal>
0.0000

> <Gold.Chemscore.Hbonds>
donor molecule, donor type, donor heavy atom, donor atom, acceptor molecule, acceptor atom, score
      L1  H     6    26       P1  7948  0.62
      L1  H    13    30       P1 10186  0.07
      L1  H    13    31       P1  7921  1.00
      P1  H 10785 10796       L1    14  1.00
      L1  C    15    32       P1  7921  0.09

> <Gold.PLP.Chemscore.Internal.Correction>
0.0719

> <Gold.Rescore>
     Score         DG    S(hbond)    S(metal)    S(lipo)     H(rot)  DE(clash)    DE(int)     intcor
     15.19     -19.41       3.88        0.00      58.30       2.28       1.38       2.84       ----

> <Gold.Chemscore.Fitness>
15.1868

> <Gold.Chemscore.DG>
-19.4118

> <Gold.Chemscore.ZeroCoef>
-5.4800

> <Gold.Chemscore.Hbond>
3.8781

> <Gold.Chemscore.Metal>
0.0000

> <Gold.Chemscore.Lipo>
58.3043

> <Gold.Chemscore.Internal_Hbond>
0.0000

> <Gold.Chemscore.DEClash>
1.3824

> <Gold.Chemscore.DEInternal>
2.8426

> <Gold.Chemscore.Rot>
2.2823

> <Gold.Chemscore.Internal.Correction>
   9.000000E+99

> <Gold.Chemscore.Hbonds>
donor molecule, donor type, donor heavy atom, donor atom, acceptor molecule, acceptor atom, score
      L1  H     6    26       P1  7948  0.64
      L1  H    13    30       P1 10186  0.10
      L1  H    13    31       P1  7921  0.93
      P1  H 10785 10796       L1    14  0.93

> <Gold.Chemscore.Hbond.Weighted>
-12.9529

> <Gold.Chemscore.Metal.Weighted>
-0.0000

> <Gold.Chemscore.Lipo.Weighted>
-6.8216

> <Gold.Chemscore.Internal_Hbond.Weighted>
0.0000

> <Gold.Chemscore.DEClash.Weighted>
1.3824

> <Gold.Chemscore.DEInternal.Weighted>
2.8426

> <Gold.Chemscore.Rot.Weighted>
5.8427

> <Gold.Chemscore.Internal.Correction.Weighted>
   9.000000E+99

> <Gold.Protein.RotatedTorsions>
[ 6907 6896 6895 6894 ] final -108.48 input  -60.11 | X-H torsion
[ 7974 7965 7964 7962 ] final  108.89 input  175.53 | X-H torsion
[ 8008 7997 7996 7995 ] final  166.01 input   59.86 | X-H torsion
[ 10167 10162 10161 10158 ] final  -23.35 input  -65.29 | X-H torsion
[ 10718 10713 10712 10709 ] final -120.42 input   66.30 | X-H torsion
[ 10763 10752 10751 10750 ] final   45.76 input  -60.55 | X-H torsion
[ 11005 11000 10999 10996 ] final  -69.87 input  -57.11 | X-H torsion

> <Gold.Protein.ActiveResidues>
 VAL166  LYS551  ARG553  GLY616  TRP617  ASP618  TYR619  PRO620  LYS621  CYS622 
 ASP623  PHE694  ASN695  SER759  ASP760  ASP761  ALA762  ILE779  LEU786  VAL792 
 PHE793  MET794  SER795  GLU796  ALA797  LYS798  CYS799  TRP800  GLU811  SER814 

> <Gold.Protein.RotatedAtoms>
  150.7504  133.9672  159.3533 H   0  0  0  0  0  0  0  0  0  0  0  0  # atno 6907 bound_to 6896
  151.7602  135.0810  160.0354 H   0  0  0  0  0  0  0  0  0  0  0  0  # atno 6908 bound_to 6896
  152.3408  133.6027  159.5911 H   0  0  0  0  0  0  0  0  0  0  0  0  # atno 6909 bound_to 6896
  145.2749  139.2653  143.3946 H   0  0  0  0  0  0  0  0  0  0  0  0  # atno 7974 bound_to 7965
  156.1753  140.1654  156.8373 H   0  0  0  0  0  0  0  0  0  0  0  0  # atno 8008 bound_to 7997
  154.5300  140.0759  156.8362 H   0  0  0  0  0  0  0  0  0  0  0  0  # atno 8009 bound_to 7997
  155.3426  140.3385  155.4241 H   0  0  0  0  0  0  0  0  0  0  0  0  # atno 8010 bound_to 7997
  140.7288  143.4451  151.0599 H   0  0  0  0  0  0  0  0  0  0  0  0  # atno 10167 bound_to 10162
  156.1257  130.6357  150.9538 H   0  0  0  0  0  0  0  0  0  0  0  0  # atno 10718 bound_to 10713
  152.9820  135.6029  154.3488 H   0  0  0  0  0  0  0  0  0  0  0  0  # atno 10763 bound_to 10752
  154.3179  135.2770  155.2536 H   0  0  0  0  0  0  0  0  0  0  0  0  # atno 10764 bound_to 10752
  154.4715  135.5940  153.6381 H   0  0  0  0  0  0  0  0  0  0  0  0  # atno 10765 bound_to 10752
  141.1563  133.6775  156.6666 H   0  0  0  0  0  0  0  0  0  0  0  0  # atno 11005 bound_to 11000
  146.3235  140.3201  142.8632 LP  0  0  0  0  0  0  0  0  0  0  0  0  # atno 17320 bound_to 7965
  144.9303  140.7967  143.5693 LP  0  0  0  0  0  0  0  0  0  0  0  0  # atno 17321 bound_to 7965
  139.8122  143.7936  152.3172 LP  0  0  0  0  0  0  0  0  0  0  0  0  # atno 17342 bound_to 10162
  139.7989  144.7382  150.9852 LP  0  0  0  0  0  0  0  0  0  0  0  0  # atno 17343 bound_to 10162
  157.6438  131.0907  150.8196 LP  0  0  0  0  0  0  0  0  0  0  0  0  # atno 17370 bound_to 10713
  156.8286  130.5008  149.5334 LP  0  0  0  0  0  0  0  0  0  0  0  0  # atno 17371 bound_to 10713
  140.3207  134.8010  157.4250 LP  0  0  0  0  0  0  0  0  0  0  0  0  # atno 17394 bound_to 11000
  140.1099  134.5359  155.8275 LP  0  0  0  0  0  0  0  0  0  0  0  0  # atno 17395 bound_to 11000

$$$$
