AV-unprocessed.smi:3166|AV-procd|sdf|12094|dock2
  -GOLD-   2272017523D 1   1.00000     0.00000
 Structure written by MMmdl.
 41 42  0  0  0  0  0  0  0  0  2 V2000
  146.8953  142.2242  154.8574 C   0  0  0  0  0  0  0  0  0  0  0  0
  148.1048  141.4340  155.3841 C   0  0  1  0  0  0  0  0  0  0  0  0
  149.0526  141.0588  154.2265 C   0  0  0  0  0  0  0  0  0  0  0  0
  149.7383  139.7952  154.4398 N   0  0  0  0  0  0  0  0  0  0  0  0
  149.1943  138.5313  154.5357 C   0  0  0  0  0  0  0  0  0  0  0  0
  150.2231  137.6615  154.7580 C   0  0  0  0  0  0  0  0  0  0  0  0
  151.3728  138.4986  154.7923 C   0  0  0  0  0  0  0  0  0  0  0  0
  151.0788  139.7752  154.6057 N   0  0  0  0  0  0  0  0  0  0  0  0
  148.8406  142.2040  156.4128 N   0  3  0  0  0  0  0  0  0  0  0  0
  150.0953  141.5867  156.8960 C   0  0  0  0  0  0  0  0  0  0  0  0
  150.6869  142.3411  158.1071 C   0  0  0  0  0  0  0  0  0  0  0  0
  149.6039  142.6897  158.9514 O   0  0  0  0  0  0  0  0  0  0  0  0
  151.6968  141.4713  158.8971 C   0  0  0  0  0  0  0  0  0  0  0  0
  152.3961  142.2458  160.0286 C   0  0  0  0  0  0  0  0  0  0  0  0
  153.0750  143.5169  159.5007 C   0  0  0  0  0  0  0  0  0  0  0  0
  152.0679  144.4127  158.7667 C   0  0  0  0  0  0  0  0  0  0  0  0
  151.3623  143.6495  157.6313 C   0  0  0  0  0  0  0  0  0  0  0  0
  146.3770  141.6671  154.0763 H   0  0  0  0  0  0  0  0  0  0  0  0
  147.2003  143.1815  154.4333 H   0  0  0  0  0  0  0  0  0  0  0  0
  146.1664  142.4229  155.6427 H   0  0  0  0  0  0  0  0  0  0  0  0
  147.7392  140.5125  155.8401 H   0  0  0  0  0  0  0  0  0  0  0  0
  148.4944  140.9820  153.2924 H   0  0  0  0  0  0  0  0  0  0  0  0
  149.7996  141.8405  154.0795 H   0  0  0  0  0  0  0  0  0  0  0  0
  148.1328  138.3563  154.4394 H   0  0  0  0  0  0  0  0  0  0  0  0
  150.1634  136.5903  154.8828 H   0  0  0  0  0  0  0  0  0  0  0  0
  152.4042  138.2187  154.9488 H   0  0  0  0  0  0  0  0  0  0  0  0
  149.0950  143.0915  156.0015 H   0  0  0  0  0  0  0  0  0  0  0  0
  149.9058  140.5484  157.1686 H   0  0  0  0  0  0  0  0  0  0  0  0
  150.8194  141.5715  156.0798 H   0  0  0  0  0  0  0  0  0  0  0  0
  148.7996  142.5839  158.4655 H   0  0  0  0  0  0  0  0  0  0  0  0
  151.2043  140.5936  159.3169 H   0  0  0  0  0  0  0  0  0  0  0  0
  152.4571  141.0922  158.2124 H   0  0  0  0  0  0  0  0  0  0  0  0
  151.6709  142.5109  160.7991 H   0  0  0  0  0  0  0  0  0  0  0  0
  153.1351  141.6063  160.5122 H   0  0  0  0  0  0  0  0  0  0  0  0
  153.5297  144.0661  160.3257 H   0  0  0  0  0  0  0  0  0  0  0  0
  153.8867  143.2457  158.8244 H   0  0  0  0  0  0  0  0  0  0  0  0
  151.3296  144.7917  159.4743 H   0  0  0  0  0  0  0  0  0  0  0  0
  152.5787  145.2866  158.3615 H   0  0  0  0  0  0  0  0  0  0  0  0
  152.1005  143.4132  156.8634 H   0  0  0  0  0  0  0  0  0  0  0  0
  150.6309  144.3020  157.1524 H   0  0  0  0  0  0  0  0  0  0  0  0
  148.2303  142.3796  157.1977 H   0  0  0  0  0  0  0  0  0  0  0  0
  1  2  1  0  0  0  0
  1 18  1  0  0  0  0
  1 19  1  0  0  0  0
  1 20  1  0  0  0  0
  2  3  1  0  0  0  0
  2  9  1  0  0  0  0
  2 21  1  0  0  0  0
  3  4  1  0  0  0  0
  3 22  1  0  0  0  0
  3 23  1  0  0  0  0
  4  8  1  0  0  0  0
  4  5  1  0  0  0  0
  5  6  2  0  0  0  0
  5 24  1  0  0  0  0
  6  7  1  0  0  0  0
  6 25  1  0  0  0  0
  7  8  2  0  0  0  0
  7 26  1  0  0  0  0
  9 10  1  0  0  0  0
  9 27  1  0  0  0  0
  9 41  1  0  0  0  0
 10 11  1  0  0  0  0
 10 28  1  0  0  0  0
 10 29  1  0  0  0  0
 11 17  1  0  0  0  0
 11 12  1  0  0  0  0
 11 13  1  0  0  0  0
 12 30  1  0  0  0  0
 13 14  1  0  0  0  0
 13 31  1  0  0  0  0
 13 32  1  0  0  0  0
 14 15  1  0  0  0  0
 14 33  1  0  0  0  0
 14 34  1  0  0  0  0
 15 16  1  0  0  0  0
 15 35  1  0  0  0  0
 15 36  1  0  0  0  0
 16 17  1  0  0  0  0
 16 37  1  0  0  0  0
 16 38  1  0  0  0  0
 17 39  1  0  0  0  0
 17 40  1  0  0  0  0
M  CHG  1   9   1
M  END
> <s_m_source_file>
AV-unprocessed.smi

> <i_m_source_file_index>
3166

> <i_lp_mmshare_version>
43012

> <i_f3d_flags>
0

> <s_epik_input>
bjFbY0hdW2NIXVtjSF1uMVtDSDJdW0NAQEhdKFtDSDNdKVtOSF1bQ0gyXUMyKFtPSF0pW0NIMl1bQ0gyXVtDSDJdW0NIMl1bQ0gyXTI=

> <s_epik_cmdline>
J2VwaWtfcHl0aG9uJywgJy1waCcsICc3LjAnLCAnLXRuJywgJzgnLCAnLW1hJywgJzIwMCcsICctbWV0YWxfYmluZGluZycsICctaW1hZScsICc8aW5maWxlLm1hZT4nLCAnLW9tYWUnLCAnPG91dGZpbGUubWFlPic=

> <r_lp_tautomer_probability>
1

> <r_epik_Ionization_Penalty>
0.0111521

> <r_epik_Ionization_Penalty_Charging>
0.0111472

> <r_epik_Ionization_Penalty_Neutral>
4.96355e-06

> <r_epik_State_Penalty>
0.00856328

> <r_epik_Charging_Adjusted_Penalty>
0.0197104

> <i_epik_Tot_Q>
1

> <i_epik_Tot_abs_Q>
1

> <r_epik_Metal_State_Penalty>
0.00856387

> <b_epik_Metal_Only>
0

> <s_lp_Force_Field>
OPLS_2005

> <r_lp_Energy>
16.9358

> <b_lp_Chiralities_Consistent>
1

> <s_lp_Variant>
AV-unprocessed.smi:3166-2

> <Gold.Version>
5.8.1

> <Gold.Id.Protein>
6NUR|6NUR_protein|mol2

> <Gold.PLP.Fitness>
49.6183

> <Gold.PLP.PLP>
-41.9179

> <Gold.PLP.part.hbond>
-2.9926

> <Gold.PLP.part.metal>
0.0000

> <Gold.PLP.part.buried>
-3.3023

> <Gold.PLP.part.nonpolar>
-36.5550

> <Gold.PLP.part.repulsive>
0.1181

> <Gold.PLP.ligand.clash>
0.0000

> <Gold.PLP.ligand.torsion>
0.6835

> <Gold.PLP.Chemscore.Hbond>
2.9913

> <Gold.PLP.Chemscore.CHOScore>
0.0000

> <Gold.PLP.Chemscore.Metal>
0.0000

> <Gold.Chemscore.Hbonds>
donor molecule, donor type, donor heavy atom, donor atom, acceptor molecule, acceptor atom, score
      L1  H     9    27       P1  8028  2.00
      P1  H  7989  7998       L1     8  1.00

> <Gold.PLP.Chemscore.Internal.Correction>
0.0937

> <Gold.Rescore>
     Score         DG    S(hbond)    S(metal)    S(lipo)     H(rot)  DE(clash)    DE(int)     intcor
     18.13     -18.87       1.98        0.00     106.02       2.20       0.00       0.74       ----

> <Gold.Chemscore.Fitness>
18.1268

> <Gold.Chemscore.DG>
-18.8736

> <Gold.Chemscore.ZeroCoef>
-5.4800

> <Gold.Chemscore.Hbond>
1.9819

> <Gold.Chemscore.Metal>
0.0000

> <Gold.Chemscore.Lipo>
106.0156

> <Gold.Chemscore.Internal_Hbond>
0.0000

> <Gold.Chemscore.DEClash>
0.0048

> <Gold.Chemscore.DEInternal>
0.7420

> <Gold.Chemscore.Rot>
2.1991

> <Gold.Chemscore.Internal.Correction>
   9.000000E+99

> <Gold.Chemscore.Hbonds>
donor molecule, donor type, donor heavy atom, donor atom, acceptor molecule, acceptor atom, score
      L1  H     9    27       P1  8028  0.97
      P1  H  7989  7998       L1     8  0.45

> <Gold.Chemscore.Hbond.Weighted>
-6.6195

> <Gold.Chemscore.Metal.Weighted>
-0.0000

> <Gold.Chemscore.Lipo.Weighted>
-12.4038

> <Gold.Chemscore.Internal_Hbond.Weighted>
0.0000

> <Gold.Chemscore.DEClash.Weighted>
0.0048

> <Gold.Chemscore.DEInternal.Weighted>
0.7420

> <Gold.Chemscore.Rot.Weighted>
5.6298

> <Gold.Chemscore.Internal.Correction.Weighted>
   9.000000E+99

> <Gold.Protein.RotatedTorsions>
[ 6907 6896 6895 6894 ] final  -55.50 input  -60.11 | X-H torsion
[ 7974 7965 7964 7962 ] final  101.22 input  175.53 | X-H torsion
[ 8008 7997 7996 7995 ] final  159.68 input   59.86 | X-H torsion
[ 10167 10162 10161 10158 ] final   12.80 input  -65.29 | X-H torsion
[ 10718 10713 10712 10709 ] final   34.82 input   66.30 | X-H torsion
[ 10763 10752 10751 10750 ] final  -41.51 input  -60.55 | X-H torsion
[ 11005 11000 10999 10996 ] final  163.04 input  -57.11 | X-H torsion

> <Gold.Protein.ActiveResidues>
 VAL166  LYS551  ARG553  GLY616  TRP617  ASP618  TYR619  PRO620  LYS621  CYS622 
 ASP623  PHE694  ASN695  SER759  ASP760  ASP761  ALA762  ILE779  LEU786  VAL792 
 PHE793  MET794  SER795  GLU796  ALA797  LYS798  CYS799  TRP800  GLU811  SER814 

> <Gold.Protein.RotatedAtoms>
  150.8247  134.7472  159.6801 H   0  0  0  0  0  0  0  0  0  0  0  0  # atno 6907 bound_to 6896
  152.4359  134.5684  159.9924 H   0  0  0  0  0  0  0  0  0  0  0  0  # atno 6908 bound_to 6896
  151.5860  133.3334  159.3054 H   0  0  0  0  0  0  0  0  0  0  0  0  # atno 6909 bound_to 6896
  145.3752  139.2390  143.3434 H   0  0  0  0  0  0  0  0  0  0  0  0  # atno 7974 bound_to 7965
  156.2223  140.1825  156.7447 H   0  0  0  0  0  0  0  0  0  0  0  0  # atno 8008 bound_to 7997
  154.5885  140.0654  156.9233 H   0  0  0  0  0  0  0  0  0  0  0  0  # atno 8009 bound_to 7997
  155.2378  140.3319  155.4298 H   0  0  0  0  0  0  0  0  0  0  0  0  # atno 8010 bound_to 7997
  140.6044  143.8538  150.6999 H   0  0  0  0  0  0  0  0  0  0  0  0  # atno 10167 bound_to 10162
  157.3151  130.7419  149.6749 H   0  0  0  0  0  0  0  0  0  0  0  0  # atno 10718 bound_to 10713
  153.9638  135.6736  153.4745 H   0  0  0  0  0  0  0  0  0  0  0  0  # atno 10763 bound_to 10752
  153.0825  135.4915  154.8529 H   0  0  0  0  0  0  0  0  0  0  0  0  # atno 10764 bound_to 10752
  154.7258  135.3127  154.8934 H   0  0  0  0  0  0  0  0  0  0  0  0  # atno 10765 bound_to 10752
  140.2317  134.8118  157.3324 H   0  0  0  0  0  0  0  0  0  0  0  0  # atno 11005 bound_to 11000
  146.2867  140.4410  142.8755 LP  0  0  0  0  0  0  0  0  0  0  0  0  # atno 17320 bound_to 7965
  144.8548  140.7054  143.6145 LP  0  0  0  0  0  0  0  0  0  0  0  0  # atno 17321 bound_to 7965
  140.2091  143.3898  152.1732 LP  0  0  0  0  0  0  0  0  0  0  0  0  # atno 17342 bound_to 10162
  139.5314  144.7163  151.5042 LP  0  0  0  0  0  0  0  0  0  0  0  0  # atno 17343 bound_to 10162
  155.9681  130.4240  150.4587 LP  0  0  0  0  0  0  0  0  0  0  0  0  # atno 17370 bound_to 10713
  157.2592  131.0563  151.2331 LP  0  0  0  0  0  0  0  0  0  0  0  0  # atno 17371 bound_to 10713
  140.1743  134.4569  155.7811 LP  0  0  0  0  0  0  0  0  0  0  0  0  # atno 17394 bound_to 11000
  141.2217  133.6955  156.7761 LP  0  0  0  0  0  0  0  0  0  0  0  0  # atno 17395 bound_to 11000

$$$$
