AV-unprocessed.smi:461|AV-procd|sdf|2630|dock8
  -GOLD-   2262023 33D 1   1.00000     0.00000
 Structure written by MMmdl.
 33 34  0  0  0  0  0  0  0  0  1 V2000
  147.8393  141.8586  153.9929 C   0  0  0  0  0  0  0  0  0  0  0  0
  149.0903  141.2509  154.4490 N   0  0  0  0  0  0  0  0  0  0  0  0
  149.7623  142.0076  155.3951 N   0  0  0  0  0  0  0  0  0  0  0  0
  150.8913  141.5358  155.8369 C   0  0  0  0  0  0  0  0  0  0  0  0
  151.7152  142.1416  156.7765 N   0  0  0  0  0  0  0  0  0  0  0  0
  151.4495  143.4159  157.4283 C   0  0  0  0  0  0  0  0  0  0  0  0
  151.3929  143.2932  158.9608 C   0  0  2  0  0  0  0  0  0  0  0  0
  151.6591  144.6078  159.6880 C   0  0  0  0  0  0  0  0  0  0  0  0
  152.0712  144.1481  161.0748 C   0  0  0  0  0  0  0  0  0  0  0  0
  152.5950  142.7268  160.8467 C   0  0  0  0  0  0  0  0  0  0  0  0
  152.4428  142.4758  159.4547 O   0  0  0  0  0  0  0  0  0  0  0  0
  151.4322  140.2058  155.3362 C   0  0  0  0  0  0  0  0  0  0  0  0
  152.5067  139.7686  155.7590 O   0  0  0  0  0  0  0  0  0  0  0  0
  150.6655  139.5581  154.4156 N   0  0  0  0  0  0  0  0  0  0  0  0
  151.1717  138.2648  153.9208 C   0  0  0  0  0  0  0  0  0  0  0  0
  149.4849  140.0486  153.9359 C   0  0  0  0  0  0  0  0  0  0  0  0
  148.8081  139.4559  153.0920 O   0  0  0  0  0  0  0  0  0  0  0  0
  146.9937  141.2011  154.1989 H   0  0  0  0  0  0  0  0  0  0  0  0
  147.8725  142.0480  152.9191 H   0  0  0  0  0  0  0  0  0  0  0  0
  147.6393  142.8112  154.4868 H   0  0  0  0  0  0  0  0  0  0  0  0
  150.4855  143.7668  157.0590 H   0  0  0  0  0  0  0  0  0  0  0  0
  152.1850  144.1626  157.1249 H   0  0  0  0  0  0  0  0  0  0  0  0
  150.4323  142.8845  159.2808 H   0  0  0  0  0  0  0  0  0  0  0  0
  152.4870  145.1383  159.2155 H   0  0  0  0  0  0  0  0  0  0  0  0
  150.7938  145.2710  159.6987 H   0  0  0  0  0  0  0  0  0  0  0  0
  152.8228  144.8042  161.5146 H   0  0  0  0  0  0  0  0  0  0  0  0
  151.2099  144.1271  161.7436 H   0  0  0  0  0  0  0  0  0  0  0  0
  153.6408  142.6206  161.1356 H   0  0  0  0  0  0  0  0  0  0  0  0
  152.0098  142.0040  161.4165 H   0  0  0  0  0  0  0  0  0  0  0  0
  150.4897  137.7311  153.2579 H   0  0  0  0  0  0  0  0  0  0  0  0
  151.3793  137.5890  154.7524 H   0  0  0  0  0  0  0  0  0  0  0  0
  152.1012  138.4105  153.3682 H   0  0  0  0  0  0  0  0  0  0  0  0
  152.6112  141.7367  157.0079 H   0  0  0  0  0  0  0  0  0  0  0  0
  1 18  1  0  0  0  0
  1 19  1  0  0  0  0
  1 20  1  0  0  0  0
  1  2  1  0  0  0  0
  2 16  1  0  0  0  0
  2  3  1  0  0  0  0
  3  4  2  0  0  0  0
  4 12  1  0  0  0  0
  4  5  1  0  0  0  0
  5  6  1  0  0  0  0
  5 33  1  0  0  0  0
  6  7  1  0  0  0  0
  6 21  1  0  0  0  0
  6 22  1  0  0  0  0
  7 11  1  0  0  0  0
  7  8  1  0  0  0  0
  7 23  1  0  0  0  0
  8  9  1  0  0  0  0
  8 24  1  0  0  0  0
  8 25  1  0  0  0  0
  9 10  1  0  0  0  0
  9 26  1  0  0  0  0
  9 27  1  0  0  0  0
 10 11  1  0  0  0  0
 10 28  1  0  0  0  0
 10 29  1  0  0  0  0
 12 13  2  0  0  0  0
 12 14  1  0  0  0  0
 14 15  1  0  0  0  0
 14 16  1  0  0  0  0
 15 30  1  0  0  0  0
 15 31  1  0  0  0  0
 15 32  1  0  0  0  0
 16 17  2  0  0  0  0
M  END
> <s_m_source_file>
AV-unprocessed.smi

> <i_m_source_file_index>
461

> <i_lp_mmshare_version>
43012

> <i_f3d_flags>
0

> <s_epik_input>
Tz1jMW4oW0NIM10pYyg9TyljKG5uMVtDSDNdKVtOSF1bQ0gyXVtDQEBIXTJbQ0gyXVtDSDJdW0NIMl1PMg==

> <s_epik_cmdline>
J2VwaWtfcHl0aG9uJywgJy1waCcsICc3LjAnLCAnLXRuJywgJzgnLCAnLW1hJywgJzIwMCcsICctbWV0YWxfYmluZGluZycsICctaW1hZScsICc8aW5maWxlLm1hZT4nLCAnLW9tYWUnLCAnPG91dGZpbGUubWFlPic=

> <r_lp_tautomer_probability>
1

> <r_epik_Ionization_Penalty>
0.000103292

> <r_epik_Ionization_Penalty_Charging>
5.59445e-09

> <r_epik_Ionization_Penalty_Neutral>
0.000103287

> <r_epik_State_Penalty>
-0

> <r_epik_Charging_Adjusted_Penalty>
5.59445e-09

> <i_epik_Tot_Q>
0

> <i_epik_Tot_abs_Q>
0

> <r_epik_Metal_State_Penalty>
-0

> <b_epik_Metal_Only>
0

> <s_lp_Force_Field>
OPLS_2005

> <r_lp_Energy>
41.4084

> <b_lp_Chiralities_Consistent>
1

> <s_lp_Variant>
AV-unprocessed.smi:461-1

> <Gold.Version>
5.8.1

> <Gold.Id.Protein>
6NUR|6NUR_protein|mol2

> <Gold.PLP.Fitness>
38.7595

> <Gold.PLP.PLP>
-36.1145

> <Gold.PLP.part.hbond>
-1.0000

> <Gold.PLP.part.metal>
0.0000

> <Gold.PLP.part.buried>
-4.0785

> <Gold.PLP.part.nonpolar>
-33.1598

> <Gold.PLP.part.repulsive>
2.5583

> <Gold.PLP.ligand.clash>
0.0000

> <Gold.PLP.ligand.torsion>
0.1821

> <Gold.PLP.Chemscore.Hbond>
1.0000

> <Gold.PLP.Chemscore.CHOScore>
0.0000

> <Gold.PLP.Chemscore.Metal>
0.0000

> <Gold.Chemscore.Hbonds>
donor molecule, donor type, donor heavy atom, donor atom, acceptor molecule, acceptor atom, score
      P1  H  7997  8009       L1    13  1.00

> <Gold.PLP.Chemscore.Internal.Correction>
0.0092

> <Gold.Rescore>
     Score         DG    S(hbond)    S(metal)    S(lipo)     H(rot)  DE(clash)    DE(int)     intcor
     12.97     -13.85       1.00        0.00      71.34       1.30       0.62       0.26       ----

> <Gold.Chemscore.Fitness>
12.9652

> <Gold.Chemscore.DG>
-13.8506

> <Gold.Chemscore.ZeroCoef>
-5.4800

> <Gold.Chemscore.Hbond>
1.0000

> <Gold.Chemscore.Metal>
0.0000

> <Gold.Chemscore.Lipo>
71.3411

> <Gold.Chemscore.Internal_Hbond>
0.0000

> <Gold.Chemscore.DEClash>
0.6216

> <Gold.Chemscore.DEInternal>
0.2638

> <Gold.Chemscore.Rot>
1.2954

> <Gold.Chemscore.Internal.Correction>
   9.000000E+99

> <Gold.Chemscore.Hbonds>
donor molecule, donor type, donor heavy atom, donor atom, acceptor molecule, acceptor atom, score
      P1  H  7997  8009       L1    13  1.00

> <Gold.Chemscore.Hbond.Weighted>
-3.3400

> <Gold.Chemscore.Metal.Weighted>
-0.0000

> <Gold.Chemscore.Lipo.Weighted>
-8.3469

> <Gold.Chemscore.Internal_Hbond.Weighted>
0.0000

> <Gold.Chemscore.DEClash.Weighted>
0.6216

> <Gold.Chemscore.DEInternal.Weighted>
0.2638

> <Gold.Chemscore.Rot.Weighted>
3.3163

> <Gold.Chemscore.Internal.Correction.Weighted>
   9.000000E+99

> <Gold.Protein.RotatedTorsions>
[ 6907 6896 6895 6894 ] final  -82.44 input  -60.11 | X-H torsion
[ 7974 7965 7964 7962 ] final -155.73 input  175.53 | X-H torsion
[ 8008 7997 7996 7995 ] final -155.82 input   59.86 | X-H torsion
[ 10167 10162 10161 10158 ] final   17.81 input  -65.29 | X-H torsion
[ 10718 10713 10712 10709 ] final -178.49 input   66.30 | X-H torsion
[ 10763 10752 10751 10750 ] final   -6.93 input  -60.55 | X-H torsion
[ 11005 11000 10999 10996 ] final   74.90 input  -57.11 | X-H torsion

> <Gold.Protein.ActiveResidues>
 VAL166  LYS551  ARG553  GLY616  TRP617  ASP618  TYR619  PRO620  LYS621  CYS622 
 ASP623  PHE694  ASN695  SER759  ASP760  ASP761  ALA762  ILE779  LEU786  VAL792 
 PHE793  MET794  SER795  GLU796  ALA797  LYS798  CYS799  TRP800  GLU811  SER814 

> <Gold.Protein.RotatedAtoms>
  150.6897  134.3665  159.4972 H   0  0  0  0  0  0  0  0  0  0  0  0  # atno 6907 bound_to 6896
  152.1486  134.9003  160.0558 H   0  0  0  0  0  0  0  0  0  0  0  0  # atno 6908 bound_to 6896
  152.0109  133.3826  159.4256 H   0  0  0  0  0  0  0  0  0  0  0  0  # atno 6909 bound_to 6896
  144.7626  140.4208  143.5965 H   0  0  0  0  0  0  0  0  0  0  0  0  # atno 7974 bound_to 7965
  155.7077  140.0774  157.2384 H   0  0  0  0  0  0  0  0  0  0  0  0  # atno 8008 bound_to 7997
  154.4063  140.1636  156.2315 H   0  0  0  0  0  0  0  0  0  0  0  0  # atno 8009 bound_to 7997
  155.9311  140.3391  155.6252 H   0  0  0  0  0  0  0  0  0  0  0  0  # atno 8010 bound_to 7997
  140.5699  143.9181  150.6705 H   0  0  0  0  0  0  0  0  0  0  0  0  # atno 10167 bound_to 10162
  156.8451  130.9699  151.3097 H   0  0  0  0  0  0  0  0  0  0  0  0  # atno 10718 bound_to 10713
  153.4192  135.7009  153.6305 H   0  0  0  0  0  0  0  0  0  0  0  0  # atno 10763 bound_to 10752
  153.4767  135.3702  155.2420 H   0  0  0  0  0  0  0  0  0  0  0  0  # atno 10764 bound_to 10752
  154.8721  135.4056  154.3558 H   0  0  0  0  0  0  0  0  0  0  0  0  # atno 10765 bound_to 10752
  139.9369  134.7472  156.1205 H   0  0  0  0  0  0  0  0  0  0  0  0  # atno 11005 bound_to 11000
  145.6570  139.1575  143.2829 LP  0  0  0  0  0  0  0  0  0  0  0  0  # atno 17320 bound_to 7965
  146.1704  140.6654  142.9236 LP  0  0  0  0  0  0  0  0  0  0  0  0  # atno 17321 bound_to 7965
  140.2653  143.3494  152.1286 LP  0  0  0  0  0  0  0  0  0  0  0  0  # atno 17342 bound_to 10162
  139.5112  144.6897  151.5794 LP  0  0  0  0  0  0  0  0  0  0  0  0  # atno 17343 bound_to 10162
  157.6334  130.8747  149.9315 LP  0  0  0  0  0  0  0  0  0  0  0  0  # atno 17370 bound_to 10713
  156.0859  130.3668  150.0488 LP  0  0  0  0  0  0  0  0  0  0  0  0  # atno 17371 bound_to 10713
  141.0986  133.6686  156.2703 LP  0  0  0  0  0  0  0  0  0  0  0  0  # atno 17394 bound_to 11000
  140.6053  134.5514  157.5524 LP  0  0  0  0  0  0  0  0  0  0  0  0  # atno 17395 bound_to 11000

$$$$
