AV-unprocessed.smi:1216|AV-procd|sdf|5098|dock5
  -GOLD-   22720 4153D 1   1.00000     0.00000
 Structure written by MMmdl.
 43 44  0  0  0  0  0  0  0  0  2 V2000
  151.2088  141.2927  156.9016 C   0  0  0  0  0  0  0  0  0  0  0  0
  151.3325  141.6303  158.3932 C   0  0  2  0  0  0  0  0  0  0  0  0
  152.5506  142.5397  158.6635 C   0  0  0  0  0  0  0  0  0  0  0  0
  152.8344  142.7042  160.0938 N   0  0  0  0  0  0  0  0  0  0  0  0
  152.1901  143.5287  160.9799 C   0  0  0  0  0  0  0  0  0  0  0  0
  152.7820  143.3296  162.2006 C   0  0  0  0  0  0  0  0  0  0  0  0
  153.7658  142.3975  162.0069 N   0  3  0  0  0  0  0  0  0  0  0  0
  153.8005  142.0235  160.7241 C   0  0  0  0  0  0  0  0  0  0  0  0
  151.4321  140.3862  159.1556 N   0  0  0  0  0  0  0  0  0  0  0  0
  152.5237  139.6103  159.2473 C   0  0  0  0  0  0  0  0  0  0  0  0
  153.5994  139.8905  158.7164 O   0  0  0  0  0  0  0  0  0  0  0  0
  152.3656  138.3182  160.0588 C   0  0  0  0  0  0  0  0  0  0  0  0
  153.5834  137.9582  160.8012 N   0  0  0  0  0  0  0  0  0  0  0  0
  154.0430  138.9133  161.8221 C   0  0  0  0  0  0  0  0  0  0  0  0
  153.8833  138.4004  163.2719 C   0  0  0  0  0  0  0  0  0  0  0  0
  153.9975  136.8759  163.4705 C   0  0  0  0  0  0  0  0  0  0  0  0
  155.2599  136.2308  162.8617 C   0  0  0  0  0  0  0  0  0  0  0  0
  155.5206  136.5024  161.3608 C   0  0  0  0  0  0  0  0  0  0  0  0
  154.2573  136.8095  160.5400 C   0  0  0  0  0  0  0  0  0  0  0  0
  153.9051  136.0072  159.6741 O   0  0  0  0  0  0  0  0  0  0  0  0
  151.1078  142.1974  156.3015 H   0  0  0  0  0  0  0  0  0  0  0  0
  150.3314  140.6737  156.7106 H   0  0  0  0  0  0  0  0  0  0  0  0
  152.0841  140.7508  156.5415 H   0  0  0  0  0  0  0  0  0  0  0  0
  150.4252  142.1667  158.6773 H   0  0  0  0  0  0  0  0  0  0  0  0
  153.4438  142.1493  158.1731 H   0  0  0  0  0  0  0  0  0  0  0  0
  152.3767  143.5361  158.2551 H   0  0  0  0  0  0  0  0  0  0  0  0
  151.3732  144.1714  160.6857 H   0  0  0  0  0  0  0  0  0  0  0  0
  152.5807  143.7683  163.1670 H   0  0  0  0  0  0  0  0  0  0  0  0
  154.4662  141.2994  160.2892 H   0  0  0  0  0  0  0  0  0  0  0  0
  150.5974  140.0808  159.6350 H   0  0  0  0  0  0  0  0  0  0  0  0
  151.5230  138.4400  160.7404 H   0  0  0  0  0  0  0  0  0  0  0  0
  152.0832  137.4991  159.3946 H   0  0  0  0  0  0  0  0  0  0  0  0
  155.0859  139.1669  161.6324 H   0  0  0  0  0  0  0  0  0  0  0  0
  153.5219  139.8662  161.7225 H   0  0  0  0  0  0  0  0  0  0  0  0
  154.6109  138.9073  163.9064 H   0  0  0  0  0  0  0  0  0  0  0  0
  152.9055  138.7099  163.6427 H   0  0  0  0  0  0  0  0  0  0  0  0
  153.9715  136.6588  164.5389 H   0  0  0  0  0  0  0  0  0  0  0  0
  153.1093  136.3906  163.0636 H   0  0  0  0  0  0  0  0  0  0  0  0
  156.1318  136.5580  163.4290 H   0  0  0  0  0  0  0  0  0  0  0  0
  155.1992  135.1530  163.0170 H   0  0  0  0  0  0  0  0  0  0  0  0
  156.2252  137.3260  161.2458 H   0  0  0  0  0  0  0  0  0  0  0  0
  156.0290  135.6413  160.9255 H   0  0  0  0  0  0  0  0  0  0  0  0
  154.3773  142.0371  162.7287 H   0  0  0  0  0  0  0  0  0  0  0  0
  1  2  1  0  0  0  0
  1 21  1  0  0  0  0
  1 22  1  0  0  0  0
  1 23  1  0  0  0  0
  2  3  1  0  0  0  0
  2  9  1  0  0  0  0
  2 24  1  0  0  0  0
  3  4  1  0  0  0  0
  3 25  1  0  0  0  0
  3 26  1  0  0  0  0
  4  8  1  0  0  0  0
  4  5  1  0  0  0  0
  5  6  2  0  0  0  0
  5 27  1  0  0  0  0
  6  7  1  0  0  0  0
  6 28  1  0  0  0  0
  7  8  2  0  0  0  0
  7 43  1  0  0  0  0
  8 29  1  0  0  0  0
  9 10  1  0  0  0  0
  9 30  1  0  0  0  0
 10 11  2  0  0  0  0
 10 12  1  0  0  0  0
 12 13  1  0  0  0  0
 12 31  1  0  0  0  0
 12 32  1  0  0  0  0
 13 19  1  0  0  0  0
 13 14  1  0  0  0  0
 14 15  1  0  0  0  0
 14 33  1  0  0  0  0
 14 34  1  0  0  0  0
 15 16  1  0  0  0  0
 15 35  1  0  0  0  0
 15 36  1  0  0  0  0
 16 17  1  0  0  0  0
 16 37  1  0  0  0  0
 16 38  1  0  0  0  0
 17 18  1  0  0  0  0
 17 39  1  0  0  0  0
 17 40  1  0  0  0  0
 18 19  1  0  0  0  0
 18 41  1  0  0  0  0
 18 42  1  0  0  0  0
 19 20  2  0  0  0  0
M  CHG  1   7   1
M  END
> <s_m_source_file>
AV-unprocessed.smi

> <i_m_source_file_index>
1216

> <i_lp_mmshare_version>
43012

> <i_f3d_flags>
0

> <s_epik_input>
W2NIXTFuW2NIXVtjSF1uMVtDSDJdW0NAQEhdKFtDSDNdKVtOSF1DKD1PKVtDSDJdTjJbQ0gyXVtDSDJdW0NIMl1bQ0gyXVtDSDJdQzI9Tw==

> <s_epik_cmdline>
J2VwaWtfcHl0aG9uJywgJy1waCcsICc3LjAnLCAnLXRuJywgJzgnLCAnLW1hJywgJzIwMCcsICctbWV0YWxfYmluZGluZycsICctaW1hZScsICc8aW5maWxlLm1hZT4nLCAnLW9tYWUnLCAnPG91dGZpbGUubWFlPic=

> <r_lp_tautomer_probability>
1

> <r_epik_Ionization_Penalty>
0.254232

> <r_epik_Ionization_Penalty_Charging>
0

> <r_epik_Ionization_Penalty_Neutral>
0.254232

> <r_epik_State_Penalty>
0.245698

> <r_epik_Charging_Adjusted_Penalty>
0.245698

> <i_epik_Tot_Q>
1

> <i_epik_Tot_abs_Q>
1

> <r_epik_Metal_State_Penalty>
0.535799

> <b_epik_Metal_Only>
0

> <s_lp_Force_Field>
OPLS_2005

> <r_lp_Energy>
19.3608

> <b_lp_Chiralities_Consistent>
1

> <s_lp_Variant>
AV-unprocessed.smi:1216-1

> <Gold.Version>
5.8.1

> <Gold.Id.Protein>
6NUR|6NUR_protein|mol2

> <Gold.PLP.Fitness>
45.6188

> <Gold.PLP.PLP>
-41.2826

> <Gold.PLP.part.hbond>
-2.9011

> <Gold.PLP.part.metal>
0.0000

> <Gold.PLP.part.buried>
-5.3718

> <Gold.PLP.part.nonpolar>
-33.2574

> <Gold.PLP.part.repulsive>
0.1828

> <Gold.PLP.ligand.clash>
0.0000

> <Gold.PLP.ligand.torsion>
0.8598

> <Gold.PLP.Chemscore.Hbond>
2.0000

> <Gold.PLP.Chemscore.CHOScore>
0.0000

> <Gold.PLP.Chemscore.Metal>
0.0000

> <Gold.Chemscore.Hbonds>
donor molecule, donor type, donor heavy atom, donor atom, acceptor molecule, acceptor atom, score
      P1  H  6896  6908       L1    20  0.94
      P1  H  7997  8010       L1    11  1.00

> <Gold.PLP.Chemscore.Internal.Correction>
0.0557

> <Gold.Rescore>
     Score         DG    S(hbond)    S(metal)    S(lipo)     H(rot)  DE(clash)    DE(int)     intcor
     14.26     -16.16       1.99        0.00      82.81       2.22       0.06       1.84       ----

> <Gold.Chemscore.Fitness>
14.2550

> <Gold.Chemscore.DG>
-16.1553

> <Gold.Chemscore.ZeroCoef>
-5.4800

> <Gold.Chemscore.Hbond>
1.9939

> <Gold.Chemscore.Metal>
0.0000

> <Gold.Chemscore.Lipo>
82.8130

> <Gold.Chemscore.Internal_Hbond>
0.0000

> <Gold.Chemscore.DEClash>
0.0584

> <Gold.Chemscore.DEInternal>
1.8419

> <Gold.Chemscore.Rot>
2.2161

> <Gold.Chemscore.Internal.Correction>
   9.000000E+99

> <Gold.Chemscore.Hbonds>
donor molecule, donor type, donor heavy atom, donor atom, acceptor molecule, acceptor atom, score
      P1  H  6896  6908       L1    20  0.86
      P1  H  7997  8010       L1    11  0.98

> <Gold.Chemscore.Hbond.Weighted>
-6.6595

> <Gold.Chemscore.Metal.Weighted>
-0.0000

> <Gold.Chemscore.Lipo.Weighted>
-9.6891

> <Gold.Chemscore.Internal_Hbond.Weighted>
0.0000

> <Gold.Chemscore.DEClash.Weighted>
0.0584

> <Gold.Chemscore.DEInternal.Weighted>
1.8419

> <Gold.Chemscore.Rot.Weighted>
5.6733

> <Gold.Chemscore.Internal.Correction.Weighted>
   9.000000E+99

> <Gold.Protein.RotatedTorsions>
[ 6907 6896 6895 6894 ] final  -47.79 input  -60.11 | X-H torsion
[ 7974 7965 7964 7962 ] final -138.38 input  175.53 | X-H torsion
[ 8008 7997 7996 7995 ] final   21.58 input   59.86 | X-H torsion
[ 10167 10162 10161 10158 ] final -104.23 input  -65.29 | X-H torsion
[ 10718 10713 10712 10709 ] final    4.42 input   66.30 | X-H torsion
[ 10763 10752 10751 10750 ] final   28.12 input  -60.55 | X-H torsion
[ 11005 11000 10999 10996 ] final  123.28 input  -57.11 | X-H torsion

> <Gold.Protein.ActiveResidues>
 VAL166  LYS551  ARG553  GLY616  TRP617  ASP618  TYR619  PRO620  LYS621  CYS622 
 ASP623  PHE694  ASN695  SER759  ASP760  ASP761  ALA762  ILE779  LEU786  VAL792 
 PHE793  MET794  SER795  GLU796  ALA797  LYS798  CYS799  TRP800  GLU811  SER814 

> <Gold.Protein.RotatedAtoms>
  150.8971  134.8381  159.7334 H   0  0  0  0  0  0  0  0  0  0  0  0  # atno 6907 bound_to 6896
  152.4871  134.4559  159.9599 H   0  0  0  0  0  0  0  0  0  0  0  0  # atno 6908 bound_to 6896
  151.4614  133.3552  159.2845 H   0  0  0  0  0  0  0  0  0  0  0  0  # atno 6909 bound_to 6896
  144.8763  140.6442  143.5234 H   0  0  0  0  0  0  0  0  0  0  0  0  # atno 7974 bound_to 7965
  154.9527  140.3068  155.5067 H   0  0  0  0  0  0  0  0  0  0  0  0  # atno 8008 bound_to 7997
  156.2985  140.2316  156.4544 H   0  0  0  0  0  0  0  0  0  0  0  0  # atno 8009 bound_to 7997
  154.8039  140.0432  157.1281 H   0  0  0  0  0  0  0  0  0  0  0  0  # atno 8010 bound_to 7997
  140.2115  143.3743  152.1047 H   0  0  0  0  0  0  0  0  0  0  0  0  # atno 10167 bound_to 10162
  156.8924  130.5692  149.5649 H   0  0  0  0  0  0  0  0  0  0  0  0  # atno 10718 bound_to 10713
  153.0512  135.6521  154.0689 H   0  0  0  0  0  0  0  0  0  0  0  0  # atno 10763 bound_to 10752
  154.0377  135.2906  155.3361 H   0  0  0  0  0  0  0  0  0  0  0  0  # atno 10764 bound_to 10752
  154.6801  135.5323  153.8319 H   0  0  0  0  0  0  0  0  0  0  0  0  # atno 10765 bound_to 10752
  139.9305  134.9641  156.8236 H   0  0  0  0  0  0  0  0  0  0  0  0  # atno 11005 bound_to 11000
  145.4036  139.1593  143.4164 LP  0  0  0  0  0  0  0  0  0  0  0  0  # atno 17320 bound_to 7965
  146.2965  140.4135  142.8720 LP  0  0  0  0  0  0  0  0  0  0  0  0  # atno 17321 bound_to 7965
  139.5178  144.6997  151.5529 LP  0  0  0  0  0  0  0  0  0  0  0  0  # atno 17342 bound_to 10162
  140.6320  143.9057  150.6614 LP  0  0  0  0  0  0  0  0  0  0  0  0  # atno 17343 bound_to 10162
  156.0622  130.5673  150.9217 LP  0  0  0  0  0  0  0  0  0  0  0  0  # atno 17370 bound_to 10713
  157.6076  131.0938  150.8852 LP  0  0  0  0  0  0  0  0  0  0  0  0  # atno 17371 bound_to 10713
  140.6214  133.9990  155.7620 LP  0  0  0  0  0  0  0  0  0  0  0  0  # atno 17394 bound_to 11000
  141.0891  133.9944  157.3266 LP  0  0  0  0  0  0  0  0  0  0  0  0  # atno 17395 bound_to 11000

$$$$
