AV-unprocessed.smi:2417|AV-procd|sdf|9548|dock2
  -GOLD-   2272013183D 1   1.00000     0.00000
 Structure written by MMmdl.
 38 39  0  0  0  0  0  0  0  0  1 V2000
  145.4639  139.6563  155.3175 C   0  0  0  0  0  0  0  0  0  0  0  0
  146.9641  139.5368  155.1148 C   0  0  0  0  0  0  0  0  0  0  0  0
  147.5234  138.3028  155.4597 N   0  0  0  0  0  0  0  0  0  0  0  0
  148.7944  138.1098  155.3219 C   0  0  0  0  0  0  0  0  0  0  0  0
  149.6441  139.1143  154.8306 N   0  0  0  0  0  0  0  0  0  0  0  0
  151.0705  138.7660  154.7216 C   0  0  0  0  0  0  0  0  0  0  0  0
  151.9706  139.7225  155.5360 C   0  0  2  0  0  0  0  0  0  0  0  0
  153.1350  139.0525  155.9759 O   0  0  0  0  0  0  0  0  0  0  0  0
  151.2661  140.3035  156.7738 C   0  0  0  0  0  0  0  0  0  0  0  0
  152.2296  140.6786  157.7510 O   0  0  0  0  0  0  0  0  0  0  0  0
  152.1050  141.9120  158.3527 C   0  0  0  0  0  0  0  0  0  0  0  0
  152.7971  142.1031  159.5667 C   0  0  0  0  0  0  0  0  0  0  0  0
  152.7266  143.3315  160.2514 C   0  0  0  0  0  0  0  0  0  0  0  0
  151.9585  144.3864  159.7254 C   0  0  0  0  0  0  0  0  0  0  0  0
  151.8894  145.5686  160.3821 F   0  0  0  0  0  0  0  0  0  0  0  0
  151.2627  144.2101  158.5150 C   0  0  0  0  0  0  0  0  0  0  0  0
  151.3335  142.9812  157.8301 C   0  0  0  0  0  0  0  0  0  0  0  0
  149.1801  140.3438  154.4636 C   0  0  0  0  0  0  0  0  0  0  0  0
  149.9331  141.2132  154.0209 O   0  0  0  0  0  0  0  0  0  0  0  0
  147.7321  140.5501  154.6292 C   0  0  0  0  0  0  0  0  0  0  0  0
  147.1786  141.9140  154.2356 C   0  0  0  0  0  0  0  0  0  0  0  0
  145.2353  140.4556  156.0230 H   0  0  0  0  0  0  0  0  0  0  0  0
  145.0414  138.7316  155.7125 H   0  0  0  0  0  0  0  0  0  0  0  0
  144.9667  139.8717  154.3714 H   0  0  0  0  0  0  0  0  0  0  0  0
  149.2789  137.1644  155.5721 H   0  0  0  0  0  0  0  0  0  0  0  0
  151.2034  137.7469  155.0897 H   0  0  0  0  0  0  0  0  0  0  0  0
  151.4044  138.7204  153.6828 H   0  0  0  0  0  0  0  0  0  0  0  0
  152.2936  140.5599  154.9163 H   0  0  0  0  0  0  0  0  0  0  0  0
  153.0161  138.1240  155.8454 H   0  0  0  0  0  0  0  0  0  0  0  0
  150.6386  141.1512  156.4925 H   0  0  0  0  0  0  0  0  0  0  0  0
  150.6155  139.5353  157.1952 H   0  0  0  0  0  0  0  0  0  0  0  0
  153.3889  141.2982  159.9774 H   0  0  0  0  0  0  0  0  0  0  0  0
  153.2618  143.4637  161.1802 H   0  0  0  0  0  0  0  0  0  0  0  0
  150.6730  145.0192  158.1100 H   0  0  0  0  0  0  0  0  0  0  0  0
  150.7862  142.8847  156.9049 H   0  0  0  0  0  0  0  0  0  0  0  0
  147.3835  142.1134  153.1833 H   0  0  0  0  0  0  0  0  0  0  0  0
  147.6527  142.6975  154.8276 H   0  0  0  0  0  0  0  0  0  0  0  0
  146.1030  141.9996  154.3814 H   0  0  0  0  0  0  0  0  0  0  0  0
  1  2  1  0  0  0  0
  1 22  1  0  0  0  0
  1 23  1  0  0  0  0
  1 24  1  0  0  0  0
  2 20  2  0  0  0  0
  2  3  1  0  0  0  0
  3  4  2  0  0  0  0
  4  5  1  0  0  0  0
  4 25  1  0  0  0  0
  5  6  1  0  0  0  0
  5 18  1  0  0  0  0
  6  7  1  0  0  0  0
  6 26  1  0  0  0  0
  6 27  1  0  0  0  0
  7  8  1  0  0  0  0
  7  9  1  0  0  0  0
  7 28  1  0  0  0  0
  8 29  1  0  0  0  0
  9 10  1  0  0  0  0
  9 30  1  0  0  0  0
  9 31  1  0  0  0  0
 10 11  1  0  0  0  0
 11 17  1  0  0  0  0
 11 12  2  0  0  0  0
 12 13  1  0  0  0  0
 12 32  1  0  0  0  0
 13 14  2  0  0  0  0
 13 33  1  0  0  0  0
 14 15  1  0  0  0  0
 14 16  1  0  0  0  0
 16 17  2  0  0  0  0
 16 34  1  0  0  0  0
 17 35  1  0  0  0  0
 18 19  2  0  0  0  0
 18 20  1  0  0  0  0
 20 21  1  0  0  0  0
 21 36  1  0  0  0  0
 21 37  1  0  0  0  0
 21 38  1  0  0  0  0
M  END
> <s_m_source_file>
AV-unprocessed.smi

> <i_m_source_file_index>
2417

> <i_lp_mmshare_version>
43012

> <i_f3d_flags>
0

> <s_epik_input>
W0NIM11jMW5bY0hdbihjKD1PKWMxW0NIM10pW0NIMl1bQ0BIXShbT0hdKVtDSDJdT2MyW2NIXVtjSF1jKEYpW2NIXVtjSF0y

> <s_epik_cmdline>
J2VwaWtfcHl0aG9uJywgJy1waCcsICc3LjAnLCAnLXRuJywgJzgnLCAnLW1hJywgJzIwMCcsICctbWV0YWxfYmluZGluZycsICctaW1hZScsICc8aW5maWxlLm1hZT4nLCAnLW9tYWUnLCAnPG91dGZpbGUubWFlPic=

> <r_lp_tautomer_probability>
1

> <r_epik_Ionization_Penalty>
3.65384e-05

> <r_epik_Ionization_Penalty_Charging>
8.23007e-08

> <r_epik_Ionization_Penalty_Neutral>
3.64561e-05

> <r_epik_State_Penalty>
-0

> <r_epik_Charging_Adjusted_Penalty>
8.23007e-08

> <i_epik_Tot_Q>
0

> <i_epik_Tot_abs_Q>
0

> <r_epik_Metal_State_Penalty>
-0

> <b_epik_Metal_Only>
0

> <s_lp_Force_Field>
OPLS_2005

> <r_lp_Energy>
23.7128

> <b_lp_Chiralities_Consistent>
1

> <s_lp_Variant>
AV-unprocessed.smi:2417-1

> <Gold.Version>
5.8.1

> <Gold.Id.Protein>
6NUR|6NUR_protein|mol2

> <Gold.PLP.Fitness>
48.0958

> <Gold.PLP.PLP>
-44.1513

> <Gold.PLP.part.hbond>
-2.5626

> <Gold.PLP.part.metal>
0.0000

> <Gold.PLP.part.buried>
-3.1637

> <Gold.PLP.part.nonpolar>
-38.5753

> <Gold.PLP.part.repulsive>
0.9870

> <Gold.PLP.ligand.clash>
0.0000

> <Gold.PLP.ligand.torsion>
1.2596

> <Gold.PLP.Chemscore.Hbond>
2.1360

> <Gold.PLP.Chemscore.CHOScore>
0.0000

> <Gold.PLP.Chemscore.Metal>
0.0000

> <Gold.Chemscore.Hbonds>
donor molecule, donor type, donor heavy atom, donor atom, acceptor molecule, acceptor atom, score
      P1  H  7989  7998       L1    19  0.35
      P1  H  7997  8008       L1     8  1.00
      P1  H  8011  8017       L1    19  0.66

> <Gold.PLP.Chemscore.Internal.Correction>
0.0557

> <Gold.Rescore>
     Score         DG    S(hbond)    S(metal)    S(lipo)     H(rot)  DE(clash)    DE(int)     intcor
     15.48     -18.38       2.23        0.00     102.17       2.54       1.68       1.22       ----

> <Gold.Chemscore.Fitness>
15.4784

> <Gold.Chemscore.DG>
-18.3780

> <Gold.Chemscore.ZeroCoef>
-5.4800

> <Gold.Chemscore.Hbond>
2.2261

> <Gold.Chemscore.Metal>
0.0000

> <Gold.Chemscore.Lipo>
102.1682

> <Gold.Chemscore.Internal_Hbond>
0.0000

> <Gold.Chemscore.DEClash>
1.6763

> <Gold.Chemscore.DEInternal>
1.2233

> <Gold.Chemscore.Rot>
2.5355

> <Gold.Chemscore.Internal.Correction>
   9.000000E+99

> <Gold.Chemscore.Hbonds>
donor molecule, donor type, donor heavy atom, donor atom, acceptor molecule, acceptor atom, score
      P1  H  7989  7998       L1    19  0.36
      P1  H  7997  8008       L1     8  0.85
      P1  H  8011  8017       L1    19  0.64

> <Gold.Chemscore.Hbond.Weighted>
-7.4351

> <Gold.Chemscore.Metal.Weighted>
-0.0000

> <Gold.Chemscore.Lipo.Weighted>
-11.9537

> <Gold.Chemscore.Internal_Hbond.Weighted>
0.0000

> <Gold.Chemscore.DEClash.Weighted>
1.6763

> <Gold.Chemscore.DEInternal.Weighted>
1.2233

> <Gold.Chemscore.Rot.Weighted>
6.4908

> <Gold.Chemscore.Internal.Correction.Weighted>
   9.000000E+99

> <Gold.Protein.RotatedTorsions>
[ 6907 6896 6895 6894 ] final   99.83 input  -60.11 | X-H torsion
[ 7974 7965 7964 7962 ] final -131.45 input  175.53 | X-H torsion
[ 8008 7997 7996 7995 ] final  -52.41 input   59.86 | X-H torsion
[ 10167 10162 10161 10158 ] final   35.59 input  -65.29 | X-H torsion
[ 10718 10713 10712 10709 ] final   88.46 input   66.30 | X-H torsion
[ 10763 10752 10751 10750 ] final   60.11 input  -60.55 | X-H torsion
[ 11005 11000 10999 10996 ] final  -23.13 input  -57.11 | X-H torsion

> <Gold.Protein.ActiveResidues>
 VAL166  LYS551  ARG553  GLY616  TRP617  ASP618  TYR619  PRO620  LYS621  CYS622 
 ASP623  PHE694  ASN695  SER759  ASP760  ASP761  ALA762  ILE779  LEU786  VAL792 
 PHE793  MET794  SER795  GLU796  ALA797  LYS798  CYS799  TRP800  GLU811  SER814 

> <Gold.Protein.RotatedAtoms>
  152.5384  134.0369  159.8049 H   0  0  0  0  0  0  0  0  0  0  0  0  # atno 6907 bound_to 6896
  151.0531  133.5599  159.2648 H   0  0  0  0  0  0  0  0  0  0  0  0  # atno 6908 bound_to 6896
  151.2526  135.0635  159.9121 H   0  0  0  0  0  0  0  0  0  0  0  0  # atno 6909 bound_to 6896
  144.9378  140.7204  143.4865 H   0  0  0  0  0  0  0  0  0  0  0  0  # atno 7974 bound_to 7965
  154.4106  140.1224  156.4987 H   0  0  0  0  0  0  0  0  0  0  0  0  # atno 8008 bound_to 7997
  155.6916  140.3495  155.4876 H   0  0  0  0  0  0  0  0  0  0  0  0  # atno 8009 bound_to 7997
  155.9463  140.1096  157.1004 H   0  0  0  0  0  0  0  0  0  0  0  0  # atno 8010 bound_to 7997
  140.4207  144.1463  150.6147 H   0  0  0  0  0  0  0  0  0  0  0  0  # atno 10167 bound_to 10162
  157.6949  131.0295  150.3278 H   0  0  0  0  0  0  0  0  0  0  0  0  # atno 10718 bound_to 10713
  152.9912  135.5548  154.5821 H   0  0  0  0  0  0  0  0  0  0  0  0  # atno 10763 bound_to 10752
  154.5200  135.2807  155.1272 H   0  0  0  0  0  0  0  0  0  0  0  0  # atno 10764 bound_to 10752
  154.2629  135.6377  153.5334 H   0  0  0  0  0  0  0  0  0  0  0  0  # atno 10765 bound_to 10752
  140.8722  133.7712  156.0201 H   0  0  0  0  0  0  0  0  0  0  0  0  # atno 11005 bound_to 11000
  145.3039  139.1841  143.4675 LP  0  0  0  0  0  0  0  0  0  0  0  0  # atno 17320 bound_to 7965
  146.3274  140.3034  142.8622 LP  0  0  0  0  0  0  0  0  0  0  0  0  # atno 17321 bound_to 7965
  140.4536  143.2476  151.9314 LP  0  0  0  0  0  0  0  0  0  0  0  0  # atno 17342 bound_to 10162
  139.4782  144.5537  151.8346 LP  0  0  0  0  0  0  0  0  0  0  0  0  # atno 17343 bound_to 10162
  156.3756  130.3871  149.7141 LP  0  0  0  0  0  0  0  0  0  0  0  0  # atno 17370 bound_to 10713
  156.4541  130.7920  151.2942 LP  0  0  0  0  0  0  0  0  0  0  0  0  # atno 17371 bound_to 10713
  140.8559  134.2898  157.5255 LP  0  0  0  0  0  0  0  0  0  0  0  0  # atno 17394 bound_to 11000
  139.8713  134.9493  156.4020 LP  0  0  0  0  0  0  0  0  0  0  0  0  # atno 17395 bound_to 11000

$$$$
