AV-unprocessed.smi:1795|AV-procd|sdf|7242|dock7
  -GOLD-   22720 8493D 1   1.00000     0.00000
 Structure written by MMmdl.
 47 48  0  0  0  0  0  0  0  0  1 V2000
  152.6940  138.6939  154.2356 C   0  0  0  0  0  0  0  0  0  0  0  0
  151.5034  139.0867  155.1164 C   0  0  1  0  0  0  0  0  0  0  0  0
  151.6617  138.5818  156.5623 C   0  0  0  0  0  0  0  0  0  0  0  0
  150.5738  139.0210  157.4415 N   0  0  0  0  0  0  0  0  0  0  0  0
  150.7138  138.5172  158.8284 C   0  0  1  0  0  0  0  0  0  0  0  0
  149.8955  137.2242  159.0808 C   0  0  0  0  0  0  0  0  0  0  0  0
  152.1901  138.2614  159.2412 C   0  0  0  0  0  0  0  0  0  0  0  0
  152.9787  139.4895  159.2821 N   0  0  0  0  0  0  0  0  0  0  0  0
  153.9209  139.7734  160.1930 C   0  0  0  0  0  0  0  0  0  0  0  0
  154.2331  139.0043  161.1032 O   0  0  0  0  0  0  0  0  0  0  0  0
  154.5975  141.1444  160.0444 C   0  0  0  0  0  0  0  0  0  0  0  0
  153.7153  142.2782  160.3681 N   0  0  0  0  0  0  0  0  0  0  0  0
  153.2503  143.0546  159.2879 C   0  0  0  0  0  0  0  0  0  0  0  0
  152.4407  144.1100  159.4682 C   0  0  0  0  0  0  0  0  0  0  0  0
  152.0451  144.4441  160.8159 C   0  0  0  0  0  0  0  0  0  0  0  0
  152.4805  143.7057  161.8560 C   0  0  0  0  0  0  0  0  0  0  0  0
  153.3637  142.5494  161.6631 C   0  0  0  0  0  0  0  0  0  0  0  0
  153.7628  141.8673  162.6073 O   0  0  0  0  0  0  0  0  0  0  0  0
  150.5060  140.4856  157.3764 C   0  0  0  0  0  0  0  0  0  0  0  0
  150.3729  141.0350  155.9421 C   0  0  2  0  0  0  0  0  0  0  0  0
  148.9765  140.8193  155.3330 C   0  0  0  0  0  0  0  0  0  0  0  0
  151.4044  140.5067  155.1122 O   0  0  0  0  0  0  0  0  0  0  0  0
  152.8117  137.6108  154.1931 H   0  0  0  0  0  0  0  0  0  0  0  0
  153.6234  139.1177  154.6171 H   0  0  0  0  0  0  0  0  0  0  0  0
  152.5583  139.0536  153.2153 H   0  0  0  0  0  0  0  0  0  0  0  0
  150.6009  138.6583  154.6797 H   0  0  0  0  0  0  0  0  0  0  0  0
  151.7010  137.4960  156.5099 H   0  0  0  0  0  0  0  0  0  0  0  0
  152.6190  138.9152  156.9659 H   0  0  0  0  0  0  0  0  0  0  0  0
  150.3216  139.2791  159.5041 H   0  0  0  0  0  0  0  0  0  0  0  0
  150.0398  136.8261  160.0845 H   0  0  0  0  0  0  0  0  0  0  0  0
  150.1728  136.4397  158.3760 H   0  0  0  0  0  0  0  0  0  0  0  0
  148.8225  137.3895  158.9976 H   0  0  0  0  0  0  0  0  0  0  0  0
  152.2136  137.7517  160.2061 H   0  0  0  0  0  0  0  0  0  0  0  0
  152.7031  137.6174  158.5291 H   0  0  0  0  0  0  0  0  0  0  0  0
  152.7845  140.1783  158.5700 H   0  0  0  0  0  0  0  0  0  0  0  0
  155.4909  141.1677  160.6713 H   0  0  0  0  0  0  0  0  0  0  0  0
  154.9664  141.2355  159.0216 H   0  0  0  0  0  0  0  0  0  0  0  0
  153.5867  142.7340  158.3125 H   0  0  0  0  0  0  0  0  0  0  0  0
  152.0917  144.6912  158.6273 H   0  0  0  0  0  0  0  0  0  0  0  0
  151.3957  145.2893  160.9906 H   0  0  0  0  0  0  0  0  0  0  0  0
  152.1734  143.9698  162.8572 H   0  0  0  0  0  0  0  0  0  0  0  0
  149.6571  140.8619  157.9439 H   0  0  0  0  0  0  0  0  0  0  0  0
  151.4012  140.9087  157.8351 H   0  0  0  0  0  0  0  0  0  0  0  0
  150.5369  142.1121  155.9812 H   0  0  0  0  0  0  0  0  0  0  0  0
  148.2151  141.3349  155.9187 H   0  0  0  0  0  0  0  0  0  0  0  0
  148.7005  139.7654  155.2992 H   0  0  0  0  0  0  0  0  0  0  0  0
  148.9311  141.2102  154.3165 H   0  0  0  0  0  0  0  0  0  0  0  0
  1  2  1  0  0  0  0
  1 23  1  0  0  0  0
  1 24  1  0  0  0  0
  1 25  1  0  0  0  0
  2 22  1  0  0  0  0
  2  3  1  0  0  0  0
  2 26  1  0  0  0  0
  3  4  1  0  0  0  0
  3 27  1  0  0  0  0
  3 28  1  0  0  0  0
  4  5  1  0  0  0  0
  4 19  1  0  0  0  0
  5  6  1  0  0  0  0
  5  7  1  0  0  0  0
  5 29  1  0  0  0  0
  6 30  1  0  0  0  0
  6 31  1  0  0  0  0
  6 32  1  0  0  0  0
  7  8  1  0  0  0  0
  7 33  1  0  0  0  0
  7 34  1  0  0  0  0
  8  9  1  0  0  0  0
  8 35  1  0  0  0  0
  9 10  2  0  0  0  0
  9 11  1  0  0  0  0
 11 12  1  0  0  0  0
 11 36  1  0  0  0  0
 11 37  1  0  0  0  0
 12 17  1  0  0  0  0
 12 13  1  0  0  0  0
 13 14  2  0  0  0  0
 13 38  1  0  0  0  0
 14 15  1  0  0  0  0
 14 39  1  0  0  0  0
 15 16  2  0  0  0  0
 15 40  1  0  0  0  0
 16 17  1  0  0  0  0
 16 41  1  0  0  0  0
 17 18  2  0  0  0  0
 19 20  1  0  0  0  0
 19 42  1  0  0  0  0
 19 43  1  0  0  0  0
 20 21  1  0  0  0  0
 20 22  1  0  0  0  0
 20 44  1  0  0  0  0
 21 45  1  0  0  0  0
 21 46  1  0  0  0  0
 21 47  1  0  0  0  0
M  END
> <s_m_source_file>
AV-unprocessed.smi

> <i_m_source_file_index>
1795

> <i_lp_mmshare_version>
43012

> <i_f3d_flags>
0

> <s_epik_input>
W0NIM11bQ0BASF0xW0NIMl1OKFtDSDJdW0NASF0oTzEpW0NIM10pW0NASF0oW0NIM10pW0NIMl1bTkhdQyg9TylbQ0gyXW4yW2NIXVtjSF1bY0hdW2NIXWMyPU8=

> <s_epik_cmdline>
J2VwaWtfcHl0aG9uJywgJy1waCcsICc3LjAnLCAnLXRuJywgJzgnLCAnLW1hJywgJzIwMCcsICctbWV0YWxfYmluZGluZycsICctaW1hZScsICc8aW5maWxlLm1hZT4nLCAnLW9tYWUnLCAnPG91dGZpbGUubWFlPic=

> <r_lp_tautomer_probability>
1

> <r_epik_Ionization_Penalty>
0.237383

> <r_epik_Ionization_Penalty_Charging>
3.58805e-07

> <r_epik_Ionization_Penalty_Neutral>
0.237382

> <r_epik_State_Penalty>
0.228245

> <r_epik_Charging_Adjusted_Penalty>
0.228245

> <i_epik_Tot_Q>
0

> <i_epik_Tot_abs_Q>
0

> <r_epik_Metal_State_Penalty>
0.228221

> <b_epik_Metal_Only>
0

> <s_lp_Force_Field>
OPLS_2005

> <r_lp_Energy>
40.9254

> <b_lp_Chiralities_Consistent>
1

> <s_lp_Variant>
AV-unprocessed.smi:1795-6

> <Gold.Version>
5.8.1

> <Gold.Id.Protein>
6NUR|6NUR_protein|mol2

> <Gold.PLP.Fitness>
47.9220

> <Gold.PLP.PLP>
-48.0138

> <Gold.PLP.part.hbond>
-0.8915

> <Gold.PLP.part.metal>
0.0000

> <Gold.PLP.part.buried>
-6.0458

> <Gold.PLP.part.nonpolar>
-41.5611

> <Gold.PLP.part.repulsive>
0.1933

> <Gold.PLP.ligand.clash>
0.0263

> <Gold.PLP.ligand.torsion>
1.3841

> <Gold.PLP.Chemscore.Hbond>
0.8800

> <Gold.PLP.Chemscore.CHOScore>
0.0000

> <Gold.PLP.Chemscore.Metal>
0.0000

> <Gold.Chemscore.Hbonds>
donor molecule, donor type, donor heavy atom, donor atom, acceptor molecule, acceptor atom, score
      P1  H  7989  7998       L1    22  0.90

> <Gold.PLP.Chemscore.Internal.Correction>
0.0627

> <Gold.Rescore>
     Score         DG    S(hbond)    S(metal)    S(lipo)     H(rot)  DE(clash)    DE(int)     intcor
     15.02     -16.58       0.83        0.00     111.18       1.83       0.01       1.55       ----

> <Gold.Chemscore.Fitness>
15.0168

> <Gold.Chemscore.DG>
-16.5752

> <Gold.Chemscore.ZeroCoef>
-5.4800

> <Gold.Chemscore.Hbond>
0.8261

> <Gold.Chemscore.Metal>
0.0000

> <Gold.Chemscore.Lipo>
111.1831

> <Gold.Chemscore.Internal_Hbond>
0.0000

> <Gold.Chemscore.DEClash>
0.0086

> <Gold.Chemscore.DEInternal>
1.5497

> <Gold.Chemscore.Rot>
1.8251

> <Gold.Chemscore.Internal.Correction>
   9.000000E+99

> <Gold.Chemscore.Hbonds>
donor molecule, donor type, donor heavy atom, donor atom, acceptor molecule, acceptor atom, score
      P1  H  7989  7998       L1    22  0.35

> <Gold.Chemscore.Hbond.Weighted>
-2.7591

> <Gold.Chemscore.Metal.Weighted>
-0.0000

> <Gold.Chemscore.Lipo.Weighted>
-13.0084

> <Gold.Chemscore.Internal_Hbond.Weighted>
0.0000

> <Gold.Chemscore.DEClash.Weighted>
0.0086

> <Gold.Chemscore.DEInternal.Weighted>
1.5497

> <Gold.Chemscore.Rot.Weighted>
4.6724

> <Gold.Chemscore.Internal.Correction.Weighted>
   9.000000E+99

> <Gold.Protein.RotatedTorsions>
[ 6907 6896 6895 6894 ] final -135.17 input  -60.11 | X-H torsion
[ 7974 7965 7964 7962 ] final   61.11 input  175.53 | X-H torsion
[ 8008 7997 7996 7995 ] final  152.11 input   59.86 | X-H torsion
[ 10167 10162 10161 10158 ] final   49.45 input  -65.29 | X-H torsion
[ 10718 10713 10712 10709 ] final -175.78 input   66.30 | X-H torsion
[ 10763 10752 10751 10750 ] final -139.42 input  -60.55 | X-H torsion
[ 11005 11000 10999 10996 ] final  -75.05 input  -57.11 | X-H torsion

> <Gold.Protein.ActiveResidues>
 VAL166  LYS551  ARG553  GLY616  TRP617  ASP618  TYR619  PRO620  LYS621  CYS622 
 ASP623  PHE694  ASN695  SER759  ASP760  ASP761  ALA762  ILE779  LEU786  VAL792 
 PHE793  MET794  SER795  GLU796  ALA797  LYS798  CYS799  TRP800  GLU811  SER814 

> <Gold.Protein.RotatedAtoms>
  150.9946  133.6116  159.2703 H   0  0  0  0  0  0  0  0  0  0  0  0  # atno 6907 bound_to 6896
  151.3324  135.0844  159.9353 H   0  0  0  0  0  0  0  0  0  0  0  0  # atno 6908 bound_to 6896
  152.5256  133.9573  159.7754 H   0  0  0  0  0  0  0  0  0  0  0  0  # atno 6909 bound_to 6896
  145.8884  139.3493  143.0664 H   0  0  0  0  0  0  0  0  0  0  0  0  # atno 7974 bound_to 7965
  156.2644  140.2029  156.6282 H   0  0  0  0  0  0  0  0  0  0  0  0  # atno 8008 bound_to 7997
  154.6704  140.0551  157.0183 H   0  0  0  0  0  0  0  0  0  0  0  0  # atno 8009 bound_to 7997
  155.1146  140.3219  155.4515 H   0  0  0  0  0  0  0  0  0  0  0  0  # atno 8010 bound_to 7997
  140.2827  144.3137  150.6260 H   0  0  0  0  0  0  0  0  0  0  0  0  # atno 10167 bound_to 10162
  156.8050  130.9565  151.3117 H   0  0  0  0  0  0  0  0  0  0  0  0  # atno 10718 bound_to 10713
  154.8609  135.3583  154.5543 H   0  0  0  0  0  0  0  0  0  0  0  0  # atno 10763 bound_to 10752
  153.6160  135.7007  153.5333 H   0  0  0  0  0  0  0  0  0  0  0  0  # atno 10764 bound_to 10752
  153.3169  135.4162  155.1344 H   0  0  0  0  0  0  0  0  0  0  0  0  # atno 10765 bound_to 10752
  141.1641  133.6933  156.7457 H   0  0  0  0  0  0  0  0  0  0  0  0  # atno 11005 bound_to 11000
  145.8938  140.9287  143.0538 LP  0  0  0  0  0  0  0  0  0  0  0  0  # atno 17320 bound_to 7965
  144.6729  140.0941  143.7464 LP  0  0  0  0  0  0  0  0  0  0  0  0  # atno 17321 bound_to 7965
  140.5798  143.2173  151.7449 LP  0  0  0  0  0  0  0  0  0  0  0  0  # atno 17342 bound_to 10162
  139.4958  144.4097  152.0094 LP  0  0  0  0  0  0  0  0  0  0  0  0  # atno 17343 bound_to 10162
  157.6535  130.8904  149.9681 LP  0  0  0  0  0  0  0  0  0  0  0  0  # atno 17370 bound_to 10713
  156.1079  130.3651  150.0102 LP  0  0  0  0  0  0  0  0  0  0  0  0  # atno 17371 bound_to 10713
  140.2641  134.8444  157.3786 LP  0  0  0  0  0  0  0  0  0  0  0  0  # atno 17394 bound_to 11000
  140.1583  134.4761  155.7912 LP  0  0  0  0  0  0  0  0  0  0  0  0  # atno 17395 bound_to 11000

$$$$
