AV-unprocessed.smi:1828|AV-procd|sdf|7424|dock10
  -GOLD-   22720 9103D 1   1.00000     0.00000
 Structure written by MMmdl.
 39 41  0  0  0  0  0  0  0  0  1 V2000
  151.9493  137.2822  154.9119 O   0  0  0  0  0  0  0  0  0  0  0  0
  152.2484  138.6067  155.2974 C   0  0  0  0  0  0  0  0  0  0  0  0
  151.0431  139.4962  155.2905 C   0  0  0  0  0  0  0  0  0  0  0  0
  150.4716  139.8988  154.1547 N   0  0  0  0  0  0  0  0  0  0  0  0
  149.4189  140.6729  154.6018 C   0  0  0  0  0  0  0  0  0  0  0  0
  148.4310  141.3838  153.8833 C   0  0  0  0  0  0  0  0  0  0  0  0
  147.4377  142.1146  154.5678 C   0  0  0  0  0  0  0  0  0  0  0  0
  147.4179  142.1454  155.9774 C   0  0  0  0  0  0  0  0  0  0  0  0
  148.3939  141.4453  156.7125 C   0  0  0  0  0  0  0  0  0  0  0  0
  149.3831  140.7177  156.0241 C   0  0  0  0  0  0  0  0  0  0  0  0
  150.4614  139.9405  156.4336 N   0  0  0  0  0  0  0  0  0  0  0  0
  150.8497  139.6781  157.8132 C   0  0  0  0  0  0  0  0  0  0  0  0
  152.3556  139.8999  158.0573 C   0  0  2  0  0  0  0  0  0  0  0  0
  152.9779  138.6775  158.4034 O   0  0  0  0  0  0  0  0  0  0  0  0
  152.5914  140.9800  159.1011 C   0  0  0  0  0  0  0  0  0  0  0  0
  153.2228  140.6707  160.3251 C   0  0  0  0  0  0  0  0  0  0  0  0
  153.4343  141.6766  161.2865 C   0  0  0  0  0  0  0  0  0  0  0  0
  153.0106  142.9953  161.0335 C   0  0  0  0  0  0  0  0  0  0  0  0
  152.3670  143.3150  159.8181 C   0  0  0  0  0  0  0  0  0  0  0  0
  151.9092  144.7377  159.5321 C   0  0  0  0  0  0  0  0  0  0  0  0
  150.5795  144.7907  159.4497 F   0  0  0  0  0  0  0  0  0  0  0  0
  152.3015  145.5772  160.4911 F   0  0  0  0  0  0  0  0  0  0  0  0
  152.4273  145.1397  158.3725 F   0  0  0  0  0  0  0  0  0  0  0  0
  152.1652  142.3026  158.8551 C   0  0  0  0  0  0  0  0  0  0  0  0
  151.0196  137.2188  154.7561 H   0  0  0  0  0  0  0  0  0  0  0  0
  152.7021  138.6041  156.2882 H   0  0  0  0  0  0  0  0  0  0  0  0
  152.9960  139.0074  154.6123 H   0  0  0  0  0  0  0  0  0  0  0  0
  148.4373  141.3655  152.8035 H   0  0  0  0  0  0  0  0  0  0  0  0
  146.6867  142.6534  154.0089 H   0  0  0  0  0  0  0  0  0  0  0  0
  146.6530  142.7067  156.4940 H   0  0  0  0  0  0  0  0  0  0  0  0
  148.3820  141.4665  157.7921 H   0  0  0  0  0  0  0  0  0  0  0  0
  150.2703  140.3432  158.4545 H   0  0  0  0  0  0  0  0  0  0  0  0
  150.5598  138.6653  158.0917 H   0  0  0  0  0  0  0  0  0  0  0  0
  152.8163  140.2246  157.1235 H   0  0  0  0  0  0  0  0  0  0  0  0
  153.3219  138.7552  159.2802 H   0  0  0  0  0  0  0  0  0  0  0  0
  153.5470  139.6608  160.5304 H   0  0  0  0  0  0  0  0  0  0  0  0
  153.9223  141.4365  162.2197 H   0  0  0  0  0  0  0  0  0  0  0  0
  153.1838  143.7580  161.7782 H   0  0  0  0  0  0  0  0  0  0  0  0
  151.6796  142.5441  157.9208 H   0  0  0  0  0  0  0  0  0  0  0  0
  1  2  1  0  0  0  0
  1 25  1  0  0  0  0
  2  3  1  0  0  0  0
  2 26  1  0  0  0  0
  2 27  1  0  0  0  0
  3 11  1  0  0  0  0
  3  4  2  0  0  0  0
  4  5  1  0  0  0  0
  5 10  2  0  0  0  0
  5  6  1  0  0  0  0
  6  7  2  0  0  0  0
  6 28  1  0  0  0  0
  7  8  1  0  0  0  0
  7 29  1  0  0  0  0
  8  9  2  0  0  0  0
  8 30  1  0  0  0  0
  9 10  1  0  0  0  0
  9 31  1  0  0  0  0
 10 11  1  0  0  0  0
 11 12  1  0  0  0  0
 12 13  1  0  0  0  0
 12 32  1  0  0  0  0
 12 33  1  0  0  0  0
 13 14  1  0  0  0  0
 13 15  1  0  0  0  0
 13 34  1  0  0  0  0
 14 35  1  0  0  0  0
 15 24  1  0  0  0  0
 15 16  2  0  0  0  0
 16 17  1  0  0  0  0
 16 36  1  0  0  0  0
 17 18  2  0  0  0  0
 17 37  1  0  0  0  0
 18 19  1  0  0  0  0
 18 38  1  0  0  0  0
 19 20  1  0  0  0  0
 19 24  2  0  0  0  0
 20 21  1  0  0  0  0
 20 22  1  0  0  0  0
 20 23  1  0  0  0  0
 24 39  1  0  0  0  0
M  END
> <s_m_source_file>
AV-unprocessed.smi

> <i_m_source_file_index>
1828

> <i_lp_mmshare_version>
43012

> <i_f3d_flags>
0

> <s_epik_input>
W2NIXTFbY0hdW2NIXVtjSF1jKGMxMiluKGMobjIpW0NIMl1bT0hdKVtDSDJdW0NASF0oW09IXSljM1tjSF1bY0hdW2NIXWMoQyhGKShGKUYpW2NIXTM=

> <s_epik_cmdline>
J2VwaWtfcHl0aG9uJywgJy1waCcsICc3LjAnLCAnLXRuJywgJzgnLCAnLW1hJywgJzIwMCcsICctbWV0YWxfYmluZGluZycsICctaW1hZScsICc8aW5maWxlLm1hZT4nLCAnLW9tYWUnLCAnPG91dGZpbGUubWFlPic=

> <r_epik_Ionization_Penalty>
0.0634719

> <r_epik_Ionization_Penalty_Charging>
0

> <r_epik_Ionization_Penalty_Neutral>
0.0634719

> <r_epik_State_Penalty>
0.0551572

> <r_epik_Charging_Adjusted_Penalty>
0.0551572

> <i_epik_Tot_Q>
0

> <i_epik_Tot_abs_Q>
0

> <r_epik_Metal_State_Penalty>
5.78034e-05

> <b_epik_Metal_Only>
0

> <s_lp_Force_Field>
OPLS_2005

> <r_lp_Energy>
12.8621

> <b_lp_Chiralities_Consistent>
1

> <s_lp_Variant>
AV-unprocessed.smi:1828-1

> <Gold.Version>
5.8.1

> <Gold.Id.Protein>
6NUR|6NUR_protein|mol2

> <Gold.PLP.Fitness>
59.0219

> <Gold.PLP.PLP>
-55.6423

> <Gold.PLP.part.hbond>
-2.0000

> <Gold.PLP.part.metal>
0.0000

> <Gold.PLP.part.buried>
-5.2274

> <Gold.PLP.part.nonpolar>
-48.0403

> <Gold.PLP.part.repulsive>
0.4703

> <Gold.PLP.ligand.clash>
0.6538

> <Gold.PLP.ligand.torsion>
1.1529

> <Gold.PLP.Chemscore.Hbond>
1.8480

> <Gold.PLP.Chemscore.CHOScore>
0.0000

> <Gold.PLP.Chemscore.Metal>
0.0000

> <Gold.Chemscore.Hbonds>
donor molecule, donor type, donor heavy atom, donor atom, acceptor molecule, acceptor atom, score
      P1  H  7989  7998       L1     4  1.00
      P1  H 10752 10763       L1     1  0.91

> <Gold.PLP.Chemscore.Internal.Correction>
0.7953

> <Gold.Rescore>
     Score         DG    S(hbond)    S(metal)    S(lipo)     H(rot)  DE(clash)    DE(int)     intcor
     14.82     -16.14       1.17        0.00     121.42       2.91       0.25       1.08       ----

> <Gold.Chemscore.Fitness>
14.8164

> <Gold.Chemscore.DG>
-16.1432

> <Gold.Chemscore.ZeroCoef>
-5.4800

> <Gold.Chemscore.Hbond>
1.1726

> <Gold.Chemscore.Metal>
0.0000

> <Gold.Chemscore.Lipo>
121.4247

> <Gold.Chemscore.Internal_Hbond>
0.0000

> <Gold.Chemscore.DEClash>
0.2497

> <Gold.Chemscore.DEInternal>
1.0771

> <Gold.Chemscore.Rot>
2.9141

> <Gold.Chemscore.Internal.Correction>
   9.000000E+99

> <Gold.Chemscore.Hbonds>
donor molecule, donor type, donor heavy atom, donor atom, acceptor molecule, acceptor atom, score
      P1  H  7989  7998       L1     4  0.29
      P1  H 10752 10763       L1     1  0.78

> <Gold.Chemscore.Hbond.Weighted>
-3.9165

> <Gold.Chemscore.Metal.Weighted>
-0.0000

> <Gold.Chemscore.Lipo.Weighted>
-14.2067

> <Gold.Chemscore.Internal_Hbond.Weighted>
0.0000

> <Gold.Chemscore.DEClash.Weighted>
0.2497

> <Gold.Chemscore.DEInternal.Weighted>
1.0771

> <Gold.Chemscore.Rot.Weighted>
7.4600

> <Gold.Chemscore.Internal.Correction.Weighted>
   9.000000E+99

> <Gold.Protein.RotatedTorsions>
[ 6907 6896 6895 6894 ] final   -8.54 input  -60.11 | X-H torsion
[ 7974 7965 7964 7962 ] final -130.19 input  175.53 | X-H torsion
[ 8008 7997 7996 7995 ] final  110.26 input   59.86 | X-H torsion
[ 10167 10162 10161 10158 ] final -102.90 input  -65.29 | X-H torsion
[ 10718 10713 10712 10709 ] final   62.73 input   66.30 | X-H torsion
[ 10763 10752 10751 10750 ] final   53.99 input  -60.55 | X-H torsion
[ 11005 11000 10999 10996 ] final   89.13 input  -57.11 | X-H torsion

> <Gold.Protein.ActiveResidues>
 VAL166  LYS551  ARG553  GLY616  TRP617  ASP618  TYR619  PRO620  LYS621  CYS622 
 ASP623  PHE694  ASN695  SER759  ASP760  ASP761  ALA762  ILE779  LEU786  VAL792 
 PHE793  MET794  SER795  GLU796  ALA797  LYS798  CYS799  TRP800  GLU811  SER814 

> <Gold.Protein.RotatedAtoms>
  151.4320  135.1010  159.9644 H   0  0  0  0  0  0  0  0  0  0  0  0  # atno 6907 bound_to 6896
  152.4953  133.8609  159.7260 H   0  0  0  0  0  0  0  0  0  0  0  0  # atno 6908 bound_to 6896
  150.9148  133.6894  159.2873 H   0  0  0  0  0  0  0  0  0  0  0  0  # atno 6909 bound_to 6896
  144.9499  140.7333  143.4794 H   0  0  0  0  0  0  0  0  0  0  0  0  # atno 7974 bound_to 7965
  156.2040  140.3042  155.9587 H   0  0  0  0  0  0  0  0  0  0  0  0  # atno 8008 bound_to 7997
  155.2886  140.0441  157.3038 H   0  0  0  0  0  0  0  0  0  0  0  0  # atno 8009 bound_to 7997
  154.5608  140.2319  155.8347 H   0  0  0  0  0  0  0  0  0  0  0  0  # atno 8010 bound_to 7997
  140.2258  143.3643  152.0930 H   0  0  0  0  0  0  0  0  0  0  0  0  # atno 10167 bound_to 10162
  157.5922  130.9066  149.9625 H   0  0  0  0  0  0  0  0  0  0  0  0  # atno 10718 bound_to 10713
  152.9800  135.5760  154.4832 H   0  0  0  0  0  0  0  0  0  0  0  0  # atno 10763 bound_to 10752
  154.4378  135.2775  155.1871 H   0  0  0  0  0  0  0  0  0  0  0  0  # atno 10764 bound_to 10752
  154.3552  135.6200  153.5716 H   0  0  0  0  0  0  0  0  0  0  0  0  # atno 10765 bound_to 10752
  139.8882  134.8532  156.3098 H   0  0  0  0  0  0  0  0  0  0  0  0  # atno 11005 bound_to 11000
  145.2860  139.1901  143.4765 LP  0  0  0  0  0  0  0  0  0  0  0  0  # atno 17320 bound_to 7965
  146.3317  140.2830  142.8611 LP  0  0  0  0  0  0  0  0  0  0  0  0  # atno 17321 bound_to 7965
  139.5128  144.6922  151.5729 LP  0  0  0  0  0  0  0  0  0  0  0  0  # atno 17342 bound_to 10162
  140.6222  143.9237  150.6535 LP  0  0  0  0  0  0  0  0  0  0  0  0  # atno 17343 bound_to 10162
  156.0978  130.3658  150.0274 LP  0  0  0  0  0  0  0  0  0  0  0  0  # atno 17370 bound_to 10713
  156.8394  130.9420  151.3633 LP  0  0  0  0  0  0  0  0  0  0  0  0  # atno 17371 bound_to 10713
  140.9858  133.7239  156.0739 LP  0  0  0  0  0  0  0  0  0  0  0  0  # atno 17394 bound_to 11000
  140.7690  134.3854  157.5511 LP  0  0  0  0  0  0  0  0  0  0  0  0  # atno 17395 bound_to 11000

$$$$
