AV-unprocessed.smi:3274|AV-procd|sdf|12528|dock6
  -GOLD-   2272018443D 1   1.00000     0.00000
 Structure written by MMmdl.
 43 44  0  0  0  0  0  0  0  0  2 V2000
  154.0088  142.0074  161.9911 C   0  0  0  0  0  0  0  0  0  0  0  0
  152.9872  142.7537  161.1503 C   0  0  0  0  0  0  0  0  0  0  0  0
  152.4405  143.8922  161.6178 C   0  0  0  0  0  0  0  0  0  0  0  0
  151.4702  144.7532  160.8426 C   0  0  0  0  0  0  0  0  0  0  0  0
  151.5643  144.4725  159.3410 C   0  0  0  0  0  0  0  0  0  0  0  0
  151.4985  142.9650  159.0461 C   0  0  1  0  0  0  0  0  0  0  0  0
  151.4977  142.7425  157.5208 C   0  0  0  0  0  0  0  0  0  0  0  0
  152.6329  142.1719  159.7661 C   0  0  2  0  0  0  0  0  0  0  0  0
  152.2776  140.6628  159.8266 C   0  0  0  0  0  0  0  0  0  0  0  0
  152.4744  139.9770  158.5303 N   0  3  0  0  0  0  0  0  0  0  0  0
  152.2069  138.5196  158.5313 C   0  0  1  0  0  0  0  0  0  0  0  0
  150.7110  138.2270  158.7379 C   0  0  0  0  0  0  0  0  0  0  0  0
  152.7085  137.8846  157.2198 C   0  0  0  0  0  0  0  0  0  0  0  0
  151.8982  138.2648  156.0767 N   0  0  0  0  0  0  0  0  0  0  0  0
  151.5954  139.4689  155.5886 C   0  0  0  0  0  0  0  0  0  0  0  0
  150.8092  139.4307  154.5221 N   0  0  0  0  0  0  0  0  0  0  0  0
  150.6640  138.0784  154.3921 C   0  0  0  0  0  0  0  0  0  0  0  0
  151.2925  137.3342  155.3027 N   0  0  0  0  0  0  0  0  0  0  0  0
  154.9086  141.8082  161.4091 H   0  0  0  0  0  0  0  0  0  0  0  0
  153.6011  141.0635  162.3521 H   0  0  0  0  0  0  0  0  0  0  0  0
  154.3047  142.5877  162.8657 H   0  0  0  0  0  0  0  0  0  0  0  0
  152.7009  144.2500  162.6037 H   0  0  0  0  0  0  0  0  0  0  0  0
  150.4619  144.5632  161.2116 H   0  0  0  0  0  0  0  0  0  0  0  0
  151.6904  145.8036  161.0358 H   0  0  0  0  0  0  0  0  0  0  0  0
  150.7609  144.9993  158.8246 H   0  0  0  0  0  0  0  0  0  0  0  0
  152.4991  144.8795  158.9525 H   0  0  0  0  0  0  0  0  0  0  0  0
  150.5413  142.6103  159.4326 H   0  0  0  0  0  0  0  0  0  0  0  0
  152.4401  143.0616  157.0744 H   0  0  0  0  0  0  0  0  0  0  0  0
  150.7009  143.3149  157.0447 H   0  0  0  0  0  0  0  0  0  0  0  0
  151.3400  141.6997  157.2499 H   0  0  0  0  0  0  0  0  0  0  0  0
  153.5359  142.2867  159.1640 H   0  0  0  0  0  0  0  0  0  0  0  0
  152.8775  140.1787  160.5987 H   0  0  0  0  0  0  0  0  0  0  0  0
  151.2385  140.5201  160.1147 H   0  0  0  0  0  0  0  0  0  0  0  0
  151.8994  140.4201  157.8280 H   0  0  0  0  0  0  0  0  0  0  0  0
  152.7635  138.0700  159.3553 H   0  0  0  0  0  0  0  0  0  0  0  0
  150.5133  137.1556  158.6922 H   0  0  0  0  0  0  0  0  0  0  0  0
  150.1020  138.7080  157.9715 H   0  0  0  0  0  0  0  0  0  0  0  0
  150.3605  138.5732  159.7101 H   0  0  0  0  0  0  0  0  0  0  0  0
  153.7337  138.1980  157.0182 H   0  0  0  0  0  0  0  0  0  0  0  0
  152.7264  136.7961  157.2998 H   0  0  0  0  0  0  0  0  0  0  0  0
  151.9511  140.3909  156.0248 H   0  0  0  0  0  0  0  0  0  0  0  0
  150.0716  137.6295  153.6082 H   0  0  0  0  0  0  0  0  0  0  0  0
  153.4431  140.1028  158.2715 H   0  0  0  0  0  0  0  0  0  0  0  0
  1  2  1  0  0  0  0
  1 19  1  0  0  0  0
  1 20  1  0  0  0  0
  1 21  1  0  0  0  0
  2  8  1  0  0  0  0
  2  3  2  0  0  0  0
  3  4  1  0  0  0  0
  3 22  1  0  0  0  0
  4  5  1  0  0  0  0
  4 23  1  0  0  0  0
  4 24  1  0  0  0  0
  5  6  1  0  0  0  0
  5 25  1  0  0  0  0
  5 26  1  0  0  0  0
  6  7  1  0  0  0  0
  6  8  1  0  0  0  0
  6 27  1  0  0  0  0
  7 28  1  0  0  0  0
  7 29  1  0  0  0  0
  7 30  1  0  0  0  0
  8  9  1  0  0  0  0
  8 31  1  0  0  0  0
  9 10  1  0  0  0  0
  9 32  1  0  0  0  0
  9 33  1  0  0  0  0
 10 11  1  0  0  0  0
 10 34  1  0  0  0  0
 10 43  1  0  0  0  0
 11 12  1  0  0  0  0
 11 13  1  0  0  0  0
 11 35  1  0  0  0  0
 12 36  1  0  0  0  0
 12 37  1  0  0  0  0
 12 38  1  0  0  0  0
 13 14  1  0  0  0  0
 13 39  1  0  0  0  0
 13 40  1  0  0  0  0
 14 18  1  0  0  0  0
 14 15  1  0  0  0  0
 15 16  2  0  0  0  0
 15 41  1  0  0  0  0
 16 17  1  0  0  0  0
 17 18  2  0  0  0  0
 17 42  1  0  0  0  0
M  CHG  1  10   1
M  END
> <s_m_source_file>
AV-unprocessed.smi

> <i_m_source_file_index>
3274

> <i_lp_mmshare_version>
43012

> <i_f3d_flags>
0

> <s_epik_input>
W0NIM11DMT1bQ0hdW0NIMl1bQ0gyXVtDQEBIXShbQ0gzXSlbQ0BIXTFbQ0gyXVtOSF1bQ0BIXShbQ0gzXSlbQ0gyXW4yW2NIXW5bY0hdbjI=

> <s_epik_cmdline>
J2VwaWtfcHl0aG9uJywgJy1waCcsICc3LjAnLCAnLXRuJywgJzgnLCAnLW1hJywgJzIwMCcsICctbWV0YWxfYmluZGluZycsICctaW1hZScsICc8aW5maWxlLm1hZT4nLCAnLW9tYWUnLCAnPG91dGZpbGUubWFlPic=

> <r_lp_tautomer_probability>
1

> <r_epik_Ionization_Penalty>
0.0017527

> <r_epik_Ionization_Penalty_Charging>
0.00175191

> <r_epik_Ionization_Penalty_Neutral>
7.94565e-07

> <r_epik_State_Penalty>
0.00118605

> <r_epik_Charging_Adjusted_Penalty>
0.00293796

> <i_epik_Tot_Q>
1

> <i_epik_Tot_abs_Q>
1

> <r_epik_Metal_State_Penalty>
-0

> <b_epik_Metal_Only>
0

> <s_lp_Force_Field>
OPLS_2005

> <r_lp_Energy>
17.2451

> <b_lp_Chiralities_Consistent>
1

> <s_lp_Variant>
AV-unprocessed.smi:3274-7

> <Gold.Version>
5.8.1

> <Gold.Id.Protein>
6NUR|6NUR_protein|mol2

> <Gold.PLP.Fitness>
48.2211

> <Gold.PLP.PLP>
-39.4207

> <Gold.PLP.part.hbond>
-2.0000

> <Gold.PLP.part.metal>
0.0000

> <Gold.PLP.part.buried>
-4.8704

> <Gold.PLP.part.nonpolar>
-33.2729

> <Gold.PLP.part.repulsive>
0.2867

> <Gold.PLP.ligand.clash>
0.0000

> <Gold.PLP.ligand.torsion>
0.2850

> <Gold.PLP.Chemscore.Hbond>
1.9760

> <Gold.PLP.Chemscore.CHOScore>
1.1251

> <Gold.PLP.Chemscore.Metal>
0.0000

> <Gold.Chemscore.Hbonds>
donor molecule, donor type, donor heavy atom, donor atom, acceptor molecule, acceptor atom, score
      P1  H  7989  7998       L1    16  0.95
      L1  C    17    42       P1  7948  1.00
      L1  C    17    42       P1  7949  0.02

> <Gold.PLP.Chemscore.Internal.Correction>
0.0670

> <Gold.Rescore>
     Score         DG    S(hbond)    S(metal)    S(lipo)     H(rot)  DE(clash)    DE(int)     intcor
     17.28     -17.64       1.75        0.00     105.70       2.36       0.02       0.34       ----

> <Gold.Chemscore.Fitness>
17.2830

> <Gold.Chemscore.DG>
-17.6435

> <Gold.Chemscore.ZeroCoef>
-5.4800

> <Gold.Chemscore.Hbond>
1.7491

> <Gold.Chemscore.Metal>
0.0000

> <Gold.Chemscore.Lipo>
105.7017

> <Gold.Chemscore.Internal_Hbond>
0.0000

> <Gold.Chemscore.DEClash>
0.0248

> <Gold.Chemscore.DEInternal>
0.3358

> <Gold.Chemscore.Rot>
2.3615

> <Gold.Chemscore.Internal.Correction>
   9.000000E+99

> <Gold.Chemscore.Hbonds>
donor molecule, donor type, donor heavy atom, donor atom, acceptor molecule, acceptor atom, score
      P1  H  7989  7998       L1    16  0.21
      P1  H 10752 10763       L1    18  0.01

> <Gold.Chemscore.Hbond.Weighted>
-5.8418

> <Gold.Chemscore.Metal.Weighted>
-0.0000

> <Gold.Chemscore.Lipo.Weighted>
-12.3671

> <Gold.Chemscore.Internal_Hbond.Weighted>
0.0000

> <Gold.Chemscore.DEClash.Weighted>
0.0248

> <Gold.Chemscore.DEInternal.Weighted>
0.3358

> <Gold.Chemscore.Rot.Weighted>
6.0454

> <Gold.Chemscore.Internal.Correction.Weighted>
   9.000000E+99

> <Gold.Protein.RotatedTorsions>
[ 6907 6896 6895 6894 ] final  105.33 input  -60.11 | X-H torsion
[ 7974 7965 7964 7962 ] final  115.55 input  175.53 | X-H torsion
[ 8008 7997 7996 7995 ] final  -23.04 input   59.86 | X-H torsion
[ 10167 10162 10161 10158 ] final  175.72 input  -65.29 | X-H torsion
[ 10718 10713 10712 10709 ] final  -23.21 input   66.30 | X-H torsion
[ 10763 10752 10751 10750 ] final   67.03 input  -60.55 | X-H torsion
[ 11005 11000 10999 10996 ] final   74.46 input  -57.11 | X-H torsion

> <Gold.Protein.ActiveResidues>
 VAL166  LYS551  ARG553  GLY616  TRP617  ASP618  TYR619  PRO620  LYS621  CYS622 
 ASP623  PHE694  ASN695  SER759  ASP760  ASP761  ALA762  ILE779  LEU786  VAL792 
 PHE793  MET794  SER795  GLU796  ALA797  LYS798  CYS799  TRP800  GLU811  SER814 

> <Gold.Protein.RotatedAtoms>
  152.5234  133.9544  159.7686 H   0  0  0  0  0  0  0  0  0  0  0  0  # atno 6907 bound_to 6896
  150.9847  133.6201  159.2724 H   0  0  0  0  0  0  0  0  0  0  0  0  # atno 6908 bound_to 6896
  151.3366  135.0860  159.9410 H   0  0  0  0  0  0  0  0  0  0  0  0  # atno 6909 bound_to 6896
  145.1906  139.3002  143.4370 H   0  0  0  0  0  0  0  0  0  0  0  0  # atno 7974 bound_to 7965
  154.4609  140.1991  156.0249 H   0  0  0  0  0  0  0  0  0  0  0  0  # atno 8008 bound_to 7997
  156.0837  140.3268  155.7698 H   0  0  0  0  0  0  0  0  0  0  0  0  # atno 8009 bound_to 7997
  155.5070  140.0558  157.2920 H   0  0  0  0  0  0  0  0  0  0  0  0  # atno 8010 bound_to 7997
  139.5188  144.2998  152.0388 H   0  0  0  0  0  0  0  0  0  0  0  0  # atno 10167 bound_to 10162
  156.4941  130.4573  149.6738 H   0  0  0  0  0  0  0  0  0  0  0  0  # atno 10718 bound_to 10713
  153.0167  135.5299  154.6916 H   0  0  0  0  0  0  0  0  0  0  0  0  # atno 10763 bound_to 10752
  154.6049  135.2872  155.0497 H   0  0  0  0  0  0  0  0  0  0  0  0  # atno 10764 bound_to 10752
  154.1541  135.6558  153.5022 H   0  0  0  0  0  0  0  0  0  0  0  0  # atno 10765 bound_to 10752
  139.9390  134.7435  156.1151 H   0  0  0  0  0  0  0  0  0  0  0  0  # atno 11005 bound_to 11000
  146.3437  140.2117  142.8590 LP  0  0  0  0  0  0  0  0  0  0  0  0  # atno 17320 bound_to 7965
  145.0045  140.8661  143.5261 LP  0  0  0  0  0  0  0  0  0  0  0  0  # atno 17321 bound_to 7965
  140.2446  144.4233  150.6246 LP  0  0  0  0  0  0  0  0  0  0  0  0  # atno 17342 bound_to 10162
  140.6267  143.2182  151.6582 LP  0  0  0  0  0  0  0  0  0  0  0  0  # atno 17343 bound_to 10162
  156.3397  130.7375  151.2318 LP  0  0  0  0  0  0  0  0  0  0  0  0  # atno 17370 bound_to 10713
  157.7470  131.0407  150.4611 LP  0  0  0  0  0  0  0  0  0  0  0  0  # atno 17371 bound_to 10713
  141.1016  133.6675  156.2768 LP  0  0  0  0  0  0  0  0  0  0  0  0  # atno 17394 bound_to 11000
  140.6001  134.5563  157.5516 LP  0  0  0  0  0  0  0  0  0  0  0  0  # atno 17395 bound_to 11000

$$$$
