AV-unprocessed.smi:1290|AV-procd|sdf|5390|dock9
  -GOLD-   22720 4543D 1   1.00000     0.00000
 Structure written by MMmdl.
 38 40  0  0  0  0  0  0  0  0  1 V2000
  149.4033  135.9406  159.6894 C   0  0  0  0  0  0  0  0  0  0  0  0
  150.0071  136.1935  158.3675 N   0  0  0  0  0  0  0  0  0  0  0  0
  150.4214  137.4665  158.0756 C   0  0  0  0  0  0  0  0  0  0  0  0
  150.3296  138.4277  158.8402 O   0  0  0  0  0  0  0  0  0  0  0  0
  151.0013  137.6104  156.7351 C   0  0  0  0  0  0  0  0  0  0  0  0
  151.1150  136.5764  155.8652 C   0  0  0  0  0  0  0  0  0  0  0  0
  151.6901  136.9863  154.6671 N   0  0  0  0  0  0  0  0  0  0  0  0
  151.8975  138.2849  154.8860 C   0  0  0  0  0  0  0  0  0  0  0  0
  151.5140  138.7396  156.0959 N   0  0  0  0  0  0  0  0  0  0  0  0
  151.6301  140.1111  156.5697 C   0  0  0  0  0  0  0  0  0  0  0  0
  152.3703  140.2162  157.9190 C   0  0  1  0  0  0  0  0  0  0  0  0
  153.7135  139.7947  157.7808 O   0  0  0  0  0  0  0  0  0  0  0  0
  152.2718  141.6200  158.4946 C   0  0  0  0  0  0  0  0  0  0  0  0
  152.9258  141.9449  159.7035 C   0  0  0  0  0  0  0  0  0  0  0  0
  152.8357  143.2473  160.2319 C   0  0  0  0  0  0  0  0  0  0  0  0
  152.0924  144.2330  159.5542 C   0  0  0  0  0  0  0  0  0  0  0  0
  151.9811  145.8288  160.2013 Cl  0  0  0  0  0  0  0  0  0  0  0  0
  151.4408  143.9151  158.3466 C   0  0  0  0  0  0  0  0  0  0  0  0
  151.5312  142.6128  157.8177 C   0  0  0  0  0  0  0  0  0  0  0  0
  150.6550  135.2972  156.2718 N   0  0  0  0  0  0  0  0  0  0  0  0
  150.7713  134.1689  155.3437 C   0  0  0  0  0  0  0  0  0  0  0  0
  150.0989  135.1088  157.5123 C   0  0  0  0  0  0  0  0  0  0  0  0
  149.6910  133.9935  157.8494 O   0  0  0  0  0  0  0  0  0  0  0  0
  149.3986  136.7976  160.3637 H   0  0  0  0  0  0  0  0  0  0  0  0
  149.9390  135.1456  160.2108 H   0  0  0  0  0  0  0  0  0  0  0  0
  148.3648  135.6264  159.5751 H   0  0  0  0  0  0  0  0  0  0  0  0
  152.3417  138.9281  154.1405 H   0  0  0  0  0  0  0  0  0  0  0  0
  152.1136  140.7190  155.8061 H   0  0  0  0  0  0  0  0  0  0  0  0
  150.6223  140.5155  156.6746 H   0  0  0  0  0  0  0  0  0  0  0  0
  151.9038  139.5250  158.6224 H   0  0  0  0  0  0  0  0  0  0  0  0
  154.1408  139.8759  158.6197 H   0  0  0  0  0  0  0  0  0  0  0  0
  153.5002  141.1954  160.2282 H   0  0  0  0  0  0  0  0  0  0  0  0
  153.3381  143.4882  161.1573 H   0  0  0  0  0  0  0  0  0  0  0  0
  150.8712  144.6697  157.8243 H   0  0  0  0  0  0  0  0  0  0  0  0
  151.0291  142.3805  156.8901 H   0  0  0  0  0  0  0  0  0  0  0  0
  151.3460  133.3582  155.7941 H   0  0  0  0  0  0  0  0  0  0  0  0
  151.2702  134.4367  154.4125 H   0  0  0  0  0  0  0  0  0  0  0  0
  149.7835  133.7845  155.0862 H   0  0  0  0  0  0  0  0  0  0  0  0
  1  2  1  0  0  0  0
  1 24  1  0  0  0  0
  1 25  1  0  0  0  0
  1 26  1  0  0  0  0
  2 22  1  0  0  0  0
  2  3  1  0  0  0  0
  3  4  2  0  0  0  0
  3  5  1  0  0  0  0
  5  9  1  0  0  0  0
  5  6  2  0  0  0  0
  6  7  1  0  0  0  0
  6 20  1  0  0  0  0
  7  8  2  0  0  0  0
  8  9  1  0  0  0  0
  8 27  1  0  0  0  0
  9 10  1  0  0  0  0
 10 11  1  0  0  0  0
 10 28  1  0  0  0  0
 10 29  1  0  0  0  0
 11 12  1  0  0  0  0
 11 13  1  0  0  0  0
 11 30  1  0  0  0  0
 12 31  1  0  0  0  0
 13 19  1  0  0  0  0
 13 14  2  0  0  0  0
 14 15  1  0  0  0  0
 14 32  1  0  0  0  0
 15 16  2  0  0  0  0
 15 33  1  0  0  0  0
 16 17  1  0  0  0  0
 16 18  1  0  0  0  0
 18 19  2  0  0  0  0
 18 34  1  0  0  0  0
 19 35  1  0  0  0  0
 20 21  1  0  0  0  0
 20 22  1  0  0  0  0
 21 36  1  0  0  0  0
 21 37  1  0  0  0  0
 21 38  1  0  0  0  0
 22 23  2  0  0  0  0
M  END
> <s_m_source_file>
AV-unprocessed.smi

> <i_m_source_file_index>
1290

> <i_lp_mmshare_version>
43012

> <i_f3d_flags>
0

> <s_epik_input>
Tz1jMW4oW0NIM10pYyg9TyluKFtDSDNdKWMoYzEyKW5bY0hdbjJbQ0gyXVtDQEhdKFtPSF0pYzNbY0hdW2NIXWMoQ2wpW2NIXVtjSF0z

> <s_epik_cmdline>
J2VwaWtfcHl0aG9uJywgJy1waCcsICc3LjAnLCAnLXRuJywgJzgnLCAnLW1hJywgJzIwMCcsICctbWV0YWxfYmluZGluZycsICctaW1hZScsICc8aW5maWxlLm1hZT4nLCAnLW9tYWUnLCAnPG91dGZpbGUubWFlPic=

> <r_lp_tautomer_probability>
1

> <r_epik_Ionization_Penalty>
1.48293e-06

> <r_epik_Ionization_Penalty_Charging>
3.74189e-09

> <r_epik_Ionization_Penalty_Neutral>
1.47919e-06

> <r_epik_State_Penalty>
-0

> <r_epik_Charging_Adjusted_Penalty>
3.74189e-09

> <i_epik_Tot_Q>
0

> <i_epik_Tot_abs_Q>
0

> <r_epik_Metal_State_Penalty>
-0

> <b_epik_Metal_Only>
0

> <s_lp_Force_Field>
OPLS_2005

> <r_lp_Energy>
35.8921

> <b_lp_Chiralities_Consistent>
1

> <s_lp_Variant>
AV-unprocessed.smi:1290-2

> <Gold.Version>
5.8.1

> <Gold.Id.Protein>
6NUR|6NUR_protein|mol2

> <Gold.PLP.Fitness>
48.4372

> <Gold.PLP.PLP>
-42.6569

> <Gold.PLP.part.hbond>
-2.0000

> <Gold.PLP.part.metal>
0.0000

> <Gold.PLP.part.buried>
-5.8626

> <Gold.PLP.part.nonpolar>
-34.7590

> <Gold.PLP.part.repulsive>
0.1350

> <Gold.PLP.ligand.clash>
0.0000

> <Gold.PLP.ligand.torsion>
0.1126

> <Gold.PLP.Chemscore.Hbond>
1.9920

> <Gold.PLP.Chemscore.CHOScore>
0.0000

> <Gold.PLP.Chemscore.Metal>
0.0000

> <Gold.Chemscore.Hbonds>
donor molecule, donor type, donor heavy atom, donor atom, acceptor molecule, acceptor atom, score
      P1  H  6896  6909       L1    23  0.54
      P1  H  7997  8008       L1    12  0.27
      P1  H 10752 10765       L1     7  0.62

> <Gold.PLP.Chemscore.Internal.Correction>
0.0295

> <Gold.Rescore>
     Score         DG    S(hbond)    S(metal)    S(lipo)     H(rot)  DE(clash)    DE(int)     intcor
     17.58     -17.67       1.86        0.00      98.05       2.15       0.00       0.09       ----

> <Gold.Chemscore.Fitness>
17.5841

> <Gold.Chemscore.DG>
-17.6738

> <Gold.Chemscore.ZeroCoef>
-5.4800

> <Gold.Chemscore.Hbond>
1.8620

> <Gold.Chemscore.Metal>
0.0000

> <Gold.Chemscore.Lipo>
98.0532

> <Gold.Chemscore.Internal_Hbond>
0.0000

> <Gold.Chemscore.DEClash>
0.0044

> <Gold.Chemscore.DEInternal>
0.0854

> <Gold.Chemscore.Rot>
2.1474

> <Gold.Chemscore.Internal.Correction>
   9.000000E+99

> <Gold.Chemscore.Hbonds>
donor molecule, donor type, donor heavy atom, donor atom, acceptor molecule, acceptor atom, score
      P1  H  6896  6909       L1    23  0.13
      P1  H  7997  8008       L1    12  0.23
      P1  H 10752 10765       L1     7  0.05

> <Gold.Chemscore.Hbond.Weighted>
-6.2190

> <Gold.Chemscore.Metal.Weighted>
-0.0000

> <Gold.Chemscore.Lipo.Weighted>
-11.4722

> <Gold.Chemscore.Internal_Hbond.Weighted>
0.0000

> <Gold.Chemscore.DEClash.Weighted>
0.0044

> <Gold.Chemscore.DEInternal.Weighted>
0.0854

> <Gold.Chemscore.Rot.Weighted>
5.4974

> <Gold.Chemscore.Internal.Correction.Weighted>
   9.000000E+99

> <Gold.Protein.RotatedTorsions>
[ 6907 6896 6895 6894 ] final  -26.97 input  -60.11 | X-H torsion
[ 7974 7965 7964 7962 ] final  177.19 input  175.53 | X-H torsion
[ 8008 7997 7996 7995 ] final  -69.69 input   59.86 | X-H torsion
[ 10167 10162 10161 10158 ] final -142.95 input  -65.29 | X-H torsion
[ 10718 10713 10712 10709 ] final  -14.63 input   66.30 | X-H torsion
[ 10763 10752 10751 10750 ] final -172.44 input  -60.55 | X-H torsion
[ 11005 11000 10999 10996 ] final   21.99 input  -57.11 | X-H torsion

> <Gold.Protein.ActiveResidues>
 VAL166  LYS551  ARG553  GLY616  TRP617  ASP618  TYR619  PRO620  LYS621  CYS622 
 ASP623  PHE694  ASN695  SER759  ASP760  ASP761  ALA762  ILE779  LEU786  VAL792 
 PHE793  MET794  SER795  GLU796  ALA797  LYS798  CYS799  TRP800  GLU811  SER814 

> <Gold.Protein.RotatedAtoms>
  151.1534  135.0238  159.8678 H   0  0  0  0  0  0  0  0  0  0  0  0  # atno 6907 bound_to 6896
  152.5452  134.1362  159.8470 H   0  0  0  0  0  0  0  0  0  0  0  0  # atno 6908 bound_to 6896
  151.1450  133.4900  159.2629 H   0  0  0  0  0  0  0  0  0  0  0  0  # atno 6909 bound_to 6896
  144.7173  140.0210  143.6440 H   0  0  0  0  0  0  0  0  0  0  0  0  # atno 7974 bound_to 7965
  154.4957  140.0848  156.7691 H   0  0  0  0  0  0  0  0  0  0  0  0  # atno 8008 bound_to 7997
  155.4123  140.3442  155.4246 H   0  0  0  0  0  0  0  0  0  0  0  0  # atno 8009 bound_to 7997
  156.1390  140.1524  156.8937 H   0  0  0  0  0  0  0  0  0  0  0  0  # atno 8010 bound_to 7997
  139.8039  143.7795  152.2660 H   0  0  0  0  0  0  0  0  0  0  0  0  # atno 10167 bound_to 10162
  156.6132  130.4855  149.6193 H   0  0  0  0  0  0  0  0  0  0  0  0  # atno 10718 bound_to 10713
  154.6193  135.2873  155.0344 H   0  0  0  0  0  0  0  0  0  0  0  0  # atno 10763 bound_to 10752
  154.1545  135.6498  153.4975 H   0  0  0  0  0  0  0  0  0  0  0  0  # atno 10764 bound_to 10752
  153.0229  135.5363  154.6976 H   0  0  0  0  0  0  0  0  0  0  0  0  # atno 10765 bound_to 10752
  140.3855  134.1874  155.7663 H   0  0  0  0  0  0  0  0  0  0  0  0  # atno 11005 bound_to 11000
  146.0181  139.3227  143.0829 LP  0  0  0  0  0  0  0  0  0  0  0  0  # atno 17320 bound_to 7965
  145.8601  140.9480  143.0704 LP  0  0  0  0  0  0  0  0  0  0  0  0  # atno 17321 bound_to 7965
  139.7923  144.7405  150.9937 LP  0  0  0  0  0  0  0  0  0  0  0  0  # atno 17342 bound_to 10162
  140.7819  143.4429  151.0525 LP  0  0  0  0  0  0  0  0  0  0  0  0  # atno 17343 bound_to 10162
  156.2372  130.6830  151.1521 LP  0  0  0  0  0  0  0  0  0  0  0  0  # atno 17370 bound_to 10713
  157.7248  131.0657  150.5979 LP  0  0  0  0  0  0  0  0  0  0  0  0  # atno 17371 bound_to 10713
  141.1909  133.8207  157.0901 LP  0  0  0  0  0  0  0  0  0  0  0  0  # atno 17394 bound_to 11000
  140.0446  134.9837  157.1024 LP  0  0  0  0  0  0  0  0  0  0  0  0  # atno 17395 bound_to 11000

$$$$
