AV-unprocessed.smi:2253|AV-procd|sdf|9122|dock1
  -GOLD-   2272012323D 1   1.00000     0.00000
 Structure written by MMmdl.
 51 53  0  0  0  0  0  0  0  0  2 V2000
  152.6493  138.9634  155.9846 C   0  0  0  0  0  0  0  0  0  0  0  0
  151.2423  139.1979  155.6917 N   0  0  0  0  0  0  0  0  0  0  0  0
  151.0278  139.1083  154.2504 C   0  0  0  0  0  0  0  0  0  0  0  0
  149.5338  139.2780  153.9274 C   0  0  0  0  0  0  0  0  0  0  0  0
  148.9750  140.6306  154.4323 C   0  0  0  0  0  0  0  0  0  0  0  0
  147.4909  140.7576  154.2393 N   0  3  2  0  0  0  0  0  0  0  0  0
  146.6507  139.7806  154.9898 C   0  0  0  0  0  0  0  0  0  0  0  0
  146.7564  138.3636  154.3960 C   0  0  0  0  0  0  0  0  0  0  0  0
  146.3361  138.3614  152.9162 C   0  0  2  0  0  0  0  0  0  0  0  0
  146.5290  137.0312  152.3455 N   0  0  0  0  0  0  0  0  0  0  0  0
  145.5518  136.1387  152.1271 C   0  0  0  0  0  0  0  0  0  0  0  0
  144.3665  136.3701  152.3612 O   0  0  0  0  0  0  0  0  0  0  0  0
  146.0465  134.9919  151.6290 N   0  0  0  0  0  0  0  0  0  0  0  0
  145.3781  133.7817  151.2879 C   0  0  0  0  0  0  0  0  0  0  0  0
  144.0647  133.6998  150.7622 C   0  0  0  0  0  0  0  0  0  0  0  0
  143.5297  132.4277  150.4751 C   0  0  0  0  0  0  0  0  0  0  0  0
  144.2015  131.2743  150.6739 N   0  0  0  0  0  0  0  0  0  0  0  0
  145.4517  131.3548  151.1750 C   0  0  0  0  0  0  0  0  0  0  0  0
  146.0797  132.5748  151.4962 C   0  0  0  0  0  0  0  0  0  0  0  0
  147.3384  132.5823  151.9986 F   0  0  0  0  0  0  0  0  0  0  0  0
  147.1344  139.4235  152.1340 C   0  0  0  0  0  0  0  0  0  0  0  0
  147.0451  140.8035  152.8164 C   0  0  0  0  0  0  0  0  0  0  0  0
  149.3669  140.7696  155.9228 C   0  0  0  0  0  0  0  0  0  0  0  0
  150.8683  140.5306  156.1559 C   0  0  0  0  0  0  0  0  0  0  0  0
  152.9499  137.9703  155.6492 H   0  0  0  0  0  0  0  0  0  0  0  0
  152.8308  139.0182  157.0585 H   0  0  0  0  0  0  0  0  0  0  0  0
  153.2878  139.6984  155.4920 H   0  0  0  0  0  0  0  0  0  0  0  0
  151.6186  139.8647  153.7306 H   0  0  0  0  0  0  0  0  0  0  0  0
  151.3672  138.1355  153.8921 H   0  0  0  0  0  0  0  0  0  0  0  0
  149.4294  139.1951  152.8460 H   0  0  0  0  0  0  0  0  0  0  0  0
  148.9707  138.4525  154.3653 H   0  0  0  0  0  0  0  0  0  0  0  0
  149.4746  141.4204  153.8711 H   0  0  0  0  0  0  0  0  0  0  0  0
  146.8710  139.7797  156.0556 H   0  0  0  0  0  0  0  0  0  0  0  0
  145.6126  140.1113  154.9276 H   0  0  0  0  0  0  0  0  0  0  0  0
  147.7756  137.9895  154.5018 H   0  0  0  0  0  0  0  0  0  0  0  0
  146.1206  137.6814  154.9616 H   0  0  0  0  0  0  0  0  0  0  0  0
  145.2751  138.6154  152.8692 H   0  0  0  0  0  0  0  0  0  0  0  0
  147.4762  136.7631  152.1211 H   0  0  0  0  0  0  0  0  0  0  0  0
  147.0456  134.9734  151.4842 H   0  0  0  0  0  0  0  0  0  0  0  0
  143.4543  134.5679  150.5730 H   0  0  0  0  0  0  0  0  0  0  0  0
  142.5312  132.3347  150.0742 H   0  0  0  0  0  0  0  0  0  0  0  0
  145.9669  130.4179  151.3262 H   0  0  0  0  0  0  0  0  0  0  0  0
  148.1769  139.1181  152.0407 H   0  0  0  0  0  0  0  0  0  0  0  0
  146.7521  139.5004  151.1153 H   0  0  0  0  0  0  0  0  0  0  0  0
  146.0065  141.1365  152.8001 H   0  0  0  0  0  0  0  0  0  0  0  0
  147.5857  141.5509  152.2402 H   0  0  0  0  0  0  0  0  0  0  0  0
  149.1377  141.7648  156.2994 H   0  0  0  0  0  0  0  0  0  0  0  0
  148.7894  140.0673  156.5261 H   0  0  0  0  0  0  0  0  0  0  0  0
  151.0873  140.6187  157.2209 H   0  0  0  0  0  0  0  0  0  0  0  0
  151.4595  141.2916  155.6435 H   0  0  0  0  0  0  0  0  0  0  0  0
  147.2601  141.6606  154.6291 H   0  0  0  0  0  0  0  0  0  0  0  0
  1  2  1  0  0  0  0
  1 25  1  0  0  0  0
  1 26  1  0  0  0  0
  1 27  1  0  0  0  0
  2 24  1  0  0  0  0
  2  3  1  0  0  0  0
  3  4  1  0  0  0  0
  3 28  1  0  0  0  0
  3 29  1  0  0  0  0
  4  5  1  0  0  0  0
  4 30  1  0  0  0  0
  4 31  1  0  0  0  0
  5  6  1  0  0  0  0
  5 23  1  0  0  0  0
  5 32  1  0  0  0  0
  6 22  1  0  0  0  0
  6  7  1  0  0  0  0
  6 51  1  0  0  0  0
  7  8  1  0  0  0  0
  7 33  1  0  0  0  0
  7 34  1  0  0  0  0
  8  9  1  0  0  0  0
  8 35  1  0  0  0  0
  8 36  1  0  0  0  0
  9 10  1  0  0  0  0
  9 21  1  0  0  0  0
  9 37  1  0  0  0  0
 10 11  1  0  0  0  0
 10 38  1  0  0  0  0
 11 12  2  0  0  0  0
 11 13  1  0  0  0  0
 13 14  1  0  0  0  0
 13 39  1  0  0  0  0
 14 19  1  0  0  0  0
 14 15  2  0  0  0  0
 15 16  1  0  0  0  0
 15 40  1  0  0  0  0
 16 17  2  0  0  0  0
 16 41  1  0  0  0  0
 17 18  1  0  0  0  0
 18 19  2  0  0  0  0
 18 42  1  0  0  0  0
 19 20  1  0  0  0  0
 21 22  1  0  0  0  0
 21 43  1  0  0  0  0
 21 44  1  0  0  0  0
 22 45  1  0  0  0  0
 22 46  1  0  0  0  0
 23 24  1  0  0  0  0
 23 47  1  0  0  0  0
 23 48  1  0  0  0  0
 24 49  1  0  0  0  0
 24 50  1  0  0  0  0
M  CHG  1   6   1
M  END
> <s_m_source_file>
AV-unprocessed.smi

> <i_m_source_file_index>
2253

> <i_lp_mmshare_version>
43012

> <i_f3d_flags>
0

> <s_epik_input>
W0NIM11OMVtDSDJdW0NIMl1bQ0hdKFtDSDJdW0NIMl0xKU4yW0NIMl1bQ0gyXVtDSF0oW0NIMl1bQ0gyXTIpW05IXUMoPU8pW05IXWMzW2NIXVtjSF1uW2NIXWMzRg==

> <s_epik_cmdline>
J2VwaWtfcHl0aG9uJywgJy1waCcsICc3LjAnLCAnLXRuJywgJzgnLCAnLW1hJywgJzIwMCcsICctbWV0YWxfYmluZGluZycsICctaW1hZScsICc8aW5maWxlLm1hZT4nLCAnLW9tYWUnLCAnPG91dGZpbGUubWFlPic=

> <r_epik_Ionization_Penalty>
1.37522

> <r_epik_Ionization_Penalty_Charging>
0.00081195

> <r_epik_Ionization_Penalty_Neutral>
1.3744

> <r_epik_State_Penalty>
1.55149

> <r_epik_Charging_Adjusted_Penalty>
1.5523

> <i_epik_Tot_Q>
1

> <i_epik_Tot_abs_Q>
1

> <r_epik_Metal_State_Penalty>
1.55158

> <b_epik_Metal_Only>
0

> <s_lp_Force_Field>
OPLS_2005

> <r_lp_Energy>
38.6229

> <b_lp_Chiralities_Consistent>
1

> <s_lp_Variant>
AV-unprocessed.smi:2253-8

> <Gold.Version>
5.8.1

> <Gold.Id.Protein>
6NUR|6NUR_protein|mol2

> <Gold.PLP.Fitness>
42.5354

> <Gold.PLP.PLP>
-36.0246

> <Gold.PLP.part.hbond>
-2.5911

> <Gold.PLP.part.metal>
0.0000

> <Gold.PLP.part.buried>
1.3162

> <Gold.PLP.part.nonpolar>
-35.2201

> <Gold.PLP.part.repulsive>
0.4433

> <Gold.PLP.ligand.clash>
1.3082

> <Gold.PLP.ligand.torsion>
0.4844

> <Gold.PLP.Chemscore.Hbond>
1.5082

> <Gold.PLP.Chemscore.CHOScore>
1.4028

> <Gold.PLP.Chemscore.Metal>
0.0000

> <Gold.Chemscore.Hbonds>
donor molecule, donor type, donor heavy atom, donor atom, acceptor molecule, acceptor atom, score
      L1  H    10    38       P1  7948  1.00
      L1  H    13    39       P1  7948  0.35
      L1  C    16    41       P1 10186  0.65
      L1  C    16    41       P1 10952  0.67

> <Gold.PLP.Chemscore.Internal.Correction>
0.0545

> <Gold.Rescore>
     Score         DG    S(hbond)    S(metal)    S(lipo)     H(rot)  DE(clash)    DE(int)     intcor
     17.02     -19.91       1.94        0.00      95.06       1.24       0.92       1.97       ----

> <Gold.Chemscore.Fitness>
17.0231

> <Gold.Chemscore.DG>
-19.9124

> <Gold.Chemscore.ZeroCoef>
-5.4800

> <Gold.Chemscore.Hbond>
1.9399

> <Gold.Chemscore.Metal>
0.0000

> <Gold.Chemscore.Lipo>
95.0583

> <Gold.Chemscore.Internal_Hbond>
0.0000

> <Gold.Chemscore.DEClash>
0.9200

> <Gold.Chemscore.DEInternal>
1.9693

> <Gold.Chemscore.Rot>
1.2377

> <Gold.Chemscore.Internal.Correction>
   9.000000E+99

> <Gold.Chemscore.Hbonds>
donor molecule, donor type, donor heavy atom, donor atom, acceptor molecule, acceptor atom, score
      L1  H    10    38       P1  7948  0.97
      L1  H    13    39       P1  7948  0.29

> <Gold.Chemscore.Hbond.Weighted>
-6.4791

> <Gold.Chemscore.Metal.Weighted>
-0.0000

> <Gold.Chemscore.Lipo.Weighted>
-11.1218

> <Gold.Chemscore.Internal_Hbond.Weighted>
0.0000

> <Gold.Chemscore.DEClash.Weighted>
0.9200

> <Gold.Chemscore.DEInternal.Weighted>
1.9693

> <Gold.Chemscore.Rot.Weighted>
3.1685

> <Gold.Chemscore.Internal.Correction.Weighted>
   9.000000E+99

> <Gold.Protein.RotatedTorsions>
[ 6907 6896 6895 6894 ] final  -54.49 input  -60.11 | X-H torsion
[ 7974 7965 7964 7962 ] final   88.78 input  175.53 | X-H torsion
[ 8008 7997 7996 7995 ] final  129.90 input   59.86 | X-H torsion
[ 10167 10162 10161 10158 ] final   44.96 input  -65.29 | X-H torsion
[ 10718 10713 10712 10709 ] final  -95.94 input   66.30 | X-H torsion
[ 10763 10752 10751 10750 ] final   29.98 input  -60.55 | X-H torsion
[ 11005 11000 10999 10996 ] final  -51.42 input  -57.11 | X-H torsion

> <Gold.Protein.ActiveResidues>
 VAL166  LYS551  ARG553  GLY616  TRP617  ASP618  TYR619  PRO620  LYS621  CYS622 
 ASP623  PHE694  ASN695  SER759  ASP760  ASP761  ALA762  ILE779  LEU786  VAL792 
 PHE793  MET794  SER795  GLU796  ALA797  LYS798  CYS799  TRP800  GLU811  SER814 

> <Gold.Protein.RotatedAtoms>
  150.8334  134.7596  159.6871 H   0  0  0  0  0  0  0  0  0  0  0  0  # atno 6907 bound_to 6896
  152.4434  134.5540  159.9885 H   0  0  0  0  0  0  0  0  0  0  0  0  # atno 6908 bound_to 6896
  151.5696  133.3354  159.3023 H   0  0  0  0  0  0  0  0  0  0  0  0  # atno 6909 bound_to 6896
  145.5411  139.2289  143.2565 H   0  0  0  0  0  0  0  0  0  0  0  0  # atno 7974 bound_to 7965
  156.2945  140.2609  156.2675 H   0  0  0  0  0  0  0  0  0  0  0  0  # atno 8008 bound_to 7997
  154.9728  140.0391  157.2261 H   0  0  0  0  0  0  0  0  0  0  0  0  # atno 8009 bound_to 7997
  154.7843  140.2800  155.6044 H   0  0  0  0  0  0  0  0  0  0  0  0  # atno 8010 bound_to 7997
  140.3290  144.2612  150.6171 H   0  0  0  0  0  0  0  0  0  0  0  0  # atno 10167 bound_to 10162
  156.0052  130.5130  150.6152 H   0  0  0  0  0  0  0  0  0  0  0  0  # atno 10718 bound_to 10713
  153.0398  135.6475  154.0973 H   0  0  0  0  0  0  0  0  0  0  0  0  # atno 10763 bound_to 10752
  154.0682  135.2882  155.3314 H   0  0  0  0  0  0  0  0  0  0  0  0  # atno 10764 bound_to 10752
  154.6612  135.5391  153.8085 H   0  0  0  0  0  0  0  0  0  0  0  0  # atno 10765 bound_to 10752
  141.0870  133.6640  156.3874 H   0  0  0  0  0  0  0  0  0  0  0  0  # atno 11005 bound_to 11000
  146.1980  140.6231  142.9115 LP  0  0  0  0  0  0  0  0  0  0  0  0  # atno 17320 bound_to 7965
  144.7576  140.5345  143.6758 LP  0  0  0  0  0  0  0  0  0  0  0  0  # atno 17321 bound_to 7965
  140.5414  143.2223  151.8078 LP  0  0  0  0  0  0  0  0  0  0  0  0  # atno 17342 bound_to 10162
  139.4860  144.4595  151.9558 LP  0  0  0  0  0  0  0  0  0  0  0  0  # atno 17343 bound_to 10162
  157.3977  131.0805  151.1337 LP  0  0  0  0  0  0  0  0  0  0  0  0  # atno 17370 bound_to 10713
  157.2008  130.6394  149.5738 LP  0  0  0  0  0  0  0  0  0  0  0  0  # atno 17371 bound_to 10713
  140.5341  134.6184  157.5359 LP  0  0  0  0  0  0  0  0  0  0  0  0  # atno 17394 bound_to 11000
  139.9689  134.7326  156.0081 LP  0  0  0  0  0  0  0  0  0  0  0  0  # atno 17395 bound_to 11000

$$$$
