AV-unprocessed.smi:1260|AV-procd|sdf|5299|dock6
  -GOLD-   22720 4423D 1   1.00000     0.00000
 Structure written by MMmdl.
 37 39  0  0  0  0  0  0  0  0  2 V2000
  147.1265  132.1994  153.7787 O   0  0  0  0  0  0  0  0  0  0  0  0
  147.9628  133.0580  153.4975 C   0  0  0  0  0  0  0  0  0  0  0  0
  149.4370  132.8607  153.8629 C   0  0  0  0  0  0  0  0  0  0  0  0
  149.8585  133.7660  154.9170 N   0  0  0  0  0  0  0  0  0  0  0  0
  149.9274  135.0984  154.9536 C   0  0  0  0  0  0  0  0  0  0  0  0
  150.3726  135.5331  156.1226 N   0  0  0  0  0  0  0  0  0  0  0  0
  150.5831  134.3634  156.8337 N   0  0  0  0  0  0  0  0  0  0  0  0
  150.2787  133.3117  156.1238 N   0  0  0  0  0  0  0  0  0  0  0  0
  147.6515  134.2059  152.8764 N   0  0  0  0  0  0  0  0  0  0  0  0
  146.3075  134.5791  152.4425 C   0  0  2  0  0  0  0  0  0  0  0  0
  145.2206  134.1903  153.4366 C   0  0  0  0  0  0  0  0  0  0  0  0
  143.9444  134.2270  152.5893 C   0  0  0  0  0  0  0  0  0  0  0  0
  144.3524  133.9771  151.1846 N   0  3  2  0  0  0  0  0  0  0  0  0
  143.6398  132.8411  150.5407 C   0  0  0  0  0  0  0  0  0  0  0  0
  144.3697  132.3850  149.2688 C   0  0  0  0  0  0  0  0  0  0  0  0
  145.7884  131.8755  149.5859 C   0  0  0  0  0  0  0  0  0  0  0  0
  146.3499  132.4690  150.8926 C   0  0  0  0  0  0  0  0  0  0  0  0
  145.8408  133.9114  151.1342 C   0  0  2  0  0  0  0  0  0  0  0  0
  149.6145  131.8377  154.1980 H   0  0  0  0  0  0  0  0  0  0  0  0
  150.0537  133.0230  152.9777 H   0  0  0  0  0  0  0  0  0  0  0  0
  149.6549  135.7435  154.1312 H   0  0  0  0  0  0  0  0  0  0  0  0
  148.3953  134.8628  152.6882 H   0  0  0  0  0  0  0  0  0  0  0  0
  146.2669  135.6633  152.3160 H   0  0  0  0  0  0  0  0  0  0  0  0
  145.3895  133.1775  153.8052 H   0  0  0  0  0  0  0  0  0  0  0  0
  145.1731  134.8582  154.2973 H   0  0  0  0  0  0  0  0  0  0  0  0
  143.2022  133.5156  152.9544 H   0  0  0  0  0  0  0  0  0  0  0  0
  143.4917  135.2181  152.6345 H   0  0  0  0  0  0  0  0  0  0  0  0
  143.5685  131.9996  151.2322 H   0  0  0  0  0  0  0  0  0  0  0  0
  142.6187  133.1468  150.3104 H   0  0  0  0  0  0  0  0  0  0  0  0
  143.7995  131.6083  148.7582 H   0  0  0  0  0  0  0  0  0  0  0  0
  144.4301  133.2243  148.5745 H   0  0  0  0  0  0  0  0  0  0  0  0
  145.7874  130.7876  149.6638 H   0  0  0  0  0  0  0  0  0  0  0  0
  146.4470  132.1183  148.7513 H   0  0  0  0  0  0  0  0  0  0  0  0
  146.0548  131.8372  151.7315 H   0  0  0  0  0  0  0  0  0  0  0  0
  147.4389  132.4346  150.8565 H   0  0  0  0  0  0  0  0  0  0  0  0
  146.1748  134.5202  150.2924 H   0  0  0  0  0  0  0  0  0  0  0  0
  144.0988  134.8061  150.6659 H   0  0  0  0  0  0  0  0  0  0  0  0
  1  2  2  0  0  0  0
  2  3  1  0  0  0  0
  2  9  1  0  0  0  0
  3  4  1  0  0  0  0
  3 19  1  0  0  0  0
  3 20  1  0  0  0  0
  4  8  1  0  0  0  0
  4  5  1  0  0  0  0
  5  6  2  0  0  0  0
  5 21  1  0  0  0  0
  6  7  1  0  0  0  0
  7  8  2  0  0  0  0
  9 10  1  0  0  0  0
  9 22  1  0  0  0  0
 10 18  1  0  0  0  0
 10 11  1  0  0  0  0
 10 23  1  0  0  0  0
 11 12  1  0  0  0  0
 11 24  1  0  0  0  0
 11 25  1  0  0  0  0
 12 13  1  0  0  0  0
 12 26  1  0  0  0  0
 12 27  1  0  0  0  0
 13 18  1  0  0  0  0
 13 14  1  0  0  0  0
 13 37  1  0  0  0  0
 14 15  1  0  0  0  0
 14 28  1  0  0  0  0
 14 29  1  0  0  0  0
 15 16  1  0  0  0  0
 15 30  1  0  0  0  0
 15 31  1  0  0  0  0
 16 17  1  0  0  0  0
 16 32  1  0  0  0  0
 16 33  1  0  0  0  0
 17 18  1  0  0  0  0
 17 34  1  0  0  0  0
 17 35  1  0  0  0  0
 18 36  1  0  0  0  0
M  CHG  1  13   1
M  END
> <s_m_source_file>
AV-unprocessed.smi

> <i_m_source_file_index>
1260

> <i_lp_mmshare_version>
43012

> <i_f3d_flags>
0

> <s_epik_input>
bjFubltjSF1uMVtDSDJdQyg9TylbTkhdW0NASF0oW0NIMl1bQ0gyXTIpW0NAQEhdKE4yMylbQ0gyXVtDSDJdW0NIMl1bQ0gyXTM=

> <s_epik_cmdline>
J2VwaWtfcHl0aG9uJywgJy1waCcsICc3LjAnLCAnLXRuJywgJzgnLCAnLW1hJywgJzIwMCcsICctbWV0YWxfYmluZGluZycsICctaW1hZScsICc8aW5maWxlLm1hZT4nLCAnLW9tYWUnLCAnPG91dGZpbGUubWFlPic=

> <r_lp_tautomer_probability>
1

> <r_epik_Ionization_Penalty>
0.00234324

> <r_epik_Ionization_Penalty_Charging>
0.00233897

> <r_epik_Ionization_Penalty_Neutral>
4.26861e-06

> <r_epik_State_Penalty>
0.00161477

> <r_epik_Charging_Adjusted_Penalty>
0.00395374

> <i_epik_Tot_Q>
1

> <i_epik_Tot_abs_Q>
1

> <r_epik_Metal_State_Penalty>
-0

> <b_epik_Metal_Only>
0

> <s_lp_Force_Field>
OPLS_2005

> <r_lp_Energy>
44.1786

> <b_lp_Chiralities_Consistent>
1

> <s_lp_Variant>
AV-unprocessed.smi:1260-7

> <Gold.Version>
5.8.1

> <Gold.Id.Protein>
6NUR|6NUR_protein|mol2

> <Gold.PLP.Fitness>
36.2286

> <Gold.PLP.PLP>
-30.9840

> <Gold.PLP.part.hbond>
-1.5002

> <Gold.PLP.part.metal>
0.0000

> <Gold.PLP.part.buried>
-3.0655

> <Gold.PLP.part.nonpolar>
-26.3052

> <Gold.PLP.part.repulsive>
0.1096

> <Gold.PLP.ligand.clash>
0.0000

> <Gold.PLP.ligand.torsion>
0.3667

> <Gold.PLP.Chemscore.Hbond>
0.9920

> <Gold.PLP.Chemscore.CHOScore>
1.0000

> <Gold.PLP.Chemscore.Metal>
0.0000

> <Gold.Chemscore.Hbonds>
donor molecule, donor type, donor heavy atom, donor atom, acceptor molecule, acceptor atom, score
      L1  H     9    22       P1  7948  0.99
      L1  C     5    21       P1  7948  1.00

> <Gold.PLP.Chemscore.Internal.Correction>
0.0021

> <Gold.Rescore>
     Score         DG    S(hbond)    S(metal)    S(lipo)     H(rot)  DE(clash)    DE(int)     intcor
      9.17     -11.03       0.92        0.00      64.52       1.98       0.01       1.85       ----

> <Gold.Chemscore.Fitness>
9.1691

> <Gold.Chemscore.DG>
-11.0311

> <Gold.Chemscore.ZeroCoef>
-5.4800

> <Gold.Chemscore.Hbond>
0.9162

> <Gold.Chemscore.Metal>
0.0000

> <Gold.Chemscore.Lipo>
64.5189

> <Gold.Chemscore.Internal_Hbond>
0.0000

> <Gold.Chemscore.DEClash>
0.0106

> <Gold.Chemscore.DEInternal>
1.8513

> <Gold.Chemscore.Rot>
1.9757

> <Gold.Chemscore.Internal.Correction>
   9.000000E+99

> <Gold.Chemscore.Hbonds>
donor molecule, donor type, donor heavy atom, donor atom, acceptor molecule, acceptor atom, score
      L1  H     9    22       P1  7948  0.42

> <Gold.Chemscore.Hbond.Weighted>
-3.0601

> <Gold.Chemscore.Metal.Weighted>
-0.0000

> <Gold.Chemscore.Lipo.Weighted>
-7.5487

> <Gold.Chemscore.Internal_Hbond.Weighted>
0.0000

> <Gold.Chemscore.DEClash.Weighted>
0.0106

> <Gold.Chemscore.DEInternal.Weighted>
1.8513

> <Gold.Chemscore.Rot.Weighted>
5.0578

> <Gold.Chemscore.Internal.Correction.Weighted>
   9.000000E+99

> <Gold.Protein.RotatedTorsions>
[ 6907 6896 6895 6894 ] final   90.92 input  -60.11 | X-H torsion
[ 7974 7965 7964 7962 ] final   85.11 input  175.53 | X-H torsion
[ 8008 7997 7996 7995 ] final -133.58 input   59.86 | X-H torsion
[ 10167 10162 10161 10158 ] final  -81.59 input  -65.29 | X-H torsion
[ 10718 10713 10712 10709 ] final -105.22 input   66.30 | X-H torsion
[ 10763 10752 10751 10750 ] final -162.70 input  -60.55 | X-H torsion
[ 11005 11000 10999 10996 ] final  -46.16 input  -57.11 | X-H torsion

> <Gold.Protein.ActiveResidues>
 VAL166  LYS551  ARG553  GLY616  TRP617  ASP618  TYR619  PRO620  LYS621  CYS622 
 ASP623  PHE694  ASN695  SER759  ASP760  ASP761  ALA762  ILE779  LEU786  VAL792 
 PHE793  MET794  SER795  GLU796  ALA797  LYS798  CYS799  TRP800  GLU811  SER814 

> <Gold.Protein.RotatedAtoms>
  152.5447  134.1736  159.8606 H   0  0  0  0  0  0  0  0  0  0  0  0  # atno 6907 bound_to 6896
  151.1744  133.4757  159.2601 H   0  0  0  0  0  0  0  0  0  0  0  0  # atno 6908 bound_to 6896
  151.1242  135.0107  159.8608 H   0  0  0  0  0  0  0  0  0  0  0  0  # atno 6909 bound_to 6896
  145.5898  139.2336  143.2306 H   0  0  0  0  0  0  0  0  0  0  0  0  # atno 7974 bound_to 7965
  155.3479  140.0475  157.3046 H   0  0  0  0  0  0  0  0  0  0  0  0  # atno 8008 bound_to 7997
  154.5243  140.2235  155.8884 H   0  0  0  0  0  0  0  0  0  0  0  0  # atno 8009 bound_to 7997
  156.1722  140.3093  155.9001 H   0  0  0  0  0  0  0  0  0  0  0  0  # atno 8010 bound_to 7997
  140.4397  143.2519  151.8643 H   0  0  0  0  0  0  0  0  0  0  0  0  # atno 10167 bound_to 10162
  156.0337  130.5553  150.7508 H   0  0  0  0  0  0  0  0  0  0  0  0  # atno 10718 bound_to 10713
  154.7190  135.3022  154.9077 H   0  0  0  0  0  0  0  0  0  0  0  0  # atno 10763 bound_to 10752
  153.9955  135.6713  153.4760 H   0  0  0  0  0  0  0  0  0  0  0  0  # atno 10764 bound_to 10752
  153.0818  135.5005  154.8435 H   0  0  0  0  0  0  0  0  0  0  0  0  # atno 10765 bound_to 10752
  141.0561  133.6725  156.3115 H   0  0  0  0  0  0  0  0  0  0  0  0  # atno 11005 bound_to 11000
  146.1655  140.6724  142.9257 LP  0  0  0  0  0  0  0  0  0  0  0  0  # atno 17320 bound_to 7965
  144.7356  140.4799  143.6906 LP  0  0  0  0  0  0  0  0  0  0  0  0  # atno 17321 bound_to 7965
  139.4789  144.5242  151.8758 LP  0  0  0  0  0  0  0  0  0  0  0  0  # atno 17342 bound_to 10162
  140.4332  144.2087  150.5888 LP  0  0  0  0  0  0  0  0  0  0  0  0  # atno 17343 bound_to 10162
  157.5052  131.0921  151.0265 LP  0  0  0  0  0  0  0  0  0  0  0  0  # atno 17370 bound_to 10713
  157.0635  130.5835  149.5390 LP  0  0  0  0  0  0  0  0  0  0  0  0  # atno 17371 bound_to 10713
  140.5961  134.5602  157.5509 LP  0  0  0  0  0  0  0  0  0  0  0  0  # atno 17394 bound_to 11000
  139.9391  134.7819  156.0724 LP  0  0  0  0  0  0  0  0  0  0  0  0  # atno 17395 bound_to 11000

$$$$
