AV-unprocessed.smi:3085|AV-procd|sdf|11753|dock2
  -GOLD-   2272017143D 1   1.00000     0.00000
 Structure written by MMmdl.
 28 29  0  0  0  0  0  0  0  0  2 V2000
  152.7755  142.2859  159.3341 C   0  0  0  0  0  0  0  0  0  0  0  0
  151.6354  141.2768  159.1569 C   0  0  0  0  0  0  0  0  0  0  0  0
  151.4832  140.8406  157.7373 C   0  0  0  0  0  0  0  0  0  0  0  0
  150.3177  140.9904  157.0381 N   0  0  0  0  0  0  0  0  0  0  0  0
  150.6611  140.4286  155.8828 C   0  0  0  0  0  0  0  0  0  0  0  0
  149.7690  140.2806  154.6907 C   0  0  1  0  0  0  0  0  0  0  0  0
  149.6348  138.8148  154.2348 C   0  0  0  0  0  0  0  0  0  0  0  0
  148.6689  138.7186  153.1230 N   0  3  0  0  0  0  0  0  0  0  0  0
  147.3678  139.3146  153.4855 C   0  0  0  0  0  0  0  0  0  0  0  0
  147.5654  140.7612  153.9719 C   0  0  0  0  0  0  0  0  0  0  0  0
  148.4860  140.7817  155.0582 O   0  0  0  0  0  0  0  0  0  0  0  0
  151.9143  139.9685  155.8940 N   0  0  0  0  0  0  0  0  0  0  0  0
  152.4719  140.2180  157.0972 N   0  0  0  0  0  0  0  0  0  0  0  0
  152.4052  139.4977  155.1473 H   0  0  0  0  0  0  0  0  0  0  0  0
  152.8634  142.5944  160.3759 H   0  0  0  0  0  0  0  0  0  0  0  0
  152.6053  143.1809  158.7350 H   0  0  0  0  0  0  0  0  0  0  0  0
  153.7309  141.8565  159.0316 H   0  0  0  0  0  0  0  0  0  0  0  0
  151.8158  140.4010  159.7812 H   0  0  0  0  0  0  0  0  0  0  0  0
  150.6973  141.7138  159.5013 H   0  0  0  0  0  0  0  0  0  0  0  0
  150.1727  140.8899  153.8793 H   0  0  0  0  0  0  0  0  0  0  0  0
  150.5988  138.4203  153.9121 H   0  0  0  0  0  0  0  0  0  0  0  0
  149.2897  138.1882  155.0585 H   0  0  0  0  0  0  0  0  0  0  0  0
  149.0414  139.2151  152.3261 H   0  0  0  0  0  0  0  0  0  0  0  0
  146.7023  139.2858  152.6223 H   0  0  0  0  0  0  0  0  0  0  0  0
  146.9044  138.7140  154.2694 H   0  0  0  0  0  0  0  0  0  0  0  0
  147.9274  141.3975  153.1627 H   0  0  0  0  0  0  0  0  0  0  0  0
  146.6154  141.1795  154.3050 H   0  0  0  0  0  0  0  0  0  0  0  0
  148.5370  137.7484  152.8744 H   0  0  0  0  0  0  0  0  0  0  0  0
  1  2  1  0  0  0  0
  1 15  1  0  0  0  0
  1 16  1  0  0  0  0
  1 17  1  0  0  0  0
  2 18  1  0  0  0  0
  2 19  1  0  0  0  0
  2  3  1  0  0  0  0
  3  4  1  0  0  0  0
  3 13  2  0  0  0  0
  4  5  2  0  0  0  0
  5  6  1  0  0  0  0
  5 12  1  0  0  0  0
  6 11  1  0  0  0  0
  6  7  1  0  0  0  0
  6 20  1  0  0  0  0
  7  8  1  0  0  0  0
  7 21  1  0  0  0  0
  7 22  1  0  0  0  0
  8  9  1  0  0  0  0
  8 23  1  0  0  0  0
  8 28  1  0  0  0  0
  9 10  1  0  0  0  0
  9 24  1  0  0  0  0
  9 25  1  0  0  0  0
 10 11  1  0  0  0  0
 10 26  1  0  0  0  0
 10 27  1  0  0  0  0
 12 13  1  0  0  0  0
 12 14  1  0  0  0  0
M  CHG  1   8   1
M  END
> <s_m_source_file>
AV-unprocessed.smi

> <i_m_source_file_index>
3085

> <i_lp_mmshare_version>
43012

> <i_f3d_flags>
0

> <s_epik_input>
W0NIM11bQ0gyXWMxbmMobltuSF0xKVtDQEBIXTJbQ0gyXVtOSF1bQ0gyXVtDSDJdTzI=

> <s_epik_cmdline>
J2VwaWtfcHl0aG9uJywgJy1waCcsICc3LjAnLCAnLXRuJywgJzgnLCAnLW1hJywgJzIwMCcsICctbWV0YWxfYmluZGluZycsICctaW1hZScsICc8aW5maWxlLm1hZT4nLCAnLW9tYWUnLCAnPG91dGZpbGUubWFlPic=

> <r_epik_Ionization_Penalty>
0.162344

> <r_epik_Ionization_Penalty_Charging>
0.125708

> <r_epik_Ionization_Penalty_Neutral>
0.0366364

> <r_epik_State_Penalty>
0.637958

> <r_epik_Charging_Adjusted_Penalty>
0.763666

> <i_epik_Tot_Q>
1

> <i_epik_Tot_abs_Q>
1

> <r_epik_Metal_State_Penalty>
0.860091

> <b_epik_Metal_Only>
0

> <s_lp_Force_Field>
OPLS_2005

> <r_lp_Energy>
9.17309

> <b_lp_Chiralities_Consistent>
1

> <s_lp_Variant>
AV-unprocessed.smi:3085-4

> <Gold.Version>
5.8.1

> <Gold.Id.Protein>
6NUR|6NUR_protein|mol2

> <Gold.PLP.Fitness>
35.3458

> <Gold.PLP.PLP>
-23.4325

> <Gold.PLP.part.hbond>
-3.0000

> <Gold.PLP.part.metal>
0.0000

> <Gold.PLP.part.buried>
-2.7337

> <Gold.PLP.part.nonpolar>
-17.9174

> <Gold.PLP.part.repulsive>
0.3805

> <Gold.PLP.ligand.clash>
0.0000

> <Gold.PLP.ligand.torsion>
0.0351

> <Gold.PLP.Chemscore.Hbond>
3.9920

> <Gold.PLP.Chemscore.CHOScore>
0.0000

> <Gold.PLP.Chemscore.Metal>
0.0000

> <Gold.Chemscore.Hbonds>
donor molecule, donor type, donor heavy atom, donor atom, acceptor molecule, acceptor atom, score
      L1  H     8    23       P1  7957  0.99
      L1  H     8    28       P1  7948  2.00
      P1  H  7997  8010       L1    13  0.99

> <Gold.PLP.Chemscore.Internal.Correction>
0.0076

> <Gold.Rescore>
     Score         DG    S(hbond)    S(metal)    S(lipo)     H(rot)  DE(clash)    DE(int)     intcor
     16.60     -16.64       2.82        0.00      43.30       1.30       0.02       0.02       ----

> <Gold.Chemscore.Fitness>
16.6043

> <Gold.Chemscore.DG>
-16.6417

> <Gold.Chemscore.ZeroCoef>
-5.4800

> <Gold.Chemscore.Hbond>
2.8222

> <Gold.Chemscore.Metal>
0.0000

> <Gold.Chemscore.Lipo>
43.3024

> <Gold.Chemscore.Internal_Hbond>
0.0000

> <Gold.Chemscore.DEClash>
0.0187

> <Gold.Chemscore.DEInternal>
0.0187

> <Gold.Chemscore.Rot>
1.3011

> <Gold.Chemscore.Internal.Correction>
   9.000000E+99

> <Gold.Chemscore.Hbonds>
donor molecule, donor type, donor heavy atom, donor atom, acceptor molecule, acceptor atom, score
      L1  H     8    23       P1  7957  0.92
      L1  H     8    28       P1  7948  0.95
      P1  H  7997  8010       L1    13  0.36

> <Gold.Chemscore.Hbond.Weighted>
-9.4261

> <Gold.Chemscore.Metal.Weighted>
-0.0000

> <Gold.Chemscore.Lipo.Weighted>
-5.0664

> <Gold.Chemscore.Internal_Hbond.Weighted>
0.0000

> <Gold.Chemscore.DEClash.Weighted>
0.0187

> <Gold.Chemscore.DEInternal.Weighted>
0.0187

> <Gold.Chemscore.Rot.Weighted>
3.3308

> <Gold.Chemscore.Internal.Correction.Weighted>
   9.000000E+99

> <Gold.Protein.RotatedTorsions>
[ 6907 6896 6895 6894 ] final   38.23 input  -60.11 | X-H torsion
[ 7974 7965 7964 7962 ] final   71.91 input  175.53 | X-H torsion
[ 8008 7997 7996 7995 ] final   53.39 input   59.86 | X-H torsion
[ 10167 10162 10161 10158 ] final -101.79 input  -65.29 | X-H torsion
[ 10718 10713 10712 10709 ] final  133.08 input   66.30 | X-H torsion
[ 10763 10752 10751 10750 ] final -150.85 input  -60.55 | X-H torsion
[ 11005 11000 10999 10996 ] final -160.47 input  -57.11 | X-H torsion

> <Gold.Protein.ActiveResidues>
 VAL166  LYS551  ARG553  GLY616  TRP617  ASP618  TYR619  PRO620  LYS621  CYS622 
 ASP623  PHE694  ASN695  SER759  ASP760  ASP761  ALA762  ILE779  LEU786  VAL792 
 PHE793  MET794  SER795  GLU796  ALA797  LYS798  CYS799  TRP800  GLU811  SER814 

> <Gold.Protein.RotatedAtoms>
  152.1536  134.8968  160.0546 H   0  0  0  0  0  0  0  0  0  0  0  0  # atno 6907 bound_to 6896
  151.9990  133.3813  159.4182 H   0  0  0  0  0  0  0  0  0  0  0  0  # atno 6908 bound_to 6896
  150.6879  134.3776  159.5063 H   0  0  0  0  0  0  0  0  0  0  0  0  # atno 6909 bound_to 6896
  145.7599  139.2796  143.1382 H   0  0  0  0  0  0  0  0  0  0  0  0  # atno 7974 bound_to 7965
  155.4675  140.3464  155.4321 H   0  0  0  0  0  0  0  0  0  0  0  0  # atno 8008 bound_to 7997
  156.1122  140.1464  156.9352 H   0  0  0  0  0  0  0  0  0  0  0  0  # atno 8009 bound_to 7997
  154.4764  140.0884  156.7251 H   0  0  0  0  0  0  0  0  0  0  0  0  # atno 8010 bound_to 7997
  140.2375  143.3562  152.0831 H   0  0  0  0  0  0  0  0  0  0  0  0  # atno 10167 bound_to 10162
  157.4808  131.1085  150.9684 H   0  0  0  0  0  0  0  0  0  0  0  0  # atno 10718 bound_to 10713
  154.8094  135.3274  154.7346 H   0  0  0  0  0  0  0  0  0  0  0  0  # atno 10763 bound_to 10752
  153.7998  135.6904  153.4862 H   0  0  0  0  0  0  0  0  0  0  0  0  # atno 10764 bound_to 10752
  153.1861  135.4568  155.0036 H   0  0  0  0  0  0  0  0  0  0  0  0  # atno 10765 bound_to 10752
  140.6311  134.4650  157.5229 H   0  0  0  0  0  0  0  0  0  0  0  0  # atno 11005 bound_to 11000
  146.0274  140.8291  142.9893 LP  0  0  0  0  0  0  0  0  0  0  0  0  # atno 17320 bound_to 7965
  144.6832  140.2718  143.7305 LP  0  0  0  0  0  0  0  0  0  0  0  0  # atno 17321 bound_to 7965
  139.5088  144.6857  151.5893 LP  0  0  0  0  0  0  0  0  0  0  0  0  # atno 17342 bound_to 10162
  140.6139  143.9386  150.6473 LP  0  0  0  0  0  0  0  0  0  0  0  0  # atno 17343 bound_to 10162
  157.0418  130.5752  149.5357 LP  0  0  0  0  0  0  0  0  0  0  0  0  # atno 17370 bound_to 10713
  156.0120  130.5213  150.8020 LP  0  0  0  0  0  0  0  0  0  0  0  0  # atno 17371 bound_to 10713
  139.9115  134.8334  156.1510 LP  0  0  0  0  0  0  0  0  0  0  0  0  # atno 17394 bound_to 11000
  141.0674  133.6812  156.2072 LP  0  0  0  0  0  0  0  0  0  0  0  0  # atno 17395 bound_to 11000

$$$$
