AV-unprocessed.smi:2437|AV-procd|sdf|9594|dock8
  -GOLD-   2272013223D 1   1.00000     0.00000
 Structure written by MMmdl.
 34 35  0  0  0  0  0  0  0  0  3 V2000
  150.2269  143.1354  158.7503 O   0  0  0  0  0  0  0  0  0  0  0  0
  150.8188  142.7395  157.7449 C   0  0  0  0  0  0  0  0  0  0  0  0
  150.1098  141.8656  156.6998 C   0  0  0  0  0  0  0  0  0  0  0  0
  150.6631  140.5044  156.5984 N   0  0  0  0  0  0  0  0  0  0  0  0
  151.2518  139.9653  157.7594 C   0  0  0  0  0  0  0  0  0  0  0  0
  151.7964  138.7330  157.7800 C   0  0  0  0  0  0  0  0  0  0  0  0
  152.3965  138.1954  158.9814 N   0  3  0  0  0  0  0  0  0  0  0  0
  152.2983  136.9923  159.2005 O   0  0  0  0  0  0  0  0  0  0  0  0
  152.9834  138.9557  159.7458 O   0  5  0  0  0  0  0  0  0  0  0  0
  151.7632  137.9605  156.5533 C   0  0  0  0  0  0  0  0  0  0  0  0
  151.2033  138.4710  155.4389 C   0  0  0  0  0  0  0  0  0  0  0  0
  150.6101  139.8121  155.4191 C   0  0  0  0  0  0  0  0  0  0  0  0
  150.0979  140.2845  154.4043 O   0  0  0  0  0  0  0  0  0  0  0  0
  152.0977  143.0445  157.4793 N   0  0  0  0  0  0  0  0  0  0  0  0
  152.9654  143.8521  158.3329 C   0  0  0  0  0  0  0  0  0  0  0  0
  153.0554  143.2775  159.7616 C   0  0  0  0  0  0  0  0  0  0  0  0
  152.2772  144.2439  160.6549 C   0  0  0  0  0  0  0  0  0  0  0  0
  152.4514  145.5991  159.9774 C   0  0  0  0  0  0  0  0  0  0  0  0
  152.4102  145.2819  158.4816 C   0  0  0  0  0  0  0  0  0  0  0  0
  149.0489  141.8276  156.9508 H   0  0  0  0  0  0  0  0  0  0  0  0
  150.1539  142.3639  155.7295 H   0  0  0  0  0  0  0  0  0  0  0  0
  151.2327  140.6214  158.6176 H   0  0  0  0  0  0  0  0  0  0  0  0
  152.1889  136.9684  156.5185 H   0  0  0  0  0  0  0  0  0  0  0  0
  151.1912  137.8790  154.5355 H   0  0  0  0  0  0  0  0  0  0  0  0
  152.5037  142.6857  156.6272 H   0  0  0  0  0  0  0  0  0  0  0  0
  153.9647  143.8961  157.8955 H   0  0  0  0  0  0  0  0  0  0  0  0
  152.6840  142.2554  159.8468 H   0  0  0  0  0  0  0  0  0  0  0  0
  154.1002  143.2630  160.0743 H   0  0  0  0  0  0  0  0  0  0  0  0
  151.2214  143.9693  160.6629 H   0  0  0  0  0  0  0  0  0  0  0  0
  152.6310  144.2406  161.6861 H   0  0  0  0  0  0  0  0  0  0  0  0
  151.6898  146.3199  160.2762 H   0  0  0  0  0  0  0  0  0  0  0  0
  153.4254  146.0156  160.2380 H   0  0  0  0  0  0  0  0  0  0  0  0
  152.9766  146.0068  157.8960 H   0  0  0  0  0  0  0  0  0  0  0  0
  151.3753  145.3312  158.1385 H   0  0  0  0  0  0  0  0  0  0  0  0
  1  2  2  0  0  0  0
  2  3  1  0  0  0  0
  2 14  1  0  0  0  0
  3  4  1  0  0  0  0
  3 20  1  0  0  0  0
  3 21  1  0  0  0  0
  4 12  1  0  0  0  0
  4  5  1  0  0  0  0
  5  6  2  0  0  0  0
  5 22  1  0  0  0  0
  6  7  1  0  0  0  0
  6 10  1  0  0  0  0
  7  8  2  0  0  0  0
  7  9  1  0  0  0  0
 10 11  2  0  0  0  0
 10 23  1  0  0  0  0
 11 12  1  0  0  0  0
 11 24  1  0  0  0  0
 12 13  2  0  0  0  0
 14 15  1  0  0  0  0
 14 25  1  0  0  0  0
 15 19  1  0  0  0  0
 15 16  1  0  0  0  0
 15 26  1  0  0  0  0
 16 17  1  0  0  0  0
 16 27  1  0  0  0  0
 16 28  1  0  0  0  0
 17 18  1  0  0  0  0
 17 29  1  0  0  0  0
 17 30  1  0  0  0  0
 18 19  1  0  0  0  0
 18 31  1  0  0  0  0
 18 32  1  0  0  0  0
 19 33  1  0  0  0  0
 19 34  1  0  0  0  0
M  CHG  1   7   1
M  CHG  1   9  -1
M  END
> <s_m_source_file>
AV-unprocessed.smi

> <i_m_source_file_index>
2437

> <i_lp_mmshare_version>
43012

> <i_f3d_flags>
0

> <s_epik_input>
W0NIMl0xW0NIMl1bQ0gyXVtDSDJdW0NIXTFbTkhdQyg9TylbQ0gyXW4yW2NIXWMoW04rXSg9TylbTy1dKVtjSF1bY0hdYzI9Tw==

> <s_epik_cmdline>
J2VwaWtfcHl0aG9uJywgJy1waCcsICc3LjAnLCAnLXRuJywgJzgnLCAnLW1hJywgJzIwMCcsICctbWV0YWxfYmluZGluZycsICctaW1hZScsICc8aW5maWxlLm1hZT4nLCAnLW9tYWUnLCAnPG91dGZpbGUubWFlPic=

> <r_lp_tautomer_probability>
1

> <r_epik_Ionization_Penalty>
1.93821e-08

> <r_epik_Ionization_Penalty_Charging>
8.03436e-11

> <r_epik_Ionization_Penalty_Neutral>
1.93017e-08

> <r_epik_State_Penalty>
-0

> <r_epik_Charging_Adjusted_Penalty>
8.03436e-11

> <i_epik_Tot_Q>
0

> <i_epik_Tot_abs_Q>
2

> <r_epik_Metal_State_Penalty>
-0

> <b_epik_Metal_Only>
0

> <s_lp_Force_Field>
OPLS_2005

> <r_lp_Energy>
29.2975

> <b_lp_Chiralities_Consistent>
1

> <s_lp_Variant>
AV-unprocessed.smi:2437-1

> <Gold.Version>
5.8.1

> <Gold.Id.Protein>
6NUR|6NUR_protein|mol2

> <Gold.PLP.Fitness>
42.3815

> <Gold.PLP.PLP>
-38.3809

> <Gold.PLP.part.hbond>
-2.6187

> <Gold.PLP.part.metal>
0.0000

> <Gold.PLP.part.buried>
-4.1001

> <Gold.PLP.part.nonpolar>
-32.3460

> <Gold.PLP.part.repulsive>
0.2373

> <Gold.PLP.ligand.clash>
0.0000

> <Gold.PLP.ligand.torsion>
0.8990

> <Gold.PLP.Chemscore.Hbond>
1.9280

> <Gold.PLP.Chemscore.CHOScore>
0.0000

> <Gold.PLP.Chemscore.Metal>
0.0000

> <Gold.Chemscore.Hbonds>
donor molecule, donor type, donor heavy atom, donor atom, acceptor molecule, acceptor atom, score
      P1  H  6896  6908       L1     8  0.83
      P1  H  7989  7998       L1    13  0.98

> <Gold.PLP.Chemscore.Internal.Correction>
0.0146

> <Gold.Rescore>
     Score         DG    S(hbond)    S(metal)    S(lipo)     H(rot)  DE(clash)    DE(int)     intcor
     16.07     -18.37       1.97        0.00      88.53       1.58       0.28       2.03       ----

> <Gold.Chemscore.Fitness>
16.0685

> <Gold.Chemscore.DG>
-18.3726

> <Gold.Chemscore.ZeroCoef>
-5.4800

> <Gold.Chemscore.Hbond>
1.9723

> <Gold.Chemscore.Metal>
0.0000

> <Gold.Chemscore.Lipo>
88.5271

> <Gold.Chemscore.Internal_Hbond>
0.0000

> <Gold.Chemscore.DEClash>
0.2754

> <Gold.Chemscore.DEInternal>
2.0286

> <Gold.Chemscore.Rot>
1.5831

> <Gold.Chemscore.Internal.Correction>
   9.000000E+99

> <Gold.Chemscore.Hbonds>
donor molecule, donor type, donor heavy atom, donor atom, acceptor molecule, acceptor atom, score
      P1  H  6896  6908       L1     8  0.78
      P1  H  7989  7998       L1    13  0.28

> <Gold.Chemscore.Hbond.Weighted>
-6.5876

> <Gold.Chemscore.Metal.Weighted>
-0.0000

> <Gold.Chemscore.Lipo.Weighted>
-10.3577

> <Gold.Chemscore.Internal_Hbond.Weighted>
0.0000

> <Gold.Chemscore.DEClash.Weighted>
0.2754

> <Gold.Chemscore.DEInternal.Weighted>
2.0286

> <Gold.Chemscore.Rot.Weighted>
4.0527

> <Gold.Chemscore.Internal.Correction.Weighted>
   9.000000E+99

> <Gold.Protein.RotatedTorsions>
[ 6907 6896 6895 6894 ] final -100.36 input  -60.11 | X-H torsion
[ 7974 7965 7964 7962 ] final   90.75 input  175.53 | X-H torsion
[ 8008 7997 7996 7995 ] final -166.78 input   59.86 | X-H torsion
[ 10167 10162 10161 10158 ] final -126.82 input  -65.29 | X-H torsion
[ 10718 10713 10712 10709 ] final  -99.45 input   66.30 | X-H torsion
[ 10763 10752 10751 10750 ] final -148.44 input  -60.55 | X-H torsion
[ 11005 11000 10999 10996 ] final   40.15 input  -57.11 | X-H torsion

> <Gold.Protein.ActiveResidues>
 VAL166  LYS551  ARG553  GLY616  TRP617  ASP618  TYR619  PRO620  LYS621  CYS622 
 ASP623  PHE694  ASN695  SER759  ASP760  ASP761  ALA762  ILE779  LEU786  VAL792 
 PHE793  MET794  SER795  GLU796  ALA797  LYS798  CYS799  TRP800  GLU811  SER814 

> <Gold.Protein.RotatedAtoms>
  150.7113  134.0899  159.3927 H   0  0  0  0  0  0  0  0  0  0  0  0  # atno 6907 bound_to 6896
  151.8884  135.0424  160.0505 H   0  0  0  0  0  0  0  0  0  0  0  0  # atno 6908 bound_to 6896
  152.2511  133.5180  159.5362 H   0  0  0  0  0  0  0  0  0  0  0  0  # atno 6909 bound_to 6896
  145.5148  139.2277  143.2704 H   0  0  0  0  0  0  0  0  0  0  0  0  # atno 7974 bound_to 7965
  155.8685  140.0989  157.1566 H   0  0  0  0  0  0  0  0  0  0  0  0  # atno 8008 bound_to 7997
  154.3995  140.1351  156.4112 H   0  0  0  0  0  0  0  0  0  0  0  0  # atno 8009 bound_to 7997
  155.7777  140.3459  155.5283 H   0  0  0  0  0  0  0  0  0  0  0  0  # atno 8010 bound_to 7997
  139.9674  143.5883  152.2425 H   0  0  0  0  0  0  0  0  0  0  0  0  # atno 10167 bound_to 10162
  156.0134  130.5283  150.6671 H   0  0  0  0  0  0  0  0  0  0  0  0  # atno 10718 bound_to 10713
  154.8233  135.3334  154.6974 H   0  0  0  0  0  0  0  0  0  0  0  0  # atno 10763 bound_to 10752
  153.7603  135.6933  153.4931 H   0  0  0  0  0  0  0  0  0  0  0  0  # atno 10764 bound_to 10752
  153.2114  135.4480  155.0334 H   0  0  0  0  0  0  0  0  0  0  0  0  # atno 10765 bound_to 10752
  140.1958  134.3930  155.8122 H   0  0  0  0  0  0  0  0  0  0  0  0  # atno 11005 bound_to 11000
  146.2144  140.5957  142.9045 LP  0  0  0  0  0  0  0  0  0  0  0  0  # atno 17320 bound_to 7965
  144.7708  140.5632  143.6672 LP  0  0  0  0  0  0  0  0  0  0  0  0  # atno 17321 bound_to 7965
  139.6507  144.7660  151.2153 LP  0  0  0  0  0  0  0  0  0  0  0  0  # atno 17342 bound_to 10162
  140.7533  143.6165  150.8555 LP  0  0  0  0  0  0  0  0  0  0  0  0  # atno 17343 bound_to 10162
  157.4401  131.0860  151.0952 LP  0  0  0  0  0  0  0  0  0  0  0  0  # atno 17370 bound_to 10713
  157.1498  130.6179  149.5579 LP  0  0  0  0  0  0  0  0  0  0  0  0  # atno 17371 bound_to 10713
  141.2227  133.7069  156.8174 LP  0  0  0  0  0  0  0  0  0  0  0  0  # atno 17394 bound_to 11000
  140.2108  134.8828  157.3273 LP  0  0  0  0  0  0  0  0  0  0  0  0  # atno 17395 bound_to 11000

$$$$
