AV-unprocessed.smi:194|AV-procd|sdf|1522|dock5
  -GOLD-   2262019363D 1   1.00000     0.00000
 Structure written by MMmdl.
 53 55  0  0  0  0  0  0  0  0  1 V2000
  152.3243  143.3605  159.6372 C   0  0  0  0  0  0  0  0  0  0  0  0
  152.2630  141.9052  160.1289 C   0  0  2  0  0  0  0  0  0  0  0  0
  152.5196  141.8152  161.6489 C   0  0  0  0  0  0  0  0  0  0  0  0
  153.1736  143.4344  162.2876 S   0  0  2  0  0  0  0  0  0  0  0  0
  153.6381  142.8886  163.9986 C   0  0  0  0  0  0  0  0  0  0  0  0
  151.9729  144.3719  162.4281 O   0  0  0  0  0  0  0  0  0  0  0  0
  153.1730  141.0529  159.3511 N   0  0  0  0  0  0  0  0  0  0  0  0
  154.6199  141.1632  159.5122 C   0  0  0  0  0  0  0  0  0  0  0  0
  152.6938  140.4501  158.2317 C   0  0  0  0  0  0  0  0  0  0  0  0
  153.3069  139.3140  157.8070 N   0  0  0  0  0  0  0  0  0  0  0  0
  152.8874  138.6867  156.7054 C   0  0  0  0  0  0  0  0  0  0  0  0
  151.8878  139.0187  155.8877 N   0  0  0  0  0  0  0  0  0  0  0  0
  151.2656  140.1588  156.3028 C   0  0  0  0  0  0  0  0  0  0  0  0
  151.5957  140.9281  157.4561 C   0  0  0  0  0  0  0  0  0  0  0  0
  150.7180  142.0011  157.5671 N   0  0  0  0  0  0  0  0  0  0  0  0
  149.9257  141.8782  156.5385 C   0  0  0  0  0  0  0  0  0  0  0  0
  150.1955  140.8106  155.7132 N   0  0  0  0  0  0  0  0  0  0  0  0
  149.4684  140.4412  154.5074 C   0  0  0  0  0  0  0  0  0  0  0  0
  147.9151  140.3952  154.6371 C   0  0  0  0  0  0  0  0  0  0  0  0
  147.2682  139.7263  153.3864 C   0  0  0  0  0  0  0  0  0  0  0  0
  147.9856  138.6092  152.9011 O   0  0  0  0  0  0  0  0  0  0  0  0
  147.4862  139.6938  155.9517 C   0  0  0  0  0  0  0  0  0  0  0  0
  145.9993  139.9099  156.2801 C   0  0  0  0  0  0  0  0  0  0  0  0
  145.7283  141.3019  156.3815 O   0  0  0  0  0  0  0  0  0  0  0  0
  145.9548  141.9978  155.1628 C   0  0  0  0  0  0  0  0  0  0  0  0
  147.4307  141.8646  154.7383 C   0  0  0  0  0  0  0  0  0  0  0  0
  151.5913  143.9791  160.1557 H   0  0  0  0  0  0  0  0  0  0  0  0
  152.1101  143.4231  158.5697 H   0  0  0  0  0  0  0  0  0  0  0  0
  153.3068  143.8016  159.8070 H   0  0  0  0  0  0  0  0  0  0  0  0
  151.2355  141.5879  159.9592 H   0  0  0  0  0  0  0  0  0  0  0  0
  151.6019  141.5721  162.1837 H   0  0  0  0  0  0  0  0  0  0  0  0
  153.2350  141.0257  161.8809 H   0  0  0  0  0  0  0  0  0  0  0  0
  154.4103  142.1214  163.9728 H   0  0  0  0  0  0  0  0  0  0  0  0
  152.7679  142.4930  164.5220 H   0  0  0  0  0  0  0  0  0  0  0  0
  154.0233  143.7370  164.5639 H   0  0  0  0  0  0  0  0  0  0  0  0
  155.1254  140.2812  159.1173 H   0  0  0  0  0  0  0  0  0  0  0  0
  154.8946  141.2490  160.5624 H   0  0  0  0  0  0  0  0  0  0  0  0
  155.0002  142.0424  158.9916 H   0  0  0  0  0  0  0  0  0  0  0  0
  153.4316  137.7923  156.4405 H   0  0  0  0  0  0  0  0  0  0  0  0
  149.1234  142.5751  156.3446 H   0  0  0  0  0  0  0  0  0  0  0  0
  149.7580  141.1452  153.7259 H   0  0  0  0  0  0  0  0  0  0  0  0
  149.8407  139.4698  154.1790 H   0  0  0  0  0  0  0  0  0  0  0  0
  146.2615  139.3716  153.5992 H   0  0  0  0  0  0  0  0  0  0  0  0
  147.1672  140.4517  152.5784 H   0  0  0  0  0  0  0  0  0  0  0  0
  148.5284  138.8897  152.1802 H   0  0  0  0  0  0  0  0  0  0  0  0
  147.7031  138.6260  155.9202 H   0  0  0  0  0  0  0  0  0  0  0  0
  148.0739  140.0925  156.7795 H   0  0  0  0  0  0  0  0  0  0  0  0
  145.3529  139.4495  155.5317 H   0  0  0  0  0  0  0  0  0  0  0  0
  145.7590  139.4392  157.2336 H   0  0  0  0  0  0  0  0  0  0  0  0
  145.2743  141.6363  154.3919 H   0  0  0  0  0  0  0  0  0  0  0  0
  145.7106  143.0491  155.3166 H   0  0  0  0  0  0  0  0  0  0  0  0
  148.0341  142.3967  155.4752 H   0  0  0  0  0  0  0  0  0  0  0  0
  147.5899  142.3828  153.7918 H   0  0  0  0  0  0  0  0  0  0  0  0
  1  2  1  0  0  0  0
  1 27  1  0  0  0  0
  1 28  1  0  0  0  0
  1 29  1  0  0  0  0
  2  3  1  0  0  0  0
  2  7  1  0  0  0  0
  2 30  1  0  0  0  0
  3  4  1  0  0  0  0
  3 31  1  0  0  0  0
  3 32  1  0  0  0  0
  4  5  1  0  0  0  0
  4  6  2  0  0  0  0
  5 33  1  0  0  0  0
  5 34  1  0  0  0  0
  5 35  1  0  0  0  0
  7  8  1  0  0  0  0
  7  9  1  0  0  0  0
  8 36  1  0  0  0  0
  8 37  1  0  0  0  0
  8 38  1  0  0  0  0
  9 14  1  0  0  0  0
  9 10  2  0  0  0  0
 10 11  1  0  0  0  0
 11 12  2  0  0  0  0
 11 39  1  0  0  0  0
 12 13  1  0  0  0  0
 13 17  1  0  0  0  0
 13 14  2  0  0  0  0
 14 15  1  0  0  0  0
 15 16  2  0  0  0  0
 16 17  1  0  0  0  0
 16 40  1  0  0  0  0
 17 18  1  0  0  0  0
 18 19  1  0  0  0  0
 18 41  1  0  0  0  0
 18 42  1  0  0  0  0
 19 26  1  0  0  0  0
 19 20  1  0  0  0  0
 19 22  1  0  0  0  0
 20 21  1  0  0  0  0
 20 43  1  0  0  0  0
 20 44  1  0  0  0  0
 21 45  1  0  0  0  0
 22 23  1  0  0  0  0
 22 46  1  0  0  0  0
 22 47  1  0  0  0  0
 23 24  1  0  0  0  0
 23 48  1  0  0  0  0
 23 49  1  0  0  0  0
 24 25  1  0  0  0  0
 25 26  1  0  0  0  0
 25 50  1  0  0  0  0
 25 51  1  0  0  0  0
 26 52  1  0  0  0  0
 26 53  1  0  0  0  0
M  END
> <s_m_source_file>
AV-unprocessed.smi

> <i_m_source_file_index>
194

> <i_lp_mmshare_version>
43012

> <i_f3d_flags>
0

> <s_epik_input>
W0NIM11bU0BAXSg9TylbQ0gyXVtDQEBIXShbQ0gzXSlOKFtDSDNdKWMobltjSF1uMSljKGMxMiluW2NIXW4yW0NIMl1DMyhbQ0gyXVtPSF0pW0NIMl1bQ0gyXU9bQ0gyXVtDSDJdMw==

> <s_epik_cmdline>
J2VwaWtfcHl0aG9uJywgJy1waCcsICc3LjAnLCAnLXRuJywgJzgnLCAnLW1hJywgJzIwMCcsICctbWV0YWxfYmluZGluZycsICctaW1hZScsICc8aW5maWxlLm1hZT4nLCAnLW9tYWUnLCAnPG91dGZpbGUubWFlPic=

> <r_lp_tautomer_probability>
1

> <r_epik_Ionization_Penalty>
0.00101625

> <r_epik_Ionization_Penalty_Charging>
0

> <r_epik_Ionization_Penalty_Neutral>
0.00101625

> <r_epik_State_Penalty>
0.000568005

> <r_epik_Charging_Adjusted_Penalty>
0.000568005

> <i_epik_Tot_Q>
0

> <i_epik_Tot_abs_Q>
0

> <r_epik_Metal_State_Penalty>
-0

> <b_epik_Metal_Only>
0

> <s_lp_Force_Field>
OPLS_2005

> <r_lp_Energy>
28.7742

> <b_lp_Chiralities_Consistent>
1

> <s_lp_Variant>
AV-unprocessed.smi:194-3

> <Gold.Version>
5.8.1

> <Gold.Id.Protein>
6NUR|6NUR_protein|mol2

> <Gold.PLP.Fitness>
42.2958

> <Gold.PLP.PLP>
-38.7342

> <Gold.PLP.part.hbond>
-3.0000

> <Gold.PLP.part.metal>
0.0000

> <Gold.PLP.part.buried>
-0.7665

> <Gold.PLP.part.nonpolar>
-35.8677

> <Gold.PLP.part.repulsive>
3.3691

> <Gold.PLP.ligand.clash>
0.0000

> <Gold.PLP.ligand.torsion>
2.3746

> <Gold.PLP.Chemscore.Hbond>
1.5620

> <Gold.PLP.Chemscore.CHOScore>
1.0000

> <Gold.PLP.Chemscore.Metal>
0.0000

> <Gold.Chemscore.Hbonds>
donor molecule, donor type, donor heavy atom, donor atom, acceptor molecule, acceptor atom, score
      L1  H    21    45       P1  7957  1.00
      P1  H  7997  8009       L1    10  0.88
      L1  C    16    40       P1  8028  1.00

> <Gold.PLP.Chemscore.Internal.Correction>
0.6248

> <Gold.Rescore>
     Score         DG    S(hbond)    S(metal)    S(lipo)     H(rot)  DE(clash)    DE(int)     intcor
      2.93     -11.75       0.85        0.00      95.70       3.03       3.11       5.70       ----

> <Gold.Chemscore.Fitness>
2.9345

> <Gold.Chemscore.DG>
-11.7453

> <Gold.Chemscore.ZeroCoef>
-5.4800

> <Gold.Chemscore.Hbond>
0.8455

> <Gold.Chemscore.Metal>
0.0000

> <Gold.Chemscore.Lipo>
95.7013

> <Gold.Chemscore.Internal_Hbond>
0.0000

> <Gold.Chemscore.DEClash>
3.1062

> <Gold.Chemscore.DEInternal>
5.7046

> <Gold.Chemscore.Rot>
3.0295

> <Gold.Chemscore.Internal.Correction>
   9.000000E+99

> <Gold.Chemscore.Hbonds>
donor molecule, donor type, donor heavy atom, donor atom, acceptor molecule, acceptor atom, score
      L1  H    21    45       P1  7957  0.96
      P1  H  7997  8009       L1    10  0.05

> <Gold.Chemscore.Hbond.Weighted>
-2.8238

> <Gold.Chemscore.Metal.Weighted>
-0.0000

> <Gold.Chemscore.Lipo.Weighted>
-11.1971

> <Gold.Chemscore.Internal_Hbond.Weighted>
0.0000

> <Gold.Chemscore.DEClash.Weighted>
3.1062

> <Gold.Chemscore.DEInternal.Weighted>
5.7046

> <Gold.Chemscore.Rot.Weighted>
7.7555

> <Gold.Chemscore.Internal.Correction.Weighted>
   9.000000E+99

> <Gold.Protein.RotatedTorsions>
[ 6907 6896 6895 6894 ] final   62.34 input  -60.11 | X-H torsion
[ 7974 7965 7964 7962 ] final -105.06 input  175.53 | X-H torsion
[ 8008 7997 7996 7995 ] final  136.81 input   59.86 | X-H torsion
[ 10167 10162 10161 10158 ] final -164.42 input  -65.29 | X-H torsion
[ 10718 10713 10712 10709 ] final  125.57 input   66.30 | X-H torsion
[ 10763 10752 10751 10750 ] final -131.21 input  -60.55 | X-H torsion
[ 11005 11000 10999 10996 ] final  121.31 input  -57.11 | X-H torsion

> <Gold.Protein.ActiveResidues>
 VAL166  LYS551  ARG553  GLY616  TRP617  ASP618  TYR619  PRO620  LYS621  CYS622 
 ASP623  PHE694  ASN695  SER759  ASP760  ASP761  ALA762  ILE779  LEU786  VAL792 
 PHE793  MET794  SER795  GLU796  ALA797  LYS798  CYS799  TRP800  GLU811  SER814 

> <Gold.Protein.RotatedAtoms>
  152.4164  134.6034  160.0006 H   0  0  0  0  0  0  0  0  0  0  0  0  # atno 6907 bound_to 6896
  151.6197  133.3334  159.3093 H   0  0  0  0  0  0  0  0  0  0  0  0  # atno 6908 bound_to 6896
  150.8052  134.7212  159.6704 H   0  0  0  0  0  0  0  0  0  0  0  0  # atno 6909 bound_to 6896
  145.2353  140.9185  143.3181 H   0  0  0  0  0  0  0  0  0  0  0  0  # atno 7974 bound_to 7965
  156.3003  140.2435  156.3806 H   0  0  0  0  0  0  0  0  0  0  0  0  # atno 8008 bound_to 7997
  154.8704  140.0416  157.1741 H   0  0  0  0  0  0  0  0  0  0  0  0  # atno 8009 bound_to 7997
  154.8801  140.2948  155.5434 H   0  0  0  0  0  0  0  0  0  0  0  0  # atno 8010 bound_to 7997
  139.6252  144.0546  152.1968 H   0  0  0  0  0  0  0  0  0  0  0  0  # atno 10167 bound_to 10162
  157.5492  131.1094  150.8730 H   0  0  0  0  0  0  0  0  0  0  0  0  # atno 10718 bound_to 10713
  154.8752  135.3837  154.4208 H   0  0  0  0  0  0  0  0  0  0  0  0  # atno 10763 bound_to 10752
  153.4912  135.7030  153.5888 H   0  0  0  0  0  0  0  0  0  0  0  0  # atno 10764 bound_to 10752
  153.4261  135.3890  155.2108 H   0  0  0  0  0  0  0  0  0  0  0  0  # atno 10765 bound_to 10752
  139.9221  134.9638  156.7939 H   0  0  0  0  0  0  0  0  0  0  0  0  # atno 11005 bound_to 11000
  144.9639  139.3951  143.6342 LP  0  0  0  0  0  0  0  0  0  0  0  0  # atno 17320 bound_to 7965
  146.3342  139.8705  142.8841 LP  0  0  0  0  0  0  0  0  0  0  0  0  # atno 17321 bound_to 7965
  140.0198  144.6162  150.7576 LP  0  0  0  0  0  0  0  0  0  0  0  0  # atno 17342 bound_to 10162
  140.7406  143.2807  151.3606 LP  0  0  0  0  0  0  0  0  0  0  0  0  # atno 17343 bound_to 10162
  156.9260  130.5332  149.5279 LP  0  0  0  0  0  0  0  0  0  0  0  0  # atno 17370 bound_to 10713
  156.0562  130.5623  150.9096 LP  0  0  0  0  0  0  0  0  0  0  0  0  # atno 17371 bound_to 10713
  140.6445  133.9788  155.7724 LP  0  0  0  0  0  0  0  0  0  0  0  0  # atno 17394 bound_to 11000
  141.0749  134.0149  157.3472 LP  0  0  0  0  0  0  0  0  0  0  0  0  # atno 17395 bound_to 11000

$$$$
