AV-unprocessed.smi:3209|AV-procd|sdf|12269|dock8
  -GOLD-   2272018103D 1   1.00000     0.00000
 Structure written by MMmdl.
 37 39  0  0  0  0  0  0  0  0  2 V2000
  152.5010  143.5876  161.6340 C   0  0  0  0  0  0  0  0  0  0  0  0
  151.9610  143.6186  160.2450 C   0  0  0  0  0  0  0  0  0  0  0  0
  151.3082  142.5980  159.6827 N   0  0  0  0  0  0  0  0  0  0  0  0
  150.9056  142.8720  158.3720 C   0  0  0  0  0  0  0  0  0  0  0  0
  150.1609  141.8334  157.5896 C   0  0  0  0  0  0  0  0  0  0  0  0
  150.6875  141.6992  156.1545 C   0  0  0  0  0  0  0  0  0  0  0  0
  149.6908  142.1804  155.1764 N   0  3  0  0  0  0  0  0  0  0  0  0
  148.3808  141.4967  155.2463 C   0  0  1  0  0  0  0  0  0  0  0  0
  147.5918  141.5893  153.9193 C   0  0  0  0  0  0  0  0  0  0  0  0
  147.3458  140.1123  153.5613 C   0  0  2  0  0  0  0  0  0  0  0  0
  146.3480  139.4963  154.5595 C   0  0  0  0  0  0  0  0  0  0  0  0
  147.1872  139.3730  155.8456 C   0  0  0  0  0  0  0  0  0  0  0  0
  148.5433  139.9713  155.4254 C   0  0  1  0  0  0  0  0  0  0  0  0
  148.6599  139.4707  153.9885 C   0  0  0  0  0  0  0  0  0  0  0  0
  151.2603  144.1289  157.9484 C   0  0  0  0  0  0  0  0  0  0  0  0
  152.1179  145.0116  159.1819 S   0  0  0  0  0  0  0  0  0  0  0  0
  152.4564  142.5772  162.0415 H   0  0  0  0  0  0  0  0  0  0  0  0
  151.9184  144.2499  162.2743 H   0  0  0  0  0  0  0  0  0  0  0  0
  153.5394  143.9189  161.6382 H   0  0  0  0  0  0  0  0  0  0  0  0
  150.2305  140.8690  158.0945 H   0  0  0  0  0  0  0  0  0  0  0  0
  149.0988  142.0818  157.5652 H   0  0  0  0  0  0  0  0  0  0  0  0
  151.6066  142.2752  156.0384 H   0  0  0  0  0  0  0  0  0  0  0  0
  150.9321  140.6569  155.9464 H   0  0  0  0  0  0  0  0  0  0  0  0
  149.5459  143.1712  155.3085 H   0  0  0  0  0  0  0  0  0  0  0  0
  147.8116  141.9147  156.0782 H   0  0  0  0  0  0  0  0  0  0  0  0
  146.6619  142.1487  154.0287 H   0  0  0  0  0  0  0  0  0  0  0  0
  148.1764  142.0710  153.1338 H   0  0  0  0  0  0  0  0  0  0  0  0
  147.0735  139.9550  152.5173 H   0  0  0  0  0  0  0  0  0  0  0  0
  145.4636  140.1200  154.6969 H   0  0  0  0  0  0  0  0  0  0  0  0
  146.0157  138.5133  154.2232 H   0  0  0  0  0  0  0  0  0  0  0  0
  146.7395  139.9004  156.6888 H   0  0  0  0  0  0  0  0  0  0  0  0
  147.2987  138.3258  156.1300 H   0  0  0  0  0  0  0  0  0  0  0  0
  149.3628  139.6842  156.0855 H   0  0  0  0  0  0  0  0  0  0  0  0
  148.6557  138.3821  153.9071 H   0  0  0  0  0  0  0  0  0  0  0  0
  149.5282  139.8652  153.4579 H   0  0  0  0  0  0  0  0  0  0  0  0
  151.0716  144.5890  156.9896 H   0  0  0  0  0  0  0  0  0  0  0  0
  150.0713  142.0314  154.2527 H   0  0  0  0  0  0  0  0  0  0  0  0
  1  2  1  0  0  0  0
  1 17  1  0  0  0  0
  1 18  1  0  0  0  0
  1 19  1  0  0  0  0
  2 16  1  0  0  0  0
  2  3  2  0  0  0  0
  3  4  1  0  0  0  0
  4  5  1  0  0  0  0
  4 15  2  0  0  0  0
  5  6  1  0  0  0  0
  5 20  1  0  0  0  0
  5 21  1  0  0  0  0
  6  7  1  0  0  0  0
  6 22  1  0  0  0  0
  6 23  1  0  0  0  0
  7  8  1  0  0  0  0
  7 24  1  0  0  0  0
  7 37  1  0  0  0  0
  8 13  1  0  0  0  0
  8  9  1  0  0  0  0
  8 25  1  0  0  0  0
  9 10  1  0  0  0  0
  9 26  1  0  0  0  0
  9 27  1  0  0  0  0
 10 14  1  0  0  0  0
 10 11  1  0  0  0  0
 10 28  1  0  0  0  0
 11 12  1  0  0  0  0
 11 29  1  0  0  0  0
 11 30  1  0  0  0  0
 12 13  1  0  0  0  0
 12 31  1  0  0  0  0
 12 32  1  0  0  0  0
 13 14  1  0  0  0  0
 13 33  1  0  0  0  0
 14 34  1  0  0  0  0
 14 35  1  0  0  0  0
 15 16  1  0  0  0  0
 15 36  1  0  0  0  0
M  CHG  1   7   1
M  END
> <s_m_source_file>
AV-unprocessed.smi

> <i_m_source_file_index>
3209

> <i_lp_mmshare_version>
43012

> <i_f3d_flags>
0

> <s_epik_input>
W0NIM11jMW5jKFtjSF1zMSlbQ0gyXVtDSDJdW05IXVtDQEhdKFtDSDJdW0NASF0yMylbQ0BIXShbQ0gyXTMpW0NIMl1bQ0gyXTI=

> <s_epik_cmdline>
J2VwaWtfcHl0aG9uJywgJy1waCcsICc3LjAnLCAnLXRuJywgJzgnLCAnLW1hJywgJzIwMCcsICctbWV0YWxfYmluZGluZycsICctaW1hZScsICc8aW5maWxlLm1hZT4nLCAnLW9tYWUnLCAnPG91dGZpbGUubWFlPic=

> <r_lp_tautomer_probability>
1

> <r_epik_Ionization_Penalty>
0.000342479

> <r_epik_Ionization_Penalty_Charging>
0.000317129

> <r_epik_Ionization_Penalty_Neutral>
2.535e-05

> <r_epik_State_Penalty>
-0

> <r_epik_Charging_Adjusted_Penalty>
0.000317129

> <i_epik_Tot_Q>
1

> <i_epik_Tot_abs_Q>
1

> <r_epik_Metal_State_Penalty>
-0

> <b_epik_Metal_Only>
0

> <s_lp_Force_Field>
OPLS_2005

> <r_lp_Energy>
48.296

> <b_lp_Chiralities_Consistent>
1

> <s_lp_Variant>
AV-unprocessed.smi:3209-2

> <Gold.Version>
5.8.1

> <Gold.Id.Protein>
6NUR|6NUR_protein|mol2

> <Gold.PLP.Fitness>
41.9490

> <Gold.PLP.PLP>
-34.4325

> <Gold.PLP.part.hbond>
-1.5847

> <Gold.PLP.part.metal>
0.0000

> <Gold.PLP.part.buried>
-3.0224

> <Gold.PLP.part.nonpolar>
-30.0386

> <Gold.PLP.part.repulsive>
0.2201

> <Gold.PLP.ligand.clash>
0.0000

> <Gold.PLP.ligand.torsion>
0.7457

> <Gold.PLP.Chemscore.Hbond>
2.0000

> <Gold.PLP.Chemscore.CHOScore>
0.9989

> <Gold.PLP.Chemscore.Metal>
0.0000

> <Gold.Chemscore.Hbonds>
donor molecule, donor type, donor heavy atom, donor atom, acceptor molecule, acceptor atom, score
      L1  H     7    24       P1  8028  2.00
      L1  C    15    36       P1  8028  1.00

> <Gold.PLP.Chemscore.Internal.Correction>
0.0113

> <Gold.Rescore>
     Score         DG    S(hbond)    S(metal)    S(lipo)     H(rot)  DE(clash)    DE(int)     intcor
     16.90     -17.78       0.99        0.00     105.63       1.31       0.13       0.76       ----

> <Gold.Chemscore.Fitness>
16.8987

> <Gold.Chemscore.DG>
-17.7844

> <Gold.Chemscore.ZeroCoef>
-5.4800

> <Gold.Chemscore.Hbond>
0.9886

> <Gold.Chemscore.Metal>
0.0000

> <Gold.Chemscore.Lipo>
105.6265

> <Gold.Chemscore.Internal_Hbond>
0.0000

> <Gold.Chemscore.DEClash>
0.1301

> <Gold.Chemscore.DEInternal>
0.7556

> <Gold.Chemscore.Rot>
1.3108

> <Gold.Chemscore.Internal.Correction>
   9.000000E+99

> <Gold.Chemscore.Hbonds>
donor molecule, donor type, donor heavy atom, donor atom, acceptor molecule, acceptor atom, score
      L1  H     7    24       P1  8028  1.00

> <Gold.Chemscore.Hbond.Weighted>
-3.3019

> <Gold.Chemscore.Metal.Weighted>
-0.0000

> <Gold.Chemscore.Lipo.Weighted>
-12.3583

> <Gold.Chemscore.Internal_Hbond.Weighted>
0.0000

> <Gold.Chemscore.DEClash.Weighted>
0.1301

> <Gold.Chemscore.DEInternal.Weighted>
0.7556

> <Gold.Chemscore.Rot.Weighted>
3.3558

> <Gold.Chemscore.Internal.Correction.Weighted>
   9.000000E+99

> <Gold.Protein.RotatedTorsions>
[ 6907 6896 6895 6894 ] final  -23.83 input  -60.11 | X-H torsion
[ 7974 7965 7964 7962 ] final  -61.83 input  175.53 | X-H torsion
[ 8008 7997 7996 7995 ] final  -94.05 input   59.86 | X-H torsion
[ 10167 10162 10161 10158 ] final -145.41 input  -65.29 | X-H torsion
[ 10718 10713 10712 10709 ] final   17.28 input   66.30 | X-H torsion
[ 10763 10752 10751 10750 ] final  126.25 input  -60.55 | X-H torsion
[ 11005 11000 10999 10996 ] final  150.07 input  -57.11 | X-H torsion

> <Gold.Protein.ActiveResidues>
 VAL166  LYS551  ARG553  GLY616  TRP617  ASP618  TYR619  PRO620  LYS621  CYS622 
 ASP623  PHE694  ASN695  SER759  ASP760  ASP761  ALA762  ILE779  LEU786  VAL792 
 PHE793  MET794  SER795  GLU796  ALA797  LYS798  CYS799  TRP800  GLU811  SER814 

> <Gold.Protein.RotatedAtoms>
  151.1983  135.0432  159.8861 H   0  0  0  0  0  0  0  0  0  0  0  0  # atno 6907 bound_to 6896
  152.5434  134.0879  159.8274 H   0  0  0  0  0  0  0  0  0  0  0  0  # atno 6908 bound_to 6896
  151.1016  133.5192  159.2641 H   0  0  0  0  0  0  0  0  0  0  0  0  # atno 6909 bound_to 6896
  145.7987  140.8668  143.0243 H   0  0  0  0  0  0  0  0  0  0  0  0  # atno 7974 bound_to 7965
  154.7434  140.0493  157.0831 H   0  0  0  0  0  0  0  0  0  0  0  0  # atno 8008 bound_to 7997
  155.0149  140.3140  155.4796 H   0  0  0  0  0  0  0  0  0  0  0  0  # atno 8009 bound_to 7997
  156.2869  140.2177  156.5265 H   0  0  0  0  0  0  0  0  0  0  0  0  # atno 8010 bound_to 7997
  139.7808  143.8103  152.2638 H   0  0  0  0  0  0  0  0  0  0  0  0  # atno 10167 bound_to 10162
  157.0799  130.6383  149.5824 H   0  0  0  0  0  0  0  0  0  0  0  0  # atno 10718 bound_to 10713
  153.6903  135.3300  155.3200 H   0  0  0  0  0  0  0  0  0  0  0  0  # atno 10763 bound_to 10752
  154.8441  135.4430  154.1515 H   0  0  0  0  0  0  0  0  0  0  0  0  # atno 10764 bound_to 10752
  153.2555  135.6986  153.7711 H   0  0  0  0  0  0  0  0  0  0  0  0  # atno 10765 bound_to 10752
  140.1099  134.8930  157.1921 H   0  0  0  0  0  0  0  0  0  0  0  0  # atno 11005 bound_to 11000
  144.6771  140.0227  143.7483 LP  0  0  0  0  0  0  0  0  0  0  0  0  # atno 17320 bound_to 7965
  145.9901  139.3008  143.0990 LP  0  0  0  0  0  0  0  0  0  0  0  0  # atno 17321 bound_to 7965
  139.8165  144.7314  150.9628 LP  0  0  0  0  0  0  0  0  0  0  0  0  # atno 17342 bound_to 10162
  140.7818  143.4199  151.0857 LP  0  0  0  0  0  0  0  0  0  0  0  0  # atno 17343 bound_to 10162
  155.9926  130.4985  150.7348 LP  0  0  0  0  0  0  0  0  0  0  0  0  # atno 17370 bound_to 10713
  157.4808  131.0902  151.0538 LP  0  0  0  0  0  0  0  0  0  0  0  0  # atno 17371 bound_to 10713
  140.3105  134.3029  155.7268 LP  0  0  0  0  0  0  0  0  0  0  0  0  # atno 17394 bound_to 11000
  141.2127  133.7647  156.9769 LP  0  0  0  0  0  0  0  0  0  0  0  0  # atno 17395 bound_to 11000

$$$$
