AV-unprocessed.smi:1662|AV-procd|sdf|6664|dock2
  -GOLD-   22720 7373D 1   1.00000     0.00000
 Structure written by MMmdl.
 47 48  0  0  0  0  0  0  0  0  1 V2000
  152.3948  142.7349  159.7708 C   0  0  0  0  0  0  0  0  0  0  0  0
  152.2195  141.4879  158.9470 C   0  0  0  0  0  0  0  0  0  0  0  0
  152.5181  140.3677  159.5184 N   0  0  0  0  0  0  0  0  0  0  0  0
  152.4004  139.1650  158.8489 N   0  0  0  0  0  0  0  0  0  0  0  0
  152.8044  137.9934  159.6393 C   0  0  0  0  0  0  0  0  0  0  0  0
  154.0476  138.2574  160.4998 C   0  0  0  0  0  0  0  0  0  0  0  0
  155.0794  138.6949  159.9893 O   0  0  0  0  0  0  0  0  0  0  0  0
  153.9220  138.0025  161.8110 N   0  0  0  0  0  0  0  0  0  0  0  0
  154.9731  138.1599  162.8138 C   0  0  1  0  0  0  0  0  0  0  0  0
  155.3739  139.6461  162.9010 C   0  0  0  0  0  0  0  0  0  0  0  0
  156.4134  139.8956  164.0025 C   0  0  0  0  0  0  0  0  0  0  0  0
  155.9211  139.3697  165.3599 C   0  0  0  0  0  0  0  0  0  0  0  0
  155.5404  137.8760  165.3040 C   0  0  2  0  0  0  0  0  0  0  0  0
  156.7894  136.9754  165.2114 C   0  0  0  0  0  0  0  0  0  0  0  0
  154.4910  137.6264  164.1874 C   0  0  2  0  0  0  0  0  0  0  0  0
  154.0292  136.1563  164.1315 C   0  0  0  0  0  0  0  0  0  0  0  0
  151.9604  139.0307  157.5643 C   0  0  0  0  0  0  0  0  0  0  0  0
  151.8638  137.9352  157.0084 O   0  0  0  0  0  0  0  0  0  0  0  0
  151.6220  140.3037  156.9241 C   0  0  0  0  0  0  0  0  0  0  0  0
  151.1615  140.2085  155.5765 C   0  0  0  0  0  0  0  0  0  0  0  0
  150.7741  140.1188  154.4893 N   0  0  0  0  0  0  0  0  0  0  0  0
  151.7402  141.4917  157.5683 C   0  0  0  0  0  0  0  0  0  0  0  0
  151.4047  142.8410  156.9478 C   0  0  0  0  0  0  0  0  0  0  0  0
  151.4495  143.2684  159.8727 H   0  0  0  0  0  0  0  0  0  0  0  0
  153.1150  143.4076  159.3050 H   0  0  0  0  0  0  0  0  0  0  0  0
  152.7559  142.5114  160.7760 H   0  0  0  0  0  0  0  0  0  0  0  0
  151.9951  137.6858  160.3038 H   0  0  0  0  0  0  0  0  0  0  0  0
  152.9796  137.1415  158.9789 H   0  0  0  0  0  0  0  0  0  0  0  0
  153.0345  137.6503  162.1393 H   0  0  0  0  0  0  0  0  0  0  0  0
  155.8470  137.5804  162.5118 H   0  0  0  0  0  0  0  0  0  0  0  0
  155.7693  139.9846  161.9425 H   0  0  0  0  0  0  0  0  0  0  0  0
  154.4900  140.2539  163.1003 H   0  0  0  0  0  0  0  0  0  0  0  0
  157.3558  139.4174  163.7342 H   0  0  0  0  0  0  0  0  0  0  0  0
  156.6239  140.9629  164.0749 H   0  0  0  0  0  0  0  0  0  0  0  0
  156.6817  139.5381  166.1228 H   0  0  0  0  0  0  0  0  0  0  0  0
  155.0509  139.9497  165.6702 H   0  0  0  0  0  0  0  0  0  0  0  0
  155.0644  137.6376  166.2562 H   0  0  0  0  0  0  0  0  0  0  0  0
  157.3159  137.0959  164.2652 H   0  0  0  0  0  0  0  0  0  0  0  0
  156.5322  135.9215  165.3146 H   0  0  0  0  0  0  0  0  0  0  0  0
  157.4947  137.2078  166.0096 H   0  0  0  0  0  0  0  0  0  0  0  0
  153.6096  138.2087  164.4620 H   0  0  0  0  0  0  0  0  0  0  0  0
  154.8125  135.5034  163.7461 H   0  0  0  0  0  0  0  0  0  0  0  0
  153.1589  136.0343  163.4863 H   0  0  0  0  0  0  0  0  0  0  0  0
  153.7477  135.7954  165.1210 H   0  0  0  0  0  0  0  0  0  0  0  0
  151.0506  142.7474  155.9216 H   0  0  0  0  0  0  0  0  0  0  0  0
  152.2850  143.4844  156.9324 H   0  0  0  0  0  0  0  0  0  0  0  0
  150.6222  143.3417  157.5188 H   0  0  0  0  0  0  0  0  0  0  0  0
  1  2  1  0  0  0  0
  1 24  1  0  0  0  0
  1 25  1  0  0  0  0
  1 26  1  0  0  0  0
  2 22  1  0  0  0  0
  2  3  2  0  0  0  0
  3  4  1  0  0  0  0
  4  5  1  0  0  0  0
  4 17  1  0  0  0  0
  5  6  1  0  0  0  0
  5 27  1  0  0  0  0
  5 28  1  0  0  0  0
  6  7  2  0  0  0  0
  6  8  1  0  0  0  0
  8  9  1  0  0  0  0
  8 29  1  0  0  0  0
  9 15  1  0  0  0  0
  9 10  1  0  0  0  0
  9 30  1  0  0  0  0
 10 11  1  0  0  0  0
 10 31  1  0  0  0  0
 10 32  1  0  0  0  0
 11 12  1  0  0  0  0
 11 33  1  0  0  0  0
 11 34  1  0  0  0  0
 12 13  1  0  0  0  0
 12 35  1  0  0  0  0
 12 36  1  0  0  0  0
 13 14  1  0  0  0  0
 13 15  1  0  0  0  0
 13 37  1  0  0  0  0
 14 38  1  0  0  0  0
 14 39  1  0  0  0  0
 14 40  1  0  0  0  0
 15 16  1  0  0  0  0
 15 41  1  0  0  0  0
 16 42  1  0  0  0  0
 16 43  1  0  0  0  0
 16 44  1  0  0  0  0
 17 18  2  0  0  0  0
 17 19  1  0  0  0  0
 19 20  1  0  0  0  0
 19 22  2  0  0  0  0
 20 21  3  0  0  0  0
 22 23  1  0  0  0  0
 23 45  1  0  0  0  0
 23 46  1  0  0  0  0
 23 47  1  0  0  0  0
M  END
> <s_m_source_file>
AV-unprocessed.smi

> <i_m_source_file_index>
1662

> <i_lp_mmshare_version>
43012

> <i_f3d_flags>
0

> <s_epik_input>
TiNDYyhjMVtDSDNdKWMoPU8pbihuYzFbQ0gzXSlbQ0gyXUMoPU8pW05IXVtDQEBIXTJbQ0gyXVtDSDJdW0NIMl1bQ0BASF0oW0NIM10pW0NASF0yW0NIM10=

> <s_epik_cmdline>
J2VwaWtfcHl0aG9uJywgJy1waCcsICc3LjAnLCAnLXRuJywgJzgnLCAnLW1hJywgJzIwMCcsICctbWV0YWxfYmluZGluZycsICctaW1hZScsICc8aW5maWxlLm1hZT4nLCAnLW9tYWUnLCAnPG91dGZpbGUubWFlPic=

> <r_lp_tautomer_probability>
1

> <r_epik_Ionization_Penalty>
1.90709e-08

> <r_epik_Ionization_Penalty_Charging>
2.37982e-11

> <r_epik_Ionization_Penalty_Neutral>
1.90471e-08

> <r_epik_State_Penalty>
-0

> <r_epik_Charging_Adjusted_Penalty>
2.37982e-11

> <i_epik_Tot_Q>
0

> <i_epik_Tot_abs_Q>
0

> <r_epik_Metal_State_Penalty>
-0

> <b_epik_Metal_Only>
0

> <s_lp_Force_Field>
OPLS_2005

> <r_lp_Energy>
29.0639

> <b_lp_Chiralities_Consistent>
1

> <s_lp_Variant>
AV-unprocessed.smi:1662-8

> <Gold.Version>
5.8.1

> <Gold.Id.Protein>
6NUR|6NUR_protein|mol2

> <Gold.PLP.Fitness>
40.6828

> <Gold.PLP.PLP>
-38.3694

> <Gold.PLP.part.hbond>
-1.0000

> <Gold.PLP.part.metal>
0.0000

> <Gold.PLP.part.buried>
-5.8485

> <Gold.PLP.part.nonpolar>
-30.7268

> <Gold.PLP.part.repulsive>
0.1036

> <Gold.PLP.ligand.clash>
0.0000

> <Gold.PLP.ligand.torsion>
0.3466

> <Gold.PLP.Chemscore.Hbond>
1.0000

> <Gold.PLP.Chemscore.CHOScore>
0.0000

> <Gold.PLP.Chemscore.Metal>
0.0000

> <Gold.Chemscore.Hbonds>
donor molecule, donor type, donor heavy atom, donor atom, acceptor molecule, acceptor atom, score
      P1  H  7989  7998       L1    21  0.94

> <Gold.PLP.Chemscore.Internal.Correction>
0.0065

> <Gold.Rescore>
     Score         DG    S(hbond)    S(metal)    S(lipo)     H(rot)  DE(clash)    DE(int)     intcor
     15.85     -16.31       0.96        0.00      96.88       1.45       0.13       0.33       ----

> <Gold.Chemscore.Fitness>
15.8484

> <Gold.Chemscore.DG>
-16.3099

> <Gold.Chemscore.ZeroCoef>
-5.4800

> <Gold.Chemscore.Hbond>
0.9605

> <Gold.Chemscore.Metal>
0.0000

> <Gold.Chemscore.Lipo>
96.8788

> <Gold.Chemscore.Internal_Hbond>
0.0000

> <Gold.Chemscore.DEClash>
0.1309

> <Gold.Chemscore.DEInternal>
0.3306

> <Gold.Chemscore.Rot>
1.4504

> <Gold.Chemscore.Internal.Correction>
   9.000000E+99

> <Gold.Chemscore.Hbonds>
donor molecule, donor type, donor heavy atom, donor atom, acceptor molecule, acceptor atom, score
      P1  H  7989  7998       L1    21  0.77

> <Gold.Chemscore.Hbond.Weighted>
-3.2080

> <Gold.Chemscore.Metal.Weighted>
-0.0000

> <Gold.Chemscore.Lipo.Weighted>
-11.3348

> <Gold.Chemscore.Internal_Hbond.Weighted>
0.0000

> <Gold.Chemscore.DEClash.Weighted>
0.1309

> <Gold.Chemscore.DEInternal.Weighted>
0.3306

> <Gold.Chemscore.Rot.Weighted>
3.7129

> <Gold.Chemscore.Internal.Correction.Weighted>
   9.000000E+99

> <Gold.Protein.RotatedTorsions>
[ 6907 6896 6895 6894 ] final  -50.03 input  -60.11 | X-H torsion
[ 7974 7965 7964 7962 ] final -127.62 input  175.53 | X-H torsion
[ 8008 7997 7996 7995 ] final -117.73 input   59.86 | X-H torsion
[ 10167 10162 10161 10158 ] final   73.26 input  -65.29 | X-H torsion
[ 10718 10713 10712 10709 ] final  -98.51 input   66.30 | X-H torsion
[ 10763 10752 10751 10750 ] final  -28.01 input  -60.55 | X-H torsion
[ 11005 11000 10999 10996 ] final -109.71 input  -57.11 | X-H torsion

> <Gold.Protein.ActiveResidues>
 VAL166  LYS551  ARG553  GLY616  TRP617  ASP618  TYR619  PRO620  LYS621  CYS622 
 ASP623  PHE694  ASN695  SER759  ASP760  ASP761  ALA762  ILE779  LEU786  VAL792 
 PHE793  MET794  SER795  GLU796  ALA797  LYS798  CYS799  TRP800  GLU811  SER814 

> <Gold.Protein.RotatedAtoms>
  150.8747  134.8127  159.7180 H   0  0  0  0  0  0  0  0  0  0  0  0  # atno 6907 bound_to 6896
  152.4738  134.4891  159.9699 H   0  0  0  0  0  0  0  0  0  0  0  0  # atno 6908 bound_to 6896
  151.4974  133.3473  159.2899 H   0  0  0  0  0  0  0  0  0  0  0  0  # atno 6909 bound_to 6896
  144.9753  140.7586  143.4645 H   0  0  0  0  0  0  0  0  0  0  0  0  # atno 7974 bound_to 7965
  155.0884  140.0395  157.2661 H   0  0  0  0  0  0  0  0  0  0  0  0  # atno 8008 bound_to 7997
  154.6851  140.2641  155.6843 H   0  0  0  0  0  0  0  0  0  0  0  0  # atno 8009 bound_to 7997
  156.2709  140.2770  156.1410 H   0  0  0  0  0  0  0  0  0  0  0  0  # atno 8010 bound_to 7997
  140.0264  144.5500  150.7541 H   0  0  0  0  0  0  0  0  0  0  0  0  # atno 10167 bound_to 10162
  156.0109  130.5241  150.6533 H   0  0  0  0  0  0  0  0  0  0  0  0  # atno 10718 bound_to 10713
  153.7414  135.6932  153.4966 H   0  0  0  0  0  0  0  0  0  0  0  0  # atno 10763 bound_to 10752
  153.2066  135.4417  155.0329 H   0  0  0  0  0  0  0  0  0  0  0  0  # atno 10764 bound_to 10752
  154.8219  135.3426  154.6940 H   0  0  0  0  0  0  0  0  0  0  0  0  # atno 10765 bound_to 10752
  141.0832  133.9183  157.2242 H   0  0  0  0  0  0  0  0  0  0  0  0  # atno 11005 bound_to 11000
  145.2499  139.2036  143.4948 LP  0  0  0  0  0  0  0  0  0  0  0  0  # atno 17320 bound_to 7965
  146.3393  140.2411  142.8595 LP  0  0  0  0  0  0  0  0  0  0  0  0  # atno 17321 bound_to 7965
  140.7320  143.2701  151.3915 LP  0  0  0  0  0  0  0  0  0  0  0  0  # atno 17342 bound_to 10162
  139.6105  144.1108  152.2294 LP  0  0  0  0  0  0  0  0  0  0  0  0  # atno 17343 bound_to 10162
  157.4290  131.0847  151.1057 LP  0  0  0  0  0  0  0  0  0  0  0  0  # atno 17370 bound_to 10713
  157.1635  130.6236  149.5618 LP  0  0  0  0  0  0  0  0  0  0  0  0  # atno 17371 bound_to 10713
  139.9648  135.0145  156.9358 LP  0  0  0  0  0  0  0  0  0  0  0  0  # atno 17394 bound_to 11000
  140.5421  134.0710  155.7344 LP  0  0  0  0  0  0  0  0  0  0  0  0  # atno 17395 bound_to 11000

$$$$
