AV-unprocessed.smi:1803|AV-procd|sdf|7288|dock2
  -GOLD-   22720 8543D 1   1.00000     0.00000
 Structure written by MMmdl.
 35 37  0  0  0  0  0  0  0  0  3 V2000
  152.3148  139.3836  154.7109 O   0  0  0  0  0  0  0  0  0  0  0  0
  152.0630  139.0433  155.8661 C   0  0  0  0  0  0  0  0  0  0  0  0
  152.8280  139.3942  156.9321 N   0  5  0  0  0  0  0  0  0  0  0  0
  152.8623  138.6739  158.0688 C   0  0  0  0  0  0  0  0  0  0  0  0
  152.5249  137.3745  158.1093 N   0  0  0  0  0  0  0  0  0  0  0  0
  152.6406  136.8203  159.3767 N   0  0  0  0  0  0  0  0  0  0  0  0
  153.0502  137.7238  160.2667 C   0  0  0  0  0  0  0  0  0  0  0  0
  153.3391  139.3316  159.6357 S   0  0  0  0  0  0  0  0  0  0  0  0
  150.9686  138.2934  156.0980 N   0  0  0  0  0  0  0  0  0  0  0  0
  149.9980  137.8671  155.0949 C   0  0  1  0  0  0  0  0  0  0  0  0
  148.7180  137.2809  155.7050 C   0  0  0  0  0  0  0  0  0  0  0  0
  147.5956  137.6609  154.7230 C   0  0  0  0  0  0  0  0  0  0  0  0
  148.2407  138.4376  153.6412 N   0  3  1  0  0  0  0  0  0  0  0  0
  147.3713  139.3825  152.8948 C   0  0  0  0  0  0  0  0  0  0  0  0
  147.1187  140.6915  153.6620 C   0  0  0  0  0  0  0  0  0  0  0  0
  148.4427  141.3329  154.0890 C   0  0  0  0  0  0  0  0  0  0  0  0
  149.2390  140.3429  154.9453 C   0  0  0  0  0  0  0  0  0  0  0  0
  149.4875  139.0070  154.1981 C   0  0  1  0  0  0  0  0  0  0  0  0
  153.1848  137.4416  161.3002 H   0  0  0  0  0  0  0  0  0  0  0  0
  150.7831  138.0277  157.0542 H   0  0  0  0  0  0  0  0  0  0  0  0
  150.4491  137.0991  154.4628 H   0  0  0  0  0  0  0  0  0  0  0  0
  148.7979  136.2020  155.8420 H   0  0  0  0  0  0  0  0  0  0  0  0
  148.5141  137.7211  156.6826 H   0  0  0  0  0  0  0  0  0  0  0  0
  147.1007  136.7822  154.3088 H   0  0  0  0  0  0  0  0  0  0  0  0
  146.8404  138.2581  155.2354 H   0  0  0  0  0  0  0  0  0  0  0  0
  147.8643  139.6124  151.9495 H   0  0  0  0  0  0  0  0  0  0  0  0
  146.4289  138.8955  152.6415 H   0  0  0  0  0  0  0  0  0  0  0  0
  146.5552  141.3842  153.0362 H   0  0  0  0  0  0  0  0  0  0  0  0
  146.5012  140.5011  154.5404 H   0  0  0  0  0  0  0  0  0  0  0  0
  149.0228  141.6171  153.2101 H   0  0  0  0  0  0  0  0  0  0  0  0
  148.2541  142.2480  154.6508 H   0  0  0  0  0  0  0  0  0  0  0  0
  150.1889  140.7951  155.2327 H   0  0  0  0  0  0  0  0  0  0  0  0
  148.6961  140.1612  155.8736 H   0  0  0  0  0  0  0  0  0  0  0  0
  150.1867  139.1887  153.3807 H   0  0  0  0  0  0  0  0  0  0  0  0
  148.5428  137.7436  152.9724 H   0  0  0  0  0  0  0  0  0  0  0  0
  1  2  2  0  0  0  0
  2  3  1  0  0  0  0
  2  9  1  0  0  0  0
  3  4  1  0  0  0  0
  4  8  1  0  0  0  0
  4  5  2  0  0  0  0
  5  6  1  0  0  0  0
  6  7  2  0  0  0  0
  7  8  1  0  0  0  0
  7 19  1  0  0  0  0
  9 10  1  0  0  0  0
  9 20  1  0  0  0  0
 10 18  1  0  0  0  0
 10 11  1  0  0  0  0
 10 21  1  0  0  0  0
 11 12  1  0  0  0  0
 11 22  1  0  0  0  0
 11 23  1  0  0  0  0
 12 13  1  0  0  0  0
 12 24  1  0  0  0  0
 12 25  1  0  0  0  0
 13 18  1  0  0  0  0
 13 14  1  0  0  0  0
 13 35  1  0  0  0  0
 14 15  1  0  0  0  0
 14 26  1  0  0  0  0
 14 27  1  0  0  0  0
 15 16  1  0  0  0  0
 15 28  1  0  0  0  0
 15 29  1  0  0  0  0
 16 17  1  0  0  0  0
 16 30  1  0  0  0  0
 16 31  1  0  0  0  0
 17 18  1  0  0  0  0
 17 32  1  0  0  0  0
 17 33  1  0  0  0  0
 18 34  1  0  0  0  0
M  CHG  1   3  -1
M  CHG  1  13   1
M  END
> <s_m_source_file>
AV-unprocessed.smi

> <i_m_source_file_index>
1803

> <i_lp_mmshare_version>
43012

> <i_f3d_flags>
0

> <s_epik_input>
czFbY0hdbm5jMVtOSF1DKD1PKVtOSF1bQ0BIXShbQ0gyXVtDSDJdMilbQ0BASF0oTjIzKVtDSDJdW0NIMl1bQ0gyXVtDSDJdMw==

> <s_epik_cmdline>
J2VwaWtfcHl0aG9uJywgJy1waCcsICc3LjAnLCAnLXRuJywgJzgnLCAnLW1hJywgJzIwMCcsICctbWV0YWxfYmluZGluZycsICctaW1hZScsICc8aW5maWxlLm1hZT4nLCAnLW9tYWUnLCAnPG91dGZpbGUubWFlPic=

> <r_lp_tautomer_probability>
1

> <r_epik_Ionization_Penalty>
3.78828

> <r_epik_Ionization_Penalty_Charging>
3.7591

> <r_epik_Ionization_Penalty_Neutral>
0.0291838

> <r_epik_State_Penalty>
3.757

> <r_epik_Charging_Adjusted_Penalty>
7.51609

> <i_epik_Tot_Q>
0

> <i_epik_Tot_abs_Q>
2

> <r_epik_Metal_State_Penalty>
0.558016

> <b_epik_Metal_Only>
1

> <s_lp_Force_Field>
OPLS_2005

> <r_lp_Energy>
30.1197

> <b_lp_Chiralities_Consistent>
1

> <s_lp_Variant>
AV-unprocessed.smi:1803-10

> <Gold.Version>
5.8.1

> <Gold.Id.Protein>
6NUR|6NUR_protein|mol2

> <Gold.PLP.Fitness>
42.1445

> <Gold.PLP.PLP>
-25.6064

> <Gold.PLP.part.hbond>
-4.2685

> <Gold.PLP.part.metal>
0.0000

> <Gold.PLP.part.buried>
-1.5608

> <Gold.PLP.part.nonpolar>
-19.9342

> <Gold.PLP.part.repulsive>
0.1083

> <Gold.PLP.ligand.clash>
0.0000

> <Gold.PLP.ligand.torsion>
0.3609

> <Gold.PLP.Chemscore.Hbond>
5.7520

> <Gold.PLP.Chemscore.CHOScore>
0.0000

> <Gold.PLP.Chemscore.Metal>
0.0000

> <Gold.Chemscore.Hbonds>
donor molecule, donor type, donor heavy atom, donor atom, acceptor molecule, acceptor atom, score
      L1  H    13    35       P1  7948  2.00
      P1  H  6896  6908       L1     6  1.00
      P1  H  7989  7998       L1     1  0.75
      P1  H  7997  8008       L1     3  2.00

> <Gold.PLP.Chemscore.Internal.Correction>
0.0038

> <Gold.Rescore>
     Score         DG    S(hbond)    S(metal)    S(lipo)     H(rot)  DE(clash)    DE(int)     intcor
     19.21     -21.10       3.53        0.00      54.79       1.00       0.31       1.59       ----

> <Gold.Chemscore.Fitness>
19.2088

> <Gold.Chemscore.DG>
-21.1045

> <Gold.Chemscore.ZeroCoef>
-5.4800

> <Gold.Chemscore.Hbond>
3.5252

> <Gold.Chemscore.Metal>
0.0000

> <Gold.Chemscore.Lipo>
54.7900

> <Gold.Chemscore.Internal_Hbond>
0.0000

> <Gold.Chemscore.DEClash>
0.3071

> <Gold.Chemscore.DEInternal>
1.5886

> <Gold.Chemscore.Rot>
1.0000

> <Gold.Chemscore.Internal.Correction>
   9.000000E+99

> <Gold.Chemscore.Hbonds>
donor molecule, donor type, donor heavy atom, donor atom, acceptor molecule, acceptor atom, score
      L1  H    13    35       P1  7948  1.00
      P1  H  6896  6908       L1     6  0.93
      P1  H  7989  7998       L1     1  0.72
      P1  H  7997  8008       L1     3  0.74

> <Gold.Chemscore.Hbond.Weighted>
-11.7740

> <Gold.Chemscore.Metal.Weighted>
-0.0000

> <Gold.Chemscore.Lipo.Weighted>
-6.4104

> <Gold.Chemscore.Internal_Hbond.Weighted>
0.0000

> <Gold.Chemscore.DEClash.Weighted>
0.3071

> <Gold.Chemscore.DEInternal.Weighted>
1.5886

> <Gold.Chemscore.Rot.Weighted>
2.5600

> <Gold.Chemscore.Internal.Correction.Weighted>
   9.000000E+99

> <Gold.Protein.RotatedTorsions>
[ 6907 6896 6895 6894 ] final  -99.75 input  -60.11 | X-H torsion
[ 7974 7965 7964 7962 ] final   67.22 input  175.53 | X-H torsion
[ 8008 7997 7996 7995 ] final  -54.42 input   59.86 | X-H torsion
[ 10167 10162 10161 10158 ] final  -96.64 input  -65.29 | X-H torsion
[ 10718 10713 10712 10709 ] final   28.53 input   66.30 | X-H torsion
[ 10763 10752 10751 10750 ] final   78.98 input  -60.55 | X-H torsion
[ 11005 11000 10999 10996 ] final  -92.82 input  -57.11 | X-H torsion

> <Gold.Protein.ActiveResidues>
 VAL166  LYS551  ARG553  GLY616  TRP617  ASP618  TYR619  PRO620  LYS621  CYS622 
 ASP623  PHE694  ASN695  SER759  ASP760  ASP761  ALA762  ILE779  LEU786  VAL792 
 PHE793  MET794  SER795  GLU796  ALA797  LYS798  CYS799  TRP800  GLU811  SER814 

> <Gold.Protein.RotatedAtoms>
  150.7091  134.0992  159.3959 H   0  0  0  0  0  0  0  0  0  0  0  0  # atno 6907 bound_to 6896
  151.8978  135.0388  160.0513 H   0  0  0  0  0  0  0  0  0  0  0  0  # atno 6908 bound_to 6896
  152.2439  133.5122  159.5322 H   0  0  0  0  0  0  0  0  0  0  0  0  # atno 6909 bound_to 6896
  145.8172  139.3065  143.1064 H   0  0  0  0  0  0  0  0  0  0  0  0  # atno 7974 bound_to 7965
  154.4162  140.1176  156.5313 H   0  0  0  0  0  0  0  0  0  0  0  0  # atno 8008 bound_to 7997
  155.6603  140.3496  155.4761 H   0  0  0  0  0  0  0  0  0  0  0  0  # atno 8009 bound_to 7997
  155.9719  140.1143  157.0794 H   0  0  0  0  0  0  0  0  0  0  0  0  # atno 8010 bound_to 7997
  140.2917  143.3217  152.0339 H   0  0  0  0  0  0  0  0  0  0  0  0  # atno 10167 bound_to 10162
  157.2346  130.7040  149.6329 H   0  0  0  0  0  0  0  0  0  0  0  0  # atno 10718 bound_to 10713
  153.0917  135.4856  154.8702 H   0  0  0  0  0  0  0  0  0  0  0  0  # atno 10763 bound_to 10752
  154.7277  135.3053  154.8946 H   0  0  0  0  0  0  0  0  0  0  0  0  # atno 10764 bound_to 10752
  153.9591  135.6814  153.4798 H   0  0  0  0  0  0  0  0  0  0  0  0  # atno 10765 bound_to 10752
  141.1513  133.7846  157.0073 H   0  0  0  0  0  0  0  0  0  0  0  0  # atno 11005 bound_to 11000
  145.9714  140.8757  143.0161 LP  0  0  0  0  0  0  0  0  0  0  0  0  # atno 17320 bound_to 7965
  144.6751  140.1951  143.7393 LP  0  0  0  0  0  0  0  0  0  0  0  0  # atno 17321 bound_to 7965
  139.4936  144.6520  151.6654 LP  0  0  0  0  0  0  0  0  0  0  0  0  # atno 17342 bound_to 10162
  140.5727  144.0082  150.6225 LP  0  0  0  0  0  0  0  0  0  0  0  0  # atno 17343 bound_to 10162
  155.9673  130.4478  150.5593 LP  0  0  0  0  0  0  0  0  0  0  0  0  # atno 17370 bound_to 10713
  157.3442  131.0722  151.1764 LP  0  0  0  0  0  0  0  0  0  0  0  0  # atno 17371 bound_to 10713
  140.0901  134.9598  157.1762 LP  0  0  0  0  0  0  0  0  0  0  0  0  # atno 17394 bound_to 11000
  140.3458  134.2653  155.7205 LP  0  0  0  0  0  0  0  0  0  0  0  0  # atno 17395 bound_to 11000

$$$$
