AV-unprocessed.smi:3337|AV-procd|sdf|12863|dock2
  -GOLD-   2272019263D 1   1.00000     0.00000
 Structure written by MMmdl.
 46 47  0  0  0  0  0  0  0  0  2 V2000
  143.6969  136.1113  151.9661 C   0  0  0  0  0  0  0  0  0  0  0  0
  144.9949  135.3453  151.6735 C   0  0  2  0  0  0  0  0  0  0  0  0
  144.7283  134.0874  150.8300 C   0  0  0  0  0  0  0  0  0  0  0  0
  146.0376  133.3253  150.5660 C   0  0  2  0  0  0  0  0  0  0  0  0
  145.7916  132.0527  149.7434 C   0  0  0  0  0  0  0  0  0  0  0  0
  146.7458  133.0064  151.8969 C   0  0  0  0  0  0  0  0  0  0  0  0
  146.9954  134.2389  152.6881 N   0  3  2  0  0  0  0  0  0  0  0  0
  147.7988  133.9690  153.9072 C   0  0  0  0  0  0  0  0  0  0  0  0
  147.8474  135.1805  154.8584 C   0  0  0  0  0  0  0  0  0  0  0  0
  148.7661  136.2047  154.3760 N   0  0  0  0  0  0  0  0  0  0  0  0
  149.2370  137.2218  155.1155 C   0  0  0  0  0  0  0  0  0  0  0  0
  148.9469  137.3750  156.3027 O   0  0  0  0  0  0  0  0  0  0  0  0
  150.1731  138.2102  154.4025 C   0  0  2  0  0  0  0  0  0  0  0  0
  151.6028  138.1938  154.9800 C   0  0  0  0  0  0  0  0  0  0  0  0
  149.5940  139.5478  154.4086 N   0  0  0  0  0  0  0  0  0  0  0  0
  148.3825  139.9600  154.0289 C   0  0  0  0  0  0  0  0  0  0  0  0
  148.1720  141.2558  154.2121 N   0  0  0  0  0  0  0  0  0  0  0  0
  149.3752  141.6079  154.7546 C   0  0  0  0  0  0  0  0  0  0  0  0
  150.2586  140.6212  154.9049 N   0  0  0  0  0  0  0  0  0  0  0  0
  145.7307  134.9678  152.9734 C   0  0  0  0  0  0  0  0  0  0  0  0
  142.9989  135.5042  152.5435 H   0  0  0  0  0  0  0  0  0  0  0  0
  143.1970  136.4051  151.0426 H   0  0  0  0  0  0  0  0  0  0  0  0
  143.8964  137.0200  152.5346 H   0  0  0  0  0  0  0  0  0  0  0  0
  145.6436  136.0078  151.0982 H   0  0  0  0  0  0  0  0  0  0  0  0
  144.0198  133.4382  151.3471 H   0  0  0  0  0  0  0  0  0  0  0  0
  144.2617  134.3657  149.8841 H   0  0  0  0  0  0  0  0  0  0  0  0
  146.6930  133.9722  149.9807 H   0  0  0  0  0  0  0  0  0  0  0  0
  145.1468  131.3532  150.2768 H   0  0  0  0  0  0  0  0  0  0  0  0
  146.7284  131.5401  149.5233 H   0  0  0  0  0  0  0  0  0  0  0  0
  145.3138  132.2862  148.7916 H   0  0  0  0  0  0  0  0  0  0  0  0
  146.1497  132.3094  152.4885 H   0  0  0  0  0  0  0  0  0  0  0  0
  147.6950  132.5118  151.6860 H   0  0  0  0  0  0  0  0  0  0  0  0
  147.4080  133.0839  154.4116 H   0  0  0  0  0  0  0  0  0  0  0  0
  148.8237  133.7291  153.6200 H   0  0  0  0  0  0  0  0  0  0  0  0
  146.8560  135.6269  154.9404 H   0  0  0  0  0  0  0  0  0  0  0  0
  148.1396  134.8890  155.8676 H   0  0  0  0  0  0  0  0  0  0  0  0
  149.0505  136.1481  153.4085 H   0  0  0  0  0  0  0  0  0  0  0  0
  150.2455  137.8977  153.3591 H   0  0  0  0  0  0  0  0  0  0  0  0
  152.0386  137.1958  154.9219 H   0  0  0  0  0  0  0  0  0  0  0  0
  151.6282  138.5048  156.0252 H   0  0  0  0  0  0  0  0  0  0  0  0
  152.2534  138.8667  154.4208 H   0  0  0  0  0  0  0  0  0  0  0  0
  147.6375  139.2980  153.6127 H   0  0  0  0  0  0  0  0  0  0  0  0
  149.6042  142.6201  155.0538 H   0  0  0  0  0  0  0  0  0  0  0  0
  145.9405  135.8760  153.5373 H   0  0  0  0  0  0  0  0  0  0  0  0
  145.0894  134.3489  153.6034 H   0  0  0  0  0  0  0  0  0  0  0  0
  147.5571  134.8393  152.1016 H   0  0  0  0  0  0  0  0  0  0  0  0
  1  2  1  0  0  0  0
  1 21  1  0  0  0  0
  1 22  1  0  0  0  0
  1 23  1  0  0  0  0
  2 20  1  0  0  0  0
  2  3  1  0  0  0  0
  2 24  1  0  0  0  0
  3  4  1  0  0  0  0
  3 25  1  0  0  0  0
  3 26  1  0  0  0  0
  4  5  1  0  0  0  0
  4  6  1  0  0  0  0
  4 27  1  0  0  0  0
  5 28  1  0  0  0  0
  5 29  1  0  0  0  0
  5 30  1  0  0  0  0
  6  7  1  0  0  0  0
  6 31  1  0  0  0  0
  6 32  1  0  0  0  0
  7  8  1  0  0  0  0
  7 20  1  0  0  0  0
  7 46  1  0  0  0  0
  8  9  1  0  0  0  0
  8 33  1  0  0  0  0
  8 34  1  0  0  0  0
  9 10  1  0  0  0  0
  9 35  1  0  0  0  0
  9 36  1  0  0  0  0
 10 11  1  0  0  0  0
 10 37  1  0  0  0  0
 11 12  2  0  0  0  0
 11 13  1  0  0  0  0
 13 14  1  0  0  0  0
 13 15  1  0  0  0  0
 13 38  1  0  0  0  0
 14 39  1  0  0  0  0
 14 40  1  0  0  0  0
 14 41  1  0  0  0  0
 15 19  1  0  0  0  0
 15 16  1  0  0  0  0
 16 17  2  0  0  0  0
 16 42  1  0  0  0  0
 17 18  1  0  0  0  0
 18 19  2  0  0  0  0
 18 43  1  0  0  0  0
 20 44  1  0  0  0  0
 20 45  1  0  0  0  0
M  CHG  1   7   1
M  END
> <s_m_source_file>
AV-unprocessed.smi

> <i_m_source_file_index>
3337

> <i_lp_mmshare_version>
43012

> <i_f3d_flags>
0

> <s_epik_input>
W0NIM11bQ0BASF0xW0NIMl1bQ0BASF0oW0NIM10pW0NIMl1OKFtDSDJdMSlbQ0gyXVtDSDJdW05IXUMoPU8pW0NASF0oW0NIM10pbjJbY0hdbltjSF1uMg==

> <s_epik_cmdline>
J2VwaWtfcHl0aG9uJywgJy1waCcsICc3LjAnLCAnLXRuJywgJzgnLCAnLW1hJywgJzIwMCcsICctbWV0YWxfYmluZGluZycsICctaW1hZScsICc8aW5maWxlLm1hZT4nLCAnLW9tYWUnLCAnPG91dGZpbGUubWFlPic=

> <r_lp_tautomer_probability>
1

> <r_epik_Ionization_Penalty>
0.00175613

> <r_epik_Ionization_Penalty_Charging>
0.00174812

> <r_epik_Ionization_Penalty_Neutral>
8.01354e-06

> <r_epik_State_Penalty>
0.00118332

> <r_epik_Charging_Adjusted_Penalty>
0.00293143

> <i_epik_Tot_Q>
1

> <i_epik_Tot_abs_Q>
1

> <r_epik_Metal_State_Penalty>
-0

> <b_epik_Metal_Only>
0

> <s_lp_Force_Field>
OPLS_2005

> <r_lp_Energy>
22.1479

> <b_lp_Chiralities_Consistent>
1

> <s_lp_Variant>
AV-unprocessed.smi:3337-3

> <Gold.Version>
5.8.1

> <Gold.Id.Protein>
6NUR|6NUR_protein|mol2

> <Gold.PLP.Fitness>
50.0402

> <Gold.PLP.PLP>
-35.6468

> <Gold.PLP.part.hbond>
-2.8381

> <Gold.PLP.part.metal>
0.0000

> <Gold.PLP.part.buried>
-3.9207

> <Gold.PLP.part.nonpolar>
-29.5068

> <Gold.PLP.part.repulsive>
0.2388

> <Gold.PLP.ligand.clash>
0.0000

> <Gold.PLP.ligand.torsion>
0.3345

> <Gold.PLP.Chemscore.Hbond>
3.9833

> <Gold.PLP.Chemscore.CHOScore>
1.0000

> <Gold.PLP.Chemscore.Metal>
0.0000

> <Gold.Chemscore.Hbonds>
donor molecule, donor type, donor heavy atom, donor atom, acceptor molecule, acceptor atom, score
      L1  H     7    46       P1  7948  2.00
      L1  H    10    37       P1  7948  1.00
      P1  H  7989  7998       L1    19  0.91
      L1  C    18    43       P1  8028  1.00

> <Gold.PLP.Chemscore.Internal.Correction>
0.1128

> <Gold.Rescore>
     Score         DG    S(hbond)    S(metal)    S(lipo)     H(rot)  DE(clash)    DE(int)     intcor
     14.39     -14.97       2.62        0.00      61.24       2.51       0.00       0.58       ----

> <Gold.Chemscore.Fitness>
14.3866

> <Gold.Chemscore.DG>
-14.9687

> <Gold.Chemscore.ZeroCoef>
-5.4800

> <Gold.Chemscore.Hbond>
2.6218

> <Gold.Chemscore.Metal>
0.0000

> <Gold.Chemscore.Lipo>
61.2390

> <Gold.Chemscore.Internal_Hbond>
0.0000

> <Gold.Chemscore.DEClash>
0.0000

> <Gold.Chemscore.DEInternal>
0.5821

> <Gold.Chemscore.Rot>
2.5129

> <Gold.Chemscore.Internal.Correction>
   9.000000E+99

> <Gold.Chemscore.Hbonds>
donor molecule, donor type, donor heavy atom, donor atom, acceptor molecule, acceptor atom, score
      L1  H     7    46       P1  7948  0.79
      L1  H    10    37       P1  7948  0.89
      P1  H  7989  7998       L1    19  0.14

> <Gold.Chemscore.Hbond.Weighted>
-8.7568

> <Gold.Chemscore.Metal.Weighted>
-0.0000

> <Gold.Chemscore.Lipo.Weighted>
-7.1650

> <Gold.Chemscore.Internal_Hbond.Weighted>
0.0000

> <Gold.Chemscore.DEClash.Weighted>
0.0000

> <Gold.Chemscore.DEInternal.Weighted>
0.5821

> <Gold.Chemscore.Rot.Weighted>
6.4331

> <Gold.Chemscore.Internal.Correction.Weighted>
   9.000000E+99

> <Gold.Protein.RotatedTorsions>
[ 6907 6896 6895 6894 ] final    9.17 input  -60.11 | X-H torsion
[ 7974 7965 7964 7962 ] final -105.70 input  175.53 | X-H torsion
[ 8008 7997 7996 7995 ] final  -26.28 input   59.86 | X-H torsion
[ 10167 10162 10161 10158 ] final  169.03 input  -65.29 | X-H torsion
[ 10718 10713 10712 10709 ] final  121.92 input   66.30 | X-H torsion
[ 10763 10752 10751 10750 ] final   17.97 input  -60.55 | X-H torsion
[ 11005 11000 10999 10996 ] final   60.52 input  -57.11 | X-H torsion

> <Gold.Protein.ActiveResidues>
 VAL166  LYS551  ARG553  GLY616  TRP617  ASP618  TYR619  PRO620  LYS621  CYS622 
 ASP623  PHE694  ASN695  SER759  ASP760  ASP761  ALA762  ILE779  LEU786  VAL792 
 PHE793  MET794  SER795  GLU796  ALA797  LYS798  CYS799  TRP800  GLU811  SER814 

> <Gold.Protein.RotatedAtoms>
  151.7179  135.0900  160.0278 H   0  0  0  0  0  0  0  0  0  0  0  0  # atno 6907 bound_to 6896
  152.3620  133.6305  159.6031 H   0  0  0  0  0  0  0  0  0  0  0  0  # atno 6908 bound_to 6896
  150.7611  133.9324  159.3472 H   0  0  0  0  0  0  0  0  0  0  0  0  # atno 6909 bound_to 6896
  145.2271  140.9156  143.3226 H   0  0  0  0  0  0  0  0  0  0  0  0  # atno 7974 bound_to 7965
  154.4433  140.1904  156.0750 H   0  0  0  0  0  0  0  0  0  0  0  0  # atno 8008 bound_to 7997
  156.0482  140.3311  155.7294 H   0  0  0  0  0  0  0  0  0  0  0  0  # atno 8009 bound_to 7997
  155.5597  140.0602  157.2822 H   0  0  0  0  0  0  0  0  0  0  0  0  # atno 8010 bound_to 7997
  139.4982  144.3751  151.9683 H   0  0  0  0  0  0  0  0  0  0  0  0  # atno 10167 bound_to 10162
  157.5781  131.1077  150.8240 H   0  0  0  0  0  0  0  0  0  0  0  0  # atno 10718 bound_to 10713
  153.1291  135.6736  153.9208 H   0  0  0  0  0  0  0  0  0  0  0  0  # atno 10763 bound_to 10752
  153.8700  135.3071  155.3443 H   0  0  0  0  0  0  0  0  0  0  0  0  # atno 10764 bound_to 10752
  154.7691  135.4948  153.9694 H   0  0  0  0  0  0  0  0  0  0  0  0  # atno 10765 bound_to 10752
  140.0226  134.6130  155.9618 H   0  0  0  0  0  0  0  0  0  0  0  0  # atno 11005 bound_to 11000
  144.9711  139.3879  143.6308 LP  0  0  0  0  0  0  0  0  0  0  0  0  # atno 17320 bound_to 7965
  146.3362  139.8809  142.8824 LP  0  0  0  0  0  0  0  0  0  0  0  0  # atno 17321 bound_to 7965
  140.3187  144.3453  150.6015 LP  0  0  0  0  0  0  0  0  0  0  0  0  # atno 17342 bound_to 10162
  140.5740  143.2178  151.7548 LP  0  0  0  0  0  0  0  0  0  0  0  0  # atno 17343 bound_to 10162
  156.8693  130.5140  149.5298 LP  0  0  0  0  0  0  0  0  0  0  0  0  # atno 17370 bound_to 10713
  156.0826  130.5833  150.9591 LP  0  0  0  0  0  0  0  0  0  0  0  0  # atno 17371 bound_to 10713
  141.1783  133.6543  156.4917 LP  0  0  0  0  0  0  0  0  0  0  0  0  # atno 17394 bound_to 11000
  140.4361  134.7058  157.4967 LP  0  0  0  0  0  0  0  0  0  0  0  0  # atno 17395 bound_to 11000

$$$$
