AV-unprocessed.smi:1897|AV-procd|sdf|7694|dock6
  -GOLD-   22720 9433D 1   1.00000     0.00000
 Structure written by MMmdl.
 38 40  0  0  0  0  0  0  0  0  3 V2000
  146.1146  136.8458  162.3729 C   0  0  0  0  0  0  0  0  0  0  0  0
  146.8788  136.4254  161.1644 C   0  0  0  0  0  0  0  0  0  0  0  0
  147.1860  137.2679  160.1754 N   0  0  0  0  0  0  0  0  0  0  0  0
  147.9047  136.6473  159.1643 N   0  0  0  0  0  0  0  0  0  0  0  0
  148.1194  135.3444  159.3951 C   0  0  0  0  0  0  0  0  0  0  0  0
  148.7930  134.5594  158.5334 N   0  5  0  0  0  0  0  0  0  0  0  0
  149.2940  135.0222  157.3588 C   0  0  0  0  0  0  0  0  0  0  0  0
  150.4422  134.7997  156.9774 O   0  0  0  0  0  0  0  0  0  0  0  0
  148.4829  135.7616  156.5796 N   0  0  0  0  0  0  0  0  0  0  0  0
  148.8334  136.3408  155.2890 C   0  0  2  0  0  0  0  0  0  0  0  0
  149.9639  137.3849  155.3596 C   0  0  0  0  0  0  0  0  0  0  0  0
  149.5541  138.4960  154.3731 C   0  0  0  0  0  0  0  0  0  0  0  0
  148.3298  137.9999  153.7161 N   0  3  2  0  0  0  0  0  0  0  0  0
  147.4175  139.0084  153.1347 C   0  0  0  0  0  0  0  0  0  0  0  0
  146.2485  138.2896  152.4311 C   0  0  0  0  0  0  0  0  0  0  0  0
  145.5423  137.2895  153.3700 C   0  0  0  0  0  0  0  0  0  0  0  0
  146.5544  136.3259  154.0199 C   0  0  0  0  0  0  0  0  0  0  0  0
  147.6684  137.1350  154.7036 C   0  0  1  0  0  0  0  0  0  0  0  0
  147.4430  134.7806  160.9229 S   0  0  0  0  0  0  0  0  0  0  0  0
  145.0472  136.8606  162.1520 H   0  0  0  0  0  0  0  0  0  0  0  0
  146.4231  137.8432  162.6876 H   0  0  0  0  0  0  0  0  0  0  0  0
  146.2937  136.1516  163.1940 H   0  0  0  0  0  0  0  0  0  0  0  0
  147.5476  135.9331  156.9187 H   0  0  0  0  0  0  0  0  0  0  0  0
  149.1128  135.5518  154.5876 H   0  0  0  0  0  0  0  0  0  0  0  0
  150.0630  137.7992  156.3641 H   0  0  0  0  0  0  0  0  0  0  0  0
  150.9228  136.9388  155.0938 H   0  0  0  0  0  0  0  0  0  0  0  0
  149.3400  139.4174  154.9168 H   0  0  0  0  0  0  0  0  0  0  0  0
  150.3310  138.7082  153.6382 H   0  0  0  0  0  0  0  0  0  0  0  0
  147.0439  139.6683  153.9193 H   0  0  0  0  0  0  0  0  0  0  0  0
  147.9628  139.6281  152.4224 H   0  0  0  0  0  0  0  0  0  0  0  0
  145.5316  139.0203  152.0555 H   0  0  0  0  0  0  0  0  0  0  0  0
  146.6278  137.7557  151.5588 H   0  0  0  0  0  0  0  0  0  0  0  0
  145.0119  137.8378  154.1497 H   0  0  0  0  0  0  0  0  0  0  0  0
  144.7877  136.7265  152.8199 H   0  0  0  0  0  0  0  0  0  0  0  0
  146.0521  135.6857  154.7459 H   0  0  0  0  0  0  0  0  0  0  0  0
  146.9792  135.6672  153.2611 H   0  0  0  0  0  0  0  0  0  0  0  0
  147.2344  137.7661  155.4835 H   0  0  0  0  0  0  0  0  0  0  0  0
  148.6315  137.3951  152.9657 H   0  0  0  0  0  0  0  0  0  0  0  0
  1  2  1  0  0  0  0
  1 20  1  0  0  0  0
  1 21  1  0  0  0  0
  1 22  1  0  0  0  0
  2 19  1  0  0  0  0
  2  3  2  0  0  0  0
  3  4  1  0  0  0  0
  4  5  2  0  0  0  0
  5  6  1  0  0  0  0
  5 19  1  0  0  0  0
  6  7  1  0  0  0  0
  7  8  2  0  0  0  0
  7  9  1  0  0  0  0
  9 10  1  0  0  0  0
  9 23  1  0  0  0  0
 10 18  1  0  0  0  0
 10 11  1  0  0  0  0
 10 24  1  0  0  0  0
 11 12  1  0  0  0  0
 11 25  1  0  0  0  0
 11 26  1  0  0  0  0
 12 13  1  0  0  0  0
 12 27  1  0  0  0  0
 12 28  1  0  0  0  0
 13 18  1  0  0  0  0
 13 14  1  0  0  0  0
 13 38  1  0  0  0  0
 14 15  1  0  0  0  0
 14 29  1  0  0  0  0
 14 30  1  0  0  0  0
 15 16  1  0  0  0  0
 15 31  1  0  0  0  0
 15 32  1  0  0  0  0
 16 17  1  0  0  0  0
 16 33  1  0  0  0  0
 16 34  1  0  0  0  0
 17 18  1  0  0  0  0
 17 35  1  0  0  0  0
 17 36  1  0  0  0  0
 18 37  1  0  0  0  0
M  CHG  1   6  -1
M  CHG  1  13   1
M  END
> <s_m_source_file>
AV-unprocessed.smi

> <i_m_source_file_index>
1897

> <i_lp_mmshare_version>
43012

> <i_f3d_flags>
0

> <s_epik_input>
W0NIM11jMW5uYyhzMSlbTkhdQyg9TylbTkhdW0NASF0oW0NIMl1bQ0gyXTIpW0NAQEhdKE4yMylbQ0gyXVtDSDJdW0NIMl1bQ0gyXTM=

> <s_epik_cmdline>
J2VwaWtfcHl0aG9uJywgJy1waCcsICc3LjAnLCAnLXRuJywgJzgnLCAnLW1hJywgJzIwMCcsICctbWV0YWxfYmluZGluZycsICctaW1hZScsICc8aW5maWxlLm1hZT4nLCAnLW9tYWUnLCAnPG91dGZpbGUubWFlPic=

> <r_lp_tautomer_probability>
1

> <r_epik_Ionization_Penalty>
3.77712

> <r_epik_Ionization_Penalty_Charging>
3.67739

> <r_epik_Ionization_Penalty_Neutral>
0.0997294

> <r_epik_State_Penalty>
3.67514

> <r_epik_Charging_Adjusted_Penalty>
7.35254

> <i_epik_Tot_Q>
0

> <i_epik_Tot_abs_Q>
2

> <r_epik_Metal_State_Penalty>
0.540795

> <b_epik_Metal_Only>
1

> <s_lp_Force_Field>
OPLS_2005

> <r_lp_Energy>
28.3617

> <b_lp_Chiralities_Consistent>
1

> <s_lp_Variant>
AV-unprocessed.smi:1897-11

> <Gold.Version>
5.8.1

> <Gold.Id.Protein>
6NUR|6NUR_protein|mol2

> <Gold.PLP.Fitness>
37.0722

> <Gold.PLP.PLP>
-22.9134

> <Gold.PLP.part.hbond>
-4.1738

> <Gold.PLP.part.metal>
0.0000

> <Gold.PLP.part.buried>
-2.9055

> <Gold.PLP.part.nonpolar>
-16.7715

> <Gold.PLP.part.repulsive>
0.0275

> <Gold.PLP.ligand.clash>
0.0000

> <Gold.PLP.ligand.torsion>
0.4135

> <Gold.PLP.Chemscore.Hbond>
4.9920

> <Gold.PLP.Chemscore.CHOScore>
0.0000

> <Gold.PLP.Chemscore.Metal>
0.0000

> <Gold.Chemscore.Hbonds>
donor molecule, donor type, donor heavy atom, donor atom, acceptor molecule, acceptor atom, score
      L1  H    13    38       P1  7948  2.00
      P1  H  6896  6909       L1     6  1.27
      P1  H  6934  6947       L1     3  1.00

> <Gold.PLP.Chemscore.Internal.Correction>
0.0097

> <Gold.Rescore>
     Score         DG    S(hbond)    S(metal)    S(lipo)     H(rot)  DE(clash)    DE(int)     intcor
     16.53     -17.94       2.73        0.00      50.54       1.00       0.01       1.39       ----

> <Gold.Chemscore.Fitness>
16.5319

> <Gold.Chemscore.DG>
-17.9354

> <Gold.Chemscore.ZeroCoef>
-5.4800

> <Gold.Chemscore.Hbond>
2.7251

> <Gold.Chemscore.Metal>
0.0000

> <Gold.Chemscore.Lipo>
50.5430

> <Gold.Chemscore.Internal_Hbond>
0.0000

> <Gold.Chemscore.DEClash>
0.0149

> <Gold.Chemscore.DEInternal>
1.3886

> <Gold.Chemscore.Rot>
1.0000

> <Gold.Chemscore.Internal.Correction>
   9.000000E+99

> <Gold.Chemscore.Hbonds>
donor molecule, donor type, donor heavy atom, donor atom, acceptor molecule, acceptor atom, score
      L1  H    13    38       P1  7948  0.99
      P1  H  6896  6909       L1     6  0.02
      P1  H  6934  6947       L1     3  0.59

> <Gold.Chemscore.Hbond.Weighted>
-9.1018

> <Gold.Chemscore.Metal.Weighted>
-0.0000

> <Gold.Chemscore.Lipo.Weighted>
-5.9135

> <Gold.Chemscore.Internal_Hbond.Weighted>
0.0000

> <Gold.Chemscore.DEClash.Weighted>
0.0149

> <Gold.Chemscore.DEInternal.Weighted>
1.3886

> <Gold.Chemscore.Rot.Weighted>
2.5600

> <Gold.Chemscore.Internal.Correction.Weighted>
   9.000000E+99

> <Gold.Protein.RotatedTorsions>
[ 6907 6896 6895 6894 ] final   44.40 input  -60.11 | X-H torsion
[ 7974 7965 7964 7962 ] final -172.21 input  175.53 | X-H torsion
[ 8008 7997 7996 7995 ] final  -49.25 input   59.86 | X-H torsion
[ 10167 10162 10161 10158 ] final  -86.28 input  -65.29 | X-H torsion
[ 10718 10713 10712 10709 ] final   -3.07 input   66.30 | X-H torsion
[ 10763 10752 10751 10750 ] final  154.23 input  -60.55 | X-H torsion
[ 11005 11000 10999 10996 ] final   56.94 input  -57.11 | X-H torsion

> <Gold.Protein.ActiveResidues>
 VAL166  LYS551  ARG553  GLY616  TRP617  ASP618  TYR619  PRO620  LYS621  CYS622 
 ASP623  PHE694  ASN695  SER759  ASP760  ASP761  ALA762  ILE779  LEU786  VAL792 
 PHE793  MET794  SER795  GLU796  ALA797  LYS798  CYS799  TRP800  GLU811  SER814 

> <Gold.Protein.RotatedAtoms>
  152.2321  134.8312  160.0471 H   0  0  0  0  0  0  0  0  0  0  0  0  # atno 6907 bound_to 6896
  151.9057  133.3543  159.3854 H   0  0  0  0  0  0  0  0  0  0  0  0  # atno 6908 bound_to 6896
  150.7028  134.4709  159.5469 H   0  0  0  0  0  0  0  0  0  0  0  0  # atno 6909 bound_to 6896
  144.7148  140.1806  143.6358 H   0  0  0  0  0  0  0  0  0  0  0  0  # atno 7974 bound_to 7965
  154.4041  140.1301  156.4471 H   0  0  0  0  0  0  0  0  0  0  0  0  # atno 8008 bound_to 7997
  155.7402  140.3490  155.5081 H   0  0  0  0  0  0  0  0  0  0  0  0  # atno 8009 bound_to 7997
  155.9046  140.1025  157.1315 H   0  0  0  0  0  0  0  0  0  0  0  0  # atno 8010 bound_to 7997
  140.3957  143.2685  151.9207 H   0  0  0  0  0  0  0  0  0  0  0  0  # atno 10167 bound_to 10162
  156.7815  130.5332  149.5750 H   0  0  0  0  0  0  0  0  0  0  0  0  # atno 10718 bound_to 10713
  154.1490  135.2816  155.3140 H   0  0  0  0  0  0  0  0  0  0  0  0  # atno 10763 bound_to 10752
  154.6231  135.5460  153.7600 H   0  0  0  0  0  0  0  0  0  0  0  0  # atno 10764 bound_to 10752
  153.0227  135.6444  154.1635 H   0  0  0  0  0  0  0  0  0  0  0  0  # atno 10765 bound_to 10752
  140.0491  134.5763  155.9286 H   0  0  0  0  0  0  0  0  0  0  0  0  # atno 11005 bound_to 11000
  145.8860  139.2349  143.1577 LP  0  0  0  0  0  0  0  0  0  0  0  0  # atno 17320 bound_to 7965
  145.9949  140.8570  143.0047 LP  0  0  0  0  0  0  0  0  0  0  0  0  # atno 17321 bound_to 7965
  139.4787  144.5684  151.8128 LP  0  0  0  0  0  0  0  0  0  0  0  0  # atno 17342 bound_to 10162
  140.4793  144.1473  150.5930 LP  0  0  0  0  0  0  0  0  0  0  0  0  # atno 17343 bound_to 10162
  156.1215  130.6113  151.0200 LP  0  0  0  0  0  0  0  0  0  0  0  0  # atno 17370 bound_to 10713
  157.6644  131.0874  150.7763 LP  0  0  0  0  0  0  0  0  0  0  0  0  # atno 17371 bound_to 10713
  141.1921  133.6574  156.5488 LP  0  0  0  0  0  0  0  0  0  0  0  0  # atno 17394 bound_to 11000
  140.3947  134.7410  157.4743 LP  0  0  0  0  0  0  0  0  0  0  0  0  # atno 17395 bound_to 11000

$$$$
