AV-unprocessed.smi:2119|AV-procd|sdf|8630|dock1
  -GOLD-   2272011373D 1   1.00000     0.00000
 Structure written by MMmdl.
 47 49  0  0  0  0  0  0  0  0  1 V2000
  145.0374  136.1978  153.9168 O   0  0  0  0  0  0  0  0  0  0  0  0
  146.0938  136.0711  153.2982 C   0  0  0  0  0  0  0  0  0  0  0  0
  147.1724  136.8366  153.5155 N   0  0  0  0  0  0  0  0  0  0  0  0
  147.2536  137.9157  154.4968 C   0  0  0  0  0  0  0  0  0  0  0  0
  148.3863  138.9491  154.2005 C   0  0  2  0  0  0  0  0  0  0  0  0
  149.7110  138.4582  154.8787 C   0  0  2  0  0  0  0  0  0  0  0  0
  150.9617  139.2593  154.5378 C   0  0  0  0  0  0  0  0  0  0  0  0
  152.1118  138.3096  154.8919 C   0  0  0  0  0  0  0  0  0  0  0  0
  151.5055  137.0627  155.2170 O   0  0  0  0  0  0  0  0  0  0  0  0
  150.2131  137.0352  154.6354 C   0  0  0  0  0  0  0  0  0  0  0  0
  148.0466  140.3608  154.5154 N   0  0  0  0  0  0  0  0  0  0  0  0
  147.0559  140.9061  153.5778 C   0  0  0  0  0  0  0  0  0  0  0  0
  146.7759  142.3970  153.8279 C   0  0  0  0  0  0  0  0  0  0  0  0
  146.3028  142.5683  155.1581 O   0  0  0  0  0  0  0  0  0  0  0  0
  147.2206  142.0787  156.1280 C   0  0  0  0  0  0  0  0  0  0  0  0
  147.5190  140.5913  155.8645 C   0  0  0  0  0  0  0  0  0  0  0  0
  146.3217  135.1820  152.3165 N   0  0  0  0  0  0  0  0  0  0  0  0
  145.4472  134.1919  151.7919 C   0  0  0  0  0  0  0  0  0  0  0  0
  145.8505  133.1401  150.9335 C   0  0  0  0  0  0  0  0  0  0  0  0
  144.8794  132.2324  150.4680 C   0  0  0  0  0  0  0  0  0  0  0  0
  143.5419  132.4128  150.8703 C   0  0  0  0  0  0  0  0  0  0  0  0
  143.1413  133.4174  151.6774 N   0  0  0  0  0  0  0  0  0  0  0  0
  144.0778  134.2834  152.1197 C   0  0  0  0  0  0  0  0  0  0  0  0
  147.9969  136.6668  152.9584 H   0  0  0  0  0  0  0  0  0  0  0  0
  146.2759  138.3990  154.5193 H   0  0  0  0  0  0  0  0  0  0  0  0
  147.3940  137.4644  155.4793 H   0  0  0  0  0  0  0  0  0  0  0  0
  148.5493  138.8927  153.1232 H   0  0  0  0  0  0  0  0  0  0  0  0
  149.5723  138.5247  155.9588 H   0  0  0  0  0  0  0  0  0  0  0  0
  150.9889  139.4938  153.4727 H   0  0  0  0  0  0  0  0  0  0  0  0
  151.0201  140.1976  155.0900 H   0  0  0  0  0  0  0  0  0  0  0  0
  152.7894  138.1878  154.0460 H   0  0  0  0  0  0  0  0  0  0  0  0
  152.6909  138.6692  155.7426 H   0  0  0  0  0  0  0  0  0  0  0  0
  149.5816  136.2717  155.0901 H   0  0  0  0  0  0  0  0  0  0  0  0
  150.3410  136.8167  153.5748 H   0  0  0  0  0  0  0  0  0  0  0  0
  147.3531  140.7770  152.5428 H   0  0  0  0  0  0  0  0  0  0  0  0
  146.1200  140.3538  153.6780 H   0  0  0  0  0  0  0  0  0  0  0  0
  147.6757  142.9932  153.6691 H   0  0  0  0  0  0  0  0  0  0  0  0
  146.0203  142.7630  153.1326 H   0  0  0  0  0  0  0  0  0  0  0  0
  148.1395  142.6665  156.0961 H   0  0  0  0  0  0  0  0  0  0  0  0
  146.7919  142.2091  157.1216 H   0  0  0  0  0  0  0  0  0  0  0  0
  146.6110  140.0056  156.0166 H   0  0  0  0  0  0  0  0  0  0  0  0
  148.2396  140.2686  156.6154 H   0  0  0  0  0  0  0  0  0  0  0  0
  147.2158  135.2544  151.8533 H   0  0  0  0  0  0  0  0  0  0  0  0
  146.8728  133.0172  150.6128 H   0  0  0  0  0  0  0  0  0  0  0  0
  145.1535  131.4185  149.8132 H   0  0  0  0  0  0  0  0  0  0  0  0
  142.7725  131.7354  150.5300 H   0  0  0  0  0  0  0  0  0  0  0  0
  143.7204  135.0754  152.7619 H   0  0  0  0  0  0  0  0  0  0  0  0
  1  2  2  0  0  0  0
  2  3  1  0  0  0  0
  2 17  1  0  0  0  0
  3  4  1  0  0  0  0
  3 24  1  0  0  0  0
  4  5  1  0  0  0  0
  4 25  1  0  0  0  0
  4 26  1  0  0  0  0
  5  6  1  0  0  0  0
  5 11  1  0  0  0  0
  5 27  1  0  0  0  0
  6 10  1  0  0  0  0
  6  7  1  0  0  0  0
  6 28  1  0  0  0  0
  7  8  1  0  0  0  0
  7 29  1  0  0  0  0
  7 30  1  0  0  0  0
  8  9  1  0  0  0  0
  8 31  1  0  0  0  0
  8 32  1  0  0  0  0
  9 10  1  0  0  0  0
 10 33  1  0  0  0  0
 10 34  1  0  0  0  0
 11 16  1  0  0  0  0
 11 12  1  0  0  0  0
 12 13  1  0  0  0  0
 12 35  1  0  0  0  0
 12 36  1  0  0  0  0
 13 14  1  0  0  0  0
 13 37  1  0  0  0  0
 13 38  1  0  0  0  0
 14 15  1  0  0  0  0
 15 16  1  0  0  0  0
 15 39  1  0  0  0  0
 15 40  1  0  0  0  0
 16 41  1  0  0  0  0
 16 42  1  0  0  0  0
 17 18  1  0  0  0  0
 17 43  1  0  0  0  0
 18 23  1  0  0  0  0
 18 19  2  0  0  0  0
 19 20  1  0  0  0  0
 19 44  1  0  0  0  0
 20 21  2  0  0  0  0
 20 45  1  0  0  0  0
 21 22  1  0  0  0  0
 21 46  1  0  0  0  0
 22 23  2  0  0  0  0
 23 47  1  0  0  0  0
M  END
> <s_m_source_file>
AV-unprocessed.smi

> <i_m_source_file_index>
2119

> <i_lp_mmshare_version>
43012

> <i_f3d_flags>
0

> <s_epik_input>
W2NIXTFuW2NIXVtjSF1bY0hdYzFbTkhdQyg9TylbTkhdW0NIMl1bQ0BIXShbQ0BASF0yW0NIMl1bQ0gyXU9bQ0gyXTIpTjNbQ0gyXVtDSDJdT1tDSDJdW0NIMl0z

> <s_epik_cmdline>
J2VwaWtfcHl0aG9uJywgJy1waCcsICc3LjAnLCAnLXRuJywgJzgnLCAnLW1hJywgJzIwMCcsICctbWV0YWxfYmluZGluZycsICctaW1hZScsICc8aW5maWxlLm1hZT4nLCAnLW9tYWUnLCAnPG91dGZpbGUubWFlPic=

> <r_epik_Ionization_Penalty>
0.129787

> <r_epik_Ionization_Penalty_Charging>
0

> <r_epik_Ionization_Penalty_Neutral>
0.129787

> <r_epik_State_Penalty>
0.121311

> <r_epik_Charging_Adjusted_Penalty>
0.121311

> <i_epik_Tot_Q>
0

> <i_epik_Tot_abs_Q>
0

> <r_epik_Metal_State_Penalty>
0.117931

> <b_epik_Metal_Only>
0

> <s_lp_Force_Field>
OPLS_2005

> <r_lp_Energy>
59.4027

> <b_lp_Chiralities_Consistent>
1

> <s_lp_Variant>
AV-unprocessed.smi:2119-1

> <Gold.Version>
5.8.1

> <Gold.Id.Protein>
6NUR|6NUR_protein|mol2

> <Gold.PLP.Fitness>
43.7794

> <Gold.PLP.PLP>
-33.5094

> <Gold.PLP.part.hbond>
-2.9430

> <Gold.PLP.part.metal>
0.0000

> <Gold.PLP.part.buried>
-5.1077

> <Gold.PLP.part.nonpolar>
-27.1824

> <Gold.PLP.part.repulsive>
0.6187

> <Gold.PLP.ligand.clash>
0.0000

> <Gold.PLP.ligand.torsion>
0.8215

> <Gold.PLP.Chemscore.Hbond>
2.9033

> <Gold.PLP.Chemscore.CHOScore>
0.9243

> <Gold.PLP.Chemscore.Metal>
0.0000

> <Gold.Chemscore.Hbonds>
donor molecule, donor type, donor heavy atom, donor atom, acceptor molecule, acceptor atom, score
      L1  H     3    24       P1  7948  0.98
      L1  H    17    43       P1  7948  0.91
      P1  H 10752 10765       L1     9  0.73
      L1  C    21    46       P1 10952  0.89

> <Gold.PLP.Chemscore.Internal.Correction>
0.4302

> <Gold.Rescore>
     Score         DG    S(hbond)    S(metal)    S(lipo)     H(rot)  DE(clash)    DE(int)     intcor
     17.89     -19.93       2.74        0.00      81.38       1.65       0.08       1.97       ----

> <Gold.Chemscore.Fitness>
17.8870

> <Gold.Chemscore.DG>
-19.9331

> <Gold.Chemscore.ZeroCoef>
-5.4800

> <Gold.Chemscore.Hbond>
2.7420

> <Gold.Chemscore.Metal>
0.0000

> <Gold.Chemscore.Lipo>
81.3761

> <Gold.Chemscore.Internal_Hbond>
0.0000

> <Gold.Chemscore.DEClash>
0.0794

> <Gold.Chemscore.DEInternal>
1.9667

> <Gold.Chemscore.Rot>
1.6508

> <Gold.Chemscore.Internal.Correction>
   9.000000E+99

> <Gold.Chemscore.Hbonds>
donor molecule, donor type, donor heavy atom, donor atom, acceptor molecule, acceptor atom, score
      L1  H     3    24       P1  7948  0.91
      L1  H    17    43       P1  7948  0.86
      P1  H 10752 10765       L1     9  0.32

> <Gold.Chemscore.Hbond.Weighted>
-9.1583

> <Gold.Chemscore.Metal.Weighted>
-0.0000

> <Gold.Chemscore.Lipo.Weighted>
-9.5210

> <Gold.Chemscore.Internal_Hbond.Weighted>
0.0000

> <Gold.Chemscore.DEClash.Weighted>
0.0794

> <Gold.Chemscore.DEInternal.Weighted>
1.9667

> <Gold.Chemscore.Rot.Weighted>
4.2262

> <Gold.Chemscore.Internal.Correction.Weighted>
   9.000000E+99

> <Gold.Protein.RotatedTorsions>
[ 6907 6896 6895 6894 ] final -127.98 input  -60.11 | X-H torsion
[ 7974 7965 7964 7962 ] final   89.99 input  175.53 | X-H torsion
[ 8008 7997 7996 7995 ] final  166.71 input   59.86 | X-H torsion
[ 10167 10162 10161 10158 ] final -113.96 input  -65.29 | X-H torsion
[ 10718 10713 10712 10709 ] final   50.83 input   66.30 | X-H torsion
[ 10763 10752 10751 10750 ] final -177.17 input  -60.55 | X-H torsion
[ 11005 11000 10999 10996 ] final  177.88 input  -57.11 | X-H torsion

> <Gold.Protein.ActiveResidues>
 VAL166  LYS551  ARG553  GLY616  TRP617  ASP618  TYR619  PRO620  LYS621  CYS622 
 ASP623  PHE694  ASN695  SER759  ASP760  ASP761  ALA762  ILE779  LEU786  VAL792 
 PHE793  MET794  SER795  GLU796  ALA797  LYS798  CYS799  TRP800  GLU811  SER814 

> <Gold.Protein.RotatedAtoms>
  150.9130  133.6974  159.2849 H   0  0  0  0  0  0  0  0  0  0  0  0  # atno 6907 bound_to 6896
  151.4454  135.1023  159.9692 H   0  0  0  0  0  0  0  0  0  0  0  0  # atno 6908 bound_to 6896
  152.4940  133.8528  159.7265 H   0  0  0  0  0  0  0  0  0  0  0  0  # atno 6909 bound_to 6896
  145.5250  139.2281  143.2651 H   0  0  0  0  0  0  0  0  0  0  0  0  # atno 7974 bound_to 7965
  156.1695  140.1636  156.8472 H   0  0  0  0  0  0  0  0  0  0  0  0  # atno 8008 bound_to 7997
  154.5242  140.0771  156.8263 H   0  0  0  0  0  0  0  0  0  0  0  0  # atno 8009 bound_to 7997
  155.3541  140.3391  155.4242 H   0  0  0  0  0  0  0  0  0  0  0  0  # atno 8010 bound_to 7997
  140.1062  143.4569  152.1781 H   0  0  0  0  0  0  0  0  0  0  0  0  # atno 10167 bound_to 10162
  157.4922  130.8383  149.8216 H   0  0  0  0  0  0  0  0  0  0  0  0  # atno 10718 bound_to 10713
  154.5634  135.2822  155.0898 H   0  0  0  0  0  0  0  0  0  0  0  0  # atno 10763 bound_to 10752
  154.2298  135.6376  153.5175 H   0  0  0  0  0  0  0  0  0  0  0  0  # atno 10764 bound_to 10752
  153.0035  135.5534  154.6235 H   0  0  0  0  0  0  0  0  0  0  0  0  # atno 10765 bound_to 10752
  140.3890  134.6879  157.4496 H   0  0  0  0  0  0  0  0  0  0  0  0  # atno 11005 bound_to 11000
  146.2081  140.6064  142.9072 LP  0  0  0  0  0  0  0  0  0  0  0  0  # atno 17320 bound_to 7965
  144.7656  140.5522  143.6705 LP  0  0  0  0  0  0  0  0  0  0  0  0  # atno 17321 bound_to 7965
  139.5644  144.7426  151.4063 LP  0  0  0  0  0  0  0  0  0  0  0  0  # atno 17342 bound_to 10162
  140.6951  143.7769  150.7314 LP  0  0  0  0  0  0  0  0  0  0  0  0  # atno 17343 bound_to 10162
  156.0180  130.3806  150.2050 LP  0  0  0  0  0  0  0  0  0  0  0  0  # atno 17370 bound_to 10713
  157.0238  130.9987  151.3332 LP  0  0  0  0  0  0  0  0  0  0  0  0  # atno 17371 bound_to 10713
  140.0421  134.6253  155.8968 LP  0  0  0  0  0  0  0  0  0  0  0  0  # atno 17394 bound_to 11000
  141.1897  133.6566  156.5380 LP  0  0  0  0  0  0  0  0  0  0  0  0  # atno 17395 bound_to 11000

$$$$
