AV-unprocessed.smi:3029|AV-procd|sdf|11529|dock2
  -GOLD-   2272016473D 1   1.00000     0.00000
 Structure written by MMmdl.
 41 42  0  0  0  0  0  0  0  0  3 V2000
  151.0926  144.5331  161.0824 O   0  0  0  0  0  0  0  0  0  0  0  0
  151.9011  143.6270  160.8809 C   0  0  0  0  0  0  0  0  0  0  0  0
  152.8424  143.1812  161.9134 C   0  0  0  0  0  0  0  0  0  0  0  0
  153.7148  142.1785  161.6914 C   0  0  0  0  0  0  0  0  0  0  0  0
  153.7455  141.5007  160.4097 C   0  0  0  0  0  0  0  0  0  0  0  0
  154.6673  140.4130  160.1661 N   0  3  0  0  0  0  0  0  0  0  0  0
  154.6548  139.8552  159.0728 O   0  0  0  0  0  0  0  0  0  0  0  0
  155.4356  140.0810  161.0632 O   0  5  0  0  0  0  0  0  0  0  0  0
  152.8844  141.9166  159.4602 C   0  0  0  0  0  0  0  0  0  0  0  0
  151.9787  142.9717  159.6831 N   0  0  0  0  0  0  0  0  0  0  0  0
  151.0909  143.3341  158.5711 C   0  0  0  0  0  0  0  0  0  0  0  0
  150.2668  142.1254  158.1019 C   0  0  0  0  0  0  0  0  0  0  0  0
  149.0783  142.5899  157.4045 N   0  0  0  0  0  0  0  0  0  0  0  0
  148.5291  141.5479  156.5451 C   0  0  2  0  0  0  0  0  0  0  0  0
  149.5313  141.3671  155.3862 C   0  0  0  0  0  0  0  0  0  0  0  0
  149.0272  140.3584  154.3475 C   0  0  0  0  0  0  0  0  0  0  0  0
  147.6560  140.7806  153.8093 C   0  0  0  0  0  0  0  0  0  0  0  0
  146.6452  140.9369  154.9541 C   0  0  0  0  0  0  0  0  0  0  0  0
  147.1148  141.9450  156.0303 C   0  0  1  0  0  0  0  0  0  0  0  0
  146.0539  142.0547  157.1559 C   0  0  0  0  0  0  0  0  0  0  0  0
  146.4720  142.8808  158.1156 F   0  0  0  0  0  0  0  0  0  0  0  0
  144.8871  142.4958  156.6863 F   0  0  0  0  0  0  0  0  0  0  0  0
  145.8359  140.8540  157.6932 F   0  0  0  0  0  0  0  0  0  0  0  0
  152.8359  143.6715  162.8758 H   0  0  0  0  0  0  0  0  0  0  0  0
  154.3896  141.8865  162.4826 H   0  0  0  0  0  0  0  0  0  0  0  0
  152.8235  141.4743  158.4762 H   0  0  0  0  0  0  0  0  0  0  0  0
  150.4273  144.1497  158.8652 H   0  0  0  0  0  0  0  0  0  0  0  0
  151.6740  143.7301  157.7377 H   0  0  0  0  0  0  0  0  0  0  0  0
  150.8599  141.4975  157.4356 H   0  0  0  0  0  0  0  0  0  0  0  0
  149.9758  141.5138  158.9567 H   0  0  0  0  0  0  0  0  0  0  0  0
  149.3080  143.4028  156.8508 H   0  0  0  0  0  0  0  0  0  0  0  0
  148.4560  140.6006  157.0828 H   0  0  0  0  0  0  0  0  0  0  0  0
  149.7089  142.3245  154.8931 H   0  0  0  0  0  0  0  0  0  0  0  0
  150.4960  141.0363  155.7735 H   0  0  0  0  0  0  0  0  0  0  0  0
  149.7414  140.2798  153.5274 H   0  0  0  0  0  0  0  0  0  0  0  0
  148.9591  139.3673  154.7976 H   0  0  0  0  0  0  0  0  0  0  0  0
  147.7461  141.7219  153.2657 H   0  0  0  0  0  0  0  0  0  0  0  0
  147.2947  140.0424  153.0928 H   0  0  0  0  0  0  0  0  0  0  0  0
  145.6881  141.2510  154.5369 H   0  0  0  0  0  0  0  0  0  0  0  0
  146.4723  139.9634  155.4146 H   0  0  0  0  0  0  0  0  0  0  0  0
  147.1895  142.9218  155.5490 H   0  0  0  0  0  0  0  0  0  0  0  0
  1  2  2  0  0  0  0
  2 10  1  0  0  0  0
  2  3  1  0  0  0  0
  3  4  2  0  0  0  0
  3 24  1  0  0  0  0
  4  5  1  0  0  0  0
  4 25  1  0  0  0  0
  5  6  1  0  0  0  0
  5  9  2  0  0  0  0
  6  7  2  0  0  0  0
  6  8  1  0  0  0  0
  9 10  1  0  0  0  0
  9 26  1  0  0  0  0
 10 11  1  0  0  0  0
 11 12  1  0  0  0  0
 11 27  1  0  0  0  0
 11 28  1  0  0  0  0
 12 13  1  0  0  0  0
 12 29  1  0  0  0  0
 12 30  1  0  0  0  0
 13 14  1  0  0  0  0
 13 31  1  0  0  0  0
 14 19  1  0  0  0  0
 14 15  1  0  0  0  0
 14 32  1  0  0  0  0
 15 16  1  0  0  0  0
 15 33  1  0  0  0  0
 15 34  1  0  0  0  0
 16 17  1  0  0  0  0
 16 35  1  0  0  0  0
 16 36  1  0  0  0  0
 17 18  1  0  0  0  0
 17 37  1  0  0  0  0
 17 38  1  0  0  0  0
 18 19  1  0  0  0  0
 18 39  1  0  0  0  0
 18 40  1  0  0  0  0
 19 20  1  0  0  0  0
 19 41  1  0  0  0  0
 20 21  1  0  0  0  0
 20 22  1  0  0  0  0
 20 23  1  0  0  0  0
M  CHG  1   6   1
M  CHG  1   8  -1
M  END
> <s_m_source_file>
AV-unprocessed.smi

> <i_m_source_file_index>
3029

> <i_lp_mmshare_version>
43012

> <i_f3d_flags>
0

> <s_epik_input>
Tz1jMVtjSF1bY0hdYyhbTitdKD1PKVtPLV0pW2NIXW4xW0NIMl1bQ0gyXVtOSF1bQ0BASF0yW0NIMl1bQ0gyXVtDSDJdW0NIMl1bQ0BIXTJDKEYpKEYpRg==

> <s_epik_cmdline>
J2VwaWtfcHl0aG9uJywgJy1waCcsICc3LjAnLCAnLXRuJywgJzgnLCAnLW1hJywgJzIwMCcsICctbWV0YWxfYmluZGluZycsICctaW1hZScsICc8aW5maWxlLm1hZT4nLCAnLW9tYWUnLCAnPG91dGZpbGUubWFlPic=

> <r_lp_tautomer_probability>
1

> <r_epik_Ionization_Penalty>
1.65565

> <r_epik_Ionization_Penalty_Charging>
3.32684e-10

> <r_epik_Ionization_Penalty_Neutral>
1.65565

> <r_epik_State_Penalty>
1.75811

> <r_epik_Charging_Adjusted_Penalty>
1.75811

> <i_epik_Tot_Q>
0

> <i_epik_Tot_abs_Q>
2

> <r_epik_Metal_State_Penalty>
1.75811

> <b_epik_Metal_Only>
0

> <s_lp_Force_Field>
OPLS_2005

> <r_lp_Energy>
33.0444

> <b_lp_Chiralities_Consistent>
1

> <s_lp_Variant>
AV-unprocessed.smi:3029-5

> <Gold.Version>
5.8.1

> <Gold.Id.Protein>
6NUR|6NUR_protein|mol2

> <Gold.PLP.Fitness>
49.5866

> <Gold.PLP.PLP>
-44.2662

> <Gold.PLP.part.hbond>
-2.0000

> <Gold.PLP.part.metal>
0.0000

> <Gold.PLP.part.buried>
-3.8646

> <Gold.PLP.part.nonpolar>
-38.8695

> <Gold.PLP.part.repulsive>
0.9841

> <Gold.PLP.ligand.clash>
0.0000

> <Gold.PLP.ligand.torsion>
0.3007

> <Gold.PLP.Chemscore.Hbond>
1.9600

> <Gold.PLP.Chemscore.CHOScore>
0.0000

> <Gold.PLP.Chemscore.Metal>
0.0000

> <Gold.Chemscore.Hbonds>
donor molecule, donor type, donor heavy atom, donor atom, acceptor molecule, acceptor atom, score
      L1  H    13    31       P1  8028  1.00
      P1  H  7997  8010       L1     7  1.00

> <Gold.PLP.Chemscore.Internal.Correction>
0.0417

> <Gold.Rescore>
     Score         DG    S(hbond)    S(metal)    S(lipo)     H(rot)  DE(clash)    DE(int)     intcor
     16.25     -18.13       1.88        0.00      94.99       1.86       0.07       1.80       ----

> <Gold.Chemscore.Fitness>
16.2504

> <Gold.Chemscore.DG>
-18.1263

> <Gold.Chemscore.ZeroCoef>
-5.4800

> <Gold.Chemscore.Hbond>
1.8833

> <Gold.Chemscore.Metal>
0.0000

> <Gold.Chemscore.Lipo>
94.9886

> <Gold.Chemscore.Internal_Hbond>
0.0000

> <Gold.Chemscore.DEClash>
0.0736

> <Gold.Chemscore.DEInternal>
1.8022

> <Gold.Chemscore.Rot>
1.8584

> <Gold.Chemscore.Internal.Correction>
   9.000000E+99

> <Gold.Chemscore.Hbonds>
donor molecule, donor type, donor heavy atom, donor atom, acceptor molecule, acceptor atom, score
      L1  H    13    31       P1  8028  0.92
      P1  H  7997  8010       L1     7  0.96

> <Gold.Chemscore.Hbond.Weighted>
-6.2902

> <Gold.Chemscore.Metal.Weighted>
-0.0000

> <Gold.Chemscore.Lipo.Weighted>
-11.1137

> <Gold.Chemscore.Internal_Hbond.Weighted>
0.0000

> <Gold.Chemscore.DEClash.Weighted>
0.0736

> <Gold.Chemscore.DEInternal.Weighted>
1.8022

> <Gold.Chemscore.Rot.Weighted>
4.7576

> <Gold.Chemscore.Internal.Correction.Weighted>
   9.000000E+99

> <Gold.Protein.RotatedTorsions>
[ 6907 6896 6895 6894 ] final  116.07 input  -60.11 | X-H torsion
[ 7974 7965 7964 7962 ] final -167.25 input  175.53 | X-H torsion
[ 8008 7997 7996 7995 ] final   11.22 input   59.86 | X-H torsion
[ 10167 10162 10161 10158 ] final -169.07 input  -65.29 | X-H torsion
[ 10718 10713 10712 10709 ] final -175.15 input   66.30 | X-H torsion
[ 10763 10752 10751 10750 ] final   84.25 input  -60.55 | X-H torsion
[ 11005 11000 10999 10996 ] final  135.04 input  -57.11 | X-H torsion

> <Gold.Protein.ActiveResidues>
 VAL166  LYS551  ARG553  GLY616  TRP617  ASP618  TYR619  PRO620  LYS621  CYS622 
 ASP623  PHE694  ASN695  SER759  ASP760  ASP761  ALA762  ILE779  LEU786  VAL792 
 PHE793  MET794  SER795  GLU796  ALA797  LYS798  CYS799  TRP800  GLU811  SER814 

> <Gold.Protein.RotatedAtoms>
  152.4701  133.8011  159.6952 H   0  0  0  0  0  0  0  0  0  0  0  0  # atno 6907 bound_to 6896
  150.8686  133.7529  159.2975 H   0  0  0  0  0  0  0  0  0  0  0  0  # atno 6908 bound_to 6896
  151.5071  135.1067  159.9896 H   0  0  0  0  0  0  0  0  0  0  0  0  # atno 6909 bound_to 6896
  144.7227  140.2546  143.6273 H   0  0  0  0  0  0  0  0  0  0  0  0  # atno 7974 bound_to 7965
  154.8040  140.2857  155.5901 H   0  0  0  0  0  0  0  0  0  0  0  0  # atno 8008 bound_to 7997
  156.2980  140.2581  156.2843 H   0  0  0  0  0  0  0  0  0  0  0  0  # atno 8009 bound_to 7997
  154.9525  140.0379  157.2140 H   0  0  0  0  0  0  0  0  0  0  0  0  # atno 8010 bound_to 7997
  139.5945  144.1141  152.1673 H   0  0  0  0  0  0  0  0  0  0  0  0  # atno 10167 bound_to 10162
  156.7955  130.9533  151.3119 H   0  0  0  0  0  0  0  0  0  0  0  0  # atno 10718 bound_to 10713
  153.1364  135.4661  154.9429 H   0  0  0  0  0  0  0  0  0  0  0  0  # atno 10763 bound_to 10752
  154.7710  135.3159  154.8193 H   0  0  0  0  0  0  0  0  0  0  0  0  # atno 10764 bound_to 10752
  153.8724  135.6902  153.4827 H   0  0  0  0  0  0  0  0  0  0  0  0  # atno 10765 bound_to 10752
  139.9954  134.9499  156.9951 H   0  0  0  0  0  0  0  0  0  0  0  0  # atno 11005 bound_to 11000
  145.8194  139.2037  143.1946 LP  0  0  0  0  0  0  0  0  0  0  0  0  # atno 17320 bound_to 7965
  146.0527  140.8053  142.9774 LP  0  0  0  0  0  0  0  0  0  0  0  0  # atno 17321 bound_to 7965
  140.0723  144.5769  150.7182 LP  0  0  0  0  0  0  0  0  0  0  0  0  # atno 17342 bound_to 10162
  140.7201  143.2580  151.4307 LP  0  0  0  0  0  0  0  0  0  0  0  0  # atno 17343 bound_to 10162
  157.6579  130.8941  149.9768 LP  0  0  0  0  0  0  0  0  0  0  0  0  # atno 17370 bound_to 10713
  156.1133  130.3649  150.0012 LP  0  0  0  0  0  0  0  0  0  0  0  0  # atno 17371 bound_to 10713
  140.4829  134.1271  155.7220 LP  0  0  0  0  0  0  0  0  0  0  0  0  # atno 17394 bound_to 11000
  141.1600  133.8811  157.1875 LP  0  0  0  0  0  0  0  0  0  0  0  0  # atno 17395 bound_to 11000

$$$$
