AV-unprocessed.smi:38|AV-procd|sdf|340|dock5
  -GOLD-   2262016173D 1   1.00000     0.00000
 Structure written by MMmdl.
 28 29  0  0  0  0  0  0  0  0  1 V2000
  153.0584  139.3727  157.9587 O   0  0  0  0  0  0  0  0  0  0  0  0
  152.1934  139.9003  157.2623 C   0  0  0  0  0  0  0  0  0  0  0  0
  151.3751  140.8997  157.7956 N   0  0  0  0  0  0  0  0  0  0  0  0
  150.3597  141.5676  157.1095 C   0  0  0  0  0  0  0  0  0  0  0  0
  149.7128  142.4482  157.6748 O   0  0  0  0  0  0  0  0  0  0  0  0
  150.1248  141.1897  155.7683 N   0  0  0  0  0  0  0  0  0  0  0  0
  149.0373  141.9123  154.9983 C   0  0  2  0  0  0  0  0  0  0  0  0
  147.6593  141.7003  155.6434 C   0  0  0  0  0  0  0  0  0  0  0  0
  146.7749  141.5435  154.4262 C   0  0  2  0  0  0  0  0  0  0  0  0
  145.5608  140.8856  154.7285 O   0  0  0  0  0  0  0  0  0  0  0  0
  147.6856  140.7919  153.4480 C   0  0  2  0  0  0  0  0  0  0  0  0
  147.7949  139.2703  153.6936 C   0  0  0  0  0  0  0  0  0  0  0  0
  149.0291  138.7938  153.2015 O   0  0  0  0  0  0  0  0  0  0  0  0
  148.9542  141.4019  153.6949 O   0  0  0  0  0  0  0  0  0  0  0  0
  150.9351  140.2189  155.1885 C   0  0  0  0  0  0  0  0  0  0  0  0
  151.9207  139.5817  155.8642 C   0  0  0  0  0  0  0  0  0  0  0  0
  152.6601  138.6509  155.2374 F   0  0  0  0  0  0  0  0  0  0  0  0
  151.5353  141.1639  158.7567 H   0  0  0  0  0  0  0  0  0  0  0  0
  149.3501  142.9573  154.9580 H   0  0  0  0  0  0  0  0  0  0  0  0
  146.5467  142.5301  154.0201 H   0  0  0  0  0  0  0  0  0  0  0  0
  147.3659  140.9788  152.4219 H   0  0  0  0  0  0  0  0  0  0  0  0
  147.6651  140.7866  156.2406 H   0  0  0  0  0  0  0  0  0  0  0  0
  147.3821  142.5414  156.2795 H   0  0  0  0  0  0  0  0  0  0  0  0
  145.1029  140.7118  153.9202 H   0  0  0  0  0  0  0  0  0  0  0  0
  147.6829  139.0128  154.7464 H   0  0  0  0  0  0  0  0  0  0  0  0
  147.0160  138.7348  153.1513 H   0  0  0  0  0  0  0  0  0  0  0  0
  148.9238  137.8887  152.9515 H   0  0  0  0  0  0  0  0  0  0  0  0
  150.7977  139.9402  154.1546 H   0  0  0  0  0  0  0  0  0  0  0  0
  1  2  2  0  0  0  0
  2 16  1  0  0  0  0
  2  3  1  0  0  0  0
  3 18  1  0  0  0  0
  3  4  1  0  0  0  0
  4  5  2  0  0  0  0
  4  6  1  0  0  0  0
  6  7  1  0  0  0  0
  6 15  1  0  0  0  0
  7 19  1  0  0  0  0
  7 14  1  0  0  0  0
  7  8  1  0  0  0  0
  8  9  1  0  0  0  0
  8 22  1  0  0  0  0
  8 23  1  0  0  0  0
  9 20  1  0  0  0  0
  9 10  1  0  0  0  0
  9 11  1  0  0  0  0
 10 24  1  0  0  0  0
 11 21  1  0  0  0  0
 11 12  1  0  0  0  0
 11 14  1  0  0  0  0
 12 13  1  0  0  0  0
 12 25  1  0  0  0  0
 12 26  1  0  0  0  0
 13 27  1  0  0  0  0
 15 16  2  0  0  0  0
 15 28  1  0  0  0  0
 16 17  1  0  0  0  0
M  END
> <s_m_source_file>
AV-unprocessed.smi

> <i_m_source_file_index>
38

> <i_lp_mmshare_version>
43012

> <i_f3d_flags>
0

> <s_epik_input>
Tz1jMVtuSF1jKD1PKW4oW2NIXWMxRilbQ0BIXTJbQ0gyXVtDQEhdKFtPSF0pW0NASF0oTzIpW0NIMl1bT0hd

> <s_epik_cmdline>
J2VwaWtfcHl0aG9uJywgJy1waCcsICc3LjAnLCAnLXRuJywgJzgnLCAnLW1hJywgJzIwMCcsICctbWV0YWxfYmluZGluZycsICctaW1hZScsICc8aW5maWxlLm1hZT4nLCAnLW9tYWUnLCAnPG91dGZpbGUubWFlPic=

> <r_lp_tautomer_probability>
0.999537

> <r_epik_Ionization_Penalty>
0.0357432

> <r_epik_Ionization_Penalty_Charging>
0.0357431

> <r_epik_Ionization_Penalty_Neutral>
1.19946e-07

> <r_epik_State_Penalty>
0.0298169

> <r_epik_Charging_Adjusted_Penalty>
0.06556

> <i_epik_Tot_Q>
0

> <i_epik_Tot_abs_Q>
0

> <r_epik_Metal_State_Penalty>
2.348

> <b_epik_Metal_Only>
0

> <s_epik_Chemistry_Notes>
This compound contains an acetal/aminal-like group ( X-CH(R)-Y where X, Y are N, S, or O) that may be acid/base labile, releasing an aldehyde.

> <s_lp_Force_Field>
OPLS_2005

> <r_lp_Energy>
30.3129

> <b_lp_Chiralities_Consistent>
1

> <s_lp_Variant>
AV-unprocessed.smi:38-6

> <Gold.Version>
5.8.1

> <Gold.Id.Protein>
6NUR|6NUR_protein|mol2

> <Gold.PLP.Fitness>
39.4804

> <Gold.PLP.PLP>
-28.5446

> <Gold.PLP.part.hbond>
-5.2567

> <Gold.PLP.part.metal>
0.0000

> <Gold.PLP.part.buried>
1.7651

> <Gold.PLP.part.nonpolar>
-25.8358

> <Gold.PLP.part.repulsive>
1.5544

> <Gold.PLP.ligand.clash>
0.0000

> <Gold.PLP.ligand.torsion>
0.2544

> <Gold.PLP.Chemscore.Hbond>
3.8073

> <Gold.PLP.Chemscore.CHOScore>
0.0000

> <Gold.PLP.Chemscore.Metal>
0.0000

> <Gold.Chemscore.Hbonds>
donor molecule, donor type, donor heavy atom, donor atom, acceptor molecule, acceptor atom, score
      L1  H    10    24       P1 10175  0.99
      L1  H    13    27       P1  7948  1.00
      P1  H  7997  8009       L1     1  1.00
      P1  H  8011  8017       L1    14  0.82

> <Gold.PLP.Chemscore.Internal.Correction>
0.0229

> <Gold.Rescore>
     Score         DG    S(hbond)    S(metal)    S(lipo)     H(rot)  DE(clash)    DE(int)     intcor
     10.30     -14.12       3.48        0.00      38.25       2.91       2.57       1.25       ----

> <Gold.Chemscore.Fitness>
10.3041

> <Gold.Chemscore.DG>
-14.1191

> <Gold.Chemscore.ZeroCoef>
-5.4800

> <Gold.Chemscore.Hbond>
3.4801

> <Gold.Chemscore.Metal>
0.0000

> <Gold.Chemscore.Lipo>
38.2541

> <Gold.Chemscore.Internal_Hbond>
0.0000

> <Gold.Chemscore.DEClash>
2.5663

> <Gold.Chemscore.DEInternal>
1.2488

> <Gold.Chemscore.Rot>
2.9141

> <Gold.Chemscore.Internal.Correction>
   9.000000E+99

> <Gold.Chemscore.Hbonds>
donor molecule, donor type, donor heavy atom, donor atom, acceptor molecule, acceptor atom, score
      L1  H    10    24       P1 10175  0.90
      L1  H    13    27       P1  7948  0.98
      P1  H  7997  8009       L1     1  0.38
      P1  H  8011  8017       L1    14  0.74

> <Gold.Chemscore.Hbond.Weighted>
-11.6235

> <Gold.Chemscore.Metal.Weighted>
-0.0000

> <Gold.Chemscore.Lipo.Weighted>
-4.4757

> <Gold.Chemscore.Internal_Hbond.Weighted>
0.0000

> <Gold.Chemscore.DEClash.Weighted>
2.5663

> <Gold.Chemscore.DEInternal.Weighted>
1.2488

> <Gold.Chemscore.Rot.Weighted>
7.4601

> <Gold.Chemscore.Internal.Correction.Weighted>
   9.000000E+99

> <Gold.Protein.RotatedTorsions>
[ 6907 6896 6895 6894 ] final   18.78 input  -60.11 | X-H torsion
[ 7974 7965 7964 7962 ] final  128.15 input  175.53 | X-H torsion
[ 8008 7997 7996 7995 ] final  143.18 input   59.86 | X-H torsion
[ 10167 10162 10161 10158 ] final -174.07 input  -65.29 | X-H torsion
[ 10718 10713 10712 10709 ] final   85.16 input   66.30 | X-H torsion
[ 10763 10752 10751 10750 ] final   15.41 input  -60.55 | X-H torsion
[ 11005 11000 10999 10996 ] final   -6.82 input  -57.11 | X-H torsion

> <Gold.Protein.ActiveResidues>
 VAL166  LYS551  ARG553  GLY616  TRP617  ASP618  TYR619  PRO620  LYS621  CYS622 
 ASP623  PHE694  ASN695  SER759  ASP760  ASP761  ALA762  ILE779  LEU786  VAL792 
 PHE793  MET794  SER795  GLU796  ALA797  LYS798  CYS799  TRP800  GLU811  SER814 

> <Gold.Protein.RotatedAtoms>
  151.8706  135.0490  160.0478 H   0  0  0  0  0  0  0  0  0  0  0  0  # atno 6907 bound_to 6896
  152.2591  133.5277  159.5379 H   0  0  0  0  0  0  0  0  0  0  0  0  # atno 6908 bound_to 6896
  150.7110  134.0771  159.3927 H   0  0  0  0  0  0  0  0  0  0  0  0  # atno 6909 bound_to 6896
  145.0427  139.3949  143.5094 H   0  0  0  0  0  0  0  0  0  0  0  0  # atno 7974 bound_to 7965
  156.2935  140.2269  156.4848 H   0  0  0  0  0  0  0  0  0  0  0  0  # atno 8008 bound_to 7997
  154.7821  140.0459  157.1157 H   0  0  0  0  0  0  0  0  0  0  0  0  # atno 8009 bound_to 7997
  154.9746  140.3071  155.4976 H   0  0  0  0  0  0  0  0  0  0  0  0  # atno 8010 bound_to 7997
  139.5654  144.1769  152.1304 H   0  0  0  0  0  0  0  0  0  0  0  0  # atno 10167 bound_to 10162
  157.6910  131.0163  150.2780 H   0  0  0  0  0  0  0  0  0  0  0  0  # atno 10718 bound_to 10713
  153.1528  135.6781  153.8857 H   0  0  0  0  0  0  0  0  0  0  0  0  # atno 10763 bound_to 10752
  153.8277  135.3121  155.3417 H   0  0  0  0  0  0  0  0  0  0  0  0  # atno 10764 bound_to 10752
  154.7875  135.4854  154.0065 H   0  0  0  0  0  0  0  0  0  0  0  0  # atno 10765 bound_to 10752
  140.7061  133.8948  155.8717 H   0  0  0  0  0  0  0  0  0  0  0  0  # atno 11005 bound_to 11000
  146.3511  140.0036  142.8674 LP  0  0  0  0  0  0  0  0  0  0  0  0  # atno 17320 bound_to 7965
  145.1627  140.9681  143.4368 LP  0  0  0  0  0  0  0  0  0  0  0  0  # atno 17321 bound_to 7965
  140.1291  144.5305  150.6814 LP  0  0  0  0  0  0  0  0  0  0  0  0  # atno 17342 bound_to 10162
  140.6937  143.2391  151.5061 LP  0  0  0  0  0  0  0  0  0  0  0  0  # atno 17343 bound_to 10162
  156.3332  130.3803  149.7473 LP  0  0  0  0  0  0  0  0  0  0  0  0  # atno 17370 bound_to 10713
  156.5006  130.8127  151.3131 LP  0  0  0  0  0  0  0  0  0  0  0  0  # atno 17371 bound_to 10713
  141.0123  134.1003  157.4208 LP  0  0  0  0  0  0  0  0  0  0  0  0  # atno 17394 bound_to 11000
  139.8884  135.0097  156.6616 LP  0  0  0  0  0  0  0  0  0  0  0  0  # atno 17395 bound_to 11000

$$$$
