AV-unprocessed.smi:1295|AV-procd|sdf|5404|dock3
  -GOLD-   22720 4563D 1   1.00000     0.00000
 Structure written by MMmdl.
 43 44  0  0  0  0  0  0  0  0  1 V2000
  151.0299  136.1335  154.6036 C   0  0  0  0  0  0  0  0  0  0  0  0
  150.7875  137.6107  154.8307 C   0  0  0  0  0  0  0  0  0  0  0  0
  149.7565  138.2489  154.3837 N   0  0  0  0  0  0  0  0  0  0  0  0
  149.6431  139.6196  154.6548 C   0  0  0  0  0  0  0  0  0  0  0  0
  148.4084  140.3004  154.0890 C   0  0  0  0  0  0  0  0  0  0  0  0
  150.5890  140.2871  155.3789 C   0  0  0  0  0  0  0  0  0  0  0  0
  150.4943  141.7808  155.6854 C   0  0  0  0  0  0  0  0  0  0  0  0
  150.8176  142.1808  157.1269 C   0  0  0  0  0  0  0  0  0  0  0  0
  150.1666  141.7112  158.0602 O   0  0  0  0  0  0  0  0  0  0  0  0
  151.8315  143.0450  157.2887 N   0  0  0  0  0  0  0  0  0  0  0  0
  152.3472  143.5357  158.5659 C   0  0  1  0  0  0  0  0  0  0  0  0
  151.4086  144.6449  159.0806 C   0  0  0  0  0  0  0  0  0  0  0  0
  151.8479  145.1694  160.4550 C   0  0  0  0  0  0  0  0  0  0  0  0
  151.9459  144.0246  161.4719 C   0  0  0  0  0  0  0  0  0  0  0  0
  152.8960  142.9254  160.9732 C   0  0  0  0  0  0  0  0  0  0  0  0
  152.4751  142.3809  159.5927 C   0  0  2  0  0  0  0  0  0  0  0  0
  153.4473  141.2804  159.1309 C   0  0  0  0  0  0  0  0  0  0  0  0
  151.7608  139.5475  155.8870 C   0  0  0  0  0  0  0  0  0  0  0  0
  152.6711  140.0484  156.5454 O   0  0  0  0  0  0  0  0  0  0  0  0
  151.7886  138.2324  155.5751 N   0  0  0  0  0  0  0  0  0  0  0  0
  152.5720  137.6831  155.8971 H   0  0  0  0  0  0  0  0  0  0  0  0
  151.0881  135.9236  153.5354 H   0  0  0  0  0  0  0  0  0  0  0  0
  150.2106  135.5497  155.0242 H   0  0  0  0  0  0  0  0  0  0  0  0
  151.9596  135.8010  155.0679 H   0  0  0  0  0  0  0  0  0  0  0  0
  147.7872  140.6962  154.8924 H   0  0  0  0  0  0  0  0  0  0  0  0
  147.8013  139.6027  153.5109 H   0  0  0  0  0  0  0  0  0  0  0  0
  148.6890  141.1216  153.4294 H   0  0  0  0  0  0  0  0  0  0  0  0
  151.1661  142.3119  155.0102 H   0  0  0  0  0  0  0  0  0  0  0  0
  149.5017  142.1618  155.4433 H   0  0  0  0  0  0  0  0  0  0  0  0
  152.2998  143.3766  156.4579 H   0  0  0  0  0  0  0  0  0  0  0  0
  153.3351  143.9791  158.4266 H   0  0  0  0  0  0  0  0  0  0  0  0
  151.3800  145.4694  158.3671 H   0  0  0  0  0  0  0  0  0  0  0  0
  150.3888  144.2634  159.1510 H   0  0  0  0  0  0  0  0  0  0  0  0
  152.8144  145.6672  160.3665 H   0  0  0  0  0  0  0  0  0  0  0  0
  151.1430  145.9223  160.8085 H   0  0  0  0  0  0  0  0  0  0  0  0
  152.2925  144.4080  162.4320 H   0  0  0  0  0  0  0  0  0  0  0  0
  150.9557  143.6020  161.6460 H   0  0  0  0  0  0  0  0  0  0  0  0
  153.9105  143.3227  160.9178 H   0  0  0  0  0  0  0  0  0  0  0  0
  152.9236  142.1140  161.7013 H   0  0  0  0  0  0  0  0  0  0  0  0
  151.4925  141.9207  159.7084 H   0  0  0  0  0  0  0  0  0  0  0  0
  154.4449  141.6840  158.9541 H   0  0  0  0  0  0  0  0  0  0  0  0
  153.1124  140.8067  158.2082 H   0  0  0  0  0  0  0  0  0  0  0  0
  153.5351  140.4947  159.8816 H   0  0  0  0  0  0  0  0  0  0  0  0
  1  2  1  0  0  0  0
  1 22  1  0  0  0  0
  1 23  1  0  0  0  0
  1 24  1  0  0  0  0
  2 20  1  0  0  0  0
  2  3  2  0  0  0  0
  3  4  1  0  0  0  0
  4  5  1  0  0  0  0
  4  6  2  0  0  0  0
  5 25  1  0  0  0  0
  5 26  1  0  0  0  0
  5 27  1  0  0  0  0
  6  7  1  0  0  0  0
  6 18  1  0  0  0  0
  7  8  1  0  0  0  0
  7 28  1  0  0  0  0
  7 29  1  0  0  0  0
  8  9  2  0  0  0  0
  8 10  1  0  0  0  0
 10 11  1  0  0  0  0
 10 30  1  0  0  0  0
 11 16  1  0  0  0  0
 11 12  1  0  0  0  0
 11 31  1  0  0  0  0
 12 13  1  0  0  0  0
 12 32  1  0  0  0  0
 12 33  1  0  0  0  0
 13 14  1  0  0  0  0
 13 34  1  0  0  0  0
 13 35  1  0  0  0  0
 14 15  1  0  0  0  0
 14 36  1  0  0  0  0
 14 37  1  0  0  0  0
 15 16  1  0  0  0  0
 15 38  1  0  0  0  0
 15 39  1  0  0  0  0
 16 17  1  0  0  0  0
 16 40  1  0  0  0  0
 17 41  1  0  0  0  0
 17 42  1  0  0  0  0
 17 43  1  0  0  0  0
 18 19  2  0  0  0  0
 18 20  1  0  0  0  0
 20 21  1  0  0  0  0
M  END
> <s_m_source_file>
AV-unprocessed.smi

> <i_m_source_file_index>
1295

> <i_lp_mmshare_version>
43012

> <i_f3d_flags>
0

> <s_epik_input>
W0NIM11jMW5jKFtDSDNdKWMoYyg9TylbbkhdMSlbQ0gyXUMoPU8pW05IXVtDQEBIXTJbQ0gyXVtDSDJdW0NIMl1bQ0gyXVtDQEhdMltDSDNd

> <s_epik_cmdline>
J2VwaWtfcHl0aG9uJywgJy1waCcsICc3LjAnLCAnLXRuJywgJzgnLCAnLW1hJywgJzIwMCcsICctbWV0YWxfYmluZGluZycsICctaW1hZScsICc8aW5maWxlLm1hZT4nLCAnLW9tYWUnLCAnPG91dGZpbGUubWFlPic=

> <r_lp_tautomer_probability>
0.839158

> <r_epik_Ionization_Penalty>
0.00037085

> <r_epik_Ionization_Penalty_Charging>
0.000336002

> <r_epik_Ionization_Penalty_Neutral>
3.48485e-05

> <r_epik_State_Penalty>
0.09125

> <r_epik_Charging_Adjusted_Penalty>
0.091586

> <i_epik_Tot_Q>
0

> <i_epik_Tot_abs_Q>
0

> <r_epik_Metal_State_Penalty>
0.251445

> <b_epik_Metal_Only>
0

> <s_lp_Force_Field>
OPLS_2005

> <r_lp_Energy>
11.9106

> <b_lp_Chiralities_Consistent>
1

> <s_lp_Variant>
AV-unprocessed.smi:1295-4

> <Gold.Version>
5.8.1

> <Gold.Id.Protein>
6NUR|6NUR_protein|mol2

> <Gold.PLP.Fitness>
44.4862

> <Gold.PLP.PLP>
-42.3544

> <Gold.PLP.part.hbond>
-1.0000

> <Gold.PLP.part.metal>
0.0000

> <Gold.PLP.part.buried>
-0.2672

> <Gold.PLP.part.nonpolar>
-39.9536

> <Gold.PLP.part.repulsive>
0.4311

> <Gold.PLP.ligand.clash>
0.0000

> <Gold.PLP.ligand.torsion>
0.4362

> <Gold.PLP.Chemscore.Hbond>
1.0000

> <Gold.PLP.Chemscore.CHOScore>
0.0000

> <Gold.PLP.Chemscore.Metal>
0.0000

> <Gold.Chemscore.Hbonds>
donor molecule, donor type, donor heavy atom, donor atom, acceptor molecule, acceptor atom, score
      P1  H  7997  8008       L1    19  1.00

> <Gold.PLP.Chemscore.Internal.Correction>
0.0042

> <Gold.Rescore>
     Score         DG    S(hbond)    S(metal)    S(lipo)     H(rot)  DE(clash)    DE(int)     intcor
     15.44     -17.96       1.00        0.00     110.66       1.48       1.23       1.29       ----

> <Gold.Chemscore.Fitness>
15.4374

> <Gold.Chemscore.DG>
-17.9625

> <Gold.Chemscore.ZeroCoef>
-5.4800

> <Gold.Chemscore.Hbond>
0.9954

> <Gold.Chemscore.Metal>
0.0000

> <Gold.Chemscore.Lipo>
110.6576

> <Gold.Chemscore.Internal_Hbond>
0.0000

> <Gold.Chemscore.DEClash>
1.2324

> <Gold.Chemscore.DEInternal>
1.2927

> <Gold.Chemscore.Rot>
1.4801

> <Gold.Chemscore.Internal.Correction>
   9.000000E+99

> <Gold.Chemscore.Hbonds>
donor molecule, donor type, donor heavy atom, donor atom, acceptor molecule, acceptor atom, score
      P1  H  7997  8008       L1    19  0.99

> <Gold.Chemscore.Hbond.Weighted>
-3.3247

> <Gold.Chemscore.Metal.Weighted>
-0.0000

> <Gold.Chemscore.Lipo.Weighted>
-12.9469

> <Gold.Chemscore.Internal_Hbond.Weighted>
0.0000

> <Gold.Chemscore.DEClash.Weighted>
1.2324

> <Gold.Chemscore.DEInternal.Weighted>
1.2927

> <Gold.Chemscore.Rot.Weighted>
3.7891

> <Gold.Chemscore.Internal.Correction.Weighted>
   9.000000E+99

> <Gold.Protein.RotatedTorsions>
[ 6907 6896 6895 6894 ] final  174.95 input  -60.11 | X-H torsion
[ 7974 7965 7964 7962 ] final  126.04 input  175.53 | X-H torsion
[ 8008 7997 7996 7995 ] final  -53.03 input   59.86 | X-H torsion
[ 10167 10162 10161 10158 ] final   84.89 input  -65.29 | X-H torsion
[ 10718 10713 10712 10709 ] final -113.81 input   66.30 | X-H torsion
[ 10763 10752 10751 10750 ] final  178.41 input  -60.55 | X-H torsion
[ 11005 11000 10999 10996 ] final    6.74 input  -57.11 | X-H torsion

> <Gold.Protein.ActiveResidues>
 VAL166  LYS551  ARG553  GLY616  TRP617  ASP618  TYR619  PRO620  LYS621  CYS622 
 ASP623  PHE694  ASN695  SER759  ASP760  ASP761  ALA762  ILE779  LEU786  VAL792 
 PHE793  MET794  SER795  GLU796  ALA797  LYS798  CYS799  TRP800  GLU811  SER814 

> <Gold.Protein.RotatedAtoms>
  151.7440  133.3323  159.3373 H   0  0  0  0  0  0  0  0  0  0  0  0  # atno 6907 bound_to 6896
  150.7562  134.6252  159.6166 H   0  0  0  0  0  0  0  0  0  0  0  0  # atno 6908 bound_to 6896
  152.3512  134.7005  160.0287 H   0  0  0  0  0  0  0  0  0  0  0  0  # atno 6909 bound_to 6896
  145.0662  139.3766  143.4981 H   0  0  0  0  0  0  0  0  0  0  0  0  # atno 7974 bound_to 7965
  154.4122  140.1209  156.5088 H   0  0  0  0  0  0  0  0  0  0  0  0  # atno 8008 bound_to 7997
  155.6820  140.3496  155.4840 H   0  0  0  0  0  0  0  0  0  0  0  0  # atno 8009 bound_to 7997
  155.9543  140.1111  157.0940 H   0  0  0  0  0  0  0  0  0  0  0  0  # atno 8010 bound_to 7997
  139.9034  144.6316  150.8613 H   0  0  0  0  0  0  0  0  0  0  0  0  # atno 10167 bound_to 10162
  156.0790  130.5993  150.8691 H   0  0  0  0  0  0  0  0  0  0  0  0  # atno 10718 bound_to 10713
  154.5073  135.2786  155.1372 H   0  0  0  0  0  0  0  0  0  0  0  0  # atno 10763 bound_to 10752
  154.2981  135.6253  153.5417 H   0  0  0  0  0  0  0  0  0  0  0  0  # atno 10764 bound_to 10752
  152.9912  135.5690  154.5530 H   0  0  0  0  0  0  0  0  0  0  0  0  # atno 10765 bound_to 10752
  140.5561  134.0237  155.7954 H   0  0  0  0  0  0  0  0  0  0  0  0  # atno 11005 bound_to 11000
  146.3527  140.0384  142.8645 LP  0  0  0  0  0  0  0  0  0  0  0  0  # atno 17320 bound_to 7965
  145.1348  140.9538  143.4523 LP  0  0  0  0  0  0  0  0  0  0  0  0  # atno 17321 bound_to 7965
  140.7702  143.3419  151.2189 LP  0  0  0  0  0  0  0  0  0  0  0  0  # atno 17342 bound_to 10162
  139.7005  143.9540  152.2903 LP  0  0  0  0  0  0  0  0  0  0  0  0  # atno 17343 bound_to 10162
  157.5898  131.0945  150.9137 LP  0  0  0  0  0  0  0  0  0  0  0  0  # atno 17370 bound_to 10713
  156.9315  130.5351  149.5279 LP  0  0  0  0  0  0  0  0  0  0  0  0  # atno 17371 bound_to 10713
  141.1143  133.9566  157.2852 LP  0  0  0  0  0  0  0  0  0  0  0  0  # atno 17394 bound_to 11000
  139.9431  135.0188  156.8769 LP  0  0  0  0  0  0  0  0  0  0  0  0  # atno 17395 bound_to 11000

$$$$
