AV-unprocessed.smi:2164|AV-procd|sdf|8809|dock9
  -GOLD-   2272011593D 1   1.00000     0.00000
 Structure written by MMmdl.
 40 42  0  0  0  0  0  0  0  0  2 V2000
  146.8950  134.7614  155.7945 O   0  0  0  0  0  0  0  0  0  0  0  0
  147.5762  135.2536  154.8935 C   0  0  0  0  0  0  0  0  0  0  0  0
  147.0415  135.6002  153.7087 N   0  0  0  0  0  0  0  0  0  0  0  0
  145.6402  135.4477  153.3228 C   0  0  0  0  0  0  0  0  0  0  0  0
  145.4320  135.5504  151.7990 C   0  0  0  0  0  0  0  0  0  0  0  0
  145.4224  134.2066  151.0910 C   0  0  0  0  0  0  0  0  0  0  0  0
  144.2128  133.6609  150.6066 C   0  0  0  0  0  0  0  0  0  0  0  0
  144.2340  132.4242  149.9289 C   0  0  0  0  0  0  0  0  0  0  0  0
  145.4647  131.7596  149.7520 C   0  0  0  0  0  0  0  0  0  0  0  0
  146.6013  132.3100  150.2329 N   0  3  0  0  0  0  0  0  0  0  0  0
  146.6229  133.4915  150.8877 C   0  0  0  0  0  0  0  0  0  0  0  0
  149.0106  135.5309  154.9975 C   0  0  0  0  0  0  0  0  0  0  0  0
  149.4666  136.7802  154.7860 C   0  0  0  0  0  0  0  0  0  0  0  0
  150.8149  137.1348  154.8651 N   0  0  0  0  0  0  0  0  0  0  0  0
  151.1848  138.5026  154.5195 C   0  0  0  0  0  0  0  0  0  0  0  0
  152.2454  139.0221  155.4766 C   0  0  0  0  0  0  0  0  0  0  0  0
  153.7175  137.9551  155.2416 S   0  0  0  0  0  0  0  0  0  0  0  0
  154.1492  138.0773  153.8404 O   0  0  0  0  0  0  0  0  0  0  0  0
  154.6730  138.2508  156.3197 O   0  0  0  0  0  0  0  0  0  0  0  0
  153.0423  136.4390  155.4782 N   0  0  0  0  0  0  0  0  0  0  0  0
  151.7893  136.1807  155.2556 C   0  0  0  0  0  0  0  0  0  0  0  0
  151.3062  134.8221  155.4447 C   0  0  0  0  0  0  0  0  0  0  0  0
  149.9989  134.5117  155.3253 C   0  0  0  0  0  0  0  0  0  0  0  0
  147.6596  135.9963  153.0152 H   0  0  0  0  0  0  0  0  0  0  0  0
  145.3056  134.4686  153.6667 H   0  0  0  0  0  0  0  0  0  0  0  0
  145.0162  136.1775  153.8415 H   0  0  0  0  0  0  0  0  0  0  0  0
  144.4967  136.0719  151.5915 H   0  0  0  0  0  0  0  0  0  0  0  0
  146.2220  136.1642  151.3646 H   0  0  0  0  0  0  0  0  0  0  0  0
  143.2799  134.1885  150.7427 H   0  0  0  0  0  0  0  0  0  0  0  0
  143.3195  131.9941  149.5474 H   0  0  0  0  0  0  0  0  0  0  0  0
  145.5737  130.8124  149.2441 H   0  0  0  0  0  0  0  0  0  0  0  0
  147.5945  133.8303  151.2168 H   0  0  0  0  0  0  0  0  0  0  0  0
  148.8072  137.6003  154.5373 H   0  0  0  0  0  0  0  0  0  0  0  0
  151.5440  138.5297  153.4902 H   0  0  0  0  0  0  0  0  0  0  0  0
  150.3149  139.1588  154.5648 H   0  0  0  0  0  0  0  0  0  0  0  0
  152.5208  140.0528  155.2534 H   0  0  0  0  0  0  0  0  0  0  0  0
  151.9208  138.9685  156.5165 H   0  0  0  0  0  0  0  0  0  0  0  0
  151.9853  134.0206  155.6983 H   0  0  0  0  0  0  0  0  0  0  0  0
  149.7099  133.4831  155.4829 H   0  0  0  0  0  0  0  0  0  0  0  0
  147.4813  131.8123  150.0941 H   0  0  0  0  0  0  0  0  0  0  0  0
  1  2  2  0  0  0  0
  2  3  1  0  0  0  0
  2 12  1  0  0  0  0
  3  4  1  0  0  0  0
  3 24  1  0  0  0  0
  4  5  1  0  0  0  0
  4 25  1  0  0  0  0
  4 26  1  0  0  0  0
  5  6  1  0  0  0  0
  5 27  1  0  0  0  0
  5 28  1  0  0  0  0
  6 11  1  0  0  0  0
  6  7  2  0  0  0  0
  7  8  1  0  0  0  0
  7 29  1  0  0  0  0
  8  9  2  0  0  0  0
  8 30  1  0  0  0  0
  9 10  1  0  0  0  0
  9 31  1  0  0  0  0
 10 11  2  0  0  0  0
 10 40  1  0  0  0  0
 11 32  1  0  0  0  0
 12 23  1  0  0  0  0
 12 13  2  0  0  0  0
 13 14  1  0  0  0  0
 13 33  1  0  0  0  0
 14 21  1  0  0  0  0
 14 15  1  0  0  0  0
 15 16  1  0  0  0  0
 15 34  1  0  0  0  0
 15 35  1  0  0  0  0
 16 17  1  0  0  0  0
 16 36  1  0  0  0  0
 16 37  1  0  0  0  0
 17 18  2  0  0  0  0
 17 19  2  0  0  0  0
 17 20  1  0  0  0  0
 20 21  2  0  0  0  0
 21 22  1  0  0  0  0
 22 23  2  0  0  0  0
 22 38  1  0  0  0  0
 23 39  1  0  0  0  0
M  CHG  1  10   1
M  END
> <s_m_source_file>
AV-unprocessed.smi

> <i_m_source_file_index>
2164

> <i_lp_mmshare_version>
43012

> <i_f3d_flags>
0

> <s_epik_input>
W0NIMl0xW0NIMl1TKD1PKSg9TylOPUMoTjEyKVtDSF09W0NIXUMoPVtDSF0yKUMoPU8pW05IXVtDSDJdW0NIMl1jM1tjSF1bY0hdW2NIXW5bY0hdMw==

> <s_epik_cmdline>
J2VwaWtfcHl0aG9uJywgJy1waCcsICc3LjAnLCAnLXRuJywgJzgnLCAnLW1hJywgJzIwMCcsICctbWV0YWxfYmluZGluZycsICctaW1hZScsICc8aW5maWxlLm1hZT4nLCAnLW9tYWUnLCAnPG91dGZpbGUubWFlPic=

> <r_epik_Ionization_Penalty>
2.45963

> <r_epik_Ionization_Penalty_Charging>
2.45946

> <r_epik_Ionization_Penalty_Neutral>
0.000170278

> <r_epik_State_Penalty>
2.62155

> <r_epik_Charging_Adjusted_Penalty>
5.08101

> <i_epik_Tot_Q>
1

> <i_epik_Tot_abs_Q>
1

> <r_epik_Metal_State_Penalty>
2.85721

> <b_epik_Metal_Only>
0

> <s_lp_Force_Field>
OPLS_2005

> <r_lp_Energy>
29.3092

> <b_lp_Chiralities_Consistent>
1

> <s_lp_Variant>
AV-unprocessed.smi:2164-2

> <Gold.Version>
5.8.1

> <Gold.Id.Protein>
6NUR|6NUR_protein|mol2

> <Gold.PLP.Fitness>
45.2522

> <Gold.PLP.PLP>
-36.8577

> <Gold.PLP.part.hbond>
-5.2623

> <Gold.PLP.part.metal>
0.0000

> <Gold.PLP.part.buried>
-5.3128

> <Gold.PLP.part.nonpolar>
-26.3482

> <Gold.PLP.part.repulsive>
0.1291

> <Gold.PLP.ligand.clash>
0.0000

> <Gold.PLP.ligand.torsion>
1.5482

> <Gold.PLP.Chemscore.Hbond>
3.8240

> <Gold.PLP.Chemscore.CHOScore>
0.0000

> <Gold.PLP.Chemscore.Metal>
0.0000

> <Gold.Chemscore.Hbonds>
donor molecule, donor type, donor heavy atom, donor atom, acceptor molecule, acceptor atom, score
      L1  H     3    24       P1  7948  1.00
      L1  H    10    40       P1 10747  1.00
      P1  H  7997  8009       L1    19  0.05

> <Gold.PLP.Chemscore.Internal.Correction>
0.0190

> <Gold.Rescore>
     Score         DG    S(hbond)    S(metal)    S(lipo)     H(rot)  DE(clash)    DE(int)     intcor
     17.95     -19.68       2.73        0.00      76.99       1.54       0.02       1.71       ----

> <Gold.Chemscore.Fitness>
17.9451

> <Gold.Chemscore.DG>
-19.6759

> <Gold.Chemscore.ZeroCoef>
-5.4800

> <Gold.Chemscore.Hbond>
2.7303

> <Gold.Chemscore.Metal>
0.0000

> <Gold.Chemscore.Lipo>
76.9890

> <Gold.Chemscore.Internal_Hbond>
0.0000

> <Gold.Chemscore.DEClash>
0.0170

> <Gold.Chemscore.DEInternal>
1.7139

> <Gold.Chemscore.Rot>
1.5355

> <Gold.Chemscore.Internal.Correction>
   9.000000E+99

> <Gold.Chemscore.Hbonds>
donor molecule, donor type, donor heavy atom, donor atom, acceptor molecule, acceptor atom, score
      L1  H     3    24       P1  7948  1.00
      L1  H    10    40       P1 10747  1.00
      P1  H  7997  8009       L1    19  0.07

> <Gold.Chemscore.Hbond.Weighted>
-9.1191

> <Gold.Chemscore.Metal.Weighted>
-0.0000

> <Gold.Chemscore.Lipo.Weighted>
-9.0077

> <Gold.Chemscore.Internal_Hbond.Weighted>
0.0000

> <Gold.Chemscore.DEClash.Weighted>
0.0170

> <Gold.Chemscore.DEInternal.Weighted>
1.7139

> <Gold.Chemscore.Rot.Weighted>
3.9309

> <Gold.Chemscore.Internal.Correction.Weighted>
   9.000000E+99

> <Gold.Protein.RotatedTorsions>
[ 6907 6896 6895 6894 ] final  109.28 input  -60.11 | X-H torsion
[ 7974 7965 7964 7962 ] final  130.50 input  175.53 | X-H torsion
[ 8008 7997 7996 7995 ] final  150.34 input   59.86 | X-H torsion
[ 10167 10162 10161 10158 ] final -125.95 input  -65.29 | X-H torsion
[ 10718 10713 10712 10709 ] final -168.79 input   66.30 | X-H torsion
[ 10763 10752 10751 10750 ] final  -13.83 input  -60.55 | X-H torsion
[ 11005 11000 10999 10996 ] final -134.31 input  -57.11 | X-H torsion

> <Gold.Protein.ActiveResidues>
 VAL166  LYS551  ARG553  GLY616  TRP617  ASP618  TYR619  PRO620  LYS621  CYS622 
 ASP623  PHE694  ASN695  SER759  ASP760  ASP761  ALA762  ILE779  LEU786  VAL792 
 PHE793  MET794  SER795  GLU796  ALA797  LYS798  CYS799  TRP800  GLU811  SER814 

> <Gold.Protein.RotatedAtoms>
  152.5074  133.8967  159.7420 H   0  0  0  0  0  0  0  0  0  0  0  0  # atno 6907 bound_to 6896
  150.9393  133.6666  159.2801 H   0  0  0  0  0  0  0  0  0  0  0  0  # atno 6908 bound_to 6896
  151.3984  135.0972  159.9600 H   0  0  0  0  0  0  0  0  0  0  0  0  # atno 6909 bound_to 6896
  145.0172  139.4165  143.5215 H   0  0  0  0  0  0  0  0  0  0  0  0  # atno 7974 bound_to 7965
  156.2719  140.2077  156.6002 H   0  0  0  0  0  0  0  0  0  0  0  0  # atno 8008 bound_to 7997
  154.6913  140.0530  157.0389 H   0  0  0  0  0  0  0  0  0  0  0  0  # atno 8009 bound_to 7997
  155.0863  140.3192  155.4589 H   0  0  0  0  0  0  0  0  0  0  0  0  # atno 8010 bound_to 7997
  139.9766  143.5787  152.2393 H   0  0  0  0  0  0  0  0  0  0  0  0  # atno 10167 bound_to 10162
  156.7021  130.9200  151.3081 H   0  0  0  0  0  0  0  0  0  0  0  0  # atno 10718 bound_to 10713
  153.5192  135.7016  153.5740 H   0  0  0  0  0  0  0  0  0  0  0  0  # atno 10763 bound_to 10752
  153.3796  135.3923  155.1847 H   0  0  0  0  0  0  0  0  0  0  0  0  # atno 10764 bound_to 10752
  154.8696  135.3832  154.4679 H   0  0  0  0  0  0  0  0  0  0  0  0  # atno 10765 bound_to 10752
  140.9001  134.1701  157.4466 H   0  0  0  0  0  0  0  0  0  0  0  0  # atno 11005 bound_to 11000
  146.3480  139.9650  142.8713 LP  0  0  0  0  0  0  0  0  0  0  0  0  # atno 17320 bound_to 7965
  145.1943  140.9826  143.4192 LP  0  0  0  0  0  0  0  0  0  0  0  0  # atno 17321 bound_to 7965
  139.6441  144.7657  151.2280 LP  0  0  0  0  0  0  0  0  0  0  0  0  # atno 17342 bound_to 10162
  140.7503  143.6268  150.8460 LP  0  0  0  0  0  0  0  0  0  0  0  0  # atno 17343 bound_to 10162
  157.6969  130.9291  150.0670 LP  0  0  0  0  0  0  0  0  0  0  0  0  # atno 17370 bound_to 10713
  156.1721  130.3647  149.9150 LP  0  0  0  0  0  0  0  0  0  0  0  0  # atno 17371 bound_to 10713
  139.8741  134.9894  156.5458 LP  0  0  0  0  0  0  0  0  0  0  0  0  # atno 17394 bound_to 11000
  140.8240  133.8331  155.8922 LP  0  0  0  0  0  0  0  0  0  0  0  0  # atno 17395 bound_to 11000

$$$$
