AV-unprocessed.smi:1205|AV-procd|sdf|5040|dock2
  -GOLD-   22720 4 63D 1   1.00000     0.00000
 Structure written by MMmdl.
 49 50  0  0  0  0  0  0  0  0  2 V2000
  150.5178  142.1162  156.0627 C   0  0  0  0  0  0  0  0  0  0  0  0
  150.2318  140.8439  155.3207 C   0  0  0  0  0  0  0  0  0  0  0  0
  148.9874  140.3998  154.7863 C   0  0  0  0  0  0  0  0  0  0  0  0
  149.3127  139.1935  154.2288 C   0  0  0  0  0  0  0  0  0  0  0  0
  148.5115  138.3088  153.5778 N   0  0  0  0  0  0  0  0  0  0  0  0
  147.1827  138.3660  153.3816 C   0  0  0  0  0  0  0  0  0  0  0  0
  146.4382  139.2651  153.7735 O   0  0  0  0  0  0  0  0  0  0  0  0
  146.7495  137.3067  152.6833 N   0  0  0  0  0  0  0  0  0  0  0  0
  145.3613  137.0736  152.2976 C   0  0  0  0  0  0  0  0  0  0  0  0
  144.8100  135.7318  152.8452 C   0  0  1  0  0  0  0  0  0  0  0  0
  143.2781  135.7432  153.0098 C   0  0  0  0  0  0  0  0  0  0  0  0
  145.2454  134.5481  152.0475 N   0  3  1  0  0  0  0  0  0  0  0  0
  145.7126  133.3795  152.8422 C   0  0  0  0  0  0  0  0  0  0  0  0
  146.3586  132.3261  151.9289 C   0  0  0  0  0  0  0  0  0  0  0  0
  145.3837  131.8846  150.8292 C   0  0  0  0  0  0  0  0  0  0  0  0
  144.8780  133.1049  150.0402 C   0  0  1  0  0  0  0  0  0  0  0  0
  143.8804  132.6929  148.9486 C   0  0  0  0  0  0  0  0  0  0  0  0
  144.2681  134.1467  151.0001 C   0  0  0  0  0  0  0  0  0  0  0  0
  150.6545  138.9571  154.4304 N   0  0  0  0  0  0  0  0  0  0  0  0
  151.4608  137.8191  154.0337 C   0  0  0  0  0  0  0  0  0  0  0  0
  151.2188  139.9812  155.1060 N   0  0  0  0  0  0  0  0  0  0  0  0
  149.6218  142.7315  156.1500 H   0  0  0  0  0  0  0  0  0  0  0  0
  151.2771  142.7076  155.5511 H   0  0  0  0  0  0  0  0  0  0  0  0
  150.8776  141.9099  157.0710 H   0  0  0  0  0  0  0  0  0  0  0  0
  148.0299  140.8971  154.8210 H   0  0  0  0  0  0  0  0  0  0  0  0
  148.9869  137.5117  153.1809 H   0  0  0  0  0  0  0  0  0  0  0  0
  147.4258  136.6119  152.4014 H   0  0  0  0  0  0  0  0  0  0  0  0
  144.7810  137.9112  152.6840 H   0  0  0  0  0  0  0  0  0  0  0  0
  145.2806  137.1174  151.2107 H   0  0  0  0  0  0  0  0  0  0  0  0
  145.2101  135.5893  153.8501 H   0  0  0  0  0  0  0  0  0  0  0  0
  142.9638  136.4940  153.7351 H   0  0  0  0  0  0  0  0  0  0  0  0
  142.9152  134.7796  153.3689 H   0  0  0  0  0  0  0  0  0  0  0  0
  142.7677  135.9649  152.0729 H   0  0  0  0  0  0  0  0  0  0  0  0
  146.4390  133.6925  153.5915 H   0  0  0  0  0  0  0  0  0  0  0  0
  144.8750  132.9303  153.3773 H   0  0  0  0  0  0  0  0  0  0  0  0
  147.2627  132.7359  151.4766 H   0  0  0  0  0  0  0  0  0  0  0  0
  146.6703  131.4632  152.5179 H   0  0  0  0  0  0  0  0  0  0  0  0
  145.8749  131.1770  150.1601 H   0  0  0  0  0  0  0  0  0  0  0  0
  144.5413  131.3562  151.2779 H   0  0  0  0  0  0  0  0  0  0  0  0
  145.7343  133.5647  149.5442 H   0  0  0  0  0  0  0  0  0  0  0  0
  142.9972  132.2179  149.3767 H   0  0  0  0  0  0  0  0  0  0  0  0
  144.3324  131.9878  148.2504 H   0  0  0  0  0  0  0  0  0  0  0  0
  143.5478  133.5575  148.3734 H   0  0  0  0  0  0  0  0  0  0  0  0
  143.3683  133.7443  151.4674 H   0  0  0  0  0  0  0  0  0  0  0  0
  143.9622  135.0235  150.4277 H   0  0  0  0  0  0  0  0  0  0  0  0
  151.2612  137.5706  152.9911 H   0  0  0  0  0  0  0  0  0  0  0  0
  151.2145  136.9610  154.6597 H   0  0  0  0  0  0  0  0  0  0  0  0
  152.5224  138.0452  154.1432 H   0  0  0  0  0  0  0  0  0  0  0  0
  146.0544  134.8688  151.5346 H   0  0  0  0  0  0  0  0  0  0  0  0
  1  2  1  0  0  0  0
  1 22  1  0  0  0  0
  1 23  1  0  0  0  0
  1 24  1  0  0  0  0
  2 21  2  0  0  0  0
  2  3  1  0  0  0  0
  3  4  2  0  0  0  0
  3 25  1  0  0  0  0
  4  5  1  0  0  0  0
  4 19  1  0  0  0  0
  5  6  1  0  0  0  0
  5 26  1  0  0  0  0
  6  7  2  0  0  0  0
  6  8  1  0  0  0  0
  8  9  1  0  0  0  0
  8 27  1  0  0  0  0
  9 10  1  0  0  0  0
  9 28  1  0  0  0  0
  9 29  1  0  0  0  0
 10 11  1  0  0  0  0
 10 12  1  0  0  0  0
 10 30  1  0  0  0  0
 11 31  1  0  0  0  0
 11 32  1  0  0  0  0
 11 33  1  0  0  0  0
 12 18  1  0  0  0  0
 12 13  1  0  0  0  0
 12 49  1  0  0  0  0
 13 14  1  0  0  0  0
 13 34  1  0  0  0  0
 13 35  1  0  0  0  0
 14 15  1  0  0  0  0
 14 36  1  0  0  0  0
 14 37  1  0  0  0  0
 15 16  1  0  0  0  0
 15 38  1  0  0  0  0
 15 39  1  0  0  0  0
 16 17  1  0  0  0  0
 16 18  1  0  0  0  0
 16 40  1  0  0  0  0
 17 41  1  0  0  0  0
 17 42  1  0  0  0  0
 17 43  1  0  0  0  0
 18 44  1  0  0  0  0
 18 45  1  0  0  0  0
 19 20  1  0  0  0  0
 19 21  1  0  0  0  0
 20 46  1  0  0  0  0
 20 47  1  0  0  0  0
 20 48  1  0  0  0  0
M  CHG  1  12   1
M  END
> <s_m_source_file>
AV-unprocessed.smi

> <i_m_source_file_index>
1205

> <i_lp_mmshare_version>
43012

> <i_f3d_flags>
0

> <s_epik_input>
W0NIM11jMVtjSF1jKG4objEpW0NIM10pW05IXUMoPU8pW05IXVtDSDJdW0NASF0oW0NIM10pTjJbQ0gyXVtDSDJdW0NIMl1bQ0BASF0oW0NIM10pW0NIMl0y

> <s_epik_cmdline>
J2VwaWtfcHl0aG9uJywgJy1waCcsICc3LjAnLCAnLXRuJywgJzgnLCAnLW1hJywgJzIwMCcsICctbWV0YWxfYmluZGluZycsICctaW1hZScsICc8aW5maWxlLm1hZT4nLCAnLW9tYWUnLCAnPG91dGZpbGUubWFlPic=

> <r_lp_tautomer_probability>
1

> <r_epik_Ionization_Penalty>
0.0020309

> <r_epik_Ionization_Penalty_Charging>
0.00195276

> <r_epik_Ionization_Penalty_Neutral>
7.81448e-05

> <r_epik_State_Penalty>
0.00133177

> <r_epik_Charging_Adjusted_Penalty>
0.00328452

> <i_epik_Tot_Q>
1

> <i_epik_Tot_abs_Q>
1

> <r_epik_Metal_State_Penalty>
-0

> <b_epik_Metal_Only>
0

> <s_lp_Force_Field>
OPLS_2005

> <r_lp_Energy>
21.6269

> <b_lp_Chiralities_Consistent>
1

> <s_lp_Variant>
AV-unprocessed.smi:1205-2

> <Gold.Version>
5.8.1

> <Gold.Id.Protein>
6NUR|6NUR_protein|mol2

> <Gold.PLP.Fitness>
42.1085

> <Gold.PLP.PLP>
-37.7173

> <Gold.PLP.part.hbond>
-3.4761

> <Gold.PLP.part.metal>
0.0000

> <Gold.PLP.part.buried>
-3.1456

> <Gold.PLP.part.nonpolar>
-31.6993

> <Gold.PLP.part.repulsive>
0.2761

> <Gold.PLP.ligand.clash>
0.0000

> <Gold.PLP.ligand.torsion>
1.1991

> <Gold.PLP.Chemscore.Hbond>
2.2200

> <Gold.PLP.Chemscore.CHOScore>
0.0000

> <Gold.PLP.Chemscore.Metal>
0.0000

> <Gold.Chemscore.Hbonds>
donor molecule, donor type, donor heavy atom, donor atom, acceptor molecule, acceptor atom, score
      L1  H     5    26       P1  7948  0.93
      L1  H     8    27       P1  7948  0.99
      P1  H  7989  7998       L1    21  0.30

> <Gold.PLP.Chemscore.Internal.Correction>
0.1293

> <Gold.Rescore>
     Score         DG    S(hbond)    S(metal)    S(lipo)     H(rot)  DE(clash)    DE(int)     intcor
     16.19     -18.61       1.90        0.00      90.15       1.47       0.08       2.33       ----

> <Gold.Chemscore.Fitness>
16.1903

> <Gold.Chemscore.DG>
-18.6069

> <Gold.Chemscore.ZeroCoef>
-5.4800

> <Gold.Chemscore.Hbond>
1.8958

> <Gold.Chemscore.Metal>
0.0000

> <Gold.Chemscore.Lipo>
90.1482

> <Gold.Chemscore.Internal_Hbond>
0.0000

> <Gold.Chemscore.DEClash>
0.0846

> <Gold.Chemscore.DEInternal>
2.3320

> <Gold.Chemscore.Rot>
1.4658

> <Gold.Chemscore.Internal.Correction>
   9.000000E+99

> <Gold.Chemscore.Hbonds>
donor molecule, donor type, donor heavy atom, donor atom, acceptor molecule, acceptor atom, score
      L1  H     5    26       P1  7948  0.90
      L1  H     8    27       P1  7948  0.94

> <Gold.Chemscore.Hbond.Weighted>
-6.3321

> <Gold.Chemscore.Metal.Weighted>
-0.0000

> <Gold.Chemscore.Lipo.Weighted>
-10.5473

> <Gold.Chemscore.Internal_Hbond.Weighted>
0.0000

> <Gold.Chemscore.DEClash.Weighted>
0.0846

> <Gold.Chemscore.DEInternal.Weighted>
2.3320

> <Gold.Chemscore.Rot.Weighted>
3.7526

> <Gold.Chemscore.Internal.Correction.Weighted>
   9.000000E+99

> <Gold.Protein.RotatedTorsions>
[ 6907 6896 6895 6894 ] final -100.28 input  -60.11 | X-H torsion
[ 7974 7965 7964 7962 ] final -143.82 input  175.53 | X-H torsion
[ 8008 7997 7996 7995 ] final  -20.25 input   59.86 | X-H torsion
[ 10167 10162 10161 10158 ] final  163.87 input  -65.29 | X-H torsion
[ 10718 10713 10712 10709 ] final -179.35 input   66.30 | X-H torsion
[ 10763 10752 10751 10750 ] final -139.66 input  -60.55 | X-H torsion
[ 11005 11000 10999 10996 ] final  150.81 input  -57.11 | X-H torsion

> <Gold.Protein.ActiveResidues>
 VAL166  LYS551  ARG553  GLY616  TRP617  ASP618  TYR619  PRO620  LYS621  CYS622 
 ASP623  PHE694  ASN695  SER759  ASP760  ASP761  ALA762  ILE779  LEU786  VAL792 
 PHE793  MET794  SER795  GLU796  ALA797  LYS798  CYS799  TRP800  GLU811  SER814 

> <Gold.Protein.RotatedAtoms>
  150.7110  134.0911  159.3931 H   0  0  0  0  0  0  0  0  0  0  0  0  # atno 6907 bound_to 6896
  151.8896  135.0419  160.0506 H   0  0  0  0  0  0  0  0  0  0  0  0  # atno 6908 bound_to 6896
  152.2502  133.5173  159.5357 H   0  0  0  0  0  0  0  0  0  0  0  0  # atno 6909 bound_to 6896
  144.8342  140.5787  143.5495 H   0  0  0  0  0  0  0  0  0  0  0  0  # atno 7974 bound_to 7965
  154.4782  140.2067  155.9827 H   0  0  0  0  0  0  0  0  0  0  0  0  # atno 8008 bound_to 7997
  156.1123  140.3227  155.8060 H   0  0  0  0  0  0  0  0  0  0  0  0  # atno 8009 bound_to 7997
  155.4613  140.0524  157.2981 H   0  0  0  0  0  0  0  0  0  0  0  0  # atno 8010 bound_to 7997
  139.4880  144.4293  151.9090 H   0  0  0  0  0  0  0  0  0  0  0  0  # atno 10167 bound_to 10162
  156.8578  130.9741  151.3086 H   0  0  0  0  0  0  0  0  0  0  0  0  # atno 10718 bound_to 10713
  154.8602  135.3576  154.5582 H   0  0  0  0  0  0  0  0  0  0  0  0  # atno 10763 bound_to 10752
  153.6198  135.7006  153.5319 H   0  0  0  0  0  0  0  0  0  0  0  0  # atno 10764 bound_to 10752
  153.3138  135.4171  155.1319 H   0  0  0  0  0  0  0  0  0  0  0  0  # atno 10765 bound_to 10752
  140.1163  134.8892  157.2009 H   0  0  0  0  0  0  0  0  0  0  0  0  # atno 11005 bound_to 11000
  145.4831  139.1494  143.3751 LP  0  0  0  0  0  0  0  0  0  0  0  0  # atno 17320 bound_to 7965
  146.2642  140.4967  142.8841 LP  0  0  0  0  0  0  0  0  0  0  0  0  # atno 17321 bound_to 7965
  140.3740  144.2819  150.5916 LP  0  0  0  0  0  0  0  0  0  0  0  0  # atno 17342 bound_to 10162
  140.5293  143.2247  151.8264 LP  0  0  0  0  0  0  0  0  0  0  0  0  # atno 17343 bound_to 10162
  157.6267  130.8697  149.9202 LP  0  0  0  0  0  0  0  0  0  0  0  0  # atno 17370 bound_to 10713
  156.0793  130.3675  150.0613 LP  0  0  0  0  0  0  0  0  0  0  0  0  # atno 17371 bound_to 10713
  140.3023  134.3117  155.7286 LP  0  0  0  0  0  0  0  0  0  0  0  0  # atno 17394 bound_to 11000
  141.2142  133.7600  156.9659 LP  0  0  0  0  0  0  0  0  0  0  0  0  # atno 17395 bound_to 11000

$$$$
