AV-unprocessed.smi:1131|AV-procd|sdf|4852|dock6
  -GOLD-   22720 3423D 1   1.00000     0.00000
 Structure written by MMmdl.
 32 33  0  0  0  0  0  0  0  0  2 V2000
  153.9617  139.9177  158.9267 O   0  0  0  0  0  0  0  0  0  0  0  0
  152.7375  140.0282  159.0038 C   0  0  0  0  0  0  0  0  0  0  0  0
  151.8201  139.0517  158.2579 C   0  0  0  0  0  0  0  0  0  0  0  0
  151.1256  139.6891  157.1284 N   0  0  0  0  0  0  0  0  0  0  0  0
  149.9351  140.3867  157.3983 C   0  0  0  0  0  0  0  0  0  0  0  0
  149.2339  140.9980  156.4246 C   0  0  0  0  0  0  0  0  0  0  0  0
  149.7387  140.9232  155.0591 C   0  0  0  0  0  0  0  0  0  0  0  0
  149.1136  141.4787  154.1580 O   0  0  0  0  0  0  0  0  0  0  0  0
  150.8962  140.2309  154.8474 N   0  5  0  0  0  0  0  0  0  0  0  0
  151.5980  139.6127  155.8472 C   0  0  0  0  0  0  0  0  0  0  0  0
  152.6401  138.9915  155.6338 O   0  0  0  0  0  0  0  0  0  0  0  0
  152.1271  140.9706  159.7371 N   0  0  0  0  0  0  0  0  0  0  0  0
  152.8036  142.0257  160.4823 C   0  0  0  0  0  0  0  0  0  0  0  0
  152.6010  143.4094  159.8341 C   0  0  2  0  0  0  0  0  0  0  0  0
  152.2869  144.5127  160.8231 C   0  0  0  0  0  0  0  0  0  0  0  0
  151.6862  145.5752  159.9113 C   0  0  0  0  0  0  0  0  0  0  0  0
  150.9394  144.8477  158.9435 O   0  0  0  0  0  0  0  0  0  0  0  0
  151.4126  143.5042  158.8708 C   0  0  0  0  0  0  0  0  0  0  0  0
  152.4259  138.2124  157.9144 H   0  0  0  0  0  0  0  0  0  0  0  0
  151.0911  138.6176  158.9452 H   0  0  0  0  0  0  0  0  0  0  0  0
  149.6272  140.3891  158.4336 H   0  0  0  0  0  0  0  0  0  0  0  0
  148.3197  141.5279  156.6482 H   0  0  0  0  0  0  0  0  0  0  0  0
  151.1174  140.9816  159.7443 H   0  0  0  0  0  0  0  0  0  0  0  0
  152.4063  142.0256  161.4977 H   0  0  0  0  0  0  0  0  0  0  0  0
  153.8673  141.7979  160.5666 H   0  0  0  0  0  0  0  0  0  0  0  0
  153.5048  143.6929  159.2916 H   0  0  0  0  0  0  0  0  0  0  0  0
  151.5437  144.1792  161.5489 H   0  0  0  0  0  0  0  0  0  0  0  0
  153.1645  144.8651  161.3660 H   0  0  0  0  0  0  0  0  0  0  0  0
  151.0604  146.2877  160.4488 H   0  0  0  0  0  0  0  0  0  0  0  0
  152.4753  146.1300  159.4021 H   0  0  0  0  0  0  0  0  0  0  0  0
  151.6941  143.2404  157.8506 H   0  0  0  0  0  0  0  0  0  0  0  0
  150.6035  142.8404  159.1775 H   0  0  0  0  0  0  0  0  0  0  0  0
  1  2  2  0  0  0  0
  2  3  1  0  0  0  0
  2 12  1  0  0  0  0
  3  4  1  0  0  0  0
  3 19  1  0  0  0  0
  3 20  1  0  0  0  0
  4 10  1  0  0  0  0
  4  5  1  0  0  0  0
  5  6  2  0  0  0  0
  5 21  1  0  0  0  0
  6  7  1  0  0  0  0
  6 22  1  0  0  0  0
  7  8  2  0  0  0  0
  7  9  1  0  0  0  0
  9 10  1  0  0  0  0
 10 11  2  0  0  0  0
 12 13  1  0  0  0  0
 12 23  1  0  0  0  0
 13 14  1  0  0  0  0
 13 24  1  0  0  0  0
 13 25  1  0  0  0  0
 14 18  1  0  0  0  0
 14 15  1  0  0  0  0
 14 26  1  0  0  0  0
 15 16  1  0  0  0  0
 15 27  1  0  0  0  0
 15 28  1  0  0  0  0
 16 17  1  0  0  0  0
 16 29  1  0  0  0  0
 16 30  1  0  0  0  0
 17 18  1  0  0  0  0
 18 31  1  0  0  0  0
 18 32  1  0  0  0  0
M  CHG  1   9  -1
M  END
> <s_m_source_file>
AV-unprocessed.smi

> <i_m_source_file_index>
1131

> <i_lp_mmshare_version>
43012

> <i_f3d_flags>
0

> <s_epik_input>
W0NIMl0xT1tDSDJdW0NIMl1bQ0BIXTFbQ0gyXVtOSF1DKD1PKVtDSDJdbjJbY0hdW2NIXWMoPU8pW25IXWMyPU8=

> <s_epik_cmdline>
J2VwaWtfcHl0aG9uJywgJy1waCcsICc3LjAnLCAnLXRuJywgJzgnLCAnLW1hJywgJzIwMCcsICctbWV0YWxfYmluZGluZycsICctaW1hZScsICc8aW5maWxlLm1hZT4nLCAnLW9tYWUnLCAnPG91dGZpbGUubWFlPic=

> <r_lp_tautomer_probability>
0.999537

> <r_epik_Ionization_Penalty>
3.07866

> <r_epik_Ionization_Penalty_Charging>
2.6898e-08

> <r_epik_Ionization_Penalty_Neutral>
3.07866

> <r_epik_State_Penalty>
3.07769

> <r_epik_Charging_Adjusted_Penalty>
3.07769

> <i_epik_Tot_Q>
-1

> <i_epik_Tot_abs_Q>
1

> <r_epik_Metal_State_Penalty>
0.459839

> <b_epik_Metal_Only>
1

> <s_lp_Force_Field>
OPLS_2005

> <r_lp_Energy>
26.4243

> <b_lp_Chiralities_Consistent>
1

> <s_lp_Variant>
AV-unprocessed.smi:1131-3

> <Gold.Version>
5.8.1

> <Gold.Id.Protein>
6NUR|6NUR_protein|mol2

> <Gold.PLP.Fitness>
44.9875

> <Gold.PLP.PLP>
-36.8751

> <Gold.PLP.part.hbond>
-4.9438

> <Gold.PLP.part.metal>
0.0000

> <Gold.PLP.part.buried>
-4.7943

> <Gold.PLP.part.nonpolar>
-27.4845

> <Gold.PLP.part.repulsive>
0.5616

> <Gold.PLP.ligand.clash>
0.0000

> <Gold.PLP.ligand.torsion>
1.1037

> <Gold.PLP.Chemscore.Hbond>
3.4380

> <Gold.PLP.Chemscore.CHOScore>
0.0000

> <Gold.PLP.Chemscore.Metal>
0.0000

> <Gold.Chemscore.Hbonds>
donor molecule, donor type, donor heavy atom, donor atom, acceptor molecule, acceptor atom, score
      P1  H  7989  7998       L1     9  1.00
      P1  H  7997  8009       L1     1  0.67
      P1  H  7997  8010       L1    11  0.55
      P1  H  8011  8017       L1     8  0.45

> <Gold.PLP.Chemscore.Internal.Correction>
0.0059

> <Gold.Rescore>
     Score         DG    S(hbond)    S(metal)    S(lipo)     H(rot)  DE(clash)    DE(int)     intcor
     17.19     -18.25       3.01        0.00      68.04       2.05       0.17       0.89       ----

> <Gold.Chemscore.Fitness>
17.1878

> <Gold.Chemscore.DG>
-18.2498

> <Gold.Chemscore.ZeroCoef>
-5.4800

> <Gold.Chemscore.Hbond>
3.0084

> <Gold.Chemscore.Metal>
0.0000

> <Gold.Chemscore.Lipo>
68.0366

> <Gold.Chemscore.Internal_Hbond>
0.0000

> <Gold.Chemscore.DEClash>
0.1748

> <Gold.Chemscore.DEInternal>
0.8873

> <Gold.Chemscore.Rot>
2.0463

> <Gold.Chemscore.Internal.Correction>
   9.000000E+99

> <Gold.Chemscore.Hbonds>
donor molecule, donor type, donor heavy atom, donor atom, acceptor molecule, acceptor atom, score
      P1  H  7989  7998       L1     9  0.65
      P1  H  7997  8009       L1     1  0.64
      P1  H  7997  8010       L1    11  0.46
      P1  H  8011  8017       L1     8  0.44

> <Gold.Chemscore.Hbond.Weighted>
-10.0481

> <Gold.Chemscore.Metal.Weighted>
-0.0000

> <Gold.Chemscore.Lipo.Weighted>
-7.9603

> <Gold.Chemscore.Internal_Hbond.Weighted>
0.0000

> <Gold.Chemscore.DEClash.Weighted>
0.1748

> <Gold.Chemscore.DEInternal.Weighted>
0.8873

> <Gold.Chemscore.Rot.Weighted>
5.2386

> <Gold.Chemscore.Internal.Correction.Weighted>
   9.000000E+99

> <Gold.Protein.RotatedTorsions>
[ 6907 6896 6895 6894 ] final   77.97 input  -60.11 | X-H torsion
[ 7974 7965 7964 7962 ] final   73.38 input  175.53 | X-H torsion
[ 8008 7997 7996 7995 ] final  108.55 input   59.86 | X-H torsion
[ 10167 10162 10161 10158 ] final  165.42 input  -65.29 | X-H torsion
[ 10718 10713 10712 10709 ] final  103.17 input   66.30 | X-H torsion
[ 10763 10752 10751 10750 ] final -158.66 input  -60.55 | X-H torsion
[ 11005 11000 10999 10996 ] final  156.39 input  -57.11 | X-H torsion

> <Gold.Protein.ActiveResidues>
 VAL166  LYS551  ARG553  GLY616  TRP617  ASP618  TYR619  PRO620  LYS621  CYS622 
 ASP623  PHE694  ASN695  SER759  ASP760  ASP761  ALA762  ILE779  LEU786  VAL792 
 PHE793  MET794  SER795  GLU796  ALA797  LYS798  CYS799  TRP800  GLU811  SER814 

> <Gold.Protein.RotatedAtoms>
  152.5140  134.3735  159.9326 H   0  0  0  0  0  0  0  0  0  0  0  0  # atno 6907 bound_to 6896
  151.3690  133.3855  159.2705 H   0  0  0  0  0  0  0  0  0  0  0  0  # atno 6908 bound_to 6896
  150.9592  134.9002  159.7778 H   0  0  0  0  0  0  0  0  0  0  0  0  # atno 6909 bound_to 6896
  145.7416  139.2723  143.1483 H   0  0  0  0  0  0  0  0  0  0  0  0  # atno 7974 bound_to 7965
  156.1912  140.3074  155.9336 H   0  0  0  0  0  0  0  0  0  0  0  0  # atno 8008 bound_to 7997
  155.3170  140.0454  157.3054 H   0  0  0  0  0  0  0  0  0  0  0  0  # atno 8009 bound_to 7997
  154.5454  140.2275  155.8581 H   0  0  0  0  0  0  0  0  0  0  0  0  # atno 8010 bound_to 7997
  139.4905  144.4134  151.9273 H   0  0  0  0  0  0  0  0  0  0  0  0  # atno 10167 bound_to 10162
  157.6780  131.0772  150.5515 H   0  0  0  0  0  0  0  0  0  0  0  0  # atno 10718 bound_to 10713
  154.7538  135.3099  154.8507 H   0  0  0  0  0  0  0  0  0  0  0  0  # atno 10763 bound_to 10752
  153.9287  135.6787  153.4750 H   0  0  0  0  0  0  0  0  0  0  0  0  # atno 10764 bound_to 10752
  153.1135  135.4855  154.9005 H   0  0  0  0  0  0  0  0  0  0  0  0  # atno 10765 bound_to 10752
  140.1670  134.8570  157.2644 H   0  0  0  0  0  0  0  0  0  0  0  0  # atno 11005 bound_to 11000
  146.0442  140.8134  142.9813 LP  0  0  0  0  0  0  0  0  0  0  0  0  # atno 17320 bound_to 7965
  144.6869  140.2956  143.7271 LP  0  0  0  0  0  0  0  0  0  0  0  0  # atno 17321 bound_to 7965
  140.3576  144.3013  150.5939 LP  0  0  0  0  0  0  0  0  0  0  0  0  # atno 17342 bound_to 10162
  140.5431  143.2220  151.8052 LP  0  0  0  0  0  0  0  0  0  0  0  0  # atno 17343 bound_to 10162
  156.5820  130.4307  149.5973 LP  0  0  0  0  0  0  0  0  0  0  0  0  # atno 17370 bound_to 10713
  156.2654  130.6986  151.1767 LP  0  0  0  0  0  0  0  0  0  0  0  0  # atno 17371 bound_to 10713
  140.2422  134.3782  155.7476 LP  0  0  0  0  0  0  0  0  0  0  0  0  # atno 17394 bound_to 11000
  141.2214  133.7271  156.8806 LP  0  0  0  0  0  0  0  0  0  0  0  0  # atno 17395 bound_to 11000

$$$$
