AV-unprocessed.smi:2032|AV-procd|sdf|8249|dock3
  -GOLD-   2272010523D 1   1.00000     0.00000
 Structure written by MMmdl.
 41 42  0  0  0  0  0  0  0  0  2 V2000
  150.8064  141.7181  156.6103 C   0  0  0  0  0  0  0  0  0  0  0  0
  150.9275  140.2296  156.2667 C   0  0  1  0  0  0  0  0  0  0  0  0
  149.9067  139.3732  157.0374 C   0  0  0  0  0  0  0  0  0  0  0  0
  149.9512  137.9574  156.6609 N   0  0  0  0  0  0  0  0  0  0  0  0
  148.9835  137.1342  157.4246 C   0  0  2  0  0  0  0  0  0  0  0  0
  147.5332  137.6741  157.3305 C   0  0  0  0  0  0  0  0  0  0  0  0
  149.3655  136.9722  158.9258 C   0  0  0  0  0  0  0  0  0  0  0  0
  148.7076  135.8447  159.5827 N   0  0  0  0  0  0  0  0  0  0  0  0
  147.8761  135.9202  160.6316 C   0  0  0  0  0  0  0  0  0  0  0  0
  147.5979  137.0183  161.1190 O   0  0  0  0  0  0  0  0  0  0  0  0
  147.4234  134.7174  161.0531 N   0  5  0  0  0  0  0  0  0  0  0  0
  146.2082  134.6149  161.6154 C   0  0  0  0  0  0  0  0  0  0  0  0
  145.4273  135.6728  161.8635 N   0  0  0  0  0  0  0  0  0  0  0  0
  144.2022  135.3351  162.4411 C   0  0  0  0  0  0  0  0  0  0  0  0
  144.0423  133.9877  162.6288 C   0  0  0  0  0  0  0  0  0  0  0  0
  145.4352  133.0975  162.0840 S   0  0  0  0  0  0  0  0  0  0  0  0
  149.7486  137.8719  155.2100 C   0  0  0  0  0  0  0  0  0  0  0  0
  150.7326  138.7376  154.3982 C   0  0  2  0  0  0  0  0  0  0  0  0
  152.1596  138.1633  154.3600 C   0  0  0  0  0  0  0  0  0  0  0  0
  150.7133  140.0838  154.8670 O   0  0  0  0  0  0  0  0  0  0  0  0
  150.9747  141.8913  157.6736 H   0  0  0  0  0  0  0  0  0  0  0  0
  149.8166  142.1016  156.3609 H   0  0  0  0  0  0  0  0  0  0  0  0
  151.5400  142.3061  156.0584 H   0  0  0  0  0  0  0  0  0  0  0  0
  151.9373  139.9035  156.5165 H   0  0  0  0  0  0  0  0  0  0  0  0
  150.1277  139.4962  158.0958 H   0  0  0  0  0  0  0  0  0  0  0  0
  148.9012  139.7655  156.8763 H   0  0  0  0  0  0  0  0  0  0  0  0
  148.9774  136.1358  156.9848 H   0  0  0  0  0  0  0  0  0  0  0  0
  146.8338  137.1013  157.9384 H   0  0  0  0  0  0  0  0  0  0  0  0
  147.1350  137.6165  156.3186 H   0  0  0  0  0  0  0  0  0  0  0  0
  147.4772  138.7123  157.6589 H   0  0  0  0  0  0  0  0  0  0  0  0
  150.4360  136.8262  159.0623 H   0  0  0  0  0  0  0  0  0  0  0  0
  149.1055  137.8782  159.4737 H   0  0  0  0  0  0  0  0  0  0  0  0
  148.9041  134.9259  159.2141 H   0  0  0  0  0  0  0  0  0  0  0  0
  143.5012  136.1198  162.6845 H   0  0  0  0  0  0  0  0  0  0  0  0
  143.1955  133.4669  163.0498 H   0  0  0  0  0  0  0  0  0  0  0  0
  149.8603  136.8487  154.8585 H   0  0  0  0  0  0  0  0  0  0  0  0
  148.7280  138.1746  154.9698 H   0  0  0  0  0  0  0  0  0  0  0  0
  150.3772  138.7694  153.3682 H   0  0  0  0  0  0  0  0  0  0  0  0
  152.1687  137.1814  153.8862 H   0  0  0  0  0  0  0  0  0  0  0  0
  152.5820  138.0447  155.3576 H   0  0  0  0  0  0  0  0  0  0  0  0
  152.8250  138.8118  153.7897 H   0  0  0  0  0  0  0  0  0  0  0  0
  1  2  1  0  0  0  0
  1 21  1  0  0  0  0
  1 22  1  0  0  0  0
  1 23  1  0  0  0  0
  2 20  1  0  0  0  0
  2  3  1  0  0  0  0
  2 24  1  0  0  0  0
  3  4  1  0  0  0  0
  3 25  1  0  0  0  0
  3 26  1  0  0  0  0
  4  5  1  0  0  0  0
  4 17  1  0  0  0  0
  5  6  1  0  0  0  0
  5  7  1  0  0  0  0
  5 27  1  0  0  0  0
  6 28  1  0  0  0  0
  6 29  1  0  0  0  0
  6 30  1  0  0  0  0
  7  8  1  0  0  0  0
  7 31  1  0  0  0  0
  7 32  1  0  0  0  0
  8  9  1  0  0  0  0
  8 33  1  0  0  0  0
  9 10  2  0  0  0  0
  9 11  1  0  0  0  0
 11 12  1  0  0  0  0
 12 16  1  0  0  0  0
 12 13  2  0  0  0  0
 13 14  1  0  0  0  0
 14 15  2  0  0  0  0
 14 34  1  0  0  0  0
 15 16  1  0  0  0  0
 15 35  1  0  0  0  0
 17 18  1  0  0  0  0
 17 36  1  0  0  0  0
 17 37  1  0  0  0  0
 18 19  1  0  0  0  0
 18 20  1  0  0  0  0
 18 38  1  0  0  0  0
 19 39  1  0  0  0  0
 19 40  1  0  0  0  0
 19 41  1  0  0  0  0
M  CHG  1  11  -1
M  END
> <s_m_source_file>
AV-unprocessed.smi

> <i_m_source_file_index>
2032

> <i_lp_mmshare_version>
43012

> <i_f3d_flags>
0

> <s_epik_input>
W0NIM11bQ0BASF0xW0NIMl1OKFtDSDJdW0NASF0oTzEpW0NIM10pW0NASF0oW0NIM10pW0NIMl1bTkhdQyg9TylbTkhdYzJuW2NIXVtjSF1zMg==

> <s_epik_cmdline>
J2VwaWtfcHl0aG9uJywgJy1waCcsICc3LjAnLCAnLXRuJywgJzgnLCAnLW1hJywgJzIwMCcsICctbWV0YWxfYmluZGluZycsICctaW1hZScsICc8aW5maWxlLm1hZT4nLCAnLW9tYWUnLCAnPG91dGZpbGUubWFlPic=

> <r_lp_tautomer_probability>
0.999

> <r_epik_Ionization_Penalty>
7.22375

> <r_epik_Ionization_Penalty_Charging>
5.82415

> <r_epik_Ionization_Penalty_Neutral>
1.39959

> <r_epik_State_Penalty>
6.03347

> <r_epik_Charging_Adjusted_Penalty>
11.8576

> <i_epik_Tot_Q>
-1

> <i_epik_Tot_abs_Q>
1

> <r_epik_Metal_State_Penalty>
2.01024

> <b_epik_Metal_Only>
1

> <s_lp_Force_Field>
OPLS_2005

> <r_lp_Energy>
25.9518

> <b_lp_Chiralities_Consistent>
1

> <s_lp_Variant>
AV-unprocessed.smi:2032-19

> <Gold.Version>
5.8.1

> <Gold.Id.Protein>
6NUR|6NUR_protein|mol2

> <Gold.PLP.Fitness>
40.9920

> <Gold.PLP.PLP>
-33.3614

> <Gold.PLP.part.hbond>
-3.0000

> <Gold.PLP.part.metal>
0.0000

> <Gold.PLP.part.buried>
-6.1529

> <Gold.PLP.part.nonpolar>
-25.0172

> <Gold.PLP.part.repulsive>
0.2392

> <Gold.PLP.ligand.clash>
0.0000

> <Gold.PLP.ligand.torsion>
0.4111

> <Gold.PLP.Chemscore.Hbond>
2.7920

> <Gold.PLP.Chemscore.CHOScore>
0.0000

> <Gold.PLP.Chemscore.Metal>
0.0000

> <Gold.Chemscore.Hbonds>
donor molecule, donor type, donor heavy atom, donor atom, acceptor molecule, acceptor atom, score
      P1  H  6931  6943       L1    10  0.94
      P1  H  6934  6947       L1    10  0.89
      P1  H  7989  7998       L1    20  0.95

> <Gold.PLP.Chemscore.Internal.Correction>
0.0767

> <Gold.Rescore>
     Score         DG    S(hbond)    S(metal)    S(lipo)     H(rot)  DE(clash)    DE(int)     intcor
     15.53     -17.57       2.57        0.00      63.63       1.54       0.05       2.00       ----

> <Gold.Chemscore.Fitness>
15.5306

> <Gold.Chemscore.DG>
-17.5750

> <Gold.Chemscore.ZeroCoef>
-5.4800

> <Gold.Chemscore.Hbond>
2.5749

> <Gold.Chemscore.Metal>
0.0000

> <Gold.Chemscore.Lipo>
63.6343

> <Gold.Chemscore.Internal_Hbond>
0.0000

> <Gold.Chemscore.DEClash>
0.0458

> <Gold.Chemscore.DEInternal>
1.9986

> <Gold.Chemscore.Rot>
1.5431

> <Gold.Chemscore.Internal.Correction>
   9.000000E+99

> <Gold.Chemscore.Hbonds>
donor molecule, donor type, donor heavy atom, donor atom, acceptor molecule, acceptor atom, score
      P1  H  6931  6943       L1    10  0.84
      P1  H  6934  6947       L1    10  0.82
      P1  H  7989  7998       L1    20  0.22

> <Gold.Chemscore.Hbond.Weighted>
-8.6001

> <Gold.Chemscore.Metal.Weighted>
-0.0000

> <Gold.Chemscore.Lipo.Weighted>
-7.4452

> <Gold.Chemscore.Internal_Hbond.Weighted>
0.0000

> <Gold.Chemscore.DEClash.Weighted>
0.0458

> <Gold.Chemscore.DEInternal.Weighted>
1.9986

> <Gold.Chemscore.Rot.Weighted>
3.9503

> <Gold.Chemscore.Internal.Correction.Weighted>
   9.000000E+99

> <Gold.Protein.RotatedTorsions>
[ 6907 6896 6895 6894 ] final  -43.29 input  -60.11 | X-H torsion
[ 7974 7965 7964 7962 ] final  -13.43 input  175.53 | X-H torsion
[ 8008 7997 7996 7995 ] final  -65.50 input   59.86 | X-H torsion
[ 10167 10162 10161 10158 ] final  159.72 input  -65.29 | X-H torsion
[ 10718 10713 10712 10709 ] final -161.36 input   66.30 | X-H torsion
[ 10763 10752 10751 10750 ] final   42.47 input  -60.55 | X-H torsion
[ 11005 11000 10999 10996 ] final -134.19 input  -57.11 | X-H torsion

> <Gold.Protein.ActiveResidues>
 VAL166  LYS551  ARG553  GLY616  TRP617  ASP618  TYR619  PRO620  LYS621  CYS622 
 ASP623  PHE694  ASN695  SER759  ASP760  ASP761  ALA762  ILE779  LEU786  VAL792 
 PHE793  MET794  SER795  GLU796  ALA797  LYS798  CYS799  TRP800  GLU811  SER814 

> <Gold.Protein.RotatedAtoms>
  150.9456  134.8861  159.7639 H   0  0  0  0  0  0  0  0  0  0  0  0  # atno 6907 bound_to 6896
  152.5098  134.3879  159.9384 H   0  0  0  0  0  0  0  0  0  0  0  0  # atno 6908 bound_to 6896
  151.3898  133.3752  159.2754 H   0  0  0  0  0  0  0  0  0  0  0  0  # atno 6909 bound_to 6896
  146.2114  140.3202  142.8390 H   0  0  0  0  0  0  0  0  0  0  0  0  # atno 7974 bound_to 7965
  154.4676  140.0932  156.7060 H   0  0  0  0  0  0  0  0  0  0  0  0  # atno 8008 bound_to 7997
  155.4815  140.3468  155.4322 H   0  0  0  0  0  0  0  0  0  0  0  0  # atno 8009 bound_to 7997
  156.0983  140.1415  156.9490 H   0  0  0  0  0  0  0  0  0  0  0  0  # atno 8010 bound_to 7997
  139.4834  144.4703  151.8585 H   0  0  0  0  0  0  0  0  0  0  0  0  # atno 10167 bound_to 10162
  156.5951  130.8786  151.2900 H   0  0  0  0  0  0  0  0  0  0  0  0  # atno 10718 bound_to 10713
  152.9882  135.6131  154.2955 H   0  0  0  0  0  0  0  0  0  0  0  0  # atno 10763 bound_to 10752
  154.2678  135.2780  155.2753 H   0  0  0  0  0  0  0  0  0  0  0  0  # atno 10764 bound_to 10752
  154.5149  135.5831  153.6691 H   0  0  0  0  0  0  0  0  0  0  0  0  # atno 10765 bound_to 10752
  140.9012  134.1687  157.4459 H   0  0  0  0  0  0  0  0  0  0  0  0  # atno 11005 bound_to 11000
  144.8925  140.7542  143.5917 LP  0  0  0  0  0  0  0  0  0  0  0  0  # atno 17320 bound_to 7965
  145.3125  139.1814  143.4631 LP  0  0  0  0  0  0  0  0  0  0  0  0  # atno 17321 bound_to 7965
  140.4171  144.2292  150.5887 LP  0  0  0  0  0  0  0  0  0  0  0  0  # atno 17342 bound_to 10162
  140.4910  143.2347  151.8819 LP  0  0  0  0  0  0  0  0  0  0  0  0  # atno 17343 bound_to 10162
  157.7294  130.9670  150.1785 LP  0  0  0  0  0  0  0  0  0  0  0  0  # atno 17370 bound_to 10713
  156.2517  130.3701  149.8225 LP  0  0  0  0  0  0  0  0  0  0  0  0  # atno 17371 bound_to 10713
  139.8742  134.9899  156.5477 LP  0  0  0  0  0  0  0  0  0  0  0  0  # atno 17394 bound_to 11000
  140.8227  133.8341  155.8910 LP  0  0  0  0  0  0  0  0  0  0  0  0  # atno 17395 bound_to 11000

$$$$
