AV-unprocessed.smi:2062|AV-procd|sdf|8399|dock1
  -GOLD-   2272011 83D 1   1.00000     0.00000
 Structure written by MMmdl.
 43 44  0  0  0  0  0  0  0  0  2 V2000
  150.7076  140.8675  156.7362 C   0  0  0  0  0  0  0  0  0  0  0  0
  150.8877  139.5652  155.9382 C   0  0  0  0  0  0  0  0  0  0  0  0
  152.1826  138.8544  156.3591 C   0  0  0  0  0  0  0  0  0  0  0  0
  150.8787  139.8172  154.4149 C   0  0  0  0  0  0  0  0  0  0  0  0
  149.5203  140.0827  153.8753 N   0  3  2  0  0  0  0  0  0  0  0  0
  148.9157  141.3414  154.3766 C   0  0  0  0  0  0  0  0  0  0  0  0
  147.5299  141.5567  153.7481 C   0  0  0  0  0  0  0  0  0  0  0  0
  146.7071  140.4314  154.0229 O   0  0  0  0  0  0  0  0  0  0  0  0
  147.2202  139.2312  153.4537 C   0  0  2  0  0  0  0  0  0  0  0  0
  146.2221  138.0879  153.7111 C   0  0  0  0  0  0  0  0  0  0  0  0
  146.5246  136.9123  152.9008 N   0  0  0  0  0  0  0  0  0  0  0  0
  145.6302  135.9862  152.5260 C   0  0  0  0  0  0  0  0  0  0  0  0
  144.4404  136.0275  152.8405 O   0  0  0  0  0  0  0  0  0  0  0  0
  146.2023  135.0320  151.7714 N   0  0  0  0  0  0  0  0  0  0  0  0
  145.5876  133.8983  151.1779 C   0  0  0  0  0  0  0  0  0  0  0  0
  146.2419  132.9679  150.4729 N   0  0  0  0  0  0  0  0  0  0  0  0
  145.3871  131.9661  150.0062 C   0  0  0  0  0  0  0  0  0  0  0  0
  144.0762  132.1499  150.3696 C   0  0  0  0  0  0  0  0  0  0  0  0
  143.8613  133.5985  151.3156 S   0  0  0  0  0  0  0  0  0  0  0  0
  148.5952  138.9440  154.0886 C   0  0  0  0  0  0  0  0  0  0  0  0
  151.5036  141.5801  156.5177 H   0  0  0  0  0  0  0  0  0  0  0  0
  150.7212  140.6741  157.8093 H   0  0  0  0  0  0  0  0  0  0  0  0
  149.7570  141.3491  156.5067 H   0  0  0  0  0  0  0  0  0  0  0  0
  150.0664  138.8971  156.1959 H   0  0  0  0  0  0  0  0  0  0  0  0
  153.0598  139.4640  156.1400 H   0  0  0  0  0  0  0  0  0  0  0  0
  152.2986  137.9048  155.8358 H   0  0  0  0  0  0  0  0  0  0  0  0
  152.1850  138.6407  157.4284 H   0  0  0  0  0  0  0  0  0  0  0  0
  151.5236  140.6726  154.2074 H   0  0  0  0  0  0  0  0  0  0  0  0
  151.3173  138.9721  153.8816 H   0  0  0  0  0  0  0  0  0  0  0  0
  148.8264  141.2985  155.4632 H   0  0  0  0  0  0  0  0  0  0  0  0
  149.5517  142.1941  154.1418 H   0  0  0  0  0  0  0  0  0  0  0  0
  147.0611  142.4476  154.1663 H   0  0  0  0  0  0  0  0  0  0  0  0
  147.6076  141.7134  152.6711 H   0  0  0  0  0  0  0  0  0  0  0  0
  147.3377  139.3612  152.3759 H   0  0  0  0  0  0  0  0  0  0  0  0
  146.2751  137.7841  154.7567 H   0  0  0  0  0  0  0  0  0  0  0  0
  145.1975  138.4243  153.5416 H   0  0  0  0  0  0  0  0  0  0  0  0
  147.4822  136.7981  152.6023 H   0  0  0  0  0  0  0  0  0  0  0  0
  147.1917  135.1286  151.5962 H   0  0  0  0  0  0  0  0  0  0  0  0
  145.7978  131.1567  149.4210 H   0  0  0  0  0  0  0  0  0  0  0  0
  143.2274  131.5239  150.1380 H   0  0  0  0  0  0  0  0  0  0  0  0
  149.0194  138.0407  153.6484 H   0  0  0  0  0  0  0  0  0  0  0  0
  148.4869  138.7595  155.1588 H   0  0  0  0  0  0  0  0  0  0  0  0
  149.6217  140.1799  152.8750 H   0  0  0  0  0  0  0  0  0  0  0  0
  1  2  1  0  0  0  0
  1 21  1  0  0  0  0
  1 22  1  0  0  0  0
  1 23  1  0  0  0  0
  2  3  1  0  0  0  0
  2  4  1  0  0  0  0
  2 24  1  0  0  0  0
  3 25  1  0  0  0  0
  3 26  1  0  0  0  0
  3 27  1  0  0  0  0
  4  5  1  0  0  0  0
  4 28  1  0  0  0  0
  4 29  1  0  0  0  0
  5 20  1  0  0  0  0
  5  6  1  0  0  0  0
  5 43  1  0  0  0  0
  6  7  1  0  0  0  0
  6 30  1  0  0  0  0
  6 31  1  0  0  0  0
  7  8  1  0  0  0  0
  7 32  1  0  0  0  0
  7 33  1  0  0  0  0
  8  9  1  0  0  0  0
  9 10  1  0  0  0  0
  9 20  1  0  0  0  0
  9 34  1  0  0  0  0
 10 11  1  0  0  0  0
 10 35  1  0  0  0  0
 10 36  1  0  0  0  0
 11 12  1  0  0  0  0
 11 37  1  0  0  0  0
 12 13  2  0  0  0  0
 12 14  1  0  0  0  0
 14 15  1  0  0  0  0
 14 38  1  0  0  0  0
 15 19  1  0  0  0  0
 15 16  2  0  0  0  0
 16 17  1  0  0  0  0
 17 18  2  0  0  0  0
 17 39  1  0  0  0  0
 18 19  1  0  0  0  0
 18 40  1  0  0  0  0
 20 41  1  0  0  0  0
 20 42  1  0  0  0  0
M  CHG  1   5   1
M  END
> <s_m_source_file>
AV-unprocessed.smi

> <i_m_source_file_index>
2062

> <i_lp_mmshare_version>
43012

> <i_f3d_flags>
0

> <s_epik_input>
W0NIM11bQ0hdKFtDSDNdKVtDSDJdTjFbQ0gyXVtDSDJdT1tDQEhdKFtDSDJdMSlbQ0gyXVtOSF1DKD1PKVtOSF1jMm5bY0hdW2NIXXMy

> <s_epik_cmdline>
J2VwaWtfcHl0aG9uJywgJy1waCcsICc3LjAnLCAnLXRuJywgJzgnLCAnLW1hJywgJzIwMCcsICctbWV0YWxfYmluZGluZycsICctaW1hZScsICc8aW5maWxlLm1hZT4nLCAnLW9tYWUnLCAnPG91dGZpbGUubWFlPic=

> <r_lp_tautomer_probability>
0.999

> <r_epik_Ionization_Penalty>
0.0985527

> <r_epik_Ionization_Penalty_Charging>
0.098413

> <r_epik_Ionization_Penalty_Neutral>
0.000139681

> <r_epik_State_Penalty>
0.0884988

> <r_epik_Charging_Adjusted_Penalty>
0.186912

> <i_epik_Tot_Q>
1

> <i_epik_Tot_abs_Q>
1

> <r_epik_Metal_State_Penalty>
0.141792

> <b_epik_Metal_Only>
0

> <s_lp_Force_Field>
OPLS_2005

> <r_lp_Energy>
15.2202

> <b_lp_Chiralities_Consistent>
1

> <s_lp_Variant>
AV-unprocessed.smi:2062-4

> <Gold.Version>
5.8.1

> <Gold.Id.Protein>
6NUR|6NUR_protein|mol2

> <Gold.PLP.Fitness>
43.3375

> <Gold.PLP.PLP>
-33.7202

> <Gold.PLP.part.hbond>
-3.0000

> <Gold.PLP.part.metal>
0.0000

> <Gold.PLP.part.buried>
-3.5194

> <Gold.PLP.part.nonpolar>
-28.5150

> <Gold.PLP.part.repulsive>
1.0284

> <Gold.PLP.ligand.clash>
0.0000

> <Gold.PLP.ligand.torsion>
0.4160

> <Gold.PLP.Chemscore.Hbond>
3.0000

> <Gold.PLP.Chemscore.CHOScore>
0.4517

> <Gold.PLP.Chemscore.Metal>
0.0000

> <Gold.Chemscore.Hbonds>
donor molecule, donor type, donor heavy atom, donor atom, acceptor molecule, acceptor atom, score
      L1  H     5    43       P1  7957  1.00
      L1  H    11    37       P1  7948  1.00
      L1  H    14    38       P1  7948  0.96
      L1  C    18    40       P1 10952  0.48

> <Gold.PLP.Chemscore.Internal.Correction>
0.0940

> <Gold.Rescore>
     Score         DG    S(hbond)    S(metal)    S(lipo)     H(rot)  DE(clash)    DE(int)     intcor
     17.06     -20.28       2.91        0.00      82.05       1.76       1.47       1.75       ----

> <Gold.Chemscore.Fitness>
17.0582

> <Gold.Chemscore.DG>
-20.2789

> <Gold.Chemscore.ZeroCoef>
-5.4800

> <Gold.Chemscore.Hbond>
2.9056

> <Gold.Chemscore.Metal>
0.0000

> <Gold.Chemscore.Lipo>
82.0489

> <Gold.Chemscore.Internal_Hbond>
0.0000

> <Gold.Chemscore.DEClash>
1.4686

> <Gold.Chemscore.DEInternal>
1.7521

> <Gold.Chemscore.Rot>
1.7599

> <Gold.Chemscore.Internal.Correction>
   9.000000E+99

> <Gold.Chemscore.Hbonds>
donor molecule, donor type, donor heavy atom, donor atom, acceptor molecule, acceptor atom, score
      L1  H     5    43       P1  7957  1.00
      L1  H    11    37       P1  7948  1.00
      L1  H    14    38       P1  7948  0.78

> <Gold.Chemscore.Hbond.Weighted>
-9.7046

> <Gold.Chemscore.Metal.Weighted>
-0.0000

> <Gold.Chemscore.Lipo.Weighted>
-9.5997

> <Gold.Chemscore.Internal_Hbond.Weighted>
0.0000

> <Gold.Chemscore.DEClash.Weighted>
1.4686

> <Gold.Chemscore.DEInternal.Weighted>
1.7521

> <Gold.Chemscore.Rot.Weighted>
4.5054

> <Gold.Chemscore.Internal.Correction.Weighted>
   9.000000E+99

> <Gold.Protein.RotatedTorsions>
[ 6907 6896 6895 6894 ] final  106.30 input  -60.11 | X-H torsion
[ 7974 7965 7964 7962 ] final  -39.46 input  175.53 | X-H torsion
[ 8008 7997 7996 7995 ] final   -2.94 input   59.86 | X-H torsion
[ 10167 10162 10161 10158 ] final -131.41 input  -65.29 | X-H torsion
[ 10718 10713 10712 10709 ] final  166.51 input   66.30 | X-H torsion
[ 10763 10752 10751 10750 ] final -150.98 input  -60.55 | X-H torsion
[ 11005 11000 10999 10996 ] final  175.80 input  -57.11 | X-H torsion

> <Gold.Protein.ActiveResidues>
 VAL166  LYS551  ARG553  GLY616  TRP617  ASP618  TYR619  PRO620  LYS621  CYS622 
 ASP623  PHE694  ASN695  SER759  ASP760  ASP761  ALA762  ILE779  LEU786  VAL792 
 PHE793  MET794  SER795  GLU796  ALA797  LYS798  CYS799  TRP800  GLU811  SER814 

> <Gold.Protein.RotatedAtoms>
  152.5199  133.9401  159.7621 H   0  0  0  0  0  0  0  0  0  0  0  0  # atno 6907 bound_to 6896
  150.9733  133.6313  159.2741 H   0  0  0  0  0  0  0  0  0  0  0  0  # atno 6908 bound_to 6896
  151.3517  135.0891  159.9458 H   0  0  0  0  0  0  0  0  0  0  0  0  # atno 6909 bound_to 6896
  146.0394  140.6629  142.9094 H   0  0  0  0  0  0  0  0  0  0  0  0  # atno 7974 bound_to 7965
  154.6302  140.2522  155.7443 H   0  0  0  0  0  0  0  0  0  0  0  0  # atno 8008 bound_to 7997
  156.2475  140.2908  156.0571 H   0  0  0  0  0  0  0  0  0  0  0  0  # atno 8009 bound_to 7997
  155.1756  140.0387  157.2862 H   0  0  0  0  0  0  0  0  0  0  0  0  # atno 8010 bound_to 7997
  139.9192  143.6403  152.2558 H   0  0  0  0  0  0  0  0  0  0  0  0  # atno 10167 bound_to 10162
  157.0649  131.0350  151.2633 H   0  0  0  0  0  0  0  0  0  0  0  0  # atno 10718 bound_to 10713
  154.8086  135.3271  154.7366 H   0  0  0  0  0  0  0  0  0  0  0  0  # atno 10763 bound_to 10752
  153.8019  135.6903  153.4858 H   0  0  0  0  0  0  0  0  0  0  0  0  # atno 10764 bound_to 10752
  153.1848  135.4573  155.0020 H   0  0  0  0  0  0  0  0  0  0  0  0  # atno 10765 bound_to 10752
  140.3662  134.7070  157.4363 H   0  0  0  0  0  0  0  0  0  0  0  0  # atno 11005 bound_to 11000
  144.7067  140.3880  143.7112 LP  0  0  0  0  0  0  0  0  0  0  0  0  # atno 17320 bound_to 7965
  145.6910  139.1639  143.2647 LP  0  0  0  0  0  0  0  0  0  0  0  0  # atno 17321 bound_to 7965
  139.6876  144.7650  151.1495 LP  0  0  0  0  0  0  0  0  0  0  0  0  # atno 17342 bound_to 10162
  140.7666  143.5634  150.9074 LP  0  0  0  0  0  0  0  0  0  0  0  0  # atno 17343 bound_to 10162
  157.4925  130.7831  149.7522 LP  0  0  0  0  0  0  0  0  0  0  0  0  # atno 17370 bound_to 10713
  155.9967  130.3904  150.2767 LP  0  0  0  0  0  0  0  0  0  0  0  0  # atno 17371 bound_to 10713
  140.0588  134.6025  155.8773 LP  0  0  0  0  0  0  0  0  0  0  0  0  # atno 17394 bound_to 11000
  141.1969  133.6594  156.5714 LP  0  0  0  0  0  0  0  0  0  0  0  0  # atno 17395 bound_to 11000

$$$$
