AV-unprocessed.smi:838|AV-procd|sdf|3908|dock8
  -GOLD-   22720 1373D 1   1.00000     0.00000
 Structure written by MMmdl.
 45 46  0  0  0  0  0  0  0  0  1 V2000
  152.4977  137.4928  156.4333 C   0  0  0  0  0  0  0  0  0  0  0  0
  152.0481  138.9433  156.2452 C   0  0  0  0  0  0  0  0  0  0  0  0
  152.4321  139.7789  157.0638 O   0  0  0  0  0  0  0  0  0  0  0  0
  151.2491  139.2582  155.1982 N   0  0  0  0  0  0  0  0  0  0  0  0
  150.7548  138.2685  154.2369 C   0  0  0  0  0  0  0  0  0  0  0  0
  149.2194  138.1913  154.3416 C   0  0  0  0  0  0  0  0  0  0  0  0
  148.6265  139.5040  154.0715 N   0  0  0  0  0  0  0  0  0  0  0  0
  147.1686  139.3997  154.1377 C   0  0  0  0  0  0  0  0  0  0  0  0
  146.5087  139.2007  152.7577 C   0  0  0  0  0  0  0  0  0  0  0  0
  146.7160  137.8480  152.2488 N   0  0  0  0  0  0  0  0  0  0  0  0
  145.7433  136.9895  151.9083 C   0  0  0  0  0  0  0  0  0  0  0  0
  144.5430  137.2448  152.0123 O   0  0  0  0  0  0  0  0  0  0  0  0
  146.2564  135.8374  151.4420 N   0  0  0  0  0  0  0  0  0  0  0  0
  145.5650  134.6811  150.9826 C   0  0  0  0  0  0  0  0  0  0  0  0
  144.4640  134.7517  150.1927 N   0  0  0  0  0  0  0  0  0  0  0  0
  143.8558  133.6156  149.7957 C   0  0  0  0  0  0  0  0  0  0  0  0
  144.3067  132.3357  150.1614 C   0  0  0  0  0  0  0  0  0  0  0  0
  145.4462  132.2443  150.9787 C   0  0  0  0  0  0  0  0  0  0  0  0
  146.0894  133.4279  151.3987 C   0  0  0  0  0  0  0  0  0  0  0  0
  147.3241  133.3313  152.2802 C   0  0  0  0  0  0  0  0  0  0  0  0
  149.1423  140.4906  155.0286 C   0  0  0  0  0  0  0  0  0  0  0  0
  150.6765  140.5789  154.9191 C   0  0  0  0  0  0  0  0  0  0  0  0
  153.0801  137.1539  155.5762 H   0  0  0  0  0  0  0  0  0  0  0  0
  151.6375  136.8353  156.5608 H   0  0  0  0  0  0  0  0  0  0  0  0
  153.1240  137.3967  157.3207 H   0  0  0  0  0  0  0  0  0  0  0  0
  151.0523  138.5628  153.2293 H   0  0  0  0  0  0  0  0  0  0  0  0
  151.1796  137.2771  154.3971 H   0  0  0  0  0  0  0  0  0  0  0  0
  148.8442  137.4646  153.6203 H   0  0  0  0  0  0  0  0  0  0  0  0
  148.9250  137.8428  155.3329 H   0  0  0  0  0  0  0  0  0  0  0  0
  146.9009  138.5474  154.7641 H   0  0  0  0  0  0  0  0  0  0  0  0
  146.7577  140.2832  154.6286 H   0  0  0  0  0  0  0  0  0  0  0  0
  145.4330  139.3426  152.8617 H   0  0  0  0  0  0  0  0  0  0  0  0
  146.8313  139.9539  152.0388 H   0  0  0  0  0  0  0  0  0  0  0  0
  147.6735  137.5524  152.1281 H   0  0  0  0  0  0  0  0  0  0  0  0
  147.2631  135.7790  151.4073 H   0  0  0  0  0  0  0  0  0  0  0  0
  142.9846  133.7313  149.1684 H   0  0  0  0  0  0  0  0  0  0  0  0
  143.7924  131.4484  149.8229 H   0  0  0  0  0  0  0  0  0  0  0  0
  145.8196  131.2760  151.2777 H   0  0  0  0  0  0  0  0  0  0  0  0
  147.5762  132.2934  152.4990 H   0  0  0  0  0  0  0  0  0  0  0  0
  147.1578  133.8426  153.2289 H   0  0  0  0  0  0  0  0  0  0  0  0
  148.1821  133.7876  151.7854 H   0  0  0  0  0  0  0  0  0  0  0  0
  148.7207  141.4741  154.8272 H   0  0  0  0  0  0  0  0  0  0  0  0
  148.8505  140.2187  156.0443 H   0  0  0  0  0  0  0  0  0  0  0  0
  151.0399  141.3610  155.5832 H   0  0  0  0  0  0  0  0  0  0  0  0
  150.9637  140.8904  153.9134 H   0  0  0  0  0  0  0  0  0  0  0  0
  1  2  1  0  0  0  0
  1 23  1  0  0  0  0
  1 24  1  0  0  0  0
  1 25  1  0  0  0  0
  2  3  2  0  0  0  0
  2  4  1  0  0  0  0
  4 22  1  0  0  0  0
  4  5  1  0  0  0  0
  5  6  1  0  0  0  0
  5 26  1  0  0  0  0
  5 27  1  0  0  0  0
  6  7  1  0  0  0  0
  6 28  1  0  0  0  0
  6 29  1  0  0  0  0
  7  8  1  0  0  0  0
  7 21  1  0  0  0  0
  8  9  1  0  0  0  0
  8 30  1  0  0  0  0
  8 31  1  0  0  0  0
  9 10  1  0  0  0  0
  9 32  1  0  0  0  0
  9 33  1  0  0  0  0
 10 11  1  0  0  0  0
 10 34  1  0  0  0  0
 11 12  2  0  0  0  0
 11 13  1  0  0  0  0
 13 14  1  0  0  0  0
 13 35  1  0  0  0  0
 14 19  1  0  0  0  0
 14 15  2  0  0  0  0
 15 16  1  0  0  0  0
 16 17  2  0  0  0  0
 16 36  1  0  0  0  0
 17 18  1  0  0  0  0
 17 37  1  0  0  0  0
 18 19  2  0  0  0  0
 18 38  1  0  0  0  0
 19 20  1  0  0  0  0
 20 39  1  0  0  0  0
 20 40  1  0  0  0  0
 20 41  1  0  0  0  0
 21 22  1  0  0  0  0
 21 42  1  0  0  0  0
 21 43  1  0  0  0  0
 22 44  1  0  0  0  0
 22 45  1  0  0  0  0
M  END
> <s_m_source_file>
AV-unprocessed.smi

> <i_m_source_file_index>
838

> <i_lp_mmshare_version>
43012

> <i_f3d_flags>
0

> <s_epik_input>
W0NIM11DKD1PKU4xW0NIMl1bQ0gyXU4oW0NIMl1bQ0gyXTEpW0NIMl1bQ0gyXVtOSF1DKD1PKVtOSF1jMm5bY0hdW2NIXVtjSF1jMltDSDNd

> <s_epik_cmdline>
J2VwaWtfcHl0aG9uJywgJy1waCcsICc3LjAnLCAnLXRuJywgJzgnLCAnLW1hJywgJzIwMCcsICctbWV0YWxfYmluZGluZycsICctaW1hZScsICc8aW5maWxlLm1hZT4nLCAnLW9tYWUnLCAnPG91dGZpbGUubWFlPic=

> <r_epik_Ionization_Penalty>
0.25102

> <r_epik_Ionization_Penalty_Charging>
0

> <r_epik_Ionization_Penalty_Neutral>
0.25102

> <r_epik_State_Penalty>
0.242297

> <r_epik_Charging_Adjusted_Penalty>
0.242297

> <i_epik_Tot_Q>
0

> <i_epik_Tot_abs_Q>
0

> <r_epik_Metal_State_Penalty>
0.242294

> <b_epik_Metal_Only>
0

> <s_lp_Force_Field>
OPLS_2005

> <r_lp_Energy>
40.132

> <b_lp_Chiralities_Consistent>
1

> <s_lp_Variant>
AV-unprocessed.smi:838-1

> <Gold.Version>
5.8.1

> <Gold.Id.Protein>
6NUR|6NUR_protein|mol2

> <Gold.PLP.Fitness>
45.3659

> <Gold.PLP.PLP>
-35.1458

> <Gold.PLP.part.hbond>
-3.0000

> <Gold.PLP.part.metal>
0.0000

> <Gold.PLP.part.buried>
-2.6076

> <Gold.PLP.part.nonpolar>
-31.0632

> <Gold.PLP.part.repulsive>
0.6691

> <Gold.PLP.ligand.clash>
0.0000

> <Gold.PLP.ligand.torsion>
0.8992

> <Gold.PLP.Chemscore.Hbond>
3.0000

> <Gold.PLP.Chemscore.CHOScore>
1.0000

> <Gold.PLP.Chemscore.Metal>
0.0000

> <Gold.Chemscore.Hbonds>
donor molecule, donor type, donor heavy atom, donor atom, acceptor molecule, acceptor atom, score
      L1  H    10    34       P1  7948  1.00
      L1  H    13    35       P1  7948  1.00
      P1  H  7997  8009       L1     3  1.00
      L1  C    16    36       P1 10186  1.00

> <Gold.PLP.Chemscore.Internal.Correction>
0.0185

> <Gold.Rescore>
     Score         DG    S(hbond)    S(metal)    S(lipo)     H(rot)  DE(clash)    DE(int)     intcor
     16.99     -19.94       2.69        0.00      80.43       1.54       1.94       1.00       ----

> <Gold.Chemscore.Fitness>
16.9890

> <Gold.Chemscore.DG>
-19.9364

> <Gold.Chemscore.ZeroCoef>
-5.4800

> <Gold.Chemscore.Hbond>
2.6945

> <Gold.Chemscore.Metal>
0.0000

> <Gold.Chemscore.Lipo>
80.4267

> <Gold.Chemscore.Internal_Hbond>
0.0000

> <Gold.Chemscore.DEClash>
1.9440

> <Gold.Chemscore.DEInternal>
1.0035

> <Gold.Chemscore.Rot>
1.5441

> <Gold.Chemscore.Internal.Correction>
   9.000000E+99

> <Gold.Chemscore.Hbonds>
donor molecule, donor type, donor heavy atom, donor atom, acceptor molecule, acceptor atom, score
      L1  H    10    34       P1  7948  0.96
      L1  H    13    35       P1  7948  0.98
      P1  H  7997  8009       L1     3  0.32

> <Gold.Chemscore.Hbond.Weighted>
-8.9995

> <Gold.Chemscore.Metal.Weighted>
-0.0000

> <Gold.Chemscore.Lipo.Weighted>
-9.4099

> <Gold.Chemscore.Internal_Hbond.Weighted>
0.0000

> <Gold.Chemscore.DEClash.Weighted>
1.9440

> <Gold.Chemscore.DEInternal.Weighted>
1.0035

> <Gold.Chemscore.Rot.Weighted>
3.9530

> <Gold.Chemscore.Internal.Correction.Weighted>
   9.000000E+99

> <Gold.Protein.RotatedTorsions>
[ 6907 6896 6895 6894 ] final  136.55 input  -60.11 | X-H torsion
[ 7974 7965 7964 7962 ] final   47.24 input  175.53 | X-H torsion
[ 8008 7997 7996 7995 ] final -168.03 input   59.86 | X-H torsion
[ 10167 10162 10161 10158 ] final   38.80 input  -65.29 | X-H torsion
[ 10718 10713 10712 10709 ] final    9.43 input   66.30 | X-H torsion
[ 10763 10752 10751 10750 ] final -166.72 input  -60.55 | X-H torsion
[ 11005 11000 10999 10996 ] final   83.56 input  -57.11 | X-H torsion

> <Gold.Protein.ActiveResidues>
 VAL166  LYS551  ARG553  GLY616  TRP617  ASP618  TYR619  PRO620  LYS621  CYS622 
 ASP623  PHE694  ASN695  SER759  ASP760  ASP761  ALA762  ILE779  LEU786  VAL792 
 PHE793  MET794  SER795  GLU796  ALA797  LYS798  CYS799  TRP800  GLU811  SER814 

> <Gold.Protein.RotatedAtoms>
  152.2881  133.5535  159.5539 H   0  0  0  0  0  0  0  0  0  0  0  0  # atno 6907 bound_to 6896
  150.7224  134.0468  159.3793 H   0  0  0  0  0  0  0  0  0  0  0  0  # atno 6908 bound_to 6896
  151.8375  135.0601  160.0495 H   0  0  0  0  0  0  0  0  0  0  0  0  # atno 6909 bound_to 6896
  146.0316  139.4770  142.9834 H   0  0  0  0  0  0  0  0  0  0  0  0  # atno 7974 bound_to 7965
  155.8859  140.1016  157.1453 H   0  0  0  0  0  0  0  0  0  0  0  0  # atno 8008 bound_to 7997
  154.4010  140.1320  156.4318 H   0  0  0  0  0  0  0  0  0  0  0  0  # atno 8009 bound_to 7997
  155.7590  140.3463  155.5190 H   0  0  0  0  0  0  0  0  0  0  0  0  # atno 8010 bound_to 7997
  140.3902  144.1863  150.6131 H   0  0  0  0  0  0  0  0  0  0  0  0  # atno 10167 bound_to 10162
  156.9662  130.5951  149.5665 H   0  0  0  0  0  0  0  0  0  0  0  0  # atno 10718 bound_to 10713
  154.6805  135.2954  154.9619 H   0  0  0  0  0  0  0  0  0  0  0  0  # atno 10763 bound_to 10752
  154.0616  135.6630  153.4816 H   0  0  0  0  0  0  0  0  0  0  0  0  # atno 10764 bound_to 10752
  153.0544  135.5153  154.7846 H   0  0  0  0  0  0  0  0  0  0  0  0  # atno 10765 bound_to 10752
  139.9027  134.8153  156.2326 H   0  0  0  0  0  0  0  0  0  0  0  0  # atno 11005 bound_to 11000
  145.7031  141.0130  143.1493 LP  0  0  0  0  0  0  0  0  0  0  0  0  # atno 17320 bound_to 7965
  144.7033  139.8668  143.7437 LP  0  0  0  0  0  0  0  0  0  0  0  0  # atno 17321 bound_to 7965
  140.4848  143.2367  151.8904 LP  0  0  0  0  0  0  0  0  0  0  0  0  # atno 17342 bound_to 10162
  139.4789  144.5230  151.8774 LP  0  0  0  0  0  0  0  0  0  0  0  0  # atno 17343 bound_to 10162
  156.0302  130.5393  150.8513 LP  0  0  0  0  0  0  0  0  0  0  0  0  # atno 17370 bound_to 10713
  157.5624  131.0946  150.9539 LP  0  0  0  0  0  0  0  0  0  0  0  0  # atno 17371 bound_to 10713
  141.0336  133.6975  156.1472 LP  0  0  0  0  0  0  0  0  0  0  0  0  # atno 17394 bound_to 11000
  140.7060  134.4512  157.5584 LP  0  0  0  0  0  0  0  0  0  0  0  0  # atno 17395 bound_to 11000

$$$$
