AV-unprocessed.smi:2385|AV-procd|sdf|9466|dock2
  -GOLD-   2272013 93D 1   1.00000     0.00000
 Structure written by MMmdl.
 50 52  0  0  0  0  0  0  0  0  2 V2000
  151.9285  145.8158  160.1820 C   0  0  0  0  0  0  0  0  0  0  0  0
  151.8510  144.5201  159.4019 C   0  0  0  0  0  0  0  0  0  0  0  0
  151.6966  144.5174  158.0025 C   0  0  0  0  0  0  0  0  0  0  0  0
  151.6313  143.2821  157.3293 C   0  0  0  0  0  0  0  0  0  0  0  0
  151.7207  142.0812  158.0689 C   0  0  0  0  0  0  0  0  0  0  0  0
  151.6459  140.8916  157.2960 N   0  0  0  0  0  0  0  0  0  0  0  0
  151.1285  140.7322  156.0651 C   0  0  0  0  0  0  0  0  0  0  0  0
  150.6369  141.6265  155.3761 O   0  0  0  0  0  0  0  0  0  0  0  0
  151.2110  139.4546  155.6644 N   0  0  0  0  0  0  0  0  0  0  0  0
  150.7547  138.9429  154.3719 C   0  0  2  0  0  0  0  0  0  0  0  0
  149.2181  138.8529  154.2951 C   0  0  0  0  0  0  0  0  0  0  0  0
  148.6604  137.7366  155.1951 C   0  0  0  0  0  0  0  0  0  0  0  0
  149.2718  136.4213  154.8693 N   0  3  2  0  0  0  0  0  0  0  0  0
  148.6466  135.3070  155.6309 C   0  0  0  0  0  0  0  0  0  0  0  0
  148.3151  134.0842  154.7498 C   0  0  1  0  0  0  0  0  0  0  0  0
  149.4992  133.4355  154.0371 C   0  0  0  0  0  0  0  0  0  0  0  0
  149.1986  131.9330  154.0721 C   0  0  0  0  0  0  0  0  0  0  0  0
  147.9114  131.8177  154.6603 O   0  0  0  0  0  0  0  0  0  0  0  0
  147.7525  132.9094  155.5477 C   0  0  0  0  0  0  0  0  0  0  0  0
  150.7531  136.4670  154.9968 C   0  0  0  0  0  0  0  0  0  0  0  0
  151.3626  137.5575  154.0963 C   0  0  0  0  0  0  0  0  0  0  0  0
  151.8701  142.0943  159.4170 N   0  0  0  0  0  0  0  0  0  0  0  0
  151.9324  143.2785  160.0614 C   0  0  0  0  0  0  0  0  0  0  0  0
  151.8744  146.6811  159.5208 H   0  0  0  0  0  0  0  0  0  0  0  0
  152.8666  145.8677  160.7354 H   0  0  0  0  0  0  0  0  0  0  0  0
  151.1049  145.8776  160.8939 H   0  0  0  0  0  0  0  0  0  0  0  0
  151.6297  145.4434  157.4499 H   0  0  0  0  0  0  0  0  0  0  0  0
  151.5128  143.2629  156.2554 H   0  0  0  0  0  0  0  0  0  0  0  0
  152.0274  140.0668  157.7348 H   0  0  0  0  0  0  0  0  0  0  0  0
  151.6373  138.7900  156.2934 H   0  0  0  0  0  0  0  0  0  0  0  0
  151.1073  139.6280  153.5986 H   0  0  0  0  0  0  0  0  0  0  0  0
  148.7609  139.8078  154.5571 H   0  0  0  0  0  0  0  0  0  0  0  0
  148.9244  138.6561  153.2631 H   0  0  0  0  0  0  0  0  0  0  0  0
  148.8347  137.9718  156.2463 H   0  0  0  0  0  0  0  0  0  0  0  0
  147.5796  137.6853  155.0581 H   0  0  0  0  0  0  0  0  0  0  0  0
  149.2594  135.0306  156.4903 H   0  0  0  0  0  0  0  0  0  0  0  0
  147.7022  135.6618  156.0464 H   0  0  0  0  0  0  0  0  0  0  0  0
  147.5650  134.3608  154.0068 H   0  0  0  0  0  0  0  0  0  0  0  0
  149.5942  133.8004  153.0140 H   0  0  0  0  0  0  0  0  0  0  0  0
  150.4397  133.6337  154.5530 H   0  0  0  0  0  0  0  0  0  0  0  0
  149.2115  131.4813  153.0799 H   0  0  0  0  0  0  0  0  0  0  0  0
  149.9273  131.4102  154.6930 H   0  0  0  0  0  0  0  0  0  0  0  0
  148.3302  132.7306  156.4562 H   0  0  0  0  0  0  0  0  0  0  0  0
  146.7076  133.0499  155.8252 H   0  0  0  0  0  0  0  0  0  0  0  0
  151.0248  136.6418  156.0389 H   0  0  0  0  0  0  0  0  0  0  0  0
  151.1881  135.5097  154.7186 H   0  0  0  0  0  0  0  0  0  0  0  0
  151.1892  137.2928  153.0521 H   0  0  0  0  0  0  0  0  0  0  0  0
  152.4455  137.5873  154.2239 H   0  0  0  0  0  0  0  0  0  0  0  0
  152.0513  143.2325  161.1340 H   0  0  0  0  0  0  0  0  0  0  0  0
  149.0625  136.2529  153.8956 H   0  0  0  0  0  0  0  0  0  0  0  0
  1  2  1  0  0  0  0
  1 24  1  0  0  0  0
  1 25  1  0  0  0  0
  1 26  1  0  0  0  0
  2 23  1  0  0  0  0
  2  3  2  0  0  0  0
  3  4  1  0  0  0  0
  3 27  1  0  0  0  0
  4  5  2  0  0  0  0
  4 28  1  0  0  0  0
  5  6  1  0  0  0  0
  5 22  1  0  0  0  0
  6  7  1  0  0  0  0
  6 29  1  0  0  0  0
  7  8  2  0  0  0  0
  7  9  1  0  0  0  0
  9 10  1  0  0  0  0
  9 30  1  0  0  0  0
 10 21  1  0  0  0  0
 10 11  1  0  0  0  0
 10 31  1  0  0  0  0
 11 12  1  0  0  0  0
 11 32  1  0  0  0  0
 11 33  1  0  0  0  0
 12 13  1  0  0  0  0
 12 34  1  0  0  0  0
 12 35  1  0  0  0  0
 13 14  1  0  0  0  0
 13 20  1  0  0  0  0
 13 50  1  0  0  0  0
 14 15  1  0  0  0  0
 14 36  1  0  0  0  0
 14 37  1  0  0  0  0
 15 19  1  0  0  0  0
 15 16  1  0  0  0  0
 15 38  1  0  0  0  0
 16 17  1  0  0  0  0
 16 39  1  0  0  0  0
 16 40  1  0  0  0  0
 17 18  1  0  0  0  0
 17 41  1  0  0  0  0
 17 42  1  0  0  0  0
 18 19  1  0  0  0  0
 19 43  1  0  0  0  0
 19 44  1  0  0  0  0
 20 21  1  0  0  0  0
 20 45  1  0  0  0  0
 20 46  1  0  0  0  0
 21 47  1  0  0  0  0
 21 48  1  0  0  0  0
 22 23  2  0  0  0  0
 23 49  1  0  0  0  0
M  CHG  1  13   1
M  END
> <s_m_source_file>
AV-unprocessed.smi

> <i_m_source_file_index>
2385

> <i_lp_mmshare_version>
43012

> <i_f3d_flags>
0

> <s_epik_input>
W0NIM11jMVtjSF1bY0hdYyhuW2NIXTEpW05IXUMoPU8pW05IXVtDSF0yW0NIMl1bQ0gyXU4oW0NIMl1bQ0gyXTIpW0NIMl1bQ0BASF0zW0NIMl1bQ0gyXU9bQ0gyXTM=

> <s_epik_cmdline>
J2VwaWtfcHl0aG9uJywgJy1waCcsICc3LjAnLCAnLXRuJywgJzgnLCAnLW1hJywgJzIwMCcsICctbWV0YWxfYmluZGluZycsICctaW1hZScsICc8aW5maWxlLm1hZT4nLCAnLW9tYWUnLCAnPG91dGZpbGUubWFlPic=

> <r_epik_Ionization_Penalty>
0.00752367

> <r_epik_Ionization_Penalty_Charging>
0.00747775

> <r_epik_Ionization_Penalty_Neutral>
4.59207e-05

> <r_epik_State_Penalty>
0.00558817

> <r_epik_Charging_Adjusted_Penalty>
0.0130659

> <i_epik_Tot_Q>
1

> <i_epik_Tot_abs_Q>
1

> <r_epik_Metal_State_Penalty>
-0

> <b_epik_Metal_Only>
0

> <s_lp_Force_Field>
OPLS_2005

> <r_lp_Energy>
36.5339

> <b_lp_Chiralities_Consistent>
1

> <s_lp_Variant>
AV-unprocessed.smi:2385-4

> <Gold.Version>
5.8.1

> <Gold.Id.Protein>
6NUR|6NUR_protein|mol2

> <Gold.PLP.Fitness>
45.9671

> <Gold.PLP.PLP>
-41.3716

> <Gold.PLP.part.hbond>
-2.0000

> <Gold.PLP.part.metal>
0.0000

> <Gold.PLP.part.buried>
-2.9216

> <Gold.PLP.part.nonpolar>
-37.3695

> <Gold.PLP.part.repulsive>
0.3375

> <Gold.PLP.ligand.clash>
0.1170

> <Gold.PLP.ligand.torsion>
0.8920

> <Gold.PLP.Chemscore.Hbond>
2.1372

> <Gold.PLP.Chemscore.CHOScore>
0.0000

> <Gold.PLP.Chemscore.Metal>
0.0000

> <Gold.Chemscore.Hbonds>
donor molecule, donor type, donor heavy atom, donor atom, acceptor molecule, acceptor atom, score
      L1  H    13    50       P1  7948  2.00
      P1  H  7989  7998       L1     8  0.14

> <Gold.PLP.Chemscore.Internal.Correction>
0.0849

> <Gold.Rescore>
     Score         DG    S(hbond)    S(metal)    S(lipo)     H(rot)  DE(clash)    DE(int)     intcor
     15.47     -18.20       1.03        0.00     109.95       1.41       0.58       2.14       ----

> <Gold.Chemscore.Fitness>
15.4739

> <Gold.Chemscore.DG>
-18.1962

> <Gold.Chemscore.ZeroCoef>
-5.4800

> <Gold.Chemscore.Hbond>
1.0330

> <Gold.Chemscore.Metal>
0.0000

> <Gold.Chemscore.Lipo>
109.9510

> <Gold.Chemscore.Internal_Hbond>
0.0000

> <Gold.Chemscore.DEClash>
0.5823

> <Gold.Chemscore.DEInternal>
2.1400

> <Gold.Chemscore.Rot>
1.4056

> <Gold.Chemscore.Internal.Correction>
   9.000000E+99

> <Gold.Chemscore.Hbonds>
donor molecule, donor type, donor heavy atom, donor atom, acceptor molecule, acceptor atom, score
      L1  H    13    50       P1  7948  0.92
      P1  H  7989  7998       L1     8  0.01

> <Gold.Chemscore.Hbond.Weighted>
-3.4502

> <Gold.Chemscore.Metal.Weighted>
-0.0000

> <Gold.Chemscore.Lipo.Weighted>
-12.8643

> <Gold.Chemscore.Internal_Hbond.Weighted>
0.0000

> <Gold.Chemscore.DEClash.Weighted>
0.5823

> <Gold.Chemscore.DEInternal.Weighted>
2.1400

> <Gold.Chemscore.Rot.Weighted>
3.5982

> <Gold.Chemscore.Internal.Correction.Weighted>
   9.000000E+99

> <Gold.Protein.RotatedTorsions>
[ 6907 6896 6895 6894 ] final  170.37 input  -60.11 | X-H torsion
[ 7974 7965 7964 7962 ] final -132.20 input  175.53 | X-H torsion
[ 8008 7997 7996 7995 ] final   55.77 input   59.86 | X-H torsion
[ 10167 10162 10161 10158 ] final  169.43 input  -65.29 | X-H torsion
[ 10718 10713 10712 10709 ] final  -95.24 input   66.30 | X-H torsion
[ 10763 10752 10751 10750 ] final   29.11 input  -60.55 | X-H torsion
[ 11005 11000 10999 10996 ] final   62.03 input  -57.11 | X-H torsion

> <Gold.Protein.ActiveResidues>
 VAL166  LYS551  ARG553  GLY616  TRP617  ASP618  TYR619  PRO620  LYS621  CYS622 
 ASP623  PHE694  ASN695  SER759  ASP760  ASP761  ALA762  ILE779  LEU786  VAL792 
 PHE793  MET794  SER795  GLU796  ALA797  LYS798  CYS799  TRP800  GLU811  SER814 

> <Gold.Protein.RotatedAtoms>
  151.8172  133.3389  159.3572 H   0  0  0  0  0  0  0  0  0  0  0  0  # atno 6907 bound_to 6896
  150.7306  134.5608  159.5851 H   0  0  0  0  0  0  0  0  0  0  0  0  # atno 6908 bound_to 6896
  152.3032  134.7587  160.0404 H   0  0  0  0  0  0  0  0  0  0  0  0  # atno 6909 bound_to 6896
  144.9308  140.7126  143.4907 H   0  0  0  0  0  0  0  0  0  0  0  0  # atno 7974 bound_to 7965
  155.5066  140.3476  155.4380 H   0  0  0  0  0  0  0  0  0  0  0  0  # atno 8008 bound_to 7997
  156.0878  140.1403  156.9658 H   0  0  0  0  0  0  0  0  0  0  0  0  # atno 8009 bound_to 7997
  154.4617  140.0932  156.6887 H   0  0  0  0  0  0  0  0  0  0  0  0  # atno 8010 bound_to 7997
  139.4992  144.3706  151.9728 H   0  0  0  0  0  0  0  0  0  0  0  0  # atno 10167 bound_to 10162
  156.0040  130.5101  150.6047 H   0  0  0  0  0  0  0  0  0  0  0  0  # atno 10718 bound_to 10713
  153.0450  135.6497  154.0841 H   0  0  0  0  0  0  0  0  0  0  0  0  # atno 10763 bound_to 10752
  154.0540  135.2893  155.3337 H   0  0  0  0  0  0  0  0  0  0  0  0  # atno 10764 bound_to 10752
  154.6701  135.5359  153.8193 H   0  0  0  0  0  0  0  0  0  0  0  0  # atno 10765 bound_to 10752
  140.0120  134.6282  155.9766 H   0  0  0  0  0  0  0  0  0  0  0  0  # atno 11005 bound_to 11000
  145.3145  139.1808  143.4621 LP  0  0  0  0  0  0  0  0  0  0  0  0  # atno 17320 bound_to 7965
  146.3246  140.3155  142.8629 LP  0  0  0  0  0  0  0  0  0  0  0  0  # atno 17321 bound_to 7965
  140.3142  144.3502  150.6026 LP  0  0  0  0  0  0  0  0  0  0  0  0  # atno 17342 bound_to 10162
  140.5774  143.2175  151.7490 LP  0  0  0  0  0  0  0  0  0  0  0  0  # atno 17343 bound_to 10162
  157.3890  131.0793  151.1410 LP  0  0  0  0  0  0  0  0  0  0  0  0  # atno 17370 bound_to 10713
  157.2108  130.6437  149.5773 LP  0  0  0  0  0  0  0  0  0  0  0  0  # atno 17371 bound_to 10713
  141.1717  133.6538  156.4677 LP  0  0  0  0  0  0  0  0  0  0  0  0  # atno 17394 bound_to 11000
  140.4538  134.6904  157.5052 LP  0  0  0  0  0  0  0  0  0  0  0  0  # atno 17395 bound_to 11000

$$$$
