AV-unprocessed.smi:906|AV-procd|sdf|4101|dock5
  -GOLD-   22720 1593D 1   1.00000     0.00000
 Structure written by MMmdl.
 47 48  0  0  0  0  0  0  0  0  1 V2000
  147.6303  130.1947  154.2026 C   0  0  0  0  0  0  0  0  0  0  0  0
  148.1188  131.5864  154.5460 C   0  0  0  0  0  0  0  0  0  0  0  0
  149.0709  131.7850  155.5680 C   0  0  0  0  0  0  0  0  0  0  0  0
  149.4957  133.0993  155.8424 C   0  0  0  0  0  0  0  0  0  0  0  0
  148.9555  134.1602  155.0872 C   0  0  0  0  0  0  0  0  0  0  0  0
  149.3845  135.5922  155.3378 C   0  0  0  0  0  0  0  0  0  0  0  0
  150.0621  135.7607  156.7073 C   0  0  0  0  0  0  0  0  0  0  0  0
  150.7591  137.0375  156.8053 N   0  0  0  0  0  0  0  0  0  0  0  0
  151.2587  137.5644  157.9363 C   0  0  0  0  0  0  0  0  0  0  0  0
  151.1729  136.9866  159.0209 O   0  0  0  0  0  0  0  0  0  0  0  0
  151.8948  138.7515  157.7757 N   0  0  0  0  0  0  0  0  0  0  0  0
  151.9320  139.5740  156.5576 C   0  0  0  0  0  0  0  0  0  0  0  0
  151.0820  140.8384  156.7876 C   0  0  0  0  0  0  0  0  0  0  0  0
  151.5965  141.5950  157.9358 N   0  0  0  0  0  0  0  0  0  0  0  0
  150.9154  142.8928  158.0845 C   0  0  1  0  0  0  0  0  0  0  0  0
  149.5573  142.8059  158.8153 C   0  0  0  0  0  0  0  0  0  0  0  0
  151.8451  143.9671  158.6981 C   0  0  0  0  0  0  0  0  0  0  0  0
  152.8345  144.2599  157.8534 F   0  0  0  0  0  0  0  0  0  0  0  0
  151.1425  145.0798  158.9106 F   0  0  0  0  0  0  0  0  0  0  0  0
  152.3677  143.5784  159.8611 F   0  0  0  0  0  0  0  0  0  0  0  0
  151.6198  140.7612  159.1457 C   0  0  0  0  0  0  0  0  0  0  0  0
  152.4673  139.4981  158.8995 C   0  0  0  0  0  0  0  0  0  0  0  0
  148.0096  133.8537  154.0862 C   0  0  0  0  0  0  0  0  0  0  0  0
  147.5963  132.5968  153.8161 N   0  0  0  0  0  0  0  0  0  0  0  0
  147.7897  129.5081  155.0346 H   0  0  0  0  0  0  0  0  0  0  0  0
  148.1673  129.8119  153.3343 H   0  0  0  0  0  0  0  0  0  0  0  0
  146.5645  130.2036  153.9719 H   0  0  0  0  0  0  0  0  0  0  0  0
  149.4687  130.9515  156.1282 H   0  0  0  0  0  0  0  0  0  0  0  0
  150.2251  133.2872  156.6167 H   0  0  0  0  0  0  0  0  0  0  0  0
  150.0607  135.9014  154.5396 H   0  0  0  0  0  0  0  0  0  0  0  0
  148.5110  136.2422  155.2692 H   0  0  0  0  0  0  0  0  0  0  0  0
  149.3138  135.7234  157.4996 H   0  0  0  0  0  0  0  0  0  0  0  0
  150.7554  134.9392  156.8962 H   0  0  0  0  0  0  0  0  0  0  0  0
  150.8781  137.5590  155.9491 H   0  0  0  0  0  0  0  0  0  0  0  0
  152.9653  139.8501  156.3415 H   0  0  0  0  0  0  0  0  0  0  0  0
  151.5770  139.0587  155.6655 H   0  0  0  0  0  0  0  0  0  0  0  0
  151.1144  141.4600  155.8922 H   0  0  0  0  0  0  0  0  0  0  0  0
  150.0406  140.5582  156.9484 H   0  0  0  0  0  0  0  0  0  0  0  0
  150.7096  143.2378  157.0702 H   0  0  0  0  0  0  0  0  0  0  0  0
  149.0519  143.7714  158.7970 H   0  0  0  0  0  0  0  0  0  0  0  0
  149.6738  142.5271  159.8624 H   0  0  0  0  0  0  0  0  0  0  0  0
  148.8839  142.0877  158.3492 H   0  0  0  0  0  0  0  0  0  0  0  0
  152.0496  141.3103  159.9808 H   0  0  0  0  0  0  0  0  0  0  0  0
  150.6078  140.4730  159.4324 H   0  0  0  0  0  0  0  0  0  0  0  0
  152.5182  138.9058  159.8140 H   0  0  0  0  0  0  0  0  0  0  0  0
  153.4975  139.7725  158.6672 H   0  0  0  0  0  0  0  0  0  0  0  0
  147.5748  134.6371  153.4829 H   0  0  0  0  0  0  0  0  0  0  0  0
  1  2  1  0  0  0  0
  1 25  1  0  0  0  0
  1 26  1  0  0  0  0
  1 27  1  0  0  0  0
  2 24  1  0  0  0  0
  2  3  2  0  0  0  0
  3  4  1  0  0  0  0
  3 28  1  0  0  0  0
  4  5  2  0  0  0  0
  4 29  1  0  0  0  0
  5  6  1  0  0  0  0
  5 23  1  0  0  0  0
  6  7  1  0  0  0  0
  6 30  1  0  0  0  0
  6 31  1  0  0  0  0
  7  8  1  0  0  0  0
  7 32  1  0  0  0  0
  7 33  1  0  0  0  0
  8  9  1  0  0  0  0
  8 34  1  0  0  0  0
  9 10  2  0  0  0  0
  9 11  1  0  0  0  0
 11 22  1  0  0  0  0
 11 12  1  0  0  0  0
 12 13  1  0  0  0  0
 12 35  1  0  0  0  0
 12 36  1  0  0  0  0
 13 14  1  0  0  0  0
 13 37  1  0  0  0  0
 13 38  1  0  0  0  0
 14 15  1  0  0  0  0
 14 21  1  0  0  0  0
 15 16  1  0  0  0  0
 15 17  1  0  0  0  0
 15 39  1  0  0  0  0
 16 40  1  0  0  0  0
 16 41  1  0  0  0  0
 16 42  1  0  0  0  0
 17 18  1  0  0  0  0
 17 19  1  0  0  0  0
 17 20  1  0  0  0  0
 21 22  1  0  0  0  0
 21 43  1  0  0  0  0
 21 44  1  0  0  0  0
 22 45  1  0  0  0  0
 22 46  1  0  0  0  0
 23 24  2  0  0  0  0
 23 47  1  0  0  0  0
M  END
> <s_m_source_file>
AV-unprocessed.smi

> <i_m_source_file_index>
906

> <i_lp_mmshare_version>
43012

> <i_f3d_flags>
0

> <s_epik_input>
W0NIM11jMVtjSF1bY0hdYyhbY0hdbjEpW0NIMl1bQ0gyXVtOSF1DKD1PKU4yW0NIMl1bQ0gyXU4oW0NASF0oW0NIM10pQyhGKShGKUYpW0NIMl1bQ0gyXTI=

> <s_epik_cmdline>
J2VwaWtfcHl0aG9uJywgJy1waCcsICc3LjAnLCAnLXRuJywgJzgnLCAnLW1hJywgJzIwMCcsICctbWV0YWxfYmluZGluZycsICctaW1hZScsICc8aW5maWxlLm1hZT4nLCAnLW9tYWUnLCAnPG91dGZpbGUubWFlPic=

> <r_epik_Ionization_Penalty>
0.0782886

> <r_epik_Ionization_Penalty_Charging>
0

> <r_epik_Ionization_Penalty_Neutral>
0.0782886

> <r_epik_State_Penalty>
0.0661423

> <r_epik_Charging_Adjusted_Penalty>
0.0661423

> <i_epik_Tot_Q>
0

> <i_epik_Tot_abs_Q>
0

> <r_epik_Metal_State_Penalty>
0.060629

> <b_epik_Metal_Only>
0

> <s_lp_Force_Field>
OPLS_2005

> <r_lp_Energy>
47.1211

> <b_lp_Chiralities_Consistent>
1

> <s_lp_Variant>
AV-unprocessed.smi:906-2

> <Gold.Version>
5.8.1

> <Gold.Id.Protein>
6NUR|6NUR_protein|mol2

> <Gold.PLP.Fitness>
48.4123

> <Gold.PLP.PLP>
-43.9394

> <Gold.PLP.part.hbond>
-1.0000

> <Gold.PLP.part.metal>
0.0000

> <Gold.PLP.part.buried>
-5.2754

> <Gold.PLP.part.nonpolar>
-39.3103

> <Gold.PLP.part.repulsive>
0.2291

> <Gold.PLP.ligand.clash>
0.0000

> <Gold.PLP.ligand.torsion>
1.0296

> <Gold.PLP.Chemscore.Hbond>
0.9675

> <Gold.PLP.Chemscore.CHOScore>
0.9760

> <Gold.PLP.Chemscore.Metal>
0.0000

> <Gold.Chemscore.Hbonds>
donor molecule, donor type, donor heavy atom, donor atom, acceptor molecule, acceptor atom, score
      P1  H  6896  6908       L1    10  0.94
      L1  C    23    47       P1  7948  0.65

> <Gold.PLP.Chemscore.Internal.Correction>
0.7016

> <Gold.Rescore>
     Score         DG    S(hbond)    S(metal)    S(lipo)     H(rot)  DE(clash)    DE(int)     intcor
     13.34     -14.51       0.98        0.00      83.87       1.58       0.08       1.08       ----

> <Gold.Chemscore.Fitness>
13.3413

> <Gold.Chemscore.DG>
-14.5071

> <Gold.Chemscore.ZeroCoef>
-5.4800

> <Gold.Chemscore.Hbond>
0.9789

> <Gold.Chemscore.Metal>
0.0000

> <Gold.Chemscore.Lipo>
83.8719

> <Gold.Chemscore.Internal_Hbond>
0.0000

> <Gold.Chemscore.DEClash>
0.0849

> <Gold.Chemscore.DEInternal>
1.0809

> <Gold.Chemscore.Rot>
1.5841

> <Gold.Chemscore.Internal.Correction>
   9.000000E+99

> <Gold.Chemscore.Hbonds>
donor molecule, donor type, donor heavy atom, donor atom, acceptor molecule, acceptor atom, score
      P1  H  6896  6908       L1    10  0.88

> <Gold.Chemscore.Hbond.Weighted>
-3.2695

> <Gold.Chemscore.Metal.Weighted>
-0.0000

> <Gold.Chemscore.Lipo.Weighted>
-9.8130

> <Gold.Chemscore.Internal_Hbond.Weighted>
0.0000

> <Gold.Chemscore.DEClash.Weighted>
0.0849

> <Gold.Chemscore.DEInternal.Weighted>
1.0809

> <Gold.Chemscore.Rot.Weighted>
4.0554

> <Gold.Chemscore.Internal.Correction.Weighted>
   9.000000E+99

> <Gold.Protein.RotatedTorsions>
[ 6907 6896 6895 6894 ] final -142.70 input  -60.11 | X-H torsion
[ 7974 7965 7964 7962 ] final  -96.94 input  175.53 | X-H torsion
[ 8008 7997 7996 7995 ] final  -78.78 input   59.86 | X-H torsion
[ 10167 10162 10161 10158 ] final -167.97 input  -65.29 | X-H torsion
[ 10718 10713 10712 10709 ] final   97.46 input   66.30 | X-H torsion
[ 10763 10752 10751 10750 ] final   44.57 input  -60.55 | X-H torsion
[ 11005 11000 10999 10996 ] final  115.70 input  -57.11 | X-H torsion

> <Gold.Protein.ActiveResidues>
 VAL166  LYS551  ARG553  GLY616  TRP617  ASP618  TYR619  PRO620  LYS621  CYS622 
 ASP623  PHE694  ASN695  SER759  ASP760  ASP761  ALA762  ILE779  LEU786  VAL792 
 PHE793  MET794  SER795  GLU796  ALA797  LYS798  CYS799  TRP800  GLU811  SER814 

> <Gold.Protein.RotatedAtoms>
  151.0906  133.5319  159.2614 H   0  0  0  0  0  0  0  0  0  0  0  0  # atno 6907 bound_to 6896
  151.2188  135.0509  159.8951 H   0  0  0  0  0  0  0  0  0  0  0  0  # atno 6908 bound_to 6896
  152.5433  134.0711  159.8248 H   0  0  0  0  0  0  0  0  0  0  0  0  # atno 6909 bound_to 6896
  145.3403  140.9458  143.2611 H   0  0  0  0  0  0  0  0  0  0  0  0  # atno 7974 bound_to 7965
  154.5721  140.0689  156.8980 H   0  0  0  0  0  0  0  0  0  0  0  0  # atno 8008 bound_to 7997
  155.2615  140.3359  155.4254 H   0  0  0  0  0  0  0  0  0  0  0  0  # atno 8009 bound_to 7997
  156.2126  140.1765  156.7645 H   0  0  0  0  0  0  0  0  0  0  0  0  # atno 8010 bound_to 7997
  139.6015  144.1001  152.1748 H   0  0  0  0  0  0  0  0  0  0  0  0  # atno 10167 bound_to 10162
  157.6912  131.0610  150.4648 H   0  0  0  0  0  0  0  0  0  0  0  0  # atno 10718 bound_to 10713
  152.9839  135.6066  154.3296 H   0  0  0  0  0  0  0  0  0  0  0  0  # atno 10763 bound_to 10752
  154.3000  135.2773  155.2617 H   0  0  0  0  0  0  0  0  0  0  0  0  # atno 10764 bound_to 10752
  154.4874  135.5901  153.6490 H   0  0  0  0  0  0  0  0  0  0  0  0  # atno 10765 bound_to 10752
  139.9018  134.9588  156.7086 H   0  0  0  0  0  0  0  0  0  0  0  0  # atno 11005 bound_to 11000
  144.8795  139.4924  143.6729 LP  0  0  0  0  0  0  0  0  0  0  0  0  # atno 17320 bound_to 7965
  146.3010  139.7426  142.9091 LP  0  0  0  0  0  0  0  0  0  0  0  0  # atno 17321 bound_to 7965
  140.0598  144.5866  150.7272 LP  0  0  0  0  0  0  0  0  0  0  0  0  # atno 17342 bound_to 10162
  140.7253  143.2630  151.4141 LP  0  0  0  0  0  0  0  0  0  0  0  0  # atno 17343 bound_to 10162
  156.4990  130.4112  149.6364 LP  0  0  0  0  0  0  0  0  0  0  0  0  # atno 17370 bound_to 10713
  156.3346  130.7350  151.2285 LP  0  0  0  0  0  0  0  0  0  0  0  0  # atno 17371 bound_to 10713
  140.7094  133.9237  155.8074 LP  0  0  0  0  0  0  0  0  0  0  0  0  # atno 17394 bound_to 11000
  141.0312  134.0753  157.4012 LP  0  0  0  0  0  0  0  0  0  0  0  0  # atno 17395 bound_to 11000

$$$$
