AV-unprocessed.smi:139|AV-procd|sdf|1182|dock8
  -GOLD-   2262018333D 1   1.00000     0.00000
 Structure written by MMmdl.
 50 53  0  0  0  0  0  0  0  0  1 V2000
  151.3826  136.1173  154.3553 O   0  0  0  0  0  0  0  0  0  0  0  0
  150.7750  136.4471  155.3746 C   0  0  0  0  0  0  0  0  0  0  0  0
  150.3550  135.3932  156.4088 C   0  0  0  0  0  0  0  0  0  0  0  0
  150.3291  134.0282  155.8402 N   0  0  0  0  0  0  0  0  0  0  0  0
  149.4892  133.7576  154.7312 C   0  0  0  0  0  0  0  0  0  0  0  0
  148.7725  134.6320  154.2425 O   0  0  0  0  0  0  0  0  0  0  0  0
  149.5414  132.3921  154.2204 C   0  0  0  0  0  0  0  0  0  0  0  0
  148.7625  132.0389  153.1839 F   0  0  0  0  0  0  0  0  0  0  0  0
  150.3602  131.4742  154.7742 C   0  0  0  0  0  0  0  0  0  0  0  0
  151.1917  131.7597  155.8410 N   0  0  0  0  0  0  0  0  0  0  0  0
  152.0999  130.7026  156.4251 C   0  0  1  0  0  0  0  0  0  0  0  0
  151.8026  129.3375  155.7932 C   0  0  0  0  0  0  0  0  0  0  0  0
  152.8960  129.2241  154.7522 C   0  0  0  0  0  0  0  0  0  0  0  0
  154.0448  129.9577  155.4330 C   0  0  0  0  0  0  0  0  0  0  0  0
  153.4261  131.0340  156.1292 O   0  0  0  0  0  0  0  0  0  0  0  0
  151.1809  133.0510  156.4097 C   0  0  0  0  0  0  0  0  0  0  0  0
  151.8949  133.3206  157.3784 O   0  0  0  0  0  0  0  0  0  0  0  0
  150.4410  137.7152  155.6560 N   0  0  0  0  0  0  0  0  0  0  0  0
  150.7791  138.8836  154.8473 C   0  0  2  0  0  0  0  0  0  0  0  0
  151.7882  139.7782  155.5951 C   0  0  0  0  0  0  0  0  0  0  0  0
  151.0996  140.6907  156.6143 C   0  0  0  0  0  0  0  0  0  0  0  0
  150.0865  141.6162  155.9302 C   0  0  0  0  0  0  0  0  0  0  0  0
  149.1799  140.8974  154.9423 C   0  0  0  0  0  0  0  0  0  0  0  0
  147.9907  141.5327  154.5268 C   0  0  0  0  0  0  0  0  0  0  0  0
  147.1307  140.9053  153.6058 C   0  0  0  0  0  0  0  0  0  0  0  0
  147.4558  139.6360  153.0940 C   0  0  0  0  0  0  0  0  0  0  0  0
  148.6412  138.9968  153.5020 C   0  0  0  0  0  0  0  0  0  0  0  0
  149.5126  139.6197  154.4220 C   0  0  0  0  0  0  0  0  0  0  0  0
  151.0284  135.4289  157.2676 H   0  0  0  0  0  0  0  0  0  0  0  0
  149.3873  135.6874  156.8168 H   0  0  0  0  0  0  0  0  0  0  0  0
  150.3564  130.4774  154.3590 H   0  0  0  0  0  0  0  0  0  0  0  0
  151.9570  130.7261  157.5065 H   0  0  0  0  0  0  0  0  0  0  0  0
  151.9204  128.5685  156.5575 H   0  0  0  0  0  0  0  0  0  0  0  0
  150.7926  129.2787  155.3855 H   0  0  0  0  0  0  0  0  0  0  0  0
  153.1398  128.1926  154.4968 H   0  0  0  0  0  0  0  0  0  0  0  0
  152.6039  129.7430  153.8386 H   0  0  0  0  0  0  0  0  0  0  0  0
  154.5373  129.3059  156.1561 H   0  0  0  0  0  0  0  0  0  0  0  0
  154.7952  130.3155  154.7277 H   0  0  0  0  0  0  0  0  0  0  0  0
  149.9337  137.8906  156.5112 H   0  0  0  0  0  0  0  0  0  0  0  0
  151.2582  138.5380  153.9290 H   0  0  0  0  0  0  0  0  0  0  0  0
  152.5639  139.1786  156.0734 H   0  0  0  0  0  0  0  0  0  0  0  0
  152.3041  140.4090  154.8701 H   0  0  0  0  0  0  0  0  0  0  0  0
  150.5891  140.0742  157.3551 H   0  0  0  0  0  0  0  0  0  0  0  0
  151.8360  141.2815  157.1597 H   0  0  0  0  0  0  0  0  0  0  0  0
  149.4807  142.1202  156.6843 H   0  0  0  0  0  0  0  0  0  0  0  0
  150.6181  142.3965  155.3844 H   0  0  0  0  0  0  0  0  0  0  0  0
  147.7351  142.5083  154.9140 H   0  0  0  0  0  0  0  0  0  0  0  0
  146.2225  141.3985  153.2925 H   0  0  0  0  0  0  0  0  0  0  0  0
  146.7966  139.1525  152.3884 H   0  0  0  0  0  0  0  0  0  0  0  0
  148.8832  138.0210  153.1063 H   0  0  0  0  0  0  0  0  0  0  0  0
  1  2  2  0  0  0  0
  2  3  1  0  0  0  0
  2 18  1  0  0  0  0
  3  4  1  0  0  0  0
  3 29  1  0  0  0  0
  3 30  1  0  0  0  0
  4 16  1  0  0  0  0
  4  5  1  0  0  0  0
  5  6  2  0  0  0  0
  5  7  1  0  0  0  0
  7  8  1  0  0  0  0
  7  9  2  0  0  0  0
  9 10  1  0  0  0  0
  9 31  1  0  0  0  0
 10 11  1  0  0  0  0
 10 16  1  0  0  0  0
 11 15  1  0  0  0  0
 11 12  1  0  0  0  0
 11 32  1  0  0  0  0
 12 13  1  0  0  0  0
 12 33  1  0  0  0  0
 12 34  1  0  0  0  0
 13 14  1  0  0  0  0
 13 35  1  0  0  0  0
 13 36  1  0  0  0  0
 14 15  1  0  0  0  0
 14 37  1  0  0  0  0
 14 38  1  0  0  0  0
 16 17  2  0  0  0  0
 18 19  1  0  0  0  0
 18 39  1  0  0  0  0
 19 28  1  0  0  0  0
 19 20  1  0  0  0  0
 19 40  1  0  0  0  0
 20 21  1  0  0  0  0
 20 41  1  0  0  0  0
 20 42  1  0  0  0  0
 21 22  1  0  0  0  0
 21 43  1  0  0  0  0
 21 44  1  0  0  0  0
 22 23  1  0  0  0  0
 22 45  1  0  0  0  0
 22 46  1  0  0  0  0
 23 28  2  0  0  0  0
 23 24  1  0  0  0  0
 24 25  2  0  0  0  0
 24 47  1  0  0  0  0
 25 26  1  0  0  0  0
 25 48  1  0  0  0  0
 26 27  2  0  0  0  0
 26 49  1  0  0  0  0
 27 28  1  0  0  0  0
 27 50  1  0  0  0  0
M  END
> <s_m_source_file>
AV-unprocessed.smi

> <i_m_source_file_index>
139

> <i_lp_mmshare_version>
43012

> <i_f3d_flags>
0

> <s_epik_input>
W2NIXTFbY0hdW2NIXVtjSF1jKGMxMilbQ0BASF0oW0NIMl1bQ0gyXVtDSDJdMilbTkhdQyg9TylbQ0gyXW4zYyg9TyljKEYpW2NIXW4oYzM9TylbQ0BASF00W0NIMl1bQ0gyXVtDSDJdTzQ=

> <s_epik_cmdline>
J2VwaWtfcHl0aG9uJywgJy1waCcsICc3LjAnLCAnLXRuJywgJzgnLCAnLW1hJywgJzIwMCcsICctbWV0YWxfYmluZGluZycsICctaW1hZScsICc8aW5maWxlLm1hZT4nLCAnLW9tYWUnLCAnPG91dGZpbGUubWFlPic=

> <r_lp_tautomer_probability>
1

> <r_epik_Ionization_Penalty>
3.261e-08

> <r_epik_Ionization_Penalty_Charging>
3.6725e-09

> <r_epik_Ionization_Penalty_Neutral>
2.89375e-08

> <r_epik_State_Penalty>
-0

> <r_epik_Charging_Adjusted_Penalty>
3.6725e-09

> <i_epik_Tot_Q>
0

> <i_epik_Tot_abs_Q>
0

> <r_epik_Metal_State_Penalty>
-0

> <b_epik_Metal_Only>
0

> <s_epik_Chemistry_Notes>
This compound contains an acetal/aminal-like group ( X-CH(R)-Y where X, Y are N, S, or O) that may be acid/base labile, releasing an aldehyde.

> <s_lp_Force_Field>
OPLS_2005

> <r_lp_Energy>
30.9445

> <b_lp_Chiralities_Consistent>
1

> <s_lp_Variant>
AV-unprocessed.smi:139-2

> <Gold.Version>
5.8.1

> <Gold.Id.Protein>
6NUR|6NUR_protein|mol2

> <Gold.PLP.Fitness>
53.1081

> <Gold.PLP.PLP>
-49.1590

> <Gold.PLP.part.hbond>
-2.0000

> <Gold.PLP.part.metal>
0.0000

> <Gold.PLP.part.buried>
-2.9922

> <Gold.PLP.part.nonpolar>
-48.2696

> <Gold.PLP.part.repulsive>
2.6801

> <Gold.PLP.ligand.clash>
0.0000

> <Gold.PLP.ligand.torsion>
0.4560

> <Gold.PLP.Chemscore.Hbond>
1.6080

> <Gold.PLP.Chemscore.CHOScore>
0.0000

> <Gold.PLP.Chemscore.Metal>
0.0000

> <Gold.Chemscore.Hbonds>
donor molecule, donor type, donor heavy atom, donor atom, acceptor molecule, acceptor atom, score
      P1  H  6896  6909       L1    17  0.62
      P1  H 10752 10764       L1     1  1.00

> <Gold.PLP.Chemscore.Internal.Correction>
0.0371

> <Gold.Rescore>
     Score         DG    S(hbond)    S(metal)    S(lipo)     H(rot)  DE(clash)    DE(int)     intcor
     15.71     -17.55       1.81        0.00      91.29       1.82       0.09       1.74       ----

> <Gold.Chemscore.Fitness>
15.7149

> <Gold.Chemscore.DG>
-17.5515

> <Gold.Chemscore.ZeroCoef>
-5.4800

> <Gold.Chemscore.Hbond>
1.8093

> <Gold.Chemscore.Metal>
0.0000

> <Gold.Chemscore.Lipo>
91.2890

> <Gold.Chemscore.Internal_Hbond>
0.0000

> <Gold.Chemscore.DEClash>
0.0937

> <Gold.Chemscore.DEInternal>
1.7430

> <Gold.Chemscore.Rot>
1.8174

> <Gold.Chemscore.Internal.Correction>
   9.000000E+99

> <Gold.Chemscore.Hbonds>
donor molecule, donor type, donor heavy atom, donor atom, acceptor molecule, acceptor atom, score
      P1  H  6896  6909       L1    17  0.62
      P1  H 10752 10764       L1     1  0.98

> <Gold.Chemscore.Hbond.Weighted>
-6.0432

> <Gold.Chemscore.Metal.Weighted>
-0.0000

> <Gold.Chemscore.Lipo.Weighted>
-10.6808

> <Gold.Chemscore.Internal_Hbond.Weighted>
0.0000

> <Gold.Chemscore.DEClash.Weighted>
0.0937

> <Gold.Chemscore.DEInternal.Weighted>
1.7430

> <Gold.Chemscore.Rot.Weighted>
4.6524

> <Gold.Chemscore.Internal.Correction.Weighted>
   9.000000E+99

> <Gold.Protein.RotatedTorsions>
[ 6907 6896 6895 6894 ] final  -50.77 input  -60.11 | X-H torsion
[ 7974 7965 7964 7962 ] final  137.18 input  175.53 | X-H torsion
[ 8008 7997 7996 7995 ] final  138.49 input   59.86 | X-H torsion
[ 10167 10162 10161 10158 ] final -171.41 input  -65.29 | X-H torsion
[ 10718 10713 10712 10709 ] final  106.52 input   66.30 | X-H torsion
[ 10763 10752 10751 10750 ] final  -67.87 input  -60.55 | X-H torsion
[ 11005 11000 10999 10996 ] final  147.14 input  -57.11 | X-H torsion

> <Gold.Protein.ActiveResidues>
 VAL166  LYS551  ARG553  GLY616  TRP617  ASP618  TYR619  PRO620  LYS621  CYS622 
 ASP623  PHE694  ASN695  SER759  ASP760  ASP761  ALA762  ILE779  LEU786  VAL792 
 PHE793  MET794  SER795  GLU796  ALA797  LYS798  CYS799  TRP800  GLU811  SER814 

> <Gold.Protein.RotatedAtoms>
  150.8675  134.8042  159.7129 H   0  0  0  0  0  0  0  0  0  0  0  0  # atno 6907 bound_to 6896
  152.4691  134.5000  159.9731 H   0  0  0  0  0  0  0  0  0  0  0  0  # atno 6908 bound_to 6896
  151.5094  133.3449  159.2918 H   0  0  0  0  0  0  0  0  0  0  0  0  # atno 6909 bound_to 6896
  144.9493  139.4838  143.5534 H   0  0  0  0  0  0  0  0  0  0  0  0  # atno 7974 bound_to 7965
  156.2997  140.2392  156.4082 H   0  0  0  0  0  0  0  0  0  0  0  0  # atno 8008 bound_to 7997
  154.8465  140.0426  157.1596 H   0  0  0  0  0  0  0  0  0  0  0  0  # atno 8009 bound_to 7997
  154.9045  140.2981  155.5303 H   0  0  0  0  0  0  0  0  0  0  0  0  # atno 8010 bound_to 7997
  139.5804  144.1436  152.1507 H   0  0  0  0  0  0  0  0  0  0  0  0  # atno 10167 bound_to 10162
  157.6665  131.0852  150.6019 H   0  0  0  0  0  0  0  0  0  0  0  0  # atno 10718 bound_to 10713
  154.3808  135.6074  153.5790 H   0  0  0  0  0  0  0  0  0  0  0  0  # atno 10763 bound_to 10752
  152.9788  135.5860  154.4412 H   0  0  0  0  0  0  0  0  0  0  0  0  # atno 10764 bound_to 10752
  154.4181  135.2845  155.1971 H   0  0  0  0  0  0  0  0  0  0  0  0  # atno 10765 bound_to 10752
  140.0851  134.9074  157.1562 H   0  0  0  0  0  0  0  0  0  0  0  0  # atno 11005 bound_to 11000
  146.3315  139.8567  142.8863 LP  0  0  0  0  0  0  0  0  0  0  0  0  # atno 17320 bound_to 7965
  145.2869  141.0156  143.3685 LP  0  0  0  0  0  0  0  0  0  0  0  0  # atno 17321 bound_to 7965
  140.0988  144.5557  150.7003 LP  0  0  0  0  0  0  0  0  0  0  0  0  # atno 17342 bound_to 10162
  140.7083  143.2485  151.4660 LP  0  0  0  0  0  0  0  0  0  0  0  0  # atno 17343 bound_to 10162
  156.6320  130.4434  149.5783 LP  0  0  0  0  0  0  0  0  0  0  0  0  # atno 17370 bound_to 10713
  156.2274  130.6774  151.1430 LP  0  0  0  0  0  0  0  0  0  0  0  0  # atno 17371 bound_to 10713
  140.3432  134.2681  155.7209 LP  0  0  0  0  0  0  0  0  0  0  0  0  # atno 17394 bound_to 11000
  141.2060  133.7846  157.0203 LP  0  0  0  0  0  0  0  0  0  0  0  0  # atno 17395 bound_to 11000

$$$$
