AV-unprocessed.smi:320|AV-procd|sdf|2332|dock9
  -GOLD-   2262022233D 1   1.00000     0.00000
 Structure written by MMmdl.
 49 52  0  0  0  0  0  0  0  0  1 V2000
  149.8954  134.1063  156.1580 C   0  0  0  0  0  0  0  0  0  0  0  0
  148.9460  135.1461  155.5283 C   0  0  2  0  0  0  0  0  0  0  0  0
  148.5992  134.7014  154.1776 N   0  0  0  0  0  0  0  0  0  0  0  0
  148.0338  133.5280  153.8555 C   0  0  0  0  0  0  0  0  0  0  0  0
  147.7207  132.6764  154.6888 O   0  0  0  0  0  0  0  0  0  0  0  0
  147.7771  133.3008  152.3587 C   0  0  0  0  0  0  0  0  0  0  0  0
  146.3504  133.1578  152.0238 N   0  0  0  0  0  0  0  0  0  0  0  0
  145.9407  131.9230  151.4825 C   0  0  0  0  0  0  0  0  0  0  0  0
  144.6654  131.6877  151.1361 C   0  0  0  0  0  0  0  0  0  0  0  0
  143.6993  132.7425  151.3314 C   0  0  0  0  0  0  0  0  0  0  0  0
  144.0810  133.9290  151.8447 C   0  0  0  0  0  0  0  0  0  0  0  0
  145.4748  134.1915  152.2224 C   0  0  0  0  0  0  0  0  0  0  0  0
  145.8332  135.2738  152.6879 O   0  0  0  0  0  0  0  0  0  0  0  0
  149.4780  136.6148  155.5129 C   0  0  0  0  0  0  0  0  0  0  0  0
  149.7494  137.0852  156.9731 C   0  0  0  0  0  0  0  0  0  0  0  0
  150.2986  138.5267  156.9977 C   0  0  2  0  0  0  0  0  0  0  0  0
  149.2691  139.4788  156.3553 C   0  0  0  0  0  0  0  0  0  0  0  0
  149.0203  139.0459  154.8960 C   0  0  1  0  0  0  0  0  0  0  0  0
  150.3440  139.1079  154.1062 C   0  0  0  0  0  0  0  0  0  0  0  0
  151.3684  138.1560  154.7577 C   0  0  1  0  0  0  0  0  0  0  0  0
  151.6250  138.5870  156.2149 C   0  0  0  0  0  0  0  0  0  0  0  0
  150.8199  136.7132  154.7315 C   0  0  0  0  0  0  0  0  0  0  0  0
  148.4649  137.6049  154.8677 C   0  0  0  0  0  0  0  0  0  0  0  0
  150.0970  134.3187  157.2070 H   0  0  0  0  0  0  0  0  0  0  0  0
  150.8489  134.0532  155.6335 H   0  0  0  0  0  0  0  0  0  0  0  0
  149.4537  133.1097  156.1236 H   0  0  0  0  0  0  0  0  0  0  0  0
  148.0384  135.1484  156.1350 H   0  0  0  0  0  0  0  0  0  0  0  0
  148.8146  135.3398  153.4256 H   0  0  0  0  0  0  0  0  0  0  0  0
  148.2169  134.1335  151.8080 H   0  0  0  0  0  0  0  0  0  0  0  0
  148.3294  132.4182  152.0294 H   0  0  0  0  0  0  0  0  0  0  0  0
  146.7255  131.1904  151.3617 H   0  0  0  0  0  0  0  0  0  0  0  0
  144.3711  130.7361  150.7183 H   0  0  0  0  0  0  0  0  0  0  0  0
  142.6656  132.5801  151.0637 H   0  0  0  0  0  0  0  0  0  0  0  0
  143.3446  134.7073  151.9820 H   0  0  0  0  0  0  0  0  0  0  0  0
  148.8387  137.0455  157.5713 H   0  0  0  0  0  0  0  0  0  0  0  0
  150.4585  136.4136  157.4588 H   0  0  0  0  0  0  0  0  0  0  0  0
  150.4754  138.8289  158.0304 H   0  0  0  0  0  0  0  0  0  0  0  0
  148.3355  139.4628  156.9190 H   0  0  0  0  0  0  0  0  0  0  0  0
  149.6326  140.5066  156.3888 H   0  0  0  0  0  0  0  0  0  0  0  0
  148.2958  139.7203  154.4387 H   0  0  0  0  0  0  0  0  0  0  0  0
  150.1768  138.8298  153.0649 H   0  0  0  0  0  0  0  0  0  0  0  0
  150.7299  140.1280  154.0951 H   0  0  0  0  0  0  0  0  0  0  0  0
  152.3044  138.1968  154.1996 H   0  0  0  0  0  0  0  0  0  0  0  0
  152.0368  139.5966  156.2448 H   0  0  0  0  0  0  0  0  0  0  0  0
  152.3683  137.9358  156.6769 H   0  0  0  0  0  0  0  0  0  0  0  0
  151.5557  136.0282  155.1553 H   0  0  0  0  0  0  0  0  0  0  0  0
  150.6872  136.4150  153.6919 H   0  0  0  0  0  0  0  0  0  0  0  0
  148.2558  137.3227  153.8357 H   0  0  0  0  0  0  0  0  0  0  0  0
  147.5083  137.5775  155.3907 H   0  0  0  0  0  0  0  0  0  0  0  0
  1  2  1  0  0  0  0
  1 24  1  0  0  0  0
  1 25  1  0  0  0  0
  1 26  1  0  0  0  0
  2  3  1  0  0  0  0
  2 14  1  0  0  0  0
  2 27  1  0  0  0  0
  3  4  1  0  0  0  0
  3 28  1  0  0  0  0
  4  5  2  0  0  0  0
  4  6  1  0  0  0  0
  6  7  1  0  0  0  0
  6 29  1  0  0  0  0
  6 30  1  0  0  0  0
  7 12  1  0  0  0  0
  7  8  1  0  0  0  0
  8  9  2  0  0  0  0
  8 31  1  0  0  0  0
  9 10  1  0  0  0  0
  9 32  1  0  0  0  0
 10 11  2  0  0  0  0
 10 33  1  0  0  0  0
 11 12  1  0  0  0  0
 11 34  1  0  0  0  0
 12 13  2  0  0  0  0
 14 22  1  0  0  0  0
 14 23  1  0  0  0  0
 14 15  1  0  0  0  0
 15 16  1  0  0  0  0
 15 35  1  0  0  0  0
 15 36  1  0  0  0  0
 16 21  1  0  0  0  0
 16 17  1  0  0  0  0
 16 37  1  0  0  0  0
 17 18  1  0  0  0  0
 17 38  1  0  0  0  0
 17 39  1  0  0  0  0
 18 19  1  0  0  0  0
 18 23  1  0  0  0  0
 18 40  1  0  0  0  0
 19 20  1  0  0  0  0
 19 41  1  0  0  0  0
 19 42  1  0  0  0  0
 20 21  1  0  0  0  0
 20 22  1  0  0  0  0
 20 43  1  0  0  0  0
 21 44  1  0  0  0  0
 21 45  1  0  0  0  0
 22 46  1  0  0  0  0
 22 47  1  0  0  0  0
 23 48  1  0  0  0  0
 23 49  1  0  0  0  0
M  END
> <s_m_source_file>
AV-unprocessed.smi

> <i_m_source_file_index>
320

> <i_lp_mmshare_version>
43012

> <i_f3d_flags>
0

> <s_epik_input>
W0NIMl0xW0NAQEhdKFtDSDJdMilbQ0gyXVtDQEBIXShbQ0gyXTMpW0NIMl1bQ0BIXTFbQ0gyXUMyM1tDQEhdKFtDSDNdKVtOSF1DKD1PKVtDSDJdbjRbY0hdW2NIXVtjSF1bY0hdYzQ9Tw==

> <s_epik_cmdline>
J2VwaWtfcHl0aG9uJywgJy1waCcsICc3LjAnLCAnLXRuJywgJzgnLCAnLW1hJywgJzIwMCcsICctbWV0YWxfYmluZGluZycsICctaW1hZScsICc8aW5maWxlLm1hZT4nLCAnLW9tYWUnLCAnPG91dGZpbGUubWFlPic=

> <r_lp_tautomer_probability>
1

> <r_epik_Ionization_Penalty>
4.15949e-07

> <r_epik_Ionization_Penalty_Charging>
3.97363e-07

> <r_epik_Ionization_Penalty_Neutral>
1.85865e-08

> <r_epik_State_Penalty>
-0

> <r_epik_Charging_Adjusted_Penalty>
3.97363e-07

> <i_epik_Tot_Q>
0

> <i_epik_Tot_abs_Q>
0

> <r_epik_Metal_State_Penalty>
-0

> <b_epik_Metal_Only>
0

> <s_lp_Force_Field>
OPLS_2005

> <r_lp_Energy>
45.4177

> <b_lp_Chiralities_Consistent>
1

> <s_lp_Variant>
AV-unprocessed.smi:320-1

> <Gold.Version>
5.8.1

> <Gold.Id.Protein>
6NUR|6NUR_protein|mol2

> <Gold.PLP.Fitness>
38.8843

> <Gold.PLP.PLP>
-32.9276

> <Gold.PLP.part.hbond>
-1.0000

> <Gold.PLP.part.metal>
0.0000

> <Gold.PLP.part.buried>
-4.0594

> <Gold.PLP.part.nonpolar>
-27.8586

> <Gold.PLP.part.repulsive>
0.1175

> <Gold.PLP.ligand.clash>
0.0000

> <Gold.PLP.ligand.torsion>
0.0475

> <Gold.PLP.Chemscore.Hbond>
1.0000

> <Gold.PLP.Chemscore.CHOScore>
1.0000

> <Gold.PLP.Chemscore.Metal>
0.0000

> <Gold.Chemscore.Hbonds>
donor molecule, donor type, donor heavy atom, donor atom, acceptor molecule, acceptor atom, score
      L1  H     3    28       P1  7948  1.00
      L1  C     8    31       P1 10747  1.00

> <Gold.PLP.Chemscore.Internal.Correction>
0.0516

> <Gold.Rescore>
     Score         DG    S(hbond)    S(metal)    S(lipo)     H(rot)  DE(clash)    DE(int)     intcor
     13.97     -15.42       0.88        0.00      93.04       1.52       0.07       1.38       ----

> <Gold.Chemscore.Fitness>
13.9741

> <Gold.Chemscore.DG>
-15.4201

> <Gold.Chemscore.ZeroCoef>
-5.4800

> <Gold.Chemscore.Hbond>
0.8820

> <Gold.Chemscore.Metal>
0.0000

> <Gold.Chemscore.Lipo>
93.0424

> <Gold.Chemscore.Internal_Hbond>
0.0000

> <Gold.Chemscore.DEClash>
0.0708

> <Gold.Chemscore.DEInternal>
1.3752

> <Gold.Chemscore.Rot>
1.5202

> <Gold.Chemscore.Internal.Correction>
   9.000000E+99

> <Gold.Chemscore.Hbonds>
donor molecule, donor type, donor heavy atom, donor atom, acceptor molecule, acceptor atom, score
      L1  H     3    28       P1  7948  0.78

> <Gold.Chemscore.Hbond.Weighted>
-2.9457

> <Gold.Chemscore.Metal.Weighted>
-0.0000

> <Gold.Chemscore.Lipo.Weighted>
-10.8860

> <Gold.Chemscore.Internal_Hbond.Weighted>
0.0000

> <Gold.Chemscore.DEClash.Weighted>
0.0708

> <Gold.Chemscore.DEInternal.Weighted>
1.3752

> <Gold.Chemscore.Rot.Weighted>
3.8916

> <Gold.Chemscore.Internal.Correction.Weighted>
   9.000000E+99

> <Gold.Protein.RotatedTorsions>
[ 6907 6896 6895 6894 ] final -139.82 input  -60.11 | X-H torsion
[ 7974 7965 7964 7962 ] final  123.89 input  175.53 | X-H torsion
[ 8008 7997 7996 7995 ] final  -75.73 input   59.86 | X-H torsion
[ 10167 10162 10161 10158 ] final   79.88 input  -65.29 | X-H torsion
[ 10718 10713 10712 10709 ] final  -85.33 input   66.30 | X-H torsion
[ 10763 10752 10751 10750 ] final  -92.62 input  -60.55 | X-H torsion
[ 11005 11000 10999 10996 ] final -104.81 input  -57.11 | X-H torsion

> <Gold.Protein.ActiveResidues>
 VAL166  LYS551  ARG553  GLY616  TRP617  ASP618  TYR619  PRO620  LYS621  CYS622 
 ASP623  PHE694  ASN695  SER759  ASP760  ASP761  ALA762  ILE779  LEU786  VAL792 
 PHE793  MET794  SER795  GLU796  ALA797  LYS798  CYS799  TRP800  GLU811  SER814 

> <Gold.Protein.RotatedAtoms>
  151.0527  133.5611  159.2640 H   0  0  0  0  0  0  0  0  0  0  0  0  # atno 6907 bound_to 6896
  151.2616  135.0655  159.9110 H   0  0  0  0  0  0  0  0  0  0  0  0  # atno 6908 bound_to 6896
  152.5384  134.0271  159.8062 H   0  0  0  0  0  0  0  0  0  0  0  0  # atno 6909 bound_to 6896
  145.0906  139.3589  143.4862 H   0  0  0  0  0  0  0  0  0  0  0  0  # atno 7974 bound_to 7965
  154.5442  140.0739  156.8561 H   0  0  0  0  0  0  0  0  0  0  0  0  # atno 8008 bound_to 7997
  155.3119  140.3391  155.4225 H   0  0  0  0  0  0  0  0  0  0  0  0  # atno 8009 bound_to 7997
  156.1903  140.1684  156.8091 H   0  0  0  0  0  0  0  0  0  0  0  0  # atno 8010 bound_to 7997
  139.9556  144.5996  150.8119 H   0  0  0  0  0  0  0  0  0  0  0  0  # atno 10167 bound_to 10162
  155.9998  130.4727  150.4546 H   0  0  0  0  0  0  0  0  0  0  0  0  # atno 10718 bound_to 10713
  154.6879  135.5224  153.8351 H   0  0  0  0  0  0  0  0  0  0  0  0  # atno 10763 bound_to 10752
  153.0610  135.6568  154.0472 H   0  0  0  0  0  0  0  0  0  0  0  0  # atno 10764 bound_to 10752
  154.0350  135.2982  155.3343 H   0  0  0  0  0  0  0  0  0  0  0  0  # atno 10765 bound_to 10752
  141.1083  133.8754  157.1656 H   0  0  0  0  0  0  0  0  0  0  0  0  # atno 11005 bound_to 11000
  146.3531  140.0739  142.8621 LP  0  0  0  0  0  0  0  0  0  0  0  0  # atno 17320 bound_to 7965
  145.1070  140.9381  143.4679 LP  0  0  0  0  0  0  0  0  0  0  0  0  # atno 17321 bound_to 7965
  140.7569  143.3076  151.2925 LP  0  0  0  0  0  0  0  0  0  0  0  0  # atno 17342 bound_to 10162
  139.6594  144.0217  152.2682 LP  0  0  0  0  0  0  0  0  0  0  0  0  # atno 17343 bound_to 10162
  157.2576  131.0560  151.2341 LP  0  0  0  0  0  0  0  0  0  0  0  0  # atno 17370 bound_to 10713
  157.3467  130.7061  149.6415 LP  0  0  0  0  0  0  0  0  0  0  0  0  # atno 17371 bound_to 10713
  139.9964  135.0045  157.0092 LP  0  0  0  0  0  0  0  0  0  0  0  0  # atno 17394 bound_to 11000
  140.4843  134.1257  155.7222 LP  0  0  0  0  0  0  0  0  0  0  0  0  # atno 17395 bound_to 11000

$$$$
