AV-unprocessed.smi:1295|AV-procd|sdf|5403|dock5
  -GOLD-   22720 4563D 1   1.00000     0.00000
 Structure written by MMmdl.
 43 44  0  0  0  0  0  0  0  0  1 V2000
  153.4090  142.3534  162.3296 C   0  0  0  0  0  0  0  0  0  0  0  0
  152.7924  142.5414  160.9598 C   0  0  0  0  0  0  0  0  0  0  0  0
  152.1094  143.5824  160.6135 N   0  0  0  0  0  0  0  0  0  0  0  0
  151.5898  143.6458  159.3133 C   0  0  0  0  0  0  0  0  0  0  0  0
  150.8150  144.9081  158.9772 C   0  0  0  0  0  0  0  0  0  0  0  0
  151.7842  142.6366  158.4147 C   0  0  0  0  0  0  0  0  0  0  0  0
  151.2480  142.6861  156.9829 C   0  0  0  0  0  0  0  0  0  0  0  0
  150.3140  141.5397  156.5891 C   0  0  0  0  0  0  0  0  0  0  0  0
  150.7427  140.3885  156.5230 O   0  0  0  0  0  0  0  0  0  0  0  0
  149.0401  141.8767  156.3383 N   0  0  0  0  0  0  0  0  0  0  0  0
  147.9400  140.9665  156.0289 C   0  0  2  0  0  0  0  0  0  0  0  0
  148.0309  140.5027  154.5612 C   0  0  0  0  0  0  0  0  0  0  0  0
  147.7382  141.6456  153.5733 C   0  0  0  0  0  0  0  0  0  0  0  0
  146.3791  142.2990  153.8662 C   0  0  0  0  0  0  0  0  0  0  0  0
  146.2914  142.7836  155.3224 C   0  0  0  0  0  0  0  0  0  0  0  0
  146.5761  141.6410  156.3202 C   0  0  2  0  0  0  0  0  0  0  0  0
  146.4495  142.1222  157.7769 C   0  0  0  0  0  0  0  0  0  0  0  0
  152.5696  141.4544  158.8198 C   0  0  0  0  0  0  0  0  0  0  0  0
  152.8243  140.5017  158.0847 O   0  0  0  0  0  0  0  0  0  0  0  0
  153.0310  141.4787  160.0901 N   0  0  0  0  0  0  0  0  0  0  0  0
  153.5753  140.6928  160.4148 H   0  0  0  0  0  0  0  0  0  0  0  0
  154.1036  143.1662  162.5424 H   0  0  0  0  0  0  0  0  0  0  0  0
  153.9543  141.4112  162.4005 H   0  0  0  0  0  0  0  0  0  0  0  0
  152.6323  142.3568  163.0948 H   0  0  0  0  0  0  0  0  0  0  0  0
  149.7829  144.6683  158.7212 H   0  0  0  0  0  0  0  0  0  0  0  0
  151.2725  145.4257  158.1338 H   0  0  0  0  0  0  0  0  0  0  0  0
  150.7973  145.5992  159.8209 H   0  0  0  0  0  0  0  0  0  0  0  0
  150.7299  143.6278  156.7984 H   0  0  0  0  0  0  0  0  0  0  0  0
  152.0923  142.6952  156.2931 H   0  0  0  0  0  0  0  0  0  0  0  0
  148.7998  142.8550  156.4045 H   0  0  0  0  0  0  0  0  0  0  0  0
  148.0158  140.0832  156.6655 H   0  0  0  0  0  0  0  0  0  0  0  0
  149.0151  140.0775  154.3600 H   0  0  0  0  0  0  0  0  0  0  0  0
  147.3141  139.6972  154.3960 H   0  0  0  0  0  0  0  0  0  0  0  0
  148.5265  142.3974  153.6323 H   0  0  0  0  0  0  0  0  0  0  0  0
  147.7538  141.2650  152.5516 H   0  0  0  0  0  0  0  0  0  0  0  0
  146.2157  143.1353  153.1860 H   0  0  0  0  0  0  0  0  0  0  0  0
  145.5803  141.5823  153.6717 H   0  0  0  0  0  0  0  0  0  0  0  0
  146.9979  143.6001  155.4782 H   0  0  0  0  0  0  0  0  0  0  0  0
  145.3002  143.1990  155.5066 H   0  0  0  0  0  0  0  0  0  0  0  0
  145.8060  140.8825  156.1710 H   0  0  0  0  0  0  0  0  0  0  0  0
  147.1450  142.9324  157.9987 H   0  0  0  0  0  0  0  0  0  0  0  0
  146.6506  141.3106  158.4766 H   0  0  0  0  0  0  0  0  0  0  0  0
  145.4433  142.4893  157.9803 H   0  0  0  0  0  0  0  0  0  0  0  0
  1  2  1  0  0  0  0
  1 22  1  0  0  0  0
  1 23  1  0  0  0  0
  1 24  1  0  0  0  0
  2 20  1  0  0  0  0
  2  3  2  0  0  0  0
  3  4  1  0  0  0  0
  4  5  1  0  0  0  0
  4  6  2  0  0  0  0
  5 25  1  0  0  0  0
  5 26  1  0  0  0  0
  5 27  1  0  0  0  0
  6  7  1  0  0  0  0
  6 18  1  0  0  0  0
  7  8  1  0  0  0  0
  7 28  1  0  0  0  0
  7 29  1  0  0  0  0
  8  9  2  0  0  0  0
  8 10  1  0  0  0  0
 10 11  1  0  0  0  0
 10 30  1  0  0  0  0
 11 16  1  0  0  0  0
 11 12  1  0  0  0  0
 11 31  1  0  0  0  0
 12 13  1  0  0  0  0
 12 32  1  0  0  0  0
 12 33  1  0  0  0  0
 13 14  1  0  0  0  0
 13 34  1  0  0  0  0
 13 35  1  0  0  0  0
 14 15  1  0  0  0  0
 14 36  1  0  0  0  0
 14 37  1  0  0  0  0
 15 16  1  0  0  0  0
 15 38  1  0  0  0  0
 15 39  1  0  0  0  0
 16 17  1  0  0  0  0
 16 40  1  0  0  0  0
 17 41  1  0  0  0  0
 17 42  1  0  0  0  0
 17 43  1  0  0  0  0
 18 19  2  0  0  0  0
 18 20  1  0  0  0  0
 20 21  1  0  0  0  0
M  END
> <s_m_source_file>
AV-unprocessed.smi

> <i_m_source_file_index>
1295

> <i_lp_mmshare_version>
43012

> <i_f3d_flags>
0

> <s_epik_input>
W0NIM11jMW5jKFtDSDNdKWMoYyg9TylbbkhdMSlbQ0gyXUMoPU8pW05IXVtDQEBIXTJbQ0gyXVtDSDJdW0NIMl1bQ0gyXVtDQEhdMltDSDNd

> <s_epik_cmdline>
J2VwaWtfcHl0aG9uJywgJy1waCcsICc3LjAnLCAnLXRuJywgJzgnLCAnLW1hJywgJzIwMCcsICctbWV0YWxfYmluZGluZycsICctaW1hZScsICc8aW5maWxlLm1hZT4nLCAnLW9tYWUnLCAnPG91dGZpbGUubWFlPic=

> <r_lp_tautomer_probability>
0.839158

> <r_epik_Ionization_Penalty>
0.00037085

> <r_epik_Ionization_Penalty_Charging>
0.000336002

> <r_epik_Ionization_Penalty_Neutral>
3.48485e-05

> <r_epik_State_Penalty>
0.09125

> <r_epik_Charging_Adjusted_Penalty>
0.091586

> <i_epik_Tot_Q>
0

> <i_epik_Tot_abs_Q>
0

> <r_epik_Metal_State_Penalty>
0.251445

> <b_epik_Metal_Only>
0

> <s_lp_Force_Field>
OPLS_2005

> <r_lp_Energy>
10.0645

> <b_lp_Chiralities_Consistent>
1

> <s_lp_Variant>
AV-unprocessed.smi:1295-3

> <Gold.Version>
5.8.1

> <Gold.Id.Protein>
6NUR|6NUR_protein|mol2

> <Gold.PLP.Fitness>
42.5153

> <Gold.PLP.PLP>
-37.7285

> <Gold.PLP.part.hbond>
-2.0000

> <Gold.PLP.part.metal>
0.0000

> <Gold.PLP.part.buried>
-5.7540

> <Gold.PLP.part.nonpolar>
-28.9445

> <Gold.PLP.part.repulsive>
0.2076

> <Gold.PLP.ligand.clash>
0.0000

> <Gold.PLP.ligand.torsion>
0.3099

> <Gold.PLP.Chemscore.Hbond>
1.7992

> <Gold.PLP.Chemscore.CHOScore>
0.0000

> <Gold.PLP.Chemscore.Metal>
0.0000

> <Gold.Chemscore.Hbonds>
donor molecule, donor type, donor heavy atom, donor atom, acceptor molecule, acceptor atom, score
      L1  H    10    30       P1  8028  1.00
      P1  H  7997  8008       L1    19  0.69

> <Gold.PLP.Chemscore.Internal.Correction>
0.0088

> <Gold.Rescore>
     Score         DG    S(hbond)    S(metal)    S(lipo)     H(rot)  DE(clash)    DE(int)     intcor
     14.92     -17.24       1.76        0.00      82.62       1.48       0.44       1.88       ----

> <Gold.Chemscore.Fitness>
14.9201

> <Gold.Chemscore.DG>
-17.2367

> <Gold.Chemscore.ZeroCoef>
-5.4800

> <Gold.Chemscore.Hbond>
1.7603

> <Gold.Chemscore.Metal>
0.0000

> <Gold.Chemscore.Lipo>
82.6188

> <Gold.Chemscore.Internal_Hbond>
0.0000

> <Gold.Chemscore.DEClash>
0.4403

> <Gold.Chemscore.DEInternal>
1.8763

> <Gold.Chemscore.Rot>
1.4801

> <Gold.Chemscore.Internal.Correction>
   9.000000E+99

> <Gold.Chemscore.Hbonds>
donor molecule, donor type, donor heavy atom, donor atom, acceptor molecule, acceptor atom, score
      L1  H    10    30       P1  8028  0.89
      P1  H  7997  8008       L1    19  0.68

> <Gold.Chemscore.Hbond.Weighted>
-5.8794

> <Gold.Chemscore.Metal.Weighted>
-0.0000

> <Gold.Chemscore.Lipo.Weighted>
-9.6664

> <Gold.Chemscore.Internal_Hbond.Weighted>
0.0000

> <Gold.Chemscore.DEClash.Weighted>
0.4403

> <Gold.Chemscore.DEInternal.Weighted>
1.8763

> <Gold.Chemscore.Rot.Weighted>
3.7891

> <Gold.Chemscore.Internal.Correction.Weighted>
   9.000000E+99

> <Gold.Protein.RotatedTorsions>
[ 6907 6896 6895 6894 ] final   20.09 input  -60.11 | X-H torsion
[ 7974 7965 7964 7962 ] final  162.88 input  175.53 | X-H torsion
[ 8008 7997 7996 7995 ] final  -72.74 input   59.86 | X-H torsion
[ 10167 10162 10161 10158 ] final  107.45 input  -65.29 | X-H torsion
[ 10718 10713 10712 10709 ] final  -15.28 input   66.30 | X-H torsion
[ 10763 10752 10751 10750 ] final   48.98 input  -60.55 | X-H torsion
[ 11005 11000 10999 10996 ] final  161.73 input  -57.11 | X-H torsion

> <Gold.Protein.ActiveResidues>
 VAL166  LYS551  ARG553  GLY616  TRP617  ASP618  TYR619  PRO620  LYS621  CYS622 
 ASP623  PHE694  ASN695  SER759  ASP760  ASP761  ALA762  ILE779  LEU786  VAL792 
 PHE793  MET794  SER795  GLU796  ALA797  LYS798  CYS799  TRP800  GLU811  SER814 

> <Gold.Protein.RotatedAtoms>
  151.8911  135.0416  160.0497 H   0  0  0  0  0  0  0  0  0  0  0  0  # atno 6907 bound_to 6896
  152.2435  133.5151  159.5292 H   0  0  0  0  0  0  0  0  0  0  0  0  # atno 6908 bound_to 6896
  150.7061  134.0973  159.3995 H   0  0  0  0  0  0  0  0  0  0  0  0  # atno 6909 bound_to 6896
  144.7615  139.8103  143.6330 H   0  0  0  0  0  0  0  0  0  0  0  0  # atno 7974 bound_to 7965
  154.5190  140.0792  156.8137 H   0  0  0  0  0  0  0  0  0  0  0  0  # atno 8008 bound_to 7997
  155.3616  140.3418  155.4223 H   0  0  0  0  0  0  0  0  0  0  0  0  # atno 8009 bound_to 7997
  156.1660  140.1604  156.8517 H   0  0  0  0  0  0  0  0  0  0  0  0  # atno 8010 bound_to 7997
  139.6926  144.7106  151.1323 H   0  0  0  0  0  0  0  0  0  0  0  0  # atno 10167 bound_to 10162
  156.6040  130.4832  149.6228 H   0  0  0  0  0  0  0  0  0  0  0  0  # atno 10718 bound_to 10713
  152.9789  135.5926  154.4014 H   0  0  0  0  0  0  0  0  0  0  0  0  # atno 10763 bound_to 10752
  154.3659  135.2767  155.2295 H   0  0  0  0  0  0  0  0  0  0  0  0  # atno 10764 bound_to 10752
  154.4272  135.6045  153.6101 H   0  0  0  0  0  0  0  0  0  0  0  0  # atno 10765 bound_to 10752
  140.2187  134.8212  157.3198 H   0  0  0  0  0  0  0  0  0  0  0  0  # atno 11005 bound_to 11000
  146.1683  139.4824  142.9944 LP  0  0  0  0  0  0  0  0  0  0  0  0  # atno 17320 bound_to 7965
  145.6603  141.0242  143.1712 LP  0  0  0  0  0  0  0  0  0  0  0  0  # atno 17321 bound_to 7965
  140.7687  143.5538  150.9175 LP  0  0  0  0  0  0  0  0  0  0  0  0  # atno 17342 bound_to 10162
  139.9216  143.6599  152.3095 LP  0  0  0  0  0  0  0  0  0  0  0  0  # atno 17343 bound_to 10162
  156.2445  130.6871  151.1587 LP  0  0  0  0  0  0  0  0  0  0  0  0  # atno 17370 bound_to 10713
  157.7272  131.0641  150.5876 LP  0  0  0  0  0  0  0  0  0  0  0  0  # atno 17371 bound_to 10713
  140.1872  134.4416  155.7737 LP  0  0  0  0  0  0  0  0  0  0  0  0  # atno 17394 bound_to 11000
  141.2224  133.7010  156.7967 LP  0  0  0  0  0  0  0  0  0  0  0  0  # atno 17395 bound_to 11000

$$$$
