AV-unprocessed.smi:37|AV-procd|sdf|326|dock8
  -GOLD-   2262016153D 1   1.00000     0.00000
 Structure written by MMmdl.
 43 44  0  0  0  0  0  0  0  0  2 V2000
  144.5783  134.0451  159.8250 C   0  0  0  0  0  0  0  0  0  0  0  0
  145.0745  135.1058  160.8169 C   0  0  0  0  0  0  0  0  0  0  0  0
  145.6966  136.3079  160.1104 C   0  0  0  0  0  0  0  0  0  0  0  0
  145.1961  137.4299  160.1913 O   0  0  0  0  0  0  0  0  0  0  0  0
  146.8021  135.9867  159.4215 O   0  0  0  0  0  0  0  0  0  0  0  0
  147.6622  137.0133  158.9571 C   0  0  0  0  0  0  0  0  0  0  0  0
  148.8799  136.3788  158.2730 C   0  0  1  0  0  0  0  0  0  0  0  0
  148.5724  135.9770  156.9430 O   0  0  0  0  0  0  0  0  0  0  0  0
  149.7349  135.9740  156.1646 C   0  0  2  0  0  0  0  0  0  0  0  0
  150.0422  134.5658  155.7069 N   0  0  0  0  0  0  0  0  0  0  0  0
  150.4054  134.2959  154.3974 C   0  0  0  0  0  0  0  0  0  0  0  0
  150.6819  133.0386  153.9955 C   0  0  0  0  0  0  0  0  0  0  0  0
  151.0266  132.8054  152.7173 F   0  0  0  0  0  0  0  0  0  0  0  0
  150.6015  131.9380  154.9543 C   0  0  0  0  0  0  0  0  0  0  0  0
  150.8607  130.7944  154.5829 O   0  0  0  0  0  0  0  0  0  0  0  0
  150.2372  132.2335  156.2358 N   0  5  0  0  0  0  0  0  0  0  0  0
  149.9513  133.5036  156.6464 C   0  0  0  0  0  0  0  0  0  0  0  0
  149.6092  133.7805  157.7963 O   0  0  0  0  0  0  0  0  0  0  0  0
  150.8654  136.5980  157.0120 C   0  0  2  0  0  0  0  0  0  0  0  0
  152.0465  135.2466  157.8941 Br  0  0  0  0  0  0  0  0  0  0  0  0
  150.0792  137.3133  158.0971 C   0  0  1  0  0  0  0  0  0  0  0  0
  149.6399  138.5911  157.6467 O   0  0  0  0  0  0  0  0  0  0  0  0
  150.5223  139.5890  157.4594 C   0  0  0  0  0  0  0  0  0  0  0  0
  151.7402  139.5167  157.6237 O   0  0  0  0  0  0  0  0  0  0  0  0
  149.8577  140.8811  156.9893 C   0  0  0  0  0  0  0  0  0  0  0  0
  150.2338  142.0814  157.8692 C   0  0  0  0  0  0  0  0  0  0  0  0
  144.1616  133.1895  160.3561 H   0  0  0  0  0  0  0  0  0  0  0  0
  145.3916  133.6794  159.1971 H   0  0  0  0  0  0  0  0  0  0  0  0
  143.7984  134.4395  159.1723 H   0  0  0  0  0  0  0  0  0  0  0  0
  144.2488  135.4517  161.4390 H   0  0  0  0  0  0  0  0  0  0  0  0
  145.8146  134.6684  161.4876 H   0  0  0  0  0  0  0  0  0  0  0  0
  147.1360  137.6767  158.2689 H   0  0  0  0  0  0  0  0  0  0  0  0
  147.9868  137.6118  159.8094 H   0  0  0  0  0  0  0  0  0  0  0  0
  149.2017  135.5004  158.8351 H   0  0  0  0  0  0  0  0  0  0  0  0
  149.5134  136.5421  155.2593 H   0  0  0  0  0  0  0  0  0  0  0  0
  150.4643  135.0943  153.6731 H   0  0  0  0  0  0  0  0  0  0  0  0
  151.4944  137.2524  156.4076 H   0  0  0  0  0  0  0  0  0  0  0  0
  150.6448  137.4113  159.0253 H   0  0  0  0  0  0  0  0  0  0  0  0
  150.1532  141.0734  155.9574 H   0  0  0  0  0  0  0  0  0  0  0  0
  148.7764  140.7415  156.9879 H   0  0  0  0  0  0  0  0  0  0  0  0
  149.7870  142.9966  157.4808 H   0  0  0  0  0  0  0  0  0  0  0  0
  151.3140  142.2282  157.8994 H   0  0  0  0  0  0  0  0  0  0  0  0
  149.8825  141.9527  158.8937 H   0  0  0  0  0  0  0  0  0  0  0  0
  1  2  1  0  0  0  0
  1 27  1  0  0  0  0
  1 28  1  0  0  0  0
  1 29  1  0  0  0  0
  2  3  1  0  0  0  0
  2 30  1  0  0  0  0
  2 31  1  0  0  0  0
  3  4  2  0  0  0  0
  3  5  1  0  0  0  0
  5  6  1  0  0  0  0
  6  7  1  0  0  0  0
  6 32  1  0  0  0  0
  6 33  1  0  0  0  0
  7 21  1  0  0  0  0
  7  8  1  0  0  0  0
  7 34  1  0  0  0  0
  8  9  1  0  0  0  0
  9 10  1  0  0  0  0
  9 19  1  0  0  0  0
  9 35  1  0  0  0  0
 10 17  1  0  0  0  0
 10 11  1  0  0  0  0
 11 12  2  0  0  0  0
 11 36  1  0  0  0  0
 12 13  1  0  0  0  0
 12 14  1  0  0  0  0
 14 15  2  0  0  0  0
 14 16  1  0  0  0  0
 16 17  1  0  0  0  0
 17 18  2  0  0  0  0
 19 20  1  0  0  0  0
 19 21  1  0  0  0  0
 19 37  1  0  0  0  0
 21 22  1  0  0  0  0
 21 38  1  0  0  0  0
 22 23  1  0  0  0  0
 23 24  2  0  0  0  0
 23 25  1  0  0  0  0
 25 26  1  0  0  0  0
 25 39  1  0  0  0  0
 25 40  1  0  0  0  0
 26 41  1  0  0  0  0
 26 42  1  0  0  0  0
 26 43  1  0  0  0  0
M  CHG  1  16  -1
M  END
> <s_m_source_file>
AV-unprocessed.smi

> <i_m_source_file_index>
37

> <i_lp_mmshare_version>
43012

> <i_f3d_flags>
0

> <s_epik_input>
W0NIM11bQ0gyXUMoPU8pT1tDSDJdW0NAQEhdMU9bQ0BASF0objJbY0hdYyhGKWMoPU8pW25IXWMyPU8pW0NAQEhdKEJyKVtDQEhdMU9DKD1PKVtDSDJdW0NIM10=

> <s_epik_cmdline>
J2VwaWtfcHl0aG9uJywgJy1waCcsICc3LjAnLCAnLXRuJywgJzgnLCAnLW1hJywgJzIwMCcsICctbWV0YWxfYmluZGluZycsICctaW1hZScsICc8aW5maWxlLm1hZT4nLCAnLW9tYWUnLCAnPG91dGZpbGUubWFlPic=

> <r_epik_Ionization_Penalty>
1.08158

> <r_epik_Ionization_Penalty_Charging>
9.05154e-09

> <r_epik_Ionization_Penalty_Neutral>
1.08158

> <r_epik_State_Penalty>
1.13706

> <r_epik_Charging_Adjusted_Penalty>
1.13706

> <i_epik_Tot_Q>
-1

> <i_epik_Tot_abs_Q>
1

> <r_epik_Metal_State_Penalty>
0.00343535

> <b_epik_Metal_Only>
0

> <s_epik_Chemistry_Notes>
This compound has an ester and may undergo hydrolysis at high or low pH. This compound contains an acetal/aminal-like group ( X-CH(R)-Y where X, Y are N, S, or O) that may be acid/base labile, releasing an aldehyde.

> <s_lp_Force_Field>
OPLS_2005

> <r_lp_Energy>
32.8467

> <b_lp_Chiralities_Consistent>
1

> <s_lp_Variant>
AV-unprocessed.smi:37-24

> <Gold.Version>
5.8.1

> <Gold.Id.Protein>
6NUR|6NUR_protein|mol2

> <Gold.PLP.Fitness>
41.2150

> <Gold.PLP.PLP>
-32.9350

> <Gold.PLP.part.hbond>
-3.0000

> <Gold.PLP.part.metal>
0.0000

> <Gold.PLP.part.buried>
0.1309

> <Gold.PLP.part.nonpolar>
-29.1543

> <Gold.PLP.part.repulsive>
0.0568

> <Gold.PLP.ligand.clash>
0.4332

> <Gold.PLP.ligand.torsion>
0.8107

> <Gold.PLP.Chemscore.Hbond>
2.3782

> <Gold.PLP.Chemscore.CHOScore>
1.0000

> <Gold.PLP.Chemscore.Metal>
0.0000

> <Gold.Chemscore.Hbonds>
donor molecule, donor type, donor heavy atom, donor atom, acceptor molecule, acceptor atom, score
      P1  H  6896  6909       L1    18  1.00
      L1  C    11    36       P1  7949  0.12

> <Gold.PLP.Chemscore.Internal.Correction>
0.2002

> <Gold.Rescore>
     Score         DG    S(hbond)    S(metal)    S(lipo)     H(rot)  DE(clash)    DE(int)     intcor
      5.00     -10.78       2.09        0.00      57.05       3.27       1.53       4.25       ----

> <Gold.Chemscore.Fitness>
5.0014

> <Gold.Chemscore.DG>
-10.7785

> <Gold.Chemscore.ZeroCoef>
-5.4800

> <Gold.Chemscore.Hbond>
2.0917

> <Gold.Chemscore.Metal>
0.0000

> <Gold.Chemscore.Lipo>
57.0550

> <Gold.Chemscore.Internal_Hbond>
0.0000

> <Gold.Chemscore.DEClash>
1.5309

> <Gold.Chemscore.DEInternal>
4.2462

> <Gold.Chemscore.Rot>
3.2669

> <Gold.Chemscore.Internal.Correction>
   9.000000E+99

> <Gold.Chemscore.Hbonds>
donor molecule, donor type, donor heavy atom, donor atom, acceptor molecule, acceptor atom, score
      P1  H  6896  6909       L1    18  0.91

> <Gold.Chemscore.Hbond.Weighted>
-6.9864

> <Gold.Chemscore.Metal.Weighted>
-0.0000

> <Gold.Chemscore.Lipo.Weighted>
-6.6754

> <Gold.Chemscore.Internal_Hbond.Weighted>
0.0000

> <Gold.Chemscore.DEClash.Weighted>
1.5309

> <Gold.Chemscore.DEInternal.Weighted>
4.2462

> <Gold.Chemscore.Rot.Weighted>
8.3634

> <Gold.Chemscore.Internal.Correction.Weighted>
   9.000000E+99

> <Gold.Protein.RotatedTorsions>
[ 6907 6896 6895 6894 ] final  -11.55 input  -60.11 | X-H torsion
[ 7974 7965 7964 7962 ] final -135.16 input  175.53 | X-H torsion
[ 8008 7997 7996 7995 ] final -132.38 input   59.86 | X-H torsion
[ 10167 10162 10161 10158 ] final  147.88 input  -65.29 | X-H torsion
[ 10718 10713 10712 10709 ] final  169.16 input   66.30 | X-H torsion
[ 10763 10752 10751 10750 ] final   64.76 input  -60.55 | X-H torsion
[ 11005 11000 10999 10996 ] final -138.29 input  -57.11 | X-H torsion

> <Gold.Protein.ActiveResidues>
 VAL166  LYS551  ARG553  GLY616  TRP617  ASP618  TYR619  PRO620  LYS621  CYS622 
 ASP623  PHE694  ASN695  SER759  ASP760  ASP761  ALA762  ILE779  LEU786  VAL792 
 PHE793  MET794  SER795  GLU796  ALA797  LYS798  CYS799  TRP800  GLU811  SER814 

> <Gold.Protein.RotatedAtoms>
  151.3844  135.0945  159.9505 H   0  0  0  0  0  0  0  0  0  0  0  0  # atno 6907 bound_to 6896
  152.5099  133.9041  159.7466 H   0  0  0  0  0  0  0  0  0  0  0  0  # atno 6908 bound_to 6896
  150.9481  133.6525  159.2806 H   0  0  0  0  0  0  0  0  0  0  0  0  # atno 6909 bound_to 6896
  144.9039  140.6807  143.5068 H   0  0  0  0  0  0  0  0  0  0  0  0  # atno 7974 bound_to 7965
  155.3280  140.0465  157.3041 H   0  0  0  0  0  0  0  0  0  0  0  0  # atno 8008 bound_to 7997
  154.5344  140.2267  155.8714 H   0  0  0  0  0  0  0  0  0  0  0  0  # atno 8009 bound_to 7997
  156.1820  140.3071  155.9173 H   0  0  0  0  0  0  0  0  0  0  0  0  # atno 8010 bound_to 7997
  139.4883  144.5722  151.7034 H   0  0  0  0  0  0  0  0  0  0  0  0  # atno 10167 bound_to 10162
  157.0266  131.0247  151.2758 H   0  0  0  0  0  0  0  0  0  0  0  0  # atno 10718 bound_to 10713
  153.0068  135.5381  154.6560 H   0  0  0  0  0  0  0  0  0  0  0  0  # atno 10763 bound_to 10752
  154.5781  135.2847  155.0763 H   0  0  0  0  0  0  0  0  0  0  0  0  # atno 10764 bound_to 10752
  154.1902  135.6501  153.5110 H   0  0  0  0  0  0  0  0  0  0  0  0  # atno 10765 bound_to 10752
  140.8630  134.2145  157.4696 H   0  0  0  0  0  0  0  0  0  0  0  0  # atno 11005 bound_to 11000
  145.3570  139.1691  143.4404 LP  0  0  0  0  0  0  0  0  0  0  0  0  # atno 17320 bound_to 7965
  146.3123  140.3628  142.8666 LP  0  0  0  0  0  0  0  0  0  0  0  0  # atno 17321 bound_to 7965
  140.5311  144.0729  150.6054 LP  0  0  0  0  0  0  0  0  0  0  0  0  # atno 17342 bound_to 10162
  140.3719  143.2850  152.0268 LP  0  0  0  0  0  0  0  0  0  0  0  0  # atno 17343 bound_to 10162
  157.5209  130.7997  149.7808 LP  0  0  0  0  0  0  0  0  0  0  0  0  # atno 17370 bound_to 10713
  156.0084  130.3845  150.2351 LP  0  0  0  0  0  0  0  0  0  0  0  0  # atno 17371 bound_to 10713
  139.8708  134.9738  156.4824 LP  0  0  0  0  0  0  0  0  0  0  0  0  # atno 17394 bound_to 11000
  140.8661  133.8023  155.9315 LP  0  0  0  0  0  0  0  0  0  0  0  0  # atno 17395 bound_to 11000

$$$$
