AV-unprocessed.smi:2473|AV-procd|sdf|9746|dock6
  -GOLD-   2272013383D 1   1.00000     0.00000
 Structure written by MMmdl.
 48 49  0  0  0  0  0  0  0  0  2 V2000
  146.2897  142.3459  153.8675 C   0  0  0  0  0  0  0  0  0  0  0  0
  147.0607  141.1126  154.3595 C   0  0  1  0  0  0  0  0  0  0  0  0
  147.2145  140.0691  153.2347 C   0  0  0  0  0  0  0  0  0  0  0  0
  148.0166  138.8176  153.6601 C   0  0  2  0  0  0  0  0  0  0  0  0
  147.2015  137.7900  154.4681 C   0  0  0  0  0  0  0  0  0  0  0  0
  146.7481  138.0640  155.5796 O   0  0  0  0  0  0  0  0  0  0  0  0
  146.9893  136.6068  153.8733 N   0  0  0  0  0  0  0  0  0  0  0  0
  146.2381  135.5109  154.4686 C   0  0  0  0  0  0  0  0  0  0  0  0
  144.7734  135.5516  154.0155 C   0  0  0  0  0  0  0  0  0  0  0  0
  144.5340  134.7639  152.7652 C   0  0  0  0  0  0  0  0  0  0  0  0
  143.8460  133.6186  152.6895 N   0  3  0  0  0  0  0  0  0  0  0  0
  143.8055  133.1708  151.3970 C   0  0  0  0  0  0  0  0  0  0  0  0
  144.4945  134.0885  150.6478 C   0  0  0  0  0  0  0  0  0  0  0  0
  144.9278  135.0586  151.5150 N   0  0  0  0  0  0  0  0  0  0  0  0
  145.7074  136.2501  151.1721 C   0  0  0  0  0  0  0  0  0  0  0  0
  149.3551  139.2149  154.3335 C   0  0  0  0  0  0  0  0  0  0  0  0
  149.2725  140.3067  155.4355 C   0  0  0  0  0  0  0  0  0  0  0  0
  148.6926  139.7585  156.7582 C   0  0  0  0  0  0  0  0  0  0  0  0
  150.7035  140.7963  155.7384 C   0  0  0  0  0  0  0  0  0  0  0  0
  148.4419  141.5067  154.9190 C   0  0  0  0  0  0  0  0  0  0  0  0
  146.8122  142.8417  153.0487 H   0  0  0  0  0  0  0  0  0  0  0  0
  146.1608  143.0738  154.6692 H   0  0  0  0  0  0  0  0  0  0  0  0
  145.2968  142.0707  153.5112 H   0  0  0  0  0  0  0  0  0  0  0  0
  146.4706  140.6795  155.1657 H   0  0  0  0  0  0  0  0  0  0  0  0
  146.2310  139.7772  152.8630 H   0  0  0  0  0  0  0  0  0  0  0  0
  147.7206  140.5339  152.3874 H   0  0  0  0  0  0  0  0  0  0  0  0
  148.2724  138.2938  152.7376 H   0  0  0  0  0  0  0  0  0  0  0  0
  147.3803  136.4569  152.9542 H   0  0  0  0  0  0  0  0  0  0  0  0
  146.6960  134.5638  154.1787 H   0  0  0  0  0  0  0  0  0  0  0  0
  146.2964  135.5778  155.5559 H   0  0  0  0  0  0  0  0  0  0  0  0
  144.1101  135.1574  154.7862 H   0  0  0  0  0  0  0  0  0  0  0  0
  144.4584  136.5759  153.8112 H   0  0  0  0  0  0  0  0  0  0  0  0
  143.3012  132.2579  151.1145 H   0  0  0  0  0  0  0  0  0  0  0  0
  144.7016  134.1222  149.5879 H   0  0  0  0  0  0  0  0  0  0  0  0
  145.8292  136.3085  150.0901 H   0  0  0  0  0  0  0  0  0  0  0  0
  146.6888  136.1861  151.6419 H   0  0  0  0  0  0  0  0  0  0  0  0
  145.1859  137.1411  151.5227 H   0  0  0  0  0  0  0  0  0  0  0  0
  149.8584  138.3312  154.7286 H   0  0  0  0  0  0  0  0  0  0  0  0
  150.0107  139.5774  153.5402 H   0  0  0  0  0  0  0  0  0  0  0  0
  148.7359  140.5106  157.5466 H   0  0  0  0  0  0  0  0  0  0  0  0
  149.2536  138.8906  157.1062 H   0  0  0  0  0  0  0  0  0  0  0  0
  147.6511  139.4586  156.6749 H   0  0  0  0  0  0  0  0  0  0  0  0
  150.7044  141.5776  156.4994 H   0  0  0  0  0  0  0  0  0  0  0  0
  151.1842  141.2089  154.8508 H   0  0  0  0  0  0  0  0  0  0  0  0
  151.3333  139.9836  156.1020 H   0  0  0  0  0  0  0  0  0  0  0  0
  148.9991  142.0159  154.1308 H   0  0  0  0  0  0  0  0  0  0  0  0
  148.3199  142.2401  155.7173 H   0  0  0  0  0  0  0  0  0  0  0  0
  143.4168  133.1520  153.4787 H   0  0  0  0  0  0  0  0  0  0  0  0
  1  2  1  0  0  0  0
  1 21  1  0  0  0  0
  1 22  1  0  0  0  0
  1 23  1  0  0  0  0
  2 20  1  0  0  0  0
  2  3  1  0  0  0  0
  2 24  1  0  0  0  0
  3  4  1  0  0  0  0
  3 25  1  0  0  0  0
  3 26  1  0  0  0  0
  4  5  1  0  0  0  0
  4 16  1  0  0  0  0
  4 27  1  0  0  0  0
  5  6  2  0  0  0  0
  5  7  1  0  0  0  0
  7  8  1  0  0  0  0
  7 28  1  0  0  0  0
  8  9  1  0  0  0  0
  8 29  1  0  0  0  0
  8 30  1  0  0  0  0
  9 10  1  0  0  0  0
  9 31  1  0  0  0  0
  9 32  1  0  0  0  0
 10 14  1  0  0  0  0
 10 11  2  0  0  0  0
 11 12  1  0  0  0  0
 11 48  1  0  0  0  0
 12 13  2  0  0  0  0
 12 33  1  0  0  0  0
 13 14  1  0  0  0  0
 13 34  1  0  0  0  0
 14 15  1  0  0  0  0
 15 35  1  0  0  0  0
 15 36  1  0  0  0  0
 15 37  1  0  0  0  0
 16 17  1  0  0  0  0
 16 38  1  0  0  0  0
 16 39  1  0  0  0  0
 17 18  1  0  0  0  0
 17 19  1  0  0  0  0
 17 20  1  0  0  0  0
 18 40  1  0  0  0  0
 18 41  1  0  0  0  0
 18 42  1  0  0  0  0
 19 43  1  0  0  0  0
 19 44  1  0  0  0  0
 19 45  1  0  0  0  0
 20 46  1  0  0  0  0
 20 47  1  0  0  0  0
M  CHG  1  11   1
M  END
> <s_m_source_file>
AV-unprocessed.smi

> <i_m_source_file_index>
2473

> <i_lp_mmshare_version>
43012

> <i_f3d_flags>
0

> <s_epik_input>
W0NIM11bQ0BASF0oW0NIMl0xKVtDSDJdW0NASF0oW0NIMl1DMShbQ0gzXSlbQ0gzXSlDKD1PKVtOSF1bQ0gyXVtDSDJdYzJuW2NIXVtjSF1uMltDSDNd

> <s_epik_cmdline>
J2VwaWtfcHl0aG9uJywgJy1waCcsICc3LjAnLCAnLXRuJywgJzgnLCAnLW1hJywgJzIwMCcsICctbWV0YWxfYmluZGluZycsICctaW1hZScsICc8aW5maWxlLm1hZT4nLCAnLW9tYWUnLCAnPG91dGZpbGUubWFlPic=

> <r_lp_tautomer_probability>
1

> <r_epik_Ionization_Penalty>
0.0796112

> <r_epik_Ionization_Penalty_Charging>
0

> <r_epik_Ionization_Penalty_Neutral>
0.0796112

> <r_epik_State_Penalty>
0.0704541

> <r_epik_Charging_Adjusted_Penalty>
0.0704541

> <i_epik_Tot_Q>
1

> <i_epik_Tot_abs_Q>
1

> <r_epik_Metal_State_Penalty>
0.409899

> <b_epik_Metal_Only>
0

> <s_lp_Force_Field>
OPLS_2005

> <r_lp_Energy>
17.0115

> <b_lp_Chiralities_Consistent>
1

> <s_lp_Variant>
AV-unprocessed.smi:2473-4

> <Gold.Version>
5.8.1

> <Gold.Id.Protein>
6NUR|6NUR_protein|mol2

> <Gold.PLP.Fitness>
42.4462

> <Gold.PLP.PLP>
-31.4407

> <Gold.PLP.part.hbond>
-2.0000

> <Gold.PLP.part.metal>
0.0000

> <Gold.PLP.part.buried>
-3.0544

> <Gold.PLP.part.nonpolar>
-27.5344

> <Gold.PLP.part.repulsive>
0.0134

> <Gold.PLP.ligand.clash>
0.0000

> <Gold.PLP.ligand.torsion>
0.5080

> <Gold.PLP.Chemscore.Hbond>
2.9760

> <Gold.PLP.Chemscore.CHOScore>
1.0000

> <Gold.PLP.Chemscore.Metal>
0.0000

> <Gold.Chemscore.Hbonds>
donor molecule, donor type, donor heavy atom, donor atom, acceptor molecule, acceptor atom, score
      L1  H     7    28       P1  7948  0.98
      L1  H    11    48       P1 10957  1.95
      L1  C    13    34       P1  7921  1.00

> <Gold.PLP.Chemscore.Internal.Correction>
0.0936

> <Gold.Rescore>
     Score         DG    S(hbond)    S(metal)    S(lipo)     H(rot)  DE(clash)    DE(int)     intcor
     14.72     -16.71       1.93        0.00      75.55       1.58       0.08       1.90       ----

> <Gold.Chemscore.Fitness>
14.7221

> <Gold.Chemscore.DG>
-16.7113

> <Gold.Chemscore.ZeroCoef>
-5.4800

> <Gold.Chemscore.Hbond>
1.9287

> <Gold.Chemscore.Metal>
0.0000

> <Gold.Chemscore.Lipo>
75.5459

> <Gold.Chemscore.Internal_Hbond>
0.0000

> <Gold.Chemscore.DEClash>
0.0842

> <Gold.Chemscore.DEInternal>
1.9050

> <Gold.Chemscore.Rot>
1.5818

> <Gold.Chemscore.Internal.Correction>
   9.000000E+99

> <Gold.Chemscore.Hbonds>
donor molecule, donor type, donor heavy atom, donor atom, acceptor molecule, acceptor atom, score
      L1  H     7    28       P1  7948  0.93
      L1  H    11    48       P1 10957  0.86

> <Gold.Chemscore.Hbond.Weighted>
-6.4419

> <Gold.Chemscore.Metal.Weighted>
-0.0000

> <Gold.Chemscore.Lipo.Weighted>
-8.8389

> <Gold.Chemscore.Internal_Hbond.Weighted>
0.0000

> <Gold.Chemscore.DEClash.Weighted>
0.0842

> <Gold.Chemscore.DEInternal.Weighted>
1.9050

> <Gold.Chemscore.Rot.Weighted>
4.0495

> <Gold.Chemscore.Internal.Correction.Weighted>
   9.000000E+99

> <Gold.Protein.RotatedTorsions>
[ 6907 6896 6895 6894 ] final -128.33 input  -60.11 | X-H torsion
[ 7974 7965 7964 7962 ] final  -89.46 input  175.53 | X-H torsion
[ 8008 7997 7996 7995 ] final   37.78 input   59.86 | X-H torsion
[ 10167 10162 10161 10158 ] final -143.45 input  -65.29 | X-H torsion
[ 10718 10713 10712 10709 ] final  114.73 input   66.30 | X-H torsion
[ 10763 10752 10751 10750 ] final  119.40 input  -60.55 | X-H torsion
[ 11005 11000 10999 10996 ] final  152.71 input  -57.11 | X-H torsion

> <Gold.Protein.ActiveResidues>
 VAL166  LYS551  ARG553  GLY616  TRP617  ASP618  TYR619  PRO620  LYS621  CYS622 
 ASP623  PHE694  ASN695  SER759  ASP760  ASP761  ALA762  ILE779  LEU786  VAL792 
 PHE793  MET794  SER795  GLU796  ALA797  LYS798  CYS799  TRP800  GLU811  SER814 

> <Gold.Protein.RotatedAtoms>
  150.9168  133.6929  159.2841 H   0  0  0  0  0  0  0  0  0  0  0  0  # atno 6907 bound_to 6896
  151.4398  135.1017  159.9676 H   0  0  0  0  0  0  0  0  0  0  0  0  # atno 6908 bound_to 6896
  152.4959  133.8579  159.7290 H   0  0  0  0  0  0  0  0  0  0  0  0  # atno 6909 bound_to 6896
  145.4395  140.9558  143.2083 H   0  0  0  0  0  0  0  0  0  0  0  0  # atno 7974 bound_to 7965
  155.2093  140.3322  155.4331 H   0  0  0  0  0  0  0  0  0  0  0  0  # atno 8008 bound_to 7997
  156.2376  140.1880  156.7125 H   0  0  0  0  0  0  0  0  0  0  0  0  # atno 8009 bound_to 7997
  154.6088  140.0612  156.9452 H   0  0  0  0  0  0  0  0  0  0  0  0  # atno 8010 bound_to 7997
  139.7992  143.7856  152.2657 H   0  0  0  0  0  0  0  0  0  0  0  0  # atno 10167 bound_to 10162
  157.6264  131.1003  150.7228 H   0  0  0  0  0  0  0  0  0  0  0  0  # atno 10718 bound_to 10713
  153.5824  135.3481  155.2880 H   0  0  0  0  0  0  0  0  0  0  0  0  # atno 10763 bound_to 10752
  154.8666  135.4185  154.2606 H   0  0  0  0  0  0  0  0  0  0  0  0  # atno 10764 bound_to 10752
  153.3395  135.7049  153.6949 H   0  0  0  0  0  0  0  0  0  0  0  0  # atno 10765 bound_to 10752
  140.1333  134.8788  157.2232 H   0  0  0  0  0  0  0  0  0  0  0  0  # atno 11005 bound_to 11000
  144.8130  139.5927  143.7021 LP  0  0  0  0  0  0  0  0  0  0  0  0  # atno 17320 bound_to 7965
  146.2564  139.6311  142.9392 LP  0  0  0  0  0  0  0  0  0  0  0  0  # atno 17321 bound_to 7965
  139.7971  144.7388  150.9875 LP  0  0  0  0  0  0  0  0  0  0  0  0  # atno 17342 bound_to 10162
  140.7820  143.4382  151.0591 LP  0  0  0  0  0  0  0  0  0  0  0  0  # atno 17343 bound_to 10162
  156.7576  130.4788  149.5443 LP  0  0  0  0  0  0  0  0  0  0  0  0  # atno 17370 bound_to 10713
  156.1438  130.6263  151.0504 LP  0  0  0  0  0  0  0  0  0  0  0  0  # atno 17371 bound_to 10713
  140.2815  134.3344  155.7342 LP  0  0  0  0  0  0  0  0  0  0  0  0  # atno 17394 bound_to 11000
  141.2174  133.7481  156.9371 LP  0  0  0  0  0  0  0  0  0  0  0  0  # atno 17395 bound_to 11000

$$$$
