AV-unprocessed.smi:2568|AV-procd|sdf|10088|dock2
  -GOLD-   2272014113D 1   1.00000     0.00000
 Structure written by MMmdl.
 25 26  0  0  0  0  0  0  0  0  2 V2000
  153.8373  137.3322  157.6794 C   0  0  0  0  0  0  0  0  0  0  0  0
  152.8220  138.4064  157.8770 C   0  0  0  0  0  0  0  0  0  0  0  0
  151.5129  138.1743  157.7643 N   0  0  0  0  0  0  0  0  0  0  0  0
  150.8355  139.3202  157.9886 N   0  0  0  0  0  0  0  0  0  0  0  0
  151.8202  140.1804  158.2454 C   0  0  0  0  0  0  0  0  0  0  0  0
  151.5238  141.6232  158.5133 C   0  0  2  0  0  0  0  0  0  0  0  0
  150.8846  142.3214  157.2982 C   0  0  0  0  0  0  0  0  0  0  0  0
  150.7025  143.7575  157.5843 N   0  3  0  0  0  0  0  0  0  0  0  0
  151.9720  144.3927  157.9908 C   0  0  0  0  0  0  0  0  0  0  0  0
  152.5962  143.6271  159.1715 C   0  0  0  0  0  0  0  0  0  0  0  0
  152.7634  142.2561  158.8244 O   0  0  0  0  0  0  0  0  0  0  0  0
  153.0898  139.6736  158.1726 N   0  0  0  0  0  0  0  0  0  0  0  0
  151.0604  137.2991  157.5407 H   0  0  0  0  0  0  0  0  0  0  0  0
  154.8430  137.7237  157.8353 H   0  0  0  0  0  0  0  0  0  0  0  0
  153.7704  136.9358  156.6661 H   0  0  0  0  0  0  0  0  0  0  0  0
  153.6662  136.5201  158.3867 H   0  0  0  0  0  0  0  0  0  0  0  0
  150.8605  141.6891  159.3784 H   0  0  0  0  0  0  0  0  0  0  0  0
  151.5184  142.2112  156.4170 H   0  0  0  0  0  0  0  0  0  0  0  0
  149.9191  141.8746  157.0591 H   0  0  0  0  0  0  0  0  0  0  0  0
  150.3419  144.2213  156.7625 H   0  0  0  0  0  0  0  0  0  0  0  0
  152.6568  144.3992  157.1419 H   0  0  0  0  0  0  0  0  0  0  0  0
  151.7860  145.4319  158.2623 H   0  0  0  0  0  0  0  0  0  0  0  0
  153.5693  144.0501  159.4209 H   0  0  0  0  0  0  0  0  0  0  0  0
  151.9744  143.7131  160.0640 H   0  0  0  0  0  0  0  0  0  0  0  0
  150.0356  143.8551  158.3370 H   0  0  0  0  0  0  0  0  0  0  0  0
  1 14  1  0  0  0  0
  1 15  1  0  0  0  0
  1 16  1  0  0  0  0
  1  2  1  0  0  0  0
  2 12  2  0  0  0  0
  2  3  1  0  0  0  0
  3  4  1  0  0  0  0
  3 13  1  0  0  0  0
  4  5  2  0  0  0  0
  5 12  1  0  0  0  0
  5  6  1  0  0  0  0
  6 11  1  0  0  0  0
  6  7  1  0  0  0  0
  6 17  1  0  0  0  0
  7  8  1  0  0  0  0
  7 18  1  0  0  0  0
  7 19  1  0  0  0  0
  8  9  1  0  0  0  0
  8 20  1  0  0  0  0
  8 25  1  0  0  0  0
  9 10  1  0  0  0  0
  9 21  1  0  0  0  0
  9 22  1  0  0  0  0
 10 11  1  0  0  0  0
 10 23  1  0  0  0  0
 10 24  1  0  0  0  0
M  CHG  1   8   1
M  END
> <s_m_source_file>
AV-unprocessed.smi

> <i_m_source_file_index>
2568

> <i_lp_mmshare_version>
43012

> <i_f3d_flags>
0

> <s_epik_input>
W0NIM11jMW5bbkhdYyhuMSlbQ0BASF0yW0NIMl1bTkhdW0NIMl1bQ0gyXU8y

> <s_epik_cmdline>
J2VwaWtfcHl0aG9uJywgJy1waCcsICc3LjAnLCAnLXRuJywgJzgnLCAnLW1hJywgJzIwMCcsICctbWV0YWxfYmluZGluZycsICctaW1hZScsICc8aW5maWxlLm1hZT4nLCAnLW9tYWUnLCAnPG91dGZpbGUubWFlPic=

> <r_lp_tautomer_probability>
0.948284

> <r_epik_Ionization_Penalty>
0.107151

> <r_epik_Ionization_Penalty_Charging>
0.100865

> <r_epik_Ionization_Penalty_Neutral>
0.00628602

> <r_epik_State_Penalty>
0.200426

> <r_epik_Charging_Adjusted_Penalty>
0.30129

> <i_epik_Tot_Q>
1

> <i_epik_Tot_abs_Q>
1

> <r_epik_Metal_State_Penalty>
0.501686

> <b_epik_Metal_Only>
0

> <s_lp_Force_Field>
OPLS_2005

> <r_lp_Energy>
11.0041

> <b_lp_Chiralities_Consistent>
1

> <s_lp_Variant>
AV-unprocessed.smi:2568-1

> <Gold.Version>
5.8.1

> <Gold.Id.Protein>
6NUR|6NUR_protein|mol2

> <Gold.PLP.Fitness>
29.5443

> <Gold.PLP.PLP>
-20.6430

> <Gold.PLP.part.hbond>
-2.0000

> <Gold.PLP.part.metal>
0.0000

> <Gold.PLP.part.buried>
-3.7306

> <Gold.PLP.part.nonpolar>
-15.4365

> <Gold.PLP.part.repulsive>
0.0604

> <Gold.PLP.ligand.clash>
0.0000

> <Gold.PLP.ligand.torsion>
0.0565

> <Gold.PLP.Chemscore.Hbond>
3.0000

> <Gold.PLP.Chemscore.CHOScore>
0.0000

> <Gold.PLP.Chemscore.Metal>
0.0000

> <Gold.Chemscore.Hbonds>
donor molecule, donor type, donor heavy atom, donor atom, acceptor molecule, acceptor atom, score
      L1  H     8    20       P1  8028  2.00
      P1  H  7997  8010       L1    12  1.00

> <Gold.PLP.Chemscore.Internal.Correction>
0.0143

> <Gold.Rescore>
     Score         DG    S(hbond)    S(metal)    S(lipo)     H(rot)  DE(clash)    DE(int)     intcor
     14.03     -14.44       1.96        0.00      42.68       1.00       0.30       0.11       ----

> <Gold.Chemscore.Fitness>
14.0331

> <Gold.Chemscore.DG>
-14.4441

> <Gold.Chemscore.ZeroCoef>
-5.4800

> <Gold.Chemscore.Hbond>
1.9551

> <Gold.Chemscore.Metal>
0.0000

> <Gold.Chemscore.Lipo>
42.6836

> <Gold.Chemscore.Internal_Hbond>
0.0000

> <Gold.Chemscore.DEClash>
0.2987

> <Gold.Chemscore.DEInternal>
0.1123

> <Gold.Chemscore.Rot>
1.0000

> <Gold.Chemscore.Internal.Correction>
   9.000000E+99

> <Gold.Chemscore.Hbonds>
donor molecule, donor type, donor heavy atom, donor atom, acceptor molecule, acceptor atom, score
      L1  H     8    20       P1  8028  0.94
      P1  H  7997  8010       L1    12  0.34

> <Gold.Chemscore.Hbond.Weighted>
-6.5301

> <Gold.Chemscore.Metal.Weighted>
-0.0000

> <Gold.Chemscore.Lipo.Weighted>
-4.9940

> <Gold.Chemscore.Internal_Hbond.Weighted>
0.0000

> <Gold.Chemscore.DEClash.Weighted>
0.2987

> <Gold.Chemscore.DEInternal.Weighted>
0.1123

> <Gold.Chemscore.Rot.Weighted>
2.5600

> <Gold.Chemscore.Internal.Correction.Weighted>
   9.000000E+99

> <Gold.Protein.RotatedTorsions>
[ 6907 6896 6895 6894 ] final  -84.96 input  -60.11 | X-H torsion
[ 7974 7965 7964 7962 ] final   29.37 input  175.53 | X-H torsion
[ 8008 7997 7996 7995 ] final   32.89 input   59.86 | X-H torsion
[ 10167 10162 10161 10158 ] final  -70.84 input  -65.29 | X-H torsion
[ 10718 10713 10712 10709 ] final  -85.88 input   66.30 | X-H torsion
[ 10763 10752 10751 10750 ] final  129.61 input  -60.55 | X-H torsion
[ 11005 11000 10999 10996 ] final  -59.57 input  -57.11 | X-H torsion

> <Gold.Protein.ActiveResidues>
 VAL166  LYS551  ARG553  GLY616  TRP617  ASP618  TYR619  PRO620  LYS621  CYS622 
 ASP623  PHE694  ASN695  SER759  ASP760  ASP761  ALA762  ILE779  LEU786  VAL792 
 PHE793  MET794  SER795  GLU796  ALA797  LYS798  CYS799  TRP800  GLU811  SER814 

> <Gold.Protein.RotatedAtoms>
  150.6873  134.3278  159.4813 H   0  0  0  0  0  0  0  0  0  0  0  0  # atno 6907 bound_to 6896
  152.1146  134.9247  160.0574 H   0  0  0  0  0  0  0  0  0  0  0  0  # atno 6908 bound_to 6896
  152.0476  133.3970  159.4400 H   0  0  0  0  0  0  0  0  0  0  0  0  # atno 6909 bound_to 6896
  146.1675  139.6931  142.8990 H   0  0  0  0  0  0  0  0  0  0  0  0  # atno 7974 bound_to 7965
  155.1298  140.3256  155.4477 H   0  0  0  0  0  0  0  0  0  0  0  0  # atno 8008 bound_to 7997
  156.2638  140.2012  156.6366 H   0  0  0  0  0  0  0  0  0  0  0  0  # atno 8009 bound_to 7997
  154.6621  140.0546  157.0061 H   0  0  0  0  0  0  0  0  0  0  0  0  # atno 8010 bound_to 7997
  140.5321  143.2321  151.7244 H   0  0  0  0  0  0  0  0  0  0  0  0  # atno 10167 bound_to 10162
  155.9993  130.4746  150.4629 H   0  0  0  0  0  0  0  0  0  0  0  0  # atno 10718 bound_to 10713
  153.7445  135.3219  155.3310 H   0  0  0  0  0  0  0  0  0  0  0  0  # atno 10763 bound_to 10752
  154.8284  135.4552  154.0993 H   0  0  0  0  0  0  0  0  0  0  0  0  # atno 10764 bound_to 10752
  153.2178  135.6944  153.8118 H   0  0  0  0  0  0  0  0  0  0  0  0  # atno 10765 bound_to 10752
  141.1253  133.6617  156.5091 H   0  0  0  0  0  0  0  0  0  0  0  0  # atno 11005 bound_to 11000
  145.4427  141.0423  143.2848 LP  0  0  0  0  0  0  0  0  0  0  0  0  # atno 17320 bound_to 7965
  144.8114  139.5955  143.7027 LP  0  0  0  0  0  0  0  0  0  0  0  0  # atno 17321 bound_to 7965
  139.4958  144.4099  152.0092 LP  0  0  0  0  0  0  0  0  0  0  0  0  # atno 17342 bound_to 10162
  140.3202  144.3437  150.6011 LP  0  0  0  0  0  0  0  0  0  0  0  0  # atno 17343 bound_to 10162
  157.2652  131.0575  151.2295 LP  0  0  0  0  0  0  0  0  0  0  0  0  # atno 17370 bound_to 10713
  157.3395  130.7026  149.6373 LP  0  0  0  0  0  0  0  0  0  0  0  0  # atno 17371 bound_to 10713
  140.4383  134.7038  157.4978 LP  0  0  0  0  0  0  0  0  0  0  0  0  # atno 17394 bound_to 11000
  140.0246  134.6496  155.9191 LP  0  0  0  0  0  0  0  0  0  0  0  0  # atno 17395 bound_to 11000

$$$$
