AV-unprocessed.smi:754|AV-procd|sdf|3610|dock8
  -GOLD-   22720 1 03D 1   1.00000     0.00000
 Structure written by MMmdl.
 37 38  0  0  0  0  0  0  0  0  1 V2000
  151.6635  144.1538  161.6244 C   0  0  0  0  0  0  0  0  0  0  0  0
  151.3387  144.0672  160.1315 C   0  0  0  0  0  0  0  0  0  0  0  0
  150.9509  142.7391  159.8223 O   0  0  0  0  0  0  0  0  0  0  0  0
  150.5961  142.5714  158.4587 C   0  0  1  0  0  0  0  0  0  0  0  0
  151.6196  143.1195  157.4600 C   0  0  0  0  0  0  0  0  0  0  0  0
  151.3866  141.8515  156.6321 C   0  0  2  0  0  0  0  0  0  0  0  0
  150.3440  142.0649  155.6293 N   0  0  0  0  0  0  0  0  0  0  0  0
  150.0866  141.2375  154.6057 C   0  0  0  0  0  0  0  0  0  0  0  0
  150.7650  140.2444  154.3455 O   0  0  0  0  0  0  0  0  0  0  0  0
  148.8505  141.5619  153.7684 C   0  0  0  0  0  0  0  0  0  0  0  0
  147.6746  141.6407  154.6148 N   0  0  0  0  0  0  0  0  0  0  0  0
  146.3747  141.5803  154.3179 C   0  0  0  0  0  0  0  0  0  0  0  0
  145.6213  141.6606  155.4038 N   0  0  0  0  0  0  0  0  0  0  0  0
  146.5507  141.7799  156.4238 N   0  0  0  0  0  0  0  0  0  0  0  0
  147.7707  141.7672  155.9619 N   0  0  0  0  0  0  0  0  0  0  0  0
  150.8768  141.1465  157.9229 C   0  0  0  0  0  0  0  0  0  0  0  0
  151.9583  140.3523  158.6676 C   0  0  0  0  0  0  0  0  0  0  0  0
  149.6568  140.2227  157.8134 C   0  0  0  0  0  0  0  0  0  0  0  0
  151.9702  145.1632  161.8981 H   0  0  0  0  0  0  0  0  0  0  0  0
  152.4741  143.4741  161.8882 H   0  0  0  0  0  0  0  0  0  0  0  0
  150.7954  143.8919  162.2298 H   0  0  0  0  0  0  0  0  0  0  0  0
  150.5338  144.7609  159.8850 H   0  0  0  0  0  0  0  0  0  0  0  0
  152.2127  144.3541  159.5454 H   0  0  0  0  0  0  0  0  0  0  0  0
  149.5780  142.9006  158.2384 H   0  0  0  0  0  0  0  0  0  0  0  0
  151.3312  144.0549  156.9786 H   0  0  0  0  0  0  0  0  0  0  0  0
  152.6287  143.1769  157.8711 H   0  0  0  0  0  0  0  0  0  0  0  0
  152.3119  141.4322  156.2325 H   0  0  0  0  0  0  0  0  0  0  0  0
  149.7346  142.8589  155.7649 H   0  0  0  0  0  0  0  0  0  0  0  0
  148.9882  142.5077  153.2422 H   0  0  0  0  0  0  0  0  0  0  0  0
  148.6910  140.7891  153.0153 H   0  0  0  0  0  0  0  0  0  0  0  0
  145.9851  141.4670  153.3169 H   0  0  0  0  0  0  0  0  0  0  0  0
  152.2429  139.4559  158.1160 H   0  0  0  0  0  0  0  0  0  0  0  0
  151.6178  140.0365  159.6543 H   0  0  0  0  0  0  0  0  0  0  0  0
  152.8657  140.9386  158.8155 H   0  0  0  0  0  0  0  0  0  0  0  0
  149.8629  139.3640  157.1737 H   0  0  0  0  0  0  0  0  0  0  0  0
  148.7899  140.7365  157.3974 H   0  0  0  0  0  0  0  0  0  0  0  0
  149.3538  139.8417  158.7891 H   0  0  0  0  0  0  0  0  0  0  0  0
  1  2  1  0  0  0  0
  1 19  1  0  0  0  0
  1 20  1  0  0  0  0
  1 21  1  0  0  0  0
  2  3  1  0  0  0  0
  2 22  1  0  0  0  0
  2 23  1  0  0  0  0
  3  4  1  0  0  0  0
  4 16  1  0  0  0  0
  4  5  1  0  0  0  0
  4 24  1  0  0  0  0
  5  6  1  0  0  0  0
  5 25  1  0  0  0  0
  5 26  1  0  0  0  0
  6  7  1  0  0  0  0
  6 16  1  0  0  0  0
  6 27  1  0  0  0  0
  7  8  1  0  0  0  0
  7 28  1  0  0  0  0
  8  9  2  0  0  0  0
  8 10  1  0  0  0  0
 10 11  1  0  0  0  0
 10 29  1  0  0  0  0
 10 30  1  0  0  0  0
 11 15  1  0  0  0  0
 11 12  1  0  0  0  0
 12 13  2  0  0  0  0
 12 31  1  0  0  0  0
 13 14  1  0  0  0  0
 14 15  2  0  0  0  0
 16 17  1  0  0  0  0
 16 18  1  0  0  0  0
 17 32  1  0  0  0  0
 17 33  1  0  0  0  0
 17 34  1  0  0  0  0
 18 35  1  0  0  0  0
 18 36  1  0  0  0  0
 18 37  1  0  0  0  0
M  END
> <s_m_source_file>
AV-unprocessed.smi

> <i_m_source_file_index>
754

> <i_lp_mmshare_version>
43012

> <i_f3d_flags>
0

> <s_epik_input>
W0NIM11bQ0gyXU9bQ0BASF0oQzEoW0NIM10pW0NIM10pW0NIMl1bQ0BIXTFbTkhdQyg9TylbQ0gyXW4yW2NIXW5ubjI=

> <s_epik_cmdline>
J2VwaWtfcHl0aG9uJywgJy1waCcsICc3LjAnLCAnLXRuJywgJzgnLCAnLW1hJywgJzIwMCcsICctbWV0YWxfYmluZGluZycsICctaW1hZScsICc8aW5maWxlLm1hZT4nLCAnLW9tYWUnLCAnPG91dGZpbGUubWFlPic=

> <r_lp_tautomer_probability>
1

> <r_epik_Ionization_Penalty>
8.28422e-07

> <r_epik_Ionization_Penalty_Charging>
0

> <r_epik_Ionization_Penalty_Neutral>
8.28422e-07

> <r_epik_State_Penalty>
-0

> <r_epik_Charging_Adjusted_Penalty>
0

> <i_epik_Tot_Q>
0

> <i_epik_Tot_abs_Q>
0

> <r_epik_Metal_State_Penalty>
-0

> <b_epik_Metal_Only>
0

> <s_lp_Force_Field>
OPLS_2005

> <r_lp_Energy>
21.5247

> <b_lp_Chiralities_Consistent>
1

> <s_lp_Variant>
AV-unprocessed.smi:754-4

> <Gold.Version>
5.8.1

> <Gold.Id.Protein>
6NUR|6NUR_protein|mol2

> <Gold.PLP.Fitness>
40.8465

> <Gold.PLP.PLP>
-32.9591

> <Gold.PLP.part.hbond>
-2.9679

> <Gold.PLP.part.metal>
0.0000

> <Gold.PLP.part.buried>
-5.8006

> <Gold.PLP.part.nonpolar>
-24.0475

> <Gold.PLP.part.repulsive>
0.5498

> <Gold.PLP.ligand.clash>
0.0000

> <Gold.PLP.ligand.torsion>
0.7015

> <Gold.PLP.Chemscore.Hbond>
1.9920

> <Gold.PLP.Chemscore.CHOScore>
0.9952

> <Gold.PLP.Chemscore.Metal>
0.0000

> <Gold.Chemscore.Hbonds>
donor molecule, donor type, donor heavy atom, donor atom, acceptor molecule, acceptor atom, score
      L1  H     7    28       P1  8028  0.96
      P1  H  7989  7998       L1     9  0.47
      L1  C    12    31       P1 10175  0.64

> <Gold.PLP.Chemscore.Internal.Correction>
0.3290

> <Gold.Rescore>
     Score         DG    S(hbond)    S(metal)    S(lipo)     H(rot)  DE(clash)    DE(int)     intcor
      9.84     -13.17       1.63        0.00      72.97       2.46       0.14       3.19       ----

> <Gold.Chemscore.Fitness>
9.8356

> <Gold.Chemscore.DG>
-13.1702

> <Gold.Chemscore.ZeroCoef>
-5.4800

> <Gold.Chemscore.Hbond>
1.6332

> <Gold.Chemscore.Metal>
0.0000

> <Gold.Chemscore.Lipo>
72.9653

> <Gold.Chemscore.Internal_Hbond>
0.0000

> <Gold.Chemscore.DEClash>
0.1440

> <Gold.Chemscore.DEInternal>
3.1905

> <Gold.Chemscore.Rot>
2.4616

> <Gold.Chemscore.Internal.Correction>
   9.000000E+99

> <Gold.Chemscore.Hbonds>
donor molecule, donor type, donor heavy atom, donor atom, acceptor molecule, acceptor atom, score
      L1  H     7    28       P1  8028  0.91
      P1  H  7989  7998       L1     9  0.07

> <Gold.Chemscore.Hbond.Weighted>
-5.4548

> <Gold.Chemscore.Metal.Weighted>
-0.0000

> <Gold.Chemscore.Lipo.Weighted>
-8.5369

> <Gold.Chemscore.Internal_Hbond.Weighted>
0.0000

> <Gold.Chemscore.DEClash.Weighted>
0.1440

> <Gold.Chemscore.DEInternal.Weighted>
3.1905

> <Gold.Chemscore.Rot.Weighted>
6.3016

> <Gold.Chemscore.Internal.Correction.Weighted>
   9.000000E+99

> <Gold.Protein.RotatedTorsions>
[ 6907 6896 6895 6894 ] final   94.04 input  -60.11 | X-H torsion
[ 7974 7965 7964 7962 ] final  166.35 input  175.53 | X-H torsion
[ 8008 7997 7996 7995 ] final  153.66 input   59.86 | X-H torsion
[ 10167 10162 10161 10158 ] final  166.54 input  -65.29 | X-H torsion
[ 10718 10713 10712 10709 ] final  -37.14 input   66.30 | X-H torsion
[ 10763 10752 10751 10750 ] final   56.99 input  -60.55 | X-H torsion
[ 11005 11000 10999 10996 ] final -119.65 input  -57.11 | X-H torsion

> <Gold.Protein.ActiveResidues>
 VAL166  LYS551  ARG553  GLY616  TRP617  ASP618  TYR619  PRO620  LYS621  CYS622 
 ASP623  PHE694  ASN695  SER759  ASP760  ASP761  ALA762  ILE779  LEU786  VAL792 
 PHE793  MET794  SER795  GLU796  ALA797  LYS798  CYS799  TRP800  GLU811  SER814 

> <Gold.Protein.RotatedAtoms>
  152.5451  134.1254  159.8416 H   0  0  0  0  0  0  0  0  0  0  0  0  # atno 6907 bound_to 6896
  151.1306  133.5032  159.2606 H   0  0  0  0  0  0  0  0  0  0  0  0  # atno 6908 bound_to 6896
  151.1680  135.0314  159.8794 H   0  0  0  0  0  0  0  0  0  0  0  0  # atno 6909 bound_to 6896
  144.7466  139.8602  143.6380 H   0  0  0  0  0  0  0  0  0  0  0  0  # atno 7974 bound_to 7965
  156.2570  140.1988  156.6524 H   0  0  0  0  0  0  0  0  0  0  0  0  # atno 8008 bound_to 7997
  154.6526  140.0570  156.9998 H   0  0  0  0  0  0  0  0  0  0  0  0  # atno 8009 bound_to 7997
  155.1395  140.3241  155.4458 H   0  0  0  0  0  0  0  0  0  0  0  0  # atno 8010 bound_to 7997
  139.4927  144.4016  151.9403 H   0  0  0  0  0  0  0  0  0  0  0  0  # atno 10167 bound_to 10162
  156.3187  130.4262  149.7981 H   0  0  0  0  0  0  0  0  0  0  0  0  # atno 10718 bound_to 10713
  152.9841  135.5657  154.5318 H   0  0  0  0  0  0  0  0  0  0  0  0  # atno 10763 bound_to 10752
  154.4789  135.2788  155.1588 H   0  0  0  0  0  0  0  0  0  0  0  0  # atno 10764 bound_to 10752
  154.3105  135.6289  153.5517 H   0  0  0  0  0  0  0  0  0  0  0  0  # atno 10765 bound_to 10752
  141.0200  134.0138  157.3296 H   0  0  0  0  0  0  0  0  0  0  0  0  # atno 11005 bound_to 11000
  146.1353  139.4398  143.0143 LP  0  0  0  0  0  0  0  0  0  0  0  0  # atno 17320 bound_to 7965
  145.7100  141.0109  143.1458 LP  0  0  0  0  0  0  0  0  0  0  0  0  # atno 17321 bound_to 7965
  140.3455  144.3152  150.5959 LP  0  0  0  0  0  0  0  0  0  0  0  0  # atno 17342 bound_to 10162
  140.5529  143.2203  151.7896 LP  0  0  0  0  0  0  0  0  0  0  0  0  # atno 17343 bound_to 10162
  156.5297  130.8252  151.3233 LP  0  0  0  0  0  0  0  0  0  0  0  0  # atno 17370 bound_to 10713
  157.7407  130.9855  150.2395 LP  0  0  0  0  0  0  0  0  0  0  0  0  # atno 17371 bound_to 10713
  139.9140  135.0194  156.7808 LP  0  0  0  0  0  0  0  0  0  0  0  0  # atno 17394 bound_to 11000
  140.6589  133.9663  155.7794 LP  0  0  0  0  0  0  0  0  0  0  0  0  # atno 17395 bound_to 11000

$$$$
