AV-unprocessed.smi:2980|AV-procd|sdf|11373|dock8
  -GOLD-   2272016293D 1   1.00000     0.00000
 Structure written by MMmdl.
 39 40  0  0  0  0  0  0  0  0  2 V2000
  150.6518  135.2416  155.1596 C   0  0  0  0  0  0  0  0  0  0  0  0
  150.5913  136.7655  155.0354 C   0  0  0  0  0  0  0  0  0  0  0  0
  151.9145  137.2695  154.9924 O   0  0  0  0  0  0  0  0  0  0  0  0
  151.9760  138.6770  155.1551 C   0  0  0  0  0  0  0  0  0  0  0  0
  151.2864  139.0777  156.4670 C   0  0  0  0  0  0  0  0  0  0  0  0
  151.0559  140.5290  156.5600 N   0  0  0  0  0  0  0  0  0  0  0  0
  150.3104  141.3598  155.7735 C   0  0  0  0  0  0  0  0  0  0  0  0
  149.5185  140.9921  154.5600 C   0  0  0  0  0  0  0  0  0  0  0  0
  148.0230  141.2935  154.7497 C   0  0  0  0  0  0  0  0  0  0  0  0
  147.1800  140.9683  153.5084 C   0  0  0  0  0  0  0  0  0  0  0  0
  147.5868  139.7391  152.9447 O   0  0  0  0  0  0  0  0  0  0  0  0
  150.4353  142.6174  156.2839 N   0  3  0  0  0  0  0  0  0  0  0  0
  151.2673  142.5944  157.4032 C   0  0  0  0  0  0  0  0  0  0  0  0
  151.6877  143.6188  158.2456 C   0  0  0  0  0  0  0  0  0  0  0  0
  152.5497  143.2566  159.3013 C   0  0  0  0  0  0  0  0  0  0  0  0
  152.9617  141.9210  159.4866 C   0  0  0  0  0  0  0  0  0  0  0  0
  152.5277  140.8913  158.6262 C   0  0  0  0  0  0  0  0  0  0  0  0
  151.6729  141.2566  157.5860 C   0  0  0  0  0  0  0  0  0  0  0  0
  149.6500  134.8134  155.1950 H   0  0  0  0  0  0  0  0  0  0  0  0
  151.1756  134.9440  156.0682 H   0  0  0  0  0  0  0  0  0  0  0  0
  151.1752  134.8005  154.3108 H   0  0  0  0  0  0  0  0  0  0  0  0
  150.0514  137.0437  154.1293 H   0  0  0  0  0  0  0  0  0  0  0  0
  150.0545  137.1888  155.8856 H   0  0  0  0  0  0  0  0  0  0  0  0
  153.0159  139.0061  155.1662 H   0  0  0  0  0  0  0  0  0  0  0  0
  151.4876  139.1726  154.3150 H   0  0  0  0  0  0  0  0  0  0  0  0
  150.3234  138.5753  156.5526 H   0  0  0  0  0  0  0  0  0  0  0  0
  151.8706  138.7516  157.3274 H   0  0  0  0  0  0  0  0  0  0  0  0
  149.9078  141.5273  153.6946 H   0  0  0  0  0  0  0  0  0  0  0  0
  149.6628  139.9307  154.3557 H   0  0  0  0  0  0  0  0  0  0  0  0
  147.6476  140.7082  155.5900 H   0  0  0  0  0  0  0  0  0  0  0  0
  147.8818  142.3401  155.0226 H   0  0  0  0  0  0  0  0  0  0  0  0
  146.1195  140.9220  153.7585 H   0  0  0  0  0  0  0  0  0  0  0  0
  147.3009  141.7495  152.7573 H   0  0  0  0  0  0  0  0  0  0  0  0
  148.2980  139.9037  152.3441 H   0  0  0  0  0  0  0  0  0  0  0  0
  151.3757  144.6430  158.1032 H   0  0  0  0  0  0  0  0  0  0  0  0
  152.9036  144.0182  159.9807 H   0  0  0  0  0  0  0  0  0  0  0  0
  153.6254  141.6808  160.3044 H   0  0  0  0  0  0  0  0  0  0  0  0
  152.8560  139.8732  158.7746 H   0  0  0  0  0  0  0  0  0  0  0  0
  149.9858  143.4333  155.8890 H   0  0  0  0  0  0  0  0  0  0  0  0
  1  2  1  0  0  0  0
  1 19  1  0  0  0  0
  1 20  1  0  0  0  0
  1 21  1  0  0  0  0
  2  3  1  0  0  0  0
  2 22  1  0  0  0  0
  2 23  1  0  0  0  0
  3  4  1  0  0  0  0
  4  5  1  0  0  0  0
  4 24  1  0  0  0  0
  4 25  1  0  0  0  0
  5  6  1  0  0  0  0
  5 26  1  0  0  0  0
  5 27  1  0  0  0  0
  6 18  1  0  0  0  0
  6  7  1  0  0  0  0
  7  8  1  0  0  0  0
  7 12  2  0  0  0  0
  8  9  1  0  0  0  0
  8 28  1  0  0  0  0
  8 29  1  0  0  0  0
  9 10  1  0  0  0  0
  9 30  1  0  0  0  0
  9 31  1  0  0  0  0
 10 11  1  0  0  0  0
 10 32  1  0  0  0  0
 10 33  1  0  0  0  0
 11 34  1  0  0  0  0
 12 13  1  0  0  0  0
 12 39  1  0  0  0  0
 13 18  2  0  0  0  0
 13 14  1  0  0  0  0
 14 15  2  0  0  0  0
 14 35  1  0  0  0  0
 15 16  1  0  0  0  0
 15 36  1  0  0  0  0
 16 17  2  0  0  0  0
 16 37  1  0  0  0  0
 17 18  1  0  0  0  0
 17 38  1  0  0  0  0
M  CHG  1  12   1
M  END
> <s_m_source_file>
AV-unprocessed.smi

> <i_m_source_file_index>
2980

> <i_lp_mmshare_version>
43012

> <i_f3d_flags>
0

> <s_epik_input>
W0NIM11bQ0gyXU9bQ0gyXVtDSDJdbihjKG4xKVtDSDJdW0NIMl1bQ0gyXVtPSF0pYyhjMTIpW2NIXVtjSF1bY0hdW2NIXTI=

> <s_epik_cmdline>
J2VwaWtfcHl0aG9uJywgJy1waCcsICc3LjAnLCAnLXRuJywgJzgnLCAnLW1hJywgJzIwMCcsICctbWV0YWxfYmluZGluZycsICctaW1hZScsICc8aW5maWxlLm1hZT4nLCAnLW9tYWUnLCAnPG91dGZpbGUubWFlPic=

> <r_epik_Ionization_Penalty>
0.813193

> <r_epik_Ionization_Penalty_Charging>
0.813193

> <r_epik_Ionization_Penalty_Neutral>
1.64912e-07

> <r_epik_State_Penalty>
0.845533

> <r_epik_Charging_Adjusted_Penalty>
1.65873

> <i_epik_Tot_Q>
1

> <i_epik_Tot_abs_Q>
1

> <r_epik_Metal_State_Penalty>
4.77586

> <b_epik_Metal_Only>
0

> <s_lp_Force_Field>
OPLS_2005

> <r_lp_Energy>
11.2721

> <b_lp_Chiralities_Consistent>
1

> <s_lp_Variant>
AV-unprocessed.smi:2980-2

> <Gold.Version>
5.8.1

> <Gold.Id.Protein>
6NUR|6NUR_protein|mol2

> <Gold.PLP.Fitness>
53.5030

> <Gold.PLP.PLP>
-42.0026

> <Gold.PLP.part.hbond>
-3.0000

> <Gold.PLP.part.metal>
0.0000

> <Gold.PLP.part.buried>
-5.2853

> <Gold.PLP.part.nonpolar>
-34.7469

> <Gold.PLP.part.repulsive>
0.2027

> <Gold.PLP.ligand.clash>
0.0000

> <Gold.PLP.ligand.torsion>
0.1638

> <Gold.PLP.Chemscore.Hbond>
3.9204

> <Gold.PLP.Chemscore.CHOScore>
0.0000

> <Gold.PLP.Chemscore.Metal>
0.0000

> <Gold.Chemscore.Hbonds>
donor molecule, donor type, donor heavy atom, donor atom, acceptor molecule, acceptor atom, score
      L1  H    11    34       P1  7957  1.00
      L1  H    12    39       P1  8028  2.00
      P1  H 10752 10765       L1     3  0.94

> <Gold.PLP.Chemscore.Internal.Correction>
0.0667

> <Gold.Rescore>
     Score         DG    S(hbond)    S(metal)    S(lipo)     H(rot)  DE(clash)    DE(int)     intcor
     20.31     -20.51       2.91        0.00     101.88       2.58       0.06       0.15       ----

> <Gold.Chemscore.Fitness>
20.3062

> <Gold.Chemscore.DG>
-20.5135

> <Gold.Chemscore.ZeroCoef>
-5.4800

> <Gold.Chemscore.Hbond>
2.9084

> <Gold.Chemscore.Metal>
0.0000

> <Gold.Chemscore.Lipo>
101.8810

> <Gold.Chemscore.Internal_Hbond>
0.0000

> <Gold.Chemscore.DEClash>
0.0609

> <Gold.Chemscore.DEInternal>
0.1464

> <Gold.Chemscore.Rot>
2.5784

> <Gold.Chemscore.Internal.Correction>
   9.000000E+99

> <Gold.Chemscore.Hbonds>
donor molecule, donor type, donor heavy atom, donor atom, acceptor molecule, acceptor atom, score
      L1  H    11    34       P1  7957  1.00
      L1  H    12    39       P1  8028  1.00
      P1  H 10752 10765       L1     3  0.31

> <Gold.Chemscore.Hbond.Weighted>
-9.7141

> <Gold.Chemscore.Metal.Weighted>
-0.0000

> <Gold.Chemscore.Lipo.Weighted>
-11.9201

> <Gold.Chemscore.Internal_Hbond.Weighted>
0.0000

> <Gold.Chemscore.DEClash.Weighted>
0.0609

> <Gold.Chemscore.DEInternal.Weighted>
0.1464

> <Gold.Chemscore.Rot.Weighted>
6.6007

> <Gold.Chemscore.Internal.Correction.Weighted>
   9.000000E+99

> <Gold.Protein.RotatedTorsions>
[ 6907 6896 6895 6894 ] final  125.28 input  -60.11 | X-H torsion
[ 7974 7965 7964 7962 ] final  -97.86 input  175.53 | X-H torsion
[ 8008 7997 7996 7995 ] final -101.72 input   59.86 | X-H torsion
[ 10167 10162 10161 10158 ] final   67.73 input  -65.29 | X-H torsion
[ 10718 10713 10712 10709 ] final  -60.68 input   66.30 | X-H torsion
[ 10763 10752 10751 10750 ] final  174.56 input  -60.55 | X-H torsion
[ 11005 11000 10999 10996 ] final -111.26 input  -57.11 | X-H torsion

> <Gold.Protein.ActiveResidues>
 VAL166  LYS551  ARG553  GLY616  TRP617  ASP618  TYR619  PRO620  LYS621  CYS622 
 ASP623  PHE694  ASN695  SER759  ASP760  ASP761  ALA762  ILE779  LEU786  VAL792 
 PHE793  MET794  SER795  GLU796  ALA797  LYS798  CYS799  TRP800  GLU811  SER814 

> <Gold.Protein.RotatedAtoms>
  152.4006  133.6812  159.6312 H   0  0  0  0  0  0  0  0  0  0  0  0  # atno 6907 bound_to 6896
  150.7898  133.8798  159.3291 H   0  0  0  0  0  0  0  0  0  0  0  0  # atno 6908 bound_to 6896
  151.6564  135.0996  160.0222 H   0  0  0  0  0  0  0  0  0  0  0  0  # atno 6909 bound_to 6896
  145.3282  140.9436  143.2677 H   0  0  0  0  0  0  0  0  0  0  0  0  # atno 7974 bound_to 7965
  154.8466  140.0432  157.1576 H   0  0  0  0  0  0  0  0  0  0  0  0  # atno 8008 bound_to 7997
  154.8989  140.2997  155.5308 H   0  0  0  0  0  0  0  0  0  0  0  0  # atno 8009 bound_to 7997
  156.2994  140.2379  156.4014 H   0  0  0  0  0  0  0  0  0  0  0  0  # atno 8010 bound_to 7997
  140.0864  144.5026  150.7128 H   0  0  0  0  0  0  0  0  0  0  0  0  # atno 10167 bound_to 10162
  156.0974  130.4191  150.0887 H   0  0  0  0  0  0  0  0  0  0  0  0  # atno 10718 bound_to 10713
  154.4556  135.2766  155.1750 H   0  0  0  0  0  0  0  0  0  0  0  0  # atno 10763 bound_to 10752
  154.3559  135.6140  153.5670 H   0  0  0  0  0  0  0  0  0  0  0  0  # atno 10764 bound_to 10752
  152.9850  135.5822  154.4908 H   0  0  0  0  0  0  0  0  0  0  0  0  # atno 10765 bound_to 10752
  141.0744  133.9325  157.2419 H   0  0  0  0  0  0  0  0  0  0  0  0  # atno 11005 bound_to 11000
  144.8885  139.4807  143.6689 LP  0  0  0  0  0  0  0  0  0  0  0  0  # atno 17320 bound_to 7965
  146.3056  139.7568  142.9059 LP  0  0  0  0  0  0  0  0  0  0  0  0  # atno 17321 bound_to 7965
  140.7051  143.2462  151.4749 LP  0  0  0  0  0  0  0  0  0  0  0  0  # atno 17342 bound_to 10162
  139.5750  144.1841  152.1890 LP  0  0  0  0  0  0  0  0  0  0  0  0  # atno 17343 bound_to 10162
  156.8883  130.9580  151.3591 LP  0  0  0  0  0  0  0  0  0  0  0  0  # atno 17370 bound_to 10713
  157.6138  130.8603  149.8994 LP  0  0  0  0  0  0  0  0  0  0  0  0  # atno 17371 bound_to 10713
  139.9557  135.0166  156.9120 LP  0  0  0  0  0  0  0  0  0  0  0  0  # atno 17394 bound_to 11000
  140.5604  134.0540  155.7397 LP  0  0  0  0  0  0  0  0  0  0  0  0  # atno 17395 bound_to 11000

$$$$
