AV-unprocessed.smi:3126|AV-procd|sdf|11910|dock7
  -GOLD-   2272017293D 1   1.00000     0.00000
 Structure written by MMmdl.
 42 43  0  0  0  0  0  0  0  0  2 V2000
  148.9233  139.6210  154.2871 C   0  0  0  0  0  0  0  0  0  0  0  0
  150.3592  140.1558  154.3789 C   0  0  0  0  0  0  0  0  0  0  0  0
  150.7451  140.6887  155.7738 C   0  0  2  0  0  0  0  0  0  0  0  0
  150.8133  139.5687  156.8341 C   0  0  0  0  0  0  0  0  0  0  0  0
  151.1687  140.1200  158.2233 C   0  0  0  0  0  0  0  0  0  0  0  0
  150.1814  141.2132  158.6600 C   0  0  0  0  0  0  0  0  0  0  0  0
  150.0874  142.3546  157.6250 C   0  0  1  0  0  0  0  0  0  0  0  0
  151.3197  143.1760  157.5754 N   0  3  0  0  0  0  0  0  0  0  0  0
  151.2830  144.4236  158.3663 C   0  0  0  0  0  0  0  0  0  0  0  0
  152.3786  144.4253  159.4400 C   0  0  0  0  0  0  0  0  0  0  0  0
  151.8650  143.9220  160.7743 C   0  0  0  0  0  0  0  0  0  0  0  0
  151.0265  144.7226  161.5775 C   0  0  0  0  0  0  0  0  0  0  0  0
  150.5839  144.2136  162.8135 C   0  0  0  0  0  0  0  0  0  0  0  0
  150.9991  142.9219  163.1949 C   0  0  0  0  0  0  0  0  0  0  0  0
  151.8016  142.1469  162.4339 N   0  0  0  0  0  0  0  0  0  0  0  0
  152.2208  142.6417  161.2498 C   0  0  0  0  0  0  0  0  0  0  0  0
  149.7609  141.7898  156.2280 C   0  0  0  0  0  0  0  0  0  0  0  0
  148.7362  139.1908  153.3031 H   0  0  0  0  0  0  0  0  0  0  0  0
  148.1869  140.4094  154.4410 H   0  0  0  0  0  0  0  0  0  0  0  0
  148.7442  138.8413  155.0278 H   0  0  0  0  0  0  0  0  0  0  0  0
  151.0361  139.3447  154.1080 H   0  0  0  0  0  0  0  0  0  0  0  0
  150.5077  140.9334  153.6288 H   0  0  0  0  0  0  0  0  0  0  0  0
  151.7356  141.1387  155.6922 H   0  0  0  0  0  0  0  0  0  0  0  0
  149.8553  139.0493  156.8838 H   0  0  0  0  0  0  0  0  0  0  0  0
  151.5541  138.8206  156.5530 H   0  0  0  0  0  0  0  0  0  0  0  0
  151.1671  139.3091  158.9524 H   0  0  0  0  0  0  0  0  0  0  0  0
  152.1836  140.5191  158.2116 H   0  0  0  0  0  0  0  0  0  0  0  0
  149.1942  140.7643  158.7786 H   0  0  0  0  0  0  0  0  0  0  0  0
  150.4505  141.5913  159.6458 H   0  0  0  0  0  0  0  0  0  0  0  0
  149.2685  143.0170  157.9092 H   0  0  0  0  0  0  0  0  0  0  0  0
  152.0999  142.6108  157.8787 H   0  0  0  0  0  0  0  0  0  0  0  0
  151.4175  145.2767  157.6997 H   0  0  0  0  0  0  0  0  0  0  0  0
  150.3079  144.5340  158.8404 H   0  0  0  0  0  0  0  0  0  0  0  0
  153.2164  143.8023  159.1233 H   0  0  0  0  0  0  0  0  0  0  0  0
  152.7756  145.4331  159.5709 H   0  0  0  0  0  0  0  0  0  0  0  0
  150.7296  145.7100  161.2558 H   0  0  0  0  0  0  0  0  0  0  0  0
  149.9421  144.7987  163.4555 H   0  0  0  0  0  0  0  0  0  0  0  0
  150.6793  142.5014  164.1367 H   0  0  0  0  0  0  0  0  0  0  0  0
  152.8636  141.9986  160.6670 H   0  0  0  0  0  0  0  0  0  0  0  0
  149.7420  142.6010  155.4988 H   0  0  0  0  0  0  0  0  0  0  0  0
  148.7506  141.3781  156.2427 H   0  0  0  0  0  0  0  0  0  0  0  0
  151.4712  143.4377  156.6117 H   0  0  0  0  0  0  0  0  0  0  0  0
  1  2  1  0  0  0  0
  1 18  1  0  0  0  0
  1 19  1  0  0  0  0
  1 20  1  0  0  0  0
  2  3  1  0  0  0  0
  2 21  1  0  0  0  0
  2 22  1  0  0  0  0
  3 17  1  0  0  0  0
  3  4  1  0  0  0  0
  3 23  1  0  0  0  0
  4  5  1  0  0  0  0
  4 24  1  0  0  0  0
  4 25  1  0  0  0  0
  5  6  1  0  0  0  0
  5 26  1  0  0  0  0
  5 27  1  0  0  0  0
  6  7  1  0  0  0  0
  6 28  1  0  0  0  0
  6 29  1  0  0  0  0
  7  8  1  0  0  0  0
  7 17  1  0  0  0  0
  7 30  1  0  0  0  0
  8  9  1  0  0  0  0
  8 31  1  0  0  0  0
  8 42  1  0  0  0  0
  9 10  1  0  0  0  0
  9 32  1  0  0  0  0
  9 33  1  0  0  0  0
 10 11  1  0  0  0  0
 10 34  1  0  0  0  0
 10 35  1  0  0  0  0
 11 16  1  0  0  0  0
 11 12  2  0  0  0  0
 12 13  1  0  0  0  0
 12 36  1  0  0  0  0
 13 14  2  0  0  0  0
 13 37  1  0  0  0  0
 14 15  1  0  0  0  0
 14 38  1  0  0  0  0
 15 16  2  0  0  0  0
 16 39  1  0  0  0  0
 17 40  1  0  0  0  0
 17 41  1  0  0  0  0
M  CHG  1   8   1
M  END
> <s_m_source_file>
AV-unprocessed.smi

> <i_m_source_file_index>
3126

> <i_lp_mmshare_version>
43012

> <i_f3d_flags>
0

> <s_epik_input>
W0NIM11bQ0gyXVtDQEBIXTFbQ0gyXVtDSDJdW0NIMl1bQ0BIXShbQ0gyXTEpW05IXVtDSDJdW0NIMl1jMltjSF1bY0hdW2NIXW5bY0hdMg==

> <s_epik_cmdline>
J2VwaWtfcHl0aG9uJywgJy1waCcsICc3LjAnLCAnLXRuJywgJzgnLCAnLW1hJywgJzIwMCcsICctbWV0YWxfYmluZGluZycsICctaW1hZScsICc8aW5maWxlLm1hZT4nLCAnLW9tYWUnLCAnPG91dGZpbGUubWFlPic=

> <r_lp_tautomer_probability>
1

> <r_epik_Ionization_Penalty>
0.000947364

> <r_epik_Ionization_Penalty_Charging>
0.000286103

> <r_epik_Ionization_Penalty_Neutral>
0.000661261

> <r_epik_State_Penalty>
-0

> <r_epik_Charging_Adjusted_Penalty>
0.000286103

> <i_epik_Tot_Q>
1

> <i_epik_Tot_abs_Q>
1

> <r_epik_Metal_State_Penalty>
-0

> <b_epik_Metal_Only>
0

> <s_lp_Force_Field>
OPLS_2005

> <r_lp_Energy>
17.7549

> <b_lp_Chiralities_Consistent>
1

> <s_lp_Variant>
AV-unprocessed.smi:3126-1

> <Gold.Version>
5.8.1

> <Gold.Id.Protein>
6NUR|6NUR_protein|mol2

> <Gold.PLP.Fitness>
48.4401

> <Gold.PLP.PLP>
-45.0895

> <Gold.PLP.part.hbond>
-1.0000

> <Gold.PLP.part.metal>
0.0000

> <Gold.PLP.part.buried>
-4.3275

> <Gold.PLP.part.nonpolar>
-40.1123

> <Gold.PLP.part.repulsive>
0.0074

> <Gold.PLP.ligand.clash>
0.0000

> <Gold.PLP.ligand.torsion>
1.3338

> <Gold.PLP.Chemscore.Hbond>
2.0000

> <Gold.PLP.Chemscore.CHOScore>
0.0000

> <Gold.PLP.Chemscore.Metal>
0.0000

> <Gold.PLP.Chemscore.Internal.Correction>
0.0183

> <Gold.Rescore>
     Score         DG    S(hbond)    S(metal)    S(lipo)     H(rot)  DE(clash)    DE(int)     intcor
     18.66     -20.17       0.99        0.00     126.82       1.35       0.06       1.44       ----

> <Gold.Chemscore.Fitness>
18.6624

> <Gold.Chemscore.DG>
-20.1678

> <Gold.Chemscore.ZeroCoef>
-5.4800

> <Gold.Chemscore.Hbond>
0.9902

> <Gold.Chemscore.Metal>
0.0000

> <Gold.Chemscore.Lipo>
126.8227

> <Gold.Chemscore.Internal_Hbond>
0.0000

> <Gold.Chemscore.DEClash>
0.0624

> <Gold.Chemscore.DEInternal>
1.4430

> <Gold.Chemscore.Rot>
1.3507

> <Gold.Chemscore.Internal.Correction>
   9.000000E+99

> <Gold.Chemscore.Hbond.Weighted>
-3.3074

> <Gold.Chemscore.Metal.Weighted>
-0.0000

> <Gold.Chemscore.Lipo.Weighted>
-14.8383

> <Gold.Chemscore.Internal_Hbond.Weighted>
0.0000

> <Gold.Chemscore.DEClash.Weighted>
0.0624

> <Gold.Chemscore.DEInternal.Weighted>
1.4430

> <Gold.Chemscore.Rot.Weighted>
3.4579

> <Gold.Chemscore.Internal.Correction.Weighted>
   9.000000E+99

> <Gold.Protein.RotatedTorsions>
[ 6907 6896 6895 6894 ] final -123.88 input  -60.11 | X-H torsion
[ 7974 7965 7964 7962 ] final -135.80 input  175.53 | X-H torsion
[ 8008 7997 7996 7995 ] final  -46.31 input   59.86 | X-H torsion
[ 10167 10162 10161 10158 ] final    4.39 input  -65.29 | X-H torsion
[ 10718 10713 10712 10709 ] final  171.28 input   66.30 | X-H torsion
[ 10763 10752 10751 10750 ] final   18.22 input  -60.55 | X-H torsion
[ 11005 11000 10999 10996 ] final  158.77 input  -57.11 | X-H torsion

> <Gold.Protein.ActiveResidues>
 VAL166  LYS551  ARG553  GLY616  TRP617  ASP618  TYR619  PRO620  LYS621  CYS622 
 ASP623  PHE694  ASN695  SER759  ASP760  ASP761  ALA762  ILE779  LEU786  VAL792 
 PHE793  MET794  SER795  GLU796  ALA797  LYS798  CYS799  TRP800  GLU811  SER814 

> <Gold.Protein.RotatedAtoms>
  150.8714  133.7500  159.2959 H   0  0  0  0  0  0  0  0  0  0  0  0  # atno 6907 bound_to 6896
  151.5111  135.1063  159.9864 H   0  0  0  0  0  0  0  0  0  0  0  0  # atno 6908 bound_to 6896
  152.4697  133.7958  159.6982 H   0  0  0  0  0  0  0  0  0  0  0  0  # atno 6909 bound_to 6896
  144.8982  140.6736  143.5102 H   0  0  0  0  0  0  0  0  0  0  0  0  # atno 7974 bound_to 7965
  154.4006  140.1375  156.3990 H   0  0  0  0  0  0  0  0  0  0  0  0  # atno 8008 bound_to 7997
  155.7842  140.3480  155.5293 H   0  0  0  0  0  0  0  0  0  0  0  0  # atno 8009 bound_to 7997
  155.8643  140.0961  157.1583 H   0  0  0  0  0  0  0  0  0  0  0  0  # atno 8010 bound_to 7997
  140.6537  143.7481  150.7617 H   0  0  0  0  0  0  0  0  0  0  0  0  # atno 10167 bound_to 10162
  156.9959  131.0161  151.2844 H   0  0  0  0  0  0  0  0  0  0  0  0  # atno 10718 bound_to 10713
  153.1269  135.6731  153.9242 H   0  0  0  0  0  0  0  0  0  0  0  0  # atno 10763 bound_to 10752
  153.8741  135.3066  155.3444 H   0  0  0  0  0  0  0  0  0  0  0  0  # atno 10764 bound_to 10752
  154.7672  135.4958  153.9659 H   0  0  0  0  0  0  0  0  0  0  0  0  # atno 10765 bound_to 10752
  140.1897  134.8416  157.2898 H   0  0  0  0  0  0  0  0  0  0  0  0  # atno 11005 bound_to 11000
  145.3662  139.1669  143.4356 LP  0  0  0  0  0  0  0  0  0  0  0  0  # atno 17320 bound_to 7965
  146.3093  140.3729  142.8676 LP  0  0  0  0  0  0  0  0  0  0  0  0  # atno 17321 bound_to 7965
  140.1136  143.4676  152.2355 LP  0  0  0  0  0  0  0  0  0  0  0  0  # atno 17342 bound_to 10162
  139.5756  144.7485  151.3774 LP  0  0  0  0  0  0  0  0  0  0  0  0  # atno 17343 bound_to 10162
  157.5425  130.8129  149.8046 LP  0  0  0  0  0  0  0  0  0  0  0  0  # atno 17370 bound_to 10713
  156.0189  130.3803  150.2022 LP  0  0  0  0  0  0  0  0  0  0  0  0  # atno 17371 bound_to 10713
  140.2173  134.4066  155.7583 LP  0  0  0  0  0  0  0  0  0  0  0  0  # atno 17394 bound_to 11000
  141.2226  133.7148  156.8434 LP  0  0  0  0  0  0  0  0  0  0  0  0  # atno 17395 bound_to 11000

$$$$
