AV-unprocessed.smi:937|AV-procd|sdf|4210|dock10
  -GOLD-   22720 2113D 1   1.00000     0.00000
 Structure written by MMmdl.
 45 46  0  0  0  0  0  0  0  0  1 V2000
  148.3397  130.5130  153.7563 C   0  0  0  0  0  0  0  0  0  0  0  0
  149.0041  131.7586  154.3045 C   0  0  0  0  0  0  0  0  0  0  0  0
  149.9849  131.6667  155.3144 C   0  0  0  0  0  0  0  0  0  0  0  0
  150.5765  132.8548  155.7850 C   0  0  0  0  0  0  0  0  0  0  0  0
  150.1670  134.0841  155.2292 C   0  0  0  0  0  0  0  0  0  0  0  0
  150.7698  135.3924  155.7003 C   0  0  0  0  0  0  0  0  0  0  0  0
  150.1008  135.9087  156.9840 C   0  0  0  0  0  0  0  0  0  0  0  0
  150.3051  137.3426  157.1490 N   0  0  0  0  0  0  0  0  0  0  0  0
  150.8681  137.9217  158.2230 C   0  0  0  0  0  0  0  0  0  0  0  0
  151.2957  137.2887  159.1865 O   0  0  0  0  0  0  0  0  0  0  0  0
  150.9321  139.2645  158.1735 N   0  0  0  0  0  0  0  0  0  0  0  0
  151.4794  140.1883  159.1690 C   0  0  1  0  0  0  0  0  0  0  0  0
  152.9789  139.9126  159.4029 C   0  0  0  0  0  0  0  0  0  0  0  0
  153.5849  140.9264  160.3841 C   0  0  0  0  0  0  0  0  0  0  0  0
  153.3626  142.3687  159.9036 C   0  0  0  0  0  0  0  0  0  0  0  0
  151.8666  142.6679  159.6708 C   0  0  1  0  0  0  0  0  0  0  0  0
  151.6355  144.1182  159.1981 C   0  0  0  0  0  0  0  0  0  0  0  0
  150.3886  144.2798  158.7544 F   0  0  0  0  0  0  0  0  0  0  0  0
  151.8481  144.9662  160.2043 F   0  0  0  0  0  0  0  0  0  0  0  0
  152.4845  144.4189  158.2154 F   0  0  0  0  0  0  0  0  0  0  0  0
  151.2649  141.6372  158.6909 C   0  0  0  0  0  0  0  0  0  0  0  0
  149.1772  134.0666  154.2236 C   0  0  0  0  0  0  0  0  0  0  0  0
  148.6051  132.9323  153.7658 N   0  0  0  0  0  0  0  0  0  0  0  0
  148.3588  129.7066  154.4900 H   0  0  0  0  0  0  0  0  0  0  0  0
  148.8594  130.1739  152.8599 H   0  0  0  0  0  0  0  0  0  0  0  0
  147.2984  130.7081  153.4970 H   0  0  0  0  0  0  0  0  0  0  0  0
  150.2789  130.7093  155.7193 H   0  0  0  0  0  0  0  0  0  0  0  0
  151.3297  132.8209  156.5585 H   0  0  0  0  0  0  0  0  0  0  0  0
  151.8394  135.2532  155.8647 H   0  0  0  0  0  0  0  0  0  0  0  0
  150.6751  136.1286  154.9007 H   0  0  0  0  0  0  0  0  0  0  0  0
  149.0333  135.6806  156.9787 H   0  0  0  0  0  0  0  0  0  0  0  0
  150.5222  135.4032  157.8533 H   0  0  0  0  0  0  0  0  0  0  0  0
  149.9855  137.9390  156.3998 H   0  0  0  0  0  0  0  0  0  0  0  0
  150.5707  139.6947  157.3344 H   0  0  0  0  0  0  0  0  0  0  0  0
  150.9414  140.0677  160.1111 H   0  0  0  0  0  0  0  0  0  0  0  0
  153.1269  138.9029  159.7874 H   0  0  0  0  0  0  0  0  0  0  0  0
  153.5157  139.9624  158.4543 H   0  0  0  0  0  0  0  0  0  0  0  0
  153.1358  140.7949  161.3694 H   0  0  0  0  0  0  0  0  0  0  0  0
  154.6519  140.7355  160.5030 H   0  0  0  0  0  0  0  0  0  0  0  0
  153.7740  143.0611  160.6383 H   0  0  0  0  0  0  0  0  0  0  0  0
  153.9204  142.5326  158.9807 H   0  0  0  0  0  0  0  0  0  0  0  0
  151.3540  142.5526  160.6273 H   0  0  0  0  0  0  0  0  0  0  0  0
  151.7135  141.7676  157.7048 H   0  0  0  0  0  0  0  0  0  0  0  0
  150.1973  141.8239  158.5687 H   0  0  0  0  0  0  0  0  0  0  0  0
  148.8337  134.9870  153.7745 H   0  0  0  0  0  0  0  0  0  0  0  0
  1  2  1  0  0  0  0
  1 24  1  0  0  0  0
  1 25  1  0  0  0  0
  1 26  1  0  0  0  0
  2 23  1  0  0  0  0
  2  3  2  0  0  0  0
  3  4  1  0  0  0  0
  3 27  1  0  0  0  0
  4  5  2  0  0  0  0
  4 28  1  0  0  0  0
  5  6  1  0  0  0  0
  5 22  1  0  0  0  0
  6  7  1  0  0  0  0
  6 29  1  0  0  0  0
  6 30  1  0  0  0  0
  7  8  1  0  0  0  0
  7 31  1  0  0  0  0
  7 32  1  0  0  0  0
  8  9  1  0  0  0  0
  8 33  1  0  0  0  0
  9 10  2  0  0  0  0
  9 11  1  0  0  0  0
 11 12  1  0  0  0  0
 11 34  1  0  0  0  0
 12 21  1  0  0  0  0
 12 13  1  0  0  0  0
 12 35  1  0  0  0  0
 13 14  1  0  0  0  0
 13 36  1  0  0  0  0
 13 37  1  0  0  0  0
 14 15  1  0  0  0  0
 14 38  1  0  0  0  0
 14 39  1  0  0  0  0
 15 16  1  0  0  0  0
 15 40  1  0  0  0  0
 15 41  1  0  0  0  0
 16 17  1  0  0  0  0
 16 21  1  0  0  0  0
 16 42  1  0  0  0  0
 17 18  1  0  0  0  0
 17 19  1  0  0  0  0
 17 20  1  0  0  0  0
 21 43  1  0  0  0  0
 21 44  1  0  0  0  0
 22 23  2  0  0  0  0
 22 45  1  0  0  0  0
M  END
> <s_m_source_file>
AV-unprocessed.smi

> <i_m_source_file_index>
937

> <i_lp_mmshare_version>
43012

> <i_f3d_flags>
0

> <s_epik_input>
W0NIM11jMVtjSF1bY0hdYyhbY0hdbjEpW0NIMl1bQ0gyXVtOSF1DKD1PKVtOSF1bQ0BASF0yW0NIMl1bQ0gyXVtDSDJdW0NAQEhdKEMoRikoRilGKVtDSDJdMg==

> <s_epik_cmdline>
J2VwaWtfcHl0aG9uJywgJy1waCcsICc3LjAnLCAnLXRuJywgJzgnLCAnLW1hJywgJzIwMCcsICctbWV0YWxfYmluZGluZycsICctaW1hZScsICc8aW5maWxlLm1hZT4nLCAnLW9tYWUnLCAnPG91dGZpbGUubWFlPic=

> <r_epik_Ionization_Penalty>
0.0563445

> <r_epik_Ionization_Penalty_Charging>
0

> <r_epik_Ionization_Penalty_Neutral>
0.0563445

> <r_epik_State_Penalty>
0.0485409

> <r_epik_Charging_Adjusted_Penalty>
0.0485409

> <i_epik_Tot_Q>
0

> <i_epik_Tot_abs_Q>
0

> <r_epik_Metal_State_Penalty>
0.0443056

> <b_epik_Metal_Only>
0

> <s_lp_Force_Field>
OPLS_2005

> <r_lp_Energy>
17.7613

> <b_lp_Chiralities_Consistent>
1

> <s_lp_Variant>
AV-unprocessed.smi:937-2

> <Gold.Version>
5.8.1

> <Gold.Id.Protein>
6NUR|6NUR_protein|mol2

> <Gold.PLP.Fitness>
51.3811

> <Gold.PLP.PLP>
-48.0976

> <Gold.PLP.part.hbond>
-0.6745

> <Gold.PLP.part.metal>
0.0000

> <Gold.PLP.part.buried>
-6.0873

> <Gold.PLP.part.nonpolar>
-42.2929

> <Gold.PLP.part.repulsive>
0.2563

> <Gold.PLP.ligand.clash>
0.0000

> <Gold.PLP.ligand.torsion>
0.7456

> <Gold.PLP.Chemscore.Hbond>
0.5850

> <Gold.PLP.Chemscore.CHOScore>
1.0000

> <Gold.PLP.Chemscore.Metal>
0.0000

> <Gold.Chemscore.Hbonds>
donor molecule, donor type, donor heavy atom, donor atom, acceptor molecule, acceptor atom, score
      P1  H  6896  6909       L1    10  0.27
      L1  C    22    45       P1  7948  1.00

> <Gold.PLP.Chemscore.Internal.Correction>
0.0197

> <Gold.Rescore>
     Score         DG    S(hbond)    S(metal)    S(lipo)     H(rot)  DE(clash)    DE(int)     intcor
     15.62     -16.40       0.99        0.00      99.79       1.58       0.04       0.74       ----

> <Gold.Chemscore.Fitness>
15.6175

> <Gold.Chemscore.DG>
-16.3972

> <Gold.Chemscore.ZeroCoef>
-5.4800

> <Gold.Chemscore.Hbond>
0.9878

> <Gold.Chemscore.Metal>
0.0000

> <Gold.Chemscore.Lipo>
99.7886

> <Gold.Chemscore.Internal_Hbond>
0.0000

> <Gold.Chemscore.DEClash>
0.0363

> <Gold.Chemscore.DEInternal>
0.7433

> <Gold.Chemscore.Rot>
1.5849

> <Gold.Chemscore.Internal.Correction>
   9.000000E+99

> <Gold.Chemscore.Hbonds>
donor molecule, donor type, donor heavy atom, donor atom, acceptor molecule, acceptor atom, score
      P1  H  6896  6909       L1    10  0.27

> <Gold.Chemscore.Hbond.Weighted>
-3.2994

> <Gold.Chemscore.Metal.Weighted>
-0.0000

> <Gold.Chemscore.Lipo.Weighted>
-11.6753

> <Gold.Chemscore.Internal_Hbond.Weighted>
0.0000

> <Gold.Chemscore.DEClash.Weighted>
0.0363

> <Gold.Chemscore.DEInternal.Weighted>
0.7433

> <Gold.Chemscore.Rot.Weighted>
4.0574

> <Gold.Chemscore.Internal.Correction.Weighted>
   9.000000E+99

> <Gold.Protein.RotatedTorsions>
[ 6907 6896 6895 6894 ] final  128.18 input  -60.11 | X-H torsion
[ 7974 7965 7964 7962 ] final  -18.99 input  175.53 | X-H torsion
[ 8008 7997 7996 7995 ] final  176.22 input   59.86 | X-H torsion
[ 10167 10162 10161 10158 ] final  -79.92 input  -65.29 | X-H torsion
[ 10718 10713 10712 10709 ] final   27.81 input   66.30 | X-H torsion
[ 10763 10752 10751 10750 ] final  132.66 input  -60.55 | X-H torsion
[ 11005 11000 10999 10996 ] final   84.66 input  -57.11 | X-H torsion

> <Gold.Protein.ActiveResidues>
 VAL166  LYS551  ARG553  GLY616  TRP617  ASP618  TYR619  PRO620  LYS621  CYS622 
 ASP623  PHE694  ASN695  SER759  ASP760  ASP761  ALA762  ILE779  LEU786  VAL792 
 PHE793  MET794  SER795  GLU796  ALA797  LYS798  CYS799  TRP800  GLU811  SER814 

> <Gold.Protein.RotatedAtoms>
  152.3744  133.6461  159.6111 H   0  0  0  0  0  0  0  0  0  0  0  0  # atno 6907 bound_to 6896
  150.7692  133.9218  159.3409 H   0  0  0  0  0  0  0  0  0  0  0  0  # atno 6908 bound_to 6896
  151.7035  135.0927  160.0306 H   0  0  0  0  0  0  0  0  0  0  0  0  # atno 6909 bound_to 6896
  146.1864  140.3999  142.8474 H   0  0  0  0  0  0  0  0  0  0  0  0  # atno 7974 bound_to 7965
  156.0787  140.1389  156.9739 H   0  0  0  0  0  0  0  0  0  0  0  0  # atno 8008 bound_to 7997
  154.4572  140.0956  156.6842 H   0  0  0  0  0  0  0  0  0  0  0  0  # atno 8009 bound_to 7997
  155.5111  140.3453  155.4391 H   0  0  0  0  0  0  0  0  0  0  0  0  # atno 8010 bound_to 7997
  140.4550  143.2471  151.8433 H   0  0  0  0  0  0  0  0  0  0  0  0  # atno 10167 bound_to 10162
  157.2251  130.6997  149.6288 H   0  0  0  0  0  0  0  0  0  0  0  0  # atno 10718 bound_to 10713
  153.7944  135.3150  155.3382 H   0  0  0  0  0  0  0  0  0  0  0  0  # atno 10763 bound_to 10752
  154.8113  135.4665  154.0528 H   0  0  0  0  0  0  0  0  0  0  0  0  # atno 10764 bound_to 10752
  153.1856  135.6900  153.8507 H   0  0  0  0  0  0  0  0  0  0  0  0  # atno 10765 bound_to 10752
  139.8994  134.8232  156.2476 H   0  0  0  0  0  0  0  0  0  0  0  0  # atno 11005 bound_to 11000
  144.8405  140.6850  143.6232 LP  0  0  0  0  0  0  0  0  0  0  0  0  # atno 17320 bound_to 7965
  145.3925  139.1614  143.4221 LP  0  0  0  0  0  0  0  0  0  0  0  0  # atno 17321 bound_to 7965
  139.4800  144.5075  151.8977 LP  0  0  0  0  0  0  0  0  0  0  0  0  # atno 17342 bound_to 10162
  140.4162  144.2304  150.5887 LP  0  0  0  0  0  0  0  0  0  0  0  0  # atno 17343 bound_to 10162
  155.9679  130.4507  150.5707 LP  0  0  0  0  0  0  0  0  0  0  0  0  # atno 17370 bound_to 10713
  157.3536  131.0738  151.1694 LP  0  0  0  0  0  0  0  0  0  0  0  0  # atno 17371 bound_to 10713
  141.0245  133.7023  156.1324 LP  0  0  0  0  0  0  0  0  0  0  0  0  # atno 17394 bound_to 11000
  140.7186  134.4383  157.5576 LP  0  0  0  0  0  0  0  0  0  0  0  0  # atno 17395 bound_to 11000

$$$$
