AV-unprocessed.smi:1725|AV-procd|sdf|6953|dock6
  -GOLD-   22720 8163D 1   1.00000     0.00000
 Structure written by MMmdl.
 36 37  0  0  0  0  0  0  0  0  1 V2000
  154.2187  136.6242  157.9685 C   0  0  0  0  0  0  0  0  0  0  0  0
  152.8027  136.9853  157.4958 C   0  0  2  0  0  0  0  0  0  0  0  0
  152.4526  136.0745  156.4576 O   0  0  0  0  0  0  0  0  0  0  0  0
  151.0603  135.9640  156.1906 C   0  0  0  0  0  0  0  0  0  0  0  0
  150.8563  134.9485  155.0876 C   0  0  0  0  0  0  0  0  0  0  0  0
  149.5471  134.2020  154.9684 C   0  0  0  0  0  0  0  0  0  0  0  0
  150.7929  133.4704  155.3996 C   0  0  0  0  0  0  0  0  0  0  0  0
  152.7379  138.4317  156.9788 C   0  0  0  0  0  0  0  0  0  0  0  0
  153.4454  138.7645  156.0283 O   0  0  0  0  0  0  0  0  0  0  0  0
  151.8596  139.2339  157.6131 N   0  0  0  0  0  0  0  0  0  0  0  0
  151.5687  140.5924  157.4005 C   0  0  0  0  0  0  0  0  0  0  0  0
  151.6874  141.5721  158.3346 C   0  0  0  0  0  0  0  0  0  0  0  0
  151.3553  142.9565  158.0476 C   0  0  0  0  0  0  0  0  0  0  0  0
  151.5170  144.0323  159.1095 C   0  0  0  0  0  0  0  0  0  0  0  0
  152.0838  143.5546  160.2182 F   0  0  0  0  0  0  0  0  0  0  0  0
  152.2761  145.0235  158.6438 F   0  0  0  0  0  0  0  0  0  0  0  0
  150.3286  144.5418  159.4320 F   0  0  0  0  0  0  0  0  0  0  0  0
  150.9103  143.2240  156.8057 C   0  0  0  0  0  0  0  0  0  0  0  0
  150.7751  142.2217  155.8427 N   0  0  0  0  0  0  0  0  0  0  0  0
  151.0743  140.9200  156.0525 C   0  0  0  0  0  0  0  0  0  0  0  0
  150.9279  140.0963  155.1501 O   0  0  0  0  0  0  0  0  0  0  0  0
  150.4306  142.5009  154.9352 H   0  0  0  0  0  0  0  0  0  0  0  0
  154.5568  137.2961  158.7579 H   0  0  0  0  0  0  0  0  0  0  0  0
  154.9404  136.6745  157.1523 H   0  0  0  0  0  0  0  0  0  0  0  0
  154.2448  135.6099  158.3672 H   0  0  0  0  0  0  0  0  0  0  0  0
  152.1188  136.8573  158.3373 H   0  0  0  0  0  0  0  0  0  0  0  0
  150.5247  135.6481  157.0872 H   0  0  0  0  0  0  0  0  0  0  0  0
  150.6394  136.9162  155.8669 H   0  0  0  0  0  0  0  0  0  0  0  0
  151.3338  135.2198  154.1478 H   0  0  0  0  0  0  0  0  0  0  0  0
  148.7870  134.3864  155.7249 H   0  0  0  0  0  0  0  0  0  0  0  0
  149.1699  134.0064  153.9668 H   0  0  0  0  0  0  0  0  0  0  0  0
  151.2496  132.7881  154.6855 H   0  0  0  0  0  0  0  0  0  0  0  0
  150.8625  133.1685  156.4428 H   0  0  0  0  0  0  0  0  0  0  0  0
  151.3036  138.7973  158.3345 H   0  0  0  0  0  0  0  0  0  0  0  0
  152.0186  141.3564  159.3368 H   0  0  0  0  0  0  0  0  0  0  0  0
  150.6285  144.2059  156.4550 H   0  0  0  0  0  0  0  0  0  0  0  0
  1  2  1  0  0  0  0
  1 23  1  0  0  0  0
  1 24  1  0  0  0  0
  1 25  1  0  0  0  0
  2  3  1  0  0  0  0
  2  8  1  0  0  0  0
  2 26  1  0  0  0  0
  3  4  1  0  0  0  0
  4  5  1  0  0  0  0
  4 27  1  0  0  0  0
  4 28  1  0  0  0  0
  5  7  1  0  0  0  0
  5  6  1  0  0  0  0
  5 29  1  0  0  0  0
  6  7  1  0  0  0  0
  6 30  1  0  0  0  0
  6 31  1  0  0  0  0
  7 32  1  0  0  0  0
  7 33  1  0  0  0  0
  8  9  2  0  0  0  0
  8 10  1  0  0  0  0
 10 11  1  0  0  0  0
 10 34  1  0  0  0  0
 11 20  1  0  0  0  0
 11 12  2  0  0  0  0
 12 13  1  0  0  0  0
 12 35  1  0  0  0  0
 13 14  1  0  0  0  0
 13 18  2  0  0  0  0
 14 15  1  0  0  0  0
 14 16  1  0  0  0  0
 14 17  1  0  0  0  0
 18 19  1  0  0  0  0
 18 36  1  0  0  0  0
 19 22  1  0  0  0  0
 19 20  1  0  0  0  0
 20 21  2  0  0  0  0
M  END
> <s_m_source_file>
AV-unprocessed.smi

> <i_m_source_file_index>
1725

> <i_lp_mmshare_version>
43012

> <i_f3d_flags>
0

> <s_epik_input>
W0NIMl0xW0NIMl1bQ0hdMVtDSDJdT1tDQEBIXShbQ0gzXSlDKD1PKVtOSF1jMltjSF1jKEMoRikoRilGKVtjSF1bbkhdYzI9Tw==

> <s_epik_cmdline>
J2VwaWtfcHl0aG9uJywgJy1waCcsICc3LjAnLCAnLXRuJywgJzgnLCAnLW1hJywgJzIwMCcsICctbWV0YWxfYmluZGluZycsICctaW1hZScsICc8aW5maWxlLm1hZT4nLCAnLW9tYWUnLCAnPG91dGZpbGUubWFlPic=

> <r_lp_tautomer_probability>
0.999

> <r_epik_Ionization_Penalty>
0.00763408

> <r_epik_Ionization_Penalty_Charging>
0.00763398

> <r_epik_Ionization_Penalty_Neutral>
9.25705e-08

> <r_epik_State_Penalty>
0.00571302

> <r_epik_Charging_Adjusted_Penalty>
0.013347

> <i_epik_Tot_Q>
0

> <i_epik_Tot_abs_Q>
0

> <r_epik_Metal_State_Penalty>
0.392814

> <b_epik_Metal_Only>
0

> <s_lp_Force_Field>
OPLS_2005

> <r_lp_Energy>
28.2776

> <b_lp_Chiralities_Consistent>
1

> <s_lp_Variant>
AV-unprocessed.smi:1725-1

> <Gold.Version>
5.8.1

> <Gold.Id.Protein>
6NUR|6NUR_protein|mol2

> <Gold.PLP.Fitness>
48.7175

> <Gold.PLP.PLP>
-38.7068

> <Gold.PLP.part.hbond>
-4.0000

> <Gold.PLP.part.metal>
0.0000

> <Gold.PLP.part.buried>
-2.9189

> <Gold.PLP.part.nonpolar>
-32.5637

> <Gold.PLP.part.repulsive>
0.2495

> <Gold.PLP.ligand.clash>
0.0000

> <Gold.PLP.ligand.torsion>
1.0811

> <Gold.PLP.Chemscore.Hbond>
2.9600

> <Gold.PLP.Chemscore.CHOScore>
0.8846

> <Gold.PLP.Chemscore.Metal>
0.0000

> <Gold.Chemscore.Hbonds>
donor molecule, donor type, donor heavy atom, donor atom, acceptor molecule, acceptor atom, score
      P1  H  7989  7998       L1    21  1.00
      P1  H  7997  8009       L1     9  0.91
      P1  H 10752 10763       L1     3  1.00
      L1  C    18    36       P1  8028  0.79

> <Gold.PLP.Chemscore.Internal.Correction>
0.6391

> <Gold.Rescore>
     Score         DG    S(hbond)    S(metal)    S(lipo)     H(rot)  DE(clash)    DE(int)     intcor
     14.97     -18.39       2.77        0.00      70.44       1.79       0.08       3.35       ----

> <Gold.Chemscore.Fitness>
14.9650

> <Gold.Chemscore.DG>
-18.3939

> <Gold.Chemscore.ZeroCoef>
-5.4800

> <Gold.Chemscore.Hbond>
2.7739

> <Gold.Chemscore.Metal>
0.0000

> <Gold.Chemscore.Lipo>
70.4397

> <Gold.Chemscore.Internal_Hbond>
0.0000

> <Gold.Chemscore.DEClash>
0.0770

> <Gold.Chemscore.DEInternal>
3.3519

> <Gold.Chemscore.Rot>
1.7938

> <Gold.Chemscore.Internal.Correction>
   9.000000E+99

> <Gold.Chemscore.Hbonds>
donor molecule, donor type, donor heavy atom, donor atom, acceptor molecule, acceptor atom, score
      P1  H  7989  7998       L1    21  0.64
      P1  H  7997  8009       L1     9  0.70
      P1  H 10752 10763       L1     3  0.88

> <Gold.Chemscore.Hbond.Weighted>
-9.2647

> <Gold.Chemscore.Metal.Weighted>
-0.0000

> <Gold.Chemscore.Lipo.Weighted>
-8.2414

> <Gold.Chemscore.Internal_Hbond.Weighted>
0.0000

> <Gold.Chemscore.DEClash.Weighted>
0.0770

> <Gold.Chemscore.DEInternal.Weighted>
3.3519

> <Gold.Chemscore.Rot.Weighted>
4.5922

> <Gold.Chemscore.Internal.Correction.Weighted>
   9.000000E+99

> <Gold.Protein.RotatedTorsions>
[ 6907 6896 6895 6894 ] final  -75.89 input  -60.11 | X-H torsion
[ 7974 7965 7964 7962 ] final  109.93 input  175.53 | X-H torsion
[ 8008 7997 7996 7995 ] final -166.52 input   59.86 | X-H torsion
[ 10167 10162 10161 10158 ] final -138.97 input  -65.29 | X-H torsion
[ 10718 10713 10712 10709 ] final -175.57 input   66.30 | X-H torsion
[ 10763 10752 10751 10750 ] final  111.78 input  -60.55 | X-H torsion
[ 11005 11000 10999 10996 ] final  178.66 input  -57.11 | X-H torsion

> <Gold.Protein.ActiveResidues>
 VAL166  LYS551  ARG553  GLY616  TRP617  ASP618  TYR619  PRO620  LYS621  CYS622 
 ASP623  PHE694  ASN695  SER759  ASP760  ASP761  ALA762  ILE779  LEU786  VAL792 
 PHE793  MET794  SER795  GLU796  ALA797  LYS798  CYS799  TRP800  GLU811  SER814 

> <Gold.Protein.RotatedAtoms>
  150.7044  134.4653  159.5399 H   0  0  0  0  0  0  0  0  0  0  0  0  # atno 6907 bound_to 6896
  152.2320  134.8310  160.0481 H   0  0  0  0  0  0  0  0  0  0  0  0  # atno 6908 bound_to 6896
  151.9122  133.3529  159.3904 H   0  0  0  0  0  0  0  0  0  0  0  0  # atno 6909 bound_to 6896
  145.2615  139.2701  143.4014 H   0  0  0  0  0  0  0  0  0  0  0  0  # atno 7974 bound_to 7965
  155.8650  140.0984  157.1588 H   0  0  0  0  0  0  0  0  0  0  0  0  # atno 8008 bound_to 7997
  154.3993  140.1358  156.4070 H   0  0  0  0  0  0  0  0  0  0  0  0  # atno 8009 bound_to 7997
  155.7814  140.3458  155.5302 H   0  0  0  0  0  0  0  0  0  0  0  0  # atno 8010 bound_to 7997
  139.8425  143.7303  152.2662 H   0  0  0  0  0  0  0  0  0  0  0  0  # atno 10167 bound_to 10162
  156.8018  130.9555  151.3118 H   0  0  0  0  0  0  0  0  0  0  0  0  # atno 10718 bound_to 10713
  153.4683  135.3706  155.2376 H   0  0  0  0  0  0  0  0  0  0  0  0  # atno 10763 bound_to 10752
  154.8757  135.3925  154.3843 H   0  0  0  0  0  0  0  0  0  0  0  0  # atno 10764 bound_to 10752
  153.4427  135.7084  153.6223 H   0  0  0  0  0  0  0  0  0  0  0  0  # atno 10765 bound_to 10752
  140.3975  134.6807  157.4543 H   0  0  0  0  0  0  0  0  0  0  0  0  # atno 11005 bound_to 11000
  146.3274  140.3033  142.8622 LP  0  0  0  0  0  0  0  0  0  0  0  0  # atno 17320 bound_to 7965
  144.9414  140.8083  143.5628 LP  0  0  0  0  0  0  0  0  0  0  0  0  # atno 17321 bound_to 7965
  139.7545  144.7525  151.0457 LP  0  0  0  0  0  0  0  0  0  0  0  0  # atno 17342 bound_to 10162
  140.7796  143.4822  151.0003 LP  0  0  0  0  0  0  0  0  0  0  0  0  # atno 17343 bound_to 10162
  157.6550  130.8917  149.9710 LP  0  0  0  0  0  0  0  0  0  0  0  0  # atno 17370 bound_to 10713
  156.1097  130.3650  150.0071 LP  0  0  0  0  0  0  0  0  0  0  0  0  # atno 17371 bound_to 10713
  140.0360  134.6336  155.9042 LP  0  0  0  0  0  0  0  0  0  0  0  0  # atno 17394 bound_to 11000
  141.1869  133.6558  156.5257 LP  0  0  0  0  0  0  0  0  0  0  0  0  # atno 17395 bound_to 11000

$$$$
