AV-unprocessed.smi:1430|AV-procd|sdf|5826|dock4
  -GOLD-   22720 5483D 1   1.00000     0.00000
 Structure written by MMmdl.
 47 48  0  0  0  0  0  0  0  0  2 V2000
  152.2738  141.0190  158.5641 C   0  0  0  0  0  0  0  0  0  0  0  0
  152.7969  140.0809  157.6299 O   0  0  0  0  0  0  0  0  0  0  0  0
  151.9868  139.6696  156.5915 C   0  0  0  0  0  0  0  0  0  0  0  0
  152.4628  138.6703  155.7199 C   0  0  0  0  0  0  0  0  0  0  0  0
  151.6430  138.2452  154.6570 C   0  0  0  0  0  0  0  0  0  0  0  0
  150.3629  138.8301  154.5035 C   0  0  0  0  0  0  0  0  0  0  0  0
  149.4493  138.5048  153.4641 N   0  0  0  0  0  0  0  0  0  0  0  0
  148.2221  139.0036  153.2395 C   0  0  0  0  0  0  0  0  0  0  0  0
  147.6874  139.9017  153.8880 O   0  0  0  0  0  0  0  0  0  0  0  0
  147.6339  138.3963  152.1985 N   0  0  0  0  0  0  0  0  0  0  0  0
  146.2945  138.6932  151.6917 C   0  0  0  0  0  0  0  0  0  0  0  0
  145.7165  137.5809  150.7884 C   0  0  0  0  0  0  0  0  0  0  0  0
  145.8188  136.2315  151.3979 N   0  3  1  0  0  0  0  0  0  0  0  0
  145.3376  136.1890  152.7974 C   0  0  0  0  0  0  0  0  0  0  0  0
  145.5719  134.7956  153.4117 C   0  0  2  0  0  0  0  0  0  0  0  0
  147.0509  134.5093  153.7301 C   0  0  0  0  0  0  0  0  0  0  0  0
  144.9925  133.7889  152.5805 O   0  0  0  0  0  0  0  0  0  0  0  0
  145.4445  133.7899  151.2280 C   0  0  1  0  0  0  0  0  0  0  0  0
  144.7163  132.6644  150.4855 C   0  0  0  0  0  0  0  0  0  0  0  0
  145.1744  135.1670  150.5955 C   0  0  0  0  0  0  0  0  0  0  0  0
  149.9865  139.8313  155.4226 C   0  0  0  0  0  0  0  0  0  0  0  0
  150.7677  140.2439  156.4426 N   0  0  0  0  0  0  0  0  0  0  0  0
  153.0317  141.2402  159.3154 H   0  0  0  0  0  0  0  0  0  0  0  0
  151.4000  140.6216  159.0825 H   0  0  0  0  0  0  0  0  0  0  0  0
  152.0059  141.9584  158.0784 H   0  0  0  0  0  0  0  0  0  0  0  0
  153.4435  138.2401  155.8611 H   0  0  0  0  0  0  0  0  0  0  0  0
  152.0192  137.4951  153.9795 H   0  0  0  0  0  0  0  0  0  0  0  0
  149.7872  137.8337  152.7899 H   0  0  0  0  0  0  0  0  0  0  0  0
  148.1543  137.6800  151.7127 H   0  0  0  0  0  0  0  0  0  0  0  0
  145.6199  138.8882  152.5266 H   0  0  0  0  0  0  0  0  0  0  0  0
  146.3575  139.6258  151.1311 H   0  0  0  0  0  0  0  0  0  0  0  0
  144.6642  137.8049  150.6091 H   0  0  0  0  0  0  0  0  0  0  0  0
  146.1950  137.5919  149.8081 H   0  0  0  0  0  0  0  0  0  0  0  0
  145.8458  136.9473  153.3947 H   0  0  0  0  0  0  0  0  0  0  0  0
  144.2733  136.4301  152.8171 H   0  0  0  0  0  0  0  0  0  0  0  0
  145.0316  134.7536  154.3579 H   0  0  0  0  0  0  0  0  0  0  0  0
  147.4297  135.2137  154.4712 H   0  0  0  0  0  0  0  0  0  0  0  0
  147.6894  134.5936  152.8510 H   0  0  0  0  0  0  0  0  0  0  0  0
  147.1732  133.5058  154.1382 H   0  0  0  0  0  0  0  0  0  0  0  0
  146.5135  133.5777  151.1978 H   0  0  0  0  0  0  0  0  0  0  0  0
  145.0272  132.6164  149.4417 H   0  0  0  0  0  0  0  0  0  0  0  0
  143.6359  132.8114  150.5064 H   0  0  0  0  0  0  0  0  0  0  0  0
  144.9287  131.6962  150.9397 H   0  0  0  0  0  0  0  0  0  0  0  0
  144.1010  135.3547  150.5347 H   0  0  0  0  0  0  0  0  0  0  0  0
  145.5600  135.1808  149.5759 H   0  0  0  0  0  0  0  0  0  0  0  0
  149.0255  140.3180  155.3393 H   0  0  0  0  0  0  0  0  0  0  0  0
  146.8050  136.0164  151.4364 H   0  0  0  0  0  0  0  0  0  0  0  0
  1  2  1  0  0  0  0
  1 23  1  0  0  0  0
  1 24  1  0  0  0  0
  1 25  1  0  0  0  0
  2  3  1  0  0  0  0
  3 22  1  0  0  0  0
  3  4  2  0  0  0  0
  4  5  1  0  0  0  0
  4 26  1  0  0  0  0
  5  6  2  0  0  0  0
  5 27  1  0  0  0  0
  6  7  1  0  0  0  0
  6 21  1  0  0  0  0
  7  8  1  0  0  0  0
  7 28  1  0  0  0  0
  8  9  2  0  0  0  0
  8 10  1  0  0  0  0
 10 11  1  0  0  0  0
 10 29  1  0  0  0  0
 11 12  1  0  0  0  0
 11 30  1  0  0  0  0
 11 31  1  0  0  0  0
 12 13  1  0  0  0  0
 12 32  1  0  0  0  0
 12 33  1  0  0  0  0
 13 20  1  0  0  0  0
 13 14  1  0  0  0  0
 13 47  1  0  0  0  0
 14 15  1  0  0  0  0
 14 34  1  0  0  0  0
 14 35  1  0  0  0  0
 15 16  1  0  0  0  0
 15 17  1  0  0  0  0
 15 36  1  0  0  0  0
 16 37  1  0  0  0  0
 16 38  1  0  0  0  0
 16 39  1  0  0  0  0
 17 18  1  0  0  0  0
 18 19  1  0  0  0  0
 18 20  1  0  0  0  0
 18 40  1  0  0  0  0
 19 41  1  0  0  0  0
 19 42  1  0  0  0  0
 19 43  1  0  0  0  0
 20 44  1  0  0  0  0
 20 45  1  0  0  0  0
 21 22  2  0  0  0  0
 21 46  1  0  0  0  0
M  CHG  1  13   1
M  END
> <s_m_source_file>
AV-unprocessed.smi

> <i_m_source_file_index>
1430

> <i_lp_mmshare_version>
43012

> <i_f3d_flags>
0

> <s_epik_input>
W0NIM11PYzFbY0hdW2NIXWMoW2NIXW4xKVtOSF1DKD1PKVtOSF1bQ0gyXVtDSDJdTjJbQ0gyXVtDQEBIXShbQ0gzXSlPW0NAQEhdKFtDSDNdKVtDSDJdMg==

> <s_epik_cmdline>
J2VwaWtfcHl0aG9uJywgJy1waCcsICc3LjAnLCAnLXRuJywgJzgnLCAnLW1hJywgJzIwMCcsICctbWV0YWxfYmluZGluZycsICctaW1hZScsICc8aW5maWxlLm1hZT4nLCAnLW9tYWUnLCAnPG91dGZpbGUubWFlPic=

> <r_lp_tautomer_probability>
1

> <r_epik_Ionization_Penalty>
0.602607

> <r_epik_Ionization_Penalty_Charging>
0.602531

> <r_epik_Ionization_Penalty_Neutral>
7.66983e-05

> <r_epik_State_Penalty>
0.617039

> <r_epik_Charging_Adjusted_Penalty>
1.21957

> <i_epik_Tot_Q>
1

> <i_epik_Tot_abs_Q>
1

> <r_epik_Metal_State_Penalty>
0.617043

> <b_epik_Metal_Only>
0

> <s_lp_Force_Field>
OPLS_2005

> <r_lp_Energy>
27.4257

> <b_lp_Chiralities_Consistent>
1

> <s_lp_Variant>
AV-unprocessed.smi:1430-5

> <Gold.Version>
5.8.1

> <Gold.Id.Protein>
6NUR|6NUR_protein|mol2

> <Gold.PLP.Fitness>
46.4855

> <Gold.PLP.PLP>
-32.9597

> <Gold.PLP.part.hbond>
-5.7670

> <Gold.PLP.part.metal>
0.0000

> <Gold.PLP.part.buried>
6.1380

> <Gold.PLP.part.nonpolar>
-34.0373

> <Gold.PLP.part.repulsive>
0.4723

> <Gold.PLP.ligand.clash>
0.0000

> <Gold.PLP.ligand.torsion>
0.2070

> <Gold.PLP.Chemscore.Hbond>
4.6373

> <Gold.PLP.Chemscore.CHOScore>
0.0000

> <Gold.PLP.Chemscore.Metal>
0.0000

> <Gold.Chemscore.Hbonds>
donor molecule, donor type, donor heavy atom, donor atom, acceptor molecule, acceptor atom, score
      L1  H     7    28       P1  7948  0.72
      L1  H    10    29       P1  7948  0.94
      L1  H    13    47       P1  7948  1.33
      P1  H  7997  8009       L1     2  1.00

> <Gold.PLP.Chemscore.Internal.Correction>
0.0279

> <Gold.Rescore>
     Score         DG    S(hbond)    S(metal)    S(lipo)     H(rot)  DE(clash)    DE(int)     intcor
     14.50     -19.58       2.63        0.00      83.99       1.76       3.29       1.79       ----

> <Gold.Chemscore.Fitness>
14.5036

> <Gold.Chemscore.DG>
-19.5796

> <Gold.Chemscore.ZeroCoef>
-5.4800

> <Gold.Chemscore.Hbond>
2.6286

> <Gold.Chemscore.Metal>
0.0000

> <Gold.Chemscore.Lipo>
83.9950

> <Gold.Chemscore.Internal_Hbond>
0.0000

> <Gold.Chemscore.DEClash>
3.2881

> <Gold.Chemscore.DEInternal>
1.7879

> <Gold.Chemscore.Rot>
1.7606

> <Gold.Chemscore.Internal.Correction>
   9.000000E+99

> <Gold.Chemscore.Hbonds>
donor molecule, donor type, donor heavy atom, donor atom, acceptor molecule, acceptor atom, score
      L1  H     7    28       P1  7948  0.31
      L1  H    10    29       P1  7948  0.90
      L1  H    13    47       P1  7948  0.67
      P1  H  7997  8009       L1     2  0.47

> <Gold.Chemscore.Hbond.Weighted>
-8.7794

> <Gold.Chemscore.Metal.Weighted>
-0.0000

> <Gold.Chemscore.Lipo.Weighted>
-9.8274

> <Gold.Chemscore.Internal_Hbond.Weighted>
0.0000

> <Gold.Chemscore.DEClash.Weighted>
3.2881

> <Gold.Chemscore.DEInternal.Weighted>
1.7879

> <Gold.Chemscore.Rot.Weighted>
4.5072

> <Gold.Chemscore.Internal.Correction.Weighted>
   9.000000E+99

> <Gold.Protein.RotatedTorsions>
[ 6907 6896 6895 6894 ] final  -44.25 input  -60.11 | X-H torsion
[ 7974 7965 7964 7962 ] final   28.59 input  175.53 | X-H torsion
[ 8008 7997 7996 7995 ] final  160.46 input   59.86 | X-H torsion
[ 10167 10162 10161 10158 ] final  -79.79 input  -65.29 | X-H torsion
[ 10718 10713 10712 10709 ] final -130.84 input   66.30 | X-H torsion
[ 10763 10752 10751 10750 ] final   58.95 input  -60.55 | X-H torsion
[ 11005 11000 10999 10996 ] final  145.46 input  -57.11 | X-H torsion

> <Gold.Protein.ActiveResidues>
 VAL166  LYS551  ARG553  GLY616  TRP617  ASP618  TYR619  PRO620  LYS621  CYS622 
 ASP623  PHE694  ASN695  SER759  ASP760  ASP761  ALA762  ILE779  LEU786  VAL792 
 PHE793  MET794  SER795  GLU796  ALA797  LYS798  CYS799  TRP800  GLU811  SER814 

> <Gold.Protein.RotatedAtoms>
  150.9349  134.8762  159.7574 H   0  0  0  0  0  0  0  0  0  0  0  0  # atno 6907 bound_to 6896
  152.5054  134.4026  159.9431 H   0  0  0  0  0  0  0  0  0  0  0  0  # atno 6908 bound_to 6896
  151.4050  133.3705  159.2772 H   0  0  0  0  0  0  0  0  0  0  0  0  # atno 6909 bound_to 6896
  146.1720  139.7036  142.8961 H   0  0  0  0  0  0  0  0  0  0  0  0  # atno 7974 bound_to 7965
  156.2171  140.1804  156.7564 H   0  0  0  0  0  0  0  0  0  0  0  0  # atno 8008 bound_to 7997
  154.5808  140.0666  156.9130 H   0  0  0  0  0  0  0  0  0  0  0  0  # atno 8009 bound_to 7997
  155.2506  140.3328  155.4285 H   0  0  0  0  0  0  0  0  0  0  0  0  # atno 8010 bound_to 7997
  140.4561  143.2468  151.8418 H   0  0  0  0  0  0  0  0  0  0  0  0  # atno 10167 bound_to 10162
  156.2184  130.6963  151.0729 H   0  0  0  0  0  0  0  0  0  0  0  0  # atno 10718 bound_to 10713
  152.9883  135.5588  154.5635 H   0  0  0  0  0  0  0  0  0  0  0  0  # atno 10763 bound_to 10752
  154.5050  135.2799  155.1392 H   0  0  0  0  0  0  0  0  0  0  0  0  # atno 10764 bound_to 10752
  154.2807  135.6345  153.5399 H   0  0  0  0  0  0  0  0  0  0  0  0  # atno 10765 bound_to 10752
  140.0714  134.9149  157.1351 H   0  0  0  0  0  0  0  0  0  0  0  0  # atno 11005 bound_to 11000
  145.4314  141.0415  143.2908 LP  0  0  0  0  0  0  0  0  0  0  0  0  # atno 17320 bound_to 7965
  144.8178  139.5846  143.7000 LP  0  0  0  0  0  0  0  0  0  0  0  0  # atno 17321 bound_to 7965
  139.4801  144.5063  151.8993 LP  0  0  0  0  0  0  0  0  0  0  0  0  # atno 17342 bound_to 10162
  140.4149  144.2320  150.5888 LP  0  0  0  0  0  0  0  0  0  0  0  0  # atno 17343 bound_to 10162
  157.7075  131.0750  150.6616 LP  0  0  0  0  0  0  0  0  0  0  0  0  # atno 17370 bound_to 10713
  156.6679  130.4531  149.5666 LP  0  0  0  0  0  0  0  0  0  0  0  0  # atno 17371 bound_to 10713
  140.3622  134.2482  155.7186 LP  0  0  0  0  0  0  0  0  0  0  0  0  # atno 17394 bound_to 11000
  141.2013  133.7966  157.0447 LP  0  0  0  0  0  0  0  0  0  0  0  0  # atno 17395 bound_to 11000

$$$$
