AV-unprocessed.smi:3014|AV-procd|sdf|11466|dock2
  -GOLD-   2272016403D 1   1.00000     0.00000
 Structure written by MMmdl.
 45 46  0  0  0  0  0  0  0  0  1 V2000
  151.2938  144.3542  159.6723 C   0  0  0  0  0  0  0  0  0  0  0  0
  151.9641  143.0458  160.1147 C   0  0  2  0  0  0  0  0  0  0  0  0
  152.8927  143.2715  161.3234 C   0  0  0  0  0  0  0  0  0  0  0  0
  153.5762  141.9678  161.7644 C   0  0  0  0  0  0  0  0  0  0  0  0
  154.3380  141.3138  160.5998 C   0  0  0  0  0  0  0  0  0  0  0  0
  153.4250  141.0745  159.3845 C   0  0  1  0  0  0  0  0  0  0  0  0
  152.4649  140.0933  159.7555 O   0  0  0  0  0  0  0  0  0  0  0  0
  152.0731  139.2115  158.7103 C   0  0  0  0  0  0  0  0  0  0  0  0
  151.1208  138.1469  159.2610 C   0  0  0  0  0  0  0  0  0  0  0  0
  151.5784  137.2433  159.9604 O   0  0  0  0  0  0  0  0  0  0  0  0
  149.8182  138.2831  158.9460 N   0  0  0  0  0  0  0  0  0  0  0  0
  148.7361  137.4331  159.2904 C   0  0  0  0  0  0  0  0  0  0  0  0
  147.7707  137.2267  158.2818 C   0  0  0  0  0  0  0  0  0  0  0  0
  146.6878  136.3826  158.5941 C   0  0  0  0  0  0  0  0  0  0  0  0
  146.5726  135.7920  159.8010 N   0  0  0  0  0  0  0  0  0  0  0  0
  147.5325  136.0390  160.7005 C   0  0  0  0  0  0  0  0  0  0  0  0
  147.4201  135.4249  161.9510 N   0  0  0  0  0  0  0  0  0  0  0  0
  147.6540  136.1735  163.1828 C   0  0  0  0  0  0  0  0  0  0  0  0
  147.0933  134.0071  162.0706 C   0  0  0  0  0  0  0  0  0  0  0  0
  148.5954  136.8273  160.4947 N   0  0  0  0  0  0  0  0  0  0  0  0
  152.7389  142.3891  158.9542 C   0  0  0  0  0  0  0  0  0  0  0  0
  152.0322  145.0886  159.3492 H   0  0  0  0  0  0  0  0  0  0  0  0
  150.7197  144.7958  160.4874 H   0  0  0  0  0  0  0  0  0  0  0  0
  150.6080  144.1833  158.8421 H   0  0  0  0  0  0  0  0  0  0  0  0
  151.1717  142.3613  160.4216 H   0  0  0  0  0  0  0  0  0  0  0  0
  153.6534  144.0112  161.0704 H   0  0  0  0  0  0  0  0  0  0  0  0
  152.3254  143.6856  162.1578 H   0  0  0  0  0  0  0  0  0  0  0  0
  154.2609  142.1688  162.5887 H   0  0  0  0  0  0  0  0  0  0  0  0
  152.8274  141.2745  162.1495 H   0  0  0  0  0  0  0  0  0  0  0  0
  155.1684  141.9577  160.3071 H   0  0  0  0  0  0  0  0  0  0  0  0
  154.7810  140.3722  160.9259 H   0  0  0  0  0  0  0  0  0  0  0  0
  154.0381  140.6920  158.5665 H   0  0  0  0  0  0  0  0  0  0  0  0
  151.5676  139.7510  157.9095 H   0  0  0  0  0  0  0  0  0  0  0  0
  152.9475  138.7198  158.2823 H   0  0  0  0  0  0  0  0  0  0  0  0
  149.5824  139.0836  158.3777 H   0  0  0  0  0  0  0  0  0  0  0  0
  147.8519  137.6919  157.3103 H   0  0  0  0  0  0  0  0  0  0  0  0
  145.9117  136.1800  157.8712 H   0  0  0  0  0  0  0  0  0  0  0  0
  146.9854  137.0334  163.2397 H   0  0  0  0  0  0  0  0  0  0  0  0
  148.6821  136.5352  163.2168 H   0  0  0  0  0  0  0  0  0  0  0  0
  147.4848  135.5632  164.0699 H   0  0  0  0  0  0  0  0  0  0  0  0
  147.8287  133.4012  161.5401 H   0  0  0  0  0  0  0  0  0  0  0  0
  146.1101  133.8066  161.6438 H   0  0  0  0  0  0  0  0  0  0  0  0
  147.0798  133.6778  163.1096 H   0  0  0  0  0  0  0  0  0  0  0  0
  152.0726  142.2173  158.1094 H   0  0  0  0  0  0  0  0  0  0  0  0
  153.5002  143.0822  158.5936 H   0  0  0  0  0  0  0  0  0  0  0  0
  1  2  1  0  0  0  0
  1 22  1  0  0  0  0
  1 23  1  0  0  0  0
  1 24  1  0  0  0  0
  2 21  1  0  0  0  0
  2  3  1  0  0  0  0
  2 25  1  0  0  0  0
  3  4  1  0  0  0  0
  3 26  1  0  0  0  0
  3 27  1  0  0  0  0
  4  5  1  0  0  0  0
  4 28  1  0  0  0  0
  4 29  1  0  0  0  0
  5  6  1  0  0  0  0
  5 30  1  0  0  0  0
  5 31  1  0  0  0  0
  6  7  1  0  0  0  0
  6 21  1  0  0  0  0
  6 32  1  0  0  0  0
  7  8  1  0  0  0  0
  8  9  1  0  0  0  0
  8 33  1  0  0  0  0
  8 34  1  0  0  0  0
  9 10  2  0  0  0  0
  9 11  1  0  0  0  0
 11 12  1  0  0  0  0
 11 35  1  0  0  0  0
 12 20  1  0  0  0  0
 12 13  2  0  0  0  0
 13 14  1  0  0  0  0
 13 36  1  0  0  0  0
 14 15  2  0  0  0  0
 14 37  1  0  0  0  0
 15 16  1  0  0  0  0
 16 17  1  0  0  0  0
 16 20  2  0  0  0  0
 17 18  1  0  0  0  0
 17 19  1  0  0  0  0
 18 38  1  0  0  0  0
 18 39  1  0  0  0  0
 18 40  1  0  0  0  0
 19 41  1  0  0  0  0
 19 42  1  0  0  0  0
 19 43  1  0  0  0  0
 21 44  1  0  0  0  0
 21 45  1  0  0  0  0
M  END
> <s_m_source_file>
AV-unprocessed.smi

> <i_m_source_file_index>
3014

> <i_lp_mmshare_version>
43012

> <i_f3d_flags>
0

> <s_epik_input>
W0NIM11bQ0BASF0xW0NIMl1bQ0gyXVtDSDJdW0NASF0oW0NIMl0xKU9bQ0gyXUMoPU8pW05IXWMyW2NIXVtjSF1uYyhuMilOKFtDSDNdKVtDSDNd

> <s_epik_cmdline>
J2VwaWtfcHl0aG9uJywgJy1waCcsICc3LjAnLCAnLXRuJywgJzgnLCAnLW1hJywgJzIwMCcsICctbWV0YWxfYmluZGluZycsICctaW1hZScsICc8aW5maWxlLm1hZT4nLCAnLW9tYWUnLCAnPG91dGZpbGUubWFlPic=

> <r_lp_tautomer_probability>
1

> <r_epik_Ionization_Penalty>
0.000308195

> <r_epik_Ionization_Penalty_Charging>
0

> <r_epik_Ionization_Penalty_Neutral>
0.000308195

> <r_epik_State_Penalty>
-0

> <r_epik_Charging_Adjusted_Penalty>
0

> <i_epik_Tot_Q>
0

> <i_epik_Tot_abs_Q>
0

> <r_epik_Metal_State_Penalty>
-0

> <b_epik_Metal_Only>
0

> <s_lp_Force_Field>
OPLS_2005

> <r_lp_Energy>
6.70314

> <b_lp_Chiralities_Consistent>
1

> <s_lp_Variant>
AV-unprocessed.smi:3014-1

> <Gold.Version>
5.8.1

> <Gold.Id.Protein>
6NUR|6NUR_protein|mol2

> <Gold.PLP.Fitness>
44.2460

> <Gold.PLP.PLP>
-42.8106

> <Gold.PLP.part.hbond>
-1.9448

> <Gold.PLP.part.metal>
0.0000

> <Gold.PLP.part.buried>
-6.4153

> <Gold.PLP.part.nonpolar>
-35.6609

> <Gold.PLP.part.repulsive>
0.2087

> <Gold.PLP.ligand.clash>
0.0000

> <Gold.PLP.ligand.torsion>
1.6993

> <Gold.PLP.Chemscore.Hbond>
1.5997

> <Gold.PLP.Chemscore.CHOScore>
0.0000

> <Gold.PLP.Chemscore.Metal>
0.0000

> <Gold.Chemscore.Hbonds>
donor molecule, donor type, donor heavy atom, donor atom, acceptor molecule, acceptor atom, score
      P1  H  6896  6908       L1    10  0.89
      P1  H  6931  6943       L1    20  0.83

> <Gold.PLP.Chemscore.Internal.Correction>
0.0351

> <Gold.Rescore>
     Score         DG    S(hbond)    S(metal)    S(lipo)     H(rot)  DE(clash)    DE(int)     intcor
     16.06     -18.76       1.45        0.00     103.45       1.43       0.21       2.48       ----

> <Gold.Chemscore.Fitness>
16.0586

> <Gold.Chemscore.DG>
-18.7564

> <Gold.Chemscore.ZeroCoef>
-5.4800

> <Gold.Chemscore.Hbond>
1.4478

> <Gold.Chemscore.Metal>
0.0000

> <Gold.Chemscore.Lipo>
103.4516

> <Gold.Chemscore.Internal_Hbond>
0.0000

> <Gold.Chemscore.DEClash>
0.2147

> <Gold.Chemscore.DEInternal>
2.4831

> <Gold.Chemscore.Rot>
1.4310

> <Gold.Chemscore.Internal.Correction>
   9.000000E+99

> <Gold.Chemscore.Hbonds>
donor molecule, donor type, donor heavy atom, donor atom, acceptor molecule, acceptor atom, score
      P1  H  6896  6908       L1    10  0.87
      P1  H  6931  6943       L1    20  0.41

> <Gold.Chemscore.Hbond.Weighted>
-4.8358

> <Gold.Chemscore.Metal.Weighted>
-0.0000

> <Gold.Chemscore.Lipo.Weighted>
-12.1038

> <Gold.Chemscore.Internal_Hbond.Weighted>
0.0000

> <Gold.Chemscore.DEClash.Weighted>
0.2147

> <Gold.Chemscore.DEInternal.Weighted>
2.4831

> <Gold.Chemscore.Rot.Weighted>
3.6632

> <Gold.Chemscore.Internal.Correction.Weighted>
   9.000000E+99

> <Gold.Protein.RotatedTorsions>
[ 6907 6896 6895 6894 ] final -116.91 input  -60.11 | X-H torsion
[ 7974 7965 7964 7962 ] final  -61.98 input  175.53 | X-H torsion
[ 8008 7997 7996 7995 ] final   98.67 input   59.86 | X-H torsion
[ 10167 10162 10161 10158 ] final  -14.42 input  -65.29 | X-H torsion
[ 10718 10713 10712 10709 ] final   42.57 input   66.30 | X-H torsion
[ 10763 10752 10751 10750 ] final   39.97 input  -60.55 | X-H torsion
[ 11005 11000 10999 10996 ] final  129.27 input  -57.11 | X-H torsion

> <Gold.Protein.ActiveResidues>
 VAL166  LYS551  ARG553  GLY616  TRP617  ASP618  TYR619  PRO620  LYS621  CYS622 
 ASP623  PHE694  ASN695  SER759  ASP760  ASP761  ALA762  ILE779  LEU786  VAL792 
 PHE793  MET794  SER795  GLU796  ALA797  LYS798  CYS799  TRP800  GLU811  SER814 

> <Gold.Protein.RotatedAtoms>
  150.8094  133.8450  159.3189 H   0  0  0  0  0  0  0  0  0  0  0  0  # atno 6907 bound_to 6896
  151.6240  135.1027  160.0117 H   0  0  0  0  0  0  0  0  0  0  0  0  # atno 6908 bound_to 6896
  152.4185  133.7038  159.6496 H   0  0  0  0  0  0  0  0  0  0  0  0  # atno 6909 bound_to 6896
  145.7969  140.8678  143.0252 H   0  0  0  0  0  0  0  0  0  0  0  0  # atno 7974 bound_to 7965
  156.1027  140.3240  155.7964 H   0  0  0  0  0  0  0  0  0  0  0  0  # atno 8008 bound_to 7997
  155.4808  140.0554  157.2984 H   0  0  0  0  0  0  0  0  0  0  0  0  # atno 8009 bound_to 7997
  154.4707  140.2010  156.0016 H   0  0  0  0  0  0  0  0  0  0  0  0  # atno 8010 bound_to 7997
  140.7201  143.5323  150.9505 H   0  0  0  0  0  0  0  0  0  0  0  0  # atno 10167 bound_to 10162
  157.4063  130.7889  149.7392 H   0  0  0  0  0  0  0  0  0  0  0  0  # atno 10718 bound_to 10713
  152.9950  135.6205  154.2550 H   0  0  0  0  0  0  0  0  0  0  0  0  # atno 10763 bound_to 10752
  154.2288  135.2793  155.2899 H   0  0  0  0  0  0  0  0  0  0  0  0  # atno 10764 bound_to 10752
  154.5467  135.5745  153.6944 H   0  0  0  0  0  0  0  0  0  0  0  0  # atno 10765 bound_to 10752
  139.9606  134.9603  156.9123 H   0  0  0  0  0  0  0  0  0  0  0  0  # atno 11005 bound_to 11000
  144.6774  140.0203  143.7484 LP  0  0  0  0  0  0  0  0  0  0  0  0  # atno 17320 bound_to 7965
  145.9919  139.3021  143.0980 LP  0  0  0  0  0  0  0  0  0  0  0  0  # atno 17321 bound_to 7965
  139.9044  143.6797  152.3126 LP  0  0  0  0  0  0  0  0  0  0  0  0  # atno 17342 bound_to 10162
  139.7158  144.7612  151.1037 LP  0  0  0  0  0  0  0  0  0  0  0  0  # atno 17343 bound_to 10162
  155.9837  130.3997  150.3347 LP  0  0  0  0  0  0  0  0  0  0  0  0  # atno 17370 bound_to 10713
  157.1480  131.0313  151.2898 LP  0  0  0  0  0  0  0  0  0  0  0  0  # atno 17371 bound_to 10713
  140.5509  134.0628  155.7369 LP  0  0  0  0  0  0  0  0  0  0  0  0  # atno 17394 bound_to 11000
  141.1283  133.9346  157.2590 LP  0  0  0  0  0  0  0  0  0  0  0  0  # atno 17395 bound_to 11000

$$$$
