AV-unprocessed.smi:1056|AV-procd|sdf|4631|dock4
  -GOLD-   22720 3133D 1   1.00000     0.00000
 Structure written by MMmdl.
 45 47  0  0  0  0  0  0  0  0  2 V2000
  153.0224  142.9248  161.5383 C   0  0  0  0  0  0  0  0  0  0  0  0
  152.4994  142.4535  160.1927 C   0  0  0  0  0  0  0  0  0  0  0  0
  152.9621  141.2257  159.6677 C   0  0  0  0  0  0  0  0  0  0  0  0
  152.4978  140.7499  158.4220 C   0  0  0  0  0  0  0  0  0  0  0  0
  152.8083  139.5928  157.7286 N   0  0  0  0  0  0  0  0  0  0  0  0
  152.0549  139.7213  156.6404 C   0  0  0  0  0  0  0  0  0  0  0  0
  151.2940  140.8291  156.5451 N   0  0  0  0  0  0  0  0  0  0  0  0
  150.3999  141.1919  155.4603 C   0  0  0  0  0  0  0  0  0  0  0  0
  149.2463  140.1848  155.2913 C   0  0  1  0  0  0  0  0  0  0  0  0
  148.0268  140.8894  155.1521 O   0  0  0  0  0  0  0  0  0  0  0  0
  149.4442  139.2845  154.0562 C   0  0  0  0  0  0  0  0  0  0  0  0
  149.3651  137.8399  154.3906 N   0  3  2  0  0  0  0  0  0  0  0  0
  148.1055  137.4513  155.0689 C   0  0  0  0  0  0  0  0  0  0  0  0
  148.0132  135.9191  155.1750 C   0  0  0  0  0  0  0  0  0  0  0  0
  149.2707  135.2987  155.5856 N   0  0  0  0  0  0  0  0  0  0  0  0
  150.4721  135.8991  155.5838 C   0  0  0  0  0  0  0  0  0  0  0  0
  151.4904  135.3093  155.9351 O   0  0  0  0  0  0  0  0  0  0  0  0
  150.5611  137.3652  155.1323 C   0  0  0  0  0  0  0  0  0  0  0  0
  151.5522  141.5437  157.7094 C   0  0  0  0  0  0  0  0  0  0  0  0
  151.0848  142.7673  158.2203 C   0  0  0  0  0  0  0  0  0  0  0  0
  151.5570  143.2265  159.4678 C   0  0  0  0  0  0  0  0  0  0  0  0
  151.0432  144.5468  160.0145 C   0  0  0  0  0  0  0  0  0  0  0  0
  153.7790  142.2450  161.9314 H   0  0  0  0  0  0  0  0  0  0  0  0
  152.2106  142.9794  162.2639 H   0  0  0  0  0  0  0  0  0  0  0  0
  153.4761  143.9120  161.4504 H   0  0  0  0  0  0  0  0  0  0  0  0
  153.6790  140.6362  160.2201 H   0  0  0  0  0  0  0  0  0  0  0  0
  152.0597  138.9689  155.8653 H   0  0  0  0  0  0  0  0  0  0  0  0
  150.0123  142.1949  155.6449 H   0  0  0  0  0  0  0  0  0  0  0  0
  150.9878  141.2489  154.5434 H   0  0  0  0  0  0  0  0  0  0  0  0
  149.1832  139.5772  156.1936 H   0  0  0  0  0  0  0  0  0  0  0  0
  148.1494  141.5907  154.5300 H   0  0  0  0  0  0  0  0  0  0  0  0
  148.6796  139.5348  153.3185 H   0  0  0  0  0  0  0  0  0  0  0  0
  150.4041  139.4894  153.5795 H   0  0  0  0  0  0  0  0  0  0  0  0
  148.0831  137.8980  156.0643 H   0  0  0  0  0  0  0  0  0  0  0  0
  147.2335  137.8282  154.5358 H   0  0  0  0  0  0  0  0  0  0  0  0
  147.2245  135.6333  155.8715 H   0  0  0  0  0  0  0  0  0  0  0  0
  147.7420  135.5013  154.2048 H   0  0  0  0  0  0  0  0  0  0  0  0
  149.2269  134.3357  155.8876 H   0  0  0  0  0  0  0  0  0  0  0  0
  151.4458  137.4879  154.5059 H   0  0  0  0  0  0  0  0  0  0  0  0
  150.7069  137.9836  156.0191 H   0  0  0  0  0  0  0  0  0  0  0  0
  150.3672  143.3458  157.6581 H   0  0  0  0  0  0  0  0  0  0  0  0
  150.3150  145.0000  159.3412 H   0  0  0  0  0  0  0  0  0  0  0  0
  151.8638  145.2526  160.1432 H   0  0  0  0  0  0  0  0  0  0  0  0
  150.5591  144.3982  160.9801 H   0  0  0  0  0  0  0  0  0  0  0  0
  149.3768  137.3481  153.5083 H   0  0  0  0  0  0  0  0  0  0  0  0
  1  2  1  0  0  0  0
  1 23  1  0  0  0  0
  1 24  1  0  0  0  0
  1 25  1  0  0  0  0
  2 21  1  0  0  0  0
  2  3  2  0  0  0  0
  3  4  1  0  0  0  0
  3 26  1  0  0  0  0
  4 19  2  0  0  0  0
  4  5  1  0  0  0  0
  5  6  2  0  0  0  0
  6  7  1  0  0  0  0
  6 27  1  0  0  0  0
  7  8  1  0  0  0  0
  7 19  1  0  0  0  0
  8  9  1  0  0  0  0
  8 28  1  0  0  0  0
  8 29  1  0  0  0  0
  9 10  1  0  0  0  0
  9 11  1  0  0  0  0
  9 30  1  0  0  0  0
 10 31  1  0  0  0  0
 11 12  1  0  0  0  0
 11 32  1  0  0  0  0
 11 33  1  0  0  0  0
 12 18  1  0  0  0  0
 12 13  1  0  0  0  0
 12 45  1  0  0  0  0
 13 14  1  0  0  0  0
 13 34  1  0  0  0  0
 13 35  1  0  0  0  0
 14 15  1  0  0  0  0
 14 36  1  0  0  0  0
 14 37  1  0  0  0  0
 15 16  1  0  0  0  0
 15 38  1  0  0  0  0
 16 17  2  0  0  0  0
 16 18  1  0  0  0  0
 18 39  1  0  0  0  0
 18 40  1  0  0  0  0
 19 20  1  0  0  0  0
 20 21  2  0  0  0  0
 20 41  1  0  0  0  0
 21 22  1  0  0  0  0
 22 42  1  0  0  0  0
 22 43  1  0  0  0  0
 22 44  1  0  0  0  0
M  CHG  1  12   1
M  END
> <s_m_source_file>
AV-unprocessed.smi

> <i_m_source_file_index>
1056

> <i_lp_mmshare_version>
43012

> <i_f3d_flags>
0

> <s_epik_input>
W0NIM11jKFtjSF0xKWMoW0NIM10pW2NIXWMoYzEyKW4oW2NIXW4yKVtDSDJdW0NASF0oW09IXSlbQ0gyXU4zW0NIMl1bQ0gyXVtOSF1DKD1PKVtDSDJdMw==

> <s_epik_cmdline>
J2VwaWtfcHl0aG9uJywgJy1waCcsICc3LjAnLCAnLXRuJywgJzgnLCAnLW1hJywgJzIwMCcsICctbWV0YWxfYmluZGluZycsICctaW1hZScsICc8aW5maWxlLm1hZT4nLCAnLW9tYWUnLCAnPG91dGZpbGUubWFlPic=

> <r_epik_Ionization_Penalty>
0.153633

> <r_epik_Ionization_Penalty_Charging>
0.0674887

> <r_epik_Ionization_Penalty_Neutral>
0.0861443

> <r_epik_State_Penalty>
0.135155

> <r_epik_Charging_Adjusted_Penalty>
0.202644

> <i_epik_Tot_Q>
1

> <i_epik_Tot_abs_Q>
1

> <r_epik_Metal_State_Penalty>
0.190685

> <b_epik_Metal_Only>
0

> <s_lp_Force_Field>
OPLS_2005

> <r_lp_Energy>
24.3112

> <b_lp_Chiralities_Consistent>
1

> <s_lp_Variant>
AV-unprocessed.smi:1056-2

> <Gold.Version>
5.8.1

> <Gold.Id.Protein>
6NUR|6NUR_protein|mol2

> <Gold.PLP.Fitness>
47.3511

> <Gold.PLP.PLP>
-38.1801

> <Gold.PLP.part.hbond>
-3.0000

> <Gold.PLP.part.metal>
0.0000

> <Gold.PLP.part.buried>
-3.0631

> <Gold.PLP.part.nonpolar>
-31.4685

> <Gold.PLP.part.repulsive>
0.0473

> <Gold.PLP.ligand.clash>
0.0000

> <Gold.PLP.ligand.torsion>
1.4320

> <Gold.PLP.Chemscore.Hbond>
4.0000

> <Gold.PLP.Chemscore.CHOScore>
0.0000

> <Gold.PLP.Chemscore.Metal>
0.0000

> <Gold.Chemscore.Hbonds>
donor molecule, donor type, donor heavy atom, donor atom, acceptor molecule, acceptor atom, score
      L1  H    12    45       P1  7948  2.00
      P1  H  7997  8010       L1     5  1.00
      P1  H 10752 10763       L1    17  1.00

> <Gold.PLP.Chemscore.Internal.Correction>
0.0349

> <Gold.Rescore>
     Score         DG    S(hbond)    S(metal)    S(lipo)     H(rot)  DE(clash)    DE(int)     intcor
     16.20     -17.97       1.86        0.00     105.80       2.38       0.35       1.42       ----

> <Gold.Chemscore.Fitness>
16.2022

> <Gold.Chemscore.DG>
-17.9727

> <Gold.Chemscore.ZeroCoef>
-5.4800

> <Gold.Chemscore.Hbond>
1.8569

> <Gold.Chemscore.Metal>
0.0000

> <Gold.Chemscore.Lipo>
105.8026

> <Gold.Chemscore.Internal_Hbond>
0.0000

> <Gold.Chemscore.DEClash>
0.3478

> <Gold.Chemscore.DEInternal>
1.4227

> <Gold.Chemscore.Rot>
2.3783

> <Gold.Chemscore.Internal.Correction>
   9.000000E+99

> <Gold.Chemscore.Hbonds>
donor molecule, donor type, donor heavy atom, donor atom, acceptor molecule, acceptor atom, score
      L1  H    12    45       P1  7948  0.92
      P1  H  7997  8010       L1     5  0.08
      P1  H 10752 10763       L1    17  0.89

> <Gold.Chemscore.Hbond.Weighted>
-6.2021

> <Gold.Chemscore.Metal.Weighted>
-0.0000

> <Gold.Chemscore.Lipo.Weighted>
-12.3789

> <Gold.Chemscore.Internal_Hbond.Weighted>
0.0000

> <Gold.Chemscore.DEClash.Weighted>
0.3478

> <Gold.Chemscore.DEInternal.Weighted>
1.4227

> <Gold.Chemscore.Rot.Weighted>
6.0884

> <Gold.Chemscore.Internal.Correction.Weighted>
   9.000000E+99

> <Gold.Protein.RotatedTorsions>
[ 6907 6896 6895 6894 ] final  146.10 input  -60.11 | X-H torsion
[ 7974 7965 7964 7962 ] final -146.00 input  175.53 | X-H torsion
[ 8008 7997 7996 7995 ] final   35.97 input   59.86 | X-H torsion
[ 10167 10162 10161 10158 ] final  150.10 input  -65.29 | X-H torsion
[ 10718 10713 10712 10709 ] final  136.89 input   66.30 | X-H torsion
[ 10763 10752 10751 10750 ] final   72.40 input  -60.55 | X-H torsion
[ 11005 11000 10999 10996 ] final   99.01 input  -57.11 | X-H torsion

> <Gold.Protein.ActiveResidues>
 VAL166  LYS551  ARG553  GLY616  TRP617  ASP618  TYR619  PRO620  LYS621  CYS622 
 ASP623  PHE694  ASN695  SER759  ASP760  ASP761  ALA762  ILE779  LEU786  VAL792 
 PHE793  MET794  SER795  GLU796  ALA797  LYS798  CYS799  TRP800  GLU811  SER814 

> <Gold.Protein.RotatedAtoms>
  152.1723  133.4652  159.4915 H   0  0  0  0  0  0  0  0  0  0  0  0  # atno 6907 bound_to 6896
  150.6921  134.1937  159.4304 H   0  0  0  0  0  0  0  0  0  0  0  0  # atno 6908 bound_to 6896
  151.9845  135.0011  160.0609 H   0  0  0  0  0  0  0  0  0  0  0  0  # atno 6909 bound_to 6896
  144.8189  140.5512  143.5592 H   0  0  0  0  0  0  0  0  0  0  0  0  # atno 7974 bound_to 7965
  155.1797  140.3299  155.4377 H   0  0  0  0  0  0  0  0  0  0  0  0  # atno 8008 bound_to 7997
  156.2481  140.1929  156.6846 H   0  0  0  0  0  0  0  0  0  0  0  0  # atno 8009 bound_to 7997
  154.6279  140.0586  156.9683 H   0  0  0  0  0  0  0  0  0  0  0  0  # atno 8010 bound_to 7997
  139.4854  144.5549  151.7335 H   0  0  0  0  0  0  0  0  0  0  0  0  # atno 10167 bound_to 10162
  157.4419  131.1058  151.0134 H   0  0  0  0  0  0  0  0  0  0  0  0  # atno 10718 bound_to 10713
  153.0457  135.5101  154.7738 H   0  0  0  0  0  0  0  0  0  0  0  0  # atno 10763 bound_to 10752
  154.6641  135.2943  154.9831 H   0  0  0  0  0  0  0  0  0  0  0  0  # atno 10764 bound_to 10752
  154.0672  135.6682  153.4872 H   0  0  0  0  0  0  0  0  0  0  0  0  # atno 10765 bound_to 10752
  139.8771  134.9076  156.4542 H   0  0  0  0  0  0  0  0  0  0  0  0  # atno 11005 bound_to 11000
  145.5151  139.1478  143.3583 LP  0  0  0  0  0  0  0  0  0  0  0  0  # atno 17320 bound_to 7965
  146.2493  140.5291  142.8900 LP  0  0  0  0  0  0  0  0  0  0  0  0  # atno 17321 bound_to 7965
  140.5109  144.1027  150.5995 LP  0  0  0  0  0  0  0  0  0  0  0  0  # atno 17342 bound_to 10162
  140.3952  143.2732  152.0013 LP  0  0  0  0  0  0  0  0  0  0  0  0  # atno 17343 bound_to 10162
  157.0994  130.5975  149.5457 LP  0  0  0  0  0  0  0  0  0  0  0  0  # atno 17370 bound_to 10713
  155.9952  130.5018  150.7449 LP  0  0  0  0  0  0  0  0  0  0  0  0  # atno 17371 bound_to 10713
  140.8910  133.7848  155.9572 LP  0  0  0  0  0  0  0  0  0  0  0  0  # atno 17394 bound_to 11000
  140.8753  134.2677  157.5171 LP  0  0  0  0  0  0  0  0  0  0  0  0  # atno 17395 bound_to 11000

$$$$
