AV-unprocessed.smi:2591|AV-procd|sdf|10158|dock1
  -GOLD-   2272014173D 1   1.00000     0.00000
 Structure written by MMmdl.
 34 35  0  0  0  0  0  0  0  0  1 V2000
  153.8971  135.7645  164.4660 C   0  0  0  0  0  0  0  0  0  0  0  0
  154.6354  136.5906  163.5228 N   0  0  0  0  0  0  0  0  0  0  0  0
  155.2974  137.7057  164.1857 C   0  0  0  0  0  0  0  0  0  0  0  0
  156.0731  138.5782  163.1847 C   0  0  0  0  0  0  0  0  0  0  0  0
  155.1909  139.0344  162.1634 O   0  0  0  0  0  0  0  0  0  0  0  0
  154.5512  137.9715  161.4548 C   0  0  2  0  0  0  0  0  0  0  0  0
  153.6530  138.5721  160.3637 C   0  0  0  0  0  0  0  0  0  0  0  0
  153.0589  137.8336  159.5766 O   0  0  0  0  0  0  0  0  0  0  0  0
  153.5945  139.9174  160.3331 N   0  0  0  0  0  0  0  0  0  0  0  0
  152.8662  140.7493  159.4421 C   0  0  0  0  0  0  0  0  0  0  0  0
  152.5889  142.0469  159.9271 C   0  0  0  0  0  0  0  0  0  0  0  0
  151.8783  142.9598  159.1179 C   0  0  0  0  0  0  0  0  0  0  0  0
  151.5624  144.3619  159.6153 C   0  0  0  0  0  0  0  0  0  0  0  0
  152.0362  144.5460  160.8480 F   0  0  0  0  0  0  0  0  0  0  0  0
  152.1248  145.2540  158.8012 F   0  0  0  0  0  0  0  0  0  0  0  0
  150.2455  144.5709  159.6382 F   0  0  0  0  0  0  0  0  0  0  0  0
  151.4535  142.5321  157.8436 C   0  0  0  0  0  0  0  0  0  0  0  0
  151.7681  141.2224  157.4392 C   0  0  0  0  0  0  0  0  0  0  0  0
  152.4549  140.3558  158.2116 N   0  0  0  0  0  0  0  0  0  0  0  0
  153.7726  137.0937  162.4616 C   0  0  0  0  0  0  0  0  0  0  0  0
  154.5609  135.3690  165.2354 H   0  0  0  0  0  0  0  0  0  0  0  0
  153.4361  134.9171  163.9575 H   0  0  0  0  0  0  0  0  0  0  0  0
  153.1084  136.3359  164.9573 H   0  0  0  0  0  0  0  0  0  0  0  0
  154.5589  138.3203  164.7032 H   0  0  0  0  0  0  0  0  0  0  0  0
  155.9815  137.3308  164.9476 H   0  0  0  0  0  0  0  0  0  0  0  0
  156.5092  139.4395  163.6905 H   0  0  0  0  0  0  0  0  0  0  0  0
  156.8960  138.0169  162.7397 H   0  0  0  0  0  0  0  0  0  0  0  0
  155.3136  137.3685  160.9580 H   0  0  0  0  0  0  0  0  0  0  0  0
  154.1371  140.3995  161.0348 H   0  0  0  0  0  0  0  0  0  0  0  0
  152.9201  142.3407  160.9127 H   0  0  0  0  0  0  0  0  0  0  0  0
  150.8979  143.1876  157.1890 H   0  0  0  0  0  0  0  0  0  0  0  0
  151.4588  140.8597  156.4702 H   0  0  0  0  0  0  0  0  0  0  0  0
  153.3155  136.2527  161.9382 H   0  0  0  0  0  0  0  0  0  0  0  0
  152.9551  137.6722  162.8960 H   0  0  0  0  0  0  0  0  0  0  0  0
  1  2  1  0  0  0  0
  1 21  1  0  0  0  0
  1 22  1  0  0  0  0
  1 23  1  0  0  0  0
  2 20  1  0  0  0  0
  2  3  1  0  0  0  0
  3  4  1  0  0  0  0
  3 24  1  0  0  0  0
  3 25  1  0  0  0  0
  4  5  1  0  0  0  0
  4 26  1  0  0  0  0
  4 27  1  0  0  0  0
  5  6  1  0  0  0  0
  6  7  1  0  0  0  0
  6 20  1  0  0  0  0
  6 28  1  0  0  0  0
  7  8  2  0  0  0  0
  7  9  1  0  0  0  0
  9 10  1  0  0  0  0
  9 29  1  0  0  0  0
 10 19  1  0  0  0  0
 10 11  2  0  0  0  0
 11 12  1  0  0  0  0
 11 30  1  0  0  0  0
 12 13  1  0  0  0  0
 12 17  2  0  0  0  0
 13 14  1  0  0  0  0
 13 15  1  0  0  0  0
 13 16  1  0  0  0  0
 17 18  1  0  0  0  0
 17 31  1  0  0  0  0
 18 19  2  0  0  0  0
 18 32  1  0  0  0  0
 20 33  1  0  0  0  0
 20 34  1  0  0  0  0
M  END
> <s_m_source_file>
AV-unprocessed.smi

> <i_m_source_file_index>
2591

> <i_lp_mmshare_version>
43012

> <i_f3d_flags>
0

> <s_epik_input>
W0NIM11OMVtDSDJdW0NIMl1PW0NASF0oW0NIMl0xKUMoPU8pW05IXWMyW2NIXWMoQyhGKShGKUYpW2NIXVtjSF1uMg==

> <s_epik_cmdline>
J2VwaWtfcHl0aG9uJywgJy1waCcsICc3LjAnLCAnLXRuJywgJzgnLCAnLW1hJywgJzIwMCcsICctbWV0YWxfYmluZGluZycsICctaW1hZScsICc8aW5maWxlLm1hZT4nLCAnLW9tYWUnLCAnPG91dGZpbGUubWFlPic=

> <r_epik_Ionization_Penalty>
0.526245

> <r_epik_Ionization_Penalty_Charging>
0

> <r_epik_Ionization_Penalty_Neutral>
0.526245

> <r_epik_State_Penalty>
0.534659

> <r_epik_Charging_Adjusted_Penalty>
0.534659

> <i_epik_Tot_Q>
0

> <i_epik_Tot_abs_Q>
0

> <r_epik_Metal_State_Penalty>
0.534657

> <b_epik_Metal_Only>
0

> <s_lp_Force_Field>
OPLS_2005

> <r_lp_Energy>
21.9247

> <b_lp_Chiralities_Consistent>
1

> <s_lp_Variant>
AV-unprocessed.smi:2591-6

> <Gold.Version>
5.8.1

> <Gold.Id.Protein>
6NUR|6NUR_protein|mol2

> <Gold.PLP.Fitness>
41.2028

> <Gold.PLP.PLP>
-40.5060

> <Gold.PLP.part.hbond>
-0.4253

> <Gold.PLP.part.metal>
0.0000

> <Gold.PLP.part.buried>
-6.5051

> <Gold.PLP.part.nonpolar>
-33.1839

> <Gold.PLP.part.repulsive>
0.0972

> <Gold.PLP.ligand.clash>
1.0808

> <Gold.PLP.ligand.torsion>
0.1346

> <Gold.PLP.Chemscore.Hbond>
0.3120

> <Gold.PLP.Chemscore.CHOScore>
0.0000

> <Gold.PLP.Chemscore.Metal>
0.0000

> <Gold.PLP.Chemscore.Internal.Correction>
1.1109

> <Gold.Rescore>
     Score         DG    S(hbond)    S(metal)    S(lipo)     H(rot)  DE(clash)    DE(int)     intcor
     11.29     -12.73       0.02        0.00      83.21       1.00       0.10       1.33       ----

> <Gold.Chemscore.Fitness>
11.2928

> <Gold.Chemscore.DG>
-12.7283

> <Gold.Chemscore.ZeroCoef>
-5.4800

> <Gold.Chemscore.Hbond>
0.0219

> <Gold.Chemscore.Metal>
0.0000

> <Gold.Chemscore.Lipo>
83.2070

> <Gold.Chemscore.Internal_Hbond>
0.0000

> <Gold.Chemscore.DEClash>
0.1037

> <Gold.Chemscore.DEInternal>
1.3318

> <Gold.Chemscore.Rot>
1.0000

> <Gold.Chemscore.Internal.Correction>
   9.000000E+99

> <Gold.Chemscore.Hbonds>
donor molecule, donor type, donor heavy atom, donor atom, acceptor molecule, acceptor atom, score
      P1  H  7997  8009       L1    19  0.01

> <Gold.Chemscore.Hbond.Weighted>
-0.0731

> <Gold.Chemscore.Metal.Weighted>
-0.0000

> <Gold.Chemscore.Lipo.Weighted>
-9.7352

> <Gold.Chemscore.Internal_Hbond.Weighted>
0.0000

> <Gold.Chemscore.DEClash.Weighted>
0.1037

> <Gold.Chemscore.DEInternal.Weighted>
1.3318

> <Gold.Chemscore.Rot.Weighted>
2.5600

> <Gold.Chemscore.Internal.Correction.Weighted>
   9.000000E+99

> <Gold.Protein.RotatedTorsions>
[ 6907 6896 6895 6894 ] final  161.19 input  -60.11 | X-H torsion
[ 7974 7965 7964 7962 ] final -164.83 input  175.53 | X-H torsion
[ 8008 7997 7996 7995 ] final  162.61 input   59.86 | X-H torsion
[ 10167 10162 10161 10158 ] final -148.21 input  -65.29 | X-H torsion
[ 10718 10713 10712 10709 ] final  -61.48 input   66.30 | X-H torsion
[ 10763 10752 10751 10750 ] final    7.79 input  -60.55 | X-H torsion
[ 11005 11000 10999 10996 ] final  136.08 input  -57.11 | X-H torsion

> <Gold.Protein.ActiveResidues>
 VAL166  LYS551  ARG553  GLY616  TRP617  ASP618  TYR619  PRO620  LYS621  CYS622 
 ASP623  PHE694  ASN695  SER759  ASP760  ASP761  ALA762  ILE779  LEU786  VAL792 
 PHE793  MET794  SER795  GLU796  ALA797  LYS798  CYS799  TRP800  GLU811  SER814 

> <Gold.Protein.RotatedAtoms>
  151.9594  133.3690  159.4029 H   0  0  0  0  0  0  0  0  0  0  0  0  # atno 6907 bound_to 6896
  150.6967  134.4257  159.5234 H   0  0  0  0  0  0  0  0  0  0  0  0  # atno 6908 bound_to 6896
  152.1943  134.8644  160.0565 H   0  0  0  0  0  0  0  0  0  0  0  0  # atno 6909 bound_to 6896
  144.7286  140.2903  143.6221 H   0  0  0  0  0  0  0  0  0  0  0  0  # atno 7974 bound_to 7965
  156.2018  140.1745  156.7883 H   0  0  0  0  0  0  0  0  0  0  0  0  # atno 8008 bound_to 7997
  154.5602  140.0701  156.8838 H   0  0  0  0  0  0  0  0  0  0  0  0  # atno 8009 bound_to 7997
  155.2863  140.3352  155.4257 H   0  0  0  0  0  0  0  0  0  0  0  0  # atno 8010 bound_to 7997
  139.7552  143.8459  152.2595 H   0  0  0  0  0  0  0  0  0  0  0  0  # atno 10167 bound_to 10162
  156.0919  130.4199  150.1000 H   0  0  0  0  0  0  0  0  0  0  0  0  # atno 10718 bound_to 10713
  153.2323  135.6894  153.7876 H   0  0  0  0  0  0  0  0  0  0  0  0  # atno 10763 bound_to 10752
  153.7035  135.3293  155.3231 H   0  0  0  0  0  0  0  0  0  0  0  0  # atno 10764 bound_to 10752
  154.8319  135.4573  154.1214 H   0  0  0  0  0  0  0  0  0  0  0  0  # atno 10765 bound_to 10752
  140.0022  134.9474  157.0096 H   0  0  0  0  0  0  0  0  0  0  0  0  # atno 11005 bound_to 11000
  145.7862  139.1910  143.2129 LP  0  0  0  0  0  0  0  0  0  0  0  0  # atno 17320 bound_to 7965
  146.0793  140.7781  142.9649 LP  0  0  0  0  0  0  0  0  0  0  0  0  # atno 17321 bound_to 7965
  139.8449  144.7192  150.9286 LP  0  0  0  0  0  0  0  0  0  0  0  0  # atno 17342 bound_to 10162
  140.7802  143.3951  151.1244 LP  0  0  0  0  0  0  0  0  0  0  0  0  # atno 17343 bound_to 10162
  156.9008  130.9619  151.3576 LP  0  0  0  0  0  0  0  0  0  0  0  0  # atno 17370 bound_to 10713
  157.6070  130.8555  149.8891 LP  0  0  0  0  0  0  0  0  0  0  0  0  # atno 17371 bound_to 10713
  140.4707  134.1389  155.7203 LP  0  0  0  0  0  0  0  0  0  0  0  0  # atno 17394 bound_to 11000
  141.1650  133.8720  157.1740 LP  0  0  0  0  0  0  0  0  0  0  0  0  # atno 17395 bound_to 11000

$$$$
