AV-unprocessed.smi:1751|AV-procd|sdf|7056|dock10
  -GOLD-   22720 8273D 1   1.00000     0.00000
 Structure written by MMmdl.
 35 36  0  0  0  0  0  0  0  0  1 V2000
  152.4719  140.1440  158.5067 C   0  0  0  0  0  0  0  0  0  0  0  0
  152.4326  140.2212  157.0859 O   0  0  0  0  0  0  0  0  0  0  0  0
  151.7859  139.2181  156.3932 C   0  0  0  0  0  0  0  0  0  0  0  0
  151.5205  138.0038  157.0567 C   0  0  0  0  0  0  0  0  0  0  0  0
  150.8637  136.9767  156.3533 C   0  0  0  0  0  0  0  0  0  0  0  0
  150.5008  137.1874  155.0080 C   0  0  0  0  0  0  0  0  0  0  0  0
  149.8263  136.1392  154.3262 N   0  0  0  0  0  0  0  0  0  0  0  0
  149.4548  134.9389  154.8029 C   0  0  0  0  0  0  0  0  0  0  0  0
  149.6362  134.5422  155.9540 O   0  0  0  0  0  0  0  0  0  0  0  0
  148.8270  134.2180  153.8639 N   0  0  0  0  0  0  0  0  0  0  0  0
  148.2552  132.8923  154.0706 C   0  0  0  0  0  0  0  0  0  0  0  0
  147.6908  132.3118  152.7633 C   0  0  2  0  0  0  0  0  0  0  0  0
  146.6444  133.2019  152.0956 C   0  0  0  0  0  0  0  0  0  0  0  0
  145.8672  132.1946  151.2801 C   0  0  0  0  0  0  0  0  0  0  0  0
  145.8336  130.9938  152.2208 C   0  0  0  0  0  0  0  0  0  0  0  0
  147.0182  131.0785  153.0095 O   0  0  0  0  0  0  0  0  0  0  0  0
  150.7986  138.4474  154.4343 C   0  0  0  0  0  0  0  0  0  0  0  0
  151.4262  139.4374  155.1044 N   0  0  0  0  0  0  0  0  0  0  0  0
  153.0129  141.0045  158.8999 H   0  0  0  0  0  0  0  0  0  0  0  0
  152.9910  139.2455  158.8434 H   0  0  0  0  0  0  0  0  0  0  0  0
  151.4687  140.1604  158.9352 H   0  0  0  0  0  0  0  0  0  0  0  0
  151.8158  137.8631  158.0858 H   0  0  0  0  0  0  0  0  0  0  0  0
  150.6479  136.0377  156.8420 H   0  0  0  0  0  0  0  0  0  0  0  0
  149.5318  136.3534  153.3845 H   0  0  0  0  0  0  0  0  0  0  0  0
  148.7139  134.6234  152.9463 H   0  0  0  0  0  0  0  0  0  0  0  0
  149.0335  132.2388  154.4655 H   0  0  0  0  0  0  0  0  0  0  0  0
  147.4746  132.9396  154.8318 H   0  0  0  0  0  0  0  0  0  0  0  0
  148.4938  132.1196  152.0498 H   0  0  0  0  0  0  0  0  0  0  0  0
  145.9929  133.6601  152.8412 H   0  0  0  0  0  0  0  0  0  0  0  0
  147.0846  133.9949  151.4904 H   0  0  0  0  0  0  0  0  0  0  0  0
  144.8740  132.5432  150.9965 H   0  0  0  0  0  0  0  0  0  0  0  0
  146.4164  131.9460  150.3711 H   0  0  0  0  0  0  0  0  0  0  0  0
  144.9719  131.0552  152.8866 H   0  0  0  0  0  0  0  0  0  0  0  0
  145.7793  130.0471  151.6828 H   0  0  0  0  0  0  0  0  0  0  0  0
  150.5176  138.6957  153.4228 H   0  0  0  0  0  0  0  0  0  0  0  0
  1  2  1  0  0  0  0
  1 19  1  0  0  0  0
  1 20  1  0  0  0  0
  1 21  1  0  0  0  0
  2  3  1  0  0  0  0
  3 18  1  0  0  0  0
  3  4  2  0  0  0  0
  4  5  1  0  0  0  0
  4 22  1  0  0  0  0
  5  6  2  0  0  0  0
  5 23  1  0  0  0  0
  6  7  1  0  0  0  0
  6 17  1  0  0  0  0
  7  8  1  0  0  0  0
  7 24  1  0  0  0  0
  8  9  2  0  0  0  0
  8 10  1  0  0  0  0
 10 11  1  0  0  0  0
 10 25  1  0  0  0  0
 11 12  1  0  0  0  0
 11 26  1  0  0  0  0
 11 27  1  0  0  0  0
 12 16  1  0  0  0  0
 12 13  1  0  0  0  0
 12 28  1  0  0  0  0
 13 14  1  0  0  0  0
 13 29  1  0  0  0  0
 13 30  1  0  0  0  0
 14 15  1  0  0  0  0
 14 31  1  0  0  0  0
 14 32  1  0  0  0  0
 15 16  1  0  0  0  0
 15 33  1  0  0  0  0
 15 34  1  0  0  0  0
 17 18  2  0  0  0  0
 17 35  1  0  0  0  0
M  END
> <s_m_source_file>
AV-unprocessed.smi

> <i_m_source_file_index>
1751

> <i_lp_mmshare_version>
43012

> <i_f3d_flags>
0

> <s_epik_input>
W0NIM11PYzFbY0hdW2NIXWMoW2NIXW4xKVtOSF1DKD1PKVtOSF1bQ0gyXVtDQEBIXTJbQ0gyXVtDSDJdW0NIMl1PMg==

> <s_epik_cmdline>
J2VwaWtfcHl0aG9uJywgJy1waCcsICc3LjAnLCAnLXRuJywgJzgnLCAnLW1hJywgJzIwMCcsICctbWV0YWxfYmluZGluZycsICctaW1hZScsICc8aW5maWxlLm1hZT4nLCAnLW9tYWUnLCAnPG91dGZpbGUubWFlPic=

> <r_lp_tautomer_probability>
1

> <r_epik_Ionization_Penalty>
9.01694e-05

> <r_epik_Ionization_Penalty_Charging>
0

> <r_epik_Ionization_Penalty_Neutral>
9.01694e-05

> <r_epik_State_Penalty>
-0

> <r_epik_Charging_Adjusted_Penalty>
0

> <i_epik_Tot_Q>
0

> <i_epik_Tot_abs_Q>
0

> <r_epik_Metal_State_Penalty>
-0

> <b_epik_Metal_Only>
0

> <s_lp_Force_Field>
OPLS_2005

> <r_lp_Energy>
19.4373

> <b_lp_Chiralities_Consistent>
1

> <s_lp_Variant>
AV-unprocessed.smi:1751-1

> <Gold.Version>
5.8.1

> <Gold.Id.Protein>
6NUR|6NUR_protein|mol2

> <Gold.PLP.Fitness>
38.1270

> <Gold.PLP.PLP>
-25.4124

> <Gold.PLP.part.hbond>
-4.8881

> <Gold.PLP.part.metal>
0.0000

> <Gold.PLP.part.buried>
0.7886

> <Gold.PLP.part.nonpolar>
-20.5108

> <Gold.PLP.part.repulsive>
0.2465

> <Gold.PLP.ligand.clash>
0.0000

> <Gold.PLP.ligand.torsion>
0.2505

> <Gold.PLP.Chemscore.Hbond>
3.7168

> <Gold.PLP.Chemscore.CHOScore>
0.6872

> <Gold.PLP.Chemscore.Metal>
0.0000

> <Gold.Chemscore.Hbonds>
donor molecule, donor type, donor heavy atom, donor atom, acceptor molecule, acceptor atom, score
      L1  H     7    24       P1  7948  1.00
      L1  H    10    25       P1  7948  0.79
      P1  H  7989  7998       L1    18  0.65
      P1  H  7997  8010       L1     2  1.00
      L1  C    17    35       P1  7957  0.41

> <Gold.PLP.Chemscore.Internal.Correction>
0.0035

> <Gold.Rescore>
     Score         DG    S(hbond)    S(metal)    S(lipo)     H(rot)  DE(clash)    DE(int)     intcor
     14.60     -16.23       2.56        0.00      51.47       1.50       0.03       1.60       ----

> <Gold.Chemscore.Fitness>
14.6011

> <Gold.Chemscore.DG>
-16.2347

> <Gold.Chemscore.ZeroCoef>
-5.4800

> <Gold.Chemscore.Hbond>
2.5645

> <Gold.Chemscore.Metal>
0.0000

> <Gold.Chemscore.Lipo>
51.4689

> <Gold.Chemscore.Internal_Hbond>
0.0000

> <Gold.Chemscore.DEClash>
0.0324

> <Gold.Chemscore.DEInternal>
1.6011

> <Gold.Chemscore.Rot>
1.4971

> <Gold.Chemscore.Internal.Correction>
   9.000000E+99

> <Gold.Chemscore.Hbonds>
donor molecule, donor type, donor heavy atom, donor atom, acceptor molecule, acceptor atom, score
      L1  H     7    24       P1  7948  0.54
      L1  H    10    25       P1  7948  0.13
      P1  H  7989  7998       L1    18  0.15
      P1  H  7997  8010       L1     2  0.25

> <Gold.Chemscore.Hbond.Weighted>
-8.5654

> <Gold.Chemscore.Metal.Weighted>
-0.0000

> <Gold.Chemscore.Lipo.Weighted>
-6.0219

> <Gold.Chemscore.Internal_Hbond.Weighted>
0.0000

> <Gold.Chemscore.DEClash.Weighted>
0.0324

> <Gold.Chemscore.DEInternal.Weighted>
1.6011

> <Gold.Chemscore.Rot.Weighted>
3.8326

> <Gold.Chemscore.Internal.Correction.Weighted>
   9.000000E+99

> <Gold.Protein.RotatedTorsions>
[ 6907 6896 6895 6894 ] final    8.04 input  -60.11 | X-H torsion
[ 7974 7965 7964 7962 ] final -117.19 input  175.53 | X-H torsion
[ 8008 7997 7996 7995 ] final   67.95 input   59.86 | X-H torsion
[ 10167 10162 10161 10158 ] final  -12.00 input  -65.29 | X-H torsion
[ 10718 10713 10712 10709 ] final  -35.40 input   66.30 | X-H torsion
[ 10763 10752 10751 10750 ] final  -39.08 input  -60.55 | X-H torsion
[ 11005 11000 10999 10996 ] final  102.59 input  -57.11 | X-H torsion

> <Gold.Protein.ActiveResidues>
 VAL166  LYS551  ARG553  GLY616  TRP617  ASP618  TYR619  PRO620  LYS621  CYS622 
 ASP623  PHE694  ASN695  SER759  ASP760  ASP761  ALA762  ILE779  LEU786  VAL792 
 PHE793  MET794  SER795  GLU796  ALA797  LYS798  CYS799  TRP800  GLU811  SER814 

> <Gold.Protein.RotatedAtoms>
  151.6996  135.0932  160.0248 H   0  0  0  0  0  0  0  0  0  0  0  0  # atno 6907 bound_to 6896
  152.3729  133.6438  159.6109 H   0  0  0  0  0  0  0  0  0  0  0  0  # atno 6908 bound_to 6896
  150.7686  133.9158  159.3424 H   0  0  0  0  0  0  0  0  0  0  0  0  # atno 6909 bound_to 6896
  145.0881  140.8471  143.3999 H   0  0  0  0  0  0  0  0  0  0  0  0  # atno 7974 bound_to 7965
  155.7007  140.3495  155.4932 H   0  0  0  0  0  0  0  0  0  0  0  0  # atno 8008 bound_to 7997
  155.9443  140.1107  157.1052 H   0  0  0  0  0  0  0  0  0  0  0  0  # atno 8009 bound_to 7997
  154.4109  140.1206  156.4954 H   0  0  0  0  0  0  0  0  0  0  0  0  # atno 8010 bound_to 7997
  140.7151  143.5579  150.9228 H   0  0  0  0  0  0  0  0  0  0  0  0  # atno 10167 bound_to 10162
  156.3391  130.4291  149.7803 H   0  0  0  0  0  0  0  0  0  0  0  0  # atno 10718 bound_to 10713
  153.9234  135.6780  153.4747 H   0  0  0  0  0  0  0  0  0  0  0  0  # atno 10763 bound_to 10752
  153.1017  135.4825  154.8875 H   0  0  0  0  0  0  0  0  0  0  0  0  # atno 10764 bound_to 10752
  154.7466  135.3174  154.8590 H   0  0  0  0  0  0  0  0  0  0  0  0  # atno 10765 bound_to 10752
  139.8778  134.9230  156.5081 H   0  0  0  0  0  0  0  0  0  0  0  0  # atno 11005 bound_to 11000
  145.1098  139.2765  143.5643 LP  0  0  0  0  0  0  0  0  0  0  0  0  # atno 17320 bound_to 7965
  146.3531  140.0690  142.8624 LP  0  0  0  0  0  0  0  0  0  0  0  0  # atno 17321 bound_to 7965
  139.9304  143.6500  152.3077 LP  0  0  0  0  0  0  0  0  0  0  0  0  # atno 17342 bound_to 10162
  139.6949  144.7642  151.1374 LP  0  0  0  0  0  0  0  0  0  0  0  0  # atno 17343 bound_to 10162
  156.5047  130.8144  151.3146 LP  0  0  0  0  0  0  0  0  0  0  0  0  # atno 17370 bound_to 10713
  157.7444  130.9933  150.2668 LP  0  0  0  0  0  0  0  0  0  0  0  0  # atno 17371 bound_to 10713
  140.8540  133.8110  155.9198 LP  0  0  0  0  0  0  0  0  0  0  0  0  # atno 17394 bound_to 11000
  140.9115  134.2254  157.4982 LP  0  0  0  0  0  0  0  0  0  0  0  0  # atno 17395 bound_to 11000

$$$$
