AV-unprocessed.smi:3191|AV-procd|sdf|12199|dock9
  -GOLD-   2272018 33D 1   1.00000     0.00000
 Structure written by MMmdl.
 35 36  0  0  0  0  0  0  0  0  1 V2000
  148.2832  138.5167  153.9777 C   0  0  0  0  0  0  0  0  0  0  0  0
  147.8934  139.9117  153.9306 N   0  0  0  0  0  0  0  0  0  0  0  0
  146.7103  140.4033  153.5383 C   0  0  0  0  0  0  0  0  0  0  0  0
  146.6185  141.7248  153.5942 N   0  0  0  0  0  0  0  0  0  0  0  0
  147.8654  142.1225  154.0688 C   0  0  0  0  0  0  0  0  0  0  0  0
  148.6632  141.0177  154.2805 C   0  0  0  0  0  0  0  0  0  0  0  0
  150.0717  140.9055  154.7786 C   0  0  0  0  0  0  0  0  0  0  0  0
  150.2038  140.9317  156.3116 C   0  0  0  0  0  0  0  0  0  0  0  0
  150.5191  142.2689  156.8007 N   0  0  0  0  0  0  0  0  0  0  0  0
  151.3562  142.5425  157.8130 C   0  0  0  0  0  0  0  0  0  0  0  0
  151.9551  141.6660  158.4373 O   0  0  0  0  0  0  0  0  0  0  0  0
  151.4960  144.0060  158.0984 C   0  0  2  0  0  0  0  0  0  0  0  0
  152.8740  144.6246  157.9828 C   0  0  0  0  0  0  0  0  0  0  0  0
  152.2358  144.4828  159.3469 C   0  0  0  0  0  0  0  0  0  0  0  0
  151.7054  145.7148  160.0591 C   0  0  0  0  0  0  0  0  0  0  0  0
  152.8503  143.5270  160.3624 C   0  0  0  0  0  0  0  0  0  0  0  0
  150.6571  144.6234  157.7796 H   0  0  0  0  0  0  0  0  0  0  0  0
  147.4532  137.8813  153.6671 H   0  0  0  0  0  0  0  0  0  0  0  0
  148.5715  138.2491  154.9947 H   0  0  0  0  0  0  0  0  0  0  0  0
  149.1277  138.3481  153.3092 H   0  0  0  0  0  0  0  0  0  0  0  0
  145.8954  139.7781  153.2036 H   0  0  0  0  0  0  0  0  0  0  0  0
  148.0907  143.1680  154.2202 H   0  0  0  0  0  0  0  0  0  0  0  0
  150.5072  139.9828  154.3933 H   0  0  0  0  0  0  0  0  0  0  0  0
  150.6629  141.7185  154.3554 H   0  0  0  0  0  0  0  0  0  0  0  0
  149.2661  140.6191  156.7720 H   0  0  0  0  0  0  0  0  0  0  0  0
  150.9661  140.2249  156.6442 H   0  0  0  0  0  0  0  0  0  0  0  0
  150.0663  143.0430  156.3367 H   0  0  0  0  0  0  0  0  0  0  0  0
  153.7187  143.9781  157.7506 H   0  0  0  0  0  0  0  0  0  0  0  0
  152.9305  145.6181  157.5427 H   0  0  0  0  0  0  0  0  0  0  0  0
  152.5118  146.2305  160.5815 H   0  0  0  0  0  0  0  0  0  0  0  0
  150.9422  145.4336  160.7854 H   0  0  0  0  0  0  0  0  0  0  0  0
  151.2611  146.4125  159.3483 H   0  0  0  0  0  0  0  0  0  0  0  0
  153.5213  144.0643  161.0331 H   0  0  0  0  0  0  0  0  0  0  0  0
  153.4347  142.7459  159.8779 H   0  0  0  0  0  0  0  0  0  0  0  0
  152.0685  143.0570  160.9597 H   0  0  0  0  0  0  0  0  0  0  0  0
  1  2  1  0  0  0  0
  1 18  1  0  0  0  0
  1 19  1  0  0  0  0
  1 20  1  0  0  0  0
  2  6  1  0  0  0  0
  2  3  1  0  0  0  0
  3  4  2  0  0  0  0
  3 21  1  0  0  0  0
  4  5  1  0  0  0  0
  5  6  2  0  0  0  0
  5 22  1  0  0  0  0
  6  7  1  0  0  0  0
  7  8  1  0  0  0  0
  7 23  1  0  0  0  0
  7 24  1  0  0  0  0
  8  9  1  0  0  0  0
  8 25  1  0  0  0  0
  8 26  1  0  0  0  0
  9 10  1  0  0  0  0
  9 27  1  0  0  0  0
 10 11  2  0  0  0  0
 10 12  1  0  0  0  0
 12 17  1  0  0  0  0
 12 14  1  0  0  0  0
 12 13  1  0  0  0  0
 13 14  1  0  0  0  0
 13 28  1  0  0  0  0
 13 29  1  0  0  0  0
 14 15  1  0  0  0  0
 14 16  1  0  0  0  0
 15 30  1  0  0  0  0
 15 31  1  0  0  0  0
 15 32  1  0  0  0  0
 16 33  1  0  0  0  0
 16 34  1  0  0  0  0
 16 35  1  0  0  0  0
M  END
> <s_m_source_file>
AV-unprocessed.smi

> <i_m_source_file_index>
3191

> <i_lp_mmshare_version>
43012

> <i_f3d_flags>
0

> <s_epik_input>
W0NIM11uMVtjSF1uW2NIXWMxW0NIMl1bQ0gyXVtOSF1DKD1PKVtDQEBIXShbQ0gyXTIpQzIoW0NIM10pW0NIM10=

> <s_epik_cmdline>
J2VwaWtfcHl0aG9uJywgJy1waCcsICc3LjAnLCAnLXRuJywgJzgnLCAnLW1hJywgJzIwMCcsICctbWV0YWxfYmluZGluZycsICctaW1hZScsICc8aW5maWxlLm1hZT4nLCAnLW9tYWUnLCAnPG91dGZpbGUubWFlPic=

> <r_lp_tautomer_probability>
1

> <r_epik_Ionization_Penalty>
0.874249

> <r_epik_Ionization_Penalty_Charging>
0.874249

> <r_epik_Ionization_Penalty_Neutral>
1.97773e-08

> <r_epik_State_Penalty>
0.911868

> <r_epik_Charging_Adjusted_Penalty>
1.78612

> <i_epik_Tot_Q>
0

> <i_epik_Tot_abs_Q>
0

> <r_epik_Metal_State_Penalty>
0.361186

> <b_epik_Metal_Only>
0

> <s_lp_Force_Field>
OPLS_2005

> <r_lp_Energy>
11.6999

> <b_lp_Chiralities_Consistent>
1

> <s_lp_Variant>
AV-unprocessed.smi:3191-4

> <Gold.Version>
5.8.1

> <Gold.Id.Protein>
6NUR|6NUR_protein|mol2

> <Gold.PLP.Fitness>
43.6403

> <Gold.PLP.PLP>
-36.6091

> <Gold.PLP.part.hbond>
-0.8162

> <Gold.PLP.part.metal>
0.0000

> <Gold.PLP.part.buried>
0.1529

> <Gold.PLP.part.nonpolar>
-35.7889

> <Gold.PLP.part.repulsive>
0.2447

> <Gold.PLP.ligand.clash>
0.0000

> <Gold.PLP.ligand.torsion>
0.8236

> <Gold.PLP.Chemscore.Hbond>
0.8775

> <Gold.PLP.Chemscore.CHOScore>
1.9852

> <Gold.PLP.Chemscore.Metal>
0.0000

> <Gold.Chemscore.Hbonds>
donor molecule, donor type, donor heavy atom, donor atom, acceptor molecule, acceptor atom, score
      L1  H     9    27       P1  8028  0.68
      L1  C     3    21       P1 10175  0.95
      L1  C     5    22       P1  8028  1.00

> <Gold.PLP.Chemscore.Internal.Correction>
0.0904

> <Gold.Rescore>
     Score         DG    S(hbond)    S(metal)    S(lipo)     H(rot)  DE(clash)    DE(int)     intcor
     13.01     -16.08       0.96        0.00     100.19       1.69       0.99       2.08       ----

> <Gold.Chemscore.Fitness>
13.0145

> <Gold.Chemscore.DG>
-16.0804

> <Gold.Chemscore.ZeroCoef>
-5.4800

> <Gold.Chemscore.Hbond>
0.9607

> <Gold.Chemscore.Metal>
0.0000

> <Gold.Chemscore.Lipo>
100.1941

> <Gold.Chemscore.Internal_Hbond>
0.0000

> <Gold.Chemscore.DEClash>
0.9870

> <Gold.Chemscore.DEInternal>
2.0790

> <Gold.Chemscore.Rot>
1.6919

> <Gold.Chemscore.Internal.Correction>
   9.000000E+99

> <Gold.Chemscore.Hbonds>
donor molecule, donor type, donor heavy atom, donor atom, acceptor molecule, acceptor atom, score
      L1  H     9    27       P1  8028  0.69

> <Gold.Chemscore.Hbond.Weighted>
-3.2089

> <Gold.Chemscore.Metal.Weighted>
-0.0000

> <Gold.Chemscore.Lipo.Weighted>
-11.7227

> <Gold.Chemscore.Internal_Hbond.Weighted>
0.0000

> <Gold.Chemscore.DEClash.Weighted>
0.9870

> <Gold.Chemscore.DEInternal.Weighted>
2.0790

> <Gold.Chemscore.Rot.Weighted>
4.3312

> <Gold.Chemscore.Internal.Correction.Weighted>
   9.000000E+99

> <Gold.Protein.RotatedTorsions>
[ 6907 6896 6895 6894 ] final -128.29 input  -60.11 | X-H torsion
[ 7974 7965 7964 7962 ] final  -69.34 input  175.53 | X-H torsion
[ 8008 7997 7996 7995 ] final  -41.75 input   59.86 | X-H torsion
[ 10167 10162 10161 10158 ] final -155.32 input  -65.29 | X-H torsion
[ 10718 10713 10712 10709 ] final   -6.01 input   66.30 | X-H torsion
[ 10763 10752 10751 10750 ] final  123.04 input  -60.55 | X-H torsion
[ 11005 11000 10999 10996 ] final  -82.65 input  -57.11 | X-H torsion

> <Gold.Protein.ActiveResidues>
 VAL166  LYS551  ARG553  GLY616  TRP617  ASP618  TYR619  PRO620  LYS621  CYS622 
 ASP623  PHE694  ASN695  SER759  ASP760  ASP761  ALA762  ILE779  LEU786  VAL792 
 PHE793  MET794  SER795  GLU796  ALA797  LYS798  CYS799  TRP800  GLU811  SER814 

> <Gold.Protein.RotatedAtoms>
  150.9164  133.6934  159.2842 H   0  0  0  0  0  0  0  0  0  0  0  0  # atno 6907 bound_to 6896
  151.4404  135.1018  159.9678 H   0  0  0  0  0  0  0  0  0  0  0  0  # atno 6908 bound_to 6896
  152.4957  133.8573  159.7287 H   0  0  0  0  0  0  0  0  0  0  0  0  # atno 6909 bound_to 6896
  145.7050  140.9101  143.0711 H   0  0  0  0  0  0  0  0  0  0  0  0  # atno 7974 bound_to 7965
  154.4002  140.1491  156.3243 H   0  0  0  0  0  0  0  0  0  0  0  0  # atno 8008 bound_to 7997
  155.8501  140.3458  155.5666 H   0  0  0  0  0  0  0  0  0  0  0  0  # atno 8009 bound_to 7997
  155.7993  140.0868  157.1956 H   0  0  0  0  0  0  0  0  0  0  0  0  # atno 8010 bound_to 7997
  139.6941  143.9371  152.2399 H   0  0  0  0  0  0  0  0  0  0  0  0  # atno 10167 bound_to 10162
  156.7382  130.5201  149.5830 H   0  0  0  0  0  0  0  0  0  0  0  0  # atno 10718 bound_to 10713
  153.6393  135.3382  155.3066 H   0  0  0  0  0  0  0  0  0  0  0  0  # atno 10763 bound_to 10752
  154.8563  135.4314  154.2022 H   0  0  0  0  0  0  0  0  0  0  0  0  # atno 10764 bound_to 10752
  153.2937  135.7019  153.7342 H   0  0  0  0  0  0  0  0  0  0  0  0  # atno 10765 bound_to 10752
  141.1662  133.7255  156.8603 H   0  0  0  0  0  0  0  0  0  0  0  0  # atno 11005 bound_to 11000
  144.6958  139.8998  143.7458 LP  0  0  0  0  0  0  0  0  0  0  0  0  # atno 17320 bound_to 7965
  146.0764  139.3752  143.0491 LP  0  0  0  0  0  0  0  0  0  0  0  0  # atno 17321 bound_to 7965
  139.9196  144.6808  150.8476 LP  0  0  0  0  0  0  0  0  0  0  0  0  # atno 17342 bound_to 10162
  140.7691  143.3385  151.2258 LP  0  0  0  0  0  0  0  0  0  0  0  0  # atno 17343 bound_to 10162
  156.1482  130.6292  151.0560 LP  0  0  0  0  0  0  0  0  0  0  0  0  # atno 17370 bound_to 10713
  157.6830  131.0833  150.7320 LP  0  0  0  0  0  0  0  0  0  0  0  0  # atno 17371 bound_to 10713
  140.1853  134.9004  157.2997 LP  0  0  0  0  0  0  0  0  0  0  0  0  # atno 17394 bound_to 11000
  140.2349  134.3864  155.7505 LP  0  0  0  0  0  0  0  0  0  0  0  0  # atno 17395 bound_to 11000

$$$$
