AV-unprocessed.smi:2485|AV-procd|sdf|9788|dock4
  -GOLD-   2272013423D 1   1.00000     0.00000
 Structure written by MMmdl.
 39 40  0  0  0  0  0  0  0  0  1 V2000
  148.7177  141.3875  154.1412 C   0  0  0  0  0  0  0  0  0  0  0  0
  147.4105  140.5843  154.2185 C   0  0  0  0  0  0  0  0  0  0  0  0
  146.2033  141.5160  154.4203 C   0  0  0  0  0  0  0  0  0  0  0  0
  147.2269  139.6573  153.0108 C   0  0  0  0  0  0  0  0  0  0  0  0
  146.5472  138.4420  153.6089 C   0  0  1  0  0  0  0  0  0  0  0  0
  146.7701  137.2483  152.7957 N   0  0  0  0  0  0  0  0  0  0  0  0
  145.8121  136.4127  152.3715 C   0  0  0  0  0  0  0  0  0  0  0  0
  144.6142  136.5770  152.6029 O   0  0  0  0  0  0  0  0  0  0  0  0
  146.3362  135.3899  151.6749 N   0  0  0  0  0  0  0  0  0  0  0  0
  145.6556  134.2917  151.0872 C   0  0  0  0  0  0  0  0  0  0  0  0
  146.4840  133.3186  150.4891 C   0  0  0  0  0  0  0  0  0  0  0  0
  145.8757  132.2027  149.8894 C   0  0  0  0  0  0  0  0  0  0  0  0
  144.4726  132.1353  149.9303 C   0  0  0  0  0  0  0  0  0  0  0  0
  143.7181  133.0906  150.5152 N   0  0  0  0  0  0  0  0  0  0  0  0
  144.3040  134.1505  151.0831 N   0  0  0  0  0  0  0  0  0  0  0  0
  147.1780  138.3670  155.0169 C   0  0  0  0  0  0  0  0  0  0  0  0
  146.1966  137.8252  156.0682 C   0  0  0  0  0  0  0  0  0  0  0  0
  148.5164  137.6005  155.0742 C   0  0  0  0  0  0  0  0  0  0  0  0
  147.4748  139.7217  155.3532 O   0  0  0  0  0  0  0  0  0  0  0  0
  148.7215  142.0515  153.2764 H   0  0  0  0  0  0  0  0  0  0  0  0
  149.5828  140.7286  154.0596 H   0  0  0  0  0  0  0  0  0  0  0  0
  148.8564  142.0000  155.0326 H   0  0  0  0  0  0  0  0  0  0  0  0
  146.0829  142.1950  153.5758 H   0  0  0  0  0  0  0  0  0  0  0  0
  146.3224  142.1231  155.3183 H   0  0  0  0  0  0  0  0  0  0  0  0
  145.2759  140.9532  154.5280 H   0  0  0  0  0  0  0  0  0  0  0  0
  146.6508  140.1115  152.2038 H   0  0  0  0  0  0  0  0  0  0  0  0
  148.1976  139.3758  152.5992 H   0  0  0  0  0  0  0  0  0  0  0  0
  145.4794  138.6560  153.6855 H   0  0  0  0  0  0  0  0  0  0  0  0
  147.7276  137.0350  152.5578 H   0  0  0  0  0  0  0  0  0  0  0  0
  147.3387  135.3923  151.5596 H   0  0  0  0  0  0  0  0  0  0  0  0
  147.5591  133.4225  150.4875 H   0  0  0  0  0  0  0  0  0  0  0  0
  146.4620  131.4289  149.4164 H   0  0  0  0  0  0  0  0  0  0  0  0
  143.9463  131.3029  149.4875 H   0  0  0  0  0  0  0  0  0  0  0  0
  145.9313  136.7875  155.8657 H   0  0  0  0  0  0  0  0  0  0  0  0
  145.2746  138.4071  156.0857 H   0  0  0  0  0  0  0  0  0  0  0  0
  146.6289  137.8663  157.0683 H   0  0  0  0  0  0  0  0  0  0  0  0
  148.3799  136.5372  154.8755 H   0  0  0  0  0  0  0  0  0  0  0  0
  148.9729  137.6893  156.0605 H   0  0  0  0  0  0  0  0  0  0  0  0
  149.2326  137.9866  154.3488 H   0  0  0  0  0  0  0  0  0  0  0  0
  1  2  1  0  0  0  0
  1 20  1  0  0  0  0
  1 21  1  0  0  0  0
  1 22  1  0  0  0  0
  2 19  1  0  0  0  0
  2  3  1  0  0  0  0
  2  4  1  0  0  0  0
  3 23  1  0  0  0  0
  3 24  1  0  0  0  0
  3 25  1  0  0  0  0
  4  5  1  0  0  0  0
  4 26  1  0  0  0  0
  4 27  1  0  0  0  0
  5  6  1  0  0  0  0
  5 16  1  0  0  0  0
  5 28  1  0  0  0  0
  6  7  1  0  0  0  0
  6 29  1  0  0  0  0
  7  8  2  0  0  0  0
  7  9  1  0  0  0  0
  9 10  1  0  0  0  0
  9 30  1  0  0  0  0
 10 15  1  0  0  0  0
 10 11  2  0  0  0  0
 11 12  1  0  0  0  0
 11 31  1  0  0  0  0
 12 13  2  0  0  0  0
 12 32  1  0  0  0  0
 13 14  1  0  0  0  0
 13 33  1  0  0  0  0
 14 15  2  0  0  0  0
 16 17  1  0  0  0  0
 16 18  1  0  0  0  0
 16 19  1  0  0  0  0
 17 34  1  0  0  0  0
 17 35  1  0  0  0  0
 17 36  1  0  0  0  0
 18 37  1  0  0  0  0
 18 38  1  0  0  0  0
 18 39  1  0  0  0  0
M  END
> <s_m_source_file>
AV-unprocessed.smi

> <i_m_source_file_index>
2485

> <i_lp_mmshare_version>
43012

> <i_f3d_flags>
0

> <s_epik_input>
W0NIM11DMShbQ0gzXSlbQ0gyXVtDQEhdKEMoTzEpKFtDSDNdKVtDSDNdKVtOSF1DKD1PKVtOSF1jMltjSF1bY0hdW2NIXW5uMg==

> <s_epik_cmdline>
J2VwaWtfcHl0aG9uJywgJy1waCcsICc3LjAnLCAnLXRuJywgJzgnLCAnLW1hJywgJzIwMCcsICctbWV0YWxfYmluZGluZycsICctaW1hZScsICc8aW5maWxlLm1hZT4nLCAnLW9tYWUnLCAnPG91dGZpbGUubWFlPic=

> <r_lp_tautomer_probability>
1

> <r_epik_Ionization_Penalty>
0.00480341

> <r_epik_Ionization_Penalty_Charging>
0

> <r_epik_Ionization_Penalty_Neutral>
0.00480341

> <r_epik_State_Penalty>
-0

> <r_epik_Charging_Adjusted_Penalty>
0

> <i_epik_Tot_Q>
0

> <i_epik_Tot_abs_Q>
0

> <r_epik_Metal_State_Penalty>
-0

> <b_epik_Metal_Only>
0

> <s_lp_Force_Field>
OPLS_2005

> <r_lp_Energy>
24.1228

> <b_lp_Chiralities_Consistent>
1

> <s_lp_Variant>
AV-unprocessed.smi:2485-1

> <Gold.Version>
5.8.1

> <Gold.Id.Protein>
6NUR|6NUR_protein|mol2

> <Gold.PLP.Fitness>
32.3205

> <Gold.PLP.PLP>
-26.4294

> <Gold.PLP.part.hbond>
-2.0000

> <Gold.PLP.part.metal>
0.0000

> <Gold.PLP.part.buried>
-2.5067

> <Gold.PLP.part.nonpolar>
-21.7274

> <Gold.PLP.part.repulsive>
0.6369

> <Gold.PLP.ligand.clash>
0.0000

> <Gold.PLP.ligand.torsion>
0.0600

> <Gold.PLP.Chemscore.Hbond>
2.0000

> <Gold.PLP.Chemscore.CHOScore>
0.0000

> <Gold.PLP.Chemscore.Metal>
0.0000

> <Gold.Chemscore.Hbonds>
donor molecule, donor type, donor heavy atom, donor atom, acceptor molecule, acceptor atom, score
      L1  H     6    29       P1  7948  1.00
      L1  H     9    30       P1  7948  1.00

> <Gold.PLP.Chemscore.Internal.Correction>
0.0111

> <Gold.Rescore>
     Score         DG    S(hbond)    S(metal)    S(lipo)     H(rot)  DE(clash)    DE(int)     intcor
     15.15     -16.63       1.93        0.00      62.11       1.00       0.12       1.35       ----

> <Gold.Chemscore.Fitness>
15.1545

> <Gold.Chemscore.DG>
-16.6251

> <Gold.Chemscore.ZeroCoef>
-5.4800

> <Gold.Chemscore.Hbond>
1.9276

> <Gold.Chemscore.Metal>
0.0000

> <Gold.Chemscore.Lipo>
62.1093

> <Gold.Chemscore.Internal_Hbond>
0.0000

> <Gold.Chemscore.DEClash>
0.1213

> <Gold.Chemscore.DEInternal>
1.3493

> <Gold.Chemscore.Rot>
1.0000

> <Gold.Chemscore.Internal.Correction>
   9.000000E+99

> <Gold.Chemscore.Hbonds>
donor molecule, donor type, donor heavy atom, donor atom, acceptor molecule, acceptor atom, score
      L1  H     6    29       P1  7948  0.98
      L1  H     9    30       P1  7948  0.89

> <Gold.Chemscore.Hbond.Weighted>
-6.4383

> <Gold.Chemscore.Metal.Weighted>
-0.0000

> <Gold.Chemscore.Lipo.Weighted>
-7.2668

> <Gold.Chemscore.Internal_Hbond.Weighted>
0.0000

> <Gold.Chemscore.DEClash.Weighted>
0.1213

> <Gold.Chemscore.DEInternal.Weighted>
1.3493

> <Gold.Chemscore.Rot.Weighted>
2.5600

> <Gold.Chemscore.Internal.Correction.Weighted>
   9.000000E+99

> <Gold.Protein.RotatedTorsions>
[ 6907 6896 6895 6894 ] final  -54.84 input  -60.11 | X-H torsion
[ 7974 7965 7964 7962 ] final  151.19 input  175.53 | X-H torsion
[ 8008 7997 7996 7995 ] final  -51.52 input   59.86 | X-H torsion
[ 10167 10162 10161 10158 ] final  150.56 input  -65.29 | X-H torsion
[ 10718 10713 10712 10709 ] final  144.07 input   66.30 | X-H torsion
[ 10763 10752 10751 10750 ] final  159.84 input  -60.55 | X-H torsion
[ 11005 11000 10999 10996 ] final -155.69 input  -57.11 | X-H torsion

> <Gold.Protein.ActiveResidues>
 VAL166  LYS551  ARG553  GLY616  TRP617  ASP618  TYR619  PRO620  LYS621  CYS622 
 ASP623  PHE694  ASN695  SER759  ASP760  ASP761  ALA762  ILE779  LEU786  VAL792 
 PHE793  MET794  SER795  GLU796  ALA797  LYS798  CYS799  TRP800  GLU811  SER814 

> <Gold.Protein.RotatedAtoms>
  150.8303  134.7553  159.6847 H   0  0  0  0  0  0  0  0  0  0  0  0  # atno 6907 bound_to 6896
  152.4409  134.5590  159.9898 H   0  0  0  0  0  0  0  0  0  0  0  0  # atno 6908 bound_to 6896
  151.5752  133.3347  159.3033 H   0  0  0  0  0  0  0  0  0  0  0  0  # atno 6909 bound_to 6896
  144.8310  139.6505  143.6059 H   0  0  0  0  0  0  0  0  0  0  0  0  # atno 7974 bound_to 7965
  154.4085  140.1246  156.4842 H   0  0  0  0  0  0  0  0  0  0  0  0  # atno 8008 bound_to 7997
  155.7055  140.3494  155.4931 H   0  0  0  0  0  0  0  0  0  0  0  0  # atno 8009 bound_to 7997
  155.9347  140.1076  157.1094 H   0  0  0  0  0  0  0  0  0  0  0  0  # atno 8010 bound_to 7997
  139.4849  144.5512  151.7397 H   0  0  0  0  0  0  0  0  0  0  0  0  # atno 10167 bound_to 10162
  157.3615  131.0966  151.0911 H   0  0  0  0  0  0  0  0  0  0  0  0  # atno 10718 bound_to 10713
  154.2380  135.2776  155.2864 H   0  0  0  0  0  0  0  0  0  0  0  0  # atno 10763 bound_to 10752
  154.5568  135.5659  153.6975 H   0  0  0  0  0  0  0  0  0  0  0  0  # atno 10764 bound_to 10752
  153.0006  135.6288  154.2524 H   0  0  0  0  0  0  0  0  0  0  0  0  # atno 10765 bound_to 10752
  140.6837  134.4117  157.5225 H   0  0  0  0  0  0  0  0  0  0  0  0  # atno 11005 bound_to 11000
  146.2613  139.6416  142.9360 LP  0  0  0  0  0  0  0  0  0  0  0  0  # atno 17320 bound_to 7965
  145.4896  141.0438  143.2600 LP  0  0  0  0  0  0  0  0  0  0  0  0  # atno 17321 bound_to 7965
  140.5067  144.1088  150.5984 LP  0  0  0  0  0  0  0  0  0  0  0  0  # atno 17342 bound_to 10162
  140.3999  143.2709  151.9960 LP  0  0  0  0  0  0  0  0  0  0  0  0  # atno 17343 bound_to 10162
  157.2049  130.6411  149.5752 LP  0  0  0  0  0  0  0  0  0  0  0  0  # atno 17370 bound_to 10713
  155.9738  130.4679  150.6340 LP  0  0  0  0  0  0  0  0  0  0  0  0  # atno 17371 bound_to 10713
  139.8944  134.8707  156.2179 LP  0  0  0  0  0  0  0  0  0  0  0  0  # atno 17394 bound_to 11000
  141.0297  133.6995  156.1409 LP  0  0  0  0  0  0  0  0  0  0  0  0  # atno 17395 bound_to 11000

$$$$
