AV-unprocessed.smi:114|AV-procd|sdf|1116|dock7
  -GOLD-   2262018233D 1   1.00000     0.00000
 Structure written by MMmdl.
 32 34  0  0  0  0  0  0  0  0  1 V2000
  144.7459  133.6045  154.8738 N   0  0  0  0  0  0  0  0  0  0  0  0
  144.5102  134.8951  154.5988 C   0  0  0  0  0  0  0  0  0  0  0  0
  143.2812  135.2461  154.1524 N   0  0  0  0  0  0  0  0  0  0  0  0
  143.0053  136.5244  153.8640 C   0  0  0  0  0  0  0  0  0  0  0  0
  141.7522  136.7838  153.4228 F   0  0  0  0  0  0  0  0  0  0  0  0
  143.8285  137.5745  153.9613 N   0  0  0  0  0  0  0  0  0  0  0  0
  145.0666  137.2218  154.4130 C   0  0  0  0  0  0  0  0  0  0  0  0
  145.4870  135.9090  154.7515 C   0  0  0  0  0  0  0  0  0  0  0  0
  146.8113  135.9299  155.1682 N   0  0  0  0  0  0  0  0  0  0  0  0
  147.1502  137.1889  155.0771 C   0  0  0  0  0  0  0  0  0  0  0  0
  146.1574  138.0348  154.6262 N   0  0  0  0  0  0  0  0  0  0  0  0
  146.1948  139.5166  154.4034 C   0  0  1  0  0  0  0  0  0  0  0  0
  146.7172  140.1212  155.5491 O   0  0  0  0  0  0  0  0  0  0  0  0
  148.0679  140.5079  155.3184 C   0  0  2  0  0  0  0  0  0  0  0  0
  148.4701  141.6104  156.3092 C   0  0  0  0  0  0  0  0  0  0  0  0
  149.7370  142.1280  155.9634 O   0  0  0  0  0  0  0  0  0  0  0  0
  147.9970  140.9772  153.8655 C   0  0  1  0  0  0  0  0  0  0  0  0
  149.2700  141.0967  153.2578 O   0  0  0  0  0  0  0  0  0  0  0  0
  147.1079  139.9175  153.2196 C   0  0  1  0  0  0  0  0  0  0  0  0
  147.8601  138.8391  152.6816 O   0  0  0  0  0  0  0  0  0  0  0  0
  145.1507  139.8033  154.2715 H   0  0  0  0  0  0  0  0  0  0  0  0
  148.7288  139.6423  155.3967 H   0  0  0  0  0  0  0  0  0  0  0  0
  147.4919  141.9434  153.8193 H   0  0  0  0  0  0  0  0  0  0  0  0
  146.5003  140.3449  152.4213 H   0  0  0  0  0  0  0  0  0  0  0  0
  145.6564  133.3212  155.2067 H   0  0  0  0  0  0  0  0  0  0  0  0
  144.0151  132.9191  154.7474 H   0  0  0  0  0  0  0  0  0  0  0  0
  148.1408  137.5309  155.3391 H   0  0  0  0  0  0  0  0  0  0  0  0
  147.7572  142.4342  156.2649 H   0  0  0  0  0  0  0  0  0  0  0  0
  148.4764  141.2413  157.3352 H   0  0  0  0  0  0  0  0  0  0  0  0
  149.6889  143.0716  155.9725 H   0  0  0  0  0  0  0  0  0  0  0  0
  149.3516  140.4239  152.5992 H   0  0  0  0  0  0  0  0  0  0  0  0
  148.3784  139.1665  151.9621 H   0  0  0  0  0  0  0  0  0  0  0  0
  1  2  1  0  0  0  0
  1 25  1  0  0  0  0
  1 26  1  0  0  0  0
  2  8  1  0  0  0  0
  2  3  2  0  0  0  0
  3  4  1  0  0  0  0
  4  5  1  0  0  0  0
  4  6  2  0  0  0  0
  6  7  1  0  0  0  0
  7 11  1  0  0  0  0
  7  8  2  0  0  0  0
  8  9  1  0  0  0  0
  9 10  2  0  0  0  0
 10 11  1  0  0  0  0
 10 27  1  0  0  0  0
 11 12  1  0  0  0  0
 12 21  1  0  0  0  0
 12 19  1  0  0  0  0
 12 13  1  0  0  0  0
 13 14  1  0  0  0  0
 14 22  1  0  0  0  0
 14 15  1  0  0  0  0
 14 17  1  0  0  0  0
 15 16  1  0  0  0  0
 15 28  1  0  0  0  0
 15 29  1  0  0  0  0
 16 30  1  0  0  0  0
 17 23  1  0  0  0  0
 17 18  1  0  0  0  0
 17 19  1  0  0  0  0
 18 31  1  0  0  0  0
 19 24  1  0  0  0  0
 19 20  1  0  0  0  0
 20 32  1  0  0  0  0
M  END
> <s_m_source_file>
AV-unprocessed.smi

> <i_m_source_file_index>
114

> <i_lp_mmshare_version>
43012

> <i_f3d_flags>
0

> <s_epik_input>
RmMobjEpbmMoW05IMl0pYyhjMTIpbltjSF1uMltDQEBIXTNPW0NASF0oW0NIMl1bT0hdKVtDQEBIXShbT0hdKVtDQEBIXTNbT0hd

> <s_epik_cmdline>
J2VwaWtfcHl0aG9uJywgJy1waCcsICc3LjAnLCAnLXRuJywgJzgnLCAnLW1hJywgJzIwMCcsICctbWV0YWxfYmluZGluZycsICctaW1hZScsICc8aW5maWxlLm1hZT4nLCAnLW9tYWUnLCAnPG91dGZpbGUubWFlPic=

> <r_lp_tautomer_probability>
1

> <r_epik_Ionization_Penalty>
1.13199e-05

> <r_epik_Ionization_Penalty_Charging>
0

> <r_epik_Ionization_Penalty_Neutral>
1.13199e-05

> <r_epik_State_Penalty>
-0

> <r_epik_Charging_Adjusted_Penalty>
0

> <i_epik_Tot_Q>
0

> <i_epik_Tot_abs_Q>
0

> <r_epik_Metal_State_Penalty>
-0

> <b_epik_Metal_Only>
0

> <s_epik_Chemistry_Notes>
This compound contains an acetal/aminal-like group ( X-CH(R)-Y where X, Y are N, S, or O) that may be acid/base labile, releasing an aldehyde.

> <s_lp_Force_Field>
OPLS_2005

> <r_lp_Energy>
42.7446

> <b_lp_Chiralities_Consistent>
1

> <s_lp_Variant>
AV-unprocessed.smi:114-10

> <Gold.Version>
5.8.1

> <Gold.Id.Protein>
6NUR|6NUR_protein|mol2

> <Gold.PLP.Fitness>
34.4511

> <Gold.PLP.PLP>
-20.3042

> <Gold.PLP.part.hbond>
-6.4995

> <Gold.PLP.part.metal>
0.0000

> <Gold.PLP.part.buried>
-4.6136

> <Gold.PLP.part.nonpolar>
-9.7589

> <Gold.PLP.part.repulsive>
0.2974

> <Gold.PLP.ligand.clash>
0.1896

> <Gold.PLP.ligand.torsion>
0.1808

> <Gold.PLP.Chemscore.Hbond>
4.8747

> <Gold.PLP.Chemscore.CHOScore>
0.0000

> <Gold.PLP.Chemscore.Metal>
0.0000

> <Gold.Chemscore.Hbonds>
donor molecule, donor type, donor heavy atom, donor atom, acceptor molecule, acceptor atom, score
      L1  H     1    26       P1 10957  1.00
      L1  H    16    30       P1  8028  1.00
      L1  H    18    31       P1  7957  0.92
      L1  H    20    32       P1  7957  1.00
      P1  H  7989  7998       L1    18  0.01
      P1  H  8011  8017       L1    18  0.90

> <Gold.PLP.Chemscore.Internal.Correction>
0.0739

> <Gold.Rescore>
     Score         DG    S(hbond)    S(metal)    S(lipo)     H(rot)  DE(clash)    DE(int)     intcor
     10.97     -12.39       4.29        0.00      24.61       4.03       0.12       1.30       ----

> <Gold.Chemscore.Fitness>
10.9650

> <Gold.Chemscore.DG>
-12.3897

> <Gold.Chemscore.ZeroCoef>
-5.4800

> <Gold.Chemscore.Hbond>
4.2938

> <Gold.Chemscore.Metal>
0.0000

> <Gold.Chemscore.Lipo>
24.6092

> <Gold.Chemscore.Internal_Hbond>
0.0000

> <Gold.Chemscore.DEClash>
0.1227

> <Gold.Chemscore.DEInternal>
1.3020

> <Gold.Chemscore.Rot>
4.0277

> <Gold.Chemscore.Internal.Correction>
   9.000000E+99

> <Gold.Chemscore.Hbonds>
donor molecule, donor type, donor heavy atom, donor atom, acceptor molecule, acceptor atom, score
      L1  H     1    26       P1 10957  1.00
      L1  H    16    30       P1  8028  0.98
      L1  H    18    31       P1  7957  0.84
      L1  H    20    32       P1  7957  0.99
      P1  H  8011  8017       L1    18  0.18

> <Gold.Chemscore.Hbond.Weighted>
-14.3414

> <Gold.Chemscore.Metal.Weighted>
-0.0000

> <Gold.Chemscore.Lipo.Weighted>
-2.8793

> <Gold.Chemscore.Internal_Hbond.Weighted>
0.0000

> <Gold.Chemscore.DEClash.Weighted>
0.1227

> <Gold.Chemscore.DEInternal.Weighted>
1.3020

> <Gold.Chemscore.Rot.Weighted>
10.3110

> <Gold.Chemscore.Internal.Correction.Weighted>
   9.000000E+99

> <Gold.Protein.RotatedTorsions>
[ 6907 6896 6895 6894 ] final -129.94 input  -60.11 | X-H torsion
[ 7974 7965 7964 7962 ] final  -85.41 input  175.53 | X-H torsion
[ 8008 7997 7996 7995 ] final   74.62 input   59.86 | X-H torsion
[ 10167 10162 10161 10158 ] final  116.25 input  -65.29 | X-H torsion
[ 10718 10713 10712 10709 ] final  -66.65 input   66.30 | X-H torsion
[ 10763 10752 10751 10750 ] final -142.11 input  -60.55 | X-H torsion
[ 11005 11000 10999 10996 ] final   97.45 input  -57.11 | X-H torsion

> <Gold.Protein.ActiveResidues>
 VAL166  LYS551  ARG553  GLY616  TRP617  ASP618  TYR619  PRO620  LYS621  CYS622 
 ASP623  PHE694  ASN695  SER759  ASP760  ASP761  ALA762  ILE779  LEU786  VAL792 
 PHE793  MET794  SER795  GLU796  ALA797  LYS798  CYS799  TRP800  GLU811  SER814 

> <Gold.Protein.RotatedAtoms>
  150.9343  133.6731  159.2803 H   0  0  0  0  0  0  0  0  0  0  0  0  # atno 6907 bound_to 6896
  151.4142  135.0988  159.9604 H   0  0  0  0  0  0  0  0  0  0  0  0  # atno 6908 bound_to 6896
  152.5040  133.8809  159.7400 H   0  0  0  0  0  0  0  0  0  0  0  0  # atno 6909 bound_to 6896
  145.4936  140.9551  143.1798 H   0  0  0  0  0  0  0  0  0  0  0  0  # atno 7974 bound_to 7965
  155.8010  140.3476  155.5402 H   0  0  0  0  0  0  0  0  0  0  0  0  # atno 8008 bound_to 7997
  155.8538  140.0960  157.1678 H   0  0  0  0  0  0  0  0  0  0  0  0  # atno 8009 bound_to 7997
  154.4009  140.1371  156.3864 H   0  0  0  0  0  0  0  0  0  0  0  0  # atno 8010 bound_to 7997
  139.6260  144.7108  151.2532 H   0  0  0  0  0  0  0  0  0  0  0  0  # atno 10167 bound_to 10162
  156.0600  130.4265  150.1740 H   0  0  0  0  0  0  0  0  0  0  0  0  # atno 10718 bound_to 10713
  154.8521  135.3505  154.5976 H   0  0  0  0  0  0  0  0  0  0  0  0  # atno 10763 bound_to 10752
  153.6585  135.6991  153.5190 H   0  0  0  0  0  0  0  0  0  0  0  0  # atno 10764 bound_to 10752
  153.2836  135.4256  155.1060 H   0  0  0  0  0  0  0  0  0  0  0  0  # atno 10765 bound_to 10752
  139.8776  134.9001  156.4308 H   0  0  0  0  0  0  0  0  0  0  0  0  # atno 11005 bound_to 11000
  144.7820  139.6506  143.7150 LP  0  0  0  0  0  0  0  0  0  0  0  0  # atno 17320 bound_to 7965
  146.2269  139.5740  142.9581 LP  0  0  0  0  0  0  0  0  0  0  0  0  # atno 17321 bound_to 7965
  140.7411  143.6567  150.8201 LP  0  0  0  0  0  0  0  0  0  0  0  0  # atno 17342 bound_to 10162
  140.0185  143.5568  152.2810 LP  0  0  0  0  0  0  0  0  0  0  0  0  # atno 17343 bound_to 10162
  156.9810  130.9864  151.3437 LP  0  0  0  0  0  0  0  0  0  0  0  0  # atno 17370 bound_to 10713
  157.5602  130.8240  149.8256 LP  0  0  0  0  0  0  0  0  0  0  0  0  # atno 17371 bound_to 10713
  140.9068  133.7740  155.9744 LP  0  0  0  0  0  0  0  0  0  0  0  0  # atno 17394 bound_to 11000
  140.8591  134.2863  157.5242 LP  0  0  0  0  0  0  0  0  0  0  0  0  # atno 17395 bound_to 11000

$$$$
