AV-unprocessed.smi:2975|AV-procd|sdf|11355|dock6
  -GOLD-   2272016273D 1   1.00000     0.00000
 Structure written by MMmdl.
 39 41  0  0  0  0  0  0  0  0  1 V2000
  155.3865  139.8210  161.2249 C   0  0  0  0  0  0  0  0  0  0  0  0
  154.1549  139.8193  160.3098 C   0  0  2  0  0  0  0  0  0  0  0  0
  154.5281  139.2499  159.0709 O   0  0  0  0  0  0  0  0  0  0  0  0
  153.5715  141.1977  160.1545 C   0  0  0  0  0  0  0  0  0  0  0  0
  153.4285  141.7796  158.9615 N   0  0  0  0  0  0  0  0  0  0  0  0
  152.8788  143.0053  159.2803 C   0  0  0  0  0  0  0  0  0  0  0  0
  152.4835  144.0785  158.4503 C   0  0  0  0  0  0  0  0  0  0  0  0
  151.9336  145.2495  159.0117 C   0  0  0  0  0  0  0  0  0  0  0  0
  151.7721  145.3639  160.4076 C   0  0  0  0  0  0  0  0  0  0  0  0
  152.1614  144.3068  161.2525 C   0  0  0  0  0  0  0  0  0  0  0  0
  152.7097  143.1402  160.6869 C   0  0  0  0  0  0  0  0  0  0  0  0
  153.1837  141.9457  161.2197 N   0  0  0  0  0  0  0  0  0  0  0  0
  153.2311  141.6008  162.6318 C   0  0  0  0  0  0  0  0  0  0  0  0
  154.1850  142.5203  163.4037 C   0  0  0  0  0  0  0  0  0  0  0  0
  154.6929  141.8076  164.5220 O   0  0  0  0  0  0  0  0  0  0  0  0
  154.9167  142.5018  165.6921 C   0  0  0  0  0  0  0  0  0  0  0  0
  154.7768  143.9075  165.8220 C   0  0  0  0  0  0  0  0  0  0  0  0
  155.0263  144.5382  167.0563 C   0  0  0  0  0  0  0  0  0  0  0  0
  155.4170  143.7768  168.1731 C   0  0  0  0  0  0  0  0  0  0  0  0
  155.5587  142.3821  168.0540 C   0  0  0  0  0  0  0  0  0  0  0  0
  155.3100  141.7501  166.8202 C   0  0  0  0  0  0  0  0  0  0  0  0
  155.4495  140.4065  166.7190 F   0  0  0  0  0  0  0  0  0  0  0  0
  155.1380  140.2046  162.2147 H   0  0  0  0  0  0  0  0  0  0  0  0
  156.1823  140.4455  160.8172 H   0  0  0  0  0  0  0  0  0  0  0  0
  155.7849  138.8140  161.3524 H   0  0  0  0  0  0  0  0  0  0  0  0
  153.4014  139.1538  160.7290 H   0  0  0  0  0  0  0  0  0  0  0  0
  154.3709  138.3191  159.1106 H   0  0  0  0  0  0  0  0  0  0  0  0
  152.6021  143.9998  157.3797 H   0  0  0  0  0  0  0  0  0  0  0  0
  151.6337  146.0633  158.3678 H   0  0  0  0  0  0  0  0  0  0  0  0
  151.3489  146.2638  160.8293 H   0  0  0  0  0  0  0  0  0  0  0  0
  152.0384  144.3915  162.3219 H   0  0  0  0  0  0  0  0  0  0  0  0
  152.2256  141.6440  163.0504 H   0  0  0  0  0  0  0  0  0  0  0  0
  153.5536  140.5634  162.7274 H   0  0  0  0  0  0  0  0  0  0  0  0
  155.0012  142.8331  162.7503 H   0  0  0  0  0  0  0  0  0  0  0  0
  153.6535  143.4129  163.7376 H   0  0  0  0  0  0  0  0  0  0  0  0
  154.4800  144.5259  164.9888 H   0  0  0  0  0  0  0  0  0  0  0  0
  154.9176  145.6092  167.1451 H   0  0  0  0  0  0  0  0  0  0  0  0
  155.6080  144.2618  169.1191 H   0  0  0  0  0  0  0  0  0  0  0  0
  155.8584  141.7951  168.9098 H   0  0  0  0  0  0  0  0  0  0  0  0
  1  2  1  0  0  0  0
  1 23  1  0  0  0  0
  1 24  1  0  0  0  0
  1 25  1  0  0  0  0
  2  3  1  0  0  0  0
  2  4  1  0  0  0  0
  2 26  1  0  0  0  0
  3 27  1  0  0  0  0
  4 12  1  0  0  0  0
  4  5  2  0  0  0  0
  5  6  1  0  0  0  0
  6 11  2  0  0  0  0
  6  7  1  0  0  0  0
  7  8  2  0  0  0  0
  7 28  1  0  0  0  0
  8  9  1  0  0  0  0
  8 29  1  0  0  0  0
  9 10  2  0  0  0  0
  9 30  1  0  0  0  0
 10 11  1  0  0  0  0
 10 31  1  0  0  0  0
 11 12  1  0  0  0  0
 12 13  1  0  0  0  0
 13 14  1  0  0  0  0
 13 32  1  0  0  0  0
 13 33  1  0  0  0  0
 14 15  1  0  0  0  0
 14 34  1  0  0  0  0
 14 35  1  0  0  0  0
 15 16  1  0  0  0  0
 16 21  1  0  0  0  0
 16 17  2  0  0  0  0
 17 18  1  0  0  0  0
 17 36  1  0  0  0  0
 18 19  2  0  0  0  0
 18 37  1  0  0  0  0
 19 20  1  0  0  0  0
 19 38  1  0  0  0  0
 20 21  2  0  0  0  0
 20 39  1  0  0  0  0
 21 22  1  0  0  0  0
M  END
> <s_m_source_file>
AV-unprocessed.smi

> <i_m_source_file_index>
2975

> <i_lp_mmshare_version>
43012

> <i_f3d_flags>
0

> <s_epik_input>
W2NIXTFbY0hdW2NIXVtjSF1jKGMxMiluKGMobjIpW0NASF0oW0NIM10pW09IXSlbQ0gyXVtDSDJdT2MzW2NIXVtjSF1bY0hdW2NIXWMzRg==

> <s_epik_cmdline>
J2VwaWtfcHl0aG9uJywgJy1waCcsICc3LjAnLCAnLXRuJywgJzgnLCAnLW1hJywgJzIwMCcsICctbWV0YWxfYmluZGluZycsICctaW1hZScsICc8aW5maWxlLm1hZT4nLCAnLW9tYWUnLCAnPG91dGZpbGUubWFlPic=

> <r_lp_tautomer_probability>
1

> <r_epik_Ionization_Penalty>
0.0404035

> <r_epik_Ionization_Penalty_Charging>
0

> <r_epik_Ionization_Penalty_Neutral>
0.0404035

> <r_epik_State_Penalty>
0.0340039

> <r_epik_Charging_Adjusted_Penalty>
0.0340039

> <i_epik_Tot_Q>
0

> <i_epik_Tot_abs_Q>
0

> <r_epik_Metal_State_Penalty>
3.49976e-05

> <b_epik_Metal_Only>
0

> <s_lp_Force_Field>
OPLS_2005

> <r_lp_Energy>
15.721

> <b_lp_Chiralities_Consistent>
1

> <s_lp_Variant>
AV-unprocessed.smi:2975-1

> <Gold.Version>
5.8.1

> <Gold.Id.Protein>
6NUR|6NUR_protein|mol2

> <Gold.PLP.Fitness>
56.9465

> <Gold.PLP.PLP>
-54.8626

> <Gold.PLP.part.hbond>
-1.4476

> <Gold.PLP.part.metal>
0.0000

> <Gold.PLP.part.buried>
-1.1561

> <Gold.PLP.part.nonpolar>
-50.3589

> <Gold.PLP.part.repulsive>
0.0000

> <Gold.PLP.ligand.clash>
0.0000

> <Gold.PLP.ligand.torsion>
0.4679

> <Gold.PLP.Chemscore.Hbond>
1.0000

> <Gold.PLP.Chemscore.CHOScore>
0.0000

> <Gold.PLP.Chemscore.Metal>
0.0000

> <Gold.Chemscore.Hbonds>
donor molecule, donor type, donor heavy atom, donor atom, acceptor molecule, acceptor atom, score
      P1  H  7997  8009       L1     3  1.00

> <Gold.PLP.Chemscore.Internal.Correction>
0.0198

> <Gold.Rescore>
     Score         DG    S(hbond)    S(metal)    S(lipo)     H(rot)  DE(clash)    DE(int)     intcor
     18.15     -21.89       0.99        0.00     160.22       2.21       3.32       0.42       ----

> <Gold.Chemscore.Fitness>
18.1474

> <Gold.Chemscore.DG>
-21.8860

> <Gold.Chemscore.ZeroCoef>
-5.4800

> <Gold.Chemscore.Hbond>
0.9903

> <Gold.Chemscore.Metal>
0.0000

> <Gold.Chemscore.Lipo>
160.2209

> <Gold.Chemscore.Internal_Hbond>
0.0000

> <Gold.Chemscore.DEClash>
3.3216

> <Gold.Chemscore.DEInternal>
0.4170

> <Gold.Chemscore.Rot>
2.2060

> <Gold.Chemscore.Internal.Correction>
   9.000000E+99

> <Gold.Chemscore.Hbonds>
donor molecule, donor type, donor heavy atom, donor atom, acceptor molecule, acceptor atom, score
      P1  H  7997  8009       L1     3  0.92

> <Gold.Chemscore.Hbond.Weighted>
-3.3075

> <Gold.Chemscore.Metal.Weighted>
-0.0000

> <Gold.Chemscore.Lipo.Weighted>
-18.7458

> <Gold.Chemscore.Internal_Hbond.Weighted>
0.0000

> <Gold.Chemscore.DEClash.Weighted>
3.3216

> <Gold.Chemscore.DEInternal.Weighted>
0.4170

> <Gold.Chemscore.Rot.Weighted>
5.6473

> <Gold.Chemscore.Internal.Correction.Weighted>
   9.000000E+99

> <Gold.Protein.RotatedTorsions>
[ 6907 6896 6895 6894 ] final   12.27 input  -60.11 | X-H torsion
[ 7974 7965 7964 7962 ] final   24.88 input  175.53 | X-H torsion
[ 8008 7997 7996 7995 ] final  113.23 input   59.86 | X-H torsion
[ 10167 10162 10161 10158 ] final -172.40 input  -65.29 | X-H torsion
[ 10718 10713 10712 10709 ] final -146.07 input   66.30 | X-H torsion
[ 10763 10752 10751 10750 ] final  169.30 input  -60.55 | X-H torsion
[ 11005 11000 10999 10996 ] final  -94.99 input  -57.11 | X-H torsion

> <Gold.Protein.ActiveResidues>
 VAL166  LYS551  ARG553  GLY616  TRP617  ASP618  TYR619  PRO620  LYS621  CYS622 
 ASP623  PHE694  ASN695  SER759  ASP760  ASP761  ALA762  ILE779  LEU786  VAL792 
 PHE793  MET794  SER795  GLU796  ALA797  LYS798  CYS799  TRP800  GLU811  SER814 

> <Gold.Protein.RotatedAtoms>
  151.7677  135.0794  160.0354 H   0  0  0  0  0  0  0  0  0  0  0  0  # atno 6907 bound_to 6896
  152.3310  133.5954  159.5818 H   0  0  0  0  0  0  0  0  0  0  0  0  # atno 6908 bound_to 6896
  150.7423  133.9784  159.3610 H   0  0  0  0  0  0  0  0  0  0  0  0  # atno 6909 bound_to 6896
  146.1916  139.7543  142.8828 H   0  0  0  0  0  0  0  0  0  0  0  0  # atno 7974 bound_to 7965
  156.2245  140.2983  156.0032 H   0  0  0  0  0  0  0  0  0  0  0  0  # atno 8008 bound_to 7997
  155.2394  140.0422  157.2990 H   0  0  0  0  0  0  0  0  0  0  0  0  # atno 8009 bound_to 7997
  154.5893  140.2397  155.7951 H   0  0  0  0  0  0  0  0  0  0  0  0  # atno 8010 bound_to 7997
  139.5747  144.1560  152.1433 H   0  0  0  0  0  0  0  0  0  0  0  0  # atno 10167 bound_to 10162
  156.3903  130.7882  151.2084 H   0  0  0  0  0  0  0  0  0  0  0  0  # atno 10718 bound_to 10713
  154.3811  135.2753  155.2210 H   0  0  0  0  0  0  0  0  0  0  0  0  # atno 10763 bound_to 10752
  154.4317  135.5976  153.6076 H   0  0  0  0  0  0  0  0  0  0  0  0  # atno 10764 bound_to 10752
  152.9834  135.5997  154.4054 H   0  0  0  0  0  0  0  0  0  0  0  0  # atno 10765 bound_to 10752
  141.1455  133.7994  157.0373 H   0  0  0  0  0  0  0  0  0  0  0  0  # atno 11005 bound_to 11000
  145.3775  141.0353  143.3196 LP  0  0  0  0  0  0  0  0  0  0  0  0  # atno 17320 bound_to 7965
  144.8497  139.5341  143.6862 LP  0  0  0  0  0  0  0  0  0  0  0  0  # atno 17321 bound_to 7965
  140.1101  144.5465  150.6931 LP  0  0  0  0  0  0  0  0  0  0  0  0  # atno 17342 bound_to 10162
  140.7030  143.2448  151.4809 LP  0  0  0  0  0  0  0  0  0  0  0  0  # atno 17343 bound_to 10162
  157.7498  131.0317  150.4195 LP  0  0  0  0  0  0  0  0  0  0  0  0  # atno 17370 bound_to 10713
  156.4456  130.4000  149.6669 LP  0  0  0  0  0  0  0  0  0  0  0  0  # atno 17371 bound_to 10713
  140.0715  134.9699  157.1475 LP  0  0  0  0  0  0  0  0  0  0  0  0  # atno 17394 bound_to 11000
  140.3704  134.2397  155.7178 LP  0  0  0  0  0  0  0  0  0  0  0  0  # atno 17395 bound_to 11000

$$$$
