AV-unprocessed.smi:2755|AV-procd|sdf|10617|dock6
  -GOLD-   2272015 63D 1   1.00000     0.00000
 Structure written by MMmdl.
 32 32  0  0  0  0  0  0  0  0  1 V2000
  151.4541  145.4726  159.8992 C   0  0  0  0  0  0  0  0  0  0  0  0
  151.7495  144.6178  158.6619 C   0  0  0  0  0  0  0  0  0  0  0  0
  152.8876  143.6140  158.8955 C   0  0  0  0  0  0  0  0  0  0  0  0
  152.4322  142.3823  159.6909 C   0  0  0  0  0  0  0  0  0  0  0  0
  153.5690  141.3787  159.9247 C   0  0  0  0  0  0  0  0  0  0  0  0
  153.1704  140.0508  159.4820 N   0  0  0  0  0  0  0  0  0  0  0  0
  152.5730  139.7786  158.3104 C   0  0  0  0  0  0  0  0  0  0  0  0
  152.3138  140.6486  157.4800 O   0  0  0  0  0  0  0  0  0  0  0  0
  152.2004  138.3179  158.0031 C   0  0  0  0  0  0  0  0  0  0  0  0
  151.7170  138.0770  156.6399 N   0  0  0  0  0  0  0  0  0  0  0  0
  150.5614  137.3460  156.5005 N   0  0  0  0  0  0  0  0  0  0  0  0
  150.3114  137.2586  155.2417 C   0  0  0  0  0  0  0  0  0  0  0  0
  149.2401  136.6069  154.6664 N   0  0  0  0  0  0  0  0  0  0  0  0
  151.4152  138.0301  154.0817 S   0  0  0  0  0  0  0  0  0  0  0  0
  152.3604  138.5508  155.4911 C   0  0  0  0  0  0  0  0  0  0  0  0
  153.3894  139.2190  155.4087 O   0  0  0  0  0  0  0  0  0  0  0  0
  150.6437  146.1745  159.7015 H   0  0  0  0  0  0  0  0  0  0  0  0
  152.3295  146.0504  160.1969 H   0  0  0  0  0  0  0  0  0  0  0  0
  151.1575  144.8520  160.7452 H   0  0  0  0  0  0  0  0  0  0  0  0
  150.8444  144.0838  158.3705 H   0  0  0  0  0  0  0  0  0  0  0  0
  152.0039  145.2721  157.8273 H   0  0  0  0  0  0  0  0  0  0  0  0
  153.2923  143.2954  157.9340 H   0  0  0  0  0  0  0  0  0  0  0  0
  153.7036  144.1066  159.4261 H   0  0  0  0  0  0  0  0  0  0  0  0
  152.0258  142.7019  160.6514 H   0  0  0  0  0  0  0  0  0  0  0  0
  151.6174  141.8889  159.1589 H   0  0  0  0  0  0  0  0  0  0  0  0
  154.4622  141.6935  159.3824 H   0  0  0  0  0  0  0  0  0  0  0  0
  153.8283  141.3406  160.9839 H   0  0  0  0  0  0  0  0  0  0  0  0
  153.3545  139.2824  160.1109 H   0  0  0  0  0  0  0  0  0  0  0  0
  153.0747  137.6925  158.1900 H   0  0  0  0  0  0  0  0  0  0  0  0
  151.4447  137.9981  158.7225 H   0  0  0  0  0  0  0  0  0  0  0  0
  148.5318  136.1236  155.1999 H   0  0  0  0  0  0  0  0  0  0  0  0
  149.0870  136.5569  153.6695 H   0  0  0  0  0  0  0  0  0  0  0  0
  1  2  1  0  0  0  0
  1 17  1  0  0  0  0
  1 18  1  0  0  0  0
  1 19  1  0  0  0  0
  2  3  1  0  0  0  0
  2 20  1  0  0  0  0
  2 21  1  0  0  0  0
  3  4  1  0  0  0  0
  3 22  1  0  0  0  0
  3 23  1  0  0  0  0
  4  5  1  0  0  0  0
  4 24  1  0  0  0  0
  4 25  1  0  0  0  0
  5  6  1  0  0  0  0
  5 26  1  0  0  0  0
  5 27  1  0  0  0  0
  6  7  1  0  0  0  0
  6 28  1  0  0  0  0
  7  8  2  0  0  0  0
  7  9  1  0  0  0  0
  9 10  1  0  0  0  0
  9 29  1  0  0  0  0
  9 30  1  0  0  0  0
 10 15  1  0  0  0  0
 10 11  1  0  0  0  0
 11 12  2  0  0  0  0
 12 13  1  0  0  0  0
 12 14  1  0  0  0  0
 13 31  1  0  0  0  0
 13 32  1  0  0  0  0
 14 15  1  0  0  0  0
 15 16  2  0  0  0  0
M  END
> <s_m_source_file>
AV-unprocessed.smi

> <i_m_source_file_index>
2755

> <i_lp_mmshare_version>
43012

> <i_f3d_flags>
0

> <s_epik_input>
W0NIM11bQ0gyXVtDSDJdW0NIMl1bQ0gyXVtOSF1DKD1PKVtDSDJdbjFuYyhbTkgyXSlzYzE9Tw==

> <s_epik_cmdline>
J2VwaWtfcHl0aG9uJywgJy1waCcsICc3LjAnLCAnLXRuJywgJzgnLCAnLW1hJywgJzIwMCcsICctbWV0YWxfYmluZGluZycsICctaW1hZScsICc8aW5maWxlLm1hZT4nLCAnLW9tYWUnLCAnPG91dGZpbGUubWFlPic=

> <r_lp_tautomer_probability>
1

> <r_epik_Ionization_Penalty>
4.62415e-07

> <r_epik_Ionization_Penalty_Charging>
1.84682e-08

> <r_epik_Ionization_Penalty_Neutral>
4.43947e-07

> <r_epik_State_Penalty>
-0

> <r_epik_Charging_Adjusted_Penalty>
1.84682e-08

> <i_epik_Tot_Q>
0

> <i_epik_Tot_abs_Q>
0

> <r_epik_Metal_State_Penalty>
-0

> <b_epik_Metal_Only>
0

> <s_lp_Force_Field>
OPLS_2005

> <r_lp_Energy>
7.41943

> <b_lp_Chiralities_Consistent>
1

> <s_lp_Variant>
AV-unprocessed.smi:2755-1

> <Gold.Version>
5.8.1

> <Gold.Id.Protein>
6NUR|6NUR_protein|mol2

> <Gold.PLP.Fitness>
38.5729

> <Gold.PLP.PLP>
-33.9562

> <Gold.PLP.part.hbond>
-2.4176

> <Gold.PLP.part.metal>
0.0000

> <Gold.PLP.part.buried>
-3.9716

> <Gold.PLP.part.nonpolar>
-27.4213

> <Gold.PLP.part.repulsive>
0.1042

> <Gold.PLP.ligand.clash>
0.0000

> <Gold.PLP.ligand.torsion>
0.7035

> <Gold.PLP.Chemscore.Hbond>
2.0000

> <Gold.PLP.Chemscore.CHOScore>
0.0000

> <Gold.PLP.Chemscore.Metal>
0.0000

> <Gold.Chemscore.Hbonds>
donor molecule, donor type, donor heavy atom, donor atom, acceptor molecule, acceptor atom, score
      L1  H    13    32       P1  7948  1.00
      P1  H  7997  8010       L1    16  0.99

> <Gold.PLP.Chemscore.Internal.Correction>
0.0238

> <Gold.Rescore>
     Score         DG    S(hbond)    S(metal)    S(lipo)     H(rot)  DE(clash)    DE(int)     intcor
     11.08     -13.35       1.88        0.00      74.92       2.81       0.02       2.25       ----

> <Gold.Chemscore.Fitness>
11.0794

> <Gold.Chemscore.DG>
-13.3461

> <Gold.Chemscore.ZeroCoef>
-5.4800

> <Gold.Chemscore.Hbond>
1.8821

> <Gold.Chemscore.Metal>
0.0000

> <Gold.Chemscore.Lipo>
74.9190

> <Gold.Chemscore.Internal_Hbond>
0.0000

> <Gold.Chemscore.DEClash>
0.0195

> <Gold.Chemscore.DEInternal>
2.2471

> <Gold.Chemscore.Rot>
2.8069

> <Gold.Chemscore.Internal.Correction>
   9.000000E+99

> <Gold.Chemscore.Hbonds>
donor molecule, donor type, donor heavy atom, donor atom, acceptor molecule, acceptor atom, score
      L1  H    13    32       P1  7948  0.99
      P1  H  7997  8010       L1    16  0.91

> <Gold.Chemscore.Hbond.Weighted>
-6.2862

> <Gold.Chemscore.Metal.Weighted>
-0.0000

> <Gold.Chemscore.Lipo.Weighted>
-8.7655

> <Gold.Chemscore.Internal_Hbond.Weighted>
0.0000

> <Gold.Chemscore.DEClash.Weighted>
0.0195

> <Gold.Chemscore.DEInternal.Weighted>
2.2471

> <Gold.Chemscore.Rot.Weighted>
7.1856

> <Gold.Chemscore.Internal.Correction.Weighted>
   9.000000E+99

> <Gold.Protein.RotatedTorsions>
[ 6907 6896 6895 6894 ] final  103.43 input  -60.11 | X-H torsion
[ 7974 7965 7964 7962 ] final  121.51 input  175.53 | X-H torsion
[ 8008 7997 7996 7995 ] final  107.70 input   59.86 | X-H torsion
[ 10167 10162 10161 10158 ] final  -86.14 input  -65.29 | X-H torsion
[ 10718 10713 10712 10709 ] final  155.91 input   66.30 | X-H torsion
[ 10763 10752 10751 10750 ] final   73.99 input  -60.55 | X-H torsion
[ 11005 11000 10999 10996 ] final  -21.33 input  -57.11 | X-H torsion

> <Gold.Protein.ActiveResidues>
 VAL166  LYS551  ARG553  GLY616  TRP617  ASP618  TYR619  PRO620  LYS621  CYS622 
 ASP623  PHE694  ASN695  SER759  ASP760  ASP761  ALA762  ILE779  LEU786  VAL792 
 PHE793  MET794  SER795  GLU796  ALA797  LYS798  CYS799  TRP800  GLU811  SER814 

> <Gold.Protein.RotatedAtoms>
  152.5295  133.9827  159.7813 H   0  0  0  0  0  0  0  0  0  0  0  0  # atno 6907 bound_to 6896
  151.0078  133.5986  159.2693 H   0  0  0  0  0  0  0  0  0  0  0  0  # atno 6908 bound_to 6896
  151.3072  135.0791  159.9313 H   0  0  0  0  0  0  0  0  0  0  0  0  # atno 6909 bound_to 6896
  145.1184  139.3405  143.4727 H   0  0  0  0  0  0  0  0  0  0  0  0  # atno 7974 bound_to 7965
  156.1845  140.3090  155.9211 H   0  0  0  0  0  0  0  0  0  0  0  0  # atno 8008 bound_to 7997
  155.3312  140.0461  157.3059 H   0  0  0  0  0  0  0  0  0  0  0  0  # atno 8009 bound_to 7997
  154.5380  140.2252  155.8700 H   0  0  0  0  0  0  0  0  0  0  0  0  # atno 8010 bound_to 7997
  140.3970  143.2679  151.9191 H   0  0  0  0  0  0  0  0  0  0  0  0  # atno 10167 bound_to 10162
  157.2120  131.0699  151.1964 H   0  0  0  0  0  0  0  0  0  0  0  0  # atno 10718 bound_to 10713
  153.0557  135.5042  154.7975 H   0  0  0  0  0  0  0  0  0  0  0  0  # atno 10763 bound_to 10752
  154.6803  135.2967  154.9625 H   0  0  0  0  0  0  0  0  0  0  0  0  # atno 10764 bound_to 10752
  154.0413  135.6716  153.4843 H   0  0  0  0  0  0  0  0  0  0  0  0  # atno 10765 bound_to 10752
  140.8550  133.7829  156.0009 H   0  0  0  0  0  0  0  0  0  0  0  0  # atno 11005 bound_to 11000
  146.3522  140.1133  142.8603 LP  0  0  0  0  0  0  0  0  0  0  0  0  # atno 17320 bound_to 7965
  145.0767  140.9193  143.4849 LP  0  0  0  0  0  0  0  0  0  0  0  0  # atno 17321 bound_to 7965
  139.4786  144.5671  151.8147 LP  0  0  0  0  0  0  0  0  0  0  0  0  # atno 17342 bound_to 10162
  140.4780  144.1491  150.5928 LP  0  0  0  0  0  0  0  0  0  0  0  0  # atno 17343 bound_to 10162
  157.3663  130.7157  149.6535 LP  0  0  0  0  0  0  0  0  0  0  0  0  # atno 17370 bound_to 10713
  155.9690  130.4211  150.4455 LP  0  0  0  0  0  0  0  0  0  0  0  0  # atno 17371 bound_to 10713
  140.8747  134.2684  157.5174 LP  0  0  0  0  0  0  0  0  0  0  0  0  # atno 17394 bound_to 11000
  139.8705  134.9585  156.4302 LP  0  0  0  0  0  0  0  0  0  0  0  0  # atno 17395 bound_to 11000

$$$$
