AV-unprocessed.smi:875|AV-procd|sdf|4018|dock8
  -GOLD-   22720 1503D 1   1.00000     0.00000
 Structure written by MMmdl.
 37 38  0  0  0  0  0  0  0  0  1 V2000
  146.6419  134.8170  162.3356 C   0  0  0  0  0  0  0  0  0  0  0  0
  147.0043  135.1286  160.9618 N   0  0  0  0  0  0  0  0  0  0  0  0
  147.2649  136.3650  160.5108 C   0  0  0  0  0  0  0  0  0  0  0  0
  147.2078  137.3683  161.2217 O   0  0  0  0  0  0  0  0  0  0  0  0
  147.6343  136.4971  159.0309 C   0  0  0  0  0  0  0  0  0  0  0  0
  149.0290  137.0139  158.8679 C   0  0  0  0  0  0  0  0  0  0  0  0
  150.0205  136.2201  158.4789 N   0  0  0  0  0  0  0  0  0  0  0  0
  151.1292  137.0782  158.4470 O   0  0  0  0  0  0  0  0  0  0  0  0
  150.6687  138.2942  158.8270 C   0  0  0  0  0  0  0  0  0  0  0  0
  151.6296  139.4349  158.9000 C   0  0  0  0  0  0  0  0  0  0  0  0
  151.0194  140.5447  158.2555 O   0  0  0  0  0  0  0  0  0  0  0  0
  151.8249  141.7150  158.2065 C   0  0  0  0  0  0  0  0  0  0  0  0
  152.3539  142.0886  159.6080 C   0  0  0  0  0  0  0  0  0  0  0  0
  153.1111  143.4267  159.5827 C   0  0  0  0  0  0  0  0  0  0  0  0
  152.2391  144.5532  159.0063 C   0  0  0  0  0  0  0  0  0  0  0  0
  151.7080  144.1850  157.6120 C   0  0  0  0  0  0  0  0  0  0  0  0
  150.9498  142.8480  157.6419 C   0  0  0  0  0  0  0  0  0  0  0  0
  149.3677  138.3107  159.1108 N   0  0  0  0  0  0  0  0  0  0  0  0
  146.5152  133.7406  162.4513 H   0  0  0  0  0  0  0  0  0  0  0  0
  145.7047  135.3030  162.6092 H   0  0  0  0  0  0  0  0  0  0  0  0
  147.4197  135.1443  163.0270 H   0  0  0  0  0  0  0  0  0  0  0  0
  147.0727  134.3562  160.3143 H   0  0  0  0  0  0  0  0  0  0  0  0
  147.5410  135.5251  158.5447 H   0  0  0  0  0  0  0  0  0  0  0  0
  146.9348  137.1691  158.5316 H   0  0  0  0  0  0  0  0  0  0  0  0
  151.8485  139.6437  159.9469 H   0  0  0  0  0  0  0  0  0  0  0  0
  152.5591  139.1590  158.3999 H   0  0  0  0  0  0  0  0  0  0  0  0
  152.6631  141.5568  157.5252 H   0  0  0  0  0  0  0  0  0  0  0  0
  151.5201  142.1555  160.3081 H   0  0  0  0  0  0  0  0  0  0  0  0
  153.0169  141.3133  159.9907 H   0  0  0  0  0  0  0  0  0  0  0  0
  153.4371  143.6882  160.5897 H   0  0  0  0  0  0  0  0  0  0  0  0
  154.0158  143.3225  158.9823 H   0  0  0  0  0  0  0  0  0  0  0  0
  151.4013  144.7466  159.6778 H   0  0  0  0  0  0  0  0  0  0  0  0
  152.8130  145.4788  158.9536 H   0  0  0  0  0  0  0  0  0  0  0  0
  151.0536  144.9754  157.2436 H   0  0  0  0  0  0  0  0  0  0  0  0
  152.5395  144.1183  156.9092 H   0  0  0  0  0  0  0  0  0  0  0  0
  150.6135  142.5923  156.6365 H   0  0  0  0  0  0  0  0  0  0  0  0
  150.0503  142.9549  158.2499 H   0  0  0  0  0  0  0  0  0  0  0  0
  1  2  1  0  0  0  0
  1 19  1  0  0  0  0
  1 20  1  0  0  0  0
  1 21  1  0  0  0  0
  2  3  1  0  0  0  0
  2 22  1  0  0  0  0
  3  4  2  0  0  0  0
  3  5  1  0  0  0  0
  5  6  1  0  0  0  0
  5 23  1  0  0  0  0
  5 24  1  0  0  0  0
  6 18  1  0  0  0  0
  6  7  2  0  0  0  0
  7  8  1  0  0  0  0
  8  9  1  0  0  0  0
  9 10  1  0  0  0  0
  9 18  2  0  0  0  0
 10 11  1  0  0  0  0
 10 25  1  0  0  0  0
 10 26  1  0  0  0  0
 11 12  1  0  0  0  0
 12 17  1  0  0  0  0
 12 13  1  0  0  0  0
 12 27  1  0  0  0  0
 13 14  1  0  0  0  0
 13 28  1  0  0  0  0
 13 29  1  0  0  0  0
 14 15  1  0  0  0  0
 14 30  1  0  0  0  0
 14 31  1  0  0  0  0
 15 16  1  0  0  0  0
 15 32  1  0  0  0  0
 15 33  1  0  0  0  0
 16 17  1  0  0  0  0
 16 34  1  0  0  0  0
 16 35  1  0  0  0  0
 17 36  1  0  0  0  0
 17 37  1  0  0  0  0
M  END
> <s_m_source_file>
AV-unprocessed.smi

> <i_m_source_file_index>
875

> <i_lp_mmshare_version>
43012

> <i_f3d_flags>
0

> <s_epik_input>
W0NIM11bTkhdQyg9TylbQ0gyXWMxbm9jKG4xKVtDSDJdT1tDSF0yW0NIMl1bQ0gyXVtDSDJdW0NIMl1bQ0gyXTI=

> <s_epik_cmdline>
J2VwaWtfcHl0aG9uJywgJy1waCcsICc3LjAnLCAnLXRuJywgJzgnLCAnLW1hJywgJzIwMCcsICctbWV0YWxfYmluZGluZycsICctaW1hZScsICc8aW5maWxlLm1hZT4nLCAnLW9tYWUnLCAnPG91dGZpbGUubWFlPic=

> <r_lp_tautomer_probability>
1

> <r_epik_Ionization_Penalty>
1.02915e-07

> <r_epik_Ionization_Penalty_Charging>
0

> <r_epik_Ionization_Penalty_Neutral>
1.02915e-07

> <r_epik_State_Penalty>
-0

> <r_epik_Charging_Adjusted_Penalty>
0

> <i_epik_Tot_Q>
0

> <i_epik_Tot_abs_Q>
0

> <r_epik_Metal_State_Penalty>
-0

> <b_epik_Metal_Only>
0

> <s_lp_Force_Field>
OPLS_2005

> <r_lp_Energy>
10.4582

> <b_lp_Chiralities_Consistent>
1

> <s_lp_Variant>
AV-unprocessed.smi:875-1

> <Gold.Version>
5.8.1

> <Gold.Id.Protein>
6NUR|6NUR_protein|mol2

> <Gold.PLP.Fitness>
47.1910

> <Gold.PLP.PLP>
-39.3820

> <Gold.PLP.part.hbond>
-4.5330

> <Gold.PLP.part.metal>
0.0000

> <Gold.PLP.part.buried>
-4.7244

> <Gold.PLP.part.nonpolar>
-30.4013

> <Gold.PLP.part.repulsive>
0.0445

> <Gold.PLP.ligand.clash>
0.0000

> <Gold.PLP.ligand.torsion>
0.3523

> <Gold.PLP.Chemscore.Hbond>
2.8320

> <Gold.PLP.Chemscore.CHOScore>
0.0000

> <Gold.PLP.Chemscore.Metal>
0.0000

> <Gold.Chemscore.Hbonds>
donor molecule, donor type, donor heavy atom, donor atom, acceptor molecule, acceptor atom, score
      P1  H  6896  6908       L1     7  0.80
      P1  H  6931  6943       L1     4  0.56
      P1  H  6934  6947       L1     4  1.00

> <Gold.PLP.Chemscore.Internal.Correction>
0.0175

> <Gold.Rescore>
     Score         DG    S(hbond)    S(metal)    S(lipo)     H(rot)  DE(clash)    DE(int)     intcor
     18.13     -18.65       2.53        0.00      87.94       2.18       0.03       0.50       ----

> <Gold.Chemscore.Fitness>
18.1278

> <Gold.Chemscore.DG>
-18.6514

> <Gold.Chemscore.ZeroCoef>
-5.4800

> <Gold.Chemscore.Hbond>
2.5310

> <Gold.Chemscore.Metal>
0.0000

> <Gold.Chemscore.Lipo>
87.9418

> <Gold.Chemscore.Internal_Hbond>
0.0000

> <Gold.Chemscore.DEClash>
0.0283

> <Gold.Chemscore.DEInternal>
0.4952

> <Gold.Chemscore.Rot>
2.1763

> <Gold.Chemscore.Internal.Correction>
   9.000000E+99

> <Gold.Chemscore.Hbonds>
donor molecule, donor type, donor heavy atom, donor atom, acceptor molecule, acceptor atom, score
      P1  H  6896  6908       L1     7  0.11
      P1  H  6931  6943       L1     4  0.53
      P1  H  6934  6947       L1     4  0.97

> <Gold.Chemscore.Hbond.Weighted>
-8.4534

> <Gold.Chemscore.Metal.Weighted>
-0.0000

> <Gold.Chemscore.Lipo.Weighted>
-10.2892

> <Gold.Chemscore.Internal_Hbond.Weighted>
0.0000

> <Gold.Chemscore.DEClash.Weighted>
0.0283

> <Gold.Chemscore.DEInternal.Weighted>
0.4952

> <Gold.Chemscore.Rot.Weighted>
5.5712

> <Gold.Chemscore.Internal.Correction.Weighted>
   9.000000E+99

> <Gold.Protein.RotatedTorsions>
[ 6907 6896 6895 6894 ] final -169.19 input  -60.11 | X-H torsion
[ 7974 7965 7964 7962 ] final  -66.54 input  175.53 | X-H torsion
[ 8008 7997 7996 7995 ] final -134.27 input   59.86 | X-H torsion
[ 10167 10162 10161 10158 ] final   69.37 input  -65.29 | X-H torsion
[ 10718 10713 10712 10709 ] final   59.21 input   66.30 | X-H torsion
[ 10763 10752 10751 10750 ] final  -95.20 input  -60.55 | X-H torsion
[ 11005 11000 10999 10996 ] final -101.16 input  -57.11 | X-H torsion

> <Gold.Protein.ActiveResidues>
 VAL166  LYS551  ARG553  GLY616  TRP617  ASP618  TYR619  PRO620  LYS621  CYS622 
 ASP623  PHE694  ASN695  SER759  ASP760  ASP761  ALA762  ILE779  LEU786  VAL792 
 PHE793  MET794  SER795  GLU796  ALA797  LYS798  CYS799  TRP800  GLU811  SER814 

> <Gold.Protein.RotatedAtoms>
  151.4877  133.3532  159.2848 H   0  0  0  0  0  0  0  0  0  0  0  0  # atno 6907 bound_to 6896
  150.8855  134.8254  159.7267 H   0  0  0  0  0  0  0  0  0  0  0  0  # atno 6908 bound_to 6896
  152.4790  134.4780  159.9708 H   0  0  0  0  0  0  0  0  0  0  0  0  # atno 6909 bound_to 6896
  145.7405  140.8956  143.0532 H   0  0  0  0  0  0  0  0  0  0  0  0  # atno 7974 bound_to 7965
  155.3593  140.0482  157.3046 H   0  0  0  0  0  0  0  0  0  0  0  0  # atno 8008 bound_to 7997
  154.5186  140.2217  155.8981 H   0  0  0  0  0  0  0  0  0  0  0  0  # atno 8009 bound_to 7997
  156.1665  140.3105  155.8903 H   0  0  0  0  0  0  0  0  0  0  0  0  # atno 8010 bound_to 7997
  140.0685  144.5173  150.7244 H   0  0  0  0  0  0  0  0  0  0  0  0  # atno 10167 bound_to 10162
  157.5658  130.8870  149.9184 H   0  0  0  0  0  0  0  0  0  0  0  0  # atno 10718 bound_to 10713
  154.7126  135.5129  153.8689 H   0  0  0  0  0  0  0  0  0  0  0  0  # atno 10763 bound_to 10752
  153.0793  135.6626  154.0087 H   0  0  0  0  0  0  0  0  0  0  0  0  # atno 10764 bound_to 10752
  153.9926  135.3018  155.3390 H   0  0  0  0  0  0  0  0  0  0  0  0  # atno 10765 bound_to 10752
  141.1242  133.8456  157.1196 H   0  0  0  0  0  0  0  0  0  0  0  0  # atno 11005 bound_to 11000
  144.6872  139.9454  143.7476 LP  0  0  0  0  0  0  0  0  0  0  0  0  # atno 17320 bound_to 7965
  146.0452  139.3459  143.0673 LP  0  0  0  0  0  0  0  0  0  0  0  0  # atno 17321 bound_to 7965
  140.7137  143.2526  151.4501 LP  0  0  0  0  0  0  0  0  0  0  0  0  # atno 17342 bound_to 10162
  139.5850  144.1624  152.2017 LP  0  0  0  0  0  0  0  0  0  0  0  0  # atno 17343 bound_to 10162
  156.0706  130.3685  150.0784 LP  0  0  0  0  0  0  0  0  0  0  0  0  # atno 17370 bound_to 10713
  156.8943  130.9599  151.3584 LP  0  0  0  0  0  0  0  0  0  0  0  0  # atno 17371 bound_to 10713
  140.0225  134.9939  157.0620 LP  0  0  0  0  0  0  0  0  0  0  0  0  # atno 17394 bound_to 11000
  140.4416  134.1675  155.7174 LP  0  0  0  0  0  0  0  0  0  0  0  0  # atno 17395 bound_to 11000

$$$$
