AV-unprocessed.smi:3281|AV-procd|sdf|12557|dock9
  -GOLD-   2272018473D 1   1.00000     0.00000
 Structure written by MMmdl.
 37 38  0  0  0  0  0  0  0  0  2 V2000
  149.6143  134.9739  154.8149 C   0  0  0  0  0  0  0  0  0  0  0  0
  150.4881  135.8930  155.6758 C   0  0  0  0  0  0  0  0  0  0  0  0
  150.4236  137.3263  155.2606 C   0  0  0  0  0  0  0  0  0  0  0  0
  150.9526  137.8947  154.1278 C   0  0  0  0  0  0  0  0  0  0  0  0
  150.7210  139.2683  154.0239 N   0  0  0  0  0  0  0  0  0  0  0  0
  150.0422  139.7505  155.0671 C   0  0  0  0  0  0  0  0  0  0  0  0
  149.6397  141.1810  155.1961 C   0  0  0  0  0  0  0  0  0  0  0  0
  150.5543  141.9637  156.1467 C   0  0  0  0  0  0  0  0  0  0  0  0
  149.7635  142.7228  157.1357 N   0  3  0  0  0  0  0  0  0  0  0  0
  150.5051  143.1208  158.3519 C   0  0  1  0  0  0  0  0  0  0  0  0
  151.4056  141.9592  158.8151 C   0  0  0  0  0  0  0  0  0  0  0  0
  152.1751  142.2790  160.1078 C   0  0  0  0  0  0  0  0  0  0  0  0
  153.1060  143.4898  159.9530 C   0  0  0  0  0  0  0  0  0  0  0  0
  152.1664  144.9893  159.5590 S   0  0  0  0  0  0  0  0  0  0  0  0
  151.3207  144.3947  158.0691 C   0  0  0  0  0  0  0  0  0  0  0  0
  149.6078  138.5160  156.2430 S   0  0  0  0  0  0  0  0  0  0  0  0
  149.6823  133.9413  155.1576 H   0  0  0  0  0  0  0  0  0  0  0  0
  149.9239  134.9977  153.7698 H   0  0  0  0  0  0  0  0  0  0  0  0
  148.5665  135.2723  154.8609 H   0  0  0  0  0  0  0  0  0  0  0  0
  150.1835  135.8023  156.7191 H   0  0  0  0  0  0  0  0  0  0  0  0
  151.5226  135.5512  155.6335 H   0  0  0  0  0  0  0  0  0  0  0  0
  151.5051  137.3974  153.3441 H   0  0  0  0  0  0  0  0  0  0  0  0
  149.6510  141.6339  154.2041 H   0  0  0  0  0  0  0  0  0  0  0  0
  148.6078  141.2233  155.5471 H   0  0  0  0  0  0  0  0  0  0  0  0
  151.2216  141.2784  156.6716 H   0  0  0  0  0  0  0  0  0  0  0  0
  151.1784  142.6555  155.5789 H   0  0  0  0  0  0  0  0  0  0  0  0
  149.4128  143.5588  156.6904 H   0  0  0  0  0  0  0  0  0  0  0  0
  149.7930  143.3416  159.1494 H   0  0  0  0  0  0  0  0  0  0  0  0
  150.7946  141.0712  158.9813 H   0  0  0  0  0  0  0  0  0  0  0  0
  152.1125  141.6990  158.0260 H   0  0  0  0  0  0  0  0  0  0  0  0
  151.4721  142.4574  160.9225 H   0  0  0  0  0  0  0  0  0  0  0  0
  152.7647  141.4090  160.3992 H   0  0  0  0  0  0  0  0  0  0  0  0
  153.6632  143.6585  160.8747 H   0  0  0  0  0  0  0  0  0  0  0  0
  153.8384  143.3101  159.1652 H   0  0  0  0  0  0  0  0  0  0  0  0
  152.0636  144.2120  157.2917 H   0  0  0  0  0  0  0  0  0  0  0  0
  150.6696  145.1915  157.7078 H   0  0  0  0  0  0  0  0  0  0  0  0
  148.9756  142.1561  157.4158 H   0  0  0  0  0  0  0  0  0  0  0  0
  1  2  1  0  0  0  0
  1 17  1  0  0  0  0
  1 18  1  0  0  0  0
  1 19  1  0  0  0  0
  2  3  1  0  0  0  0
  2 20  1  0  0  0  0
  2 21  1  0  0  0  0
  3 16  1  0  0  0  0
  3  4  2  0  0  0  0
  4  5  1  0  0  0  0
  4 22  1  0  0  0  0
  5  6  2  0  0  0  0
  6  7  1  0  0  0  0
  6 16  1  0  0  0  0
  7  8  1  0  0  0  0
  7 23  1  0  0  0  0
  7 24  1  0  0  0  0
  8  9  1  0  0  0  0
  8 25  1  0  0  0  0
  8 26  1  0  0  0  0
  9 10  1  0  0  0  0
  9 27  1  0  0  0  0
  9 37  1  0  0  0  0
 10 15  1  0  0  0  0
 10 11  1  0  0  0  0
 10 28  1  0  0  0  0
 11 12  1  0  0  0  0
 11 29  1  0  0  0  0
 11 30  1  0  0  0  0
 12 13  1  0  0  0  0
 12 31  1  0  0  0  0
 12 32  1  0  0  0  0
 13 14  1  0  0  0  0
 13 33  1  0  0  0  0
 13 34  1  0  0  0  0
 14 15  1  0  0  0  0
 15 35  1  0  0  0  0
 15 36  1  0  0  0  0
M  CHG  1   9   1
M  END
> <s_m_source_file>
AV-unprocessed.smi

> <i_m_source_file_index>
3281

> <i_lp_mmshare_version>
43012

> <i_f3d_flags>
0

> <s_epik_input>
W0NIM11bQ0gyXWMxW2NIXW5jKHMxKVtDSDJdW0NIMl1bTkhdW0NAQEhdMltDSDJdW0NIMl1bQ0gyXVNbQ0gyXTI=

> <s_epik_cmdline>
J2VwaWtfcHl0aG9uJywgJy1waCcsICc3LjAnLCAnLXRuJywgJzgnLCAnLW1hJywgJzIwMCcsICctbWV0YWxfYmluZGluZycsICctaW1hZScsICc8aW5maWxlLm1hZT4nLCAnLW9tYWUnLCAnPG91dGZpbGUubWFlPic=

> <r_epik_Ionization_Penalty>
0.00827702

> <r_epik_Ionization_Penalty_Charging>
0.00826679

> <r_epik_Ionization_Penalty_Neutral>
1.02314e-05

> <r_epik_State_Penalty>
0.00622064

> <r_epik_Charging_Adjusted_Penalty>
0.0144874

> <i_epik_Tot_Q>
1

> <i_epik_Tot_abs_Q>
1

> <r_epik_Metal_State_Penalty>
0.0062521

> <b_epik_Metal_Only>
0

> <s_lp_Force_Field>
OPLS_2005

> <r_lp_Energy>
0.380523

> <b_lp_Chiralities_Consistent>
1

> <s_lp_Variant>
AV-unprocessed.smi:3281-2

> <Gold.Version>
5.8.1

> <Gold.Id.Protein>
6NUR|6NUR_protein|mol2

> <Gold.PLP.Fitness>
45.6356

> <Gold.PLP.PLP>
-35.6536

> <Gold.PLP.part.hbond>
-2.0000

> <Gold.PLP.part.metal>
0.0000

> <Gold.PLP.part.buried>
-3.0971

> <Gold.PLP.part.nonpolar>
-30.5529

> <Gold.PLP.part.repulsive>
0.2025

> <Gold.PLP.ligand.clash>
0.0000

> <Gold.PLP.ligand.torsion>
1.0233

> <Gold.PLP.Chemscore.Hbond>
3.0000

> <Gold.PLP.Chemscore.CHOScore>
1.0000

> <Gold.PLP.Chemscore.Metal>
0.0000

> <Gold.Chemscore.Hbonds>
donor molecule, donor type, donor heavy atom, donor atom, acceptor molecule, acceptor atom, score
      L1  H     9    27       P1  8028  2.00
      P1  H  7989  7998       L1     5  1.00
      L1  C     4    22       P1  7949  1.00

> <Gold.PLP.Chemscore.Internal.Correction>
0.0287

> <Gold.Rescore>
     Score         DG    S(hbond)    S(metal)    S(lipo)     H(rot)  DE(clash)    DE(int)     intcor
     17.84     -18.59       1.08        0.00     111.43       1.38       0.04       0.72       ----

> <Gold.Chemscore.Fitness>
17.8403

> <Gold.Chemscore.DG>
-18.5940

> <Gold.Chemscore.ZeroCoef>
-5.4800

> <Gold.Chemscore.Hbond>
1.0780

> <Gold.Chemscore.Metal>
0.0000

> <Gold.Chemscore.Lipo>
111.4334

> <Gold.Chemscore.Internal_Hbond>
0.0000

> <Gold.Chemscore.DEClash>
0.0370

> <Gold.Chemscore.DEInternal>
0.7168

> <Gold.Chemscore.Rot>
1.3767

> <Gold.Chemscore.Internal.Correction>
   9.000000E+99

> <Gold.Chemscore.Hbonds>
donor molecule, donor type, donor heavy atom, donor atom, acceptor molecule, acceptor atom, score
      L1  H     9    27       P1  8028  0.98
      P1  H  7989  7998       L1     5  0.25

> <Gold.Chemscore.Hbond.Weighted>
-3.6006

> <Gold.Chemscore.Metal.Weighted>
-0.0000

> <Gold.Chemscore.Lipo.Weighted>
-13.0377

> <Gold.Chemscore.Internal_Hbond.Weighted>
0.0000

> <Gold.Chemscore.DEClash.Weighted>
0.0370

> <Gold.Chemscore.DEInternal.Weighted>
0.7168

> <Gold.Chemscore.Rot.Weighted>
3.5243

> <Gold.Chemscore.Internal.Correction.Weighted>
   9.000000E+99

> <Gold.Protein.RotatedTorsions>
[ 6907 6896 6895 6894 ] final -159.54 input  -60.11 | X-H torsion
[ 7974 7965 7964 7962 ] final  136.46 input  175.53 | X-H torsion
[ 8008 7997 7996 7995 ] final -164.69 input   59.86 | X-H torsion
[ 10167 10162 10161 10158 ] final  -30.75 input  -65.29 | X-H torsion
[ 10718 10713 10712 10709 ] final  175.20 input   66.30 | X-H torsion
[ 10763 10752 10751 10750 ] final  -23.45 input  -60.55 | X-H torsion
[ 11005 11000 10999 10996 ] final  123.47 input  -57.11 | X-H torsion

> <Gold.Protein.ActiveResidues>
 VAL166  LYS551  ARG553  GLY616  TRP617  ASP618  TYR619  PRO620  LYS621  CYS622 
 ASP623  PHE694  ASN695  SER759  ASP760  ASP761  ALA762  ILE779  LEU786  VAL792 
 PHE793  MET794  SER795  GLU796  ALA797  LYS798  CYS799  TRP800  GLU811  SER814 

> <Gold.Protein.RotatedAtoms>
  151.3351  133.3984  159.2665 H   0  0  0  0  0  0  0  0  0  0  0  0  # atno 6907 bound_to 6896
  150.9923  134.9256  159.7917 H   0  0  0  0  0  0  0  0  0  0  0  0  # atno 6908 bound_to 6896
  152.5251  134.3316  159.9237 H   0  0  0  0  0  0  0  0  0  0  0  0  # atno 6909 bound_to 6896
  144.9563  139.4761  143.5501 H   0  0  0  0  0  0  0  0  0  0  0  0  # atno 7974 bound_to 7965
  155.8392  140.0945  157.1745 H   0  0  0  0  0  0  0  0  0  0  0  0  # atno 8008 bound_to 7997
  154.3981  140.1404  156.3769 H   0  0  0  0  0  0  0  0  0  0  0  0  # atno 8009 bound_to 7997
  155.8082  140.3450  155.5445 H   0  0  0  0  0  0  0  0  0  0  0  0  # atno 8010 bound_to 7997
  140.7245  143.3824  151.1577 H   0  0  0  0  0  0  0  0  0  0  0  0  # atno 10167 bound_to 10162
  156.9383  130.9993  151.2973 H   0  0  0  0  0  0  0  0  0  0  0  0  # atno 10718 bound_to 10713
  153.6680  135.6973  153.5156 H   0  0  0  0  0  0  0  0  0  0  0  0  # atno 10763 bound_to 10752
  153.2580  135.4254  155.0864 H   0  0  0  0  0  0  0  0  0  0  0  0  # atno 10764 bound_to 10752
  154.8434  135.3548  154.6224 H   0  0  0  0  0  0  0  0  0  0  0  0  # atno 10765 bound_to 10752
  139.9314  134.9641  156.8264 H   0  0  0  0  0  0  0  0  0  0  0  0  # atno 11005 bound_to 11000
  146.3338  139.8682  142.8844 LP  0  0  0  0  0  0  0  0  0  0  0  0  # atno 17320 bound_to 7965
  145.2768  141.0126  143.3740 LP  0  0  0  0  0  0  0  0  0  0  0  0  # atno 17321 bound_to 7965
  139.7415  143.8917  152.3051 LP  0  0  0  0  0  0  0  0  0  0  0  0  # atno 17342 bound_to 10162
  139.8740  144.7053  150.8955 LP  0  0  0  0  0  0  0  0  0  0  0  0  # atno 17343 bound_to 10162
  157.5802  130.8371  149.8511 LP  0  0  0  0  0  0  0  0  0  0  0  0  # atno 17370 bound_to 10713
  156.0416  130.3737  150.1422 LP  0  0  0  0  0  0  0  0  0  0  0  0  # atno 17371 bound_to 10713
  140.6192  134.0010  155.7610 LP  0  0  0  0  0  0  0  0  0  0  0  0  # atno 17394 bound_to 11000
  141.0905  133.9924  157.3245 LP  0  0  0  0  0  0  0  0  0  0  0  0  # atno 17395 bound_to 11000

$$$$
