AV-unprocessed.smi:2047|AV-procd|sdf|8320|dock5
  -GOLD-   2272010583D 1   1.00000     0.00000
 Structure written by MMmdl.
 42 44  0  0  0  0  0  0  0  0  3 V2000
  151.8416  137.6911  156.1000 O   0  0  0  0  0  0  0  0  0  0  0  0
  152.6347  138.5231  156.5557 C   0  0  0  0  0  0  0  0  0  0  0  0
  152.3818  139.8366  156.4290 N   0  0  0  0  0  0  0  0  0  0  0  0
  151.2608  140.4644  155.8188 C   0  0  0  0  0  0  0  0  0  0  0  0
  150.4498  139.7984  154.8665 C   0  0  0  0  0  0  0  0  0  0  0  0
  149.3330  140.4597  154.3180 C   0  0  0  0  0  0  0  0  0  0  0  0
  149.0397  141.7707  154.7378 C   0  0  0  0  0  0  0  0  0  0  0  0
  149.8230  142.3706  155.6589 N   0  3  0  0  0  0  0  0  0  0  0  0
  150.9079  141.7781  156.2166 C   0  0  0  0  0  0  0  0  0  0  0  0
  151.6608  142.4881  157.1675 N   0  0  0  0  0  0  0  0  0  0  0  0
  151.4878  143.9308  157.1504 C   0  0  0  0  0  0  0  0  0  0  0  0
  152.0764  144.4275  158.4737 C   0  0  0  0  0  0  0  0  0  0  0  0
  152.0690  143.2007  159.3945 C   0  0  0  0  0  0  0  0  0  0  0  0
  151.4696  142.0754  158.5471 C   0  0  0  0  0  0  0  0  0  0  0  0
  153.8116  138.2879  157.1948 N   0  5  0  0  0  0  0  0  0  0  0  0
  154.6183  137.0729  157.0461 C   0  0  1  0  0  0  0  0  0  0  0  0
  155.8423  137.1126  157.9824 C   0  0  0  0  0  0  0  0  0  0  0  0
  156.4539  135.7063  158.0514 C   0  0  0  0  0  0  0  0  0  0  0  0
  155.0459  134.5431  157.8791 S   0  0  0  0  0  0  0  0  0  0  0  0
  155.3060  133.6416  156.7456 O   0  0  0  0  0  0  0  0  0  0  0  0
  154.6884  134.0053  159.2011 O   0  0  0  0  0  0  0  0  0  0  0  0
  153.8102  135.8116  157.3931 C   0  0  0  0  0  0  0  0  0  0  0  0
  153.1277  140.4517  156.7196 H   0  0  0  0  0  0  0  0  0  0  0  0
  150.6628  138.7851  154.5607 H   0  0  0  0  0  0  0  0  0  0  0  0
  148.7082  139.9642  153.5895 H   0  0  0  0  0  0  0  0  0  0  0  0
  148.2052  142.3515  154.3725 H   0  0  0  0  0  0  0  0  0  0  0  0
  151.9936  144.3764  156.2935 H   0  0  0  0  0  0  0  0  0  0  0  0
  150.4300  144.1907  157.0904 H   0  0  0  0  0  0  0  0  0  0  0  0
  153.0997  144.7751  158.3266 H   0  0  0  0  0  0  0  0  0  0  0  0
  151.4994  145.2574  158.8825 H   0  0  0  0  0  0  0  0  0  0  0  0
  153.0898  142.9514  159.6872 H   0  0  0  0  0  0  0  0  0  0  0  0
  151.4936  143.3677  160.3055 H   0  0  0  0  0  0  0  0  0  0  0  0
  150.4074  141.9625  158.7693 H   0  0  0  0  0  0  0  0  0  0  0  0
  151.9591  141.1209  158.7427 H   0  0  0  0  0  0  0  0  0  0  0  0
  154.9951  136.9606  156.0282 H   0  0  0  0  0  0  0  0  0  0  0  0
  156.5770  137.8501  157.6578 H   0  0  0  0  0  0  0  0  0  0  0  0
  155.5233  137.4016  158.9852 H   0  0  0  0  0  0  0  0  0  0  0  0
  157.1436  135.5322  157.2239 H   0  0  0  0  0  0  0  0  0  0  0  0
  156.9824  135.5210  158.9864 H   0  0  0  0  0  0  0  0  0  0  0  0
  153.1547  135.9809  158.2480 H   0  0  0  0  0  0  0  0  0  0  0  0
  153.2090  135.4508  156.5586 H   0  0  0  0  0  0  0  0  0  0  0  0
  149.5867  143.3190  155.9502 H   0  0  0  0  0  0  0  0  0  0  0  0
  1  2  2  0  0  0  0
  2  3  1  0  0  0  0
  2 15  1  0  0  0  0
  3  4  1  0  0  0  0
  3 23  1  0  0  0  0
  4  9  1  0  0  0  0
  4  5  2  0  0  0  0
  5  6  1  0  0  0  0
  5 24  1  0  0  0  0
  6  7  2  0  0  0  0
  6 25  1  0  0  0  0
  7  8  1  0  0  0  0
  7 26  1  0  0  0  0
  8  9  2  0  0  0  0
  8 42  1  0  0  0  0
  9 10  1  0  0  0  0
 10 14  1  0  0  0  0
 10 11  1  0  0  0  0
 11 12  1  0  0  0  0
 11 27  1  0  0  0  0
 11 28  1  0  0  0  0
 12 13  1  0  0  0  0
 12 29  1  0  0  0  0
 12 30  1  0  0  0  0
 13 14  1  0  0  0  0
 13 31  1  0  0  0  0
 13 32  1  0  0  0  0
 14 33  1  0  0  0  0
 14 34  1  0  0  0  0
 15 16  1  0  0  0  0
 16 22  1  0  0  0  0
 16 17  1  0  0  0  0
 16 35  1  0  0  0  0
 17 18  1  0  0  0  0
 17 36  1  0  0  0  0
 17 37  1  0  0  0  0
 18 19  1  0  0  0  0
 18 38  1  0  0  0  0
 18 39  1  0  0  0  0
 19 20  2  0  0  0  0
 19 21  2  0  0  0  0
 19 22  1  0  0  0  0
 22 40  1  0  0  0  0
 22 41  1  0  0  0  0
M  CHG  1   8   1
M  CHG  1  15  -1
M  END
> <s_m_source_file>
AV-unprocessed.smi

> <i_m_source_file_index>
2047

> <i_lp_mmshare_version>
43012

> <i_f3d_flags>
0

> <s_epik_input>
Tz1TMSg9TylbQ0gyXVtDSDJdW0NASF0oW0NIMl0xKVtOSF1DKD1PKVtOSF1jMltjSF1bY0hdW2NIXW5jMk4zW0NIMl1bQ0gyXVtDSDJdW0NIMl0z

> <s_epik_cmdline>
J2VwaWtfcHl0aG9uJywgJy1waCcsICc3LjAnLCAnLXRuJywgJzgnLCAnLW1hJywgJzIwMCcsICctbWV0YWxfYmluZGluZycsICctaW1hZScsICc8aW5maWxlLm1hZT4nLCAnLW9tYWUnLCAnPG91dGZpbGUubWFlPic=

> <r_lp_tautomer_probability>
0.999994

> <r_epik_Ionization_Penalty>
8.27033

> <r_epik_Ionization_Penalty_Charging>
8.27033

> <r_epik_Ionization_Penalty_Neutral>
3.23223e-06

> <r_epik_State_Penalty>
7.90314

> <r_epik_Charging_Adjusted_Penalty>
16.1735

> <i_epik_Tot_Q>
0

> <i_epik_Tot_abs_Q>
2

> <r_epik_Metal_State_Penalty>
3.89381

> <b_epik_Metal_Only>
1

> <s_lp_Force_Field>
OPLS_2005

> <r_lp_Energy>
40.3449

> <b_lp_Chiralities_Consistent>
1

> <s_lp_Variant>
AV-unprocessed.smi:2047-6

> <Gold.Version>
5.8.1

> <Gold.Id.Protein>
6NUR|6NUR_protein|mol2

> <Gold.PLP.Fitness>
43.9658

> <Gold.PLP.PLP>
-32.0683

> <Gold.PLP.part.hbond>
-3.0000

> <Gold.PLP.part.metal>
0.0000

> <Gold.PLP.part.buried>
-0.2413

> <Gold.PLP.part.nonpolar>
-29.8084

> <Gold.PLP.part.repulsive>
1.2255

> <Gold.PLP.ligand.clash>
0.8732

> <Gold.PLP.ligand.torsion>
0.7334

> <Gold.PLP.Chemscore.Hbond>
4.7280

> <Gold.PLP.Chemscore.CHOScore>
0.0000

> <Gold.PLP.Chemscore.Metal>
0.0000

> <Gold.Chemscore.Hbonds>
donor molecule, donor type, donor heavy atom, donor atom, acceptor molecule, acceptor atom, score
      L1  H     8    42       P1  8028  2.00
      P1  H  6896  6907       L1    21  0.55
      P1  H  7997  8008       L1    15  1.47
      P1  H 10752 10765       L1    20  0.05

> <Gold.PLP.Chemscore.Internal.Correction>
0.0535

> <Gold.Rescore>
     Score         DG    S(hbond)    S(metal)    S(lipo)     H(rot)  DE(clash)    DE(int)     intcor
     15.09     -19.41       2.15        0.00      85.01       1.25       1.22       3.10       ----

> <Gold.Chemscore.Fitness>
15.0859

> <Gold.Chemscore.DG>
-19.4079

> <Gold.Chemscore.ZeroCoef>
-5.4800

> <Gold.Chemscore.Hbond>
2.1486

> <Gold.Chemscore.Metal>
0.0000

> <Gold.Chemscore.Lipo>
85.0116

> <Gold.Chemscore.Internal_Hbond>
0.0000

> <Gold.Chemscore.DEClash>
1.2213

> <Gold.Chemscore.DEInternal>
3.1007

> <Gold.Chemscore.Rot>
1.2480

> <Gold.Chemscore.Internal.Correction>
   9.000000E+99

> <Gold.Chemscore.Hbonds>
donor molecule, donor type, donor heavy atom, donor atom, acceptor molecule, acceptor atom, score
      L1  H     8    42       P1  8028  0.93
      P1  H  6896  6907       L1    21  0.54
      P1  H  7997  8008       L1    15  0.28

> <Gold.Chemscore.Hbond.Weighted>
-7.1764

> <Gold.Chemscore.Metal.Weighted>
-0.0000

> <Gold.Chemscore.Lipo.Weighted>
-9.9464

> <Gold.Chemscore.Internal_Hbond.Weighted>
0.0000

> <Gold.Chemscore.DEClash.Weighted>
1.2213

> <Gold.Chemscore.DEInternal.Weighted>
3.1007

> <Gold.Chemscore.Rot.Weighted>
3.1948

> <Gold.Chemscore.Internal.Correction.Weighted>
   9.000000E+99

> <Gold.Protein.RotatedTorsions>
[ 6907 6896 6895 6894 ] final   85.00 input  -60.11 | X-H torsion
[ 7974 7965 7964 7962 ] final -145.58 input  175.53 | X-H torsion
[ 8008 7997 7996 7995 ] final  -93.77 input   59.86 | X-H torsion
[ 10167 10162 10161 10158 ] final -141.54 input  -65.29 | X-H torsion
[ 10718 10713 10712 10709 ] final  -76.71 input   66.30 | X-H torsion
[ 10763 10752 10751 10750 ] final  -75.10 input  -60.55 | X-H torsion
[ 11005 11000 10999 10996 ] final  -16.01 input  -57.11 | X-H torsion

> <Gold.Protein.ActiveResidues>
 VAL166  LYS551  ARG553  GLY616  TRP617  ASP618  TYR619  PRO620  LYS621  CYS622 
 ASP623  PHE694  ASN695  SER759  ASP760  ASP761  ALA762  ILE779  LEU786  VAL792 
 PHE793  MET794  SER795  GLU796  ALA797  LYS798  CYS799  TRP800  GLU811  SER814 

> <Gold.Protein.RotatedAtoms>
  152.5365  134.2655  159.8951 H   0  0  0  0  0  0  0  0  0  0  0  0  # atno 6907 bound_to 6896
  151.2613  133.4294  159.2624 H   0  0  0  0  0  0  0  0  0  0  0  0  # atno 6908 bound_to 6896
  151.0450  134.9648  159.8238 H   0  0  0  0  0  0  0  0  0  0  0  0  # atno 6909 bound_to 6896
  144.8218  140.5565  143.5573 H   0  0  0  0  0  0  0  0  0  0  0  0  # atno 7974 bound_to 7965
  154.7399  140.0495  157.0801 H   0  0  0  0  0  0  0  0  0  0  0  0  # atno 8008 bound_to 7997
  155.0192  140.3145  155.4780 H   0  0  0  0  0  0  0  0  0  0  0  0  # atno 8009 bound_to 7997
  156.2862  140.2170  156.5310 H   0  0  0  0  0  0  0  0  0  0  0  0  # atno 8010 bound_to 7997
  139.8175  143.7619  152.2665 H   0  0  0  0  0  0  0  0  0  0  0  0  # atno 10167 bound_to 10162
  156.0166  130.4472  150.3235 H   0  0  0  0  0  0  0  0  0  0  0  0  # atno 10718 bound_to 10713
  154.4820  135.5842  153.6396 H   0  0  0  0  0  0  0  0  0  0  0  0  # atno 10763 bound_to 10752
  152.9849  135.6092  154.3234 H   0  0  0  0  0  0  0  0  0  0  0  0  # atno 10764 bound_to 10752
  154.3126  135.2845  155.2538 H   0  0  0  0  0  0  0  0  0  0  0  0  # atno 10765 bound_to 10752
  140.8025  133.8203  155.9484 H   0  0  0  0  0  0  0  0  0  0  0  0  # atno 11005 bound_to 11000
  145.5089  139.1480  143.3616 LP  0  0  0  0  0  0  0  0  0  0  0  0  # atno 17320 bound_to 7965
  146.2523  140.5229  142.8888 LP  0  0  0  0  0  0  0  0  0  0  0  0  # atno 17321 bound_to 7965
  139.7787  144.7452  151.0120 LP  0  0  0  0  0  0  0  0  0  0  0  0  # atno 17342 bound_to 10162
  140.7815  143.4566  151.0337 LP  0  0  0  0  0  0  0  0  0  0  0  0  # atno 17343 bound_to 10162
  157.1335  131.0278  151.2959 LP  0  0  0  0  0  0  0  0  0  0  0  0  # atno 17370 bound_to 10713
  157.4531  130.7610  149.7169 LP  0  0  0  0  0  0  0  0  0  0  0  0  # atno 17371 bound_to 10713
  140.9280  134.2058  157.4883 LP  0  0  0  0  0  0  0  0  0  0  0  0  # atno 17394 bound_to 11000
  139.8720  134.9821  156.5142 LP  0  0  0  0  0  0  0  0  0  0  0  0  # atno 17395 bound_to 11000

$$$$
