AV-unprocessed.smi:1218|AV-procd|sdf|5109|dock4
  -GOLD-   22720 4163D 1   1.00000     0.00000
 Structure written by MMmdl.
 45 46  0  0  0  0  0  0  0  0  2 V2000
  146.5803  133.3155  150.9041 C   0  0  0  0  0  0  0  0  0  0  0  0
  145.1995  133.8405  151.3322 C   0  0  0  0  0  0  0  0  0  0  0  0
  144.0936  133.1924  150.4859 C   0  0  0  0  0  0  0  0  0  0  0  0
  145.1159  135.3801  151.2451 C   0  0  0  0  0  0  0  0  0  0  0  0
  146.0832  136.0706  152.1364 N   0  3  2  0  0  0  0  0  0  0  0  0
  146.0703  135.5685  153.5328 C   0  0  0  0  0  0  0  0  0  0  0  0
  147.1187  136.3088  154.3791 C   0  0  0  0  0  0  0  0  0  0  0  0
  146.8726  137.7074  154.3223 O   0  0  0  0  0  0  0  0  0  0  0  0
  146.9842  138.2207  152.9984 C   0  0  2  0  0  0  0  0  0  0  0  0
  146.8052  139.7481  153.0557 C   0  0  0  0  0  0  0  0  0  0  0  0
  148.0228  140.4093  153.5100 N   0  0  0  0  0  0  0  0  0  0  0  0
  148.2134  140.9091  154.7404 C   0  0  0  0  0  0  0  0  0  0  0  0
  147.3848  140.8165  155.6460 O   0  0  0  0  0  0  0  0  0  0  0  0
  149.5290  141.6495  154.9790 C   0  0  0  0  0  0  0  0  0  0  0  0
  150.5498  140.7385  155.4638 N   0  0  0  0  0  0  0  0  0  0  0  0
  151.0923  140.6552  156.7295 C   0  0  0  0  0  0  0  0  0  0  0  0
  152.0230  139.6562  156.7074 C   0  0  0  0  0  0  0  0  0  0  0  0
  151.9791  139.1823  155.3663 C   0  0  0  0  0  0  0  0  0  0  0  0
  151.0986  139.8334  154.6234 N   0  0  0  0  0  0  0  0  0  0  0  0
  145.9174  137.5437  152.1169 C   0  0  0  0  0  0  0  0  0  0  0  0
  146.8084  133.5917  149.8740 H   0  0  0  0  0  0  0  0  0  0  0  0
  146.6239  132.2280  150.9724 H   0  0  0  0  0  0  0  0  0  0  0  0
  147.3735  133.7113  151.5386 H   0  0  0  0  0  0  0  0  0  0  0  0
  145.0265  133.5287  152.3617 H   0  0  0  0  0  0  0  0  0  0  0  0
  144.1976  133.4497  149.4312 H   0  0  0  0  0  0  0  0  0  0  0  0
  143.1060  133.5195  150.8127 H   0  0  0  0  0  0  0  0  0  0  0  0
  144.1209  132.1052  150.5676 H   0  0  0  0  0  0  0  0  0  0  0  0
  145.3036  135.6737  150.2109 H   0  0  0  0  0  0  0  0  0  0  0  0
  144.1073  135.7246  151.4791 H   0  0  0  0  0  0  0  0  0  0  0  0
  145.0781  135.7108  153.9640 H   0  0  0  0  0  0  0  0  0  0  0  0
  146.2803  134.5001  153.5599 H   0  0  0  0  0  0  0  0  0  0  0  0
  147.0617  135.9824  155.4175 H   0  0  0  0  0  0  0  0  0  0  0  0
  148.1297  136.0894  154.0313 H   0  0  0  0  0  0  0  0  0  0  0  0
  147.9746  137.9890  152.6020 H   0  0  0  0  0  0  0  0  0  0  0  0
  146.5194  140.1362  152.0768 H   0  0  0  0  0  0  0  0  0  0  0  0
  145.9961  140.0068  153.7394 H   0  0  0  0  0  0  0  0  0  0  0  0
  148.7570  140.5355  152.8277 H   0  0  0  0  0  0  0  0  0  0  0  0
  149.8723  142.1021  154.0479 H   0  0  0  0  0  0  0  0  0  0  0  0
  149.3927  142.4589  155.6986 H   0  0  0  0  0  0  0  0  0  0  0  0
  150.7749  141.3070  157.5302 H   0  0  0  0  0  0  0  0  0  0  0  0
  152.6411  139.3157  157.5249 H   0  0  0  0  0  0  0  0  0  0  0  0
  152.5579  138.3907  154.9138 H   0  0  0  0  0  0  0  0  0  0  0  0
  146.0055  137.9085  151.0926 H   0  0  0  0  0  0  0  0  0  0  0  0
  144.9165  137.8032  152.4659 H   0  0  0  0  0  0  0  0  0  0  0  0
  147.0030  135.8853  151.7619 H   0  0  0  0  0  0  0  0  0  0  0  0
  1  2  1  0  0  0  0
  1 21  1  0  0  0  0
  1 22  1  0  0  0  0
  1 23  1  0  0  0  0
  2  3  1  0  0  0  0
  2  4  1  0  0  0  0
  2 24  1  0  0  0  0
  3 25  1  0  0  0  0
  3 26  1  0  0  0  0
  3 27  1  0  0  0  0
  4  5  1  0  0  0  0
  4 28  1  0  0  0  0
  4 29  1  0  0  0  0
  5 20  1  0  0  0  0
  5  6  1  0  0  0  0
  5 45  1  0  0  0  0
  6  7  1  0  0  0  0
  6 30  1  0  0  0  0
  6 31  1  0  0  0  0
  7  8  1  0  0  0  0
  7 32  1  0  0  0  0
  7 33  1  0  0  0  0
  8  9  1  0  0  0  0
  9 10  1  0  0  0  0
  9 20  1  0  0  0  0
  9 34  1  0  0  0  0
 10 11  1  0  0  0  0
 10 35  1  0  0  0  0
 10 36  1  0  0  0  0
 11 12  1  0  0  0  0
 11 37  1  0  0  0  0
 12 13  2  0  0  0  0
 12 14  1  0  0  0  0
 14 15  1  0  0  0  0
 14 38  1  0  0  0  0
 14 39  1  0  0  0  0
 15 19  1  0  0  0  0
 15 16  1  0  0  0  0
 16 17  2  0  0  0  0
 16 40  1  0  0  0  0
 17 18  1  0  0  0  0
 17 41  1  0  0  0  0
 18 19  2  0  0  0  0
 18 42  1  0  0  0  0
 20 43  1  0  0  0  0
 20 44  1  0  0  0  0
M  CHG  1   5   1
M  END
> <s_m_source_file>
AV-unprocessed.smi

> <i_m_source_file_index>
1218

> <i_lp_mmshare_version>
43012

> <i_f3d_flags>
0

> <s_epik_input>
W0NIM11bQ0hdKFtDSDNdKVtDSDJdTjFbQ0gyXVtDSDJdT1tDQEhdKFtDSDJdMSlbQ0gyXVtOSF1DKD1PKVtDSDJdbjJbY0hdW2NIXVtjSF1uMg==

> <s_epik_cmdline>
J2VwaWtfcHl0aG9uJywgJy1waCcsICc3LjAnLCAnLXRuJywgJzgnLCAnLW1hJywgJzIwMCcsICctbWV0YWxfYmluZGluZycsICctaW1hZScsICc8aW5maWxlLm1hZT4nLCAnLW9tYWUnLCAnPG91dGZpbGUubWFlPic=

> <r_lp_tautomer_probability>
1

> <r_epik_Ionization_Penalty>
0.0995066

> <r_epik_Ionization_Penalty_Charging>
0.0994921

> <r_epik_Ionization_Penalty_Neutral>
1.44634e-05

> <r_epik_State_Penalty>
0.0895432

> <r_epik_Charging_Adjusted_Penalty>
0.189035

> <i_epik_Tot_Q>
1

> <i_epik_Tot_abs_Q>
1

> <r_epik_Metal_State_Penalty>
0.0895432

> <b_epik_Metal_Only>
0

> <s_lp_Force_Field>
OPLS_2005

> <r_lp_Energy>
17.6202

> <b_lp_Chiralities_Consistent>
1

> <s_lp_Variant>
AV-unprocessed.smi:1218-4

> <Gold.Version>
5.8.1

> <Gold.Id.Protein>
6NUR|6NUR_protein|mol2

> <Gold.PLP.Fitness>
43.3126

> <Gold.PLP.PLP>
-32.8723

> <Gold.PLP.part.hbond>
-3.0000

> <Gold.PLP.part.metal>
0.0000

> <Gold.PLP.part.buried>
-0.2627

> <Gold.PLP.part.nonpolar>
-30.6233

> <Gold.PLP.part.repulsive>
0.3599

> <Gold.PLP.ligand.clash>
0.0000

> <Gold.PLP.ligand.torsion>
0.8107

> <Gold.PLP.Chemscore.Hbond>
3.9840

> <Gold.PLP.Chemscore.CHOScore>
0.0000

> <Gold.PLP.Chemscore.Metal>
0.0000

> <Gold.Chemscore.Hbonds>
donor molecule, donor type, donor heavy atom, donor atom, acceptor molecule, acceptor atom, score
      L1  H     5    45       P1  7948  1.98
      L1  H    11    37       P1  7957  1.00
      P1  H  7989  7998       L1    19  0.90

> <Gold.PLP.Chemscore.Internal.Correction>
0.1098

> <Gold.Rescore>
     Score         DG    S(hbond)    S(metal)    S(lipo)     H(rot)  DE(clash)    DE(int)     intcor
     17.14     -18.64       2.76        0.00      76.58       1.96       0.60       0.91       ----

> <Gold.Chemscore.Fitness>
17.1391

> <Gold.Chemscore.DG>
-18.6422

> <Gold.Chemscore.ZeroCoef>
-5.4800

> <Gold.Chemscore.Hbond>
2.7624

> <Gold.Chemscore.Metal>
0.0000

> <Gold.Chemscore.Lipo>
76.5768

> <Gold.Chemscore.Internal_Hbond>
0.0000

> <Gold.Chemscore.DEClash>
0.5969

> <Gold.Chemscore.DEInternal>
0.9063

> <Gold.Chemscore.Rot>
1.9624

> <Gold.Chemscore.Internal.Correction>
   9.000000E+99

> <Gold.Chemscore.Hbonds>
donor molecule, donor type, donor heavy atom, donor atom, acceptor molecule, acceptor atom, score
      L1  H     5    45       P1  7948  0.92
      L1  H    11    37       P1  7957  0.94
      P1  H  7989  7998       L1    19  0.17

> <Gold.Chemscore.Hbond.Weighted>
-9.2265

> <Gold.Chemscore.Metal.Weighted>
-0.0000

> <Gold.Chemscore.Lipo.Weighted>
-8.9595

> <Gold.Chemscore.Internal_Hbond.Weighted>
0.0000

> <Gold.Chemscore.DEClash.Weighted>
0.5969

> <Gold.Chemscore.DEInternal.Weighted>
0.9063

> <Gold.Chemscore.Rot.Weighted>
5.0237

> <Gold.Chemscore.Internal.Correction.Weighted>
   9.000000E+99

> <Gold.Protein.RotatedTorsions>
[ 6907 6896 6895 6894 ] final   -4.60 input  -60.11 | X-H torsion
[ 7974 7965 7964 7962 ] final   89.58 input  175.53 | X-H torsion
[ 8008 7997 7996 7995 ] final  179.68 input   59.86 | X-H torsion
[ 10167 10162 10161 10158 ] final   41.79 input  -65.29 | X-H torsion
[ 10718 10713 10712 10709 ] final   78.27 input   66.30 | X-H torsion
[ 10763 10752 10751 10750 ] final   92.13 input  -60.55 | X-H torsion
[ 11005 11000 10999 10996 ] final   58.56 input  -57.11 | X-H torsion

> <Gold.Protein.ActiveResidues>
 VAL166  LYS551  ARG553  GLY616  TRP617  ASP618  TYR619  PRO620  LYS621  CYS622 
 ASP623  PHE694  ASN695  SER759  ASP760  ASP761  ALA762  ILE779  LEU786  VAL792 
 PHE793  MET794  SER795  GLU796  ALA797  LYS798  CYS799  TRP800  GLU811  SER814 

> <Gold.Protein.RotatedAtoms>
  151.4950  135.1059  159.9813 H   0  0  0  0  0  0  0  0  0  0  0  0  # atno 6907 bound_to 6896
  152.4725  133.8059  159.6988 H   0  0  0  0  0  0  0  0  0  0  0  0  # atno 6908 bound_to 6896
  150.8743  133.7398  159.2977 H   0  0  0  0  0  0  0  0  0  0  0  0  # atno 6909 bound_to 6896
  145.5304  139.2283  143.2622 H   0  0  0  0  0  0  0  0  0  0  0  0  # atno 7974 bound_to 7965
  156.0406  140.1302  157.0160 H   0  0  0  0  0  0  0  0  0  0  0  0  # atno 8008 bound_to 7997
  154.4389  140.1031  156.6302 H   0  0  0  0  0  0  0  0  0  0  0  0  # atno 8009 bound_to 7997
  155.5672  140.3466  155.4508 H   0  0  0  0  0  0  0  0  0  0  0  0  # atno 8010 bound_to 7997
  140.3608  144.2231  150.6138 H   0  0  0  0  0  0  0  0  0  0  0  0  # atno 10167 bound_to 10162
  157.6739  130.9860  150.1763 H   0  0  0  0  0  0  0  0  0  0  0  0  # atno 10718 bound_to 10713
  153.2157  135.4373  155.0432 H   0  0  0  0  0  0  0  0  0  0  0  0  # atno 10763 bound_to 10752
  154.8224  135.3344  154.7001 H   0  0  0  0  0  0  0  0  0  0  0  0  # atno 10764 bound_to 10752
  153.7436  135.7003  153.5017 H   0  0  0  0  0  0  0  0  0  0  0  0  # atno 10765 bound_to 10752
  140.0368  134.5931  155.9433 H   0  0  0  0  0  0  0  0  0  0  0  0  # atno 11005 bound_to 11000
  146.2048  140.6120  142.9086 LP  0  0  0  0  0  0  0  0  0  0  0  0  # atno 17320 bound_to 7965
  144.7629  140.5463  143.6723 LP  0  0  0  0  0  0  0  0  0  0  0  0  # atno 17321 bound_to 7965
  140.5129  143.2286  151.8508 LP  0  0  0  0  0  0  0  0  0  0  0  0  # atno 17342 bound_to 10162
  139.4814  144.4928  151.9162 LP  0  0  0  0  0  0  0  0  0  0  0  0  # atno 17343 bound_to 10162
  156.2505  130.3700  149.8237 LP  0  0  0  0  0  0  0  0  0  0  0  0  # atno 17370 bound_to 10713
  156.6011  130.8547  151.3432 LP  0  0  0  0  0  0  0  0  0  0  0  0  # atno 17371 bound_to 10713
  141.1862  133.6556  156.5229 LP  0  0  0  0  0  0  0  0  0  0  0  0  # atno 17394 bound_to 11000
  140.4134  134.7252  157.4849 LP  0  0  0  0  0  0  0  0  0  0  0  0  # atno 17395 bound_to 11000

$$$$
