AV-unprocessed.smi:2045|AV-procd|sdf|8308|dock9
  -GOLD-   2272010573D 1   1.00000     0.00000
 Structure written by MMmdl.
 39 40  0  0  0  0  0  0  0  0  2 V2000
  151.8660  139.0706  158.2673 C   0  0  0  0  0  0  0  0  0  0  0  0
  151.4874  139.2236  156.8340 C   0  0  0  0  0  0  0  0  0  0  0  0
  150.3487  138.9332  156.1364 C   0  0  0  0  0  0  0  0  0  0  0  0
  150.6741  139.3324  154.8130 C   0  0  0  0  0  0  0  0  0  0  0  0
  149.7355  139.1940  153.7586 N   0  0  0  0  0  0  0  0  0  0  0  0
  148.4505  138.8119  153.8530 C   0  0  0  0  0  0  0  0  0  0  0  0
  147.8692  138.5247  154.8999 O   0  0  0  0  0  0  0  0  0  0  0  0
  147.8600  138.7734  152.6495 N   0  0  0  0  0  0  0  0  0  0  0  0
  146.4704  138.3956  152.4182 C   0  0  0  0  0  0  0  0  0  0  0  0
  146.0865  137.1323  153.2141 C   0  0  0  0  0  0  0  0  0  0  0  0
  146.2047  135.8943  152.4035 N   0  3  0  0  0  0  0  0  0  0  0  0
  146.3743  134.6845  153.2507 C   0  0  0  0  0  0  0  0  0  0  0  0
  146.6291  133.4329  152.3936 C   0  0  0  0  0  0  0  0  0  0  0  0
  145.5036  133.2277  151.3718 C   0  0  0  0  0  0  0  0  0  0  0  0
  145.3234  134.4974  150.5306 C   0  0  0  0  0  0  0  0  0  0  0  0
  145.0934  135.7250  151.4282 C   0  0  0  0  0  0  0  0  0  0  0  0
  151.8999  139.8228  154.7116 N   0  0  0  0  0  0  0  0  0  0  0  0
  152.4278  139.7548  156.0064 O   0  0  0  0  0  0  0  0  0  0  0  0
  150.9906  138.8577  158.8811 H   0  0  0  0  0  0  0  0  0  0  0  0
  152.3292  139.9821  158.6452 H   0  0  0  0  0  0  0  0  0  0  0  0
  152.5750  138.2524  158.3935 H   0  0  0  0  0  0  0  0  0  0  0  0
  149.4329  138.5046  156.5156 H   0  0  0  0  0  0  0  0  0  0  0  0
  150.0822  139.4042  152.8344 H   0  0  0  0  0  0  0  0  0  0  0  0
  148.4065  139.0293  151.8398 H   0  0  0  0  0  0  0  0  0  0  0  0
  145.8277  139.2399  152.6690 H   0  0  0  0  0  0  0  0  0  0  0  0
  146.3417  138.2151  151.3507 H   0  0  0  0  0  0  0  0  0  0  0  0
  146.7527  137.0646  154.0756 H   0  0  0  0  0  0  0  0  0  0  0  0
  145.0747  137.2084  153.6149 H   0  0  0  0  0  0  0  0  0  0  0  0
  147.2140  134.8248  153.9325 H   0  0  0  0  0  0  0  0  0  0  0  0
  145.4851  134.5439  153.8676 H   0  0  0  0  0  0  0  0  0  0  0  0
  147.5831  133.5317  151.8740 H   0  0  0  0  0  0  0  0  0  0  0  0
  146.7149  132.5543  153.0337 H   0  0  0  0  0  0  0  0  0  0  0  0
  145.7277  132.3762  150.7287 H   0  0  0  0  0  0  0  0  0  0  0  0
  144.5729  132.9926  151.8898 H   0  0  0  0  0  0  0  0  0  0  0  0
  146.2070  134.6565  149.9108 H   0  0  0  0  0  0  0  0  0  0  0  0
  144.4840  134.3734  149.8459 H   0  0  0  0  0  0  0  0  0  0  0  0
  144.1492  135.6228  151.9658 H   0  0  0  0  0  0  0  0  0  0  0  0
  144.9999  136.6081  150.7971 H   0  0  0  0  0  0  0  0  0  0  0  0
  147.0566  135.9833  151.8684 H   0  0  0  0  0  0  0  0  0  0  0  0
  1  2  1  0  0  0  0
  1 19  1  0  0  0  0
  1 20  1  0  0  0  0
  1 21  1  0  0  0  0
  2 18  1  0  0  0  0
  2  3  2  0  0  0  0
  3  4  1  0  0  0  0
  3 22  1  0  0  0  0
  4  5  1  0  0  0  0
  4 17  2  0  0  0  0
  5  6  1  0  0  0  0
  5 23  1  0  0  0  0
  6  7  2  0  0  0  0
  6  8  1  0  0  0  0
  8  9  1  0  0  0  0
  8 24  1  0  0  0  0
  9 10  1  0  0  0  0
  9 25  1  0  0  0  0
  9 26  1  0  0  0  0
 10 11  1  0  0  0  0
 10 27  1  0  0  0  0
 10 28  1  0  0  0  0
 11 16  1  0  0  0  0
 11 12  1  0  0  0  0
 11 39  1  0  0  0  0
 12 13  1  0  0  0  0
 12 29  1  0  0  0  0
 12 30  1  0  0  0  0
 13 14  1  0  0  0  0
 13 31  1  0  0  0  0
 13 32  1  0  0  0  0
 14 15  1  0  0  0  0
 14 33  1  0  0  0  0
 14 34  1  0  0  0  0
 15 16  1  0  0  0  0
 15 35  1  0  0  0  0
 15 36  1  0  0  0  0
 16 37  1  0  0  0  0
 16 38  1  0  0  0  0
 17 18  1  0  0  0  0
M  CHG  1  11   1
M  END
> <s_m_source_file>
AV-unprocessed.smi

> <i_m_source_file_index>
2045

> <i_lp_mmshare_version>
43012

> <i_f3d_flags>
0

> <s_epik_input>
W0NIM11jMVtjSF1jKG5vMSlbTkhdQyg9TylbTkhdW0NIMl1bQ0gyXU4yW0NIMl1bQ0gyXVtDSDJdW0NIMl1bQ0gyXTI=

> <s_epik_cmdline>
J2VwaWtfcHl0aG9uJywgJy1waCcsICc3LjAnLCAnLXRuJywgJzgnLCAnLW1hJywgJzIwMCcsICctbWV0YWxfYmluZGluZycsICctaW1hZScsICc8aW5maWxlLm1hZT4nLCAnLW9tYWUnLCAnPG91dGZpbGUubWFlPic=

> <r_epik_Ionization_Penalty>
0.00265971

> <r_epik_Ionization_Penalty_Charging>
0.00262393

> <r_epik_Ionization_Penalty_Neutral>
3.57846e-05

> <r_epik_State_Penalty>
0.00182566

> <r_epik_Charging_Adjusted_Penalty>
0.00444959

> <i_epik_Tot_Q>
1

> <i_epik_Tot_abs_Q>
1

> <r_epik_Metal_State_Penalty>
0.0216344

> <b_epik_Metal_Only>
0

> <s_lp_Force_Field>
OPLS_2005

> <r_lp_Energy>
12.4185

> <b_lp_Chiralities_Consistent>
1

> <s_lp_Variant>
AV-unprocessed.smi:2045-1

> <Gold.Version>
5.8.1

> <Gold.Id.Protein>
6NUR|6NUR_protein|mol2

> <Gold.PLP.Fitness>
44.4908

> <Gold.PLP.PLP>
-27.9860

> <Gold.PLP.part.hbond>
-5.8180

> <Gold.PLP.part.metal>
0.0000

> <Gold.PLP.part.buried>
-2.0887

> <Gold.PLP.part.nonpolar>
-20.1328

> <Gold.PLP.part.repulsive>
0.3510

> <Gold.PLP.ligand.clash>
0.0000

> <Gold.PLP.ligand.torsion>
0.5271

> <Gold.PLP.Chemscore.Hbond>
5.8480

> <Gold.PLP.Chemscore.CHOScore>
0.0000

> <Gold.PLP.Chemscore.Metal>
0.0000

> <Gold.Chemscore.Hbonds>
donor molecule, donor type, donor heavy atom, donor atom, acceptor molecule, acceptor atom, score
      L1  H     5    23       P1  7957  0.91
      L1  H     8    24       P1  7957  0.99
      L1  H    11    39       P1  7948  1.98
      P1  H  7989  7998       L1    17  0.94
      P1  H  7997  8008       L1    18  1.00

> <Gold.PLP.Chemscore.Internal.Correction>
0.0151

> <Gold.Rescore>
     Score         DG    S(hbond)    S(metal)    S(lipo)     H(rot)  DE(clash)    DE(int)     intcor
     19.21     -22.54       4.62        0.00      48.54       1.58       0.00       3.33       ----

> <Gold.Chemscore.Fitness>
19.2140

> <Gold.Chemscore.DG>
-22.5410

> <Gold.Chemscore.ZeroCoef>
-5.4800

> <Gold.Chemscore.Hbond>
4.6211

> <Gold.Chemscore.Metal>
0.0000

> <Gold.Chemscore.Lipo>
48.5449

> <Gold.Chemscore.Internal_Hbond>
0.0000

> <Gold.Chemscore.DEClash>
0.0009

> <Gold.Chemscore.DEInternal>
3.3261

> <Gold.Chemscore.Rot>
1.5833

> <Gold.Chemscore.Internal.Correction>
   9.000000E+99

> <Gold.Chemscore.Hbonds>
donor molecule, donor type, donor heavy atom, donor atom, acceptor molecule, acceptor atom, score
      L1  H     5    23       P1  7957  0.83
      L1  H     8    24       P1  7957  0.89
      L1  H    11    39       P1  7948  0.94
      P1  H  7989  7998       L1    17  0.23
      P1  H  7997  8008       L1    18  0.89

> <Gold.Chemscore.Hbond.Weighted>
-15.4345

> <Gold.Chemscore.Metal.Weighted>
-0.0000

> <Gold.Chemscore.Lipo.Weighted>
-5.6798

> <Gold.Chemscore.Internal_Hbond.Weighted>
0.0000

> <Gold.Chemscore.DEClash.Weighted>
0.0009

> <Gold.Chemscore.DEInternal.Weighted>
3.3261

> <Gold.Chemscore.Rot.Weighted>
4.0532

> <Gold.Chemscore.Internal.Correction.Weighted>
   9.000000E+99

> <Gold.Protein.RotatedTorsions>
[ 6907 6896 6895 6894 ] final  -30.87 input  -60.11 | X-H torsion
[ 7974 7965 7964 7962 ] final -122.92 input  175.53 | X-H torsion
[ 8008 7997 7996 7995 ] final  -30.61 input   59.86 | X-H torsion
[ 10167 10162 10161 10158 ] final -134.59 input  -65.29 | X-H torsion
[ 10718 10713 10712 10709 ] final   87.02 input   66.30 | X-H torsion
[ 10763 10752 10751 10750 ] final  -38.45 input  -60.55 | X-H torsion
[ 11005 11000 10999 10996 ] final  -84.66 input  -57.11 | X-H torsion

> <Gold.Protein.ActiveResidues>
 VAL166  LYS551  ARG553  GLY616  TRP617  ASP618  TYR619  PRO620  LYS621  CYS622 
 ASP623  PHE694  ASN695  SER759  ASP760  ASP761  ALA762  ILE779  LEU786  VAL792 
 PHE793  MET794  SER795  GLU796  ALA797  LYS798  CYS799  TRP800  GLU811  SER814 

> <Gold.Protein.RotatedAtoms>
  151.0997  134.9965  159.8442 H   0  0  0  0  0  0  0  0  0  0  0  0  # atno 6907 bound_to 6896
  152.5436  134.1965  159.8705 H   0  0  0  0  0  0  0  0  0  0  0  0  # atno 6908 bound_to 6896
  151.2007  133.4568  159.2629 H   0  0  0  0  0  0  0  0  0  0  0  0  # atno 6909 bound_to 6896
  145.0243  140.8014  143.4362 H   0  0  0  0  0  0  0  0  0  0  0  0  # atno 7974 bound_to 7965
  154.4244  140.1786  156.1434 H   0  0  0  0  0  0  0  0  0  0  0  0  # atno 8008 bound_to 7997
  155.9973  140.3363  155.6786 H   0  0  0  0  0  0  0  0  0  0  0  0  # atno 8009 bound_to 7997
  155.6291  140.0668  157.2645 H   0  0  0  0  0  0  0  0  0  0  0  0  # atno 8010 bound_to 7997
  139.8865  143.6775  152.2619 H   0  0  0  0  0  0  0  0  0  0  0  0  # atno 10167 bound_to 10162
  157.6935  131.0239  150.3060 H   0  0  0  0  0  0  0  0  0  0  0  0  # atno 10718 bound_to 10713
  153.9130  135.6790  153.4750 H   0  0  0  0  0  0  0  0  0  0  0  0  # atno 10763 bound_to 10752
  153.1068  135.4801  154.8963 H   0  0  0  0  0  0  0  0  0  0  0  0  # atno 10764 bound_to 10752
  154.7517  135.3186  154.8500 H   0  0  0  0  0  0  0  0  0  0  0  0  # atno 10765 bound_to 10752
  141.1648  133.7357  156.8900 H   0  0  0  0  0  0  0  0  0  0  0  0  # atno 11005 bound_to 11000
  145.1855  139.2329  143.5270 LP  0  0  0  0  0  0  0  0  0  0  0  0  # atno 17320 bound_to 7965
  146.3490  140.1638  142.8590 LP  0  0  0  0  0  0  0  0  0  0  0  0  # atno 17321 bound_to 7965
  139.7148  144.7614  151.1052 LP  0  0  0  0  0  0  0  0  0  0  0  0  # atno 17342 bound_to 10162
  140.7735  143.5283  150.9453 LP  0  0  0  0  0  0  0  0  0  0  0  0  # atno 17343 bound_to 10162
  156.3568  130.3840  149.7283 LP  0  0  0  0  0  0  0  0  0  0  0  0  # atno 17370 bound_to 10713
  156.4743  130.8011  151.3028 LP  0  0  0  0  0  0  0  0  0  0  0  0  # atno 17371 bound_to 10713
  140.1655  134.9136  157.2768 LP  0  0  0  0  0  0  0  0  0  0  0  0  # atno 17394 bound_to 11000
  140.2562  134.3625  155.7423 LP  0  0  0  0  0  0  0  0  0  0  0  0  # atno 17395 bound_to 11000

$$$$
