AV-unprocessed.smi:638|AV-procd|sdf|3143|dock4
  -GOLD-   22720 0 73D 1   1.00000     0.00000
 Structure written by MMmdl.
 41 42  0  0  0  0  0  0  0  0  3 V2000
  148.6758  138.7209  158.3743 N   0  0  0  0  0  0  0  0  0  0  0  0
  148.5871  139.6798  157.7326 C   0  0  0  0  0  0  0  0  0  0  0  0
  148.4749  140.9039  156.9149 C   0  0  0  0  0  0  0  0  0  0  0  0
  149.4092  141.9239  157.4053 N   0  0  0  0  0  0  0  0  0  0  0  0
  150.7449  141.8213  157.5020 C   0  0  0  0  0  0  0  0  0  0  0  0
  151.3744  140.8179  157.1665 O   0  0  0  0  0  0  0  0  0  0  0  0
  151.4756  143.0604  158.0366 C   0  0  0  0  0  0  0  0  0  0  0  0
  152.1534  142.8171  159.3207 N   0  0  0  0  0  0  0  0  0  0  0  0
  153.1758  141.8478  159.3327 C   0  0  0  0  0  0  0  0  0  0  0  0
  153.8539  141.5370  160.4548 C   0  0  0  0  0  0  0  0  0  0  0  0
  154.8947  140.5325  160.4512 N   0  3  0  0  0  0  0  0  0  0  0  0
  155.5289  140.3389  161.4833 O   0  0  0  0  0  0  0  0  0  0  0  0
  155.1132  139.9051  159.4190 O   0  5  0  0  0  0  0  0  0  0  0  0
  153.5011  142.2408  161.6726 C   0  0  0  0  0  0  0  0  0  0  0  0
  152.5217  143.1663  161.6682 C   0  0  0  0  0  0  0  0  0  0  0  0
  151.7810  143.4985  160.4471 C   0  0  0  0  0  0  0  0  0  0  0  0
  150.8806  144.3381  160.4368 O   0  0  0  0  0  0  0  0  0  0  0  0
  148.7621  140.5347  155.4328 C   0  0  0  0  0  0  0  0  0  0  0  0
  148.8745  141.7225  154.4543 C   0  0  0  0  0  0  0  0  0  0  0  0
  147.5488  142.2149  153.8488 C   0  0  0  0  0  0  0  0  0  0  0  0
  146.3354  142.2758  154.7925 C   0  0  0  0  0  0  0  0  0  0  0  0
  146.6429  142.6567  156.2492 C   0  0  0  0  0  0  0  0  0  0  0  0
  147.0403  141.4417  157.1098 C   0  0  0  0  0  0  0  0  0  0  0  0
  148.9925  142.7938  157.7034 H   0  0  0  0  0  0  0  0  0  0  0  0
  152.1919  143.3829  157.2799 H   0  0  0  0  0  0  0  0  0  0  0  0
  150.7717  143.8893  158.1328 H   0  0  0  0  0  0  0  0  0  0  0  0
  153.3570  141.3757  158.3777 H   0  0  0  0  0  0  0  0  0  0  0  0
  154.0184  142.0304  162.5970 H   0  0  0  0  0  0  0  0  0  0  0  0
  152.2744  143.6780  162.5869 H   0  0  0  0  0  0  0  0  0  0  0  0
  149.7068  139.9910  155.3962 H   0  0  0  0  0  0  0  0  0  0  0  0
  148.0174  139.8252  155.0700 H   0  0  0  0  0  0  0  0  0  0  0  0
  149.3923  142.5598  154.9204 H   0  0  0  0  0  0  0  0  0  0  0  0
  149.5206  141.4269  153.6270 H   0  0  0  0  0  0  0  0  0  0  0  0
  147.7206  143.2058  153.4268 H   0  0  0  0  0  0  0  0  0  0  0  0
  147.2864  141.5811  153.0010 H   0  0  0  0  0  0  0  0  0  0  0  0
  145.6272  142.9952  154.3800 H   0  0  0  0  0  0  0  0  0  0  0  0
  145.8113  141.3194  154.7724 H   0  0  0  0  0  0  0  0  0  0  0  0
  147.3863  143.4528  156.3020 H   0  0  0  0  0  0  0  0  0  0  0  0
  145.7330  143.0758  156.6798 H   0  0  0  0  0  0  0  0  0  0  0  0
  146.3240  140.6363  156.9412 H   0  0  0  0  0  0  0  0  0  0  0  0
  146.9157  141.7129  158.1593 H   0  0  0  0  0  0  0  0  0  0  0  0
  1  2  3  0  0  0  0
  2  3  1  0  0  0  0
  3 23  1  0  0  0  0
  3  4  1  0  0  0  0
  3 18  1  0  0  0  0
  4  5  1  0  0  0  0
  4 24  1  0  0  0  0
  5  6  2  0  0  0  0
  5  7  1  0  0  0  0
  7  8  1  0  0  0  0
  7 25  1  0  0  0  0
  7 26  1  0  0  0  0
  8 16  1  0  0  0  0
  8  9  1  0  0  0  0
  9 10  2  0  0  0  0
  9 27  1  0  0  0  0
 10 11  1  0  0  0  0
 10 14  1  0  0  0  0
 11 12  2  0  0  0  0
 11 13  1  0  0  0  0
 14 15  2  0  0  0  0
 14 28  1  0  0  0  0
 15 16  1  0  0  0  0
 15 29  1  0  0  0  0
 16 17  2  0  0  0  0
 18 19  1  0  0  0  0
 18 30  1  0  0  0  0
 18 31  1  0  0  0  0
 19 20  1  0  0  0  0
 19 32  1  0  0  0  0
 19 33  1  0  0  0  0
 20 21  1  0  0  0  0
 20 34  1  0  0  0  0
 20 35  1  0  0  0  0
 21 22  1  0  0  0  0
 21 36  1  0  0  0  0
 21 37  1  0  0  0  0
 22 23  1  0  0  0  0
 22 38  1  0  0  0  0
 22 39  1  0  0  0  0
 23 40  1  0  0  0  0
 23 41  1  0  0  0  0
M  CHG  1  11   1
M  CHG  1  13  -1
M  END
> <s_m_source_file>
AV-unprocessed.smi

> <i_m_source_file_index>
638

> <i_lp_mmshare_version>
43012

> <i_f3d_flags>
0

> <s_epik_input>
W0NIMl0xW0NIMl1bQ0gyXVtDSDJdW0NIMl1bQ0gyXUMxKEMjTilbTkhdQyg9TylbQ0gyXW4yW2NIXWMoW04rXSg9TylbTy1dKVtjSF1bY0hdYzI9Tw==

> <s_epik_cmdline>
J2VwaWtfcHl0aG9uJywgJy1waCcsICc3LjAnLCAnLXRuJywgJzgnLCAnLW1hJywgJzIwMCcsICctbWV0YWxfYmluZGluZycsICctaW1hZScsICc8aW5maWxlLm1hZT4nLCAnLW9tYWUnLCAnPG91dGZpbGUubWFlPic=

> <r_lp_tautomer_probability>
1

> <r_epik_Ionization_Penalty>
4.51205e-07

> <r_epik_Ionization_Penalty_Charging>
6.24361e-11

> <r_epik_Ionization_Penalty_Neutral>
4.51142e-07

> <r_epik_State_Penalty>
-0

> <r_epik_Charging_Adjusted_Penalty>
6.24361e-11

> <i_epik_Tot_Q>
0

> <i_epik_Tot_abs_Q>
2

> <r_epik_Metal_State_Penalty>
-0

> <b_epik_Metal_Only>
0

> <s_lp_Force_Field>
OPLS_2005

> <r_lp_Energy>
29.2466

> <b_lp_Chiralities_Consistent>
1

> <s_lp_Variant>
AV-unprocessed.smi:638-1

> <Gold.Version>
5.8.1

> <Gold.Id.Protein>
6NUR|6NUR_protein|mol2

> <Gold.PLP.Fitness>
46.8229

> <Gold.PLP.PLP>
-43.9472

> <Gold.PLP.part.hbond>
-2.0000

> <Gold.PLP.part.metal>
0.0000

> <Gold.PLP.part.buried>
-4.9772

> <Gold.PLP.part.nonpolar>
-35.3874

> <Gold.PLP.part.repulsive>
0.1957

> <Gold.PLP.ligand.clash>
0.0000

> <Gold.PLP.ligand.torsion>
0.0490

> <Gold.PLP.Chemscore.Hbond>
0.9833

> <Gold.PLP.Chemscore.CHOScore>
0.0000

> <Gold.PLP.Chemscore.Metal>
0.0000

> <Gold.Chemscore.Hbonds>
donor molecule, donor type, donor heavy atom, donor atom, acceptor molecule, acceptor atom, score
      P1  H  7997  8009       L1    13  0.88

> <Gold.PLP.Chemscore.Internal.Correction>
0.0237

> <Gold.Rescore>
     Score         DG    S(hbond)    S(metal)    S(lipo)     H(rot)  DE(clash)    DE(int)     intcor
     11.90     -14.40       0.94        0.00      84.93       1.63       0.18       2.32       ----

> <Gold.Chemscore.Fitness>
11.8952

> <Gold.Chemscore.DG>
-14.4014

> <Gold.Chemscore.ZeroCoef>
-5.4800

> <Gold.Chemscore.Hbond>
0.9443

> <Gold.Chemscore.Metal>
0.0000

> <Gold.Chemscore.Lipo>
84.9307

> <Gold.Chemscore.Internal_Hbond>
0.0000

> <Gold.Chemscore.DEClash>
0.1850

> <Gold.Chemscore.DEInternal>
2.3213

> <Gold.Chemscore.Rot>
1.6287

> <Gold.Chemscore.Internal.Correction>
   9.000000E+99

> <Gold.Chemscore.Hbonds>
donor molecule, donor type, donor heavy atom, donor atom, acceptor molecule, acceptor atom, score
      P1  H  7997  8009       L1    13  0.82

> <Gold.Chemscore.Hbond.Weighted>
-3.1540

> <Gold.Chemscore.Metal.Weighted>
-0.0000

> <Gold.Chemscore.Lipo.Weighted>
-9.9369

> <Gold.Chemscore.Internal_Hbond.Weighted>
0.0000

> <Gold.Chemscore.DEClash.Weighted>
0.1850

> <Gold.Chemscore.DEInternal.Weighted>
2.3213

> <Gold.Chemscore.Rot.Weighted>
4.1694

> <Gold.Chemscore.Internal.Correction.Weighted>
   9.000000E+99

> <Gold.Protein.RotatedTorsions>
[ 6907 6896 6895 6894 ] final -134.97 input  -60.11 | X-H torsion
[ 7974 7965 7964 7962 ] final  -58.47 input  175.53 | X-H torsion
[ 8008 7997 7996 7995 ] final  100.50 input   59.86 | X-H torsion
[ 10167 10162 10161 10158 ] final  127.07 input  -65.29 | X-H torsion
[ 10718 10713 10712 10709 ] final   82.37 input   66.30 | X-H torsion
[ 10763 10752 10751 10750 ] final  155.54 input  -60.55 | X-H torsion
[ 11005 11000 10999 10996 ] final  -89.63 input  -57.11 | X-H torsion

> <Gold.Protein.ActiveResidues>
 VAL166  LYS551  ARG553  GLY616  TRP617  ASP618  TYR619  PRO620  LYS621  CYS622 
 ASP623  PHE694  ASN695  SER759  ASP760  ASP761  ALA762  ILE779  LEU786  VAL792 
 PHE793  MET794  SER795  GLU796  ALA797  LYS798  CYS799  TRP800  GLU811  SER814 

> <Gold.Protein.RotatedAtoms>
  150.9922  133.6138  159.2706 H   0  0  0  0  0  0  0  0  0  0  0  0  # atno 6907 bound_to 6896
  151.3354  135.0850  159.9363 H   0  0  0  0  0  0  0  0  0  0  0  0  # atno 6908 bound_to 6896
  152.5249  133.9544  159.7741 H   0  0  0  0  0  0  0  0  0  0  0  0  # atno 6909 bound_to 6896
  145.8389  140.8430  143.0045 H   0  0  0  0  0  0  0  0  0  0  0  0  # atno 7974 bound_to 7965
  156.1209  140.3212  155.8207 H   0  0  0  0  0  0  0  0  0  0  0  0  # atno 8008 bound_to 7997
  155.4506  140.0532  157.3018 H   0  0  0  0  0  0  0  0  0  0  0  0  # atno 8009 bound_to 7997
  154.4827  140.2059  155.9741 H   0  0  0  0  0  0  0  0  0  0  0  0  # atno 8010 bound_to 7997
  139.5597  144.6873  151.4078 H   0  0  0  0  0  0  0  0  0  0  0  0  # atno 10167 bound_to 10162
  157.6855  131.0045  150.2364 H   0  0  0  0  0  0  0  0  0  0  0  0  # atno 10718 bound_to 10713
  154.1699  135.2805  155.3084 H   0  0  0  0  0  0  0  0  0  0  0  0  # atno 10763 bound_to 10752
  154.6083  135.5507  153.7449 H   0  0  0  0  0  0  0  0  0  0  0  0  # atno 10764 bound_to 10752
  153.0167  135.6409  154.1840 H   0  0  0  0  0  0  0  0  0  0  0  0  # atno 10765 bound_to 10752
  141.1581  133.7642  156.9622 H   0  0  0  0  0  0  0  0  0  0  0  0  # atno 11005 bound_to 11000
  144.6735  140.0782  143.7470 LP  0  0  0  0  0  0  0  0  0  0  0  0  # atno 17320 bound_to 7965
  145.9488  139.2719  143.1225 LP  0  0  0  0  0  0  0  0  0  0  0  0  # atno 17321 bound_to 7965
  140.6875  143.7939  150.7207 LP  0  0  0  0  0  0  0  0  0  0  0  0  # atno 17342 bound_to 10162
  140.1411  143.4440  152.2193 LP  0  0  0  0  0  0  0  0  0  0  0  0  # atno 17343 bound_to 10162
  156.2987  130.3755  149.7771 LP  0  0  0  0  0  0  0  0  0  0  0  0  # atno 17370 bound_to 10713
  156.5408  130.8299  151.3268 LP  0  0  0  0  0  0  0  0  0  0  0  0  # atno 17371 bound_to 10713
  140.1185  134.9432  157.2169 LP  0  0  0  0  0  0  0  0  0  0  0  0  # atno 17394 bound_to 11000
  140.3102  134.3032  155.7268 LP  0  0  0  0  0  0  0  0  0  0  0  0  # atno 17395 bound_to 11000

$$$$
