AV-unprocessed.smi:739|AV-procd|sdf|3545|dock1
  -GOLD-   22720 0533D 1   1.00000     0.00000
 Structure written by MMmdl.
 33 35  0  0  0  0  0  0  0  0  2 V2000
  152.9188  139.7370  157.7027 O   0  0  0  0  0  0  0  0  0  0  0  0
  151.9061  140.6325  157.2854 C   0  0  1  0  0  0  0  0  0  0  0  0
  150.5331  139.9365  157.3659 C   0  0  0  0  0  0  0  0  0  0  0  0
  149.7273  140.1224  156.1523 N   0  0  0  0  0  0  0  0  0  0  0  0
  149.9741  139.7369  154.8709 C   0  0  0  0  0  0  0  0  0  0  0  0
  148.9212  140.1464  154.1096 N   0  3  0  0  0  0  0  0  0  0  0  0
  147.9893  140.8032  154.9169 C   0  0  0  0  0  0  0  0  0  0  0  0
  146.7675  141.3923  154.6074 C   0  0  0  0  0  0  0  0  0  0  0  0
  146.0585  141.9826  155.6746 C   0  0  0  0  0  0  0  0  0  0  0  0
  144.8628  142.5687  155.4294 F   0  0  0  0  0  0  0  0  0  0  0  0
  146.5700  141.9740  156.9900 C   0  0  0  0  0  0  0  0  0  0  0  0
  145.8570  142.5522  157.9854 F   0  0  0  0  0  0  0  0  0  0  0  0
  147.8106  141.3743  157.2913 C   0  0  0  0  0  0  0  0  0  0  0  0
  148.5024  140.7919  156.2307 C   0  0  0  0  0  0  0  0  0  0  0  0
  151.9153  141.9267  158.0832 C   0  0  0  0  0  0  0  0  0  0  0  0
  151.1311  143.0209  157.6585 C   0  0  0  0  0  0  0  0  0  0  0  0
  151.1268  144.2205  158.3967 C   0  0  0  0  0  0  0  0  0  0  0  0
  151.9041  144.3320  159.5655 C   0  0  0  0  0  0  0  0  0  0  0  0
  151.8991  145.4854  160.2746 F   0  0  0  0  0  0  0  0  0  0  0  0
  152.6851  143.2426  159.9967 C   0  0  0  0  0  0  0  0  0  0  0  0
  152.6906  142.0430  159.2584 C   0  0  0  0  0  0  0  0  0  0  0  0
  152.5155  138.9102  157.9204 H   0  0  0  0  0  0  0  0  0  0  0  0
  152.1190  140.8748  156.2435 H   0  0  0  0  0  0  0  0  0  0  0  0
  150.6576  138.8628  157.5145 H   0  0  0  0  0  0  0  0  0  0  0  0
  149.9596  140.3016  158.2191 H   0  0  0  0  0  0  0  0  0  0  0  0
  150.8483  139.2062  154.5215 H   0  0  0  0  0  0  0  0  0  0  0  0
  146.3728  141.4015  153.6020 H   0  0  0  0  0  0  0  0  0  0  0  0
  148.1936  141.3738  158.3009 H   0  0  0  0  0  0  0  0  0  0  0  0
  150.5287  142.9451  156.7650 H   0  0  0  0  0  0  0  0  0  0  0  0
  150.5259  145.0551  158.0666 H   0  0  0  0  0  0  0  0  0  0  0  0
  153.2793  143.3264  160.8946 H   0  0  0  0  0  0  0  0  0  0  0  0
  153.2905  141.2121  159.5997 H   0  0  0  0  0  0  0  0  0  0  0  0
  148.8485  139.9878  153.1126 H   0  0  0  0  0  0  0  0  0  0  0  0
  1  2  1  0  0  0  0
  1 22  1  0  0  0  0
  2  3  1  0  0  0  0
  2 15  1  0  0  0  0
  2 23  1  0  0  0  0
  3  4  1  0  0  0  0
  3 24  1  0  0  0  0
  3 25  1  0  0  0  0
  4 14  1  0  0  0  0
  4  5  1  0  0  0  0
  5  6  2  0  0  0  0
  5 26  1  0  0  0  0
  6  7  1  0  0  0  0
  6 33  1  0  0  0  0
  7 14  2  0  0  0  0
  7  8  1  0  0  0  0
  8  9  2  0  0  0  0
  8 27  1  0  0  0  0
  9 10  1  0  0  0  0
  9 11  1  0  0  0  0
 11 12  1  0  0  0  0
 11 13  2  0  0  0  0
 13 14  1  0  0  0  0
 13 28  1  0  0  0  0
 15 21  1  0  0  0  0
 15 16  2  0  0  0  0
 16 17  1  0  0  0  0
 16 29  1  0  0  0  0
 17 18  2  0  0  0  0
 17 30  1  0  0  0  0
 18 19  1  0  0  0  0
 18 20  1  0  0  0  0
 20 21  2  0  0  0  0
 20 31  1  0  0  0  0
 21 32  1  0  0  0  0
M  CHG  1   6   1
M  END
> <s_m_source_file>
AV-unprocessed.smi

> <i_m_source_file_index>
739

> <i_lp_mmshare_version>
43012

> <i_f3d_flags>
0

> <s_epik_input>
W2NIXTFbY0hdYyhGKVtjSF1bY0hdYzFbQ0BIXShbT0hdKVtDSDJdbihbY0hdbjIpYyhjMjMpW2NIXWMoRiljKEYpW2NIXTM=

> <s_epik_cmdline>
J2VwaWtfcHl0aG9uJywgJy1waCcsICc3LjAnLCAnLXRuJywgJzgnLCAnLW1hJywgJzIwMCcsICctbWV0YWxfYmluZGluZycsICctaW1hZScsICc8aW5maWxlLm1hZT4nLCAnLW9tYWUnLCAnPG91dGZpbGUubWFlPic=

> <r_epik_Ionization_Penalty>
2.16139

> <r_epik_Ionization_Penalty_Charging>
2.16138

> <r_epik_Ionization_Penalty_Neutral>
1.79538e-06

> <r_epik_State_Penalty>
2.30198

> <r_epik_Charging_Adjusted_Penalty>
4.46337

> <i_epik_Tot_Q>
1

> <i_epik_Tot_abs_Q>
1

> <r_epik_Metal_State_Penalty>
6.38245

> <b_epik_Metal_Only>
0

> <s_lp_Force_Field>
OPLS_2005

> <r_lp_Energy>
14.9103

> <b_lp_Chiralities_Consistent>
1

> <s_lp_Variant>
AV-unprocessed.smi:739-4

> <Gold.Version>
5.8.1

> <Gold.Id.Protein>
6NUR|6NUR_protein|mol2

> <Gold.PLP.Fitness>
52.6813

> <Gold.PLP.PLP>
-48.2756

> <Gold.PLP.part.hbond>
-2.0000

> <Gold.PLP.part.metal>
0.0000

> <Gold.PLP.part.buried>
-5.6069

> <Gold.PLP.part.nonpolar>
-41.0595

> <Gold.PLP.part.repulsive>
0.3937

> <Gold.PLP.ligand.clash>
0.0000

> <Gold.PLP.ligand.torsion>
0.8180

> <Gold.PLP.Chemscore.Hbond>
2.0000

> <Gold.PLP.Chemscore.CHOScore>
0.0000

> <Gold.PLP.Chemscore.Metal>
0.0000

> <Gold.Chemscore.Hbonds>
donor molecule, donor type, donor heavy atom, donor atom, acceptor molecule, acceptor atom, score
      L1  H     6    33       P1  7957  0.84
      P1  H  7997  8009       L1     1  1.00

> <Gold.PLP.Chemscore.Internal.Correction>
0.0418

> <Gold.Rescore>
     Score         DG    S(hbond)    S(metal)    S(lipo)     H(rot)  DE(clash)    DE(int)     intcor
     17.72     -18.62       1.88        0.00     105.05       2.12       0.13       0.77       ----

> <Gold.Chemscore.Fitness>
17.7161

> <Gold.Chemscore.DG>
-18.6158

> <Gold.Chemscore.ZeroCoef>
-5.4800

> <Gold.Chemscore.Hbond>
1.8760

> <Gold.Chemscore.Metal>
0.0000

> <Gold.Chemscore.Lipo>
105.0514

> <Gold.Chemscore.Internal_Hbond>
0.0000

> <Gold.Chemscore.DEClash>
0.1254

> <Gold.Chemscore.DEInternal>
0.7743

> <Gold.Chemscore.Rot>
2.1176

> <Gold.Chemscore.Internal.Correction>
   9.000000E+99

> <Gold.Chemscore.Hbonds>
donor molecule, donor type, donor heavy atom, donor atom, acceptor molecule, acceptor atom, score
      L1  H     6    33       P1  7957  0.80
      P1  H  7997  8009       L1     1  0.90

> <Gold.Chemscore.Hbond.Weighted>
-6.2659

> <Gold.Chemscore.Metal.Weighted>
-0.0000

> <Gold.Chemscore.Lipo.Weighted>
-12.2910

> <Gold.Chemscore.Internal_Hbond.Weighted>
0.0000

> <Gold.Chemscore.DEClash.Weighted>
0.1254

> <Gold.Chemscore.DEInternal.Weighted>
0.7743

> <Gold.Chemscore.Rot.Weighted>
5.4211

> <Gold.Chemscore.Internal.Correction.Weighted>
   9.000000E+99

> <Gold.Protein.RotatedTorsions>
[ 6907 6896 6895 6894 ] final -156.41 input  -60.11 | X-H torsion
[ 7974 7965 7964 7962 ] final  140.88 input  175.53 | X-H torsion
[ 8008 7997 7996 7995 ] final  155.25 input   59.86 | X-H torsion
[ 10167 10162 10161 10158 ] final -164.89 input  -65.29 | X-H torsion
[ 10718 10713 10712 10709 ] final -144.02 input   66.30 | X-H torsion
[ 10763 10752 10751 10750 ] final  -10.85 input  -60.55 | X-H torsion
[ 11005 11000 10999 10996 ] final   76.92 input  -57.11 | X-H torsion

> <Gold.Protein.ActiveResidues>
 VAL166  LYS551  ARG553  GLY616  TRP617  ASP618  TYR619  PRO620  LYS621  CYS622 
 ASP623  PHE694  ASN695  SER759  ASP760  ASP761  ALA762  ILE779  LEU786  VAL792 
 PHE793  MET794  SER795  GLU796  ALA797  LYS798  CYS799  TRP800  GLU811  SER814 

> <Gold.Protein.RotatedAtoms>
  151.2873  133.4182  159.2630 H   0  0  0  0  0  0  0  0  0  0  0  0  # atno 6907 bound_to 6896
  151.0308  134.9538  159.8120 H   0  0  0  0  0  0  0  0  0  0  0  0  # atno 6908 bound_to 6896
  152.5345  134.2834  159.9068 H   0  0  0  0  0  0  0  0  0  0  0  0  # atno 6909 bound_to 6896
  144.9146  139.5247  143.5692 H   0  0  0  0  0  0  0  0  0  0  0  0  # atno 7974 bound_to 7965
  156.2488  140.1944  156.6772 H   0  0  0  0  0  0  0  0  0  0  0  0  # atno 8008 bound_to 7997
  154.6349  140.0591  156.9802 H   0  0  0  0  0  0  0  0  0  0  0  0  # atno 8009 bound_to 7997
  155.1653  140.3263  155.4406 H   0  0  0  0  0  0  0  0  0  0  0  0  # atno 8010 bound_to 7997
  139.6219  144.0608  152.1940 H   0  0  0  0  0  0  0  0  0  0  0  0  # atno 10167 bound_to 10162
  156.3651  130.7758  151.1931 H   0  0  0  0  0  0  0  0  0  0  0  0  # atno 10718 bound_to 10713
  153.4752  135.7017  153.5970 H   0  0  0  0  0  0  0  0  0  0  0  0  # atno 10763 bound_to 10752
  153.4206  135.3826  155.2109 H   0  0  0  0  0  0  0  0  0  0  0  0  # atno 10764 bound_to 10752
  154.8724  135.3927  154.4195 H   0  0  0  0  0  0  0  0  0  0  0  0  # atno 10765 bound_to 10752
  139.9277  134.7640  156.1456 H   0  0  0  0  0  0  0  0  0  0  0  0  # atno 11005 bound_to 11000
  146.3175  139.7979  142.8971 LP  0  0  0  0  0  0  0  0  0  0  0  0  # atno 17320 bound_to 7965
  145.3397  141.0285  143.3399 LP  0  0  0  0  0  0  0  0  0  0  0  0  # atno 17321 bound_to 7965
  140.0252  144.6123  150.7534 LP  0  0  0  0  0  0  0  0  0  0  0  0  # atno 17342 bound_to 10162
  140.7387  143.2782  151.3678 LP  0  0  0  0  0  0  0  0  0  0  0  0  # atno 17343 bound_to 10162
  157.7478  131.0389  150.4523 LP  0  0  0  0  0  0  0  0  0  0  0  0  # atno 17370 bound_to 10713
  156.4741  130.4059  149.6500 LP  0  0  0  0  0  0  0  0  0  0  0  0  # atno 17371 bound_to 10713
  141.0845  133.6740  156.2407 LP  0  0  0  0  0  0  0  0  0  0  0  0  # atno 17394 bound_to 11000
  140.6290  134.5284  157.5557 LP  0  0  0  0  0  0  0  0  0  0  0  0  # atno 17395 bound_to 11000

$$$$
