AV-unprocessed.smi:671|AV-procd|sdf|3278|dock6
  -GOLD-   22720 0233D 1   1.00000     0.00000
 Structure written by MMmdl.
 49 50  0  0  0  0  0  0  0  0  1 V2000
  152.5803  138.4284  153.6950 C   0  0  0  0  0  0  0  0  0  0  0  0
  151.2737  138.6882  154.3890 C   0  0  0  0  0  0  0  0  0  0  0  0
  150.7022  139.8720  154.2455 N   0  0  0  0  0  0  0  0  0  0  0  0
  149.5712  139.8007  154.9743 N   0  0  0  0  0  0  0  0  0  0  0  0
  148.6914  140.9517  155.0345 C   0  0  0  0  0  0  0  0  0  0  0  0
  149.4274  138.5690  155.5817 C   0  0  0  0  0  0  0  0  0  0  0  0
  148.2523  138.2433  156.4469 C   0  0  0  0  0  0  0  0  0  0  0  0
  150.5161  137.8172  155.2288 C   0  0  0  0  0  0  0  0  0  0  0  0
  150.8376  136.3993  155.6325 C   0  0  0  0  0  0  0  0  0  0  0  0
  151.0743  135.4765  154.4204 C   0  0  1  0  0  0  0  0  0  0  0  0
  151.5544  134.0857  154.8574 C   0  0  0  0  0  0  0  0  0  0  0  0
  149.8412  135.3303  153.6394 N   0  0  0  0  0  0  0  0  0  0  0  0
  148.8348  134.4485  153.7808 C   0  0  0  0  0  0  0  0  0  0  0  0
  148.8447  133.5991  154.6696 O   0  0  0  0  0  0  0  0  0  0  0  0
  147.8339  134.5765  152.8948 N   0  0  0  0  0  0  0  0  0  0  0  0
  146.6508  133.7182  152.8331 C   0  0  2  0  0  0  0  0  0  0  0  0
  146.8458  132.5847  151.8020 C   0  0  0  0  0  0  0  0  0  0  0  0
  145.7618  132.7674  150.7332 C   0  0  0  0  0  0  0  0  0  0  0  0
  145.3063  134.2179  150.8693 C   0  0  0  0  0  0  0  0  0  0  0  0
  145.3938  134.4873  152.3718 C   0  0  2  0  0  0  0  0  0  0  0  0
  145.3263  135.9765  152.7439 C   0  0  0  0  0  0  0  0  0  0  0  0
  153.3995  138.9338  154.2068 H   0  0  0  0  0  0  0  0  0  0  0  0
  152.5591  138.7870  152.6654 H   0  0  0  0  0  0  0  0  0  0  0  0
  152.8156  137.3648  153.6665 H   0  0  0  0  0  0  0  0  0  0  0  0
  148.4145  141.1513  156.0700 H   0  0  0  0  0  0  0  0  0  0  0  0
  147.7894  140.7522  154.4557 H   0  0  0  0  0  0  0  0  0  0  0  0
  149.1864  141.8355  154.6297 H   0  0  0  0  0  0  0  0  0  0  0  0
  148.3065  137.2223  156.8241 H   0  0  0  0  0  0  0  0  0  0  0  0
  147.3212  138.3447  155.8891 H   0  0  0  0  0  0  0  0  0  0  0  0
  148.2054  138.9118  157.3065 H   0  0  0  0  0  0  0  0  0  0  0  0
  151.7262  136.3878  156.2641 H   0  0  0  0  0  0  0  0  0  0  0  0
  150.0477  135.9830  156.2583 H   0  0  0  0  0  0  0  0  0  0  0  0
  151.8790  135.9064  153.8227 H   0  0  0  0  0  0  0  0  0  0  0  0
  152.4862  134.1505  155.4201 H   0  0  0  0  0  0  0  0  0  0  0  0
  151.7373  133.4448  153.9941 H   0  0  0  0  0  0  0  0  0  0  0  0
  150.8170  133.5904  155.4903 H   0  0  0  0  0  0  0  0  0  0  0  0
  149.7169  136.0170  152.9097 H   0  0  0  0  0  0  0  0  0  0  0  0
  147.9002  135.3114  152.2059 H   0  0  0  0  0  0  0  0  0  0  0  0
  146.4646  133.3030  153.8257 H   0  0  0  0  0  0  0  0  0  0  0  0
  147.8325  132.6355  151.3389 H   0  0  0  0  0  0  0  0  0  0  0  0
  146.7680  131.6031  152.2705 H   0  0  0  0  0  0  0  0  0  0  0  0
  146.1204  132.5352  149.7300 H   0  0  0  0  0  0  0  0  0  0  0  0
  144.9240  132.1018  150.9460 H   0  0  0  0  0  0  0  0  0  0  0  0
  145.9914  134.8727  150.3287 H   0  0  0  0  0  0  0  0  0  0  0  0
  144.3040  134.3796  150.4711 H   0  0  0  0  0  0  0  0  0  0  0  0
  144.5346  133.9981  152.8340 H   0  0  0  0  0  0  0  0  0  0  0  0
  146.1156  136.5494  152.2580 H   0  0  0  0  0  0  0  0  0  0  0  0
  145.4239  136.1108  153.8211 H   0  0  0  0  0  0  0  0  0  0  0  0
  144.3734  136.4113  152.4418 H   0  0  0  0  0  0  0  0  0  0  0  0
  1  2  1  0  0  0  0
  1 22  1  0  0  0  0
  1 23  1  0  0  0  0
  1 24  1  0  0  0  0
  2  8  1  0  0  0  0
  2  3  2  0  0  0  0
  3  4  1  0  0  0  0
  4  5  1  0  0  0  0
  4  6  1  0  0  0  0
  5 25  1  0  0  0  0
  5 26  1  0  0  0  0
  5 27  1  0  0  0  0
  6  7  1  0  0  0  0
  6  8  2  0  0  0  0
  7 28  1  0  0  0  0
  7 29  1  0  0  0  0
  7 30  1  0  0  0  0
  8  9  1  0  0  0  0
  9 10  1  0  0  0  0
  9 31  1  0  0  0  0
  9 32  1  0  0  0  0
 10 11  1  0  0  0  0
 10 12  1  0  0  0  0
 10 33  1  0  0  0  0
 11 34  1  0  0  0  0
 11 35  1  0  0  0  0
 11 36  1  0  0  0  0
 12 13  1  0  0  0  0
 12 37  1  0  0  0  0
 13 14  2  0  0  0  0
 13 15  1  0  0  0  0
 15 16  1  0  0  0  0
 15 38  1  0  0  0  0
 16 20  1  0  0  0  0
 16 17  1  0  0  0  0
 16 39  1  0  0  0  0
 17 18  1  0  0  0  0
 17 40  1  0  0  0  0
 17 41  1  0  0  0  0
 18 19  1  0  0  0  0
 18 42  1  0  0  0  0
 18 43  1  0  0  0  0
 19 20  1  0  0  0  0
 19 44  1  0  0  0  0
 19 45  1  0  0  0  0
 20 21  1  0  0  0  0
 20 46  1  0  0  0  0
 21 47  1  0  0  0  0
 21 48  1  0  0  0  0
 21 49  1  0  0  0  0
M  END
> <s_m_source_file>
AV-unprocessed.smi

> <i_m_source_file_index>
671

> <i_lp_mmshare_version>
43012

> <i_f3d_flags>
0

> <s_epik_input>
W0NIM11jMW5uKFtDSDNdKWMoW0NIM10pYzFbQ0gyXVtDQEhdKFtDSDNdKVtOSF1DKD1PKVtOSF1bQ0BASF0yW0NIMl1bQ0gyXVtDSDJdW0NASF0yW0NIM10=

> <s_epik_cmdline>
J2VwaWtfcHl0aG9uJywgJy1waCcsICc3LjAnLCAnLXRuJywgJzgnLCAnLW1hJywgJzIwMCcsICctbWV0YWxfYmluZGluZycsICctaW1hZScsICc8aW5maWxlLm1hZT4nLCAnLW9tYWUnLCAnPG91dGZpbGUubWFlPic=

> <r_lp_tautomer_probability>
1

> <r_epik_Ionization_Penalty>
0.0126855

> <r_epik_Ionization_Penalty_Charging>
0

> <r_epik_Ionization_Penalty_Neutral>
0.0126855

> <r_epik_State_Penalty>
0.00977547

> <r_epik_Charging_Adjusted_Penalty>
0.00977547

> <i_epik_Tot_Q>
0

> <i_epik_Tot_abs_Q>
0

> <r_epik_Metal_State_Penalty>
0.00957132

> <b_epik_Metal_Only>
0

> <s_lp_Force_Field>
OPLS_2005

> <r_lp_Energy>
22.0359

> <b_lp_Chiralities_Consistent>
1

> <s_lp_Variant>
AV-unprocessed.smi:671-6

> <Gold.Version>
5.8.1

> <Gold.Id.Protein>
6NUR|6NUR_protein|mol2

> <Gold.PLP.Fitness>
39.0482

> <Gold.PLP.PLP>
-31.5901

> <Gold.PLP.part.hbond>
-3.0000

> <Gold.PLP.part.metal>
0.0000

> <Gold.PLP.part.buried>
-2.1379

> <Gold.PLP.part.nonpolar>
-26.1066

> <Gold.PLP.part.repulsive>
0.7625

> <Gold.PLP.ligand.clash>
0.0000

> <Gold.PLP.ligand.torsion>
0.7575

> <Gold.PLP.Chemscore.Hbond>
2.9840

> <Gold.PLP.Chemscore.CHOScore>
0.0000

> <Gold.PLP.Chemscore.Metal>
0.0000

> <Gold.Chemscore.Hbonds>
donor molecule, donor type, donor heavy atom, donor atom, acceptor molecule, acceptor atom, score
      L1  H    12    37       P1  7948  0.09
      L1  H    15    38       P1  7948  0.45
      P1  H  7989  7998       L1     3  1.00

> <Gold.PLP.Chemscore.Internal.Correction>
0.0211

> <Gold.Rescore>
     Score         DG    S(hbond)    S(metal)    S(lipo)     H(rot)  DE(clash)    DE(int)     intcor
     16.97     -19.00       2.70        0.00      70.09       1.45       0.03       2.00       ----

> <Gold.Chemscore.Fitness>
16.9745

> <Gold.Chemscore.DG>
-18.9999

> <Gold.Chemscore.ZeroCoef>
-5.4800

> <Gold.Chemscore.Hbond>
2.7038

> <Gold.Chemscore.Metal>
0.0000

> <Gold.Chemscore.Lipo>
70.0943

> <Gold.Chemscore.Internal_Hbond>
0.0000

> <Gold.Chemscore.DEClash>
0.0300

> <Gold.Chemscore.DEInternal>
1.9953

> <Gold.Chemscore.Rot>
1.4499

> <Gold.Chemscore.Internal.Correction>
   9.000000E+99

> <Gold.Chemscore.Hbonds>
donor molecule, donor type, donor heavy atom, donor atom, acceptor molecule, acceptor atom, score
      L1  H    15    38       P1  7948  0.44
      P1  H  7989  7998       L1     3  0.78

> <Gold.Chemscore.Hbond.Weighted>
-9.0307

> <Gold.Chemscore.Metal.Weighted>
-0.0000

> <Gold.Chemscore.Lipo.Weighted>
-8.2010

> <Gold.Chemscore.Internal_Hbond.Weighted>
0.0000

> <Gold.Chemscore.DEClash.Weighted>
0.0300

> <Gold.Chemscore.DEInternal.Weighted>
1.9953

> <Gold.Chemscore.Rot.Weighted>
3.7118

> <Gold.Chemscore.Internal.Correction.Weighted>
   9.000000E+99

> <Gold.Protein.RotatedTorsions>
[ 6907 6896 6895 6894 ] final   93.65 input  -60.11 | X-H torsion
[ 7974 7965 7964 7962 ] final  157.79 input  175.53 | X-H torsion
[ 8008 7997 7996 7995 ] final  -83.22 input   59.86 | X-H torsion
[ 10167 10162 10161 10158 ] final  177.83 input  -65.29 | X-H torsion
[ 10718 10713 10712 10709 ] final  102.73 input   66.30 | X-H torsion
[ 10763 10752 10751 10750 ] final  -44.33 input  -60.55 | X-H torsion
[ 11005 11000 10999 10996 ] final -173.59 input  -57.11 | X-H torsion

> <Gold.Protein.ActiveResidues>
 VAL166  LYS551  ARG553  GLY616  TRP617  ASP618  TYR619  PRO620  LYS621  CYS622 
 ASP623  PHE694  ASN695  SER759  ASP760  ASP761  ALA762  ILE779  LEU786  VAL792 
 PHE793  MET794  SER795  GLU796  ALA797  LYS798  CYS799  TRP800  GLU811  SER814 

> <Gold.Protein.RotatedAtoms>
  152.5452  134.1314  159.8440 H   0  0  0  0  0  0  0  0  0  0  0  0  # atno 6907 bound_to 6896
  151.1360  133.4997  159.2605 H   0  0  0  0  0  0  0  0  0  0  0  0  # atno 6908 bound_to 6896
  151.1624  135.0290  159.8771 H   0  0  0  0  0  0  0  0  0  0  0  0  # atno 6909 bound_to 6896
  144.7883  139.7389  143.6232 H   0  0  0  0  0  0  0  0  0  0  0  0  # atno 7974 bound_to 7965
  154.6168  140.0622  156.9564 H   0  0  0  0  0  0  0  0  0  0  0  0  # atno 8008 bound_to 7997
  155.1883  140.3305  155.4344 H   0  0  0  0  0  0  0  0  0  0  0  0  # atno 8009 bound_to 7997
  156.2408  140.1885  156.6975 H   0  0  0  0  0  0  0  0  0  0  0  0  # atno 8010 bound_to 7997
  139.5269  144.2752  152.0594 H   0  0  0  0  0  0  0  0  0  0  0  0  # atno 10167 bound_to 10162
  157.6793  131.0760  150.5448 H   0  0  0  0  0  0  0  0  0  0  0  0  # atno 10718 bound_to 10713
  154.0102  135.6682  153.4765 H   0  0  0  0  0  0  0  0  0  0  0  0  # atno 10763 bound_to 10752
  153.0624  135.5020  154.8119 H   0  0  0  0  0  0  0  0  0  0  0  0  # atno 10764 bound_to 10752
  154.7000  135.3077  154.9319 H   0  0  0  0  0  0  0  0  0  0  0  0  # atno 10765 bound_to 10752
  140.4840  134.6048  157.4930 H   0  0  0  0  0  0  0  0  0  0  0  0  # atno 11005 bound_to 11000
  146.2124  139.5490  142.9672 LP  0  0  0  0  0  0  0  0  0  0  0  0  # atno 17320 bound_to 7965
  145.5863  141.0376  143.2095 LP  0  0  0  0  0  0  0  0  0  0  0  0  # atno 17321 bound_to 7965
  140.2210  144.4466  150.6342 LP  0  0  0  0  0  0  0  0  0  0  0  0  # atno 17342 bound_to 10162
  140.6419  143.2205  151.6272 LP  0  0  0  0  0  0  0  0  0  0  0  0  # atno 17343 bound_to 10162
  156.5754  130.4290  149.6001 LP  0  0  0  0  0  0  0  0  0  0  0  0  # atno 17370 bound_to 10713
  156.2705  130.7014  151.1810 LP  0  0  0  0  0  0  0  0  0  0  0  0  # atno 17371 bound_to 10713
  139.9809  134.7139  155.9862 LP  0  0  0  0  0  0  0  0  0  0  0  0  # atno 17394 bound_to 11000
  141.1517  133.6547  156.4034 LP  0  0  0  0  0  0  0  0  0  0  0  0  # atno 17395 bound_to 11000

$$$$
