AV-unprocessed.smi:189|AV-procd|sdf|1481|dock2
  -GOLD-   2262019303D 1   1.00000     0.00000
 Structure written by MMmdl.
 53 57  0  0  0  0  0  0  0  0  1 V2000
  151.3483  138.3343  154.7847 C   0  0  0  0  0  0  0  0  0  0  0  0
  150.6608  139.6529  155.1895 C   0  0  2  0  0  0  0  0  0  0  0  0
  151.6113  140.7742  155.6268 C   0  0  0  0  0  0  0  0  0  0  0  0
  150.6790  141.7552  156.3528 C   0  0  2  0  0  0  0  0  0  0  0  0
  151.2527  142.3683  157.6424 C   0  0  0  0  0  0  0  0  0  0  0  0
  150.2178  143.2489  158.3760 C   0  0  0  0  0  0  0  0  0  0  0  0
  148.7683  142.7159  158.2942 C   0  0  0  0  0  0  0  0  0  0  0  0
  148.7132  141.2149  157.9742 C   0  0  0  0  0  0  0  0  0  0  0  0
  149.3857  140.9464  156.6035 C   0  0  2  0  0  0  0  0  0  0  0  0
  149.6587  139.5487  156.2515 N   0  0  0  0  0  0  0  0  0  0  0  0
  149.9204  138.6785  157.2600 C   0  0  0  0  0  0  0  0  0  0  0  0
  151.1972  138.4123  157.6455 N   0  0  0  0  0  0  0  0  0  0  0  0
  151.4312  137.5524  158.6408 C   0  0  0  0  0  0  0  0  0  0  0  0
  150.5527  136.8583  159.3672 N   0  0  0  0  0  0  0  0  0  0  0  0
  149.2718  137.1163  158.9756 C   0  0  0  0  0  0  0  0  0  0  0  0
  148.8718  138.0090  157.9426 C   0  0  0  0  0  0  0  0  0  0  0  0
  147.4877  138.0228  157.8315 N   0  0  0  0  0  0  0  0  0  0  0  0
  147.0901  137.1834  158.7485 C   0  0  0  0  0  0  0  0  0  0  0  0
  148.0955  136.5845  159.4749 N   0  0  0  0  0  0  0  0  0  0  0  0
  147.9363  135.6166  160.5488 C   0  0  0  0  0  0  0  0  0  0  0  0
  147.0768  136.1268  161.7338 C   0  0  1  0  0  0  0  0  0  0  0  0
  147.4088  137.4711  162.0242 O   0  0  0  0  0  0  0  0  0  0  0  0
  145.5875  136.0239  161.4468 C   0  0  0  0  0  0  0  0  0  0  0  0
  145.2545  134.5903  161.8575 C   0  0  0  0  0  0  0  0  0  0  0  0
  146.2371  134.2131  162.8184 O   0  0  0  0  0  0  0  0  0  0  0  0
  147.1743  135.2685  163.0005 C   0  0  0  0  0  0  0  0  0  0  0  0
  152.0007  138.4914  153.9257 H   0  0  0  0  0  0  0  0  0  0  0  0
  150.6131  137.5787  154.5059 H   0  0  0  0  0  0  0  0  0  0  0  0
  151.9632  137.9260  155.5870 H   0  0  0  0  0  0  0  0  0  0  0  0
  150.1184  140.0034  154.3097 H   0  0  0  0  0  0  0  0  0  0  0  0
  152.3727  140.3887  156.3056 H   0  0  0  0  0  0  0  0  0  0  0  0
  152.1265  141.2331  154.7827 H   0  0  0  0  0  0  0  0  0  0  0  0
  150.4357  142.5714  155.6708 H   0  0  0  0  0  0  0  0  0  0  0  0
  151.5685  141.5667  158.3106 H   0  0  0  0  0  0  0  0  0  0  0  0
  152.1499  142.9481  157.4241 H   0  0  0  0  0  0  0  0  0  0  0  0
  150.5176  143.3404  159.4204 H   0  0  0  0  0  0  0  0  0  0  0  0
  150.2421  144.2605  157.9697 H   0  0  0  0  0  0  0  0  0  0  0  0
  148.2418  142.9260  159.2257 H   0  0  0  0  0  0  0  0  0  0  0  0
  148.2305  143.2578  157.5152 H   0  0  0  0  0  0  0  0  0  0  0  0
  149.2082  140.6852  158.7874 H   0  0  0  0  0  0  0  0  0  0  0  0
  147.6814  140.8626  157.9594 H   0  0  0  0  0  0  0  0  0  0  0  0
  148.6671  141.2797  155.8529 H   0  0  0  0  0  0  0  0  0  0  0  0
  152.4704  137.3980  158.8901 H   0  0  0  0  0  0  0  0  0  0  0  0
  146.0443  136.9708  158.9174 H   0  0  0  0  0  0  0  0  0  0  0  0
  147.4953  134.7121  160.1275 H   0  0  0  0  0  0  0  0  0  0  0  0
  148.9314  135.3343  160.8949 H   0  0  0  0  0  0  0  0  0  0  0  0
  147.0822  137.6828  162.8852 H   0  0  0  0  0  0  0  0  0  0  0  0
  145.0289  136.7128  162.0832 H   0  0  0  0  0  0  0  0  0  0  0  0
  145.3252  136.2441  160.4113 H   0  0  0  0  0  0  0  0  0  0  0  0
  144.2484  134.5067  162.2691 H   0  0  0  0  0  0  0  0  0  0  0  0
  145.3262  133.9169  161.0028 H   0  0  0  0  0  0  0  0  0  0  0  0
  148.1744  134.8925  163.2118 H   0  0  0  0  0  0  0  0  0  0  0  0
  146.8535  135.8407  163.8727 H   0  0  0  0  0  0  0  0  0  0  0  0
  1  2  1  0  0  0  0
  1 27  1  0  0  0  0
  1 28  1  0  0  0  0
  1 29  1  0  0  0  0
  2 10  1  0  0  0  0
  2  3  1  0  0  0  0
  2 30  1  0  0  0  0
  3  4  1  0  0  0  0
  3 31  1  0  0  0  0
  3 32  1  0  0  0  0
  4  9  1  0  0  0  0
  4  5  1  0  0  0  0
  4 33  1  0  0  0  0
  5  6  1  0  0  0  0
  5 34  1  0  0  0  0
  5 35  1  0  0  0  0
  6  7  1  0  0  0  0
  6 36  1  0  0  0  0
  6 37  1  0  0  0  0
  7  8  1  0  0  0  0
  7 38  1  0  0  0  0
  7 39  1  0  0  0  0
  8  9  1  0  0  0  0
  8 40  1  0  0  0  0
  8 41  1  0  0  0  0
  9 10  1  0  0  0  0
  9 42  1  0  0  0  0
 10 11  1  0  0  0  0
 11 16  1  0  0  0  0
 11 12  2  0  0  0  0
 12 13  1  0  0  0  0
 13 14  2  0  0  0  0
 13 43  1  0  0  0  0
 14 15  1  0  0  0  0
 15 19  1  0  0  0  0
 15 16  2  0  0  0  0
 16 17  1  0  0  0  0
 17 18  2  0  0  0  0
 18 19  1  0  0  0  0
 18 44  1  0  0  0  0
 19 20  1  0  0  0  0
 20 21  1  0  0  0  0
 20 45  1  0  0  0  0
 20 46  1  0  0  0  0
 21 26  1  0  0  0  0
 21 22  1  0  0  0  0
 21 23  1  0  0  0  0
 22 47  1  0  0  0  0
 23 24  1  0  0  0  0
 23 48  1  0  0  0  0
 23 49  1  0  0  0  0
 24 25  1  0  0  0  0
 24 50  1  0  0  0  0
 24 51  1  0  0  0  0
 25 26  1  0  0  0  0
 26 52  1  0  0  0  0
 26 53  1  0  0  0  0
M  END
> <s_m_source_file>
AV-unprocessed.smi

> <i_m_source_file_index>
189

> <i_lp_mmshare_version>
43012

> <i_f3d_flags>
0

> <s_epik_input>
W0NIMl0xW0NIMl1bQ0gyXVtDSDJdW0NASF0oW0NASF0xMilOKFtDQEhdKFtDSDNdKVtDSDJdMiljKG5bY0hdbjMpYyhjMzQpbltjSF1uNFtDSDJdW0NAQF01KFtPSF0pW0NIMl1bQ0gyXU9bQ0gyXTU=

> <s_epik_cmdline>
J2VwaWtfcHl0aG9uJywgJy1waCcsICc3LjAnLCAnLXRuJywgJzgnLCAnLW1hJywgJzIwMCcsICctbWV0YWxfYmluZGluZycsICctaW1hZScsICc8aW5maWxlLm1hZT4nLCAnLW9tYWUnLCAnPG91dGZpbGUubWFlPic=

> <r_lp_tautomer_probability>
1

> <r_epik_Ionization_Penalty>
0.00594261

> <r_epik_Ionization_Penalty_Charging>
0

> <r_epik_Ionization_Penalty_Neutral>
0.00594261

> <r_epik_State_Penalty>
0.00429776

> <r_epik_Charging_Adjusted_Penalty>
0.00429776

> <i_epik_Tot_Q>
0

> <i_epik_Tot_abs_Q>
0

> <r_epik_Metal_State_Penalty>
-0

> <b_epik_Metal_Only>
0

> <s_lp_Force_Field>
OPLS_2005

> <r_lp_Energy>
68.3564

> <b_lp_Chiralities_Consistent>
1

> <s_lp_Variant>
AV-unprocessed.smi:189-7

> <Gold.Version>
5.8.1

> <Gold.Id.Protein>
6NUR|6NUR_protein|mol2

> <Gold.PLP.Fitness>
45.0936

> <Gold.PLP.PLP>
-39.7986

> <Gold.PLP.part.hbond>
-3.9454

> <Gold.PLP.part.metal>
0.0000

> <Gold.PLP.part.buried>
-4.1766

> <Gold.PLP.part.nonpolar>
-30.8569

> <Gold.PLP.part.repulsive>
0.0071

> <Gold.PLP.ligand.clash>
0.0000

> <Gold.PLP.ligand.torsion>
0.9643

> <Gold.PLP.Chemscore.Hbond>
2.3920

> <Gold.PLP.Chemscore.CHOScore>
0.0000

> <Gold.PLP.Chemscore.Metal>
0.0000

> <Gold.Chemscore.Hbonds>
donor molecule, donor type, donor heavy atom, donor atom, acceptor molecule, acceptor atom, score
      P1  H  6896  6907       L1    14  1.00
      P1  H  6931  6943       L1    22  0.75
      P1  H  6934  6947       L1    22  0.62

> <Gold.PLP.Chemscore.Internal.Correction>
0.0476

> <Gold.Rescore>
     Score         DG    S(hbond)    S(metal)    S(lipo)     H(rot)  DE(clash)    DE(int)     intcor
     14.64     -17.04       1.82        0.00      91.26       2.03       0.29       2.11       ----

> <Gold.Chemscore.Fitness>
14.6375

> <Gold.Chemscore.DG>
-17.0416

> <Gold.Chemscore.ZeroCoef>
-5.4800

> <Gold.Chemscore.Hbond>
1.8205

> <Gold.Chemscore.Metal>
0.0000

> <Gold.Chemscore.Lipo>
91.2577

> <Gold.Chemscore.Internal_Hbond>
0.0000

> <Gold.Chemscore.DEClash>
0.2899

> <Gold.Chemscore.DEInternal>
2.1141

> <Gold.Chemscore.Rot>
2.0297

> <Gold.Chemscore.Internal.Correction>
   9.000000E+99

> <Gold.Chemscore.Hbonds>
donor molecule, donor type, donor heavy atom, donor atom, acceptor molecule, acceptor atom, score
      P1  H  6896  6907       L1    14  0.89
      P1  H  6931  6943       L1    22  0.38
      P1  H  6934  6947       L1    22  0.34

> <Gold.Chemscore.Hbond.Weighted>
-6.0804

> <Gold.Chemscore.Metal.Weighted>
-0.0000

> <Gold.Chemscore.Lipo.Weighted>
-10.6771

> <Gold.Chemscore.Internal_Hbond.Weighted>
0.0000

> <Gold.Chemscore.DEClash.Weighted>
0.2899

> <Gold.Chemscore.DEInternal.Weighted>
2.1141

> <Gold.Chemscore.Rot.Weighted>
5.1960

> <Gold.Chemscore.Internal.Correction.Weighted>
   9.000000E+99

> <Gold.Protein.RotatedTorsions>
[ 6907 6896 6895 6894 ] final  -26.72 input  -60.11 | X-H torsion
[ 7974 7965 7964 7962 ] final   23.29 input  175.53 | X-H torsion
[ 8008 7997 7996 7995 ] final  -81.33 input   59.86 | X-H torsion
[ 10167 10162 10161 10158 ] final   24.90 input  -65.29 | X-H torsion
[ 10718 10713 10712 10709 ] final  -91.61 input   66.30 | X-H torsion
[ 10763 10752 10751 10750 ] final   35.63 input  -60.55 | X-H torsion
[ 11005 11000 10999 10996 ] final -158.76 input  -57.11 | X-H torsion

> <Gold.Protein.ActiveResidues>
 VAL166  LYS551  ARG553  GLY616  TRP617  ASP618  TYR619  PRO620  LYS621  CYS622 
 ASP623  PHE694  ASN695  SER759  ASP760  ASP761  ALA762  ILE779  LEU786  VAL792 
 PHE793  MET794  SER795  GLU796  ALA797  LYS798  CYS799  TRP800  GLU811  SER814 

> <Gold.Protein.RotatedAtoms>
  151.1569  135.0255  159.8692 H   0  0  0  0  0  0  0  0  0  0  0  0  # atno 6907 bound_to 6896
  152.5452  134.1324  159.8454 H   0  0  0  0  0  0  0  0  0  0  0  0  # atno 6908 bound_to 6896
  151.1415  133.4922  159.2629 H   0  0  0  0  0  0  0  0  0  0  0  0  # atno 6909 bound_to 6896
  146.1991  139.7765  142.8775 H   0  0  0  0  0  0  0  0  0  0  0  0  # atno 7974 bound_to 7965
  154.5973  140.0649  156.9320 H   0  0  0  0  0  0  0  0  0  0  0  0  # atno 8008 bound_to 7997
  155.2192  140.3329  155.4299 H   0  0  0  0  0  0  0  0  0  0  0  0  # atno 8009 bound_to 7997
  156.2295  140.1834  156.7262 H   0  0  0  0  0  0  0  0  0  0  0  0  # atno 8010 bound_to 7997
  140.5150  144.0097  150.6390 H   0  0  0  0  0  0  0  0  0  0  0  0  # atno 10167 bound_to 10162
  155.9995  130.4955  150.5501 H   0  0  0  0  0  0  0  0  0  0  0  0  # atno 10718 bound_to 10713
  153.0111  135.6328  154.1857 H   0  0  0  0  0  0  0  0  0  0  0  0  # atno 10763 bound_to 10752
  154.1599  135.2824  155.3113 H   0  0  0  0  0  0  0  0  0  0  0  0  # atno 10764 bound_to 10752
  154.5990  135.5593  153.7415 H   0  0  0  0  0  0  0  0  0  0  0  0  # atno 10765 bound_to 10752
  140.6500  134.4460  157.5235 H   0  0  0  0  0  0  0  0  0  0  0  0  # atno 11005 bound_to 11000
  145.3545  141.0314  143.3319 LP  0  0  0  0  0  0  0  0  0  0  0  0  # atno 17320 bound_to 7965
  144.8643  139.5130  143.6797 LP  0  0  0  0  0  0  0  0  0  0  0  0  # atno 17321 bound_to 7965
  140.3430  143.3008  152.0568 LP  0  0  0  0  0  0  0  0  0  0  0  0  # atno 17342 bound_to 10162
  139.4907  144.6429  151.6840 LP  0  0  0  0  0  0  0  0  0  0  0  0  # atno 17343 bound_to 10162
  157.3425  131.0719  151.1777 LP  0  0  0  0  0  0  0  0  0  0  0  0  # atno 17370 bound_to 10713
  157.2621  130.6664  149.5979 LP  0  0  0  0  0  0  0  0  0  0  0  0  # atno 17371 bound_to 10713
  139.9049  134.8472  156.1746 LP  0  0  0  0  0  0  0  0  0  0  0  0  # atno 17394 bound_to 11000
  141.0543  133.6873  156.1831 LP  0  0  0  0  0  0  0  0  0  0  0  0  # atno 17395 bound_to 11000

$$$$
