AV-unprocessed.smi:1047|AV-procd|sdf|4590|dock5
  -GOLD-   22720 3 63D 1   1.00000     0.00000
 Structure written by MMmdl.
 57 59  0  0  0  0  0  0  0  0  3 V2000
  144.5230  147.4760  156.0110 C   0  0  0  0  0  0  0  0  0  0  0  0
  143.4273  146.8536  155.1340 C   0  0  0  0  0  0  0  0  0  0  0  0
  143.8745  145.7613  154.2710 N   0  0  0  0  0  0  0  0  0  0  0  0
  144.8040  146.2092  153.2367 C   0  0  0  0  0  0  0  0  0  0  0  0
  145.2879  145.0426  152.3589 C   0  0  0  0  0  0  0  0  0  0  0  0
  145.8732  144.0373  153.1803 O   0  0  0  0  0  0  0  0  0  0  0  0
  144.9766  143.5321  154.1667 C   0  0  1  0  0  0  0  0  0  0  0  0
  145.7144  142.4589  154.9784 C   0  0  0  0  0  0  0  0  0  0  0  0
  146.1318  141.3355  154.1167 N   0  3  0  0  0  0  0  0  0  0  0  0
  147.4483  141.5263  153.4760 C   0  0  0  0  0  0  0  0  0  0  0  0
  148.5765  140.8540  154.2826 C   0  0  1  0  0  0  0  0  0  0  0  0
  149.6574  140.5684  153.4177 O   0  0  0  0  0  0  0  0  0  0  0  0
  149.1320  141.7273  155.4265 C   0  0  0  0  0  0  0  0  0  0  0  0
  149.9003  140.9637  156.4200 N   0  0  0  0  0  0  0  0  0  0  0  0
  149.9698  139.6177  156.6105 C   0  0  0  0  0  0  0  0  0  0  0  0
  150.8287  139.3919  157.6425 N   0  3  0  0  0  0  0  0  0  0  0  0
  151.3188  140.6104  158.1166 C   0  0  0  0  0  0  0  0  0  0  0  0
  152.2110  140.8936  159.1438 C   0  0  0  0  0  0  0  0  0  0  0  0
  152.5123  142.2537  159.3803 C   0  0  0  0  0  0  0  0  0  0  0  0
  153.4868  142.5974  160.4944 C   0  0  0  0  0  0  0  0  0  0  0  0
  151.9208  143.2786  158.5974 C   0  0  0  0  0  0  0  0  0  0  0  0
  152.2496  144.7382  158.8616 C   0  0  0  0  0  0  0  0  0  0  0  0
  151.0154  142.9700  157.5571 C   0  0  0  0  0  0  0  0  0  0  0  0
  150.7302  141.6243  157.3352 C   0  0  0  0  0  0  0  0  0  0  0  0
  144.5081  144.7044  155.0515 C   0  0  0  0  0  0  0  0  0  0  0  0
  144.1394  148.3494  156.5389 H   0  0  0  0  0  0  0  0  0  0  0  0
  145.3726  147.8005  155.4094 H   0  0  0  0  0  0  0  0  0  0  0  0
  144.8877  146.7785  156.7644 H   0  0  0  0  0  0  0  0  0  0  0  0
  142.6045  146.5153  155.7657 H   0  0  0  0  0  0  0  0  0  0  0  0
  143.0180  147.6495  154.5103 H   0  0  0  0  0  0  0  0  0  0  0  0
  144.3297  146.9529  152.5969 H   0  0  0  0  0  0  0  0  0  0  0  0
  145.6652  146.6955  153.6976 H   0  0  0  0  0  0  0  0  0  0  0  0
  144.4597  144.6190  151.7883 H   0  0  0  0  0  0  0  0  0  0  0  0
  146.0282  145.3913  151.6387 H   0  0  0  0  0  0  0  0  0  0  0  0
  144.1115  143.0822  153.6753 H   0  0  0  0  0  0  0  0  0  0  0  0
  146.5872  142.8920  155.4694 H   0  0  0  0  0  0  0  0  0  0  0  0
  145.0613  142.0736  155.7624 H   0  0  0  0  0  0  0  0  0  0  0  0
  146.1587  140.4929  154.6731 H   0  0  0  0  0  0  0  0  0  0  0  0
  147.4243  141.1351  152.4576 H   0  0  0  0  0  0  0  0  0  0  0  0
  147.6266  142.5991  153.4028 H   0  0  0  0  0  0  0  0  0  0  0  0
  148.2175  139.9123  154.7003 H   0  0  0  0  0  0  0  0  0  0  0  0
  149.3755  139.9456  152.7654 H   0  0  0  0  0  0  0  0  0  0  0  0
  149.8083  142.4810  155.0201 H   0  0  0  0  0  0  0  0  0  0  0  0
  148.3359  142.2778  155.9281 H   0  0  0  0  0  0  0  0  0  0  0  0
  149.4436  138.8645  156.0415 H   0  0  0  0  0  0  0  0  0  0  0  0
  152.6570  140.1077  159.7360 H   0  0  0  0  0  0  0  0  0  0  0  0
  154.3403  143.1501  160.1012 H   0  0  0  0  0  0  0  0  0  0  0  0
  153.8687  141.6996  160.9816 H   0  0  0  0  0  0  0  0  0  0  0  0
  152.9990  143.2077  161.2553 H   0  0  0  0  0  0  0  0  0  0  0  0
  151.6964  145.3994  158.1940 H   0  0  0  0  0  0  0  0  0  0  0  0
  153.3129  144.9247  158.7087 H   0  0  0  0  0  0  0  0  0  0  0  0
  151.9933  145.0103  159.8858 H   0  0  0  0  0  0  0  0  0  0  0  0
  150.5677  143.7537  156.9645 H   0  0  0  0  0  0  0  0  0  0  0  0
  145.3606  145.1107  155.5982 H   0  0  0  0  0  0  0  0  0  0  0  0
  143.8079  144.3323  155.8005 H   0  0  0  0  0  0  0  0  0  0  0  0
  145.4375  141.2219  153.3915 H   0  0  0  0  0  0  0  0  0  0  0  0
  151.0673  138.4719  157.9909 H   0  0  0  0  0  0  0  0  0  0  0  0
  1  2  1  0  0  0  0
  1 26  1  0  0  0  0
  1 27  1  0  0  0  0
  1 28  1  0  0  0  0
  2  3  1  0  0  0  0
  2 29  1  0  0  0  0
  2 30  1  0  0  0  0
  3 25  1  0  0  0  0
  3  4  1  0  0  0  0
  4  5  1  0  0  0  0
  4 31  1  0  0  0  0
  4 32  1  0  0  0  0
  5  6  1  0  0  0  0
  5 33  1  0  0  0  0
  5 34  1  0  0  0  0
  6  7  1  0  0  0  0
  7  8  1  0  0  0  0
  7 25  1  0  0  0  0
  7 35  1  0  0  0  0
  8  9  1  0  0  0  0
  8 36  1  0  0  0  0
  8 37  1  0  0  0  0
  9 10  1  0  0  0  0
  9 38  1  0  0  0  0
  9 56  1  0  0  0  0
 10 11  1  0  0  0  0
 10 39  1  0  0  0  0
 10 40  1  0  0  0  0
 11 12  1  0  0  0  0
 11 13  1  0  0  0  0
 11 41  1  0  0  0  0
 12 42  1  0  0  0  0
 13 14  1  0  0  0  0
 13 43  1  0  0  0  0
 13 44  1  0  0  0  0
 14 24  1  0  0  0  0
 14 15  1  0  0  0  0
 15 16  2  0  0  0  0
 15 45  1  0  0  0  0
 16 17  1  0  0  0  0
 16 57  1  0  0  0  0
 17 24  2  0  0  0  0
 17 18  1  0  0  0  0
 18 19  2  0  0  0  0
 18 46  1  0  0  0  0
 19 20  1  0  0  0  0
 19 21  1  0  0  0  0
 20 47  1  0  0  0  0
 20 48  1  0  0  0  0
 20 49  1  0  0  0  0
 21 22  1  0  0  0  0
 21 23  2  0  0  0  0
 22 50  1  0  0  0  0
 22 51  1  0  0  0  0
 22 52  1  0  0  0  0
 23 24  1  0  0  0  0
 23 53  1  0  0  0  0
 25 54  1  0  0  0  0
 25 55  1  0  0  0  0
M  CHG  1   9   1
M  CHG  1  16   1
M  END
> <s_m_source_file>
AV-unprocessed.smi

> <i_m_source_file_index>
1047

> <i_lp_mmshare_version>
43012

> <i_f3d_flags>
0

> <s_epik_input>
W0NIM11bQ0gyXU4xW0NIMl1bQ0gyXU9bQ0BIXShbQ0gyXTEpW0NIMl1bTkhdW0NIMl1bQ0BIXShbT0hdKVtDSDJdbihbY0hdbjIpYyhjMjMpW2NIXWMoW0NIM10pYyhbY0hdMylbQ0gzXQ==

> <s_epik_cmdline>
J2VwaWtfcHl0aG9uJywgJy1waCcsICc3LjAnLCAnLXRuJywgJzgnLCAnLW1hJywgJzIwMCcsICctbWV0YWxfYmluZGluZycsICctaW1hZScsICc8aW5maWxlLm1hZT4nLCAnLW9tYWUnLCAnPG91dGZpbGUubWFlPic=

> <r_epik_Ionization_Penalty>
1.75732

> <r_epik_Ionization_Penalty_Charging>
1.18089

> <r_epik_Ionization_Penalty_Neutral>
0.576429

> <r_epik_State_Penalty>
1.69377

> <r_epik_Charging_Adjusted_Penalty>
2.87466

> <i_epik_Tot_Q>
2

> <i_epik_Tot_abs_Q>
2

> <r_epik_Metal_State_Penalty>
5.70174

> <b_epik_Metal_Only>
0

> <s_lp_Force_Field>
OPLS_2005

> <r_lp_Energy>
42.3107

> <b_lp_Chiralities_Consistent>
1

> <s_lp_Variant>
AV-unprocessed.smi:1047-31

> <Gold.Version>
5.8.1

> <Gold.Id.Protein>
6NUR|6NUR_protein|mol2

> <Gold.PLP.Fitness>
60.5722

> <Gold.PLP.PLP>
-50.3160

> <Gold.PLP.part.hbond>
-3.7875

> <Gold.PLP.part.metal>
0.0000

> <Gold.PLP.part.buried>
-3.6806

> <Gold.PLP.part.nonpolar>
-45.5586

> <Gold.PLP.part.repulsive>
0.3097

> <Gold.PLP.ligand.clash>
0.0000

> <Gold.PLP.ligand.torsion>
1.0041

> <Gold.PLP.Chemscore.Hbond>
4.0060

> <Gold.PLP.Chemscore.CHOScore>
0.0000

> <Gold.PLP.Chemscore.Metal>
0.0000

> <Gold.Chemscore.Hbonds>
donor molecule, donor type, donor heavy atom, donor atom, acceptor molecule, acceptor atom, score
      L1  H     9    56       P1 10175  1.66
      L1  H    12    42       P1  7957  0.54
      P1  H  7989  7998       L1    12  0.40
      P1  H  8011  8017       L1    12  0.73

> <Gold.PLP.Chemscore.Internal.Correction>
0.2465

> <Gold.Rescore>
     Score         DG    S(hbond)    S(metal)    S(lipo)     H(rot)  DE(clash)    DE(int)     intcor
     20.96     -22.54       2.18        0.00     142.53       2.69       0.51       1.07       ----

> <Gold.Chemscore.Fitness>
20.9560

> <Gold.Chemscore.DG>
-22.5411

> <Gold.Chemscore.ZeroCoef>
-5.4800

> <Gold.Chemscore.Hbond>
2.1782

> <Gold.Chemscore.Metal>
0.0000

> <Gold.Chemscore.Lipo>
142.5341

> <Gold.Chemscore.Internal_Hbond>
0.0000

> <Gold.Chemscore.DEClash>
0.5147

> <Gold.Chemscore.DEInternal>
1.0704

> <Gold.Chemscore.Rot>
2.6917

> <Gold.Chemscore.Internal.Correction>
   9.000000E+99

> <Gold.Chemscore.Hbonds>
donor molecule, donor type, donor heavy atom, donor atom, acceptor molecule, acceptor atom, score
      L1  H     9    56       P1 10175  0.24
      L1  H    12    42       P1  7957  0.54
      P1  H  7989  7998       L1    12  0.35
      P1  H  8011  8017       L1    12  0.09

> <Gold.Chemscore.Hbond.Weighted>
-7.2753

> <Gold.Chemscore.Metal.Weighted>
-0.0000

> <Gold.Chemscore.Lipo.Weighted>
-16.6765

> <Gold.Chemscore.Internal_Hbond.Weighted>
0.0000

> <Gold.Chemscore.DEClash.Weighted>
0.5147

> <Gold.Chemscore.DEInternal.Weighted>
1.0704

> <Gold.Chemscore.Rot.Weighted>
6.8907

> <Gold.Chemscore.Internal.Correction.Weighted>
   9.000000E+99

> <Gold.Protein.RotatedTorsions>
[ 6907 6896 6895 6894 ] final  -10.16 input  -60.11 | X-H torsion
[ 7974 7965 7964 7962 ] final   97.60 input  175.53 | X-H torsion
[ 8008 7997 7996 7995 ] final   91.97 input   59.86 | X-H torsion
[ 10167 10162 10161 10158 ] final   24.90 input  -65.29 | X-H torsion
[ 10718 10713 10712 10709 ] final -169.45 input   66.30 | X-H torsion
[ 10763 10752 10751 10750 ] final -125.35 input  -60.55 | X-H torsion
[ 11005 11000 10999 10996 ] final   59.17 input  -57.11 | X-H torsion

> <Gold.Protein.ActiveResidues>
 VAL166  LYS551  ARG553  GLY616  TRP617  ASP618  TYR619  PRO620  LYS621  CYS622 
 ASP623  PHE694  ASN695  SER759  ASP760  ASP761  ALA762  ILE779  LEU786  VAL792 
 PHE793  MET794  SER795  GLU796  ALA797  LYS798  CYS799  TRP800  GLU811  SER814 

> <Gold.Protein.RotatedAtoms>
  151.4064  135.0978  159.9571 H   0  0  0  0  0  0  0  0  0  0  0  0  # atno 6907 bound_to 6896
  152.5034  133.8839  159.7370 H   0  0  0  0  0  0  0  0  0  0  0  0  # atno 6908 bound_to 6896
  150.9324  133.6694  159.2836 H   0  0  0  0  0  0  0  0  0  0  0  0  # atno 6909 bound_to 6896
  145.4234  139.2319  143.3184 H   0  0  0  0  0  0  0  0  0  0  0  0  # atno 7974 bound_to 7965
  156.0299  140.3331  155.7129 H   0  0  0  0  0  0  0  0  0  0  0  0  # atno 8008 bound_to 7997
  155.5899  140.0645  157.2779 H   0  0  0  0  0  0  0  0  0  0  0  0  # atno 8009 bound_to 7997
  154.4349  140.1829  156.1052 H   0  0  0  0  0  0  0  0  0  0  0  0  # atno 8010 bound_to 7997
  140.5150  144.0097  150.6390 H   0  0  0  0  0  0  0  0  0  0  0  0  # atno 10167 bound_to 10162
  156.7117  130.9236  151.3090 H   0  0  0  0  0  0  0  0  0  0  0  0  # atno 10718 bound_to 10713
  154.8735  135.4032  154.3254 H   0  0  0  0  0  0  0  0  0  0  0  0  # atno 10763 bound_to 10752
  153.4076  135.7020  153.6387 H   0  0  0  0  0  0  0  0  0  0  0  0  # atno 10764 bound_to 10752
  153.5103  135.3708  155.2554 H   0  0  0  0  0  0  0  0  0  0  0  0  # atno 10765 bound_to 10752
  140.0323  134.5994  155.9490 H   0  0  0  0  0  0  0  0  0  0  0  0  # atno 11005 bound_to 11000
  146.2645  140.4961  142.8840 LP  0  0  0  0  0  0  0  0  0  0  0  0  # atno 17320 bound_to 7965
  144.8230  140.6582  143.6340 LP  0  0  0  0  0  0  0  0  0  0  0  0  # atno 17321 bound_to 7965
  140.3430  143.3008  152.0568 LP  0  0  0  0  0  0  0  0  0  0  0  0  # atno 17342 bound_to 10162
  139.4907  144.6429  151.6840 LP  0  0  0  0  0  0  0  0  0  0  0  0  # atno 17343 bound_to 10162
  157.6933  130.9256  150.0574 LP  0  0  0  0  0  0  0  0  0  0  0  0  # atno 17370 bound_to 10713
  156.1656  130.3645  149.9237 LP  0  0  0  0  0  0  0  0  0  0  0  0  # atno 17371 bound_to 10713
  141.1838  133.6551  156.5131 LP  0  0  0  0  0  0  0  0  0  0  0  0  # atno 17394 bound_to 11000
  140.4205  134.7192  157.4887 LP  0  0  0  0  0  0  0  0  0  0  0  0  # atno 17395 bound_to 11000

$$$$
