AV-unprocessed.smi:766|AV-procd|sdf|3655|dock3
  -GOLD-   22720 1 63D 1   1.00000     0.00000
 Structure written by MMmdl.
 46 48  0  0  0  0  0  0  0  0  1 V2000
  152.4503  142.6340  161.8584 C   0  0  0  0  0  0  0  0  0  0  0  0
  151.9978  142.4015  160.4277 C   0  0  0  0  0  0  0  0  0  0  0  0
  152.5025  141.2872  159.7199 C   0  0  0  0  0  0  0  0  0  0  0  0
  152.1064  141.0350  158.3882 C   0  0  0  0  0  0  0  0  0  0  0  0
  152.4691  140.0199  157.5195 N   0  0  0  0  0  0  0  0  0  0  0  0
  151.7670  140.3332  156.4342 C   0  0  0  0  0  0  0  0  0  0  0  0
  150.9907  141.4322  156.4971 N   0  0  0  0  0  0  0  0  0  0  0  0
  150.1462  141.9724  155.4461 C   0  0  0  0  0  0  0  0  0  0  0  0
  149.3028  140.8895  154.7452 C   0  0  2  0  0  0  0  0  0  0  0  0
  150.0986  140.2442  153.7696 O   0  0  0  0  0  0  0  0  0  0  0  0
  148.0693  141.4904  154.0504 C   0  0  0  0  0  0  0  0  0  0  0  0
  147.0314  141.8297  155.0178 N   0  0  0  0  0  0  0  0  0  0  0  0
  146.0025  142.7147  154.4782 C   0  0  0  0  0  0  0  0  0  0  0  0
  144.7901  142.8146  155.4181 C   0  0  0  0  0  0  0  0  0  0  0  0
  143.9615  143.9716  155.1299 N   0  0  0  0  0  0  0  0  0  0  0  0
  143.4540  144.3813  153.9151 C   0  0  0  0  0  0  0  0  0  0  0  0
  142.7332  145.5194  154.1386 C   0  0  0  0  0  0  0  0  0  0  0  0
  142.8628  145.7313  155.5396 C   0  0  0  0  0  0  0  0  0  0  0  0
  143.6010  144.8052  156.1299 N   0  0  0  0  0  0  0  0  0  0  0  0
  151.1850  141.9360  157.7786 C   0  0  0  0  0  0  0  0  0  0  0  0
  150.6772  143.0489  158.4716 C   0  0  0  0  0  0  0  0  0  0  0  0
  151.0810  143.2846  159.8024 C   0  0  0  0  0  0  0  0  0  0  0  0
  150.5220  144.4859  160.5443 C   0  0  0  0  0  0  0  0  0  0  0  0
  153.1884  141.8934  162.1678 H   0  0  0  0  0  0  0  0  0  0  0  0
  151.6032  142.5688  162.5416 H   0  0  0  0  0  0  0  0  0  0  0  0
  152.9040  143.6199  161.9617 H   0  0  0  0  0  0  0  0  0  0  0  0
  153.1996  140.6135  160.1960 H   0  0  0  0  0  0  0  0  0  0  0  0
  151.8196  139.7272  155.5414 H   0  0  0  0  0  0  0  0  0  0  0  0
  149.4948  142.7247  155.8925 H   0  0  0  0  0  0  0  0  0  0  0  0
  150.7755  142.4940  154.7233 H   0  0  0  0  0  0  0  0  0  0  0  0
  148.9901  140.1516  155.4857 H   0  0  0  0  0  0  0  0  0  0  0  0
  149.7161  140.3990  152.9196 H   0  0  0  0  0  0  0  0  0  0  0  0
  148.3619  142.3989  153.5225 H   0  0  0  0  0  0  0  0  0  0  0  0
  147.6872  140.8055  153.2920 H   0  0  0  0  0  0  0  0  0  0  0  0
  146.6042  140.9791  155.3713 H   0  0  0  0  0  0  0  0  0  0  0  0
  146.4147  143.7085  154.2985 H   0  0  0  0  0  0  0  0  0  0  0  0
  145.6694  142.3388  153.5102 H   0  0  0  0  0  0  0  0  0  0  0  0
  144.1722  141.9208  155.3218 H   0  0  0  0  0  0  0  0  0  0  0  0
  145.1124  142.8592  156.4593 H   0  0  0  0  0  0  0  0  0  0  0  0
  143.6437  143.8337  153.0040 H   0  0  0  0  0  0  0  0  0  0  0  0
  142.1953  146.1102  153.4124 H   0  0  0  0  0  0  0  0  0  0  0  0
  142.4453  146.5255  156.1406 H   0  0  0  0  0  0  0  0  0  0  0  0
  149.9799  143.7133  157.9826 H   0  0  0  0  0  0  0  0  0  0  0  0
  149.8089  145.0363  159.9298 H   0  0  0  0  0  0  0  0  0  0  0  0
  151.3242  145.1702  160.8209 H   0  0  0  0  0  0  0  0  0  0  0  0
  150.0069  144.1700  161.4517 H   0  0  0  0  0  0  0  0  0  0  0  0
  1  2  1  0  0  0  0
  1 24  1  0  0  0  0
  1 25  1  0  0  0  0
  1 26  1  0  0  0  0
  2 22  1  0  0  0  0
  2  3  2  0  0  0  0
  3  4  1  0  0  0  0
  3 27  1  0  0  0  0
  4 20  2  0  0  0  0
  4  5  1  0  0  0  0
  5  6  2  0  0  0  0
  6  7  1  0  0  0  0
  6 28  1  0  0  0  0
  7  8  1  0  0  0  0
  7 20  1  0  0  0  0
  8  9  1  0  0  0  0
  8 29  1  0  0  0  0
  8 30  1  0  0  0  0
  9 10  1  0  0  0  0
  9 11  1  0  0  0  0
  9 31  1  0  0  0  0
 10 32  1  0  0  0  0
 11 12  1  0  0  0  0
 11 33  1  0  0  0  0
 11 34  1  0  0  0  0
 12 13  1  0  0  0  0
 12 35  1  0  0  0  0
 13 14  1  0  0  0  0
 13 36  1  0  0  0  0
 13 37  1  0  0  0  0
 14 15  1  0  0  0  0
 14 38  1  0  0  0  0
 14 39  1  0  0  0  0
 15 19  1  0  0  0  0
 15 16  1  0  0  0  0
 16 17  2  0  0  0  0
 16 40  1  0  0  0  0
 17 18  1  0  0  0  0
 17 41  1  0  0  0  0
 18 19  2  0  0  0  0
 18 42  1  0  0  0  0
 20 21  1  0  0  0  0
 21 22  2  0  0  0  0
 21 43  1  0  0  0  0
 22 23  1  0  0  0  0
 23 44  1  0  0  0  0
 23 45  1  0  0  0  0
 23 46  1  0  0  0  0
M  END
> <s_m_source_file>
AV-unprocessed.smi

> <i_m_source_file_index>
766

> <i_lp_mmshare_version>
43012

> <i_f3d_flags>
0

> <s_epik_input>
W0NIM11jKFtjSF0xKWMoW0NIM10pW2NIXWMoYzEyKW4oW2NIXW4yKVtDSDJdW0NASF0oW09IXSlbQ0gyXVtOSF1bQ0gyXVtDSDJdbjNbY0hdW2NIXVtjSF1uMw==

> <s_epik_cmdline>
J2VwaWtfcHl0aG9uJywgJy1waCcsICc3LjAnLCAnLXRuJywgJzgnLCAnLW1hJywgJzIwMCcsICctbWV0YWxfYmluZGluZycsICctaW1hZScsICc8aW5maWxlLm1hZT4nLCAnLW9tYWUnLCAnPG91dGZpbGUubWFlPic=

> <r_lp_tautomer_probability>
1

> <r_epik_Ionization_Penalty>
1.68727

> <r_epik_Ionization_Penalty_Charging>
0

> <r_epik_Ionization_Penalty_Neutral>
1.68727

> <r_epik_State_Penalty>
1.78741

> <r_epik_Charging_Adjusted_Penalty>
1.78741

> <i_epik_Tot_Q>
0

> <i_epik_Tot_abs_Q>
0

> <r_epik_Metal_State_Penalty>
1.73664

> <b_epik_Metal_Only>
0

> <s_lp_Force_Field>
OPLS_2005

> <r_lp_Energy>
17.6974

> <b_lp_Chiralities_Consistent>
1

> <s_lp_Variant>
AV-unprocessed.smi:766-5

> <Gold.Version>
5.8.1

> <Gold.Id.Protein>
6NUR|6NUR_protein|mol2

> <Gold.PLP.Fitness>
61.7912

> <Gold.PLP.PLP>
-52.0418

> <Gold.PLP.part.hbond>
-3.5606

> <Gold.PLP.part.metal>
0.0000

> <Gold.PLP.part.buried>
-5.3580

> <Gold.PLP.part.nonpolar>
-42.7764

> <Gold.PLP.part.repulsive>
0.0756

> <Gold.PLP.ligand.clash>
0.0000

> <Gold.PLP.ligand.torsion>
0.7846

> <Gold.PLP.Chemscore.Hbond>
2.7280

> <Gold.PLP.Chemscore.CHOScore>
1.0000

> <Gold.PLP.Chemscore.Metal>
0.0000

> <Gold.Chemscore.Hbonds>
donor molecule, donor type, donor heavy atom, donor atom, acceptor molecule, acceptor atom, score
      L1  H    10    32       P1  7957  1.00
      P1  H  7989  7998       L1    10  0.68
      P1  H  7997  8010       L1     5  0.75
      L1  C    16    40       P1 10174  0.58

> <Gold.PLP.Chemscore.Internal.Correction>
0.1346

> <Gold.Rescore>
     Score         DG    S(hbond)    S(metal)    S(lipo)     H(rot)  DE(clash)    DE(int)     intcor
     15.99     -18.54       1.47        0.00     131.77       2.83       1.82       0.73       ----

> <Gold.Chemscore.Fitness>
15.9915

> <Gold.Chemscore.DG>
-18.5386

> <Gold.Chemscore.ZeroCoef>
-5.4800

> <Gold.Chemscore.Hbond>
1.4666

> <Gold.Chemscore.Metal>
0.0000

> <Gold.Chemscore.Lipo>
131.7712

> <Gold.Chemscore.Internal_Hbond>
0.0000

> <Gold.Chemscore.DEClash>
1.8180

> <Gold.Chemscore.DEInternal>
0.7290

> <Gold.Chemscore.Rot>
2.8348

> <Gold.Chemscore.Internal.Correction>
   9.000000E+99

> <Gold.Chemscore.Hbonds>
donor molecule, donor type, donor heavy atom, donor atom, acceptor molecule, acceptor atom, score
      L1  H    10    32       P1  7957  0.95
      P1  H  7989  7998       L1    10  0.13
      P1  H  7997  8010       L1     5  0.14

> <Gold.Chemscore.Hbond.Weighted>
-4.8985

> <Gold.Chemscore.Metal.Weighted>
-0.0000

> <Gold.Chemscore.Lipo.Weighted>
-15.4172

> <Gold.Chemscore.Internal_Hbond.Weighted>
0.0000

> <Gold.Chemscore.DEClash.Weighted>
1.8180

> <Gold.Chemscore.DEInternal.Weighted>
0.7290

> <Gold.Chemscore.Rot.Weighted>
7.2572

> <Gold.Chemscore.Internal.Correction.Weighted>
   9.000000E+99

> <Gold.Protein.RotatedTorsions>
[ 6907 6896 6895 6894 ] final   48.29 input  -60.11 | X-H torsion
[ 7974 7965 7964 7962 ] final   30.20 input  175.53 | X-H torsion
[ 8008 7997 7996 7995 ] final   59.78 input   59.86 | X-H torsion
[ 10167 10162 10161 10158 ] final -146.13 input  -65.29 | X-H torsion
[ 10718 10713 10712 10709 ] final  176.37 input   66.30 | X-H torsion
[ 10763 10752 10751 10750 ] final -100.86 input  -60.55 | X-H torsion
[ 11005 11000 10999 10996 ] final   58.12 input  -57.11 | X-H torsion

> <Gold.Protein.ActiveResidues>
 VAL166  LYS551  ARG553  GLY616  TRP617  ASP618  TYR619  PRO620  LYS621  CYS622 
 ASP623  PHE694  ASN695  SER759  ASP760  ASP761  ALA762  ILE779  LEU786  VAL792 
 PHE793  MET794  SER795  GLU796  ALA797  LYS798  CYS799  TRP800  GLU811  SER814 

> <Gold.Protein.RotatedAtoms>
  152.2779  134.7861  160.0401 H   0  0  0  0  0  0  0  0  0  0  0  0  # atno 6907 bound_to 6896
  151.8451  133.3425  159.3663 H   0  0  0  0  0  0  0  0  0  0  0  0  # atno 6908 bound_to 6896
  150.7177  134.5282  159.5731 H   0  0  0  0  0  0  0  0  0  0  0  0  # atno 6909 bound_to 6896
  146.1626  139.6820  142.9023 H   0  0  0  0  0  0  0  0  0  0  0  0  # atno 7974 bound_to 7965
  155.5718  140.3490  155.4517 H   0  0  0  0  0  0  0  0  0  0  0  0  # atno 8008 bound_to 7997
  156.0439  140.1302  157.0151 H   0  0  0  0  0  0  0  0  0  0  0  0  # atno 8009 bound_to 7997
  154.4404  140.1018  156.6262 H   0  0  0  0  0  0  0  0  0  0  0  0  # atno 8010 bound_to 7997
  139.7742  143.8194  152.2629 H   0  0  0  0  0  0  0  0  0  0  0  0  # atno 10167 bound_to 10162
  156.9211  130.9941  151.3004 H   0  0  0  0  0  0  0  0  0  0  0  0  # atno 10718 bound_to 10713
  154.7612  135.4919  153.9468 H   0  0  0  0  0  0  0  0  0  0  0  0  # atno 10763 bound_to 10752
  153.1254  135.6741  153.9273 H   0  0  0  0  0  0  0  0  0  0  0  0  # atno 10764 bound_to 10752
  153.8993  135.3111  155.3427 H   0  0  0  0  0  0  0  0  0  0  0  0  # atno 10765 bound_to 10752
  140.0401  134.5885  155.9392 H   0  0  0  0  0  0  0  0  0  0  0  0  # atno 11005 bound_to 11000
  145.4550  141.0430  143.2783 LP  0  0  0  0  0  0  0  0  0  0  0  0  # atno 17320 bound_to 7965
  144.8048  139.6073  143.7056 LP  0  0  0  0  0  0  0  0  0  0  0  0  # atno 17321 bound_to 7965
  139.8237  144.7284  150.9539 LP  0  0  0  0  0  0  0  0  0  0  0  0  # atno 17342 bound_to 10162
  140.7815  143.4134  151.0955 LP  0  0  0  0  0  0  0  0  0  0  0  0  # atno 17343 bound_to 10162
  157.5907  130.8442  149.8655 LP  0  0  0  0  0  0  0  0  0  0  0  0  # atno 17370 bound_to 10713
  156.0491  130.3721  150.1246 LP  0  0  0  0  0  0  0  0  0  0  0  0  # atno 17371 bound_to 10713
  141.1878  133.6561  156.5299 LP  0  0  0  0  0  0  0  0  0  0  0  0  # atno 17394 bound_to 11000
  140.4083  134.7295  157.4820 LP  0  0  0  0  0  0  0  0  0  0  0  0  # atno 17395 bound_to 11000

$$$$
