AV-unprocessed.smi:525|AV-procd|sdf|2808|dock2
  -GOLD-   2262023283D 1   1.00000     0.00000
 Structure written by MMmdl.
 43 45  0  0  0  0  0  0  0  0  1 V2000
  157.3399  140.4609  159.2356 C   0  0  0  0  0  0  0  0  0  0  0  0
  156.0252  139.9313  159.1639 O   0  0  0  0  0  0  0  0  0  0  0  0
  155.0894  140.6206  159.9802 C   0  0  0  0  0  0  0  0  0  0  0  0
  153.6735  140.0293  159.8630 C   0  0  0  0  0  0  0  0  0  0  0  0
  152.8239  140.8123  158.9759 N   0  0  0  0  0  0  0  0  0  0  0  0
  152.1462  140.4048  157.8730 C   0  0  0  0  0  0  0  0  0  0  0  0
  152.2006  138.7269  157.3149 S   0  0  0  0  0  0  0  0  0  0  0  0
  150.6031  138.6094  156.4373 C   0  0  1  0  0  0  0  0  0  0  0  0
  150.6628  137.7970  155.1339 C   0  0  0  0  0  0  0  0  0  0  0  0
  149.5660  137.7950  154.3718 N   0  0  0  0  0  0  0  0  0  0  0  0
  151.6788  137.1831  154.8141 O   0  0  0  0  0  0  0  0  0  0  0  0
  149.5548  138.0137  157.3711 C   0  0  0  0  0  0  0  0  0  0  0  0
  148.1832  138.0253  157.0264 C   0  0  0  0  0  0  0  0  0  0  0  0
  147.2254  137.4695  157.8964 C   0  0  0  0  0  0  0  0  0  0  0  0
  147.6305  136.8972  159.1170 C   0  0  0  0  0  0  0  0  0  0  0  0
  148.9940  136.8822  159.4674 C   0  0  0  0  0  0  0  0  0  0  0  0
  149.9525  137.4379  158.5978 C   0  0  0  0  0  0  0  0  0  0  0  0
  151.4291  141.3496  157.2604 N   0  0  0  0  0  0  0  0  0  0  0  0
  151.6795  142.4721  158.0227 C   0  0  0  0  0  0  0  0  0  0  0  0
  151.2169  143.8003  157.8827 C   0  0  0  0  0  0  0  0  0  0  0  0
  151.6148  144.7945  158.8005 C   0  0  0  0  0  0  0  0  0  0  0  0
  152.4776  144.4752  159.8691 C   0  0  0  0  0  0  0  0  0  0  0  0
  152.9486  143.1576  160.0264 C   0  0  0  0  0  0  0  0  0  0  0  0
  152.5494  142.1696  159.1065 C   0  0  0  0  0  0  0  0  0  0  0  0
  158.0079  139.8675  158.6115 H   0  0  0  0  0  0  0  0  0  0  0  0
  157.7312  140.4423  160.2525 H   0  0  0  0  0  0  0  0  0  0  0  0
  157.3685  141.4885  158.8717 H   0  0  0  0  0  0  0  0  0  0  0  0
  155.4180  140.6401  161.0204 H   0  0  0  0  0  0  0  0  0  0  0  0
  155.0681  141.6599  159.6512 H   0  0  0  0  0  0  0  0  0  0  0  0
  153.7039  138.9923  159.5309 H   0  0  0  0  0  0  0  0  0  0  0  0
  153.2062  140.0107  160.8479 H   0  0  0  0  0  0  0  0  0  0  0  0
  150.2971  139.6284  156.1961 H   0  0  0  0  0  0  0  0  0  0  0  0
  149.5535  137.2740  153.5072 H   0  0  0  0  0  0  0  0  0  0  0  0
  148.7513  138.3135  154.6665 H   0  0  0  0  0  0  0  0  0  0  0  0
  147.8611  138.4624  156.0924 H   0  0  0  0  0  0  0  0  0  0  0  0
  146.1796  137.4824  157.6266 H   0  0  0  0  0  0  0  0  0  0  0  0
  146.8961  136.4708  159.7841 H   0  0  0  0  0  0  0  0  0  0  0  0
  149.3050  136.4444  160.4047 H   0  0  0  0  0  0  0  0  0  0  0  0
  150.9953  137.4208  158.8786 H   0  0  0  0  0  0  0  0  0  0  0  0
  150.5555  144.0547  157.0678 H   0  0  0  0  0  0  0  0  0  0  0  0
  151.2566  145.8068  158.6840 H   0  0  0  0  0  0  0  0  0  0  0  0
  152.7780  145.2422  160.5679 H   0  0  0  0  0  0  0  0  0  0  0  0
  153.6103  142.9095  160.8429 H   0  0  0  0  0  0  0  0  0  0  0  0
  1  2  1  0  0  0  0
  1 25  1  0  0  0  0
  1 26  1  0  0  0  0
  1 27  1  0  0  0  0
  2  3  1  0  0  0  0
  3  4  1  0  0  0  0
  3 28  1  0  0  0  0
  3 29  1  0  0  0  0
  4  5  1  0  0  0  0
  4 30  1  0  0  0  0
  4 31  1  0  0  0  0
  5 24  1  0  0  0  0
  5  6  1  0  0  0  0
  6  7  1  0  0  0  0
  6 18  2  0  0  0  0
  7  8  1  0  0  0  0
  8  9  1  0  0  0  0
  8 12  1  0  0  0  0
  8 32  1  0  0  0  0
  9 10  1  0  0  0  0
  9 11  2  0  0  0  0
 10 33  1  0  0  0  0
 10 34  1  0  0  0  0
 12 17  1  0  0  0  0
 12 13  2  0  0  0  0
 13 14  1  0  0  0  0
 13 35  1  0  0  0  0
 14 15  2  0  0  0  0
 14 36  1  0  0  0  0
 15 16  1  0  0  0  0
 15 37  1  0  0  0  0
 16 17  2  0  0  0  0
 16 38  1  0  0  0  0
 17 39  1  0  0  0  0
 18 19  1  0  0  0  0
 19 24  2  0  0  0  0
 19 20  1  0  0  0  0
 20 21  2  0  0  0  0
 20 40  1  0  0  0  0
 21 22  1  0  0  0  0
 21 41  1  0  0  0  0
 22 23  2  0  0  0  0
 22 42  1  0  0  0  0
 23 24  1  0  0  0  0
 23 43  1  0  0  0  0
M  END
> <s_m_source_file>
AV-unprocessed.smi

> <i_m_source_file_index>
525

> <i_lp_mmshare_version>
43012

> <i_f3d_flags>
0

> <s_epik_input>
W2NIXTFbY0hdW2NIXVtjSF1jKGMxMiluKFtDSDJdW0NIMl1PW0NIM10pYyhuMilTW0NASF0oQyg9TylbTkgyXSljM1tjSF1bY0hdW2NIXVtjSF1bY0hdMw==

> <s_epik_cmdline>
J2VwaWtfcHl0aG9uJywgJy1waCcsICc3LjAnLCAnLXRuJywgJzgnLCAnLW1hJywgJzIwMCcsICctbWV0YWxfYmluZGluZycsICctaW1hZScsICc8aW5maWxlLm1hZT4nLCAnLW9tYWUnLCAnPG91dGZpbGUubWFlPic=

> <r_epik_Ionization_Penalty>
0.0706634

> <r_epik_Ionization_Penalty_Charging>
0

> <r_epik_Ionization_Penalty_Neutral>
0.0706634

> <r_epik_State_Penalty>
0.0619781

> <r_epik_Charging_Adjusted_Penalty>
0.0619781

> <i_epik_Tot_Q>
0

> <i_epik_Tot_abs_Q>
0

> <r_epik_Metal_State_Penalty>
0.0552401

> <b_epik_Metal_Only>
0

> <s_lp_Force_Field>
OPLS_2005

> <r_lp_Energy>
10.3034

> <b_lp_Chiralities_Consistent>
1

> <s_lp_Variant>
AV-unprocessed.smi:525-2

> <Gold.Version>
5.8.1

> <Gold.Id.Protein>
6NUR|6NUR_protein|mol2

> <Gold.PLP.Fitness>
48.8824

> <Gold.PLP.PLP>
-42.1048

> <Gold.PLP.part.hbond>
-3.0000

> <Gold.PLP.part.metal>
0.0000

> <Gold.PLP.part.buried>
-6.4285

> <Gold.PLP.part.nonpolar>
-33.4779

> <Gold.PLP.part.repulsive>
0.1744

> <Gold.PLP.ligand.clash>
0.0000

> <Gold.PLP.ligand.torsion>
1.3812

> <Gold.PLP.Chemscore.Hbond>
3.0000

> <Gold.PLP.Chemscore.CHOScore>
0.0000

> <Gold.PLP.Chemscore.Metal>
0.0000

> <Gold.Chemscore.Hbonds>
donor molecule, donor type, donor heavy atom, donor atom, acceptor molecule, acceptor atom, score
      L1  H    10    33       P1  7948  1.00
      P1  H  7997  8010       L1     2  1.00
      P1  H 10752 10764       L1    11  1.00

> <Gold.PLP.Chemscore.Internal.Correction>
0.5400

> <Gold.Rescore>
     Score         DG    S(hbond)    S(metal)    S(lipo)     H(rot)  DE(clash)    DE(int)     intcor
     18.71     -20.54       2.38        0.00     114.15       2.44       0.01       1.82       ----

> <Gold.Chemscore.Fitness>
18.7058

> <Gold.Chemscore.DG>
-20.5365

> <Gold.Chemscore.ZeroCoef>
-5.4800

> <Gold.Chemscore.Hbond>
2.3790

> <Gold.Chemscore.Metal>
0.0000

> <Gold.Chemscore.Lipo>
114.1541

> <Gold.Chemscore.Internal_Hbond>
0.0000

> <Gold.Chemscore.DEClash>
0.0089

> <Gold.Chemscore.DEInternal>
1.8218

> <Gold.Chemscore.Rot>
2.4396

> <Gold.Chemscore.Internal.Correction>
   9.000000E+99

> <Gold.Chemscore.Hbonds>
donor molecule, donor type, donor heavy atom, donor atom, acceptor molecule, acceptor atom, score
      L1  H    10    33       P1  7948  0.84
      P1  H  7997  8010       L1     2  0.40
      P1  H 10752 10764       L1    11  0.91

> <Gold.Chemscore.Hbond.Weighted>
-7.9459

> <Gold.Chemscore.Metal.Weighted>
-0.0000

> <Gold.Chemscore.Lipo.Weighted>
-13.3560

> <Gold.Chemscore.Internal_Hbond.Weighted>
0.0000

> <Gold.Chemscore.DEClash.Weighted>
0.0089

> <Gold.Chemscore.DEInternal.Weighted>
1.8218

> <Gold.Chemscore.Rot.Weighted>
6.2454

> <Gold.Chemscore.Internal.Correction.Weighted>
   9.000000E+99

> <Gold.Protein.RotatedTorsions>
[ 6907 6896 6895 6894 ] final -124.06 input  -60.11 | X-H torsion
[ 7974 7965 7964 7962 ] final  102.91 input  175.53 | X-H torsion
[ 8008 7997 7996 7995 ] final  -22.51 input   59.86 | X-H torsion
[ 10167 10162 10161 10158 ] final  128.62 input  -65.29 | X-H torsion
[ 10718 10713 10712 10709 ] final -151.02 input   66.30 | X-H torsion
[ 10763 10752 10751 10750 ] final  -71.59 input  -60.55 | X-H torsion
[ 11005 11000 10999 10996 ] final  155.89 input  -57.11 | X-H torsion

> <Gold.Protein.ActiveResidues>
 VAL166  LYS551  ARG553  GLY616  TRP617  ASP618  TYR619  PRO620  LYS621  CYS622 
 ASP623  PHE694  ASN695  SER759  ASP760  ASP761  ALA762  ILE779  LEU786  VAL792 
 PHE793  MET794  SER795  GLU796  ALA797  LYS798  CYS799  TRP800  GLU811  SER814 

> <Gold.Protein.RotatedAtoms>
  150.8731  133.7477  159.2954 H   0  0  0  0  0  0  0  0  0  0  0  0  # atno 6907 bound_to 6896
  151.5082  135.1062  159.9856 H   0  0  0  0  0  0  0  0  0  0  0  0  # atno 6908 bound_to 6896
  152.4709  133.7983  159.6994 H   0  0  0  0  0  0  0  0  0  0  0  0  # atno 6909 bound_to 6896
  145.3529  139.2435  143.3548 H   0  0  0  0  0  0  0  0  0  0  0  0  # atno 7974 bound_to 7965
  154.4640  140.2006  156.0169 H   0  0  0  0  0  0  0  0  0  0  0  0  # atno 8008 bound_to 7997
  156.0892  140.3260  155.7765 H   0  0  0  0  0  0  0  0  0  0  0  0  # atno 8009 bound_to 7997
  155.4984  140.0552  157.2933 H   0  0  0  0  0  0  0  0  0  0  0  0  # atno 8010 bound_to 7997
  139.5518  144.6819  151.4301 H   0  0  0  0  0  0  0  0  0  0  0  0  # atno 10167 bound_to 10162
  156.4538  130.8180  151.2411 H   0  0  0  0  0  0  0  0  0  0  0  0  # atno 10718 bound_to 10713
  154.4339  135.5957  153.6086 H   0  0  0  0  0  0  0  0  0  0  0  0  # atno 10763 bound_to 10752
  152.9800  135.5982  154.3805 H   0  0  0  0  0  0  0  0  0  0  0  0  # atno 10764 bound_to 10752
  154.3647  135.2841  155.2279 H   0  0  0  0  0  0  0  0  0  0  0  0  # atno 10765 bound_to 10752
  140.1623  134.8601  157.2589 H   0  0  0  0  0  0  0  0  0  0  0  0  # atno 11005 bound_to 11000
  146.2960  140.4149  142.8721 LP  0  0  0  0  0  0  0  0  0  0  0  0  # atno 17320 bound_to 7965
  144.8704  140.7264  143.6050 LP  0  0  0  0  0  0  0  0  0  0  0  0  # atno 17321 bound_to 7965
  140.6782  143.8142  150.7086 LP  0  0  0  0  0  0  0  0  0  0  0  0  # atno 17342 bound_to 10162
  140.1587  143.4294  152.2082 LP  0  0  0  0  0  0  0  0  0  0  0  0  # atno 17343 bound_to 10162
  157.7501  131.0129  150.3404 LP  0  0  0  0  0  0  0  0  0  0  0  0  # atno 17370 bound_to 10713
  156.3788  130.3877  149.7117 LP  0  0  0  0  0  0  0  0  0  0  0  0  # atno 17371 bound_to 10713
  140.2475  134.3722  155.7455 LP  0  0  0  0  0  0  0  0  0  0  0  0  # atno 17394 bound_to 11000
  141.2210  133.7298  156.8884 LP  0  0  0  0  0  0  0  0  0  0  0  0  # atno 17395 bound_to 11000

$$$$
