AV-unprocessed.smi:2044|AV-procd|sdf|8306|dock4
  -GOLD-   2272010573D 1   1.00000     0.00000
 Structure written by MMmdl.
 39 40  0  0  0  0  0  0  0  0  3 V2000
  153.8705  141.3854  160.8649 C   0  0  0  0  0  0  0  0  0  0  0  0
  153.0109  141.5941  159.6659 C   0  0  0  0  0  0  0  0  0  0  0  0
  152.6982  140.8036  158.5961 C   0  0  0  0  0  0  0  0  0  0  0  0
  151.8290  141.6264  157.8312 C   0  0  0  0  0  0  0  0  0  0  0  0
  151.2696  141.1533  156.6149 N   0  0  0  0  0  0  0  0  0  0  0  0
  151.6897  140.1444  155.8300 C   0  0  0  0  0  0  0  0  0  0  0  0
  152.6793  139.4752  156.1494 O   0  0  0  0  0  0  0  0  0  0  0  0
  150.9110  139.9963  154.7233 N   0  5  0  0  0  0  0  0  0  0  0  0
  149.7851  139.0685  154.6070 C   0  0  0  0  0  0  0  0  0  0  0  0
  148.7374  139.6100  153.5982 C   0  0  2  0  0  0  0  0  0  0  0  0
  148.0348  140.9157  154.0491 C   0  0  0  0  0  0  0  0  0  0  0  0
  147.7717  138.5333  153.2142 N   0  3  0  0  0  0  0  0  0  0  0  0
  147.0672  137.8389  154.3284 C   0  0  0  0  0  0  0  0  0  0  0  0
  146.2466  136.6610  153.7798 C   0  0  0  0  0  0  0  0  0  0  0  0
  145.3191  137.1399  152.8135 O   0  0  0  0  0  0  0  0  0  0  0  0
  145.9704  137.7452  151.7030 C   0  0  0  0  0  0  0  0  0  0  0  0
  146.7973  138.9527  152.1762 C   0  0  0  0  0  0  0  0  0  0  0  0
  151.6299  142.8129  158.3861 N   0  0  0  0  0  0  0  0  0  0  0  0
  152.3863  142.7983  159.5640 O   0  0  0  0  0  0  0  0  0  0  0  0
  154.3209  140.3927  160.8538 H   0  0  0  0  0  0  0  0  0  0  0  0
  153.2864  141.4809  161.7801 H   0  0  0  0  0  0  0  0  0  0  0  0
  154.6737  142.1215  160.8971 H   0  0  0  0  0  0  0  0  0  0  0  0
  153.0371  139.7985  158.3942 H   0  0  0  0  0  0  0  0  0  0  0  0
  150.4481  141.6436  156.2941 H   0  0  0  0  0  0  0  0  0  0  0  0
  150.1018  138.0806  154.2683 H   0  0  0  0  0  0  0  0  0  0  0  0
  149.3023  138.9014  155.5702 H   0  0  0  0  0  0  0  0  0  0  0  0
  149.3006  139.8545  152.6957 H   0  0  0  0  0  0  0  0  0  0  0  0
  148.7436  141.7365  154.1722 H   0  0  0  0  0  0  0  0  0  0  0  0
  147.5028  140.8037  154.9955 H   0  0  0  0  0  0  0  0  0  0  0  0
  147.3106  141.2439  153.3036 H   0  0  0  0  0  0  0  0  0  0  0  0
  147.7798  137.4714  155.0671 H   0  0  0  0  0  0  0  0  0  0  0  0
  146.3988  138.5305  154.8426 H   0  0  0  0  0  0  0  0  0  0  0  0
  146.8963  135.9037  153.3380 H   0  0  0  0  0  0  0  0  0  0  0  0
  145.6965  136.1780  154.5874 H   0  0  0  0  0  0  0  0  0  0  0  0
  146.6041  137.0150  151.1969 H   0  0  0  0  0  0  0  0  0  0  0  0
  145.2168  138.0651  150.9833 H   0  0  0  0  0  0  0  0  0  0  0  0
  146.1404  139.7254  152.5776 H   0  0  0  0  0  0  0  0  0  0  0  0
  147.3200  139.3853  151.3222 H   0  0  0  0  0  0  0  0  0  0  0  0
  148.3448  137.8316  152.7672 H   0  0  0  0  0  0  0  0  0  0  0  0
  1  2  1  0  0  0  0
  1 20  1  0  0  0  0
  1 21  1  0  0  0  0
  1 22  1  0  0  0  0
  2 19  1  0  0  0  0
  2  3  2  0  0  0  0
  3  4  1  0  0  0  0
  3 23  1  0  0  0  0
  4  5  1  0  0  0  0
  4 18  2  0  0  0  0
  5  6  1  0  0  0  0
  5 24  1  0  0  0  0
  6  7  2  0  0  0  0
  6  8  1  0  0  0  0
  8  9  1  0  0  0  0
  9 10  1  0  0  0  0
  9 25  1  0  0  0  0
  9 26  1  0  0  0  0
 10 11  1  0  0  0  0
 10 12  1  0  0  0  0
 10 27  1  0  0  0  0
 11 28  1  0  0  0  0
 11 29  1  0  0  0  0
 11 30  1  0  0  0  0
 12 17  1  0  0  0  0
 12 13  1  0  0  0  0
 12 39  1  0  0  0  0
 13 14  1  0  0  0  0
 13 31  1  0  0  0  0
 13 32  1  0  0  0  0
 14 15  1  0  0  0  0
 14 33  1  0  0  0  0
 14 34  1  0  0  0  0
 15 16  1  0  0  0  0
 16 17  1  0  0  0  0
 16 35  1  0  0  0  0
 16 36  1  0  0  0  0
 17 37  1  0  0  0  0
 17 38  1  0  0  0  0
 18 19  1  0  0  0  0
M  CHG  1   8  -1
M  CHG  1  12   1
M  END
> <s_m_source_file>
AV-unprocessed.smi

> <i_m_source_file_index>
2044

> <i_lp_mmshare_version>
43012

> <i_f3d_flags>
0

> <s_epik_input>
W0NIM11jMVtjSF1jKG5vMSlbTkhdQyg9TylbTkhdW0NIMl1bQ0BIXShbQ0gzXSlOMltDSDJdW0NIMl1PW0NIMl1bQ0gyXTI=

> <s_epik_cmdline>
J2VwaWtfcHl0aG9uJywgJy1waCcsICc3LjAnLCAnLXRuJywgJzgnLCAnLW1hJywgJzIwMCcsICctbWV0YWxfYmluZGluZycsICctaW1hZScsICc8aW5maWxlLm1hZT4nLCAnLW9tYWUnLCAnPG91dGZpbGUubWFlPic=

> <r_epik_Ionization_Penalty>
6.79272

> <r_epik_Ionization_Penalty_Charging>
6.79272

> <r_epik_Ionization_Penalty_Neutral>
5.6208e-06

> <r_epik_State_Penalty>
7.45901

> <r_epik_Charging_Adjusted_Penalty>
14.2517

> <i_epik_Tot_Q>
0

> <i_epik_Tot_abs_Q>
2

> <r_epik_Metal_State_Penalty>
3.38639

> <b_epik_Metal_Only>
1

> <s_lp_Force_Field>
OPLS_2005

> <r_lp_Energy>
17.6269

> <b_lp_Chiralities_Consistent>
1

> <s_lp_Variant>
AV-unprocessed.smi:2044-9

> <Gold.Version>
5.8.1

> <Gold.Id.Protein>
6NUR|6NUR_protein|mol2

> <Gold.PLP.Fitness>
41.8968

> <Gold.PLP.PLP>
-32.0684

> <Gold.PLP.part.hbond>
-3.5525

> <Gold.PLP.part.metal>
0.0000

> <Gold.PLP.part.buried>
0.4203

> <Gold.PLP.part.nonpolar>
-29.3948

> <Gold.PLP.part.repulsive>
0.4952

> <Gold.PLP.ligand.clash>
0.0000

> <Gold.PLP.ligand.torsion>
1.1485

> <Gold.PLP.Chemscore.Hbond>
4.0000

> <Gold.PLP.Chemscore.CHOScore>
0.0000

> <Gold.PLP.Chemscore.Metal>
0.0000

> <Gold.Chemscore.Hbonds>
donor molecule, donor type, donor heavy atom, donor atom, acceptor molecule, acceptor atom, score
      L1  H    12    39       P1  7948  2.00
      P1  H  7989  7998       L1     8  1.00
      P1  H  7997  8009       L1     7  1.00

> <Gold.PLP.Chemscore.Internal.Correction>
0.1254

> <Gold.Rescore>
     Score         DG    S(hbond)    S(metal)    S(lipo)     H(rot)  DE(clash)    DE(int)     intcor
     14.35     -17.35       2.48        0.00      65.53       1.59       0.43       2.57       ----

> <Gold.Chemscore.Fitness>
14.3524

> <Gold.Chemscore.DG>
-17.3529

> <Gold.Chemscore.ZeroCoef>
-5.4800

> <Gold.Chemscore.Hbond>
2.4803

> <Gold.Chemscore.Metal>
0.0000

> <Gold.Chemscore.Lipo>
65.5292

> <Gold.Chemscore.Internal_Hbond>
0.0000

> <Gold.Chemscore.DEClash>
0.4308

> <Gold.Chemscore.DEInternal>
2.5698

> <Gold.Chemscore.Rot>
1.5930

> <Gold.Chemscore.Internal.Correction>
   9.000000E+99

> <Gold.Chemscore.Hbonds>
donor molecule, donor type, donor heavy atom, donor atom, acceptor molecule, acceptor atom, score
      L1  H    12    39       P1  7948  1.00
      P1  H  7989  7998       L1     8  0.60
      P1  H  7997  8009       L1     7  1.00

> <Gold.Chemscore.Hbond.Weighted>
-8.2841

> <Gold.Chemscore.Metal.Weighted>
-0.0000

> <Gold.Chemscore.Lipo.Weighted>
-7.6669

> <Gold.Chemscore.Internal_Hbond.Weighted>
0.0000

> <Gold.Chemscore.DEClash.Weighted>
0.4308

> <Gold.Chemscore.DEInternal.Weighted>
2.5698

> <Gold.Chemscore.Rot.Weighted>
4.0781

> <Gold.Chemscore.Internal.Correction.Weighted>
   9.000000E+99

> <Gold.Protein.RotatedTorsions>
[ 6907 6896 6895 6894 ] final   -8.60 input  -60.11 | X-H torsion
[ 7974 7965 7964 7962 ] final  148.34 input  175.53 | X-H torsion
[ 8008 7997 7996 7995 ] final -156.71 input   59.86 | X-H torsion
[ 10167 10162 10161 10158 ] final   67.21 input  -65.29 | X-H torsion
[ 10718 10713 10712 10709 ] final   79.10 input   66.30 | X-H torsion
[ 10763 10752 10751 10750 ] final -145.02 input  -60.55 | X-H torsion
[ 11005 11000 10999 10996 ] final  -10.67 input  -57.11 | X-H torsion

> <Gold.Protein.ActiveResidues>
 VAL166  LYS551  ARG553  GLY616  TRP617  ASP618  TYR619  PRO620  LYS621  CYS622 
 ASP623  PHE694  ASN695  SER759  ASP760  ASP761  ALA762  ILE779  LEU786  VAL792 
 PHE793  MET794  SER795  GLU796  ALA797  LYS798  CYS799  TRP800  GLU811  SER814 

> <Gold.Protein.RotatedAtoms>
  151.4310  135.1009  159.9641 H   0  0  0  0  0  0  0  0  0  0  0  0  # atno 6907 bound_to 6896
  152.4956  133.8617  159.7264 H   0  0  0  0  0  0  0  0  0  0  0  0  # atno 6908 bound_to 6896
  150.9155  133.6886  159.2872 H   0  0  0  0  0  0  0  0  0  0  0  0  # atno 6909 bound_to 6896
  144.8522  139.6141  143.5969 H   0  0  0  0  0  0  0  0  0  0  0  0  # atno 7974 bound_to 7965
  155.7213  140.0790  157.2329 H   0  0  0  0  0  0  0  0  0  0  0  0  # atno 8008 bound_to 7997
  154.4045  140.1612  156.2459 H   0  0  0  0  0  0  0  0  0  0  0  0  # atno 8009 bound_to 7997
  155.9194  140.3399  155.6163 H   0  0  0  0  0  0  0  0  0  0  0  0  # atno 8010 bound_to 7997
  140.0920  144.4979  150.7092 H   0  0  0  0  0  0  0  0  0  0  0  0  # atno 10167 bound_to 10162
  157.6766  130.9899  150.1883 H   0  0  0  0  0  0  0  0  0  0  0  0  # atno 10718 bound_to 10713
  154.8402  135.3424  154.6438 H   0  0  0  0  0  0  0  0  0  0  0  0  # atno 10763 bound_to 10752
  153.7049  135.6967  153.5057 H   0  0  0  0  0  0  0  0  0  0  0  0  # atno 10764 bound_to 10752
  153.2495  135.4358  155.0736 H   0  0  0  0  0  0  0  0  0  0  0  0  # atno 10765 bound_to 10752
  140.7472  133.8621  155.9015 H   0  0  0  0  0  0  0  0  0  0  0  0  # atno 11005 bound_to 11000
  146.2794  139.6836  142.9240 LP  0  0  0  0  0  0  0  0  0  0  0  0  # atno 17320 bound_to 7965
  145.4478  141.0426  143.2821 LP  0  0  0  0  0  0  0  0  0  0  0  0  # atno 17321 bound_to 7965
  140.7023  143.2443  151.4827 LP  0  0  0  0  0  0  0  0  0  0  0  0  # atno 17342 bound_to 10162
  139.5719  144.1908  152.1849 LP  0  0  0  0  0  0  0  0  0  0  0  0  # atno 17343 bound_to 10162
  156.2600  130.3710  149.8141 LP  0  0  0  0  0  0  0  0  0  0  0  0  # atno 17370 bound_to 10713
  156.5888  130.8497  151.3402 LP  0  0  0  0  0  0  0  0  0  0  0  0  # atno 17371 bound_to 10713
  140.9783  134.1439  157.4516 LP  0  0  0  0  0  0  0  0  0  0  0  0  # atno 17394 bound_to 11000
  139.8794  135.0002  156.5997 LP  0  0  0  0  0  0  0  0  0  0  0  0  # atno 17395 bound_to 11000

$$$$
