AV-unprocessed.smi:1274|AV-procd|sdf|5341|dock8
  -GOLD-   22720 4473D 1   1.00000     0.00000
 Structure written by MMmdl.
 36 37  0  0  0  0  0  0  0  0  2 V2000
  151.2858  138.2512  158.8998 O   0  0  0  0  0  0  0  0  0  0  0  0
  152.4542  138.8766  158.2591 S   0  0  0  0  0  0  0  0  0  0  0  0
  153.6154  138.0211  157.9636 O   0  0  0  0  0  0  0  0  0  0  0  0
  152.0414  139.8694  157.0477 N   0  5  0  0  0  0  0  0  0  0  0  0
  150.8187  139.6186  156.3050 C   0  0  0  0  0  0  0  0  0  0  0  0
  150.1547  140.9564  155.9113 C   0  0  0  0  0  0  0  0  0  0  0  0
  148.7675  140.8185  155.2908 C   0  0  0  0  0  0  0  0  0  0  0  0
  148.2675  139.5558  154.9030 C   0  0  0  0  0  0  0  0  0  0  0  0
  146.9837  139.4773  154.3304 C   0  0  0  0  0  0  0  0  0  0  0  0
  146.2515  140.6692  154.1632 C   0  0  0  0  0  0  0  0  0  0  0  0
  146.7188  141.8845  154.5213 N   0  0  0  0  0  0  0  0  0  0  0  0
  147.9499  141.9500  155.0730 C   0  0  0  0  0  0  0  0  0  0  0  0
  153.0332  140.0972  159.3549 N   0  0  0  0  0  0  0  0  0  0  0  0
  152.1162  141.2148  159.6616 C   0  0  0  0  0  0  0  0  0  0  0  0
  152.8565  142.3928  160.3180 C   0  0  0  0  0  0  0  0  0  0  0  0
  153.6279  141.9433  161.5613 C   0  0  0  0  0  0  0  0  0  0  0  0
  154.5844  140.8119  161.1771 C   0  0  0  0  0  0  0  0  0  0  0  0
  153.8282  139.6458  160.5213 C   0  0  0  0  0  0  0  0  0  0  0  0
  151.0019  139.0374  155.4005 H   0  0  0  0  0  0  0  0  0  0  0  0
  150.1123  139.0346  156.8955 H   0  0  0  0  0  0  0  0  0  0  0  0
  150.0695  141.5857  156.7978 H   0  0  0  0  0  0  0  0  0  0  0  0
  150.8001  141.5029  155.2220 H   0  0  0  0  0  0  0  0  0  0  0  0
  148.8563  138.6618  155.0489 H   0  0  0  0  0  0  0  0  0  0  0  0
  146.5705  138.5265  154.0285 H   0  0  0  0  0  0  0  0  0  0  0  0
  145.2638  140.6460  153.7271 H   0  0  0  0  0  0  0  0  0  0  0  0
  148.2933  142.9361  155.3494 H   0  0  0  0  0  0  0  0  0  0  0  0
  151.6388  141.5647  158.7468 H   0  0  0  0  0  0  0  0  0  0  0  0
  151.3221  140.8511  160.3146 H   0  0  0  0  0  0  0  0  0  0  0  0
  153.5474  142.8345  159.5987 H   0  0  0  0  0  0  0  0  0  0  0  0
  152.1456  143.1753  160.5840 H   0  0  0  0  0  0  0  0  0  0  0  0
  154.1826  142.7806  161.9857 H   0  0  0  0  0  0  0  0  0  0  0  0
  152.9329  141.6009  162.3288 H   0  0  0  0  0  0  0  0  0  0  0  0
  155.3428  141.1873  160.4888 H   0  0  0  0  0  0  0  0  0  0  0  0
  155.1164  140.4580  162.0603 H   0  0  0  0  0  0  0  0  0  0  0  0
  153.1580  139.1776  161.2431 H   0  0  0  0  0  0  0  0  0  0  0  0
  154.5437  138.8806  160.2224 H   0  0  0  0  0  0  0  0  0  0  0  0
  1  2  2  0  0  0  0
  2  3  2  0  0  0  0
  2  4  1  0  0  0  0
  2 13  1  0  0  0  0
  4  5  1  0  0  0  0
  5  6  1  0  0  0  0
  5 19  1  0  0  0  0
  5 20  1  0  0  0  0
  6  7  1  0  0  0  0
  6 21  1  0  0  0  0
  6 22  1  0  0  0  0
  7 12  1  0  0  0  0
  7  8  2  0  0  0  0
  8  9  1  0  0  0  0
  8 23  1  0  0  0  0
  9 10  2  0  0  0  0
  9 24  1  0  0  0  0
 10 11  1  0  0  0  0
 10 25  1  0  0  0  0
 11 12  2  0  0  0  0
 12 26  1  0  0  0  0
 13 18  1  0  0  0  0
 13 14  1  0  0  0  0
 14 15  1  0  0  0  0
 14 27  1  0  0  0  0
 14 28  1  0  0  0  0
 15 16  1  0  0  0  0
 15 29  1  0  0  0  0
 15 30  1  0  0  0  0
 16 17  1  0  0  0  0
 16 31  1  0  0  0  0
 16 32  1  0  0  0  0
 17 18  1  0  0  0  0
 17 33  1  0  0  0  0
 17 34  1  0  0  0  0
 18 35  1  0  0  0  0
 18 36  1  0  0  0  0
M  CHG  1   4  -1
M  END
> <s_m_source_file>
AV-unprocessed.smi

> <i_m_source_file_index>
1274

> <i_lp_mmshare_version>
43012

> <i_f3d_flags>
0

> <s_epik_input>
W0NIMl0xW0NIMl1bQ0gyXVtDSDJdW0NIMl1OMVMoPU8pKD1PKVtOSF1bQ0gyXVtDSDJdYzJbY0hdW2NIXVtjSF1uW2NIXTI=

> <s_epik_cmdline>
J2VwaWtfcHl0aG9uJywgJy1waCcsICc3LjAnLCAnLXRuJywgJzgnLCAnLW1hJywgJzIwMCcsICctbWV0YWxfYmluZGluZycsICctaW1hZScsICc8aW5maWxlLm1hZT4nLCAnLW9tYWUnLCAnPG91dGZpbGUubWFlPic=

> <r_epik_Ionization_Penalty>
1.98317

> <r_epik_Ionization_Penalty_Charging>
1.95606

> <r_epik_Ionization_Penalty_Neutral>
0.027117

> <r_epik_State_Penalty>
2.28376

> <r_epik_Charging_Adjusted_Penalty>
4.23982

> <i_epik_Tot_Q>
-1

> <i_epik_Tot_abs_Q>
1

> <r_epik_Metal_State_Penalty>
0.598332

> <b_epik_Metal_Only>
0

> <s_lp_Force_Field>
OPLS_2005

> <r_lp_Energy>
4.69546

> <b_lp_Chiralities_Consistent>
1

> <s_lp_Variant>
AV-unprocessed.smi:1274-2

> <Gold.Version>
5.8.1

> <Gold.Id.Protein>
6NUR|6NUR_protein|mol2

> <Gold.PLP.Fitness>
45.1826

> <Gold.PLP.PLP>
-33.9986

> <Gold.PLP.part.hbond>
-1.2551

> <Gold.PLP.part.metal>
0.0000

> <Gold.PLP.part.buried>
-2.0079

> <Gold.PLP.part.nonpolar>
-30.9769

> <Gold.PLP.part.repulsive>
0.1698

> <Gold.PLP.ligand.clash>
0.0000

> <Gold.PLP.ligand.torsion>
1.1879

> <Gold.PLP.Chemscore.Hbond>
2.0000

> <Gold.PLP.Chemscore.CHOScore>
2.0000

> <Gold.PLP.Chemscore.Metal>
0.0000

> <Gold.Chemscore.Hbonds>
donor molecule, donor type, donor heavy atom, donor atom, acceptor molecule, acceptor atom, score
      P1  H  7997  8010       L1     4  0.11
      L1  C    10    25       P1 10175  0.97
      L1  C    12    26       P1  8028  0.64

> <Gold.PLP.Chemscore.Internal.Correction>
1.5598

> <Gold.Rescore>
     Score         DG    S(hbond)    S(metal)    S(lipo)     H(rot)  DE(clash)    DE(int)     intcor
     13.67     -14.94       0.83        0.00      89.02       1.45       0.08       1.19       ----

> <Gold.Chemscore.Fitness>
13.6681

> <Gold.Chemscore.DG>
-14.9351

> <Gold.Chemscore.ZeroCoef>
-5.4800

> <Gold.Chemscore.Hbond>
0.8272

> <Gold.Chemscore.Metal>
0.0000

> <Gold.Chemscore.Lipo>
89.0192

> <Gold.Chemscore.Internal_Hbond>
0.0000

> <Gold.Chemscore.DEClash>
0.0755

> <Gold.Chemscore.DEInternal>
1.1915

> <Gold.Chemscore.Rot>
1.4544

> <Gold.Chemscore.Internal.Correction>
   9.000000E+99

> <Gold.Chemscore.Hbond.Weighted>
-2.7630

> <Gold.Chemscore.Metal.Weighted>
-0.0000

> <Gold.Chemscore.Lipo.Weighted>
-10.4153

> <Gold.Chemscore.Internal_Hbond.Weighted>
0.0000

> <Gold.Chemscore.DEClash.Weighted>
0.0755

> <Gold.Chemscore.DEInternal.Weighted>
1.1915

> <Gold.Chemscore.Rot.Weighted>
3.7232

> <Gold.Chemscore.Internal.Correction.Weighted>
   9.000000E+99

> <Gold.Protein.RotatedTorsions>
[ 6907 6896 6895 6894 ] final -104.55 input  -60.11 | X-H torsion
[ 7974 7965 7964 7962 ] final  -93.87 input  175.53 | X-H torsion
[ 8008 7997 7996 7995 ] final   73.64 input   59.86 | X-H torsion
[ 10167 10162 10161 10158 ] final -158.70 input  -65.29 | X-H torsion
[ 10718 10713 10712 10709 ] final   11.12 input   66.30 | X-H torsion
[ 10763 10752 10751 10750 ] final   -5.52 input  -60.55 | X-H torsion
[ 11005 11000 10999 10996 ] final  -21.94 input  -57.11 | X-H torsion

> <Gold.Protein.ActiveResidues>
 VAL166  LYS551  ARG553  GLY616  TRP617  ASP618  TYR619  PRO620  LYS621  CYS622 
 ASP623  PHE694  ASN695  SER759  ASP760  ASP761  ALA762  ILE779  LEU786  VAL792 
 PHE793  MET794  SER795  GLU796  ALA797  LYS798  CYS799  TRP800  GLU811  SER814 

> <Gold.Protein.RotatedAtoms>
  150.7293  134.0261  159.3717 H   0  0  0  0  0  0  0  0  0  0  0  0  # atno 6907 bound_to 6896
  151.8228  135.0644  160.0436 H   0  0  0  0  0  0  0  0  0  0  0  0  # atno 6908 bound_to 6896
  152.2991  133.5601  159.5643 H   0  0  0  0  0  0  0  0  0  0  0  0  # atno 6909 bound_to 6896
  145.3807  140.9517  143.2395 H   0  0  0  0  0  0  0  0  0  0  0  0  # atno 7974 bound_to 7965
  155.7867  140.3480  155.5326 H   0  0  0  0  0  0  0  0  0  0  0  0  # atno 8008 bound_to 7997
  155.8675  140.0981  157.1593 H   0  0  0  0  0  0  0  0  0  0  0  0  # atno 8009 bound_to 7997
  154.4015  140.1347  156.4024 H   0  0  0  0  0  0  0  0  0  0  0  0  # atno 8010 bound_to 7997
  139.6671  143.9809  152.2261 H   0  0  0  0  0  0  0  0  0  0  0  0  # atno 10167 bound_to 10162
  156.9910  130.6042  149.5686 H   0  0  0  0  0  0  0  0  0  0  0  0  # atno 10718 bound_to 10713
  153.3996  135.7004  153.6435 H   0  0  0  0  0  0  0  0  0  0  0  0  # atno 10763 bound_to 10752
  153.4974  135.3659  155.2523 H   0  0  0  0  0  0  0  0  0  0  0  0  # atno 10764 bound_to 10752
  154.8709  135.4103  154.3329 H   0  0  0  0  0  0  0  0  0  0  0  0  # atno 10765 bound_to 10752
  140.8609  133.7788  156.0074 H   0  0  0  0  0  0  0  0  0  0  0  0  # atno 11005 bound_to 11000
  144.8509  139.5323  143.6857 LP  0  0  0  0  0  0  0  0  0  0  0  0  # atno 17320 bound_to 7965
  146.2843  139.6961  142.9207 LP  0  0  0  0  0  0  0  0  0  0  0  0  # atno 17321 bound_to 7965
  139.9564  144.6587  150.8122 LP  0  0  0  0  0  0  0  0  0  0  0  0  # atno 17342 bound_to 10162
  140.7604  143.3150  151.2755 LP  0  0  0  0  0  0  0  0  0  0  0  0  # atno 17343 bound_to 10162
  156.0207  130.5302  150.8267 LP  0  0  0  0  0  0  0  0  0  0  0  0  # atno 17370 bound_to 10713
  157.5459  131.0942  150.9763 LP  0  0  0  0  0  0  0  0  0  0  0  0  # atno 17371 bound_to 10713
  140.8683  134.2757  157.5202 LP  0  0  0  0  0  0  0  0  0  0  0  0  # atno 17394 bound_to 11000
  139.8707  134.9554  156.4205 LP  0  0  0  0  0  0  0  0  0  0  0  0  # atno 17395 bound_to 11000

$$$$
