AV-unprocessed.smi:21|AV-procd|sdf|141|dock6
  -GOLD-   2262015343D 1   1.00000     0.00000
 Structure written by MMmdl.
 62 65  0  0  0  0  0  0  0  0  2 V2000
  143.5041  133.0347  148.6484 C   0  0  0  0  0  0  0  0  0  0  0  0
  143.8900  131.9054  149.4152 O   0  0  0  0  0  0  0  0  0  0  0  0
  144.0647  132.1892  150.7953 C   0  0  1  0  0  0  0  0  0  0  0  0
  145.1304  133.2470  151.0631 C   0  0  0  0  0  0  0  0  0  0  0  0
  144.7490  133.8010  152.4430 C   0  0  1  0  0  0  0  0  0  0  0  0
  145.2825  135.2297  152.7134 C   0  0  0  0  0  0  0  0  0  0  0  0
  145.9841  135.3314  153.9970 N   0  0  0  0  0  0  0  0  0  0  0  0
  146.4599  134.0963  154.6089 C   0  0  0  0  0  0  0  0  0  0  0  0
  146.3793  136.5412  154.4942 C   0  0  0  0  0  0  0  0  0  0  0  0
  145.6309  137.6370  154.1952 N   0  0  0  0  0  0  0  0  0  0  0  0
  145.9643  138.8460  154.6518 C   0  0  0  0  0  0  0  0  0  0  0  0
  146.9960  139.1879  155.4214 N   0  0  0  0  0  0  0  0  0  0  0  0
  147.7581  138.1033  155.7365 C   0  0  0  0  0  0  0  0  0  0  0  0
  147.5301  136.7587  155.3168 C   0  0  0  0  0  0  0  0  0  0  0  0
  148.5376  135.9462  155.8269 N   0  0  0  0  0  0  0  0  0  0  0  0
  149.3028  136.7538  156.5062 C   0  0  0  0  0  0  0  0  0  0  0  0
  148.8989  138.0683  156.5217 N   0  0  0  0  0  0  0  0  0  0  0  0
  149.5578  139.1780  157.1984 C   0  0  0  0  0  0  0  0  0  0  0  0
  151.0854  139.2790  156.9317 C   0  0  1  0  0  0  0  0  0  0  0  0
  151.4165  139.2359  155.4213 C   0  0  0  0  0  0  0  0  0  0  0  0
  152.8130  139.1946  155.2146 O   0  0  0  0  0  0  0  0  0  0  0  0
  151.7264  140.5143  157.6182 C   0  0  2  0  0  0  0  0  0  0  0  0
  151.5743  140.5644  159.1298 C   0  0  0  0  0  0  0  0  0  0  0  0
  151.8350  142.0350  159.4429 C   0  0  0  0  0  0  0  0  0  0  0  0
  151.4329  142.7590  158.2853 O   0  0  0  0  0  0  0  0  0  0  0  0
  151.0781  141.8527  157.2476 C   0  0  0  0  0  0  0  0  0  0  0  0
  143.2702  133.6238  152.5519 N   0  3  1  0  0  0  0  0  0  0  0  0
  142.4470  134.8283  152.8132 C   0  0  0  0  0  0  0  0  0  0  0  0
  142.8165  132.8544  151.3707 C   0  0  0  0  0  0  0  0  0  0  0  0
  144.2813  131.2791  151.3583 H   0  0  0  0  0  0  0  0  0  0  0  0
  145.1678  133.1314  153.1957 H   0  0  0  0  0  0  0  0  0  0  0  0
  143.4261  132.7524  147.5986 H   0  0  0  0  0  0  0  0  0  0  0  0
  144.2410  133.8352  148.7257 H   0  0  0  0  0  0  0  0  0  0  0  0
  142.5335  133.4202  148.9615 H   0  0  0  0  0  0  0  0  0  0  0  0
  146.1448  132.8477  151.0366 H   0  0  0  0  0  0  0  0  0  0  0  0
  145.0581  134.0324  150.3095 H   0  0  0  0  0  0  0  0  0  0  0  0
  145.8978  135.5758  151.8836 H   0  0  0  0  0  0  0  0  0  0  0  0
  144.4460  135.9273  152.7591 H   0  0  0  0  0  0  0  0  0  0  0  0
  147.5337  133.9815  154.4596 H   0  0  0  0  0  0  0  0  0  0  0  0
  145.9694  133.2275  154.1694 H   0  0  0  0  0  0  0  0  0  0  0  0
  146.2461  134.0857  155.6779 H   0  0  0  0  0  0  0  0  0  0  0  0
  145.3099  139.6545  154.3607 H   0  0  0  0  0  0  0  0  0  0  0  0
  150.1859  136.4045  157.0194 H   0  0  0  0  0  0  0  0  0  0  0  0
  149.0581  140.1006  156.9025 H   0  0  0  0  0  0  0  0  0  0  0  0
  149.3714  139.0820  158.2685 H   0  0  0  0  0  0  0  0  0  0  0  0
  151.5417  138.3957  157.3813 H   0  0  0  0  0  0  0  0  0  0  0  0
  150.9469  138.3817  154.9335 H   0  0  0  0  0  0  0  0  0  0  0  0
  151.0506  140.1272  154.9134 H   0  0  0  0  0  0  0  0  0  0  0  0
  153.0705  138.2959  155.0758 H   0  0  0  0  0  0  0  0  0  0  0  0
  152.7913  140.5582  157.3868 H   0  0  0  0  0  0  0  0  0  0  0  0
  150.5570  140.2965  159.4193 H   0  0  0  0  0  0  0  0  0  0  0  0
  152.2640  139.9045  159.6567 H   0  0  0  0  0  0  0  0  0  0  0  0
  151.2967  142.3709  160.3293 H   0  0  0  0  0  0  0  0  0  0  0  0
  152.8992  142.2086  159.6067 H   0  0  0  0  0  0  0  0  0  0  0  0
  151.3980  142.2304  156.2774 H   0  0  0  0  0  0  0  0  0  0  0  0
  149.9910  141.7622  157.2286 H   0  0  0  0  0  0  0  0  0  0  0  0
  142.5532  135.5662  152.0171 H   0  0  0  0  0  0  0  0  0  0  0  0
  142.7154  135.2918  153.7626 H   0  0  0  0  0  0  0  0  0  0  0  0
  141.3935  134.5535  152.8756 H   0  0  0  0  0  0  0  0  0  0  0  0
  142.3993  133.5386  150.6292 H   0  0  0  0  0  0  0  0  0  0  0  0
  142.0402  132.1345  151.6320 H   0  0  0  0  0  0  0  0  0  0  0  0
  143.1350  133.0174  153.3485 H   0  0  0  0  0  0  0  0  0  0  0  0
  1  2  1  0  0  0  0
  1 32  1  0  0  0  0
  1 33  1  0  0  0  0
  1 34  1  0  0  0  0
  2  3  1  0  0  0  0
  3 30  1  0  0  0  0
  3 29  1  0  0  0  0
  3  4  1  0  0  0  0
  4  5  1  0  0  0  0
  4 35  1  0  0  0  0
  4 36  1  0  0  0  0
  5 31  1  0  0  0  0
  5  6  1  0  0  0  0
  5 27  1  0  0  0  0
  6  7  1  0  0  0  0
  6 37  1  0  0  0  0
  6 38  1  0  0  0  0
  7  8  1  0  0  0  0
  7  9  1  0  0  0  0
  8 39  1  0  0  0  0
  8 40  1  0  0  0  0
  8 41  1  0  0  0  0
  9 14  1  0  0  0  0
  9 10  2  0  0  0  0
 10 11  1  0  0  0  0
 11 12  2  0  0  0  0
 11 42  1  0  0  0  0
 12 13  1  0  0  0  0
 13 17  1  0  0  0  0
 13 14  2  0  0  0  0
 14 15  1  0  0  0  0
 15 16  2  0  0  0  0
 16 17  1  0  0  0  0
 16 43  1  0  0  0  0
 17 18  1  0  0  0  0
 18 19  1  0  0  0  0
 18 44  1  0  0  0  0
 18 45  1  0  0  0  0
 19 20  1  0  0  0  0
 19 22  1  0  0  0  0
 19 46  1  0  0  0  0
 20 21  1  0  0  0  0
 20 47  1  0  0  0  0
 20 48  1  0  0  0  0
 21 49  1  0  0  0  0
 22 26  1  0  0  0  0
 22 23  1  0  0  0  0
 22 50  1  0  0  0  0
 23 24  1  0  0  0  0
 23 51  1  0  0  0  0
 23 52  1  0  0  0  0
 24 25  1  0  0  0  0
 24 53  1  0  0  0  0
 24 54  1  0  0  0  0
 25 26  1  0  0  0  0
 26 55  1  0  0  0  0
 26 56  1  0  0  0  0
 27 28  1  0  0  0  0
 27 29  1  0  0  0  0
 27 62  1  0  0  0  0
 28 57  1  0  0  0  0
 28 58  1  0  0  0  0
 28 59  1  0  0  0  0
 29 60  1  0  0  0  0
 29 61  1  0  0  0  0
M  CHG  1  27   1
M  END
> <s_m_source_file>
AV-unprocessed.smi

> <i_m_source_file_index>
21

> <i_lp_mmshare_version>
43012

> <i_f3d_flags>
0

> <s_epik_input>
W0NIM11PW0NASF0xW0NIMl1bQ0BIXShOKFtDSDNdKVtDSDJdMSlbQ0gyXU4oW0NIM10pYyhuW2NIXW4yKWMoYzIzKW5bY0hdbjNbQ0gyXVtDQEhdKFtDSDJdW09IXSlbQ0BASF00W0NIMl1bQ0gyXU9bQ0gyXTQ=

> <s_epik_cmdline>
J2VwaWtfcHl0aG9uJywgJy1waCcsICc3LjAnLCAnLXRuJywgJzgnLCAnLW1hJywgJzIwMCcsICctbWV0YWxfYmluZGluZycsICctaW1hZScsICc8aW5maWxlLm1hZT4nLCAnLW9tYWUnLCAnPG91dGZpbGUubWFlPic=

> <r_lp_tautomer_probability>
1

> <r_epik_Ionization_Penalty>
0.0157465

> <r_epik_Ionization_Penalty_Charging>
0.015354

> <r_epik_Ionization_Penalty_Neutral>
0.000392529

> <r_epik_State_Penalty>
0.0120612

> <r_epik_Charging_Adjusted_Penalty>
0.0274152

> <i_epik_Tot_Q>
1

> <i_epik_Tot_abs_Q>
1

> <r_epik_Metal_State_Penalty>
0.0121253

> <b_epik_Metal_Only>
0

> <s_lp_Force_Field>
OPLS_2005

> <r_lp_Energy>
60.5885

> <b_lp_Chiralities_Consistent>
1

> <s_lp_Variant>
AV-unprocessed.smi:21-21

> <Gold.Version>
5.8.1

> <Gold.Id.Protein>
6NUR|6NUR_protein|mol2

> <Gold.PLP.Fitness>
46.7265

> <Gold.PLP.PLP>
-34.9485

> <Gold.PLP.part.hbond>
-3.9146

> <Gold.PLP.part.metal>
0.0000

> <Gold.PLP.part.buried>
-5.6282

> <Gold.PLP.part.nonpolar>
-28.3691

> <Gold.PLP.part.repulsive>
0.4866

> <Gold.PLP.ligand.clash>
0.0000

> <Gold.PLP.ligand.torsion>
1.3278

> <Gold.PLP.Chemscore.Hbond>
3.6720

> <Gold.PLP.Chemscore.CHOScore>
1.0000

> <Gold.PLP.Chemscore.Metal>
0.0000

> <Gold.Chemscore.Hbonds>
donor molecule, donor type, donor heavy atom, donor atom, acceptor molecule, acceptor atom, score
      L1  H    27    62       P1 10957  2.00
      P1  H  7997  8009       L1    21  1.00
      P1  H 10785 10796       L1     2  0.78
      L1  C    11    42       P1 10175  0.77

> <Gold.PLP.Chemscore.Internal.Correction>
0.4176

> <Gold.Rescore>
     Score         DG    S(hbond)    S(metal)    S(lipo)     H(rot)  DE(clash)    DE(int)     intcor
     14.12     -18.02       2.76        0.00      95.69       3.08       1.51       2.39       ----

> <Gold.Chemscore.Fitness>
14.1175

> <Gold.Chemscore.DG>
-18.0228

> <Gold.Chemscore.ZeroCoef>
-5.4800

> <Gold.Chemscore.Hbond>
2.7610

> <Gold.Chemscore.Metal>
0.0000

> <Gold.Chemscore.Lipo>
95.6863

> <Gold.Chemscore.Internal_Hbond>
0.0000

> <Gold.Chemscore.DEClash>
1.5135

> <Gold.Chemscore.DEInternal>
2.3918

> <Gold.Chemscore.Rot>
3.0758

> <Gold.Chemscore.Internal.Correction>
   9.000000E+99

> <Gold.Chemscore.Hbonds>
donor molecule, donor type, donor heavy atom, donor atom, acceptor molecule, acceptor atom, score
      L1  H    27    62       P1 10957  0.81
      P1  H  7997  8009       L1    21  0.57
      P1  H 10785 10796       L1     2  0.67

> <Gold.Chemscore.Hbond.Weighted>
-9.2217

> <Gold.Chemscore.Metal.Weighted>
-0.0000

> <Gold.Chemscore.Lipo.Weighted>
-11.1953

> <Gold.Chemscore.Internal_Hbond.Weighted>
0.0000

> <Gold.Chemscore.DEClash.Weighted>
1.5135

> <Gold.Chemscore.DEInternal.Weighted>
2.3918

> <Gold.Chemscore.Rot.Weighted>
7.8741

> <Gold.Chemscore.Internal.Correction.Weighted>
   9.000000E+99

> <Gold.Protein.RotatedTorsions>
[ 6907 6896 6895 6894 ] final  107.67 input  -60.11 | X-H torsion
[ 7974 7965 7964 7962 ] final  -42.24 input  175.53 | X-H torsion
[ 8008 7997 7996 7995 ] final -141.97 input   59.86 | X-H torsion
[ 10167 10162 10161 10158 ] final  -28.75 input  -65.29 | X-H torsion
[ 10718 10713 10712 10709 ] final  -41.26 input   66.30 | X-H torsion
[ 10763 10752 10751 10750 ] final  107.98 input  -60.55 | X-H torsion
[ 11005 11000 10999 10996 ] final  -92.27 input  -57.11 | X-H torsion

> <Gold.Protein.ActiveResidues>
 VAL166  LYS551  ARG553  GLY616  TRP617  ASP618  TYR619  PRO620  LYS621  CYS622 
 ASP623  PHE694  ASN695  SER759  ASP760  ASP761  ALA762  ILE779  LEU786  VAL792 
 PHE793  MET794  SER795  GLU796  ALA797  LYS798  CYS799  TRP800  GLU811  SER814 

> <Gold.Protein.RotatedAtoms>
  152.5145  133.9201  159.7529 H   0  0  0  0  0  0  0  0  0  0  0  0  # atno 6907 bound_to 6896
  150.9575  133.6473  159.2767 H   0  0  0  0  0  0  0  0  0  0  0  0  # atno 6908 bound_to 6896
  151.3730  135.0931  159.9524 H   0  0  0  0  0  0  0  0  0  0  0  0  # atno 6909 bound_to 6896
  146.0135  140.6936  142.9213 H   0  0  0  0  0  0  0  0  0  0  0  0  # atno 7974 bound_to 7965
  155.4865  140.0564  157.2960 H   0  0  0  0  0  0  0  0  0  0  0  0  # atno 8008 bound_to 7997
  154.4640  140.2009  156.0121 H   0  0  0  0  0  0  0  0  0  0  0  0  # atno 8009 bound_to 7997
  156.0941  140.3229  155.7858 H   0  0  0  0  0  0  0  0  0  0  0  0  # atno 8010 bound_to 7997
  140.7267  143.3985  151.1306 H   0  0  0  0  0  0  0  0  0  0  0  0  # atno 10167 bound_to 10162
  156.2723  130.4208  149.8425 H   0  0  0  0  0  0  0  0  0  0  0  0  # atno 10718 bound_to 10713
  153.4143  135.3827  155.2070 H   0  0  0  0  0  0  0  0  0  0  0  0  # atno 10763 bound_to 10752
  154.8740  135.3802  154.4462 H   0  0  0  0  0  0  0  0  0  0  0  0  # atno 10764 bound_to 10752
  153.4974  135.7088  153.5913 H   0  0  0  0  0  0  0  0  0  0  0  0  # atno 10765 bound_to 10752
  141.1526  133.7810  156.9997 H   0  0  0  0  0  0  0  0  0  0  0  0  # atno 11005 bound_to 11000
  144.6962  140.3440  143.7194 LP  0  0  0  0  0  0  0  0  0  0  0  0  # atno 17320 bound_to 7965
  145.7305  139.1735  143.2433 LP  0  0  0  0  0  0  0  0  0  0  0  0  # atno 17321 bound_to 7965
  139.7601  143.8648  152.3098 LP  0  0  0  0  0  0  0  0  0  0  0  0  # atno 17342 bound_to 10162
  139.8531  144.7154  150.9189 LP  0  0  0  0  0  0  0  0  0  0  0  0  # atno 17343 bound_to 10162
  156.5902  130.8503  151.3406 LP  0  0  0  0  0  0  0  0  0  0  0  0  # atno 17370 bound_to 10713
  157.7288  130.9662  150.1758 LP  0  0  0  0  0  0  0  0  0  0  0  0  # atno 17371 bound_to 10713
  140.0948  134.9571  157.1833 LP  0  0  0  0  0  0  0  0  0  0  0  0  # atno 17394 bound_to 11000
  140.3397  134.2718  155.7214 LP  0  0  0  0  0  0  0  0  0  0  0  0  # atno 17395 bound_to 11000

$$$$
