AV-unprocessed.smi:770|AV-procd|sdf|3680|dock3
  -GOLD-   22720 1 93D 1   1.00000     0.00000
 Structure written by MMmdl.
 38 39  0  0  0  0  0  0  0  0  2 V2000
  145.3907  135.6443  150.3098 C   0  0  0  0  0  0  0  0  0  0  0  0
  145.7180  135.9855  151.4357 C   0  0  0  0  0  0  0  0  0  0  0  0
  146.1169  136.3720  152.7975 C   0  0  0  0  0  0  0  0  0  0  0  0
  146.9334  137.5778  152.7951 N   0  0  0  0  0  0  0  0  0  0  0  0
  146.7016  138.6633  153.5453 C   0  0  0  0  0  0  0  0  0  0  0  0
  145.7852  138.7587  154.3612 O   0  0  0  0  0  0  0  0  0  0  0  0
  147.5643  139.6501  153.2654 N   0  0  0  0  0  0  0  0  0  0  0  0
  147.5162  141.0015  153.8203 C   0  0  0  0  0  0  0  0  0  0  0  0
  148.8813  141.7261  153.8120 C   0  0  0  0  0  0  0  0  0  0  0  0
  149.7142  141.4609  155.0333 C   0  0  0  0  0  0  0  0  0  0  0  0
  150.2740  140.2447  155.3367 C   0  0  0  0  0  0  0  0  0  0  0  0
  151.2204  140.2975  156.7960 S   0  0  0  0  0  0  0  0  0  0  0  0
  150.8545  141.9883  156.9798 C   0  0  0  0  0  0  0  0  0  0  0  0
  151.2810  142.8104  157.9546 N   0  0  0  0  0  0  0  0  0  0  0  0
  151.5434  144.2140  157.6712 C   0  0  0  0  0  0  0  0  0  0  0  0
  152.3145  144.7222  158.8877 C   0  0  0  0  0  0  0  0  0  0  0  0
  153.1019  143.4907  159.3326 C   0  0  0  0  0  0  0  0  0  0  0  0
  152.1788  142.3157  158.9895 C   0  0  0  0  0  0  0  0  0  0  0  0
  150.0461  142.4088  155.9963 N   0  3  0  0  0  0  0  0  0  0  0  0
  145.1093  135.3456  149.3248 H   0  0  0  0  0  0  0  0  0  0  0  0
  145.2054  136.5075  153.3820 H   0  0  0  0  0  0  0  0  0  0  0  0
  146.6783  135.5494  153.2411 H   0  0  0  0  0  0  0  0  0  0  0  0
  147.7137  137.5969  152.1549 H   0  0  0  0  0  0  0  0  0  0  0  0
  148.2860  139.4675  152.5835 H   0  0  0  0  0  0  0  0  0  0  0  0
  146.7625  141.5967  153.3030 H   0  0  0  0  0  0  0  0  0  0  0  0
  147.1747  140.9023  154.8510 H   0  0  0  0  0  0  0  0  0  0  0  0
  149.4380  141.4174  152.9264 H   0  0  0  0  0  0  0  0  0  0  0  0
  148.7177  142.7973  153.6893 H   0  0  0  0  0  0  0  0  0  0  0  0
  150.1946  139.3211  154.7819 H   0  0  0  0  0  0  0  0  0  0  0  0
  152.1525  144.2982  156.7704 H   0  0  0  0  0  0  0  0  0  0  0  0
  150.6201  144.7734  157.5166 H   0  0  0  0  0  0  0  0  0  0  0  0
  152.9502  145.5783  158.6597 H   0  0  0  0  0  0  0  0  0  0  0  0
  151.6170  145.0180  159.6726 H   0  0  0  0  0  0  0  0  0  0  0  0
  154.0199  143.4176  158.7478 H   0  0  0  0  0  0  0  0  0  0  0  0
  153.3780  143.5189  160.3870 H   0  0  0  0  0  0  0  0  0  0  0  0
  151.5847  142.0264  159.8568 H   0  0  0  0  0  0  0  0  0  0  0  0
  152.7592  141.4494  158.6705 H   0  0  0  0  0  0  0  0  0  0  0  0
  149.7191  143.3653  155.9417 H   0  0  0  0  0  0  0  0  0  0  0  0
  1  2  3  0  0  0  0
  1 20  1  0  0  0  0
  2  3  1  0  0  0  0
  3  4  1  0  0  0  0
  3 21  1  0  0  0  0
  3 22  1  0  0  0  0
  4  5  1  0  0  0  0
  4 23  1  0  0  0  0
  5  6  2  0  0  0  0
  5  7  1  0  0  0  0
  7  8  1  0  0  0  0
  7 24  1  0  0  0  0
  8  9  1  0  0  0  0
  8 25  1  0  0  0  0
  8 26  1  0  0  0  0
  9 10  1  0  0  0  0
  9 27  1  0  0  0  0
  9 28  1  0  0  0  0
 10 19  1  0  0  0  0
 10 11  2  0  0  0  0
 11 12  1  0  0  0  0
 11 29  1  0  0  0  0
 12 13  1  0  0  0  0
 13 14  1  0  0  0  0
 13 19  2  0  0  0  0
 14 18  1  0  0  0  0
 14 15  1  0  0  0  0
 15 16  1  0  0  0  0
 15 30  1  0  0  0  0
 15 31  1  0  0  0  0
 16 17  1  0  0  0  0
 16 32  1  0  0  0  0
 16 33  1  0  0  0  0
 17 18  1  0  0  0  0
 17 34  1  0  0  0  0
 17 35  1  0  0  0  0
 18 36  1  0  0  0  0
 18 37  1  0  0  0  0
 19 38  1  0  0  0  0
M  CHG  1  19   1
M  END
> <s_m_source_file>
AV-unprocessed.smi

> <i_m_source_file_index>
770

> <i_lp_mmshare_version>
43012

> <i_f3d_flags>
0

> <s_epik_input>
W0NIXSNDW0NIMl1bTkhdQyg9TylbTkhdW0NIMl1bQ0gyXWMxW2NIXXNjKG4xKU4yW0NIMl1bQ0gyXVtDSDJdW0NIMl0y

> <s_epik_cmdline>
J2VwaWtfcHl0aG9uJywgJy1waCcsICc3LjAnLCAnLXRuJywgJzgnLCAnLW1hJywgJzIwMCcsICctbWV0YWxfYmluZGluZycsICctaW1hZScsICc8aW5maWxlLm1hZT4nLCAnLW9tYWUnLCAnPG91dGZpbGUubWFlPic=

> <r_lp_tautomer_probability>
1

> <r_epik_Ionization_Penalty>
0.810114

> <r_epik_Ionization_Penalty_Charging>
0.810081

> <r_epik_Ionization_Penalty_Neutral>
3.29877e-05

> <r_epik_State_Penalty>
0.842152

> <r_epik_Charging_Adjusted_Penalty>
1.65223

> <i_epik_Tot_Q>
1

> <i_epik_Tot_abs_Q>
1

> <r_epik_Metal_State_Penalty>
0.978703

> <b_epik_Metal_Only>
0

> <s_lp_Force_Field>
OPLS_2005

> <r_lp_Energy>
26.9022

> <b_lp_Chiralities_Consistent>
1

> <s_lp_Variant>
AV-unprocessed.smi:770-2

> <Gold.Version>
5.8.1

> <Gold.Id.Protein>
6NUR|6NUR_protein|mol2

> <Gold.PLP.Fitness>
50.7101

> <Gold.PLP.PLP>
-41.2130

> <Gold.PLP.part.hbond>
-2.9937

> <Gold.PLP.part.metal>
0.0000

> <Gold.PLP.part.buried>
1.6016

> <Gold.PLP.part.nonpolar>
-39.0388

> <Gold.PLP.part.repulsive>
0.2928

> <Gold.PLP.ligand.clash>
0.0000

> <Gold.PLP.ligand.torsion>
0.6540

> <Gold.PLP.Chemscore.Hbond>
3.5003

> <Gold.PLP.Chemscore.CHOScore>
0.0000

> <Gold.PLP.Chemscore.Metal>
0.0000

> <Gold.Chemscore.Hbonds>
donor molecule, donor type, donor heavy atom, donor atom, acceptor molecule, acceptor atom, score
      L1  H     4    23       P1  7948  0.56
      L1  H     7    24       P1  7957  1.00
      L1  H    19    38       P1  8028  2.00

> <Gold.PLP.Chemscore.Internal.Correction>
0.3043

> <Gold.Rescore>
     Score         DG    S(hbond)    S(metal)    S(lipo)     H(rot)  DE(clash)    DE(int)     intcor
     18.94     -21.07       2.42        0.00     103.10       1.78       1.51       0.62       ----

> <Gold.Chemscore.Fitness>
18.9422

> <Gold.Chemscore.DG>
-21.0694

> <Gold.Chemscore.ZeroCoef>
-5.4800

> <Gold.Chemscore.Hbond>
2.4183

> <Gold.Chemscore.Metal>
0.0000

> <Gold.Chemscore.Lipo>
103.1010

> <Gold.Chemscore.Internal_Hbond>
0.0000

> <Gold.Chemscore.DEClash>
1.5056

> <Gold.Chemscore.DEInternal>
0.6215

> <Gold.Chemscore.Rot>
1.7776

> <Gold.Chemscore.Internal.Correction>
   9.000000E+99

> <Gold.Chemscore.Hbonds>
donor molecule, donor type, donor heavy atom, donor atom, acceptor molecule, acceptor atom, score
      L1  H     4    23       P1  7948  0.56
      L1  H     7    24       P1  7957  0.92
      L1  H    19    38       P1  8028  0.99

> <Gold.Chemscore.Hbond.Weighted>
-8.0772

> <Gold.Chemscore.Metal.Weighted>
-0.0000

> <Gold.Chemscore.Lipo.Weighted>
-12.0628

> <Gold.Chemscore.Internal_Hbond.Weighted>
0.0000

> <Gold.Chemscore.DEClash.Weighted>
1.5056

> <Gold.Chemscore.DEInternal.Weighted>
0.6215

> <Gold.Chemscore.Rot.Weighted>
4.5506

> <Gold.Chemscore.Internal.Correction.Weighted>
   9.000000E+99

> <Gold.Protein.RotatedTorsions>
[ 6907 6896 6895 6894 ] final   55.84 input  -60.11 | X-H torsion
[ 7974 7965 7964 7962 ] final   87.14 input  175.53 | X-H torsion
[ 8008 7997 7996 7995 ] final  147.60 input   59.86 | X-H torsion
[ 10167 10162 10161 10158 ] final   58.53 input  -65.29 | X-H torsion
[ 10718 10713 10712 10709 ] final  171.56 input   66.30 | X-H torsion
[ 10763 10752 10751 10750 ] final  178.10 input  -60.55 | X-H torsion
[ 11005 11000 10999 10996 ] final   71.93 input  -57.11 | X-H torsion

> <Gold.Protein.ActiveResidues>
 VAL166  LYS551  ARG553  GLY616  TRP617  ASP618  TYR619  PRO620  LYS621  CYS622 
 ASP623  PHE694  ASN695  SER759  ASP760  ASP761  ALA762  ILE779  LEU786  VAL792 
 PHE793  MET794  SER795  GLU796  ALA797  LYS798  CYS799  TRP800  GLU811  SER814 

> <Gold.Protein.RotatedAtoms>
  152.3577  134.6916  160.0216 H   0  0  0  0  0  0  0  0  0  0  0  0  # atno 6907 bound_to 6896
  151.7249  133.3310  159.3333 H   0  0  0  0  0  0  0  0  0  0  0  0  # atno 6908 bound_to 6896
  150.7583  134.6349  159.6250 H   0  0  0  0  0  0  0  0  0  0  0  0  # atno 6909 bound_to 6896
  145.5629  139.2305  143.2449 H   0  0  0  0  0  0  0  0  0  0  0  0  # atno 7974 bound_to 7965
  156.2819  140.2151  156.5563 H   0  0  0  0  0  0  0  0  0  0  0  0  # atno 8008 bound_to 7997
  154.7249  140.0500  157.0696 H   0  0  0  0  0  0  0  0  0  0  0  0  # atno 8009 bound_to 7997
  155.0429  140.3147  155.4721 H   0  0  0  0  0  0  0  0  0  0  0  0  # atno 8010 bound_to 7997
  140.1862  144.4132  150.6592 H   0  0  0  0  0  0  0  0  0  0  0  0  # atno 10167 bound_to 10162
  156.9917  131.0149  151.2855 H   0  0  0  0  0  0  0  0  0  0  0  0  # atno 10718 bound_to 10713
  154.5032  135.2784  155.1404 H   0  0  0  0  0  0  0  0  0  0  0  0  # atno 10763 bound_to 10752
  154.3029  135.6244  153.5436 H   0  0  0  0  0  0  0  0  0  0  0  0  # atno 10764 bound_to 10752
  152.9906  135.5701  154.5480 H   0  0  0  0  0  0  0  0  0  0  0  0  # atno 10765 bound_to 10752
  139.9517  134.7215  156.0847 H   0  0  0  0  0  0  0  0  0  0  0  0  # atno 11005 bound_to 11000
  146.1838  140.6454  142.9177 LP  0  0  0  0  0  0  0  0  0  0  0  0  # atno 17320 bound_to 7965
  144.7474  140.5104  143.6826 LP  0  0  0  0  0  0  0  0  0  0  0  0  # atno 17321 bound_to 7965
  140.6487  143.2219  151.6128 LP  0  0  0  0  0  0  0  0  0  0  0  0  # atno 17342 bound_to 10162
  139.5275  144.3015  152.1069 LP  0  0  0  0  0  0  0  0  0  0  0  0  # atno 17343 bound_to 10162
  157.5454  130.8147  149.8079 LP  0  0  0  0  0  0  0  0  0  0  0  0  # atno 17370 bound_to 10713
  156.0205  130.3797  150.1978 LP  0  0  0  0  0  0  0  0  0  0  0  0  # atno 17371 bound_to 10713
  141.1181  133.6621  156.3145 LP  0  0  0  0  0  0  0  0  0  0  0  0  # atno 17394 bound_to 11000
  140.5703  134.5846  157.5456 LP  0  0  0  0  0  0  0  0  0  0  0  0  # atno 17395 bound_to 11000

$$$$
