AV-unprocessed.smi:243|AV-procd|sdf|1848|dock6
  -GOLD-   2262020473D 1   1.00000     0.00000
 Structure written by MMmdl.
 58 61  0  0  0  0  0  0  0  0  2 V2000
  152.5939  144.2615  158.0859 C   0  0  0  0  0  0  0  0  0  0  0  0
  151.1320  144.3758  158.5424 C   0  0  0  0  0  0  0  0  0  0  0  0
  150.2392  143.4251  157.8330 N   0  3  2  0  0  0  0  0  0  0  0  0
  148.9523  143.2232  158.5462 C   0  0  0  0  0  0  0  0  0  0  0  0
  147.9872  142.3597  157.7190 C   0  0  0  0  0  0  0  0  0  0  0  0
  148.6359  141.0065  157.3552 C   0  0  1  0  0  0  0  0  0  0  0  0
  147.7613  140.0162  156.7003 N   0  0  0  0  0  0  0  0  0  0  0  0
  147.0101  140.4601  155.5311 C   0  0  0  0  0  0  0  0  0  0  0  0
  147.2475  138.9504  157.3731 C   0  0  0  0  0  0  0  0  0  0  0  0
  145.9177  138.7017  157.2597 N   0  0  0  0  0  0  0  0  0  0  0  0
  145.3548  137.6858  157.9191 C   0  0  0  0  0  0  0  0  0  0  0  0
  145.9277  136.8097  158.7448 N   0  0  0  0  0  0  0  0  0  0  0  0
  147.2610  137.0585  158.8801 C   0  0  0  0  0  0  0  0  0  0  0  0
  147.9953  138.1004  158.2436 C   0  0  0  0  0  0  0  0  0  0  0  0
  149.3299  138.0307  158.6304 N   0  0  0  0  0  0  0  0  0  0  0  0
  149.3792  137.0142  159.4467 C   0  0  0  0  0  0  0  0  0  0  0  0
  148.1825  136.3650  159.6449 N   0  0  0  0  0  0  0  0  0  0  0  0
  147.9466  135.2089  160.4953 C   0  0  0  0  0  0  0  0  0  0  0  0
  147.3969  135.5661  161.8994 C   0  0  1  0  0  0  0  0  0  0  0  0
  148.1948  136.5835  162.4744 O   0  0  0  0  0  0  0  0  0  0  0  0
  145.9482  136.0236  161.8495 C   0  0  0  0  0  0  0  0  0  0  0  0
  145.1729  134.7085  161.9056 C   0  0  0  0  0  0  0  0  0  0  0  0
  146.0129  133.7825  162.5889 O   0  0  0  0  0  0  0  0  0  0  0  0
  147.2790  134.3747  162.8591 C   0  0  0  0  0  0  0  0  0  0  0  0
  149.9927  141.2344  156.6362 C   0  0  1  0  0  0  0  0  0  0  0  0
  149.8879  141.8056  155.2079 C   0  0  0  0  0  0  0  0  0  0  0  0
  150.8945  142.1277  157.5142 C   0  0  0  0  0  0  0  0  0  0  0  0
  153.2030  145.0324  158.5584 H   0  0  0  0  0  0  0  0  0  0  0  0
  152.6812  144.3892  157.0065 H   0  0  0  0  0  0  0  0  0  0  0  0
  153.0334  143.2997  158.3483 H   0  0  0  0  0  0  0  0  0  0  0  0
  151.0510  144.2337  159.6212 H   0  0  0  0  0  0  0  0  0  0  0  0
  150.8031  145.3961  158.3403 H   0  0  0  0  0  0  0  0  0  0  0  0
  149.1414  142.7568  159.5144 H   0  0  0  0  0  0  0  0  0  0  0  0
  148.4834  144.1876  158.7451 H   0  0  0  0  0  0  0  0  0  0  0  0
  147.0747  142.1948  158.2933 H   0  0  0  0  0  0  0  0  0  0  0  0
  147.7011  142.9113  156.8237 H   0  0  0  0  0  0  0  0  0  0  0  0
  148.8785  140.5435  158.3130 H   0  0  0  0  0  0  0  0  0  0  0  0
  146.5893  139.6126  154.9882 H   0  0  0  0  0  0  0  0  0  0  0  0
  147.6615  140.9992  154.8430 H   0  0  0  0  0  0  0  0  0  0  0  0
  146.1968  141.1271  155.8168 H   0  0  0  0  0  0  0  0  0  0  0  0
  144.2935  137.5582  157.7650 H   0  0  0  0  0  0  0  0  0  0  0  0
  150.2969  136.7049  159.9259 H   0  0  0  0  0  0  0  0  0  0  0  0
  147.2524  134.5444  159.9789 H   0  0  0  0  0  0  0  0  0  0  0  0
  148.8828  134.6566  160.5824 H   0  0  0  0  0  0  0  0  0  0  0  0
  148.0701  136.5682  163.4108 H   0  0  0  0  0  0  0  0  0  0  0  0
  145.7054  136.6162  162.7334 H   0  0  0  0  0  0  0  0  0  0  0  0
  145.7078  136.6241  160.9714 H   0  0  0  0  0  0  0  0  0  0  0  0
  144.2126  134.8186  162.4099 H   0  0  0  0  0  0  0  0  0  0  0  0
  144.9835  134.3299  160.9008 H   0  0  0  0  0  0  0  0  0  0  0  0
  148.0903  133.6526  162.7792 H   0  0  0  0  0  0  0  0  0  0  0  0
  147.2588  134.7211  163.8937 H   0  0  0  0  0  0  0  0  0  0  0  0
  150.4964  140.2710  156.5518 H   0  0  0  0  0  0  0  0  0  0  0  0
  149.3396  142.7467  155.1790 H   0  0  0  0  0  0  0  0  0  0  0  0
  149.3940  141.1115  154.5328 H   0  0  0  0  0  0  0  0  0  0  0  0
  150.8778  141.9920  154.7911 H   0  0  0  0  0  0  0  0  0  0  0  0
  151.8429  142.2915  157.0036 H   0  0  0  0  0  0  0  0  0  0  0  0
  151.1344  141.6115  158.4453 H   0  0  0  0  0  0  0  0  0  0  0  0
  150.0053  143.8597  156.9517 H   0  0  0  0  0  0  0  0  0  0  0  0
  1  2  1  0  0  0  0
  1 28  1  0  0  0  0
  1 29  1  0  0  0  0
  1 30  1  0  0  0  0
  2  3  1  0  0  0  0
  2 31  1  0  0  0  0
  2 32  1  0  0  0  0
  3 27  1  0  0  0  0
  3  4  1  0  0  0  0
  3 58  1  0  0  0  0
  4  5  1  0  0  0  0
  4 33  1  0  0  0  0
  4 34  1  0  0  0  0
  5  6  1  0  0  0  0
  5 35  1  0  0  0  0
  5 36  1  0  0  0  0
  6  7  1  0  0  0  0
  6 25  1  0  0  0  0
  6 37  1  0  0  0  0
  7  8  1  0  0  0  0
  7  9  1  0  0  0  0
  8 38  1  0  0  0  0
  8 39  1  0  0  0  0
  8 40  1  0  0  0  0
  9 14  1  0  0  0  0
  9 10  2  0  0  0  0
 10 11  1  0  0  0  0
 11 12  2  0  0  0  0
 11 41  1  0  0  0  0
 12 13  1  0  0  0  0
 13 17  1  0  0  0  0
 13 14  2  0  0  0  0
 14 15  1  0  0  0  0
 15 16  2  0  0  0  0
 16 17  1  0  0  0  0
 16 42  1  0  0  0  0
 17 18  1  0  0  0  0
 18 19  1  0  0  0  0
 18 43  1  0  0  0  0
 18 44  1  0  0  0  0
 19 24  1  0  0  0  0
 19 20  1  0  0  0  0
 19 21  1  0  0  0  0
 20 45  1  0  0  0  0
 21 22  1  0  0  0  0
 21 46  1  0  0  0  0
 21 47  1  0  0  0  0
 22 23  1  0  0  0  0
 22 48  1  0  0  0  0
 22 49  1  0  0  0  0
 23 24  1  0  0  0  0
 24 50  1  0  0  0  0
 24 51  1  0  0  0  0
 25 26  1  0  0  0  0
 25 27  1  0  0  0  0
 25 52  1  0  0  0  0
 26 53  1  0  0  0  0
 26 54  1  0  0  0  0
 26 55  1  0  0  0  0
 27 56  1  0  0  0  0
 27 57  1  0  0  0  0
M  CHG  1   3   1
M  END
> <s_m_source_file>
AV-unprocessed.smi

> <i_m_source_file_index>
243

> <i_lp_mmshare_version>
43012

> <i_f3d_flags>
0

> <s_epik_input>
W0NIM11bQ0gyXU4xW0NIMl1bQ0gyXVtDQEhdKFtDQEBIXShbQ0gzXSlbQ0gyXTEpTihbQ0gzXSljKG5bY0hdbjIpYyhjMjMpbltjSF1uM1tDSDJdW0NAQF00KFtPSF0pW0NIMl1bQ0gyXU9bQ0gyXTQ=

> <s_epik_cmdline>
J2VwaWtfcHl0aG9uJywgJy1waCcsICc3LjAnLCAnLXRuJywgJzgnLCAnLW1hJywgJzIwMCcsICctbWV0YWxfYmluZGluZycsICctaW1hZScsICc8aW5maWxlLm1hZT4nLCAnLW9tYWUnLCAnPG91dGZpbGUubWFlPic=

> <r_lp_tautomer_probability>
1

> <r_epik_Ionization_Penalty>
0.00253099

> <r_epik_Ionization_Penalty_Charging>
0.00137877

> <r_epik_Ionization_Penalty_Neutral>
0.00115221

> <r_epik_State_Penalty>
-0

> <r_epik_Charging_Adjusted_Penalty>
0.00137877

> <i_epik_Tot_Q>
1

> <i_epik_Tot_abs_Q>
1

> <r_epik_Metal_State_Penalty>
-0

> <b_epik_Metal_Only>
0

> <s_lp_Force_Field>
OPLS_2005

> <r_lp_Energy>
50.8982

> <b_lp_Chiralities_Consistent>
1

> <s_lp_Variant>
AV-unprocessed.smi:243-1

> <Gold.Version>
5.8.1

> <Gold.Id.Protein>
6NUR|6NUR_protein|mol2

> <Gold.PLP.Fitness>
45.3359

> <Gold.PLP.PLP>
-38.4210

> <Gold.PLP.part.hbond>
-2.6903

> <Gold.PLP.part.metal>
0.0000

> <Gold.PLP.part.buried>
-2.3447

> <Gold.PLP.part.nonpolar>
-32.8081

> <Gold.PLP.part.repulsive>
0.0534

> <Gold.PLP.ligand.clash>
0.0000

> <Gold.PLP.ligand.torsion>
1.4321

> <Gold.PLP.Chemscore.Hbond>
3.0000

> <Gold.PLP.Chemscore.CHOScore>
0.0000

> <Gold.PLP.Chemscore.Metal>
0.0000

> <Gold.Chemscore.Hbonds>
donor molecule, donor type, donor heavy atom, donor atom, acceptor molecule, acceptor atom, score
      L1  H     3    58       P1  8028  2.00
      P1  H  6931  6943       L1    20  1.00

> <Gold.PLP.Chemscore.Internal.Correction>
0.7791

> <Gold.Rescore>
     Score         DG    S(hbond)    S(metal)    S(lipo)     H(rot)  DE(clash)    DE(int)     intcor
     14.54     -16.62       1.73        0.00      94.96       2.24       0.68       1.41       ----

> <Gold.Chemscore.Fitness>
14.5388

> <Gold.Chemscore.DG>
-16.6247

> <Gold.Chemscore.ZeroCoef>
-5.4800

> <Gold.Chemscore.Hbond>
1.7255

> <Gold.Chemscore.Metal>
0.0000

> <Gold.Chemscore.Lipo>
94.9637

> <Gold.Chemscore.Internal_Hbond>
0.0000

> <Gold.Chemscore.DEClash>
0.6781

> <Gold.Chemscore.DEInternal>
1.4078

> <Gold.Chemscore.Rot>
2.2379

> <Gold.Chemscore.Internal.Correction>
   9.000000E+99

> <Gold.Chemscore.Hbonds>
donor molecule, donor type, donor heavy atom, donor atom, acceptor molecule, acceptor atom, score
      L1  H     3    58       P1  8028  0.96
      P1  H  6931  6943       L1    20  0.73

> <Gold.Chemscore.Hbond.Weighted>
-5.7631

> <Gold.Chemscore.Metal.Weighted>
-0.0000

> <Gold.Chemscore.Lipo.Weighted>
-11.1108

> <Gold.Chemscore.Internal_Hbond.Weighted>
0.0000

> <Gold.Chemscore.DEClash.Weighted>
0.6781

> <Gold.Chemscore.DEInternal.Weighted>
1.4078

> <Gold.Chemscore.Rot.Weighted>
5.7291

> <Gold.Chemscore.Internal.Correction.Weighted>
   9.000000E+99

> <Gold.Protein.RotatedTorsions>
[ 6907 6896 6895 6894 ] final -168.82 input  -60.11 | X-H torsion
[ 7974 7965 7964 7962 ] final  178.64 input  175.53 | X-H torsion
[ 8008 7997 7996 7995 ] final -139.04 input   59.86 | X-H torsion
[ 10167 10162 10161 10158 ] final   40.06 input  -65.29 | X-H torsion
[ 10718 10713 10712 10709 ] final -120.61 input   66.30 | X-H torsion
[ 10763 10752 10751 10750 ] final   -6.93 input  -60.55 | X-H torsion
[ 11005 11000 10999 10996 ] final   13.64 input  -57.11 | X-H torsion

> <Gold.Protein.ActiveResidues>
 VAL166  LYS551  ARG553  GLY616  TRP617  ASP618  TYR619  PRO620  LYS621  CYS622 
 ASP623  PHE694  ASN695  SER759  ASP760  ASP761  ALA762  ILE779  LEU786  VAL792 
 PHE793  MET794  SER795  GLU796  ALA797  LYS798  CYS799  TRP800  GLU811  SER814 

> <Gold.Protein.RotatedAtoms>
  151.4817  133.3545  159.2839 H   0  0  0  0  0  0  0  0  0  0  0  0  # atno 6907 bound_to 6896
  150.8893  134.8296  159.7292 H   0  0  0  0  0  0  0  0  0  0  0  0  # atno 6908 bound_to 6896
  152.4813  134.4725  159.9692 H   0  0  0  0  0  0  0  0  0  0  0  0  # atno 6909 bound_to 6896
  144.7154  140.0427  143.6437 H   0  0  0  0  0  0  0  0  0  0  0  0  # atno 7974 bound_to 7965
  155.4384  140.0530  157.3012 H   0  0  0  0  0  0  0  0  0  0  0  0  # atno 8008 bound_to 7997
  154.4829  140.2089  155.9679 H   0  0  0  0  0  0  0  0  0  0  0  0  # atno 8009 bound_to 7997
  156.1232  140.3184  155.8244 H   0  0  0  0  0  0  0  0  0  0  0  0  # atno 8010 bound_to 7997
  140.3778  144.2019  150.6131 H   0  0  0  0  0  0  0  0  0  0  0  0  # atno 10167 bound_to 10162
  156.1271  130.6368  150.9561 H   0  0  0  0  0  0  0  0  0  0  0  0  # atno 10718 bound_to 10713
  153.4193  135.7009  153.6305 H   0  0  0  0  0  0  0  0  0  0  0  0  # atno 10763 bound_to 10752
  153.4767  135.3703  155.2420 H   0  0  0  0  0  0  0  0  0  0  0  0  # atno 10764 bound_to 10752
  154.8721  135.4056  154.3558 H   0  0  0  0  0  0  0  0  0  0  0  0  # atno 10765 bound_to 10752
  140.4785  134.0959  155.7746 H   0  0  0  0  0  0  0  0  0  0  0  0  # atno 11005 bound_to 11000
  146.0010  139.3091  143.0928 LP  0  0  0  0  0  0  0  0  0  0  0  0  # atno 17320 bound_to 7965
  145.8793  140.9372  143.0609 LP  0  0  0  0  0  0  0  0  0  0  0  0  # atno 17321 bound_to 7965
  140.4968  143.2330  151.8738 LP  0  0  0  0  0  0  0  0  0  0  0  0  # atno 17342 bound_to 10162
  139.4798  144.5105  151.8939 LP  0  0  0  0  0  0  0  0  0  0  0  0  # atno 17343 bound_to 10162
  157.6452  131.0905  150.8168 LP  0  0  0  0  0  0  0  0  0  0  0  0  # atno 17370 bound_to 10713
  156.8257  130.4999  149.5337 LP  0  0  0  0  0  0  0  0  0  0  0  0  # atno 17371 bound_to 10713
  141.1542  133.8912  157.2019 LP  0  0  0  0  0  0  0  0  0  0  0  0  # atno 17394 bound_to 11000
  139.9841  135.0088  156.9820 LP  0  0  0  0  0  0  0  0  0  0  0  0  # atno 17395 bound_to 11000

$$$$
