AV-unprocessed.smi:529|AV-procd|sdf|2841|dock10
  -GOLD-   2262023333D 1   1.00000     0.00000
 Structure written by MMmdl.
 30 31  0  0  0  0  0  0  0  0  1 V2000
  149.3685  142.3646  157.1245 N   0  0  0  0  0  0  0  0  0  0  0  0
  149.4973  141.4400  156.2391 C   0  0  0  0  0  0  0  0  0  0  0  0
  148.9293  141.5060  154.5035 S   0  0  0  0  0  0  0  0  0  0  0  0
  149.5703  139.8980  154.2418 C   0  0  0  0  0  0  0  0  0  0  0  0
  150.1323  139.3962  155.3402 C   0  0  0  0  0  0  0  0  0  0  0  0
  150.1092  140.2039  156.4591 N   0  0  0  0  0  0  0  0  0  0  0  0
  150.7353  139.8133  157.7227 C   0  0  0  0  0  0  0  0  0  0  0  0
  151.8869  140.7375  158.1409 C   0  0  0  0  0  0  0  0  0  0  0  0
  153.0346  140.3073  158.2661 O   0  0  0  0  0  0  0  0  0  0  0  0
  151.5544  142.0163  158.3726 N   0  0  0  0  0  0  0  0  0  0  0  0
  152.4865  143.0663  158.7744 C   0  0  0  0  0  0  0  0  0  0  0  0
  152.4077  143.3588  160.2878 C   0  0  0  0  0  0  0  0  0  0  0  0
  152.2661  144.8761  160.4204 C   0  0  0  0  0  0  0  0  0  0  0  0
  151.5539  145.3016  159.1407 C   0  0  0  0  0  0  0  0  0  0  0  0
  152.1460  144.3901  158.0656 C   0  0  0  0  0  0  0  0  0  0  0  0
  148.8937  143.1632  156.7285 H   0  0  0  0  0  0  0  0  0  0  0  0
  149.4954  139.4149  153.2789 H   0  0  0  0  0  0  0  0  0  0  0  0
  150.6007  138.4276  155.4356 H   0  0  0  0  0  0  0  0  0  0  0  0
  149.9878  139.7789  158.5171 H   0  0  0  0  0  0  0  0  0  0  0  0
  151.1249  138.7985  157.6337 H   0  0  0  0  0  0  0  0  0  0  0  0
  150.5886  142.2849  158.2519 H   0  0  0  0  0  0  0  0  0  0  0  0
  153.5006  142.7701  158.4990 H   0  0  0  0  0  0  0  0  0  0  0  0
  151.5310  142.8813  160.7285 H   0  0  0  0  0  0  0  0  0  0  0  0
  153.2799  142.9834  160.8238 H   0  0  0  0  0  0  0  0  0  0  0  0
  151.7264  145.1703  161.3209 H   0  0  0  0  0  0  0  0  0  0  0  0
  153.2548  145.3352  160.4593 H   0  0  0  0  0  0  0  0  0  0  0  0
  150.4839  145.1119  159.2354 H   0  0  0  0  0  0  0  0  0  0  0  0
  151.6876  146.3599  158.9155 H   0  0  0  0  0  0  0  0  0  0  0  0
  153.0644  144.8381  157.6838 H   0  0  0  0  0  0  0  0  0  0  0  0
  151.4737  144.2678  157.2152 H   0  0  0  0  0  0  0  0  0  0  0  0
  1  2  2  0  0  0  0
  1 16  1  0  0  0  0
  2  6  1  0  0  0  0
  2  3  1  0  0  0  0
  3  4  1  0  0  0  0
  4  5  2  0  0  0  0
  4 17  1  0  0  0  0
  5  6  1  0  0  0  0
  5 18  1  0  0  0  0
  6  7  1  0  0  0  0
  7  8  1  0  0  0  0
  7 19  1  0  0  0  0
  7 20  1  0  0  0  0
  8  9  2  0  0  0  0
  8 10  1  0  0  0  0
 10 11  1  0  0  0  0
 10 21  1  0  0  0  0
 11 15  1  0  0  0  0
 11 12  1  0  0  0  0
 11 22  1  0  0  0  0
 12 13  1  0  0  0  0
 12 23  1  0  0  0  0
 12 24  1  0  0  0  0
 13 14  1  0  0  0  0
 13 25  1  0  0  0  0
 13 26  1  0  0  0  0
 14 15  1  0  0  0  0
 14 27  1  0  0  0  0
 14 28  1  0  0  0  0
 15 29  1  0  0  0  0
 15 30  1  0  0  0  0
M  END
> <s_m_source_file>
AV-unprocessed.smi

> <i_m_source_file_index>
529

> <i_lp_mmshare_version>
43012

> <i_f3d_flags>
0

> <s_epik_input>
W0hdL049YzFcc1tjSF1bY0hdbjFbQ0gyXUMoPU8pW05IXVtDSF0yW0NIMl1bQ0gyXVtDSDJdW0NIMl0y

> <s_epik_cmdline>
J2VwaWtfcHl0aG9uJywgJy1waCcsICc3LjAnLCAnLXRuJywgJzgnLCAnLW1hJywgJzIwMCcsICctbWV0YWxfYmluZGluZycsICctaW1hZScsICc8aW5maWxlLm1hZT4nLCAnLW9tYWUnLCAnPG91dGZpbGUubWFlPic=

> <r_epik_Ionization_Penalty>
2.18041

> <r_epik_Ionization_Penalty_Charging>
2.18041

> <r_epik_Ionization_Penalty_Neutral>
1.25369e-07

> <r_epik_State_Penalty>
2.33404

> <r_epik_Charging_Adjusted_Penalty>
4.51444

> <i_epik_Tot_Q>
0

> <i_epik_Tot_abs_Q>
0

> <r_epik_Metal_State_Penalty>
2.33404

> <b_epik_Metal_Only>
0

> <s_lp_Force_Field>
OPLS_2005

> <r_lp_Energy>
18.55

> <b_lp_Chiralities_Consistent>
1

> <s_lp_Variant>
AV-unprocessed.smi:529-3

> <Gold.Version>
5.8.1

> <Gold.Id.Protein>
6NUR|6NUR_protein|mol2

> <Gold.PLP.Fitness>
43.5241

> <Gold.PLP.PLP>
-35.3484

> <Gold.PLP.part.hbond>
-2.0000

> <Gold.PLP.part.metal>
0.0000

> <Gold.PLP.part.buried>
-0.4672

> <Gold.PLP.part.nonpolar>
-30.8520

> <Gold.PLP.part.repulsive>
0.0712

> <Gold.PLP.ligand.clash>
0.0000

> <Gold.PLP.ligand.torsion>
0.2851

> <Gold.PLP.Chemscore.Hbond>
1.9120

> <Gold.PLP.Chemscore.CHOScore>
1.0000

> <Gold.PLP.Chemscore.Metal>
0.0000

> <Gold.Chemscore.Hbonds>
donor molecule, donor type, donor heavy atom, donor atom, acceptor molecule, acceptor atom, score
      L1  H     1    16       P1  8028  1.00
      P1  H  7997  8008       L1     9  0.90
      L1  C     4    17       P1  7957  1.00

> <Gold.PLP.Chemscore.Internal.Correction>
0.0098

> <Gold.Rescore>
     Score         DG    S(hbond)    S(metal)    S(lipo)     H(rot)  DE(clash)    DE(int)     intcor
     17.57     -18.06       1.85        0.00      88.97       1.56       0.09       0.40       ----

> <Gold.Chemscore.Fitness>
17.5741

> <Gold.Chemscore.DG>
-18.0636

> <Gold.Chemscore.ZeroCoef>
-5.4800

> <Gold.Chemscore.Hbond>
1.8491

> <Gold.Chemscore.Metal>
0.0000

> <Gold.Chemscore.Lipo>
88.9749

> <Gold.Chemscore.Internal_Hbond>
0.0000

> <Gold.Chemscore.DEClash>
0.0889

> <Gold.Chemscore.DEInternal>
0.4006

> <Gold.Chemscore.Rot>
1.5635

> <Gold.Chemscore.Internal.Correction>
   9.000000E+99

> <Gold.Chemscore.Hbonds>
donor molecule, donor type, donor heavy atom, donor atom, acceptor molecule, acceptor atom, score
      L1  H     1    16       P1  8028  0.87
      P1  H  7997  8008       L1     9  0.85

> <Gold.Chemscore.Hbond.Weighted>
-6.1761

> <Gold.Chemscore.Metal.Weighted>
-0.0000

> <Gold.Chemscore.Lipo.Weighted>
-10.4101

> <Gold.Chemscore.Internal_Hbond.Weighted>
0.0000

> <Gold.Chemscore.DEClash.Weighted>
0.0889

> <Gold.Chemscore.DEInternal.Weighted>
0.4006

> <Gold.Chemscore.Rot.Weighted>
4.0025

> <Gold.Chemscore.Internal.Correction.Weighted>
   9.000000E+99

> <Gold.Protein.RotatedTorsions>
[ 6907 6896 6895 6894 ] final   96.87 input  -60.11 | X-H torsion
[ 7974 7965 7964 7962 ] final  131.92 input  175.53 | X-H torsion
[ 8008 7997 7996 7995 ] final  -87.84 input   59.86 | X-H torsion
[ 10167 10162 10161 10158 ] final   86.84 input  -65.29 | X-H torsion
[ 10718 10713 10712 10709 ] final  113.67 input   66.30 | X-H torsion
[ 10763 10752 10751 10750 ] final  -78.91 input  -60.55 | X-H torsion
[ 11005 11000 10999 10996 ] final  -88.18 input  -57.11 | X-H torsion

> <Gold.Protein.ActiveResidues>
 VAL166  LYS551  ARG553  GLY616  TRP617  ASP618  TYR619  PRO620  LYS621  CYS622 
 ASP623  PHE694  ASN695  SER759  ASP760  ASP761  ALA762  ILE779  LEU786  VAL792 
 PHE793  MET794  SER795  GLU796  ALA797  LYS798  CYS799  TRP800  GLU811  SER814 

> <Gold.Protein.RotatedAtoms>
  152.5430  134.0821  159.8239 H   0  0  0  0  0  0  0  0  0  0  0  0  # atno 6907 bound_to 6896
  151.0921  133.5300  159.2621 H   0  0  0  0  0  0  0  0  0  0  0  0  # atno 6908 bound_to 6896
  151.2087  135.0481  159.8956 H   0  0  0  0  0  0  0  0  0  0  0  0  # atno 6909 bound_to 6896
  145.0023  139.4300  143.5286 H   0  0  0  0  0  0  0  0  0  0  0  0  # atno 7974 bound_to 7965
  154.6679  140.0561  157.0134 H   0  0  0  0  0  0  0  0  0  0  0  0  # atno 8008 bound_to 7997
  155.1132  140.3240  155.4497 H   0  0  0  0  0  0  0  0  0  0  0  0  # atno 8009 bound_to 7997
  156.2645  140.2010  156.6256 H   0  0  0  0  0  0  0  0  0  0  0  0  # atno 8010 bound_to 7997
  139.8834  144.6427  150.8818 H   0  0  0  0  0  0  0  0  0  0  0  0  # atno 10167 bound_to 10162
  157.6325  131.0987  150.7075 H   0  0  0  0  0  0  0  0  0  0  0  0  # atno 10718 bound_to 10713
  154.5319  135.5713  153.6766 H   0  0  0  0  0  0  0  0  0  0  0  0  # atno 10763 bound_to 10752
  152.9941  135.6207  154.2617 H   0  0  0  0  0  0  0  0  0  0  0  0  # atno 10764 bound_to 10752
  154.2544  135.2858  155.2783 H   0  0  0  0  0  0  0  0  0  0  0  0  # atno 10765 bound_to 10752
  141.1606  133.7555  156.9414 H   0  0  0  0  0  0  0  0  0  0  0  0  # atno 11005 bound_to 11000
  146.3454  139.9419  142.8740 LP  0  0  0  0  0  0  0  0  0  0  0  0  # atno 17320 bound_to 7965
  145.2136  140.9906  143.4086 LP  0  0  0  0  0  0  0  0  0  0  0  0  # atno 17321 bound_to 7965
  140.7740  143.3567  151.1907 LP  0  0  0  0  0  0  0  0  0  0  0  0  # atno 17342 bound_to 10162
  139.7175  143.9277  152.2972 LP  0  0  0  0  0  0  0  0  0  0  0  0  # atno 17343 bound_to 10162
  156.7412  130.4739  149.5477 LP  0  0  0  0  0  0  0  0  0  0  0  0  # atno 17370 bound_to 10713
  156.1538  130.6328  151.0631 LP  0  0  0  0  0  0  0  0  0  0  0  0  # atno 17371 bound_to 10713
  140.1319  134.9350  157.2348 LP  0  0  0  0  0  0  0  0  0  0  0  0  # atno 17394 bound_to 11000
  140.2943  134.3205  155.7306 LP  0  0  0  0  0  0  0  0  0  0  0  0  # atno 17395 bound_to 11000

$$$$
