AV-unprocessed.smi:2343|AV-procd|sdf|9356|dock5
  -GOLD-   2272012573D 1   1.00000     0.00000
 Structure written by MMmdl.
 34 35  0  0  0  0  0  0  0  0  1 V2000
  151.4016  141.2683  156.4837 O   0  0  0  0  0  0  0  0  0  0  0  0
  150.6313  142.2097  156.2952 C   0  0  0  0  0  0  0  0  0  0  0  0
  150.7932  143.4180  156.8532 N   0  0  0  0  0  0  0  0  0  0  0  0
  151.8739  143.7841  157.7609 C   0  0  0  0  0  0  0  0  0  0  0  0
  151.3348  144.2355  159.1284 C   0  0  0  0  0  0  0  0  0  0  0  0
  152.3069  143.9513  160.2566 C   0  0  0  0  0  0  0  0  0  0  0  0
  153.2318  142.9927  160.2850 C   0  0  0  0  0  0  0  0  0  0  0  0
  154.0209  142.9856  161.5651 C   0  0  0  0  0  0  0  0  0  0  0  0
  153.3985  144.1313  162.3945 C   0  0  0  0  0  0  0  0  0  0  0  0
  152.2933  144.7689  161.5225 C   0  0  0  0  0  0  0  0  0  0  0  0
  149.5429  142.1833  155.5067 N   0  0  0  0  0  0  0  0  0  0  0  0
  148.9991  141.1002  154.7621 C   0  0  0  0  0  0  0  0  0  0  0  0
  149.6208  139.8356  154.6200 C   0  0  0  0  0  0  0  0  0  0  0  0
  148.9631  138.8410  153.8684 C   0  0  0  0  0  0  0  0  0  0  0  0
  147.7631  139.0246  153.2785 N   0  0  0  0  0  0  0  0  0  0  0  0
  147.1680  140.2270  153.4259 C   0  0  0  0  0  0  0  0  0  0  0  0
  147.7387  141.2887  154.1561 C   0  0  0  0  0  0  0  0  0  0  0  0
  147.0837  142.4698  154.2692 F   0  0  0  0  0  0  0  0  0  0  0  0
  150.1175  144.1368  156.6387 H   0  0  0  0  0  0  0  0  0  0  0  0
  152.5158  142.9118  157.8866 H   0  0  0  0  0  0  0  0  0  0  0  0
  152.4923  144.5619  157.3101 H   0  0  0  0  0  0  0  0  0  0  0  0
  151.1179  145.3044  159.1200 H   0  0  0  0  0  0  0  0  0  0  0  0
  150.3933  143.7266  159.3393 H   0  0  0  0  0  0  0  0  0  0  0  0
  153.4202  142.2841  159.4919 H   0  0  0  0  0  0  0  0  0  0  0  0
  153.9218  142.0225  162.0663 H   0  0  0  0  0  0  0  0  0  0  0  0
  155.0760  143.1642  161.3564 H   0  0  0  0  0  0  0  0  0  0  0  0
  152.9776  143.7459  163.3238 H   0  0  0  0  0  0  0  0  0  0  0  0
  154.1543  144.8698  162.6640 H   0  0  0  0  0  0  0  0  0  0  0  0
  152.5111  145.8151  161.3061 H   0  0  0  0  0  0  0  0  0  0  0  0
  151.3163  144.7096  162.0028 H   0  0  0  0  0  0  0  0  0  0  0  0
  149.0586  143.0620  155.3948 H   0  0  0  0  0  0  0  0  0  0  0  0
  150.5708  139.6026  155.0744 H   0  0  0  0  0  0  0  0  0  0  0  0
  149.4124  137.8667  153.7435 H   0  0  0  0  0  0  0  0  0  0  0  0
  146.2061  140.3464  152.9494 H   0  0  0  0  0  0  0  0  0  0  0  0
  1  2  2  0  0  0  0
  2  3  1  0  0  0  0
  2 11  1  0  0  0  0
  3  4  1  0  0  0  0
  3 19  1  0  0  0  0
  4  5  1  0  0  0  0
  4 20  1  0  0  0  0
  4 21  1  0  0  0  0
  5  6  1  0  0  0  0
  5 22  1  0  0  0  0
  5 23  1  0  0  0  0
  6 10  1  0  0  0  0
  6  7  2  0  0  0  0
  7  8  1  0  0  0  0
  7 24  1  0  0  0  0
  8  9  1  0  0  0  0
  8 25  1  0  0  0  0
  8 26  1  0  0  0  0
  9 10  1  0  0  0  0
  9 27  1  0  0  0  0
  9 28  1  0  0  0  0
 10 29  1  0  0  0  0
 10 30  1  0  0  0  0
 11 12  1  0  0  0  0
 11 31  1  0  0  0  0
 12 17  1  0  0  0  0
 12 13  2  0  0  0  0
 13 14  1  0  0  0  0
 13 32  1  0  0  0  0
 14 15  2  0  0  0  0
 14 33  1  0  0  0  0
 15 16  1  0  0  0  0
 16 17  2  0  0  0  0
 16 34  1  0  0  0  0
 17 18  1  0  0  0  0
M  END
> <s_m_source_file>
AV-unprocessed.smi

> <i_m_source_file_index>
2343

> <i_lp_mmshare_version>
43012

> <i_f3d_flags>
0

> <s_epik_input>
RmMxW2NIXW5bY0hdW2NIXWMxW05IXUMoPU8pW05IXVtDSDJdW0NIMl1DMj1bQ0hdW0NIMl1bQ0gyXVtDSDJdMg==

> <s_epik_cmdline>
J2VwaWtfcHl0aG9uJywgJy1waCcsICc3LjAnLCAnLXRuJywgJzgnLCAnLW1hJywgJzIwMCcsICctbWV0YWxfYmluZGluZycsICctaW1hZScsICc8aW5maWxlLm1hZT4nLCAnLW9tYWUnLCAnPG91dGZpbGUubWFlPic=

> <r_epik_Ionization_Penalty>
0.0031801

> <r_epik_Ionization_Penalty_Charging>
0

> <r_epik_Ionization_Penalty_Neutral>
0.0031801

> <r_epik_State_Penalty>
0.0022135

> <r_epik_Charging_Adjusted_Penalty>
0.0022135

> <i_epik_Tot_Q>
0

> <i_epik_Tot_abs_Q>
0

> <r_epik_Metal_State_Penalty>
-0

> <b_epik_Metal_Only>
0

> <s_lp_Force_Field>
OPLS_2005

> <r_lp_Energy>
22.6316

> <b_lp_Chiralities_Consistent>
1

> <s_lp_Variant>
AV-unprocessed.smi:2343-1

> <Gold.Version>
5.8.1

> <Gold.Id.Protein>
6NUR|6NUR_protein|mol2

> <Gold.PLP.Fitness>
53.5327

> <Gold.PLP.PLP>
-42.6622

> <Gold.PLP.part.hbond>
-2.0000

> <Gold.PLP.part.metal>
0.0000

> <Gold.PLP.part.buried>
-2.2072

> <Gold.PLP.part.nonpolar>
-40.9160

> <Gold.PLP.part.repulsive>
1.9089

> <Gold.PLP.ligand.clash>
0.0000

> <Gold.PLP.ligand.torsion>
0.5538

> <Gold.PLP.Chemscore.Hbond>
1.9920

> <Gold.PLP.Chemscore.CHOScore>
2.0000

> <Gold.PLP.Chemscore.Metal>
0.0000

> <Gold.Chemscore.Hbonds>
donor molecule, donor type, donor heavy atom, donor atom, acceptor molecule, acceptor atom, score
      L1  H     3    19       P1  8028  1.00
      L1  H    11    31       P1  8028  1.00
      L1  C    14    33       P1  7948  0.93
      L1  C    16    34       P1 10175  0.91

> <Gold.PLP.Chemscore.Internal.Correction>
0.0021

> <Gold.Rescore>
     Score         DG    S(hbond)    S(metal)    S(lipo)     H(rot)  DE(clash)    DE(int)     intcor
     19.43     -21.21       1.88        0.00     111.91       1.43       0.34       1.44       ----

> <Gold.Chemscore.Fitness>
19.4293

> <Gold.Chemscore.DG>
-21.2129

> <Gold.Chemscore.ZeroCoef>
-5.4800

> <Gold.Chemscore.Hbond>
1.8849

> <Gold.Chemscore.Metal>
0.0000

> <Gold.Chemscore.Lipo>
111.9117

> <Gold.Chemscore.Internal_Hbond>
0.0000

> <Gold.Chemscore.DEClash>
0.3399

> <Gold.Chemscore.DEInternal>
1.4438

> <Gold.Chemscore.Rot>
1.4282

> <Gold.Chemscore.Internal.Correction>
   9.000000E+99

> <Gold.Chemscore.Hbonds>
donor molecule, donor type, donor heavy atom, donor atom, acceptor molecule, acceptor atom, score
      L1  H     3    19       P1  8028  0.95
      L1  H    11    31       P1  8028  0.97

> <Gold.Chemscore.Hbond.Weighted>
-6.2955

> <Gold.Chemscore.Metal.Weighted>
-0.0000

> <Gold.Chemscore.Lipo.Weighted>
-13.0937

> <Gold.Chemscore.Internal_Hbond.Weighted>
0.0000

> <Gold.Chemscore.DEClash.Weighted>
0.3399

> <Gold.Chemscore.DEInternal.Weighted>
1.4438

> <Gold.Chemscore.Rot.Weighted>
3.6563

> <Gold.Chemscore.Internal.Correction.Weighted>
   9.000000E+99

> <Gold.Protein.RotatedTorsions>
[ 6907 6896 6895 6894 ] final -173.36 input  -60.11 | X-H torsion
[ 7974 7965 7964 7962 ] final -136.87 input  175.53 | X-H torsion
[ 8008 7997 7996 7995 ] final -139.21 input   59.86 | X-H torsion
[ 10167 10162 10161 10158 ] final -142.36 input  -65.29 | X-H torsion
[ 10718 10713 10712 10709 ] final  -47.02 input   66.30 | X-H torsion
[ 10763 10752 10751 10750 ] final  179.58 input  -60.55 | X-H torsion
[ 11005 11000 10999 10996 ] final   45.80 input  -57.11 | X-H torsion

> <Gold.Protein.ActiveResidues>
 VAL166  LYS551  ARG553  GLY616  TRP617  ASP618  TYR619  PRO620  LYS621  CYS622 
 ASP623  PHE694  ASN695  SER759  ASP760  ASP761  ALA762  ILE779  LEU786  VAL792 
 PHE793  MET794  SER795  GLU796  ALA797  LYS798  CYS799  TRP800  GLU811  SER814 

> <Gold.Protein.RotatedAtoms>
  151.5549  133.3412  159.2959 H   0  0  0  0  0  0  0  0  0  0  0  0  # atno 6907 bound_to 6896
  150.8456  134.7767  159.6979 H   0  0  0  0  0  0  0  0  0  0  0  0  # atno 6908 bound_to 6896
  152.4515  134.5392  159.9885 H   0  0  0  0  0  0  0  0  0  0  0  0  # atno 6909 bound_to 6896
  144.8890  140.6615  143.5157 H   0  0  0  0  0  0  0  0  0  0  0  0  # atno 7974 bound_to 7965
  155.4410  140.0532  157.3010 H   0  0  0  0  0  0  0  0  0  0  0  0  # atno 8008 bound_to 7997
  154.4818  140.2084  155.9703 H   0  0  0  0  0  0  0  0  0  0  0  0  # atno 8009 bound_to 7997
  156.1216  140.3187  155.8222 H   0  0  0  0  0  0  0  0  0  0  0  0  # atno 8010 bound_to 7997
  139.8096  143.7721  152.2663 H   0  0  0  0  0  0  0  0  0  0  0  0  # atno 10167 bound_to 10162
  156.2125  130.4161  149.9096 H   0  0  0  0  0  0  0  0  0  0  0  0  # atno 10718 bound_to 10713
  154.5225  135.2795  155.1250 H   0  0  0  0  0  0  0  0  0  0  0  0  # atno 10763 bound_to 10752
  154.2801  135.6287  153.5347 H   0  0  0  0  0  0  0  0  0  0  0  0  # atno 10764 bound_to 10752
  152.9940  135.5649  154.5718 H   0  0  0  0  0  0  0  0  0  0  0  0  # atno 10765 bound_to 10752
  140.1427  134.4563  155.8438 H   0  0  0  0  0  0  0  0  0  0  0  0  # atno 11005 bound_to 11000
  145.3817  139.1635  143.4277 LP  0  0  0  0  0  0  0  0  0  0  0  0  # atno 17320 bound_to 7965
  146.3042  140.3898  142.8693 LP  0  0  0  0  0  0  0  0  0  0  0  0  # atno 17321 bound_to 7965
  139.7866  144.7425  151.0013 LP  0  0  0  0  0  0  0  0  0  0  0  0  # atno 17342 bound_to 10162
  140.7818  143.4486  151.0446 LP  0  0  0  0  0  0  0  0  0  0  0  0  # atno 17343 bound_to 10162
  156.6769  130.8842  151.3570 LP  0  0  0  0  0  0  0  0  0  0  0  0  # atno 17370 bound_to 10713
  157.7046  130.9371  150.0891 LP  0  0  0  0  0  0  0  0  0  0  0  0  # atno 17371 bound_to 10713
  141.2188  133.6839  156.7276 LP  0  0  0  0  0  0  0  0  0  0  0  0  # atno 17394 bound_to 11000
  140.2702  134.8398  157.3840 LP  0  0  0  0  0  0  0  0  0  0  0  0  # atno 17395 bound_to 11000

$$$$
