AV-unprocessed.smi:104|AV-procd|sdf|1002|dock7
  -GOLD-   2262017593D 1   1.00000     0.00000
 Structure written by MMmdl.
 47 49  0  0  0  0  0  0  0  0  1 V2000
  151.6742  138.5108  154.3806 C   0  0  0  0  0  0  0  0  0  0  0  0
  151.2884  137.3497  155.2871 C   0  0  0  0  0  0  0  0  0  0  0  0
  152.1331  136.7234  155.9272 O   0  0  0  0  0  0  0  0  0  0  0  0
  149.9684  137.1216  155.2884 O   0  0  0  0  0  0  0  0  0  0  0  0
  149.3463  136.5887  156.4464 C   0  0  0  0  0  0  0  0  0  0  0  0
  147.8777  136.2505  156.1549 C   0  0  1  0  0  0  0  0  0  0  0  0
  147.6716  136.0309  154.7694 O   0  0  0  0  0  0  0  0  0  0  0  0
  146.4999  135.2971  154.5985 C   0  0  1  0  0  0  0  0  0  0  0  0
  146.7324  134.3254  153.4808 N   0  0  0  0  0  0  0  0  0  0  0  0
  147.7900  133.4676  153.2799 C   0  0  0  0  0  0  0  0  0  0  0  0
  149.2678  133.3706  154.4772 Br  0  0  0  0  0  0  0  0  0  0  0  0
  147.7557  132.7194  152.2127 N   0  0  0  0  0  0  0  0  0  0  0  0
  146.5620  133.0982  151.6115 C   0  0  0  0  0  0  0  0  0  0  0  0
  145.8893  132.7100  150.4253 C   0  0  0  0  0  0  0  0  0  0  0  0
  146.3666  131.7820  149.5844 N   0  0  0  0  0  0  0  0  0  0  0  0
  144.7117  133.3056  150.1243 N   0  0  0  0  0  0  0  0  0  0  0  0
  144.2151  134.2368  150.9450 C   0  0  0  0  0  0  0  0  0  0  0  0
  144.7264  134.7014  152.0878 N   0  0  0  0  0  0  0  0  0  0  0  0
  145.9132  134.0989  152.3921 C   0  0  0  0  0  0  0  0  0  0  0  0
  146.1664  134.6030  155.9400 C   0  0  1  0  0  0  0  0  0  0  0  0
  146.0521  133.1890  155.8086 O   0  0  0  0  0  0  0  0  0  0  0  0
  145.9953  132.4053  156.8962 C   0  0  0  0  0  0  0  0  0  0  0  0
  145.9059  130.9284  156.5381 C   0  0  0  0  0  0  0  0  0  0  0  0
  146.0120  132.7854  158.0669 O   0  0  0  0  0  0  0  0  0  0  0  0
  147.3470  134.9816  156.8251 C   0  0  2  0  0  0  0  0  0  0  0  0
  146.8889  135.2418  158.1453 O   0  0  0  0  0  0  0  0  0  0  0  0
  147.5921  134.8062  159.2041 C   0  0  0  0  0  0  0  0  0  0  0  0
  146.9828  135.2521  160.5262 C   0  0  0  0  0  0  0  0  0  0  0  0
  148.6182  134.1269  159.1653 O   0  0  0  0  0  0  0  0  0  0  0  0
  151.3284  138.3283  153.3631 H   0  0  0  0  0  0  0  0  0  0  0  0
  152.7565  138.6391  154.3606 H   0  0  0  0  0  0  0  0  0  0  0  0
  151.2234  139.4356  154.7405 H   0  0  0  0  0  0  0  0  0  0  0  0
  149.8721  135.6857  156.7597 H   0  0  0  0  0  0  0  0  0  0  0  0
  149.4133  137.3055  157.2659 H   0  0  0  0  0  0  0  0  0  0  0  0
  147.2520  137.0988  156.4386 H   0  0  0  0  0  0  0  0  0  0  0  0
  145.6994  135.9513  154.2553 H   0  0  0  0  0  0  0  0  0  0  0  0
  147.2446  131.3248  149.7853 H   0  0  0  0  0  0  0  0  0  0  0  0
  145.8475  131.5398  148.7529 H   0  0  0  0  0  0  0  0  0  0  0  0
  143.2753  134.6737  150.6417 H   0  0  0  0  0  0  0  0  0  0  0  0
  145.2411  135.0485  156.3091 H   0  0  0  0  0  0  0  0  0  0  0  0
  144.9473  130.7113  156.0668 H   0  0  0  0  0  0  0  0  0  0  0  0
  146.0007  130.3105  157.4313 H   0  0  0  0  0  0  0  0  0  0  0  0
  146.7025  130.6576  155.8447 H   0  0  0  0  0  0  0  0  0  0  0  0
  148.0903  134.1837  156.7873 H   0  0  0  0  0  0  0  0  0  0  0  0
  147.0611  136.3339  160.6329 H   0  0  0  0  0  0  0  0  0  0  0  0
  147.4999  134.7835  161.3637 H   0  0  0  0  0  0  0  0  0  0  0  0
  145.9296  134.9740  160.5714 H   0  0  0  0  0  0  0  0  0  0  0  0
  1  2  1  0  0  0  0
  1 30  1  0  0  0  0
  1 31  1  0  0  0  0
  1 32  1  0  0  0  0
  2  3  2  0  0  0  0
  2  4  1  0  0  0  0
  4  5  1  0  0  0  0
  5  6  1  0  0  0  0
  5 33  1  0  0  0  0
  5 34  1  0  0  0  0
  6 25  1  0  0  0  0
  6  7  1  0  0  0  0
  6 35  1  0  0  0  0
  7  8  1  0  0  0  0
  8  9  1  0  0  0  0
  8 20  1  0  0  0  0
  8 36  1  0  0  0  0
  9 19  1  0  0  0  0
  9 10  1  0  0  0  0
 10 11  1  0  0  0  0
 10 12  2  0  0  0  0
 12 13  1  0  0  0  0
 13 19  2  0  0  0  0
 13 14  1  0  0  0  0
 14 15  1  0  0  0  0
 14 16  2  0  0  0  0
 15 37  1  0  0  0  0
 15 38  1  0  0  0  0
 16 17  1  0  0  0  0
 17 18  2  0  0  0  0
 17 39  1  0  0  0  0
 18 19  1  0  0  0  0
 20 21  1  0  0  0  0
 20 25  1  0  0  0  0
 20 40  1  0  0  0  0
 21 22  1  0  0  0  0
 22 23  1  0  0  0  0
 22 24  2  0  0  0  0
 23 41  1  0  0  0  0
 23 42  1  0  0  0  0
 23 43  1  0  0  0  0
 25 26  1  0  0  0  0
 25 44  1  0  0  0  0
 26 27  1  0  0  0  0
 27 28  1  0  0  0  0
 27 29  2  0  0  0  0
 28 45  1  0  0  0  0
 28 46  1  0  0  0  0
 28 47  1  0  0  0  0
M  END
> <s_m_source_file>
AV-unprocessed.smi

> <i_m_source_file_index>
104

> <i_lp_mmshare_version>
43012

> <i_f3d_flags>
0

> <s_epik_input>
W0NIM11DKD1PKU9bQ0gyXVtDQEBIXTFPW0NASF0oW0NAQEhdKE9DKD1PKVtDSDNdKVtDQEhdMU9DKD1PKVtDSDNdKW4oYyhCciluMiljKGMyMyluW2NIXW5jM1tOSDJd

> <s_epik_cmdline>
J2VwaWtfcHl0aG9uJywgJy1waCcsICc3LjAnLCAnLXRuJywgJzgnLCAnLW1hJywgJzIwMCcsICctbWV0YWxfYmluZGluZycsICctaW1hZScsICc8aW5maWxlLm1hZT4nLCAnLW9tYWUnLCAnPG91dGZpbGUubWFlPic=

> <r_lp_tautomer_probability>
1

> <r_epik_Ionization_Penalty>
7.36622e-05

> <r_epik_Ionization_Penalty_Charging>
0

> <r_epik_Ionization_Penalty_Neutral>
7.36622e-05

> <r_epik_State_Penalty>
-0

> <r_epik_Charging_Adjusted_Penalty>
0

> <i_epik_Tot_Q>
0

> <i_epik_Tot_abs_Q>
0

> <r_epik_Metal_State_Penalty>
-0

> <b_epik_Metal_Only>
0

> <s_epik_Chemistry_Notes>
This compound has an ester and may undergo hydrolysis at high or low pH. This compound contains an acetal/aminal-like group ( X-CH(R)-Y where X, Y are N, S, or O) that may be acid/base labile, releasing an aldehyde.

> <s_lp_Force_Field>
OPLS_2005

> <r_lp_Energy>
14.3188

> <b_lp_Chiralities_Consistent>
1

> <s_lp_Variant>
AV-unprocessed.smi:104-10

> <Gold.Version>
5.8.1

> <Gold.Id.Protein>
6NUR|6NUR_protein|mol2

> <Gold.PLP.Fitness>
35.8061

> <Gold.PLP.PLP>
-27.3054

> <Gold.PLP.part.hbond>
-3.0000

> <Gold.PLP.part.metal>
0.0000

> <Gold.PLP.part.buried>
-7.1029

> <Gold.PLP.part.nonpolar>
-19.4263

> <Gold.PLP.part.repulsive>
1.8848

> <Gold.PLP.ligand.clash>
0.0000

> <Gold.PLP.ligand.torsion>
1.8003

> <Gold.PLP.Chemscore.Hbond>
3.0000

> <Gold.PLP.Chemscore.CHOScore>
0.9967

> <Gold.PLP.Chemscore.Metal>
0.0000

> <Gold.Chemscore.Hbonds>
donor molecule, donor type, donor heavy atom, donor atom, acceptor molecule, acceptor atom, score
      L1  H    15    37       P1 10747  1.00
      P1  H  6896  6909       L1    29  1.00
      P1  H 10752 10765       L1     3  1.00
      L1  C    17    39       P1 10186  1.00

> <Gold.PLP.Chemscore.Internal.Correction>
0.1112

> <Gold.Rescore>
     Score         DG    S(hbond)    S(metal)    S(lipo)     H(rot)  DE(clash)    DE(int)     intcor
      0.96      -7.61       2.90        0.00      29.68       4.31       0.04       6.60       ----

> <Gold.Chemscore.Fitness>
0.9624

> <Gold.Chemscore.DG>
-7.6067

> <Gold.Chemscore.ZeroCoef>
-5.4800

> <Gold.Chemscore.Hbond>
2.8982

> <Gold.Chemscore.Metal>
0.0000

> <Gold.Chemscore.Lipo>
29.6796

> <Gold.Chemscore.Internal_Hbond>
0.0000

> <Gold.Chemscore.DEClash>
0.0424

> <Gold.Chemscore.DEInternal>
6.6019

> <Gold.Chemscore.Rot>
4.3070

> <Gold.Chemscore.Internal.Correction>
   9.000000E+99

> <Gold.Chemscore.Hbonds>
donor molecule, donor type, donor heavy atom, donor atom, acceptor molecule, acceptor atom, score
      L1  H    15    37       P1 10747  1.00
      P1  H  6896  6909       L1    29  0.92
      P1  H 10752 10765       L1     3  0.84

> <Gold.Chemscore.Hbond.Weighted>
-9.6800

> <Gold.Chemscore.Metal.Weighted>
-0.0000

> <Gold.Chemscore.Lipo.Weighted>
-3.4725

> <Gold.Chemscore.Internal_Hbond.Weighted>
0.0000

> <Gold.Chemscore.DEClash.Weighted>
0.0424

> <Gold.Chemscore.DEInternal.Weighted>
6.6019

> <Gold.Chemscore.Rot.Weighted>
11.0259

> <Gold.Chemscore.Internal.Correction.Weighted>
   9.000000E+99

> <Gold.Protein.RotatedTorsions>
[ 6907 6896 6895 6894 ] final   24.39 input  -60.11 | X-H torsion
[ 7974 7965 7964 7962 ] final   57.59 input  175.53 | X-H torsion
[ 8008 7997 7996 7995 ] final -115.72 input   59.86 | X-H torsion
[ 10167 10162 10161 10158 ] final -164.57 input  -65.29 | X-H torsion
[ 10718 10713 10712 10709 ] final  -39.44 input   66.30 | X-H torsion
[ 10763 10752 10751 10750 ] final -161.64 input  -60.55 | X-H torsion
[ 11005 11000 10999 10996 ] final -144.44 input  -57.11 | X-H torsion

> <Gold.Protein.ActiveResidues>
 VAL166  LYS551  ARG553  GLY616  TRP617  ASP618  TYR619  PRO620  LYS621  CYS622 
 ASP623  PHE694  ASN695  SER759  ASP760  ASP761  ALA762  ILE779  LEU786  VAL792 
 PHE793  MET794  SER795  GLU796  ALA797  LYS798  CYS799  TRP800  GLU811  SER814 

> <Gold.Protein.RotatedAtoms>
  151.9568  135.0143  160.0545 H   0  0  0  0  0  0  0  0  0  0  0  0  # atno 6907 bound_to 6896
  152.1904  133.4764  159.5013 H   0  0  0  0  0  0  0  0  0  0  0  0  # atno 6908 bound_to 6896
  150.6934  134.1637  159.4229 H   0  0  0  0  0  0  0  0  0  0  0  0  # atno 6909 bound_to 6896
  145.9274  139.3779  143.0442 H   0  0  0  0  0  0  0  0  0  0  0  0  # atno 7974 bound_to 7965
  155.0564  140.0393  157.2562 H   0  0  0  0  0  0  0  0  0  0  0  0  # atno 8008 bound_to 7997
  154.7095  140.2690  155.6618 H   0  0  0  0  0  0  0  0  0  0  0  0  # atno 8009 bound_to 7997
  156.2785  140.2724  156.1732 H   0  0  0  0  0  0  0  0  0  0  0  0  # atno 8010 bound_to 7997
  139.6241  144.0566  152.1959 H   0  0  0  0  0  0  0  0  0  0  0  0  # atno 10167 bound_to 10162
  156.2924  130.4230  149.8225 H   0  0  0  0  0  0  0  0  0  0  0  0  # atno 10718 bound_to 10713
  154.7285  135.3041  154.8931 H   0  0  0  0  0  0  0  0  0  0  0  0  # atno 10763 bound_to 10752
  153.9781  135.6733  153.4753 H   0  0  0  0  0  0  0  0  0  0  0  0  # atno 10764 bound_to 10752
  153.0897  135.4966  154.8585 H   0  0  0  0  0  0  0  0  0  0  0  0  # atno 10765 bound_to 10752
  140.8024  134.2841  157.4973 H   0  0  0  0  0  0  0  0  0  0  0  0  # atno 11005 bound_to 11000
  145.8471  140.9549  143.0769 LP  0  0  0  0  0  0  0  0  0  0  0  0  # atno 17320 bound_to 7965
  144.6760  140.0359  143.7482 LP  0  0  0  0  0  0  0  0  0  0  0  0  # atno 17321 bound_to 7965
  140.0215  144.6149  150.7562 LP  0  0  0  0  0  0  0  0  0  0  0  0  # atno 17342 bound_to 10162
  140.7400  143.2799  151.3630 LP  0  0  0  0  0  0  0  0  0  0  0  0  # atno 17343 bound_to 10162
  156.5633  130.8393  151.3335 LP  0  0  0  0  0  0  0  0  0  0  0  0  # atno 17370 bound_to 10713
  157.7346  130.9749  150.2038 LP  0  0  0  0  0  0  0  0  0  0  0  0  # atno 17371 bound_to 10713
  139.8720  134.9437  156.3860 LP  0  0  0  0  0  0  0  0  0  0  0  0  # atno 17394 bound_to 11000
  140.9281  133.7598  155.9990 LP  0  0  0  0  0  0  0  0  0  0  0  0  # atno 17395 bound_to 11000

$$$$
