AV-unprocessed.smi:1473|AV-procd|sdf|5971|dock7
  -GOLD-   22720 6 63D 1   1.00000     0.00000
 Structure written by MMmdl.
 32 33  0  0  0  0  0  0  0  0  3 V2000
  153.5027  136.0921  156.9770 N   0  5  0  0  0  0  0  0  0  0  0  0
  153.0477  137.6230  157.2492 S   0  0  0  0  0  0  0  0  0  0  0  0
  151.6435  137.6506  157.6859 O   0  0  0  0  0  0  0  0  0  0  0  0
  153.9952  138.3146  158.1411 O   0  0  0  0  0  0  0  0  0  0  0  0
  153.1545  138.1228  155.6998 N   0  5  0  0  0  0  0  0  0  0  0  0
  151.9737  138.3802  154.8794 C   0  0  0  0  0  0  0  0  0  0  0  0
  151.1806  139.5708  155.3996 C   0  0  0  0  0  0  0  0  0  0  0  0
  149.8765  139.8328  154.9255 C   0  0  0  0  0  0  0  0  0  0  0  0
  149.1922  140.9513  155.4348 C   0  0  0  0  0  0  0  0  0  0  0  0
  149.7144  141.7836  156.3591 N   0  0  0  0  0  0  0  0  0  0  0  0
  150.9638  141.5413  156.8273 C   0  0  0  0  0  0  0  0  0  0  0  0
  151.4952  142.4190  157.7974 N   0  0  0  0  0  0  0  0  0  0  0  0
  152.0326  141.7823  158.9972 C   0  0  0  0  0  0  0  0  0  0  0  0
  152.8457  142.7945  159.8229 C   0  0  0  0  0  0  0  0  0  0  0  0
  152.0462  143.9367  160.1122 O   0  0  0  0  0  0  0  0  0  0  0  0
  151.6295  144.6042  158.9256 C   0  0  0  0  0  0  0  0  0  0  0  0
  150.7685  143.6565  158.0739 C   0  0  0  0  0  0  0  0  0  0  0  0
  151.7308  140.4447  156.3657 C   0  0  0  0  0  0  0  0  0  0  0  0
  154.0558  135.7744  157.7817 H   0  0  0  0  0  0  0  0  0  0  0  0
  152.2390  138.5831  153.8410 H   0  0  0  0  0  0  0  0  0  0  0  0
  151.3052  137.5186  154.8451 H   0  0  0  0  0  0  0  0  0  0  0  0
  149.4023  139.2055  154.1830 H   0  0  0  0  0  0  0  0  0  0  0  0
  148.1953  141.1835  155.0909 H   0  0  0  0  0  0  0  0  0  0  0  0
  151.2030  141.3976  159.5916 H   0  0  0  0  0  0  0  0  0  0  0  0
  152.6686  140.9324  158.7546 H   0  0  0  0  0  0  0  0  0  0  0  0
  153.1676  142.3404  160.7602 H   0  0  0  0  0  0  0  0  0  0  0  0
  153.7485  143.0949  159.2887 H   0  0  0  0  0  0  0  0  0  0  0  0
  151.0551  145.4892  159.1988 H   0  0  0  0  0  0  0  0  0  0  0  0
  152.4995  144.9496  158.3647 H   0  0  0  0  0  0  0  0  0  0  0  0
  150.4997  144.1534  157.1407 H   0  0  0  0  0  0  0  0  0  0  0  0
  149.8415  143.4218  158.5989 H   0  0  0  0  0  0  0  0  0  0  0  0
  152.7350  140.2884  156.7357 H   0  0  0  0  0  0  0  0  0  0  0  0
  1  2  1  0  0  0  0
  1 19  1  0  0  0  0
  2  3  2  0  0  0  0
  2  4  2  0  0  0  0
  2  5  1  0  0  0  0
  5  6  1  0  0  0  0
  6  7  1  0  0  0  0
  6 20  1  0  0  0  0
  6 21  1  0  0  0  0
  7 18  1  0  0  0  0
  7  8  2  0  0  0  0
  8  9  1  0  0  0  0
  8 22  1  0  0  0  0
  9 10  2  0  0  0  0
  9 23  1  0  0  0  0
 10 11  1  0  0  0  0
 11 12  1  0  0  0  0
 11 18  2  0  0  0  0
 12 17  1  0  0  0  0
 12 13  1  0  0  0  0
 13 14  1  0  0  0  0
 13 24  1  0  0  0  0
 13 25  1  0  0  0  0
 14 15  1  0  0  0  0
 14 26  1  0  0  0  0
 14 27  1  0  0  0  0
 15 16  1  0  0  0  0
 16 17  1  0  0  0  0
 16 28  1  0  0  0  0
 16 29  1  0  0  0  0
 17 30  1  0  0  0  0
 17 31  1  0  0  0  0
 18 32  1  0  0  0  0
M  CHG  1   1  -1
M  CHG  1   5  -1
M  END
> <s_m_source_file>
AV-unprocessed.smi

> <i_m_source_file_index>
1473

> <i_lp_mmshare_version>
43012

> <i_f3d_flags>
0

> <s_epik_input>
W05IMl1TKD1PKSg9TylbTkhdW0NIMl1jMVtjSF1bY0hdbmMoW2NIXTEpTjJbQ0gyXVtDSDJdT1tDSDJdW0NIMl0y

> <s_epik_cmdline>
J2VwaWtfcHl0aG9uJywgJy1waCcsICc3LjAnLCAnLXRuJywgJzgnLCAnLW1hJywgJzIwMCcsICctbWV0YWxfYmluZGluZycsICctaW1hZScsICc8aW5maWxlLm1hZT4nLCAnLW9tYWUnLCAnPG91dGZpbGUubWFlPic=

> <r_lp_tautomer_probability>
1

> <r_epik_Ionization_Penalty>
9.31635

> <r_epik_Ionization_Penalty_Charging>
9.0542

> <r_epik_Ionization_Penalty_Neutral>
0.262148

> <r_epik_State_Penalty>
4.75451

> <r_epik_Charging_Adjusted_Penalty>
13.8087

> <i_epik_Tot_Q>
-2

> <i_epik_Tot_abs_Q>
2

> <r_epik_Metal_State_Penalty>
1.32914

> <b_epik_Metal_Only>
1

> <s_lp_Force_Field>
OPLS_2005

> <r_lp_Energy>
19.9679

> <b_lp_Chiralities_Consistent>
1

> <s_lp_Variant>
AV-unprocessed.smi:1473-6

> <Gold.Version>
5.8.1

> <Gold.Id.Protein>
6NUR|6NUR_protein|mol2

> <Gold.PLP.Fitness>
44.0501

> <Gold.PLP.PLP>
-32.3138

> <Gold.PLP.part.hbond>
-3.0000

> <Gold.PLP.part.metal>
0.0000

> <Gold.PLP.part.buried>
-2.7765

> <Gold.PLP.part.nonpolar>
-25.4546

> <Gold.PLP.part.repulsive>
0.1922

> <Gold.PLP.ligand.clash>
0.0000

> <Gold.PLP.ligand.torsion>
0.8567

> <Gold.PLP.Chemscore.Hbond>
4.0320

> <Gold.PLP.Chemscore.CHOScore>
0.0000

> <Gold.PLP.Chemscore.Metal>
0.0000

> <Gold.Chemscore.Hbonds>
donor molecule, donor type, donor heavy atom, donor atom, acceptor molecule, acceptor atom, score
      P1  H  7997  8009       L1     4  0.21
      P1  H 10752 10763       L1     1  1.73

> <Gold.PLP.Chemscore.Internal.Correction>
1.3536

> <Gold.Rescore>
     Score         DG    S(hbond)    S(metal)    S(lipo)     H(rot)  DE(clash)    DE(int)     intcor
     14.84     -15.85       1.79        0.00      78.29       1.86       0.11       0.90       ----

> <Gold.Chemscore.Fitness>
14.8446

> <Gold.Chemscore.DG>
-15.8483

> <Gold.Chemscore.ZeroCoef>
-5.4800

> <Gold.Chemscore.Hbond>
1.7878

> <Gold.Chemscore.Metal>
0.0000

> <Gold.Chemscore.Lipo>
78.2927

> <Gold.Chemscore.Internal_Hbond>
0.0000

> <Gold.Chemscore.DEClash>
0.1052

> <Gold.Chemscore.DEInternal>
0.8985

> <Gold.Chemscore.Rot>
1.8606

> <Gold.Chemscore.Internal.Correction>
   9.000000E+99

> <Gold.Chemscore.Hbonds>
donor molecule, donor type, donor heavy atom, donor atom, acceptor molecule, acceptor atom, score
      P1  H  7997  8009       L1     4  0.21
      P1  H  7997  8010       L1     5  0.01
      P1  H 10752 10763       L1     1  0.70

> <Gold.Chemscore.Hbond.Weighted>
-5.9711

> <Gold.Chemscore.Metal.Weighted>
-0.0000

> <Gold.Chemscore.Lipo.Weighted>
-9.1602

> <Gold.Chemscore.Internal_Hbond.Weighted>
0.0000

> <Gold.Chemscore.DEClash.Weighted>
0.1052

> <Gold.Chemscore.DEInternal.Weighted>
0.8985

> <Gold.Chemscore.Rot.Weighted>
4.7631

> <Gold.Chemscore.Internal.Correction.Weighted>
   9.000000E+99

> <Gold.Protein.RotatedTorsions>
[ 6907 6896 6895 6894 ] final  -16.45 input  -60.11 | X-H torsion
[ 7974 7965 7964 7962 ] final  150.74 input  175.53 | X-H torsion
[ 8008 7997 7996 7995 ] final  105.82 input   59.86 | X-H torsion
[ 10167 10162 10161 10158 ] final  106.61 input  -65.29 | X-H torsion
[ 10718 10713 10712 10709 ] final  -84.64 input   66.30 | X-H torsion
[ 10763 10752 10751 10750 ] final  152.46 input  -60.55 | X-H torsion
[ 11005 11000 10999 10996 ] final  144.78 input  -57.11 | X-H torsion

> <Gold.Protein.ActiveResidues>
 VAL166  LYS551  ARG553  GLY616  TRP617  ASP618  TYR619  PRO620  LYS621  CYS622 
 ASP623  PHE694  ASN695  SER759  ASP760  ASP761  ALA762  ILE779  LEU786  VAL792 
 PHE793  MET794  SER795  GLU796  ALA797  LYS798  CYS799  TRP800  GLU811  SER814 

> <Gold.Protein.RotatedAtoms>
  151.3084  135.0787  159.9263 H   0  0  0  0  0  0  0  0  0  0  0  0  # atno 6907 bound_to 6896
  152.5283  133.9761  159.7795 H   0  0  0  0  0  0  0  0  0  0  0  0  # atno 6908 bound_to 6896
  151.0060  133.5958  159.2719 H   0  0  0  0  0  0  0  0  0  0  0  0  # atno 6909 bound_to 6896
  144.8342  139.6447  143.6045 H   0  0  0  0  0  0  0  0  0  0  0  0  # atno 7974 bound_to 7965
  156.1691  140.3124  155.8942 H   0  0  0  0  0  0  0  0  0  0  0  0  # atno 8008 bound_to 7997
  155.3623  140.0477  157.3063 H   0  0  0  0  0  0  0  0  0  0  0  0  # atno 8009 bound_to 7997
  154.5223  140.2202  155.8964 H   0  0  0  0  0  0  0  0  0  0  0  0  # atno 8010 bound_to 7997
  139.6995  144.7096  151.1210 H   0  0  0  0  0  0  0  0  0  0  0  0  # atno 10167 bound_to 10162
  156.0004  130.4704  150.4441 H   0  0  0  0  0  0  0  0  0  0  0  0  # atno 10718 bound_to 10713
  154.1204  135.2833  155.3209 H   0  0  0  0  0  0  0  0  0  0  0  0  # atno 10763 bound_to 10752
  154.6427  135.5397  153.7811 H   0  0  0  0  0  0  0  0  0  0  0  0  # atno 10764 bound_to 10752
  153.0315  135.6490  154.1359 H   0  0  0  0  0  0  0  0  0  0  0  0  # atno 10765 bound_to 10752
  140.0660  134.9178  157.1264 H   0  0  0  0  0  0  0  0  0  0  0  0  # atno 11005 bound_to 11000
  146.2643  139.6482  142.9340 LP  0  0  0  0  0  0  0  0  0  0  0  0  # atno 17320 bound_to 7965
  145.4830  141.0438  143.2635 LP  0  0  0  0  0  0  0  0  0  0  0  0  # atno 17321 bound_to 7965
  140.7705  143.5444  150.9276 LP  0  0  0  0  0  0  0  0  0  0  0  0  # atno 17342 bound_to 10162
  139.9125  143.6703  152.3112 LP  0  0  0  0  0  0  0  0  0  0  0  0  # atno 17343 bound_to 10162
  157.2480  131.0540  151.2397 LP  0  0  0  0  0  0  0  0  0  0  0  0  # atno 17370 bound_to 10713
  157.3556  130.7105  149.6468 LP  0  0  0  0  0  0  0  0  0  0  0  0  # atno 17371 bound_to 10713
  140.3699  134.2402  155.7179 LP  0  0  0  0  0  0  0  0  0  0  0  0  # atno 17394 bound_to 11000
  141.1993  133.8016  157.0544 LP  0  0  0  0  0  0  0  0  0  0  0  0  # atno 17395 bound_to 11000

$$$$
