AV-unprocessed.smi:2274|AV-procd|sdf|9168|dock3
  -GOLD-   2272012383D 1   1.00000     0.00000
 Structure written by MMmdl.
 47 48  0  0  0  0  0  0  0  0  1 V2000
  150.7202  144.0816  159.6127 C   0  0  0  0  0  0  0  0  0  0  0  0
  151.7741  144.2641  160.7113 C   0  0  0  0  0  0  0  0  0  0  0  0
  152.8576  143.3061  160.5766 N   0  0  0  0  0  0  0  0  0  0  0  0
  152.6926  142.2446  159.7514 N   0  0  0  0  0  0  0  0  0  0  0  0
  153.8201  141.5533  159.8276 C   0  0  0  0  0  0  0  0  0  0  0  0
  153.9305  140.2595  159.0695 C   0  0  0  0  0  0  0  0  0  0  0  0
  154.7455  142.2079  160.6945 C   0  0  0  0  0  0  0  0  0  0  0  0
  156.0462  141.8004  161.0823 N   0  0  0  0  0  0  0  0  0  0  0  0
  156.4924  140.5397  161.1895 C   0  0  0  0  0  0  0  0  0  0  0  0
  155.8314  139.5348  160.9281 O   0  0  0  0  0  0  0  0  0  0  0  0
  157.7677  140.5044  161.6006 N   0  0  0  0  0  0  0  0  0  0  0  0
  158.5426  139.2884  161.8180 C   0  0  0  0  0  0  0  0  0  0  0  0
  158.0201  138.4923  163.0270 C   0  0  0  0  0  0  0  0  0  0  0  0
  158.6968  137.1209  163.1777 C   0  0  2  0  0  0  0  0  0  0  0  0
  158.1092  136.0802  162.2040 C   0  0  0  0  0  0  0  0  0  0  0  0
  158.7445  134.7045  162.4351 C   0  0  0  0  0  0  0  0  0  0  0  0
  158.6226  134.3211  163.9134 C   0  0  0  0  0  0  0  0  0  0  0  0
  159.1774  135.4443  164.8032 C   0  0  0  0  0  0  0  0  0  0  0  0
  158.5053  136.6671  164.5166 O   0  0  0  0  0  0  0  0  0  0  0  0
  154.1008  143.3063  161.1853 C   0  0  0  0  0  0  0  0  0  0  0  0
  154.5361  144.3589  162.1538 C   0  0  0  0  0  0  0  0  0  0  0  0
  149.9126  144.8047  159.7263 H   0  0  0  0  0  0  0  0  0  0  0  0
  150.2813  143.0840  159.6499 H   0  0  0  0  0  0  0  0  0  0  0  0
  151.1550  144.2205  158.6223 H   0  0  0  0  0  0  0  0  0  0  0  0
  152.1845  145.2738  160.6784 H   0  0  0  0  0  0  0  0  0  0  0  0
  151.3175  144.1453  161.6951 H   0  0  0  0  0  0  0  0  0  0  0  0
  154.5466  139.5382  159.6065 H   0  0  0  0  0  0  0  0  0  0  0  0
  154.3756  140.4185  158.0872 H   0  0  0  0  0  0  0  0  0  0  0  0
  152.9524  139.8012  158.9182 H   0  0  0  0  0  0  0  0  0  0  0  0
  156.7259  142.5370  161.2008 H   0  0  0  0  0  0  0  0  0  0  0  0
  158.2347  141.3804  161.7840 H   0  0  0  0  0  0  0  0  0  0  0  0
  158.5309  138.6715  160.9178 H   0  0  0  0  0  0  0  0  0  0  0  0
  159.5807  139.5788  161.9812 H   0  0  0  0  0  0  0  0  0  0  0  0
  158.1612  139.0720  163.9403 H   0  0  0  0  0  0  0  0  0  0  0  0
  156.9444  138.3455  162.9211 H   0  0  0  0  0  0  0  0  0  0  0  0
  159.7653  137.2323  162.9842 H   0  0  0  0  0  0  0  0  0  0  0  0
  157.0299  136.0110  162.3457 H   0  0  0  0  0  0  0  0  0  0  0  0
  158.2694  136.3944  161.1721 H   0  0  0  0  0  0  0  0  0  0  0  0
  158.2660  133.9534  161.8060 H   0  0  0  0  0  0  0  0  0  0  0  0
  159.7963  134.7322  162.1477 H   0  0  0  0  0  0  0  0  0  0  0  0
  157.5753  134.1446  164.1613 H   0  0  0  0  0  0  0  0  0  0  0  0
  159.1521  133.3877  164.1067 H   0  0  0  0  0  0  0  0  0  0  0  0
  159.0265  135.1983  165.8544 H   0  0  0  0  0  0  0  0  0  0  0  0
  160.2519  135.5637  164.6553 H   0  0  0  0  0  0  0  0  0  0  0  0
  155.5910  144.2516  162.4059 H   0  0  0  0  0  0  0  0  0  0  0  0
  153.9619  144.2944  163.0781 H   0  0  0  0  0  0  0  0  0  0  0  0
  154.3943  145.3554  161.7350 H   0  0  0  0  0  0  0  0  0  0  0  0
  1  2  1  0  0  0  0
  1 22  1  0  0  0  0
  1 23  1  0  0  0  0
  1 24  1  0  0  0  0
  2  3  1  0  0  0  0
  2 25  1  0  0  0  0
  2 26  1  0  0  0  0
  3 20  1  0  0  0  0
  3  4  1  0  0  0  0
  4  5  2  0  0  0  0
  5  6  1  0  0  0  0
  5  7  1  0  0  0  0
  6 27  1  0  0  0  0
  6 28  1  0  0  0  0
  6 29  1  0  0  0  0
  7  8  1  0  0  0  0
  7 20  2  0  0  0  0
  8  9  1  0  0  0  0
  8 30  1  0  0  0  0
  9 10  2  0  0  0  0
  9 11  1  0  0  0  0
 11 12  1  0  0  0  0
 11 31  1  0  0  0  0
 12 13  1  0  0  0  0
 12 32  1  0  0  0  0
 12 33  1  0  0  0  0
 13 14  1  0  0  0  0
 13 34  1  0  0  0  0
 13 35  1  0  0  0  0
 14 19  1  0  0  0  0
 14 15  1  0  0  0  0
 14 36  1  0  0  0  0
 15 16  1  0  0  0  0
 15 37  1  0  0  0  0
 15 38  1  0  0  0  0
 16 17  1  0  0  0  0
 16 39  1  0  0  0  0
 16 40  1  0  0  0  0
 17 18  1  0  0  0  0
 17 41  1  0  0  0  0
 17 42  1  0  0  0  0
 18 19  1  0  0  0  0
 18 43  1  0  0  0  0
 18 44  1  0  0  0  0
 20 21  1  0  0  0  0
 21 45  1  0  0  0  0
 21 46  1  0  0  0  0
 21 47  1  0  0  0  0
M  END
> <s_m_source_file>
AV-unprocessed.smi

> <i_m_source_file_index>
2274

> <i_lp_mmshare_version>
43012

> <i_f3d_flags>
0

> <s_epik_input>
W0NIM11bQ0gyXW4xbmMoW0NIM10pYyhjMVtDSDNdKVtOSF1DKD1PKVtOSF1bQ0gyXVtDSDJdW0NAQEhdMltDSDJdW0NIMl1bQ0gyXVtDSDJdTzI=

> <s_epik_cmdline>
J2VwaWtfcHl0aG9uJywgJy1waCcsICc3LjAnLCAnLXRuJywgJzgnLCAnLW1hJywgJzIwMCcsICctbWV0YWxfYmluZGluZycsICctaW1hZScsICc8aW5maWxlLm1hZT4nLCAnLW9tYWUnLCAnPG91dGZpbGUubWFlPic=

> <r_lp_tautomer_probability>
1

> <r_epik_Ionization_Penalty>
0.00368263

> <r_epik_Ionization_Penalty_Charging>
0

> <r_epik_Ionization_Penalty_Neutral>
0.00368263

> <r_epik_State_Penalty>
0.00259417

> <r_epik_Charging_Adjusted_Penalty>
0.00259417

> <i_epik_Tot_Q>
0

> <i_epik_Tot_abs_Q>
0

> <r_epik_Metal_State_Penalty>
-0

> <b_epik_Metal_Only>
0

> <s_lp_Force_Field>
OPLS_2005

> <r_lp_Energy>
11.6854

> <b_lp_Chiralities_Consistent>
1

> <s_lp_Variant>
AV-unprocessed.smi:2274-1

> <Gold.Version>
5.8.1

> <Gold.Id.Protein>
6NUR|6NUR_protein|mol2

> <Gold.PLP.Fitness>
45.2912

> <Gold.PLP.PLP>
-46.0843

> <Gold.PLP.part.hbond>
-0.4233

> <Gold.PLP.part.metal>
0.0000

> <Gold.PLP.part.buried>
-6.0381

> <Gold.PLP.part.nonpolar>
-38.0678

> <Gold.PLP.part.repulsive>
0.2823

> <Gold.PLP.ligand.clash>
0.0000

> <Gold.PLP.ligand.torsion>
0.5973

> <Gold.PLP.Chemscore.Hbond>
0.0000

> <Gold.PLP.Chemscore.CHOScore>
0.0000

> <Gold.PLP.Chemscore.Metal>
0.0000

> <Gold.PLP.Chemscore.Internal.Correction>
0.4015

> <Gold.Rescore>
     Score         DG    S(hbond)    S(metal)    S(lipo)     H(rot)  DE(clash)    DE(int)     intcor
     13.66     -15.57       0.00        0.00     118.21       1.46       0.06       1.85       ----

> <Gold.Chemscore.Fitness>
13.6587

> <Gold.Chemscore.DG>
-15.5710

> <Gold.Chemscore.ZeroCoef>
-5.4800

> <Gold.Chemscore.Hbond>
0.0000

> <Gold.Chemscore.Metal>
0.0000

> <Gold.Chemscore.Lipo>
118.2074

> <Gold.Chemscore.Internal_Hbond>
0.0000

> <Gold.Chemscore.DEClash>
0.0642

> <Gold.Chemscore.DEInternal>
1.8481

> <Gold.Chemscore.Rot>
1.4606

> <Gold.Chemscore.Internal.Correction>
   9.000000E+99

> <Gold.Chemscore.Hbond.Weighted>
-0.0000

> <Gold.Chemscore.Metal.Weighted>
-0.0000

> <Gold.Chemscore.Lipo.Weighted>
-13.8303

> <Gold.Chemscore.Internal_Hbond.Weighted>
0.0000

> <Gold.Chemscore.DEClash.Weighted>
0.0642

> <Gold.Chemscore.DEInternal.Weighted>
1.8481

> <Gold.Chemscore.Rot.Weighted>
3.7393

> <Gold.Chemscore.Internal.Correction.Weighted>
   9.000000E+99

> <Gold.Protein.RotatedTorsions>
[ 6907 6896 6895 6894 ] final  135.29 input  -60.11 | X-H torsion
[ 7974 7965 7964 7962 ] final   58.44 input  175.53 | X-H torsion
[ 8008 7997 7996 7995 ] final -143.98 input   59.86 | X-H torsion
[ 10167 10162 10161 10158 ] final   61.79 input  -65.29 | X-H torsion
[ 10718 10713 10712 10709 ] final   15.20 input   66.30 | X-H torsion
[ 10763 10752 10751 10750 ] final   -5.02 input  -60.55 | X-H torsion
[ 11005 11000 10999 10996 ] final -132.06 input  -57.11 | X-H torsion

> <Gold.Protein.ActiveResidues>
 VAL166  LYS551  ARG553  GLY616  TRP617  ASP618  TYR619  PRO620  LYS621  CYS622 
 ASP623  PHE694  ASN695  SER759  ASP760  ASP761  ALA762  ILE779  LEU786  VAL792 
 PHE793  MET794  SER795  GLU796  ALA797  LYS798  CYS799  TRP800  GLU811  SER814 

> <Gold.Protein.RotatedAtoms>
  152.3020  133.5665  159.5624 H   0  0  0  0  0  0  0  0  0  0  0  0  # atno 6907 bound_to 6896
  150.7282  134.0278  159.3732 H   0  0  0  0  0  0  0  0  0  0  0  0  # atno 6908 bound_to 6896
  151.8177  135.0662  160.0472 H   0  0  0  0  0  0  0  0  0  0  0  0  # atno 6909 bound_to 6896
  145.9181  139.3707  143.0495 H   0  0  0  0  0  0  0  0  0  0  0  0  # atno 7974 bound_to 7965
  155.5194  140.0590  157.2909 H   0  0  0  0  0  0  0  0  0  0  0  0  # atno 8008 bound_to 7997
  154.4523  140.1955  156.0429 H   0  0  0  0  0  0  0  0  0  0  0  0  # atno 8009 bound_to 7997
  156.0729  140.3257  155.7602 H   0  0  0  0  0  0  0  0  0  0  0  0  # atno 8010 bound_to 7997
  140.1510  144.4463  150.6759 H   0  0  0  0  0  0  0  0  0  0  0  0  # atno 10167 bound_to 10162
  157.0501  130.6266  149.5766 H   0  0  0  0  0  0  0  0  0  0  0  0  # atno 10718 bound_to 10713
  153.3927  135.7002  153.6483 H   0  0  0  0  0  0  0  0  0  0  0  0  # atno 10763 bound_to 10752
  153.5048  135.3644  155.2558 H   0  0  0  0  0  0  0  0  0  0  0  0  # atno 10764 bound_to 10752
  154.8704  135.4120  154.3247 H   0  0  0  0  0  0  0  0  0  0  0  0  # atno 10765 bound_to 10752
  140.9203  134.1452  157.4319 H   0  0  0  0  0  0  0  0  0  0  0  0  # atno 11005 bound_to 11000
  145.8585  140.9489  143.0712 LP  0  0  0  0  0  0  0  0  0  0  0  0  # atno 17320 bound_to 7965
  144.6750  140.0500  143.7479 LP  0  0  0  0  0  0  0  0  0  0  0  0  # atno 17321 bound_to 7965
  140.6702  143.2283  151.5643 LP  0  0  0  0  0  0  0  0  0  0  0  0  # atno 17342 bound_to 10162
  139.5426  144.2607  152.1380 LP  0  0  0  0  0  0  0  0  0  0  0  0  # atno 17343 bound_to 10162
  156.0010  130.5089  150.7663 LP  0  0  0  0  0  0  0  0  0  0  0  0  # atno 17370 bound_to 10713
  157.5037  131.0920  151.0283 LP  0  0  0  0  0  0  0  0  0  0  0  0  # atno 17371 bound_to 10713
  139.8774  134.9969  156.5818 LP  0  0  0  0  0  0  0  0  0  0  0  0  # atno 17394 bound_to 11000
  140.7996  133.8516  155.8715 LP  0  0  0  0  0  0  0  0  0  0  0  0  # atno 17395 bound_to 11000

$$$$
