AV-unprocessed.smi:1|AV-procd|sdf|4|dock1
  -GOLD-   2262015 83D 1   1.00000     0.00000
 Structure written by MMmdl.
 57 62  0  0  0  0  0  0  0  0  1 V2000
  151.9536  140.5325  158.9826 O   0  0  0  0  0  0  0  0  0  0  0  0
  151.6316  141.4824  158.2681 C   0  0  0  0  0  0  0  0  0  0  0  0
  151.0379  141.2966  156.9558 N   0  0  0  0  0  0  0  0  0  0  0  0
  150.7995  140.1361  156.3010 C   0  0  0  0  0  0  0  0  0  0  0  0
  150.8634  140.0349  154.9473 N   0  0  0  0  0  0  0  0  0  0  0  0
  150.6278  138.8639  154.3489 C   0  0  0  0  0  0  0  0  0  0  0  0
  150.3200  137.6908  154.9052 N   0  0  0  0  0  0  0  0  0  0  0  0
  150.2498  137.7826  156.2644 C   0  0  0  0  0  0  0  0  0  0  0  0
  150.4727  138.9623  157.0288 C   0  0  0  0  0  0  0  0  0  0  0  0
  150.3138  138.6844  158.3797 N   0  0  0  0  0  0  0  0  0  0  0  0
  150.0160  137.4134  158.4075 C   0  0  0  0  0  0  0  0  0  0  0  0
  149.9665  136.7890  157.1806 N   0  0  0  0  0  0  0  0  0  0  0  0
  149.6519  135.3529  156.9093 C   0  0  1  0  0  0  0  0  0  0  0  0
  148.3826  135.2596  156.3332 O   0  0  0  0  0  0  0  0  0  0  0  0
  148.4636  134.7097  155.0206 C   0  0  2  0  0  0  0  0  0  0  0  0
  147.2078  133.8963  154.6868 C   0  0  0  0  0  0  0  0  0  0  0  0
  147.2026  133.6024  153.2998 O   0  0  0  0  0  0  0  0  0  0  0  0
  146.5689  134.4214  152.4391 C   0  0  0  0  0  0  0  0  0  0  0  0
  146.3967  135.6249  152.6437 O   0  0  0  0  0  0  0  0  0  0  0  0
  146.0946  133.7183  151.2122 C   0  0  0  0  0  0  0  0  0  0  0  0
  146.7631  132.5483  150.7822 C   0  0  0  0  0  0  0  0  0  0  0  0
  146.3391  131.8634  149.6268 C   0  0  0  0  0  0  0  0  0  0  0  0
  145.2412  132.3402  148.8873 C   0  0  0  0  0  0  0  0  0  0  0  0
  144.5675  133.5029  149.3046 C   0  0  0  0  0  0  0  0  0  0  0  0
  144.9898  134.1894  150.4599 C   0  0  0  0  0  0  0  0  0  0  0  0
  149.7576  133.8978  155.0315 C   0  0  2  0  0  0  0  0  0  0  0  0
  149.5651  132.6251  155.6278 O   0  0  0  0  0  0  0  0  0  0  0  0
  150.8528  132.3211  156.6476 S   0  0  0  0  0  0  0  0  0  0  0  0
  150.3213  132.0688  157.9956 O   0  0  0  0  0  0  0  0  0  0  0  0
  151.7707  131.3933  155.9700 O   0  0  0  0  0  0  0  0  0  0  0  0
  151.5418  133.8437  156.6306 O   0  0  0  0  0  0  0  0  0  0  0  0
  150.6676  134.7225  155.9447 C   0  0  2  0  0  0  0  0  0  0  0  0
  151.7553  142.9023  158.7392 C   0  0  0  0  0  0  0  0  0  0  0  0
  151.8005  143.1865  160.1227 C   0  0  0  0  0  0  0  0  0  0  0  0
  151.9288  144.5146  160.5741 C   0  0  0  0  0  0  0  0  0  0  0  0
  152.0210  145.5690  159.6460 C   0  0  0  0  0  0  0  0  0  0  0  0
  151.9895  145.2939  158.2659 C   0  0  0  0  0  0  0  0  0  0  0  0
  151.8611  143.9662  157.8132 C   0  0  0  0  0  0  0  0  0  0  0  0
  150.7767  142.1402  156.4667 H   0  0  0  0  0  0  0  0  0  0  0  0
  150.6987  138.8671  153.2712 H   0  0  0  0  0  0  0  0  0  0  0  0
  149.8274  136.8907  159.3342 H   0  0  0  0  0  0  0  0  0  0  0  0
  149.6353  134.8797  157.8919 H   0  0  0  0  0  0  0  0  0  0  0  0
  148.5737  135.5223  154.3028 H   0  0  0  0  0  0  0  0  0  0  0  0
  147.2143  132.9591  155.2451 H   0  0  0  0  0  0  0  0  0  0  0  0
  146.3080  134.4445  154.9694 H   0  0  0  0  0  0  0  0  0  0  0  0
  147.6088  132.1633  151.3340 H   0  0  0  0  0  0  0  0  0  0  0  0
  146.8577  130.9712  149.3079 H   0  0  0  0  0  0  0  0  0  0  0  0
  144.9162  131.8149  148.0014 H   0  0  0  0  0  0  0  0  0  0  0  0
  143.7241  133.8700  148.7381 H   0  0  0  0  0  0  0  0  0  0  0  0
  144.4498  135.0782  150.7524 H   0  0  0  0  0  0  0  0  0  0  0  0
  150.1767  133.7650  154.0337 H   0  0  0  0  0  0  0  0  0  0  0  0
  151.2103  135.4847  155.3851 H   0  0  0  0  0  0  0  0  0  0  0  0
  151.7315  142.3884  160.8480 H   0  0  0  0  0  0  0  0  0  0  0  0
  151.9571  144.7238  161.6334 H   0  0  0  0  0  0  0  0  0  0  0  0
  152.1194  146.5872  159.9922 H   0  0  0  0  0  0  0  0  0  0  0  0
  152.0664  146.1017  157.5531 H   0  0  0  0  0  0  0  0  0  0  0  0
  151.8481  143.7770  156.7496 H   0  0  0  0  0  0  0  0  0  0  0  0
  1  2  2  0  0  0  0
  2  3  1  0  0  0  0
  2 33  1  0  0  0  0
  3  4  1  0  0  0  0
  3 39  1  0  0  0  0
  4  9  1  0  0  0  0
  4  5  2  0  0  0  0
  5  6  1  0  0  0  0
  6  7  2  0  0  0  0
  6 40  1  0  0  0  0
  7  8  1  0  0  0  0
  8 12  1  0  0  0  0
  8  9  2  0  0  0  0
  9 10  1  0  0  0  0
 10 11  2  0  0  0  0
 11 12  1  0  0  0  0
 11 41  1  0  0  0  0
 12 13  1  0  0  0  0
 13 32  1  0  0  0  0
 13 14  1  0  0  0  0
 13 42  1  0  0  0  0
 14 15  1  0  0  0  0
 15 16  1  0  0  0  0
 15 26  1  0  0  0  0
 15 43  1  0  0  0  0
 16 17  1  0  0  0  0
 16 44  1  0  0  0  0
 16 45  1  0  0  0  0
 17 18  1  0  0  0  0
 18 19  2  0  0  0  0
 18 20  1  0  0  0  0
 20 25  1  0  0  0  0
 20 21  2  0  0  0  0
 21 22  1  0  0  0  0
 21 46  1  0  0  0  0
 22 23  2  0  0  0  0
 22 47  1  0  0  0  0
 23 24  1  0  0  0  0
 23 48  1  0  0  0  0
 24 25  2  0  0  0  0
 24 49  1  0  0  0  0
 25 50  1  0  0  0  0
 26 32  1  0  0  0  0
 26 27  1  0  0  0  0
 26 51  1  0  0  0  0
 27 28  1  0  0  0  0
 28 29  2  0  0  0  0
 28 30  2  0  0  0  0
 28 31  1  0  0  0  0
 31 32  1  0  0  0  0
 32 52  1  0  0  0  0
 33 38  1  0  0  0  0
 33 34  2  0  0  0  0
 34 35  1  0  0  0  0
 34 53  1  0  0  0  0
 35 36  2  0  0  0  0
 35 54  1  0  0  0  0
 36 37  1  0  0  0  0
 36 55  1  0  0  0  0
 37 38  2  0  0  0  0
 37 56  1  0  0  0  0
 38 57  1  0  0  0  0
M  END
> <s_m_source_file>
AV-unprocessed.smi

> <i_m_source_file_index>
1

> <i_lp_mmshare_version>
43012

> <i_f3d_flags>
0

> <s_epik_input>
W2NIXTFbY0hdW2NIXVtjSF1bY0hdYzFDKD1PKVtOSF1jKG5bY0hdbjIpYyhjMjMpbltjSF1uM1tDQEBIXShbQ0BIXShbQ0BIXTQ1KU9TKE81KSg9Tyk9TylPW0NASF00W0NIMl1PQyg9TyljNltjSF1bY0hdW2NIXVtjSF1bY0hdNg==

> <s_epik_cmdline>
J2VwaWtfcHl0aG9uJywgJy1waCcsICc3LjAnLCAnLXRuJywgJzgnLCAnLW1hJywgJzIwMCcsICctbWV0YWxfYmluZGluZycsICctaW1hZScsICc8aW5maWxlLm1hZT4nLCAnLW9tYWUnLCAnPG91dGZpbGUubWFlPic=

> <r_lp_tautomer_probability>
1

> <r_epik_Ionization_Penalty>
0.00195722

> <r_epik_Ionization_Penalty_Charging>
0

> <r_epik_Ionization_Penalty_Neutral>
0.00195722

> <r_epik_State_Penalty>
0.00633741

> <r_epik_Charging_Adjusted_Penalty>
0.00633741

> <i_epik_Tot_Q>
0

> <i_epik_Tot_abs_Q>
0

> <r_epik_Metal_State_Penalty>
0.341185

> <b_epik_Metal_Only>
0

> <s_epik_Chemistry_Notes>
This compound has an ester and may undergo hydrolysis at high or low pH. This compound contains an acetal/aminal-like group ( X-CH(R)-Y where X, Y are N, S, or O) that may be acid/base labile, releasing an aldehyde.

> <s_lp_Force_Field>
OPLS_2005

> <r_lp_Energy>
46.3459

> <b_lp_Chiralities_Consistent>
1

> <s_lp_Variant>
AV-unprocessed.smi:1-4

> <Gold.Version>
5.8.1

> <Gold.Id.Protein>
6NUR|6NUR_protein|mol2

> <Gold.PLP.Fitness>
62.9992

> <Gold.PLP.PLP>
-56.9882

> <Gold.PLP.part.hbond>
-2.0000

> <Gold.PLP.part.metal>
0.0000

> <Gold.PLP.part.buried>
-8.3908

> <Gold.PLP.part.nonpolar>
-46.9783

> <Gold.PLP.part.repulsive>
0.8521

> <Gold.PLP.ligand.clash>
0.0000

> <Gold.PLP.ligand.torsion>
1.6751

> <Gold.PLP.Chemscore.Hbond>
1.9000

> <Gold.PLP.Chemscore.CHOScore>
1.0000

> <Gold.PLP.Chemscore.Metal>
0.0000

> <Gold.Chemscore.Hbonds>
donor molecule, donor type, donor heavy atom, donor atom, acceptor molecule, acceptor atom, score
      P1  H  6896  6907       L1    29  1.00
      P1  H  7989  7998       L1     5  0.85
      L1  C     6    40       P1  7957  0.75

> <Gold.PLP.Chemscore.Internal.Correction>
0.6612

> <Gold.Rescore>
     Score         DG    S(hbond)    S(metal)    S(lipo)     H(rot)  DE(clash)    DE(int)     intcor
     15.32     -22.48       1.52        0.00     148.62       2.13       2.83       4.34       ----

> <Gold.Chemscore.Fitness>
15.3197

> <Gold.Chemscore.DG>
-22.4829

> <Gold.Chemscore.ZeroCoef>
-5.4800

> <Gold.Chemscore.Hbond>
1.5197

> <Gold.Chemscore.Metal>
0.0000

> <Gold.Chemscore.Lipo>
148.6193

> <Gold.Chemscore.Internal_Hbond>
0.0000

> <Gold.Chemscore.DEClash>
2.8260

> <Gold.Chemscore.DEInternal>
4.3372

> <Gold.Chemscore.Rot>
2.1333

> <Gold.Chemscore.Internal.Correction>
   9.000000E+99

> <Gold.Chemscore.Hbonds>
donor molecule, donor type, donor heavy atom, donor atom, acceptor molecule, acceptor atom, score
      P1  H  6896  6907       L1    29  0.62
      P1  H  7989  7998       L1     5  0.15

> <Gold.Chemscore.Hbond.Weighted>
-5.0758

> <Gold.Chemscore.Metal.Weighted>
-0.0000

> <Gold.Chemscore.Lipo.Weighted>
-17.3885

> <Gold.Chemscore.Internal_Hbond.Weighted>
0.0000

> <Gold.Chemscore.DEClash.Weighted>
2.8260

> <Gold.Chemscore.DEInternal.Weighted>
4.3372

> <Gold.Chemscore.Rot.Weighted>
5.4614

> <Gold.Chemscore.Internal.Correction.Weighted>
   9.000000E+99

> <Gold.Protein.RotatedTorsions>
[ 6907 6896 6895 6894 ] final -143.79 input  -60.11 | X-H torsion
[ 7974 7965 7964 7962 ] final  152.98 input  175.53 | X-H torsion
[ 8008 7997 7996 7995 ] final   57.91 input   59.86 | X-H torsion
[ 10167 10162 10161 10158 ] final  -69.41 input  -65.29 | X-H torsion
[ 10718 10713 10712 10709 ] final -178.15 input   66.30 | X-H torsion
[ 10763 10752 10751 10750 ] final    6.92 input  -60.55 | X-H torsion
[ 11005 11000 10999 10996 ] final -112.29 input  -57.11 | X-H torsion

> <Gold.Protein.ActiveResidues>
 VAL166  LYS551  ARG553  GLY616  TRP617  ASP618  TYR619  PRO620  LYS621  CYS622 
 ASP623  PHE694  ASN695  SER759  ASP760  ASP761  ALA762  ILE779  LEU786  VAL792 
 PHE793  MET794  SER795  GLU796  ALA797  LYS798  CYS799  TRP800  GLU811  SER814 

> <Gold.Protein.RotatedAtoms>
  151.1052  133.5213  159.2607 H   0  0  0  0  0  0  0  0  0  0  0  0  # atno 6907 bound_to 6896
  151.2029  135.0449  159.8889 H   0  0  0  0  0  0  0  0  0  0  0  0  # atno 6908 bound_to 6896
  152.5446  134.0878  159.8317 H   0  0  0  0  0  0  0  0  0  0  0  0  # atno 6909 bound_to 6896
  144.8185  139.6740  143.6110 H   0  0  0  0  0  0  0  0  0  0  0  0  # atno 7974 bound_to 7965
  155.5414  140.3484  155.4448 H   0  0  0  0  0  0  0  0  0  0  0  0  # atno 8008 bound_to 7997
  156.0648  140.1349  156.9924 H   0  0  0  0  0  0  0  0  0  0  0  0  # atno 8009 bound_to 7997
  154.4498  140.0978  156.6556 H   0  0  0  0  0  0  0  0  0  0  0  0  # atno 8010 bound_to 7997
  140.5432  143.2314  151.7050 H   0  0  0  0  0  0  0  0  0  0  0  0  # atno 10167 bound_to 10162
  156.8400  130.9683  151.3100 H   0  0  0  0  0  0  0  0  0  0  0  0  # atno 10718 bound_to 10713
  153.2422  135.6904  153.7770 H   0  0  0  0  0  0  0  0  0  0  0  0  # atno 10763 bound_to 10752
  153.6895  135.3315  155.3199 H   0  0  0  0  0  0  0  0  0  0  0  0  # atno 10764 bound_to 10752
  154.8360  135.4542  154.1348 H   0  0  0  0  0  0  0  0  0  0  0  0  # atno 10765 bound_to 10752
  141.0684  133.9421  157.2533 H   0  0  0  0  0  0  0  0  0  0  0  0  # atno 11005 bound_to 11000
  146.2490  139.6159  142.9440 LP  0  0  0  0  0  0  0  0  0  0  0  0  # atno 17320 bound_to 7965
  145.5158  141.0434  143.2463 LP  0  0  0  0  0  0  0  0  0  0  0  0  # atno 17321 bound_to 7965
  139.4997  144.3935  152.0255 LP  0  0  0  0  0  0  0  0  0  0  0  0  # atno 17342 bound_to 10162
  140.3046  144.3608  150.6050 LP  0  0  0  0  0  0  0  0  0  0  0  0  # atno 17343 bound_to 10162
  157.6360  130.8767  149.9361 LP  0  0  0  0  0  0  0  0  0  0  0  0  # atno 17370 bound_to 10713
  156.0886  130.3665  150.0439 LP  0  0  0  0  0  0  0  0  0  0  0  0  # atno 17371 bound_to 10713
  139.9499  135.0177  156.8962 LP  0  0  0  0  0  0  0  0  0  0  0  0  # atno 17394 bound_to 11000
  140.5725  134.0429  155.7435 LP  0  0  0  0  0  0  0  0  0  0  0  0  # atno 17395 bound_to 11000

$$$$
