AV-unprocessed.smi:342|AV-procd|sdf|2387|dock2
  -GOLD-   2262022313D 1   1.00000     0.00000
 Structure written by MMmdl.
 42 44  0  0  0  0  0  0  0  0  2 V2000
  151.0744  140.2110  154.8121 O   0  0  0  0  0  0  0  0  0  0  0  0
  150.0670  141.0382  155.3609 C   0  0  1  0  0  0  0  0  0  0  0  0
  148.8316  140.9797  154.4412 C   0  0  0  0  0  0  0  0  0  0  0  0
  147.7857  141.9620  154.8249 N   0  3  0  0  0  0  0  0  0  0  0  0
  146.8831  142.3000  153.6984 C   0  0  0  0  0  0  0  0  0  0  0  0
  145.8606  143.3650  154.1290 C   0  0  0  0  0  0  0  0  0  0  0  0
  145.1270  142.8933  155.2523 O   0  0  0  0  0  0  0  0  0  0  0  0
  145.9686  142.6463  156.3718 C   0  0  0  0  0  0  0  0  0  0  0  0
  146.9974  141.5595  156.0164 C   0  0  0  0  0  0  0  0  0  0  0  0
  149.7303  140.5707  156.7925 C   0  0  0  0  0  0  0  0  0  0  0  0
  150.7902  140.8585  157.7511 N   0  0  0  0  0  0  0  0  0  0  0  0
  151.5077  139.9822  158.5030 C   0  0  0  0  0  0  0  0  0  0  0  0
  151.3068  138.4935  158.4190 C   0  0  0  0  0  0  0  0  0  0  0  0
  151.6013  138.0407  157.1995 F   0  0  0  0  0  0  0  0  0  0  0  0
  152.0901  137.8537  159.2866 F   0  0  0  0  0  0  0  0  0  0  0  0
  150.0374  138.1794  158.6767 F   0  0  0  0  0  0  0  0  0  0  0  0
  152.4294  140.5292  159.2989 N   0  0  0  0  0  0  0  0  0  0  0  0
  152.3041  141.8785  159.0364 C   0  0  0  0  0  0  0  0  0  0  0  0
  153.0058  142.9858  159.5644 C   0  0  0  0  0  0  0  0  0  0  0  0
  152.7025  144.2940  159.1340 C   0  0  0  0  0  0  0  0  0  0  0  0
  151.6963  144.5129  158.1712 C   0  0  0  0  0  0  0  0  0  0  0  0
  150.9853  143.4232  157.6328 C   0  0  0  0  0  0  0  0  0  0  0  0
  151.2899  142.1190  158.0676 C   0  0  0  0  0  0  0  0  0  0  0  0
  151.5092  139.7569  155.5188 H   0  0  0  0  0  0  0  0  0  0  0  0
  150.4576  142.0530  155.4045 H   0  0  0  0  0  0  0  0  0  0  0  0
  149.1550  141.1692  153.4161 H   0  0  0  0  0  0  0  0  0  0  0  0
  148.3988  139.9780  154.4419 H   0  0  0  0  0  0  0  0  0  0  0  0
  147.4652  142.6734  152.8550 H   0  0  0  0  0  0  0  0  0  0  0  0
  146.3664  141.4001  153.3599 H   0  0  0  0  0  0  0  0  0  0  0  0
  146.3561  144.3067  154.3711 H   0  0  0  0  0  0  0  0  0  0  0  0
  145.1663  143.5710  153.3142 H   0  0  0  0  0  0  0  0  0  0  0  0
  146.4653  143.5680  156.6800 H   0  0  0  0  0  0  0  0  0  0  0  0
  145.3534  142.3204  157.2107 H   0  0  0  0  0  0  0  0  0  0  0  0
  146.4856  140.6167  155.8163 H   0  0  0  0  0  0  0  0  0  0  0  0
  147.6514  141.3918  156.8715 H   0  0  0  0  0  0  0  0  0  0  0  0
  148.8084  141.0408  157.1335 H   0  0  0  0  0  0  0  0  0  0  0  0
  149.5373  139.4971  156.8039 H   0  0  0  0  0  0  0  0  0  0  0  0
  153.7803  142.8284  160.3004 H   0  0  0  0  0  0  0  0  0  0  0  0
  153.2458  145.1330  159.5434 H   0  0  0  0  0  0  0  0  0  0  0  0
  151.4711  145.5181  157.8456 H   0  0  0  0  0  0  0  0  0  0  0  0
  150.2148  143.5898  156.8950 H   0  0  0  0  0  0  0  0  0  0  0  0
  148.2721  142.8154  155.0624 H   0  0  0  0  0  0  0  0  0  0  0  0
  1  2  1  0  0  0  0
  1 24  1  0  0  0  0
  2  3  1  0  0  0  0
  2 10  1  0  0  0  0
  2 25  1  0  0  0  0
  3  4  1  0  0  0  0
  3 26  1  0  0  0  0
  3 27  1  0  0  0  0
  4  9  1  0  0  0  0
  4  5  1  0  0  0  0
  4 42  1  0  0  0  0
  5  6  1  0  0  0  0
  5 28  1  0  0  0  0
  5 29  1  0  0  0  0
  6  7  1  0  0  0  0
  6 30  1  0  0  0  0
  6 31  1  0  0  0  0
  7  8  1  0  0  0  0
  8  9  1  0  0  0  0
  8 32  1  0  0  0  0
  8 33  1  0  0  0  0
  9 34  1  0  0  0  0
  9 35  1  0  0  0  0
 10 11  1  0  0  0  0
 10 36  1  0  0  0  0
 10 37  1  0  0  0  0
 11 23  1  0  0  0  0
 11 12  1  0  0  0  0
 12 13  1  0  0  0  0
 12 17  2  0  0  0  0
 13 14  1  0  0  0  0
 13 15  1  0  0  0  0
 13 16  1  0  0  0  0
 17 18  1  0  0  0  0
 18 23  2  0  0  0  0
 18 19  1  0  0  0  0
 19 20  2  0  0  0  0
 19 38  1  0  0  0  0
 20 21  1  0  0  0  0
 20 39  1  0  0  0  0
 21 22  2  0  0  0  0
 21 40  1  0  0  0  0
 22 23  1  0  0  0  0
 22 41  1  0  0  0  0
M  CHG  1   4   1
M  END
> <s_m_source_file>
AV-unprocessed.smi

> <i_m_source_file_index>
342

> <i_lp_mmshare_version>
43012

> <i_f3d_flags>
0

> <s_epik_input>
W2NIXTFbY0hdW2NIXVtjSF1jKGMxMiluKGMobjIpQyhGKShGKUYpW0NIMl1bQ0BIXShbT0hdKVtDSDJdTjNbQ0gyXVtDSDJdT1tDSDJdW0NIMl0z

> <s_epik_cmdline>
J2VwaWtfcHl0aG9uJywgJy1waCcsICc3LjAnLCAnLXRuJywgJzgnLCAnLW1hJywgJzIwMCcsICctbWV0YWxfYmluZGluZycsICctaW1hZScsICc8aW5maWxlLm1hZT4nLCAnLW9tYWUnLCAnPG91dGZpbGUubWFlPic=

> <r_epik_Ionization_Penalty>
0.608409

> <r_epik_Ionization_Penalty_Charging>
0.608065

> <r_epik_Ionization_Penalty_Neutral>
0.000344684

> <r_epik_State_Penalty>
0.623026

> <r_epik_Charging_Adjusted_Penalty>
1.23109

> <i_epik_Tot_Q>
1

> <i_epik_Tot_abs_Q>
1

> <r_epik_Metal_State_Penalty>
0.623013

> <b_epik_Metal_Only>
0

> <s_lp_Force_Field>
OPLS_2005

> <r_lp_Energy>
25.6933

> <b_lp_Chiralities_Consistent>
1

> <s_lp_Variant>
AV-unprocessed.smi:342-4

> <Gold.Version>
5.8.1

> <Gold.Id.Protein>
6NUR|6NUR_protein|mol2

> <Gold.PLP.Fitness>
53.8879

> <Gold.PLP.PLP>
-45.4579

> <Gold.PLP.part.hbond>
-2.0000

> <Gold.PLP.part.metal>
0.0000

> <Gold.PLP.part.buried>
-7.5884

> <Gold.PLP.part.nonpolar>
-35.8171

> <Gold.PLP.part.repulsive>
0.2958

> <Gold.PLP.ligand.clash>
0.0000

> <Gold.PLP.ligand.torsion>
0.3175

> <Gold.PLP.Chemscore.Hbond>
3.0000

> <Gold.PLP.Chemscore.CHOScore>
0.0000

> <Gold.PLP.Chemscore.Metal>
0.0000

> <Gold.Chemscore.Hbonds>
donor molecule, donor type, donor heavy atom, donor atom, acceptor molecule, acceptor atom, score
      L1  H     4    42       P1  8028  1.82
      P1  H  7989  7998       L1     1  1.00

> <Gold.PLP.Chemscore.Internal.Correction>
0.0650

> <Gold.Rescore>
     Score         DG    S(hbond)    S(metal)    S(lipo)     H(rot)  DE(clash)    DE(int)     intcor
     15.91     -17.38       1.67        0.00     104.89       2.32       0.07       1.40       ----

> <Gold.Chemscore.Fitness>
15.9148

> <Gold.Chemscore.DG>
-17.3812

> <Gold.Chemscore.ZeroCoef>
-5.4800

> <Gold.Chemscore.Hbond>
1.6675

> <Gold.Chemscore.Metal>
0.0000

> <Gold.Chemscore.Lipo>
104.8920

> <Gold.Chemscore.Internal_Hbond>
0.0000

> <Gold.Chemscore.DEClash>
0.0689

> <Gold.Chemscore.DEInternal>
1.3975

> <Gold.Chemscore.Rot>
2.3206

> <Gold.Chemscore.Internal.Correction>
   9.000000E+99

> <Gold.Chemscore.Hbonds>
donor molecule, donor type, donor heavy atom, donor atom, acceptor molecule, acceptor atom, score
      L1  H     4    42       P1  8028  0.87
      P1  H  7989  7998       L1     1  0.68

> <Gold.Chemscore.Hbond.Weighted>
-5.5696

> <Gold.Chemscore.Metal.Weighted>
-0.0000

> <Gold.Chemscore.Lipo.Weighted>
-12.2724

> <Gold.Chemscore.Internal_Hbond.Weighted>
0.0000

> <Gold.Chemscore.DEClash.Weighted>
0.0689

> <Gold.Chemscore.DEInternal.Weighted>
1.3975

> <Gold.Chemscore.Rot.Weighted>
5.9407

> <Gold.Chemscore.Internal.Correction.Weighted>
   9.000000E+99

> <Gold.Protein.RotatedTorsions>
[ 6907 6896 6895 6894 ] final  -49.55 input  -60.11 | X-H torsion
[ 7974 7965 7964 7962 ] final -129.82 input  175.53 | X-H torsion
[ 8008 7997 7996 7995 ] final -135.36 input   59.86 | X-H torsion
[ 10167 10162 10161 10158 ] final  -80.01 input  -65.29 | X-H torsion
[ 10718 10713 10712 10709 ] final  -53.59 input   66.30 | X-H torsion
[ 10763 10752 10751 10750 ] final   45.51 input  -60.55 | X-H torsion
[ 11005 11000 10999 10996 ] final -100.91 input  -57.11 | X-H torsion

> <Gold.Protein.ActiveResidues>
 VAL166  LYS551  ARG553  GLY616  TRP617  ASP618  TYR619  PRO620  LYS621  CYS622 
 ASP623  PHE694  ASN695  SER759  ASP760  ASP761  ALA762  ILE779  LEU786  VAL792 
 PHE793  MET794  SER795  GLU796  ALA797  LYS798  CYS799  TRP800  GLU811  SER814 

> <Gold.Protein.RotatedAtoms>
  150.8795  134.8183  159.7213 H   0  0  0  0  0  0  0  0  0  0  0  0  # atno 6907 bound_to 6896
  152.4768  134.4819  159.9678 H   0  0  0  0  0  0  0  0  0  0  0  0  # atno 6908 bound_to 6896
  151.4896  133.3489  159.2886 H   0  0  0  0  0  0  0  0  0  0  0  0  # atno 6909 bound_to 6896
  144.9535  140.7370  143.4773 H   0  0  0  0  0  0  0  0  0  0  0  0  # atno 7974 bound_to 7965
  155.3773  140.0492  157.3044 H   0  0  0  0  0  0  0  0  0  0  0  0  # atno 8008 bound_to 7997
  154.5100  140.2188  155.9138 H   0  0  0  0  0  0  0  0  0  0  0  0  # atno 8009 bound_to 7997
  156.1571  140.3124  155.8750 H   0  0  0  0  0  0  0  0  0  0  0  0  # atno 8010 bound_to 7997
  140.4541  143.2473  151.8445 H   0  0  0  0  0  0  0  0  0  0  0  0  # atno 10167 bound_to 10162
  156.1522  130.4151  149.9927 H   0  0  0  0  0  0  0  0  0  0  0  0  # atno 10718 bound_to 10713
  152.9823  135.6037  154.3448 H   0  0  0  0  0  0  0  0  0  0  0  0  # atno 10763 bound_to 10752
  154.3142  135.2770  155.2553 H   0  0  0  0  0  0  0  0  0  0  0  0  # atno 10764 bound_to 10752
  154.4749  135.5932  153.6403 H   0  0  0  0  0  0  0  0  0  0  0  0  # atno 10765 bound_to 10752
  141.1252  133.8436  157.1163 H   0  0  0  0  0  0  0  0  0  0  0  0  # atno 11005 bound_to 11000
  145.2808  139.1919  143.4792 LP  0  0  0  0  0  0  0  0  0  0  0  0  # atno 17320 bound_to 7965
  146.3329  140.2770  142.8608 LP  0  0  0  0  0  0  0  0  0  0  0  0  # atno 17321 bound_to 7965
  139.4799  144.5085  151.8965 LP  0  0  0  0  0  0  0  0  0  0  0  0  # atno 17342 bound_to 10162
  140.4172  144.2292  150.5887 LP  0  0  0  0  0  0  0  0  0  0  0  0  # atno 17343 bound_to 10162
  156.7781  130.9211  151.3645 LP  0  0  0  0  0  0  0  0  0  0  0  0  # atno 17370 bound_to 10713
  157.6666  130.9013  149.9945 LP  0  0  0  0  0  0  0  0  0  0  0  0  # atno 17371 bound_to 10713
  140.0244  134.9931  157.0657 LP  0  0  0  0  0  0  0  0  0  0  0  0  # atno 17394 bound_to 11000
  140.4386  134.1704  155.7172 LP  0  0  0  0  0  0  0  0  0  0  0  0  # atno 17395 bound_to 11000

$$$$
