AV-unprocessed.smi:2563|AV-procd|sdf|10057|dock1
  -GOLD-   2272014 93D 1   1.00000     0.00000
 Structure written by MMmdl.
 35 36  0  0  0  0  0  0  0  0  2 V2000
  152.6842  138.4113  155.6432 C   0  0  0  0  0  0  0  0  0  0  0  0
  151.9783  139.7485  155.3837 C   0  0  0  0  0  0  0  0  0  0  0  0
  151.2561  140.2301  156.5620 N   0  0  0  0  0  0  0  0  0  0  0  0
  149.8232  140.4930  156.4422 C   0  0  0  0  0  0  0  0  0  0  0  0
  149.3294  140.3951  154.9881 C   0  0  1  0  0  0  0  0  0  0  0  0
  149.2095  138.9294  154.5267 C   0  0  0  0  0  0  0  0  0  0  0  0
  148.6547  138.8675  153.1600 N   0  3  0  0  0  0  0  0  0  0  0  0
  147.3691  139.5855  153.0623 C   0  0  0  0  0  0  0  0  0  0  0  0
  147.5301  141.0255  153.5769 C   0  0  0  0  0  0  0  0  0  0  0  0
  148.0398  140.9980  154.9056 O   0  0  0  0  0  0  0  0  0  0  0  0
  151.9553  140.5521  157.7512 C   0  0  0  0  0  0  0  0  0  0  0  0
  151.4852  141.5394  158.6523 C   0  0  0  0  0  0  0  0  0  0  0  0
  152.2413  141.7973  159.8085 C   0  0  0  0  0  0  0  0  0  0  0  0
  153.4180  141.0520  159.9914 C   0  0  0  0  0  0  0  0  0  0  0  0
  153.8273  140.1173  159.1076 N   0  0  0  0  0  0  0  0  0  0  0  0
  153.1050  139.8754  158.0089 N   0  0  0  0  0  0  0  0  0  0  0  0
  153.2289  138.0849  154.7573 H   0  0  0  0  0  0  0  0  0  0  0  0
  151.9699  137.6284  155.8989 H   0  0  0  0  0  0  0  0  0  0  0  0
  153.4000  138.4922  156.4617 H   0  0  0  0  0  0  0  0  0  0  0  0
  152.7237  140.4935  155.1043 H   0  0  0  0  0  0  0  0  0  0  0  0
  151.3137  139.6676  154.5232 H   0  0  0  0  0  0  0  0  0  0  0  0
  149.2668  139.8115  157.0857 H   0  0  0  0  0  0  0  0  0  0  0  0
  149.6076  141.4894  156.8304 H   0  0  0  0  0  0  0  0  0  0  0  0
  150.0219  140.9239  154.3306 H   0  0  0  0  0  0  0  0  0  0  0  0
  150.1847  138.4418  154.5375 H   0  0  0  0  0  0  0  0  0  0  0  0
  148.5616  138.3683  155.2015 H   0  0  0  0  0  0  0  0  0  0  0  0
  149.3124  139.2966  152.5248 H   0  0  0  0  0  0  0  0  0  0  0  0
  147.0296  139.5825  152.0266 H   0  0  0  0  0  0  0  0  0  0  0  0
  146.6175  139.0570  153.6501 H   0  0  0  0  0  0  0  0  0  0  0  0
  148.1952  141.6009  152.9310 H   0  0  0  0  0  0  0  0  0  0  0  0
  146.5668  141.5355  153.5772 H   0  0  0  0  0  0  0  0  0  0  0  0
  150.5726  142.0909  158.4885 H   0  0  0  0  0  0  0  0  0  0  0  0
  151.9306  142.5382  160.5299 H   0  0  0  0  0  0  0  0  0  0  0  0
  154.0406  141.2052  160.8603 H   0  0  0  0  0  0  0  0  0  0  0  0
  148.5214  137.9021  152.8940 H   0  0  0  0  0  0  0  0  0  0  0  0
  1  2  1  0  0  0  0
  1 17  1  0  0  0  0
  1 18  1  0  0  0  0
  1 19  1  0  0  0  0
  2  3  1  0  0  0  0
  2 20  1  0  0  0  0
  2 21  1  0  0  0  0
  3  4  1  0  0  0  0
  3 11  1  0  0  0  0
  4  5  1  0  0  0  0
  4 22  1  0  0  0  0
  4 23  1  0  0  0  0
  5 10  1  0  0  0  0
  5  6  1  0  0  0  0
  5 24  1  0  0  0  0
  6  7  1  0  0  0  0
  6 25  1  0  0  0  0
  6 26  1  0  0  0  0
  7  8  1  0  0  0  0
  7 27  1  0  0  0  0
  7 35  1  0  0  0  0
  8  9  1  0  0  0  0
  8 28  1  0  0  0  0
  8 29  1  0  0  0  0
  9 10  1  0  0  0  0
  9 30  1  0  0  0  0
  9 31  1  0  0  0  0
 11 16  1  0  0  0  0
 11 12  2  0  0  0  0
 12 13  1  0  0  0  0
 12 32  1  0  0  0  0
 13 14  2  0  0  0  0
 13 33  1  0  0  0  0
 14 15  1  0  0  0  0
 14 34  1  0  0  0  0
 15 16  2  0  0  0  0
M  CHG  1   7   1
M  END
> <s_m_source_file>
AV-unprocessed.smi

> <i_m_source_file_index>
2563

> <i_lp_mmshare_version>
43012

> <i_f3d_flags>
0

> <s_epik_input>
bjFuW2NIXVtjSF1bY0hdYzFOKFtDSDJdW0NIM10pW0NIMl1bQ0BASF0yW0NIMl1bTkhdW0NIMl1bQ0gyXU8y

> <s_epik_cmdline>
J2VwaWtfcHl0aG9uJywgJy1waCcsICc3LjAnLCAnLXRuJywgJzgnLCAnLW1hJywgJzIwMCcsICctbWV0YWxfYmluZGluZycsICctaW1hZScsICc8aW5maWxlLm1hZT4nLCAnLW9tYWUnLCAnPG91dGZpbGUubWFlPic=

> <r_lp_tautomer_probability>
1

> <r_epik_Ionization_Penalty>
0.0472862

> <r_epik_Ionization_Penalty_Charging>
0.0127794

> <r_epik_Ionization_Penalty_Neutral>
0.0345068

> <r_epik_State_Penalty>
0.0614045

> <r_epik_Charging_Adjusted_Penalty>
0.0741839

> <i_epik_Tot_Q>
1

> <i_epik_Tot_abs_Q>
1

> <r_epik_Metal_State_Penalty>
0.0547208

> <b_epik_Metal_Only>
0

> <s_lp_Force_Field>
OPLS_2005

> <r_lp_Energy>
26.038

> <b_lp_Chiralities_Consistent>
1

> <s_lp_Variant>
AV-unprocessed.smi:2563-2

> <Gold.Version>
5.8.1

> <Gold.Id.Protein>
6NUR|6NUR_protein|mol2

> <Gold.PLP.Fitness>
41.2534

> <Gold.PLP.PLP>
-30.3343

> <Gold.PLP.part.hbond>
-3.9792

> <Gold.PLP.part.metal>
0.0000

> <Gold.PLP.part.buried>
-0.9477

> <Gold.PLP.part.nonpolar>
-26.1387

> <Gold.PLP.part.repulsive>
0.1850

> <Gold.PLP.ligand.clash>
0.0000

> <Gold.PLP.ligand.torsion>
0.5399

> <Gold.PLP.Chemscore.Hbond>
3.9280

> <Gold.PLP.Chemscore.CHOScore>
0.0000

> <Gold.PLP.Chemscore.Metal>
0.0000

> <Gold.Chemscore.Hbonds>
donor molecule, donor type, donor heavy atom, donor atom, acceptor molecule, acceptor atom, score
      L1  H     7    27       P1  7957  0.99
      L1  H     7    35       P1  7948  2.00
      P1  H  7997  8009       L1    16  0.94

> <Gold.PLP.Chemscore.Internal.Correction>
0.2149

> <Gold.Rescore>
     Score         DG    S(hbond)    S(metal)    S(lipo)     H(rot)  DE(clash)    DE(int)     intcor
     15.17     -17.20       2.13        0.00      70.02       1.40       0.47       1.56       ----

> <Gold.Chemscore.Fitness>
15.1712

> <Gold.Chemscore.DG>
-17.1955

> <Gold.Chemscore.ZeroCoef>
-5.4800

> <Gold.Chemscore.Hbond>
2.1305

> <Gold.Chemscore.Metal>
0.0000

> <Gold.Chemscore.Lipo>
70.0183

> <Gold.Chemscore.Internal_Hbond>
0.0000

> <Gold.Chemscore.DEClash>
0.4689

> <Gold.Chemscore.DEInternal>
1.5554

> <Gold.Chemscore.Rot>
1.4033

> <Gold.Chemscore.Internal.Correction>
   9.000000E+99

> <Gold.Chemscore.Hbonds>
donor molecule, donor type, donor heavy atom, donor atom, acceptor molecule, acceptor atom, score
      L1  H     7    27       P1  7957  0.92
      L1  H     7    35       P1  7948  0.94
      P1  H  7997  8009       L1    16  0.21

> <Gold.Chemscore.Hbond.Weighted>
-7.1158

> <Gold.Chemscore.Metal.Weighted>
-0.0000

> <Gold.Chemscore.Lipo.Weighted>
-8.1921

> <Gold.Chemscore.Internal_Hbond.Weighted>
0.0000

> <Gold.Chemscore.DEClash.Weighted>
0.4689

> <Gold.Chemscore.DEInternal.Weighted>
1.5554

> <Gold.Chemscore.Rot.Weighted>
3.5924

> <Gold.Chemscore.Internal.Correction.Weighted>
   9.000000E+99

> <Gold.Protein.RotatedTorsions>
[ 6907 6896 6895 6894 ] final  -12.62 input  -60.11 | X-H torsion
[ 7974 7965 7964 7962 ] final  -29.12 input  175.53 | X-H torsion
[ 8008 7997 7996 7995 ] final  177.23 input   59.86 | X-H torsion
[ 10167 10162 10161 10158 ] final  -96.76 input  -65.29 | X-H torsion
[ 10718 10713 10712 10709 ] final  -80.86 input   66.30 | X-H torsion
[ 10763 10752 10751 10750 ] final  -25.72 input  -60.55 | X-H torsion
[ 11005 11000 10999 10996 ] final -140.94 input  -57.11 | X-H torsion

> <Gold.Protein.ActiveResidues>
 VAL166  LYS551  ARG553  GLY616  TRP617  ASP618  TYR619  PRO620  LYS621  CYS622 
 ASP623  PHE694  ASN695  SER759  ASP760  ASP761  ALA762  ILE779  LEU786  VAL792 
 PHE793  MET794  SER795  GLU796  ALA797  LYS798  CYS799  TRP800  GLU811  SER814 

> <Gold.Protein.RotatedAtoms>
  151.3676  135.0916  159.9454 H   0  0  0  0  0  0  0  0  0  0  0  0  # atno 6907 bound_to 6896
  152.5144  133.9196  159.7538 H   0  0  0  0  0  0  0  0  0  0  0  0  # atno 6908 bound_to 6896
  150.9603  133.6397  159.2785 H   0  0  0  0  0  0  0  0  0  0  0  0  # atno 6909 bound_to 6896
  146.1240  140.5371  142.8723 H   0  0  0  0  0  0  0  0  0  0  0  0  # atno 7974 bound_to 7965
  156.0679  140.1363  156.9864 H   0  0  0  0  0  0  0  0  0  0  0  0  # atno 8008 bound_to 7997
  154.4516  140.0978  156.6686 H   0  0  0  0  0  0  0  0  0  0  0  0  # atno 8009 bound_to 7997
  155.5274  140.3458  155.4421 H   0  0  0  0  0  0  0  0  0  0  0  0  # atno 8010 bound_to 7997
  140.2905  143.3224  152.0351 H   0  0  0  0  0  0  0  0  0  0  0  0  # atno 10167 bound_to 10162
  156.0061  130.4586  150.3864 H   0  0  0  0  0  0  0  0  0  0  0  0  # atno 10718 bound_to 10713
  153.7043  135.6954  153.5054 H   0  0  0  0  0  0  0  0  0  0  0  0  # atno 10763 bound_to 10752
  153.2319  135.4335  155.0603 H   0  0  0  0  0  0  0  0  0  0  0  0  # atno 10764 bound_to 10752
  154.8334  135.3486  154.6582 H   0  0  0  0  0  0  0  0  0  0  0  0  # atno 10765 bound_to 10752
  140.8373  134.2444  157.4827 H   0  0  0  0  0  0  0  0  0  0  0  0  # atno 11005 bound_to 11000
  144.7624  140.5452  143.6726 LP  0  0  0  0  0  0  0  0  0  0  0  0  # atno 17320 bound_to 7965
  145.5406  139.1475  143.3449 LP  0  0  0  0  0  0  0  0  0  0  0  0  # atno 17321 bound_to 7965
  139.4939  144.6528  151.6638 LP  0  0  0  0  0  0  0  0  0  0  0  0  # atno 17342 bound_to 10162
  140.5736  144.0066  150.6230 LP  0  0  0  0  0  0  0  0  0  0  0  0  # atno 17343 bound_to 10162
  157.1941  131.0422  151.2685 LP  0  0  0  0  0  0  0  0  0  0  0  0  # atno 17370 bound_to 10713
  157.4035  130.7346  149.6784 LP  0  0  0  0  0  0  0  0  0  0  0  0  # atno 17371 bound_to 10713
  139.8704  134.9617  156.4406 LP  0  0  0  0  0  0  0  0  0  0  0  0  # atno 17394 bound_to 11000
  140.8933  133.7832  155.9596 LP  0  0  0  0  0  0  0  0  0  0  0  0  # atno 17395 bound_to 11000

$$$$
