AV-unprocessed.smi:2247|AV-procd|sdf|9088|dock10
  -GOLD-   2272012293D 1   1.00000     0.00000
 Structure written by MMmdl.
 34 35  0  0  0  0  0  0  0  0  1 V2000
  152.3560  143.5113  161.8252 C   0  0  0  0  0  0  0  0  0  0  0  0
  152.3738  144.2070  160.4521 C   0  0  0  0  0  0  0  0  0  0  0  0
  151.3153  145.3168  160.3556 C   0  0  0  0  0  0  0  0  0  0  0  0
  152.2246  143.2596  159.3394 N   0  0  0  0  0  0  0  0  0  0  0  0
  152.2479  141.8188  159.5342 C   0  0  0  0  0  0  0  0  0  0  0  0
  151.7226  141.2438  158.2153 C   0  0  0  0  0  0  0  0  0  0  0  0
  151.9301  142.3462  157.1649 C   0  0  1  0  0  0  0  0  0  0  0  0
  150.7769  142.4091  156.2679 N   0  0  0  0  0  0  0  0  0  0  0  0
  150.4374  141.4752  155.3657 C   0  0  0  0  0  0  0  0  0  0  0  0
  151.1030  140.4450  155.2192 O   0  0  0  0  0  0  0  0  0  0  0  0
  149.2759  141.8482  154.7069 N   0  0  0  0  0  0  0  0  0  0  0  0
  148.5997  140.9516  154.0579 C   0  0  0  0  0  0  0  0  0  0  0  0
  147.4307  141.1312  153.3358 N   0  0  0  0  0  0  0  0  0  0  0  0
  147.0536  139.9187  152.8279 C   0  0  0  0  0  0  0  0  0  0  0  0
  147.9478  139.0126  153.2125 C   0  0  0  0  0  0  0  0  0  0  0  0
  148.9086  139.6134  153.9684 O   0  0  0  0  0  0  0  0  0  0  0  0
  152.0203  143.5864  158.0556 C   0  0  0  0  0  0  0  0  0  0  0  0
  151.9332  144.7324  157.6139 O   0  0  0  0  0  0  0  0  0  0  0  0
  152.5637  144.2249  162.6228 H   0  0  0  0  0  0  0  0  0  0  0  0
  153.1151  142.7303  161.8812 H   0  0  0  0  0  0  0  0  0  0  0  0
  151.3879  143.0579  162.0395 H   0  0  0  0  0  0  0  0  0  0  0  0
  153.3536  144.6788  160.3582 H   0  0  0  0  0  0  0  0  0  0  0  0
  151.4412  146.0476  161.1548 H   0  0  0  0  0  0  0  0  0  0  0  0
  150.3066  144.9099  160.4330 H   0  0  0  0  0  0  0  0  0  0  0  0
  151.3872  145.8519  159.4080 H   0  0  0  0  0  0  0  0  0  0  0  0
  153.2734  141.4934  159.7145 H   0  0  0  0  0  0  0  0  0  0  0  0
  151.6327  141.5111  160.3805 H   0  0  0  0  0  0  0  0  0  0  0  0
  152.2280  140.3167  157.9430 H   0  0  0  0  0  0  0  0  0  0  0  0
  150.6618  141.0107  158.3276 H   0  0  0  0  0  0  0  0  0  0  0  0
  152.8710  142.2062  156.6303 H   0  0  0  0  0  0  0  0  0  0  0  0
  150.1902  143.2277  156.3395 H   0  0  0  0  0  0  0  0  0  0  0  0
  146.9105  141.9843  153.1890 H   0  0  0  0  0  0  0  0  0  0  0  0
  146.1591  139.8313  152.2289 H   0  0  0  0  0  0  0  0  0  0  0  0
  148.0365  137.9502  153.0404 H   0  0  0  0  0  0  0  0  0  0  0  0
  1  2  1  0  0  0  0
  1 19  1  0  0  0  0
  1 20  1  0  0  0  0
  1 21  1  0  0  0  0
  2  3  1  0  0  0  0
  2  4  1  0  0  0  0
  2 22  1  0  0  0  0
  3 23  1  0  0  0  0
  3 24  1  0  0  0  0
  3 25  1  0  0  0  0
  4 17  1  0  0  0  0
  4  5  1  0  0  0  0
  5  6  1  0  0  0  0
  5 26  1  0  0  0  0
  5 27  1  0  0  0  0
  6  7  1  0  0  0  0
  6 28  1  0  0  0  0
  6 29  1  0  0  0  0
  7  8  1  0  0  0  0
  7 17  1  0  0  0  0
  7 30  1  0  0  0  0
  8 31  1  0  0  0  0
  8  9  1  0  0  0  0
  9 11  1  0  0  0  0
  9 10  2  0  0  0  0
 11 12  2  0  0  0  0
 12 16  1  0  0  0  0
 12 13  1  0  0  0  0
 13 32  1  0  0  0  0
 13 14  1  0  0  0  0
 14 33  1  0  0  0  0
 14 15  2  0  0  0  0
 15 34  1  0  0  0  0
 15 16  1  0  0  0  0
 17 18  2  0  0  0  0
M  END
> <s_m_source_file>
AV-unprocessed.smi

> <i_m_source_file_index>
2247

> <i_lp_mmshare_version>
43012

> <i_f3d_flags>
0

> <s_epik_input>
W0NIM11bQ0hdKFtDSDNdKU4xW0NIMl1bQ0gyXVtDQEhdKEMxPU8pW05IXUMoPU8pW05IXWMybltjSF1bY0hdbzI=

> <s_epik_cmdline>
J2VwaWtfcHl0aG9uJywgJy1waCcsICc3LjAnLCAnLXRuJywgJzgnLCAnLW1hJywgJzIwMCcsICctbWV0YWxfYmluZGluZycsICctaW1hZScsICc8aW5maWxlLm1hZT4nLCAnLW9tYWUnLCAnPG91dGZpbGUubWFlPic=

> <r_lp_tautomer_probability>
0.107061

> <r_epik_Ionization_Penalty>
0.180736

> <r_epik_Ionization_Penalty_Charging>
0.180388

> <r_epik_Ionization_Penalty_Neutral>
0.000348501

> <r_epik_State_Penalty>
2.44396

> <r_epik_Charging_Adjusted_Penalty>
2.62435

> <i_epik_Tot_Q>
0

> <i_epik_Tot_abs_Q>
0

> <r_epik_Metal_State_Penalty>
4.38331

> <b_epik_Metal_Only>
0

> <s_lp_Force_Field>
OPLS_2005

> <r_lp_Energy>
44.8331

> <b_lp_Chiralities_Consistent>
1

> <s_lp_Variant>
AV-unprocessed.smi:2247-3

> <Gold.Version>
5.8.1

> <Gold.Id.Protein>
6NUR|6NUR_protein|mol2

> <Gold.PLP.Fitness>
44.0002

> <Gold.PLP.PLP>
-32.9298

> <Gold.PLP.part.hbond>
-2.0000

> <Gold.PLP.part.metal>
0.0000

> <Gold.PLP.part.buried>
-3.6312

> <Gold.PLP.part.nonpolar>
-27.7842

> <Gold.PLP.part.repulsive>
1.1147

> <Gold.PLP.ligand.clash>
0.0000

> <Gold.PLP.ligand.torsion>
0.3579

> <Gold.PLP.Chemscore.Hbond>
1.9027

> <Gold.PLP.Chemscore.CHOScore>
2.0000

> <Gold.PLP.Chemscore.Metal>
0.0000

> <Gold.Chemscore.Hbonds>
donor molecule, donor type, donor heavy atom, donor atom, acceptor molecule, acceptor atom, score
      L1  H     8    31       P1  8028  0.84
      P1  H  7989  7998       L1    10  0.69
      L1  C    14    33       P1 10175  0.93
      L1  C    15    34       P1  7948  1.00

> <Gold.PLP.Chemscore.Internal.Correction>
0.0780

> <Gold.Rescore>
     Score         DG    S(hbond)    S(metal)    S(lipo)     H(rot)  DE(clash)    DE(int)     intcor
      9.04     -13.95       1.02        0.00      72.43       1.33       1.35       3.57       ----

> <Gold.Chemscore.Fitness>
9.0371

> <Gold.Chemscore.DG>
-13.9508

> <Gold.Chemscore.ZeroCoef>
-5.4800

> <Gold.Chemscore.Hbond>
1.0212

> <Gold.Chemscore.Metal>
0.0000

> <Gold.Chemscore.Lipo>
72.4317

> <Gold.Chemscore.Internal_Hbond>
0.0000

> <Gold.Chemscore.DEClash>
1.3454

> <Gold.Chemscore.DEInternal>
3.5683

> <Gold.Chemscore.Rot>
1.3338

> <Gold.Chemscore.Internal.Correction>
   9.000000E+99

> <Gold.Chemscore.Hbonds>
donor molecule, donor type, donor heavy atom, donor atom, acceptor molecule, acceptor atom, score
      L1  H     8    31       P1  8028  0.81
      P1  H  7989  7998       L1    10  0.07

> <Gold.Chemscore.Hbond.Weighted>
-3.4108

> <Gold.Chemscore.Metal.Weighted>
-0.0000

> <Gold.Chemscore.Lipo.Weighted>
-8.4745

> <Gold.Chemscore.Internal_Hbond.Weighted>
0.0000

> <Gold.Chemscore.DEClash.Weighted>
1.3454

> <Gold.Chemscore.DEInternal.Weighted>
3.5683

> <Gold.Chemscore.Rot.Weighted>
3.4145

> <Gold.Chemscore.Internal.Correction.Weighted>
   9.000000E+99

> <Gold.Protein.RotatedTorsions>
[ 6907 6896 6895 6894 ] final -106.73 input  -60.11 | X-H torsion
[ 7974 7965 7964 7962 ] final  -22.13 input  175.53 | X-H torsion
[ 8008 7997 7996 7995 ] final -157.11 input   59.86 | X-H torsion
[ 10167 10162 10161 10158 ] final  123.62 input  -65.29 | X-H torsion
[ 10718 10713 10712 10709 ] final   64.92 input   66.30 | X-H torsion
[ 10763 10752 10751 10750 ] final   83.72 input  -60.55 | X-H torsion
[ 11005 11000 10999 10996 ] final  115.59 input  -57.11 | X-H torsion

> <Gold.Protein.ActiveResidues>
 VAL166  LYS551  ARG553  GLY616  TRP617  ASP618  TYR619  PRO620  LYS621  CYS622 
 ASP623  PHE694  ASN695  SER759  ASP760  ASP761  ALA762  ILE779  LEU786  VAL792 
 PHE793  MET794  SER795  GLU796  ALA797  LYS798  CYS799  TRP800  GLU811  SER814 

> <Gold.Protein.RotatedAtoms>
  150.7405  133.9932  159.3613 H   0  0  0  0  0  0  0  0  0  0  0  0  # atno 6907 bound_to 6896
  151.7881  135.0741  160.0393 H   0  0  0  0  0  0  0  0  0  0  0  0  # atno 6908 bound_to 6896
  152.3227  133.5834  159.5791 H   0  0  0  0  0  0  0  0  0  0  0  0  # atno 6909 bound_to 6896
  146.1693  140.4436  142.8539 H   0  0  0  0  0  0  0  0  0  0  0  0  # atno 7974 bound_to 7965
  155.7274  140.0797  157.2304 H   0  0  0  0  0  0  0  0  0  0  0  0  # atno 8008 bound_to 7997
  154.4037  140.1601  156.2525 H   0  0  0  0  0  0  0  0  0  0  0  0  # atno 8009 bound_to 7997
  155.9140  140.3402  155.6124 H   0  0  0  0  0  0  0  0  0  0  0  0  # atno 8010 bound_to 7997
  139.5789  144.6976  151.3581 H   0  0  0  0  0  0  0  0  0  0  0  0  # atno 10167 bound_to 10162
  157.6071  130.9186  149.9908 H   0  0  0  0  0  0  0  0  0  0  0  0  # atno 10718 bound_to 10713
  153.1316  135.4681  154.9358 H   0  0  0  0  0  0  0  0  0  0  0  0  # atno 10763 bound_to 10752
  154.7669  135.3147  154.8270 H   0  0  0  0  0  0  0  0  0  0  0  0  # atno 10764 bound_to 10752
  153.8811  135.6894  153.4821 H   0  0  0  0  0  0  0  0  0  0  0  0  # atno 10765 bound_to 10752
  139.9015  134.9586  156.7069 H   0  0  0  0  0  0  0  0  0  0  0  0  # atno 11005 bound_to 11000
  144.8139  140.6434  143.6397 LP  0  0  0  0  0  0  0  0  0  0  0  0  # atno 17320 bound_to 7965
  145.4382  139.1539  143.3985 LP  0  0  0  0  0  0  0  0  0  0  0  0  # atno 17321 bound_to 7965
  140.7069  143.7491  150.7497 LP  0  0  0  0  0  0  0  0  0  0  0  0  # atno 17342 bound_to 10162
  140.1018  143.4780  152.2421 LP  0  0  0  0  0  0  0  0  0  0  0  0  # atno 17343 bound_to 10162
  156.1161  130.3648  149.9966 LP  0  0  0  0  0  0  0  0  0  0  0  0  # atno 17370 bound_to 10713
  156.8055  130.9306  151.3645 LP  0  0  0  0  0  0  0  0  0  0  0  0  # atno 17371 bound_to 10713
  140.7106  133.9226  155.8082 LP  0  0  0  0  0  0  0  0  0  0  0  0  # atno 17394 bound_to 11000
  141.0303  134.0766  157.4022 LP  0  0  0  0  0  0  0  0  0  0  0  0  # atno 17395 bound_to 11000

$$$$
