AV-unprocessed.smi:3274|AV-procd|sdf|12522|dock3
  -GOLD-   2272018433D 1   1.00000     0.00000
 Structure written by MMmdl.
 43 44  0  0  0  0  0  0  0  0  2 V2000
  144.9243  134.8787  153.1217 C   0  0  0  0  0  0  0  0  0  0  0  0
  145.0482  133.8375  152.0217 C   0  0  0  0  0  0  0  0  0  0  0  0
  144.4448  134.0196  150.8303 C   0  0  0  0  0  0  0  0  0  0  0  0
  144.4656  133.0212  149.6863 C   0  0  0  0  0  0  0  0  0  0  0  0
  145.4138  131.8369  149.9360 C   0  0  0  0  0  0  0  0  0  0  0  0
  145.3935  131.4028  151.4114 C   0  0  1  0  0  0  0  0  0  0  0  0
  146.1432  130.0781  151.6345 C   0  0  0  0  0  0  0  0  0  0  0  0
  145.8461  132.5653  152.3406 C   0  0  1  0  0  0  0  0  0  0  0  0
  147.3763  132.8136  152.3005 C   0  0  0  0  0  0  0  0  0  0  0  0
  147.7877  133.9808  153.1095 N   0  3  0  0  0  0  0  0  0  0  0  0
  148.4662  133.6614  154.3848 C   0  0  2  0  0  0  0  0  0  0  0  0
  148.9353  134.9658  155.0511 C   0  0  0  0  0  0  0  0  0  0  0  0
  149.6290  132.6670  154.1571 C   0  0  0  0  0  0  0  0  0  0  0  0
  150.3000  132.2853  155.3863 N   0  0  0  0  0  0  0  0  0  0  0  0
  150.1295  132.7113  156.6392 C   0  0  0  0  0  0  0  0  0  0  0  0
  150.9470  132.1413  157.5132 N   0  0  0  0  0  0  0  0  0  0  0  0
  151.6500  131.3259  156.6719 C   0  0  0  0  0  0  0  0  0  0  0  0
  151.3052  131.3785  155.3851 N   0  0  0  0  0  0  0  0  0  0  0  0
  144.6463  134.4091  154.0655 H   0  0  0  0  0  0  0  0  0  0  0  0
  144.1558  135.6136  152.8796 H   0  0  0  0  0  0  0  0  0  0  0  0
  145.8567  135.4231  153.2622 H   0  0  0  0  0  0  0  0  0  0  0  0
  143.8721  134.9185  150.6535 H   0  0  0  0  0  0  0  0  0  0  0  0
  143.4472  132.6542  149.5558 H   0  0  0  0  0  0  0  0  0  0  0  0
  144.7370  133.5316  148.7616 H   0  0  0  0  0  0  0  0  0  0  0  0
  145.1302  131.0062  149.2887 H   0  0  0  0  0  0  0  0  0  0  0  0
  146.4284  132.1112  149.6463 H   0  0  0  0  0  0  0  0  0  0  0  0
  144.3517  131.1932  151.6616 H   0  0  0  0  0  0  0  0  0  0  0  0
  147.1707  130.1228  151.2735 H   0  0  0  0  0  0  0  0  0  0  0  0
  145.6531  129.2639  151.0998 H   0  0  0  0  0  0  0  0  0  0  0  0
  146.1641  129.8087  152.6908 H   0  0  0  0  0  0  0  0  0  0  0  0
  145.5829  132.2677  153.3569 H   0  0  0  0  0  0  0  0  0  0  0  0
  147.9182  131.9553  152.6947 H   0  0  0  0  0  0  0  0  0  0  0  0
  147.6993  132.9449  151.2686 H   0  0  0  0  0  0  0  0  0  0  0  0
  148.3945  134.5702  152.5576 H   0  0  0  0  0  0  0  0  0  0  0  0
  147.7306  133.2045  155.0488 H   0  0  0  0  0  0  0  0  0  0  0  0
  149.3637  134.7823  156.0368 H   0  0  0  0  0  0  0  0  0  0  0  0
  148.1030  135.6571  155.1874 H   0  0  0  0  0  0  0  0  0  0  0  0
  149.6913  135.4700  154.4480 H   0  0  0  0  0  0  0  0  0  0  0  0
  149.2774  131.7534  153.6780 H   0  0  0  0  0  0  0  0  0  0  0  0
  150.3690  133.1046  153.4852 H   0  0  0  0  0  0  0  0  0  0  0  0
  149.3939  133.4511  156.9189 H   0  0  0  0  0  0  0  0  0  0  0  0
  152.4406  130.6759  157.0173 H   0  0  0  0  0  0  0  0  0  0  0  0
  146.9498  134.5013  153.3272 H   0  0  0  0  0  0  0  0  0  0  0  0
  1  2  1  0  0  0  0
  1 19  1  0  0  0  0
  1 20  1  0  0  0  0
  1 21  1  0  0  0  0
  2  8  1  0  0  0  0
  2  3  2  0  0  0  0
  3  4  1  0  0  0  0
  3 22  1  0  0  0  0
  4  5  1  0  0  0  0
  4 23  1  0  0  0  0
  4 24  1  0  0  0  0
  5  6  1  0  0  0  0
  5 25  1  0  0  0  0
  5 26  1  0  0  0  0
  6  7  1  0  0  0  0
  6  8  1  0  0  0  0
  6 27  1  0  0  0  0
  7 28  1  0  0  0  0
  7 29  1  0  0  0  0
  7 30  1  0  0  0  0
  8  9  1  0  0  0  0
  8 31  1  0  0  0  0
  9 10  1  0  0  0  0
  9 32  1  0  0  0  0
  9 33  1  0  0  0  0
 10 11  1  0  0  0  0
 10 34  1  0  0  0  0
 10 43  1  0  0  0  0
 11 12  1  0  0  0  0
 11 13  1  0  0  0  0
 11 35  1  0  0  0  0
 12 36  1  0  0  0  0
 12 37  1  0  0  0  0
 12 38  1  0  0  0  0
 13 14  1  0  0  0  0
 13 39  1  0  0  0  0
 13 40  1  0  0  0  0
 14 18  1  0  0  0  0
 14 15  1  0  0  0  0
 15 16  2  0  0  0  0
 15 41  1  0  0  0  0
 16 17  1  0  0  0  0
 17 18  2  0  0  0  0
 17 42  1  0  0  0  0
M  CHG  1  10   1
M  END
> <s_m_source_file>
AV-unprocessed.smi

> <i_m_source_file_index>
3274

> <i_lp_mmshare_version>
43012

> <i_f3d_flags>
0

> <s_epik_input>
W0NIM11DMT1bQ0hdW0NIMl1bQ0gyXVtDQEBIXShbQ0gzXSlbQ0BIXTFbQ0gyXVtOSF1bQ0BIXShbQ0gzXSlbQ0gyXW4yW2NIXW5bY0hdbjI=

> <s_epik_cmdline>
J2VwaWtfcHl0aG9uJywgJy1waCcsICc3LjAnLCAnLXRuJywgJzgnLCAnLW1hJywgJzIwMCcsICctbWV0YWxfYmluZGluZycsICctaW1hZScsICc8aW5maWxlLm1hZT4nLCAnLW9tYWUnLCAnPG91dGZpbGUubWFlPic=

> <r_lp_tautomer_probability>
1

> <r_epik_Ionization_Penalty>
0.0017527

> <r_epik_Ionization_Penalty_Charging>
0.00175191

> <r_epik_Ionization_Penalty_Neutral>
7.94565e-07

> <r_epik_State_Penalty>
0.00118605

> <r_epik_Charging_Adjusted_Penalty>
0.00293796

> <i_epik_Tot_Q>
1

> <i_epik_Tot_abs_Q>
1

> <r_epik_Metal_State_Penalty>
-0

> <b_epik_Metal_Only>
0

> <s_lp_Force_Field>
OPLS_2005

> <r_lp_Energy>
17.2811

> <b_lp_Chiralities_Consistent>
1

> <s_lp_Variant>
AV-unprocessed.smi:3274-1

> <Gold.Version>
5.8.1

> <Gold.Id.Protein>
6NUR|6NUR_protein|mol2

> <Gold.PLP.Fitness>
40.9218

> <Gold.PLP.PLP>
-32.6783

> <Gold.PLP.part.hbond>
-2.0000

> <Gold.PLP.part.metal>
0.0000

> <Gold.PLP.part.buried>
-3.8617

> <Gold.PLP.part.nonpolar>
-26.7080

> <Gold.PLP.part.repulsive>
0.0000

> <Gold.PLP.ligand.clash>
0.0000

> <Gold.PLP.ligand.torsion>
0.3953

> <Gold.PLP.Chemscore.Hbond>
3.0000

> <Gold.PLP.Chemscore.CHOScore>
0.0000

> <Gold.PLP.Chemscore.Metal>
0.0000

> <Gold.Chemscore.Hbonds>
donor molecule, donor type, donor heavy atom, donor atom, acceptor molecule, acceptor atom, score
      L1  H    10    34       P1  7948  1.80
      P1  H  6896  6909       L1    16  0.70

> <Gold.PLP.Chemscore.Internal.Correction>
0.0341

> <Gold.Rescore>
     Score         DG    S(hbond)    S(metal)    S(lipo)     H(rot)  DE(clash)    DE(int)     intcor
     13.20     -14.53       1.78        0.00      78.25       2.36       0.00       1.32       ----

> <Gold.Chemscore.Fitness>
13.2048

> <Gold.Chemscore.DG>
-14.5258

> <Gold.Chemscore.ZeroCoef>
-5.4800

> <Gold.Chemscore.Hbond>
1.7772

> <Gold.Chemscore.Metal>
0.0000

> <Gold.Chemscore.Lipo>
78.2502

> <Gold.Chemscore.Internal_Hbond>
0.0000

> <Gold.Chemscore.DEClash>
0.0000

> <Gold.Chemscore.DEInternal>
1.3210

> <Gold.Chemscore.Rot>
2.3615

> <Gold.Chemscore.Internal.Correction>
   9.000000E+99

> <Gold.Chemscore.Hbonds>
donor molecule, donor type, donor heavy atom, donor atom, acceptor molecule, acceptor atom, score
      L1  H    10    34       P1  7948  0.18
      P1  H  6896  6909       L1    16  0.65

> <Gold.Chemscore.Hbond.Weighted>
-5.9359

> <Gold.Chemscore.Metal.Weighted>
-0.0000

> <Gold.Chemscore.Lipo.Weighted>
-9.1553

> <Gold.Chemscore.Internal_Hbond.Weighted>
0.0000

> <Gold.Chemscore.DEClash.Weighted>
0.0000

> <Gold.Chemscore.DEInternal.Weighted>
1.3210

> <Gold.Chemscore.Rot.Weighted>
6.0454

> <Gold.Chemscore.Internal.Correction.Weighted>
   9.000000E+99

> <Gold.Protein.RotatedTorsions>
[ 6907 6896 6895 6894 ] final  -51.22 input  -60.11 | X-H torsion
[ 7974 7965 7964 7962 ] final    3.18 input  175.53 | X-H torsion
[ 8008 7997 7996 7995 ] final  111.99 input   59.86 | X-H torsion
[ 10167 10162 10161 10158 ] final -107.58 input  -65.29 | X-H torsion
[ 10718 10713 10712 10709 ] final  142.28 input   66.30 | X-H torsion
[ 10763 10752 10751 10750 ] final  170.71 input  -60.55 | X-H torsion
[ 11005 11000 10999 10996 ] final   70.29 input  -57.11 | X-H torsion

> <Gold.Protein.ActiveResidues>
 VAL166  LYS551  ARG553  GLY616  TRP617  ASP618  TYR619  PRO620  LYS621  CYS622 
 ASP623  PHE694  ASN695  SER759  ASP760  ASP761  ALA762  ILE779  LEU786  VAL792 
 PHE793  MET794  SER795  GLU796  ALA797  LYS798  CYS799  TRP800  GLU811  SER814 

> <Gold.Protein.RotatedAtoms>
  150.8632  134.7989  159.7098 H   0  0  0  0  0  0  0  0  0  0  0  0  # atno 6907 bound_to 6896
  152.4662  134.5066  159.9751 H   0  0  0  0  0  0  0  0  0  0  0  0  # atno 6908 bound_to 6896
  151.5167  133.3436  159.2930 H   0  0  0  0  0  0  0  0  0  0  0  0  # atno 6909 bound_to 6896
  146.2445  140.0724  142.8361 H   0  0  0  0  0  0  0  0  0  0  0  0  # atno 7974 bound_to 7965
  156.2162  140.3008  155.9845 H   0  0  0  0  0  0  0  0  0  0  0  0  # atno 8008 bound_to 7997
  155.2600  140.0429  157.3013 H   0  0  0  0  0  0  0  0  0  0  0  0  # atno 8009 bound_to 7997
  154.5771  140.2365  155.8115 H   0  0  0  0  0  0  0  0  0  0  0  0  # atno 8010 bound_to 7997
  140.1754  143.4009  152.1322 H   0  0  0  0  0  0  0  0  0  0  0  0  # atno 10167 bound_to 10162
  157.3824  131.0994  151.0726 H   0  0  0  0  0  0  0  0  0  0  0  0  # atno 10718 bound_to 10713
  154.4015  135.2755  155.2094 H   0  0  0  0  0  0  0  0  0  0  0  0  # atno 10763 bound_to 10752
  154.4118  135.6020  153.5960 H   0  0  0  0  0  0  0  0  0  0  0  0  # atno 10764 bound_to 10752
  152.9831  135.5951  154.4283 H   0  0  0  0  0  0  0  0  0  0  0  0  # atno 10765 bound_to 10752
  139.9606  134.7067  156.0654 H   0  0  0  0  0  0  0  0  0  0  0  0  # atno 11005 bound_to 11000
  145.0804  140.9217  143.4828 LP  0  0  0  0  0  0  0  0  0  0  0  0  # atno 17320 bound_to 7965
  145.0876  139.2913  143.5751 LP  0  0  0  0  0  0  0  0  0  0  0  0  # atno 17321 bound_to 7965
  139.5319  144.7168  151.5026 LP  0  0  0  0  0  0  0  0  0  0  0  0  # atno 17342 bound_to 10162
  140.6554  143.8609  150.6830 LP  0  0  0  0  0  0  0  0  0  0  0  0  # atno 17343 bound_to 10162
  157.1790  130.6301  149.5665 LP  0  0  0  0  0  0  0  0  0  0  0  0  # atno 17370 bound_to 10713
  155.9779  130.4760  150.6620 LP  0  0  0  0  0  0  0  0  0  0  0  0  # atno 17371 bound_to 10713
  141.1283  133.6593  156.3395 LP  0  0  0  0  0  0  0  0  0  0  0  0  # atno 17394 bound_to 11000
  140.5509  134.6029  157.5407 LP  0  0  0  0  0  0  0  0  0  0  0  0  # atno 17395 bound_to 11000

$$$$
