AV-unprocessed.smi:2061|AV-procd|sdf|8381|dock4
  -GOLD-   2272011 63D 1   1.00000     0.00000
 Structure written by MMmdl.
 45 46  0  0  0  0  0  0  0  0  3 V2000
  152.3182  140.0894  159.3641 C   0  0  0  0  0  0  0  0  0  0  0  0
  151.9768  139.9647  157.9185 C   0  0  0  0  0  0  0  0  0  0  0  0
  150.9320  140.4259  157.1690 C   0  0  0  0  0  0  0  0  0  0  0  0
  151.2249  139.9360  155.8669 C   0  0  0  0  0  0  0  0  0  0  0  0
  150.4877  140.1370  154.7637 N   0  5  0  0  0  0  0  0  0  0  0  0
  149.1375  140.1372  154.8372 C   0  0  0  0  0  0  0  0  0  0  0  0
  148.4588  140.2331  155.8625 O   0  0  0  0  0  0  0  0  0  0  0  0
  148.5336  140.0261  153.6456 N   0  0  0  0  0  0  0  0  0  0  0  0
  147.0915  140.0235  153.4195 C   0  0  0  0  0  0  0  0  0  0  0  0
  146.3372  139.0165  154.3277 C   0  0  1  0  0  0  0  0  0  0  0  0
  145.7606  139.7438  155.5670 C   0  0  0  0  0  0  0  0  0  0  0  0
  145.3044  138.2783  153.5302 N   0  3  1  0  0  0  0  0  0  0  0  0
  145.9064  137.2938  152.5912 C   0  0  0  0  0  0  0  0  0  0  0  0
  144.8281  136.6449  151.7049 C   0  0  1  0  0  0  0  0  0  0  0  0
  145.4119  135.5866  150.7620 C   0  0  0  0  0  0  0  0  0  0  0  0
  143.8690  136.0109  152.5407 O   0  0  0  0  0  0  0  0  0  0  0  0
  143.2020  136.9340  153.3911 C   0  0  1  0  0  0  0  0  0  0  0  0
  142.1335  136.1666  154.1778 C   0  0  0  0  0  0  0  0  0  0  0  0
  144.2290  137.6146  154.3175 C   0  0  0  0  0  0  0  0  0  0  0  0
  152.3573  139.2544  155.8262 N   0  0  0  0  0  0  0  0  0  0  0  0
  152.8422  139.2616  157.1395 O   0  0  0  0  0  0  0  0  0  0  0  0
  152.2240  141.1237  159.6950 H   0  0  0  0  0  0  0  0  0  0  0  0
  153.3413  139.7657  159.5563 H   0  0  0  0  0  0  0  0  0  0  0  0
  151.6504  139.4777  159.9709 H   0  0  0  0  0  0  0  0  0  0  0  0
  150.0900  141.0153  157.4994 H   0  0  0  0  0  0  0  0  0  0  0  0
  149.1258  139.9447  152.8322 H   0  0  0  0  0  0  0  0  0  0  0  0
  146.7247  141.0330  153.6067 H   0  0  0  0  0  0  0  0  0  0  0  0
  146.9171  139.8334  152.3611 H   0  0  0  0  0  0  0  0  0  0  0  0
  147.0474  138.2783  154.7035 H   0  0  0  0  0  0  0  0  0  0  0  0
  146.5322  140.2908  156.1090 H   0  0  0  0  0  0  0  0  0  0  0  0
  145.3346  139.0470  156.2888 H   0  0  0  0  0  0  0  0  0  0  0  0
  144.9900  140.4621  155.2859 H   0  0  0  0  0  0  0  0  0  0  0  0
  146.6473  137.7669  151.9493 H   0  0  0  0  0  0  0  0  0  0  0  0
  146.4314  136.5250  153.1610 H   0  0  0  0  0  0  0  0  0  0  0  0
  144.3354  137.4104  151.1026 H   0  0  0  0  0  0  0  0  0  0  0  0
  146.1526  136.0236  150.0918 H   0  0  0  0  0  0  0  0  0  0  0  0
  144.6303  135.1404  150.1463 H   0  0  0  0  0  0  0  0  0  0  0  0
  145.8961  134.7840  151.3189 H   0  0  0  0  0  0  0  0  0  0  0  0
  142.7039  137.6888  152.7799 H   0  0  0  0  0  0  0  0  0  0  0  0
  141.5761  136.8318  154.8375 H   0  0  0  0  0  0  0  0  0  0  0  0
  142.5806  135.3840  154.7917 H   0  0  0  0  0  0  0  0  0  0  0  0
  141.4192  135.6926  153.5040 H   0  0  0  0  0  0  0  0  0  0  0  0
  144.6729  136.8840  154.9958 H   0  0  0  0  0  0  0  0  0  0  0  0
  143.6899  138.3415  154.9245 H   0  0  0  0  0  0  0  0  0  0  0  0
  144.8396  138.9756  152.9665 H   0  0  0  0  0  0  0  0  0  0  0  0
  1  2  1  0  0  0  0
  1 22  1  0  0  0  0
  1 23  1  0  0  0  0
  1 24  1  0  0  0  0
  2 21  1  0  0  0  0
  2  3  2  0  0  0  0
  3  4  1  0  0  0  0
  3 25  1  0  0  0  0
  4  5  1  0  0  0  0
  4 20  2  0  0  0  0
  5  6  1  0  0  0  0
  6  7  2  0  0  0  0
  6  8  1  0  0  0  0
  8  9  1  0  0  0  0
  8 26  1  0  0  0  0
  9 10  1  0  0  0  0
  9 27  1  0  0  0  0
  9 28  1  0  0  0  0
 10 11  1  0  0  0  0
 10 12  1  0  0  0  0
 10 29  1  0  0  0  0
 11 30  1  0  0  0  0
 11 31  1  0  0  0  0
 11 32  1  0  0  0  0
 12 19  1  0  0  0  0
 12 13  1  0  0  0  0
 12 45  1  0  0  0  0
 13 14  1  0  0  0  0
 13 33  1  0  0  0  0
 13 34  1  0  0  0  0
 14 15  1  0  0  0  0
 14 16  1  0  0  0  0
 14 35  1  0  0  0  0
 15 36  1  0  0  0  0
 15 37  1  0  0  0  0
 15 38  1  0  0  0  0
 16 17  1  0  0  0  0
 17 18  1  0  0  0  0
 17 19  1  0  0  0  0
 17 39  1  0  0  0  0
 18 40  1  0  0  0  0
 18 41  1  0  0  0  0
 18 42  1  0  0  0  0
 19 43  1  0  0  0  0
 19 44  1  0  0  0  0
 20 21  1  0  0  0  0
M  CHG  1   5  -1
M  CHG  1  12   1
M  END
> <s_m_source_file>
AV-unprocessed.smi

> <i_m_source_file_index>
2061

> <i_lp_mmshare_version>
43012

> <i_f3d_flags>
0

> <s_epik_input>
W0NIM11jMVtjSF1jKG5vMSlbTkhdQyg9TylbTkhdW0NIMl1bQ0BIXShbQ0gzXSlOMltDSDJdW0NAQEhdKFtDSDNdKU9bQ0BASF0oW0NIM10pW0NIMl0y

> <s_epik_cmdline>
J2VwaWtfcHl0aG9uJywgJy1waCcsICc3LjAnLCAnLXRuJywgJzgnLCAnLW1hJywgJzIwMCcsICctbWV0YWxfYmluZGluZycsICctaW1hZScsICc8aW5maWxlLm1hZT4nLCAnLW9tYWUnLCAnPG91dGZpbGUubWFlPic=

> <r_epik_Ionization_Penalty>
6.73511

> <r_epik_Ionization_Penalty_Charging>
6.73502

> <r_epik_Ionization_Penalty_Neutral>
9.50841e-05

> <r_epik_State_Penalty>
6.93549

> <r_epik_Charging_Adjusted_Penalty>
13.6705

> <i_epik_Tot_Q>
0

> <i_epik_Tot_abs_Q>
2

> <r_epik_Metal_State_Penalty>
2.87211

> <b_epik_Metal_Only>
1

> <s_lp_Force_Field>
OPLS_2005

> <r_lp_Energy>
8.02842

> <b_lp_Chiralities_Consistent>
1

> <s_lp_Variant>
AV-unprocessed.smi:2061-22

> <Gold.Version>
5.8.1

> <Gold.Id.Protein>
6NUR|6NUR_protein|mol2

> <Gold.PLP.Fitness>
43.1092

> <Gold.PLP.PLP>
-30.5138

> <Gold.PLP.part.hbond>
-4.4735

> <Gold.PLP.part.metal>
0.0000

> <Gold.PLP.part.buried>
-3.6104

> <Gold.PLP.part.nonpolar>
-22.7706

> <Gold.PLP.part.repulsive>
0.3992

> <Gold.PLP.ligand.clash>
0.0000

> <Gold.PLP.ligand.torsion>
1.2312

> <Gold.PLP.Chemscore.Hbond>
4.9913

> <Gold.PLP.Chemscore.CHOScore>
0.0000

> <Gold.PLP.Chemscore.Metal>
0.0000

> <Gold.Chemscore.Hbonds>
donor molecule, donor type, donor heavy atom, donor atom, acceptor molecule, acceptor atom, score
      L1  H     8    26       P1  7957  1.00
      L1  H    12    45       P1 10175  2.00
      P1  H  7989  7998       L1     5  1.00
      P1  H  7997  8009       L1    21  0.50

> <Gold.PLP.Chemscore.Internal.Correction>
0.0842

> <Gold.Rescore>
     Score         DG    S(hbond)    S(metal)    S(lipo)     H(rot)  DE(clash)    DE(int)     intcor
     11.25     -17.70       2.76        0.00      59.68       1.56       1.44       5.01       ----

> <Gold.Chemscore.Fitness>
11.2490

> <Gold.Chemscore.DG>
-17.6952

> <Gold.Chemscore.ZeroCoef>
-5.4800

> <Gold.Chemscore.Hbond>
2.7585

> <Gold.Chemscore.Metal>
0.0000

> <Gold.Chemscore.Lipo>
59.6825

> <Gold.Chemscore.Internal_Hbond>
0.0000

> <Gold.Chemscore.DEClash>
1.4375

> <Gold.Chemscore.DEInternal>
5.0087

> <Gold.Chemscore.Rot>
1.5550

> <Gold.Chemscore.Internal.Correction>
   9.000000E+99

> <Gold.Chemscore.Hbonds>
donor molecule, donor type, donor heavy atom, donor atom, acceptor molecule, acceptor atom, score
      L1  H     8    26       P1  7957  0.99
      L1  H    12    45       P1 10175  0.99
      P1  H  7989  7998       L1     5  0.60
      P1  H  7997  8009       L1    21  0.02

> <Gold.Chemscore.Hbond.Weighted>
-9.2133

> <Gold.Chemscore.Metal.Weighted>
-0.0000

> <Gold.Chemscore.Lipo.Weighted>
-6.9828

> <Gold.Chemscore.Internal_Hbond.Weighted>
0.0000

> <Gold.Chemscore.DEClash.Weighted>
1.4375

> <Gold.Chemscore.DEInternal.Weighted>
5.0087

> <Gold.Chemscore.Rot.Weighted>
3.9809

> <Gold.Chemscore.Internal.Correction.Weighted>
   9.000000E+99

> <Gold.Protein.RotatedTorsions>
[ 6907 6896 6895 6894 ] final   80.75 input  -60.11 | X-H torsion
[ 7974 7965 7964 7962 ] final  -77.13 input  175.53 | X-H torsion
[ 8008 7997 7996 7995 ] final -176.01 input   59.86 | X-H torsion
[ 10167 10162 10161 10158 ] final  -64.52 input  -65.29 | X-H torsion
[ 10718 10713 10712 10709 ] final  -15.76 input   66.30 | X-H torsion
[ 10763 10752 10751 10750 ] final   23.47 input  -60.55 | X-H torsion
[ 11005 11000 10999 10996 ] final   76.43 input  -57.11 | X-H torsion

> <Gold.Protein.ActiveResidues>
 VAL166  LYS551  ARG553  GLY616  TRP617  ASP618  TYR619  PRO620  LYS621  CYS622 
 ASP623  PHE694  ASN695  SER759  ASP760  ASP761  ALA762  ILE779  LEU786  VAL792 
 PHE793  MET794  SER795  GLU796  ALA797  LYS798  CYS799  TRP800  GLU811  SER814 

> <Gold.Protein.RotatedAtoms>
  152.5245  134.3310  159.9182 H   0  0  0  0  0  0  0  0  0  0  0  0  # atno 6907 bound_to 6896
  151.3259  133.4014  159.2666 H   0  0  0  0  0  0  0  0  0  0  0  0  # atno 6908 bound_to 6896
  150.9920  134.9270  159.7962 H   0  0  0  0  0  0  0  0  0  0  0  0  # atno 6909 bound_to 6896
  145.6037  140.9403  143.1227 H   0  0  0  0  0  0  0  0  0  0  0  0  # atno 7974 bound_to 7965
  155.9896  140.1198  157.0650 H   0  0  0  0  0  0  0  0  0  0  0  0  # atno 8008 bound_to 7997
  154.4207  140.1128  156.5616 H   0  0  0  0  0  0  0  0  0  0  0  0  # atno 8009 bound_to 7997
  155.6360  140.3473  155.4701 H   0  0  0  0  0  0  0  0  0  0  0  0  # atno 8010 bound_to 7997
  140.5795  143.2325  151.6373 H   0  0  0  0  0  0  0  0  0  0  0  0  # atno 10167 bound_to 10162
  156.5971  130.4814  149.6255 H   0  0  0  0  0  0  0  0  0  0  0  0  # atno 10718 bound_to 10713
  153.0836  135.6626  153.9995 H   0  0  0  0  0  0  0  0  0  0  0  0  # atno 10763 bound_to 10752
  153.9611  135.2974  155.3435 H   0  0  0  0  0  0  0  0  0  0  0  0  # atno 10764 bound_to 10752
  154.7240  135.5152  153.8928 H   0  0  0  0  0  0  0  0  0  0  0  0  # atno 10765 bound_to 10752
  139.9298  134.7600  156.1395 H   0  0  0  0  0  0  0  0  0  0  0  0  # atno 11005 bound_to 11000
  144.7299  139.7758  143.7351 LP  0  0  0  0  0  0  0  0  0  0  0  0  # atno 17320 bound_to 7965
  146.1557  139.4654  143.0020 LP  0  0  0  0  0  0  0  0  0  0  0  0  # atno 17321 bound_to 7965
  139.5161  144.3356  152.0787 LP  0  0  0  0  0  0  0  0  0  0  0  0  # atno 17342 bound_to 10162
  140.2504  144.4175  150.6224 LP  0  0  0  0  0  0  0  0  0  0  0  0  # atno 17343 bound_to 10162
  156.2500  130.6901  151.1636 LP  0  0  0  0  0  0  0  0  0  0  0  0  # atno 17370 bound_to 10713
  157.7289  131.0628  150.5799 LP  0  0  0  0  0  0  0  0  0  0  0  0  # atno 17371 bound_to 10713
  141.0880  133.6726  156.2478 LP  0  0  0  0  0  0  0  0  0  0  0  0  # atno 17394 bound_to 11000
  140.6233  134.5339  157.5550 LP  0  0  0  0  0  0  0  0  0  0  0  0  # atno 17395 bound_to 11000

$$$$
