AV-unprocessed.smi:339|AV-procd|sdf|2379|dock7
  -GOLD-   2262022303D 1   1.00000     0.00000
 Structure written by MMmdl.
 45 46  0  0  0  0  0  0  0  0  1 V2000
  154.9988  140.5366  162.1191 C   0  0  0  0  0  0  0  0  0  0  0  0
  153.9536  141.4139  161.4558 C   0  0  0  0  0  0  0  0  0  0  0  0
  153.5320  142.5972  162.0967 C   0  0  0  0  0  0  0  0  0  0  0  0
  152.5568  143.4177  161.5003 C   0  0  0  0  0  0  0  0  0  0  0  0
  151.9925  143.0548  160.2633 C   0  0  0  0  0  0  0  0  0  0  0  0
  152.4060  141.8737  159.6135 C   0  0  0  0  0  0  0  0  0  0  0  0
  151.7780  141.4904  158.2860 C   0  0  0  0  0  0  0  0  0  0  0  0
  153.4005  141.0578  160.2031 C   0  0  0  0  0  0  0  0  0  0  0  0
  153.8100  139.9123  159.5711 O   0  0  0  0  0  0  0  0  0  0  0  0
  153.4745  138.7257  160.2753 C   0  0  0  0  0  0  0  0  0  0  0  0
  154.3198  137.5643  159.7287 C   0  0  1  0  0  0  0  0  0  0  0  0
  154.1824  136.4870  160.6350 O   0  0  0  0  0  0  0  0  0  0  0  0
  153.8178  137.0900  158.3466 C   0  0  0  0  0  0  0  0  0  0  0  0
  152.4477  137.5404  158.0739 N   0  0  0  0  0  0  0  0  0  0  0  0
  151.4927  136.9410  158.8705 N   0  0  0  0  0  0  0  0  0  0  0  0
  150.2374  137.2209  158.7429 C   0  0  0  0  0  0  0  0  0  0  0  0
  149.2890  136.5054  159.6666 C   0  0  0  0  0  0  0  0  0  0  0  0
  149.8111  138.1902  157.7383 C   0  0  0  0  0  0  0  0  0  0  0  0
  148.3204  138.4816  157.6319 C   0  0  0  0  0  0  0  0  0  0  0  0
  150.7602  138.7792  156.9684 C   0  0  0  0  0  0  0  0  0  0  0  0
  150.4398  139.7473  155.9698 C   0  0  0  0  0  0  0  0  0  0  0  0
  150.1950  140.5249  155.1479 N   0  0  0  0  0  0  0  0  0  0  0  0
  152.1839  138.4641  157.1059 C   0  0  0  0  0  0  0  0  0  0  0  0
  153.0692  138.9733  156.4169 O   0  0  0  0  0  0  0  0  0  0  0  0
  155.0487  140.7280  163.1912 H   0  0  0  0  0  0  0  0  0  0  0  0
  155.9823  140.7319  161.6922 H   0  0  0  0  0  0  0  0  0  0  0  0
  154.7657  139.4806  161.9801 H   0  0  0  0  0  0  0  0  0  0  0  0
  153.9548  142.8796  163.0498 H   0  0  0  0  0  0  0  0  0  0  0  0
  152.2373  144.3232  161.9945 H   0  0  0  0  0  0  0  0  0  0  0  0
  151.2391  143.6864  159.8161 H   0  0  0  0  0  0  0  0  0  0  0  0
  151.5826  140.4183  158.2444 H   0  0  0  0  0  0  0  0  0  0  0  0
  152.4430  141.7513  157.4629 H   0  0  0  0  0  0  0  0  0  0  0  0
  150.8304  142.0081  158.1357 H   0  0  0  0  0  0  0  0  0  0  0  0
  153.6040  138.8347  161.3538 H   0  0  0  0  0  0  0  0  0  0  0  0
  152.4165  138.5254  160.1033 H   0  0  0  0  0  0  0  0  0  0  0  0
  155.3646  137.8721  159.6714 H   0  0  0  0  0  0  0  0  0  0  0  0
  153.8905  136.8289  161.4661 H   0  0  0  0  0  0  0  0  0  0  0  0
  154.5007  137.4138  157.5584 H   0  0  0  0  0  0  0  0  0  0  0  0
  153.8374  135.9996  158.2977 H   0  0  0  0  0  0  0  0  0  0  0  0
  148.6522  137.2150  160.1950 H   0  0  0  0  0  0  0  0  0  0  0  0
  149.8188  135.9180  160.4180 H   0  0  0  0  0  0  0  0  0  0  0  0
  148.6469  135.8243  159.1076 H   0  0  0  0  0  0  0  0  0  0  0  0
  148.0818  139.0900  156.7602 H   0  0  0  0  0  0  0  0  0  0  0  0
  147.9757  139.0186  158.5159 H   0  0  0  0  0  0  0  0  0  0  0  0
  147.7483  137.5572  157.5450 H   0  0  0  0  0  0  0  0  0  0  0  0
  1  2  1  0  0  0  0
  1 25  1  0  0  0  0
  1 26  1  0  0  0  0
  1 27  1  0  0  0  0
  2  8  1  0  0  0  0
  2  3  2  0  0  0  0
  3  4  1  0  0  0  0
  3 28  1  0  0  0  0
  4  5  2  0  0  0  0
  4 29  1  0  0  0  0
  5  6  1  0  0  0  0
  5 30  1  0  0  0  0
  6  7  1  0  0  0  0
  6  8  2  0  0  0  0
  7 31  1  0  0  0  0
  7 32  1  0  0  0  0
  7 33  1  0  0  0  0
  8  9  1  0  0  0  0
  9 10  1  0  0  0  0
 10 11  1  0  0  0  0
 10 34  1  0  0  0  0
 10 35  1  0  0  0  0
 11 12  1  0  0  0  0
 11 13  1  0  0  0  0
 11 36  1  0  0  0  0
 12 37  1  0  0  0  0
 13 14  1  0  0  0  0
 13 38  1  0  0  0  0
 13 39  1  0  0  0  0
 14 23  1  0  0  0  0
 14 15  1  0  0  0  0
 15 16  2  0  0  0  0
 16 17  1  0  0  0  0
 16 18  1  0  0  0  0
 17 40  1  0  0  0  0
 17 41  1  0  0  0  0
 17 42  1  0  0  0  0
 18 19  1  0  0  0  0
 18 20  2  0  0  0  0
 19 43  1  0  0  0  0
 19 44  1  0  0  0  0
 19 45  1  0  0  0  0
 20 21  1  0  0  0  0
 20 23  1  0  0  0  0
 21 22  3  0  0  0  0
 23 24  2  0  0  0  0
M  END
> <s_m_source_file>
AV-unprocessed.smi

> <i_m_source_file_index>
339

> <i_lp_mmshare_version>
43012

> <i_f3d_flags>
0

> <s_epik_input>
W0NIM11jMVtjSF1bY0hdW2NIXWMoW0NIM10pYzFPW0NIMl1bQ0BIXShbT0hdKVtDSDJdbjJuYyhbQ0gzXSljKFtDSDNdKWMoQyNOKWMyPU8=

> <s_epik_cmdline>
J2VwaWtfcHl0aG9uJywgJy1waCcsICc3LjAnLCAnLXRuJywgJzgnLCAnLW1hJywgJzIwMCcsICctbWV0YWxfYmluZGluZycsICctaW1hZScsICc8aW5maWxlLm1hZT4nLCAnLW9tYWUnLCAnPG91dGZpbGUubWFlPic=

> <r_lp_tautomer_probability>
1

> <r_epik_Ionization_Penalty>
1.17331e-07

> <r_epik_Ionization_Penalty_Charging>
1.57223e-10

> <r_epik_Ionization_Penalty_Neutral>
1.17174e-07

> <r_epik_State_Penalty>
-0

> <r_epik_Charging_Adjusted_Penalty>
1.57223e-10

> <i_epik_Tot_Q>
0

> <i_epik_Tot_abs_Q>
0

> <r_epik_Metal_State_Penalty>
-0

> <b_epik_Metal_Only>
0

> <s_lp_Force_Field>
OPLS_2005

> <r_lp_Energy>
35.8185

> <b_lp_Chiralities_Consistent>
1

> <s_lp_Variant>
AV-unprocessed.smi:339-2

> <Gold.Version>
5.8.1

> <Gold.Id.Protein>
6NUR|6NUR_protein|mol2

> <Gold.PLP.Fitness>
48.9813

> <Gold.PLP.PLP>
-41.7811

> <Gold.PLP.part.hbond>
-2.8749

> <Gold.PLP.part.metal>
0.0000

> <Gold.PLP.part.buried>
-6.7338

> <Gold.PLP.part.nonpolar>
-32.1694

> <Gold.PLP.part.repulsive>
0.0636

> <Gold.PLP.ligand.clash>
0.0000

> <Gold.PLP.ligand.torsion>
0.8356

> <Gold.PLP.Chemscore.Hbond>
2.9280

> <Gold.PLP.Chemscore.CHOScore>
0.0000

> <Gold.PLP.Chemscore.Metal>
0.0000

> <Gold.Chemscore.Hbonds>
donor molecule, donor type, donor heavy atom, donor atom, acceptor molecule, acceptor atom, score
      P1  H  6896  6907       L1    15  0.86
      P1  H  7989  7998       L1    22  0.53
      P1  H  7997  8009       L1    24  0.86

> <Gold.PLP.Chemscore.Internal.Correction>
0.0874

> <Gold.Rescore>
     Score         DG    S(hbond)    S(metal)    S(lipo)     H(rot)  DE(clash)    DE(int)     intcor
     19.62     -21.89       2.78        0.00     111.14       2.29       0.21       2.06       ----

> <Gold.Chemscore.Fitness>
19.6198

> <Gold.Chemscore.DG>
-21.8939

> <Gold.Chemscore.ZeroCoef>
-5.4800

> <Gold.Chemscore.Hbond>
2.7767

> <Gold.Chemscore.Metal>
0.0000

> <Gold.Chemscore.Lipo>
111.1396

> <Gold.Chemscore.Internal_Hbond>
0.0000

> <Gold.Chemscore.DEClash>
0.2114

> <Gold.Chemscore.DEInternal>
2.0628

> <Gold.Chemscore.Rot>
2.2905

> <Gold.Chemscore.Internal.Correction>
   9.000000E+99

> <Gold.Chemscore.Hbonds>
donor molecule, donor type, donor heavy atom, donor atom, acceptor molecule, acceptor atom, score
      P1  H  6896  6907       L1    15  0.24
      P1  H  7989  7998       L1    22  0.51
      P1  H  7997  8009       L1    24  0.85

> <Gold.Chemscore.Hbond.Weighted>
-9.2742

> <Gold.Chemscore.Metal.Weighted>
-0.0000

> <Gold.Chemscore.Lipo.Weighted>
-13.0033

> <Gold.Chemscore.Internal_Hbond.Weighted>
0.0000

> <Gold.Chemscore.DEClash.Weighted>
0.2114

> <Gold.Chemscore.DEInternal.Weighted>
2.0628

> <Gold.Chemscore.Rot.Weighted>
5.8636

> <Gold.Chemscore.Internal.Correction.Weighted>
   9.000000E+99

> <Gold.Protein.RotatedTorsions>
[ 6907 6896 6895 6894 ] final  -10.59 input  -60.11 | X-H torsion
[ 7974 7965 7964 7962 ] final   26.22 input  175.53 | X-H torsion
[ 8008 7997 7996 7995 ] final  167.09 input   59.86 | X-H torsion
[ 10167 10162 10161 10158 ] final   43.51 input  -65.29 | X-H torsion
[ 10718 10713 10712 10709 ] final  145.31 input   66.30 | X-H torsion
[ 10763 10752 10751 10750 ] final  106.88 input  -60.55 | X-H torsion
[ 11005 11000 10999 10996 ] final -172.80 input  -57.11 | X-H torsion

> <Gold.Protein.ActiveResidues>
 VAL166  LYS551  ARG553  GLY616  TRP617  ASP618  TYR619  PRO620  LYS621  CYS622 
 ASP623  PHE694  ASN695  SER759  ASP760  ASP761  ALA762  ILE779  LEU786  VAL792 
 PHE793  MET794  SER795  GLU796  ALA797  LYS798  CYS799  TRP800  GLU811  SER814 

> <Gold.Protein.RotatedAtoms>
  151.3996  135.0969  159.9551 H   0  0  0  0  0  0  0  0  0  0  0  0  # atno 6907 bound_to 6896
  152.5054  133.8901  159.7400 H   0  0  0  0  0  0  0  0  0  0  0  0  # atno 6908 bound_to 6896
  150.9372  133.6642  159.2826 H   0  0  0  0  0  0  0  0  0  0  0  0  # atno 6909 bound_to 6896
  146.1849  139.7358  142.8874 H   0  0  0  0  0  0  0  0  0  0  0  0  # atno 7974 bound_to 7965
  156.1663  140.1626  156.8525 H   0  0  0  0  0  0  0  0  0  0  0  0  # atno 8008 bound_to 7997
  154.5211  140.0778  156.8208 H   0  0  0  0  0  0  0  0  0  0  0  0  # atno 8009 bound_to 7997
  155.3604  140.3395  155.4243 H   0  0  0  0  0  0  0  0  0  0  0  0  # atno 8010 bound_to 7997
  140.3437  144.2438  150.6153 H   0  0  0  0  0  0  0  0  0  0  0  0  # atno 10167 bound_to 10162
  157.3468  131.0944  151.1034 H   0  0  0  0  0  0  0  0  0  0  0  0  # atno 10718 bound_to 10713
  153.3991  135.3862  155.1975 H   0  0  0  0  0  0  0  0  0  0  0  0  # atno 10763 bound_to 10752
  154.8727  135.3767  154.4641 H   0  0  0  0  0  0  0  0  0  0  0  0  # atno 10764 bound_to 10752
  153.5136  135.7087  153.5829 H   0  0  0  0  0  0  0  0  0  0  0  0  # atno 10765 bound_to 10752
  140.4929  134.5968  157.4961 H   0  0  0  0  0  0  0  0  0  0  0  0  # atno 11005 bound_to 11000
  145.3969  141.0380  143.3092 LP  0  0  0  0  0  0  0  0  0  0  0  0  # atno 17320 bound_to 7965
  144.8379  139.5520  143.6914 LP  0  0  0  0  0  0  0  0  0  0  0  0  # atno 17321 bound_to 7965
  140.5285  143.2249  151.8277 LP  0  0  0  0  0  0  0  0  0  0  0  0  # atno 17342 bound_to 10162
  139.4836  144.4750  151.9378 LP  0  0  0  0  0  0  0  0  0  0  0  0  # atno 17343 bound_to 10162
  157.2225  130.6488  149.5817 LP  0  0  0  0  0  0  0  0  0  0  0  0  # atno 17370 bound_to 10713
  155.9715  130.4624  150.6146 LP  0  0  0  0  0  0  0  0  0  0  0  0  # atno 17371 bound_to 10713
  139.9759  134.7217  155.9952 LP  0  0  0  0  0  0  0  0  0  0  0  0  # atno 17394 bound_to 11000
  141.1475  133.6553  156.3912 LP  0  0  0  0  0  0  0  0  0  0  0  0  # atno 17395 bound_to 11000

$$$$
