AV-unprocessed.smi:72|AV-procd|sdf|687|dock10
  -GOLD-   2262017 03D 1   1.00000     0.00000
 Structure written by MMmdl.
 29 30  0  0  0  0  0  0  0  0  1 V2000
  151.1966  135.9992  154.3190 N   0  0  0  0  0  0  0  0  0  0  0  0
  150.7467  137.1410  154.6988 C   0  0  0  0  0  0  0  0  0  0  0  0
  151.4209  138.0408  155.5382 N   0  0  0  0  0  0  0  0  0  0  0  0
  150.8437  139.1647  155.8332 C   0  0  0  0  0  0  0  0  0  0  0  0
  149.5301  139.5208  155.3181 N   0  0  0  0  0  0  0  0  0  0  0  0
  148.8912  140.8458  155.6781 C   0  0  2  0  0  0  0  0  0  0  0  0
  147.6325  140.5911  156.2207 O   0  0  0  0  0  0  0  0  0  0  0  0
  146.7204  141.5849  155.7805 C   0  0  2  0  0  0  0  0  0  0  0  0
  145.2890  141.0329  155.8748 C   0  0  0  0  0  0  0  0  0  0  0  0
  144.4230  141.7471  155.0190 O   0  0  0  0  0  0  0  0  0  0  0  0
  147.1965  141.9115  154.3599 C   0  0  1  0  0  0  0  0  0  0  0  0
  146.8274  143.2280  154.0002 O   0  0  0  0  0  0  0  0  0  0  0  0
  148.7129  141.7936  154.4689 C   0  0  2  0  0  0  0  0  0  0  0  0
  149.2703  141.3174  153.2568 O   0  0  0  0  0  0  0  0  0  0  0  0
  148.8282  138.6154  154.4857 C   0  0  0  0  0  0  0  0  0  0  0  0
  147.7016  138.8515  154.0501 O   0  0  0  0  0  0  0  0  0  0  0  0
  149.4745  137.4626  154.2073 N   0  0  0  0  0  0  0  0  0  0  0  0
  149.5039  141.2898  156.4640 H   0  0  0  0  0  0  0  0  0  0  0  0
  146.8444  142.4494  156.4364 H   0  0  0  0  0  0  0  0  0  0  0  0
  146.7978  141.1875  153.6472 H   0  0  0  0  0  0  0  0  0  0  0  0
  149.1668  142.7508  154.7302 H   0  0  0  0  0  0  0  0  0  0  0  0
  150.5227  135.5427  153.7210 H   0  0  0  0  0  0  0  0  0  0  0  0
  151.2986  139.9106  156.4867 H   0  0  0  0  0  0  0  0  0  0  0  0
  145.2604  139.9709  155.6287 H   0  0  0  0  0  0  0  0  0  0  0  0
  144.9162  141.1364  156.8942 H   0  0  0  0  0  0  0  0  0  0  0  0
  144.2371  141.2112  154.2631 H   0  0  0  0  0  0  0  0  0  0  0  0
  147.4907  143.8227  154.3146 H   0  0  0  0  0  0  0  0  0  0  0  0
  149.7176  140.5035  153.4321 H   0  0  0  0  0  0  0  0  0  0  0  0
  149.0057  136.7934  153.6141 H   0  0  0  0  0  0  0  0  0  0  0  0
  1  2  2  0  0  0  0
  1 22  1  0  0  0  0
  2 17  1  0  0  0  0
  2  3  1  0  0  0  0
  3  4  2  0  0  0  0
  4  5  1  0  0  0  0
  4 23  1  0  0  0  0
  5  6  1  0  0  0  0
  5 15  1  0  0  0  0
  6 18  1  0  0  0  0
  6 13  1  0  0  0  0
  6  7  1  0  0  0  0
  7  8  1  0  0  0  0
  8 19  1  0  0  0  0
  8  9  1  0  0  0  0
  8 11  1  0  0  0  0
  9 10  1  0  0  0  0
  9 24  1  0  0  0  0
  9 25  1  0  0  0  0
 10 26  1  0  0  0  0
 11 20  1  0  0  0  0
 11 12  1  0  0  0  0
 11 13  1  0  0  0  0
 12 27  1  0  0  0  0
 13 21  1  0  0  0  0
 13 14  1  0  0  0  0
 14 28  1  0  0  0  0
 15 16  2  0  0  0  0
 15 17  1  0  0  0  0
 17 29  1  0  0  0  0
M  END
> <s_m_source_file>
AV-unprocessed.smi

> <i_m_source_file_index>
72

> <i_lp_mmshare_version>
43012

> <i_f3d_flags>
0

> <s_epik_input>
W05IMl1jMW5bY0hdbihjKD1PKW4xKVtDQEBIXTJPW0NASF0oW0NIMl1bT0hdKVtDQEBIXShbT0hdKVtDQEhdMltPSF0=

> <s_epik_cmdline>
J2VwaWtfcHl0aG9uJywgJy1waCcsICc3LjAnLCAnLXRuJywgJzgnLCAnLW1hJywgJzIwMCcsICctbWV0YWxfYmluZGluZycsICctaW1hZScsICc8aW5maWxlLm1hZT4nLCAnLW9tYWUnLCAnPG91dGZpbGUubWFlPic=

> <r_lp_tautomer_probability>
7.17554e-07

> <r_epik_Ionization_Penalty>
0.0066451

> <r_epik_Ionization_Penalty_Charging>
0.00663793

> <r_epik_Ionization_Penalty_Neutral>
7.17052e-06

> <r_epik_State_Penalty>
0.419231

> <r_epik_Charging_Adjusted_Penalty>
0.425868

> <i_epik_Tot_Q>
0

> <i_epik_Tot_abs_Q>
0

> <r_epik_Metal_State_Penalty>
1.44144

> <b_epik_Metal_Only>
0

> <s_epik_Chemistry_Notes>
This compound contains an acetal/aminal-like group ( X-CH(R)-Y where X, Y are N, S, or O) that may be acid/base labile, releasing an aldehyde.

> <s_lp_Force_Field>
OPLS_2005

> <r_lp_Energy>
41.3964

> <b_lp_Chiralities_Consistent>
1

> <s_lp_Variant>
AV-unprocessed.smi:72-25

> <Gold.Version>
5.8.1

> <Gold.Id.Protein>
6NUR|6NUR_protein|mol2

> <Gold.PLP.Fitness>
35.8182

> <Gold.PLP.PLP>
-22.6764

> <Gold.PLP.part.hbond>
-8.7270

> <Gold.PLP.part.metal>
0.0000

> <Gold.PLP.part.buried>
-0.3714

> <Gold.PLP.part.nonpolar>
-14.0175

> <Gold.PLP.part.repulsive>
0.2243

> <Gold.PLP.ligand.clash>
0.0000

> <Gold.PLP.ligand.torsion>
0.2497

> <Gold.PLP.Chemscore.Hbond>
4.5052

> <Gold.PLP.Chemscore.CHOScore>
0.0000

> <Gold.PLP.Chemscore.Metal>
0.0000

> <Gold.Chemscore.Hbonds>
donor molecule, donor type, donor heavy atom, donor atom, acceptor molecule, acceptor atom, score
      L1  H     1    22       P1  7949  0.01
      L1  H    10    26       P1 10175  1.00
      L1  H    12    27       P1  8028  0.68
      L1  H    17    29       P1  7948  0.80
      P1  H  8011  8017       L1    14  0.99
      P1  H 10752 10763       L1     1  1.00

> <Gold.PLP.Chemscore.Internal.Correction>
0.1254

> <Gold.Rescore>
     Score         DG    S(hbond)    S(metal)    S(lipo)     H(rot)  DE(clash)    DE(int)     intcor
      6.93      -9.10       3.56        0.00      18.19       4.06       0.15       2.02       ----

> <Gold.Chemscore.Fitness>
6.9292

> <Gold.Chemscore.DG>
-9.0961

> <Gold.Chemscore.ZeroCoef>
-5.4800

> <Gold.Chemscore.Hbond>
3.5573

> <Gold.Chemscore.Metal>
0.0000

> <Gold.Chemscore.Lipo>
18.1921

> <Gold.Chemscore.Internal_Hbond>
0.0000

> <Gold.Chemscore.DEClash>
0.1470

> <Gold.Chemscore.DEInternal>
2.0200

> <Gold.Chemscore.Rot>
4.0600

> <Gold.Chemscore.Internal.Correction>
   9.000000E+99

> <Gold.Chemscore.Hbonds>
donor molecule, donor type, donor heavy atom, donor atom, acceptor molecule, acceptor atom, score
      L1  H    10    26       P1 10175  0.64
      L1  H    12    27       P1  8028  0.08
      L1  H    17    29       P1  7948  0.79
      P1  H  8011  8017       L1    14  0.81
      P1  H 10752 10763       L1     1  0.98

> <Gold.Chemscore.Hbond.Weighted>
-11.8813

> <Gold.Chemscore.Metal.Weighted>
-0.0000

> <Gold.Chemscore.Lipo.Weighted>
-2.1285

> <Gold.Chemscore.Internal_Hbond.Weighted>
0.0000

> <Gold.Chemscore.DEClash.Weighted>
0.1470

> <Gold.Chemscore.DEInternal.Weighted>
2.0200

> <Gold.Chemscore.Rot.Weighted>
10.3936

> <Gold.Chemscore.Internal.Correction.Weighted>
   9.000000E+99

> <Gold.Protein.RotatedTorsions>
[ 6907 6896 6895 6894 ] final  128.25 input  -60.11 | X-H torsion
[ 7974 7965 7964 7962 ] final -149.96 input  175.53 | X-H torsion
[ 8008 7997 7996 7995 ] final -142.12 input   59.86 | X-H torsion
[ 10167 10162 10161 10158 ] final  -12.59 input  -65.29 | X-H torsion
[ 10718 10713 10712 10709 ] final -171.99 input   66.30 | X-H torsion
[ 10763 10752 10751 10750 ] final   42.82 input  -60.55 | X-H torsion
[ 11005 11000 10999 10996 ] final  152.69 input  -57.11 | X-H torsion

> <Gold.Protein.ActiveResidues>
 VAL166  LYS551  ARG553  GLY616  TRP617  ASP618  TYR619  PRO620  LYS621  CYS622 
 ASP623  PHE694  ASN695  SER759  ASP760  ASP761  ALA762  ILE779  LEU786  VAL792 
 PHE793  MET794  SER795  GLU796  ALA797  LYS798  CYS799  TRP800  GLU811  SER814 

> <Gold.Protein.RotatedAtoms>
  152.3736  133.6452  159.6106 H   0  0  0  0  0  0  0  0  0  0  0  0  # atno 6907 bound_to 6896
  150.7687  133.9229  159.3412 H   0  0  0  0  0  0  0  0  0  0  0  0  # atno 6908 bound_to 6896
  151.7047  135.0925  160.0308 H   0  0  0  0  0  0  0  0  0  0  0  0  # atno 6909 bound_to 6896
  144.7936  140.4995  143.5755 H   0  0  0  0  0  0  0  0  0  0  0  0  # atno 7974 bound_to 7965
  155.4890  140.0566  157.2956 H   0  0  0  0  0  0  0  0  0  0  0  0  # atno 8008 bound_to 7997
  154.4630  140.2005  156.0144 H   0  0  0  0  0  0  0  0  0  0  0  0  # atno 8009 bound_to 7997
  156.0925  140.3231  155.7838 H   0  0  0  0  0  0  0  0  0  0  0  0  # atno 8010 bound_to 7997
  140.7164  143.5516  150.9295 H   0  0  0  0  0  0  0  0  0  0  0  0  # atno 10167 bound_to 10162
  156.7489  130.9370  151.3114 H   0  0  0  0  0  0  0  0  0  0  0  0  # atno 10718 bound_to 10713
  152.9874  135.6120  154.3011 H   0  0  0  0  0  0  0  0  0  0  0  0  # atno 10763 bound_to 10752
  154.2732  135.2779  155.2731 H   0  0  0  0  0  0  0  0  0  0  0  0  # atno 10764 bound_to 10752
  154.5104  135.5842  153.6657 H   0  0  0  0  0  0  0  0  0  0  0  0  # atno 10765 bound_to 10752
  140.1330  134.8789  157.2230 H   0  0  0  0  0  0  0  0  0  0  0  0  # atno 11005 bound_to 11000
  145.5731  139.1484  143.3277 LP  0  0  0  0  0  0  0  0  0  0  0  0  # atno 17320 bound_to 7965
  146.2197  140.5863  142.9023 LP  0  0  0  0  0  0  0  0  0  0  0  0  # atno 17321 bound_to 7965
  139.9240  143.6572  152.3091 LP  0  0  0  0  0  0  0  0  0  0  0  0  # atno 17342 bound_to 10162
  139.6999  144.7636  151.1291 LP  0  0  0  0  0  0  0  0  0  0  0  0  # atno 17343 bound_to 10162
  157.6786  130.9118  150.0210 LP  0  0  0  0  0  0  0  0  0  0  0  0  # atno 17370 bound_to 10713
  156.1414  130.3642  149.9576 LP  0  0  0  0  0  0  0  0  0  0  0  0  # atno 17371 bound_to 10713
  140.2817  134.3342  155.7341 LP  0  0  0  0  0  0  0  0  0  0  0  0  # atno 17394 bound_to 11000
  141.2173  133.7482  156.9374 LP  0  0  0  0  0  0  0  0  0  0  0  0  # atno 17395 bound_to 11000

$$$$
