AV-unprocessed.smi:196|AV-procd|sdf|1539|dock7
  -GOLD-   2262019393D 1   1.00000     0.00000
 Structure written by MMmdl.
 47 50  0  0  0  0  0  0  0  0  1 V2000
  147.6218  132.7843  161.9045 C   0  0  0  0  0  0  0  0  0  0  0  0
  146.8986  134.1171  162.1541 C   0  0  1  0  0  0  0  0  0  0  0  0
  147.3559  134.6305  163.4024 O   0  0  0  0  0  0  0  0  0  0  0  0
  147.3013  136.0452  163.3636 C   0  0  0  0  0  0  0  0  0  0  0  0
  147.7871  136.3520  161.9554 C   0  0  0  0  0  0  0  0  0  0  0  0
  147.1382  135.2520  161.1183 C   0  0  2  0  0  0  0  0  0  0  0  0
  145.8695  135.7234  160.6964 O   0  0  0  0  0  0  0  0  0  0  0  0
  147.9540  134.8707  159.8545 C   0  0  0  0  0  0  0  0  0  0  0  0
  148.1199  135.9728  158.9192 N   0  0  0  0  0  0  0  0  0  0  0  0
  147.2570  136.3340  157.9086 C   0  0  0  0  0  0  0  0  0  0  0  0
  147.6328  137.3593  157.1936 N   0  0  0  0  0  0  0  0  0  0  0  0
  148.8408  137.7410  157.7632 C   0  0  0  0  0  0  0  0  0  0  0  0
  149.7776  138.7717  157.4853 C   0  0  0  0  0  0  0  0  0  0  0  0
  149.5894  139.6307  156.4474 N   0  0  0  0  0  0  0  0  0  0  0  0
  149.8721  138.9849  155.1703 C   0  0  0  0  0  0  0  0  0  0  0  0
  151.2965  139.4094  154.7782 C   0  0  2  0  0  0  0  0  0  0  0  0
  152.1616  138.4153  154.9824 F   0  0  0  0  0  0  0  0  0  0  0  0
  151.6278  140.5963  155.6929 C   0  0  0  0  0  0  0  0  0  0  0  0
  150.2863  140.9230  156.3712 C   0  0  2  0  0  0  0  0  0  0  0  0
  150.3749  141.7636  157.6628 C   0  0  0  0  0  0  0  0  0  0  0  0
  149.7879  142.9628  157.6472 N   0  0  0  0  0  0  0  0  0  0  0  0
  150.9209  141.3274  158.6749 O   0  0  0  0  0  0  0  0  0  0  0  0
  150.8893  138.8376  158.2664 N   0  0  0  0  0  0  0  0  0  0  0  0
  151.0606  137.9684  159.2667 C   0  0  0  0  0  0  0  0  0  0  0  0
  150.2669  136.9646  159.6456 N   0  0  0  0  0  0  0  0  0  0  0  0
  149.1596  136.8842  158.8535 C   0  0  0  0  0  0  0  0  0  0  0  0
  151.3534  139.6742  153.7220 H   0  0  0  0  0  0  0  0  0  0  0  0
  149.7007  141.5304  155.6783 H   0  0  0  0  0  0  0  0  0  0  0  0
  147.3091  132.3308  160.9639 H   0  0  0  0  0  0  0  0  0  0  0  0
  147.3967  132.0724  162.6988 H   0  0  0  0  0  0  0  0  0  0  0  0
  148.7040  132.9131  161.8802 H   0  0  0  0  0  0  0  0  0  0  0  0
  145.8306  133.9137  162.2540 H   0  0  0  0  0  0  0  0  0  0  0  0
  146.2737  136.3813  163.5096 H   0  0  0  0  0  0  0  0  0  0  0  0
  147.9274  136.4947  164.1346 H   0  0  0  0  0  0  0  0  0  0  0  0
  147.5408  137.3626  161.6261 H   0  0  0  0  0  0  0  0  0  0  0  0
  148.8729  136.2507  161.9315 H   0  0  0  0  0  0  0  0  0  0  0  0
  145.5224  136.2927  161.3660 H   0  0  0  0  0  0  0  0  0  0  0  0
  148.9502  134.5266  160.1329 H   0  0  0  0  0  0  0  0  0  0  0  0
  147.4770  134.0436  159.3271 H   0  0  0  0  0  0  0  0  0  0  0  0
  146.3357  135.8053  157.7122 H   0  0  0  0  0  0  0  0  0  0  0  0
  149.7625  137.8983  155.1918 H   0  0  0  0  0  0  0  0  0  0  0  0
  149.1534  139.3575  154.4390 H   0  0  0  0  0  0  0  0  0  0  0  0
  152.3833  140.3154  156.4283 H   0  0  0  0  0  0  0  0  0  0  0  0
  152.0180  141.4447  155.1299 H   0  0  0  0  0  0  0  0  0  0  0  0
  149.8148  143.5484  158.4690 H   0  0  0  0  0  0  0  0  0  0  0  0
  149.3150  143.2772  156.8122 H   0  0  0  0  0  0  0  0  0  0  0  0
  151.9643  138.0934  159.8446 H   0  0  0  0  0  0  0  0  0  0  0  0
  1  2  1  0  0  0  0
  1 29  1  0  0  0  0
  1 30  1  0  0  0  0
  1 31  1  0  0  0  0
  2  6  1  0  0  0  0
  2  3  1  0  0  0  0
  2 32  1  0  0  0  0
  3  4  1  0  0  0  0
  4  5  1  0  0  0  0
  4 33  1  0  0  0  0
  4 34  1  0  0  0  0
  5  6  1  0  0  0  0
  5 35  1  0  0  0  0
  5 36  1  0  0  0  0
  6  7  1  0  0  0  0
  6  8  1  0  0  0  0
  7 37  1  0  0  0  0
  8  9  1  0  0  0  0
  8 38  1  0  0  0  0
  8 39  1  0  0  0  0
  9 26  1  0  0  0  0
  9 10  1  0  0  0  0
 10 11  2  0  0  0  0
 10 40  1  0  0  0  0
 11 12  1  0  0  0  0
 12 26  2  0  0  0  0
 12 13  1  0  0  0  0
 13 14  1  0  0  0  0
 13 23  2  0  0  0  0
 14 19  1  0  0  0  0
 14 15  1  0  0  0  0
 15 16  1  0  0  0  0
 15 41  1  0  0  0  0
 15 42  1  0  0  0  0
 16 27  1  0  0  0  0
 16 17  1  0  0  0  0
 16 18  1  0  0  0  0
 18 19  1  0  0  0  0
 18 43  1  0  0  0  0
 18 44  1  0  0  0  0
 19 28  1  0  0  0  0
 19 20  1  0  0  0  0
 20 21  1  0  0  0  0
 20 22  2  0  0  0  0
 21 45  1  0  0  0  0
 21 46  1  0  0  0  0
 23 24  1  0  0  0  0
 24 25  2  0  0  0  0
 24 47  1  0  0  0  0
 25 26  1  0  0  0  0
M  END
> <s_m_source_file>
AV-unprocessed.smi

> <i_m_source_file_index>
196

> <i_lp_mmshare_version>
43012

> <i_f3d_flags>
0

> <s_epik_input>
W0NIMl0xW0NIMl1PW0NAQEhdKFtDSDNdKVtDQEBdMShbT0hdKVtDSDJdbihbY0hdbjIpYyhjMjMpbltjSF1uYzNONFtDSDJdW0NASF0oRilbQ0gyXVtDQEhdNEMoPU8pW05IMl0=

> <s_epik_cmdline>
J2VwaWtfcHl0aG9uJywgJy1waCcsICc3LjAnLCAnLXRuJywgJzgnLCAnLW1hJywgJzIwMCcsICctbWV0YWxfYmluZGluZycsICctaW1hZScsICc8aW5maWxlLm1hZT4nLCAnLW9tYWUnLCAnPG91dGZpbGUubWFlPic=

> <r_lp_tautomer_probability>
1

> <r_epik_Ionization_Penalty>
0.000857933

> <r_epik_Ionization_Penalty_Charging>
0

> <r_epik_Ionization_Penalty_Neutral>
0.000857933

> <r_epik_State_Penalty>
0.000462053

> <r_epik_Charging_Adjusted_Penalty>
0.000462053

> <i_epik_Tot_Q>
0

> <i_epik_Tot_abs_Q>
0

> <r_epik_Metal_State_Penalty>
-0

> <b_epik_Metal_Only>
0

> <s_lp_Force_Field>
OPLS_2005

> <r_lp_Energy>
50.8061

> <b_lp_Chiralities_Consistent>
1

> <s_lp_Variant>
AV-unprocessed.smi:196-12

> <Gold.Version>
5.8.1

> <Gold.Id.Protein>
6NUR|6NUR_protein|mol2

> <Gold.PLP.Fitness>
44.5567

> <Gold.PLP.PLP>
-40.2756

> <Gold.PLP.part.hbond>
-3.7088

> <Gold.PLP.part.metal>
0.0000

> <Gold.PLP.part.buried>
-3.4202

> <Gold.PLP.part.nonpolar>
-32.7419

> <Gold.PLP.part.repulsive>
0.0609

> <Gold.PLP.ligand.clash>
0.0000

> <Gold.PLP.ligand.torsion>
0.8774

> <Gold.PLP.Chemscore.Hbond>
1.9913

> <Gold.PLP.Chemscore.CHOScore>
0.0000

> <Gold.PLP.Chemscore.Metal>
0.0000

> <Gold.Chemscore.Hbonds>
donor molecule, donor type, donor heavy atom, donor atom, acceptor molecule, acceptor atom, score
      L1  H    21    46       P1  8028  0.94
      P1  H  6896  6909       L1    25  0.70

> <Gold.PLP.Chemscore.Internal.Correction>
0.0621

> <Gold.Rescore>
     Score         DG    S(hbond)    S(metal)    S(lipo)     H(rot)  DE(clash)    DE(int)     intcor
      7.42     -12.07       1.76        0.00      72.75       3.04       1.12       3.53       ----

> <Gold.Chemscore.Fitness>
7.4215

> <Gold.Chemscore.DG>
-12.0703

> <Gold.Chemscore.ZeroCoef>
-5.4800

> <Gold.Chemscore.Hbond>
1.7557

> <Gold.Chemscore.Metal>
0.0000

> <Gold.Chemscore.Lipo>
72.7527

> <Gold.Chemscore.Internal_Hbond>
0.0000

> <Gold.Chemscore.DEClash>
1.1203

> <Gold.Chemscore.DEInternal>
3.5285

> <Gold.Chemscore.Rot>
3.0413

> <Gold.Chemscore.Internal.Correction>
   9.000000E+99

> <Gold.Chemscore.Hbonds>
donor molecule, donor type, donor heavy atom, donor atom, acceptor molecule, acceptor atom, score
      L1  H    21    46       P1  8028  0.89
      P1  H  6896  6909       L1    25  0.20

> <Gold.Chemscore.Hbond.Weighted>
-5.8639

> <Gold.Chemscore.Metal.Weighted>
-0.0000

> <Gold.Chemscore.Lipo.Weighted>
-8.5121

> <Gold.Chemscore.Internal_Hbond.Weighted>
0.0000

> <Gold.Chemscore.DEClash.Weighted>
1.1203

> <Gold.Chemscore.DEInternal.Weighted>
3.5285

> <Gold.Chemscore.Rot.Weighted>
7.7856

> <Gold.Chemscore.Internal.Correction.Weighted>
   9.000000E+99

> <Gold.Protein.RotatedTorsions>
[ 6907 6896 6895 6894 ] final   71.64 input  -60.11 | X-H torsion
[ 7974 7965 7964 7962 ] final    9.96 input  175.53 | X-H torsion
[ 8008 7997 7996 7995 ] final  -28.26 input   59.86 | X-H torsion
[ 10167 10162 10161 10158 ] final -164.38 input  -65.29 | X-H torsion
[ 10718 10713 10712 10709 ] final -148.56 input   66.30 | X-H torsion
[ 10763 10752 10751 10750 ] final  100.41 input  -60.55 | X-H torsion
[ 11005 11000 10999 10996 ] final -176.33 input  -57.11 | X-H torsion

> <Gold.Protein.ActiveResidues>
 VAL166  LYS551  ARG553  GLY616  TRP617  ASP618  TYR619  PRO620  LYS621  CYS622 
 ASP623  PHE694  ASN695  SER759  ASP760  ASP761  ALA762  ILE779  LEU786  VAL792 
 PHE793  MET794  SER795  GLU796  ALA797  LYS798  CYS799  TRP800  GLU811  SER814 

> <Gold.Protein.RotatedAtoms>
  152.4822  134.4690  159.9629 H   0  0  0  0  0  0  0  0  0  0  0  0  # atno 6907 bound_to 6896
  151.4694  133.3567  159.2829 H   0  0  0  0  0  0  0  0  0  0  0  0  # atno 6908 bound_to 6896
  150.8903  134.8331  159.7349 H   0  0  0  0  0  0  0  0  0  0  0  0  # atno 6909 bound_to 6896
  146.2396  139.9706  142.8447 H   0  0  0  0  0  0  0  0  0  0  0  0  # atno 7974 bound_to 7965
  154.4340  140.1850  156.1062 H   0  0  0  0  0  0  0  0  0  0  0  0  # atno 8008 bound_to 7997
  156.0254  140.3336  155.7057 H   0  0  0  0  0  0  0  0  0  0  0  0  # atno 8009 bound_to 7997
  155.5917  140.0631  157.2747 H   0  0  0  0  0  0  0  0  0  0  0  0  # atno 8010 bound_to 7997
  139.6255  144.0541  152.1970 H   0  0  0  0  0  0  0  0  0  0  0  0  # atno 10167 bound_to 10162
  156.4218  130.8032  151.2256 H   0  0  0  0  0  0  0  0  0  0  0  0  # atno 10718 bound_to 10713
  153.3136  135.4080  155.1357 H   0  0  0  0  0  0  0  0  0  0  0  0  # atno 10763 bound_to 10752
  154.8582  135.3570  154.5690 H   0  0  0  0  0  0  0  0  0  0  0  0  # atno 10764 bound_to 10752
  153.6120  135.7067  153.5402 H   0  0  0  0  0  0  0  0  0  0  0  0  # atno 10765 bound_to 10752
  140.4533  134.6323  157.4811 H   0  0  0  0  0  0  0  0  0  0  0  0  # atno 11005 bound_to 11000
  145.1685  140.9709  143.4336 LP  0  0  0  0  0  0  0  0  0  0  0  0  # atno 17320 bound_to 7965
  145.0051  139.3562  143.6148 LP  0  0  0  0  0  0  0  0  0  0  0  0  # atno 17321 bound_to 7965
  140.0194  144.6164  150.7580 LP  0  0  0  0  0  0  0  0  0  0  0  0  # atno 17342 bound_to 10162
  140.7408  143.2809  151.3601 LP  0  0  0  0  0  0  0  0  0  0  0  0  # atno 17343 bound_to 10162
  157.7508  131.0226  150.3797 LP  0  0  0  0  0  0  0  0  0  0  0  0  # atno 17370 bound_to 10713
  156.4116  130.3935  149.6887 LP  0  0  0  0  0  0  0  0  0  0  0  0  # atno 17371 bound_to 10713
  139.9992  134.6863  155.9558 LP  0  0  0  0  0  0  0  0  0  0  0  0  # atno 17394 bound_to 11000
  141.1654  133.6537  156.4462 LP  0  0  0  0  0  0  0  0  0  0  0  0  # atno 17395 bound_to 11000

$$$$
