AV-unprocessed.smi:1873|AV-procd|sdf|7608|dock2
  -GOLD-   22720 9323D 1   1.00000     0.00000
 Structure written by MMmdl.
 36 38  0  0  0  0  0  0  0  0  1 V2000
  150.2338  140.1038  154.1815 O   0  0  0  0  0  0  0  0  0  0  0  0
  150.0260  140.6121  155.4854 C   0  0  1  0  0  0  0  0  0  0  0  0
  151.1856  141.5520  155.8706 C   0  0  0  0  0  0  0  0  0  0  0  0
  151.3229  141.7068  157.3076 N   0  0  0  0  0  0  0  0  0  0  0  0
  151.2294  140.7418  158.2426 C   0  0  0  0  0  0  0  0  0  0  0  0
  151.3879  141.1058  159.5120 N   0  0  0  0  0  0  0  0  0  0  0  0
  151.6113  142.4663  159.3864 C   0  0  0  0  0  0  0  0  0  0  0  0
  151.8535  143.4511  160.3708 C   0  0  0  0  0  0  0  0  0  0  0  0
  152.0563  144.7969  160.0002 C   0  0  0  0  0  0  0  0  0  0  0  0
  152.0209  145.1783  158.6431 C   0  0  0  0  0  0  0  0  0  0  0  0
  151.7810  144.2151  157.6442 C   0  0  0  0  0  0  0  0  0  0  0  0
  151.5786  142.8737  158.0185 C   0  0  0  0  0  0  0  0  0  0  0  0
  148.6807  141.3083  155.6188 C   0  0  0  0  0  0  0  0  0  0  0  0
  148.2305  141.7444  156.8822 C   0  0  0  0  0  0  0  0  0  0  0  0
  146.9883  142.3960  157.0067 C   0  0  0  0  0  0  0  0  0  0  0  0
  146.1762  142.6178  155.8761 C   0  0  0  0  0  0  0  0  0  0  0  0
  144.9796  143.2729  156.0622 O   0  0  0  0  0  0  0  0  0  0  0  0
  144.1314  143.4273  155.0105 C   0  0  0  0  0  0  0  0  0  0  0  0
  142.9257  143.8575  155.4542 F   0  0  0  0  0  0  0  0  0  0  0  0
  144.6073  144.3611  154.1506 F   0  0  0  0  0  0  0  0  0  0  0  0
  146.6364  142.1922  154.6070 C   0  0  0  0  0  0  0  0  0  0  0  0
  147.8777  141.5393  154.4817 C   0  0  0  0  0  0  0  0  0  0  0  0
  149.3974  139.8499  153.8224 H   0  0  0  0  0  0  0  0  0  0  0  0
  150.0344  139.7534  156.1584 H   0  0  0  0  0  0  0  0  0  0  0  0
  152.1299  141.1818  155.4683 H   0  0  0  0  0  0  0  0  0  0  0  0
  151.0282  142.5406  155.4372 H   0  0  0  0  0  0  0  0  0  0  0  0
  151.0303  139.7139  157.9762 H   0  0  0  0  0  0  0  0  0  0  0  0
  151.8831  143.1707  161.4133 H   0  0  0  0  0  0  0  0  0  0  0  0
  152.2404  145.5408  160.7614 H   0  0  0  0  0  0  0  0  0  0  0  0
  152.1783  146.2113  158.3694 H   0  0  0  0  0  0  0  0  0  0  0  0
  151.7524  144.5032  156.6039 H   0  0  0  0  0  0  0  0  0  0  0  0
  148.8364  141.5833  157.7618 H   0  0  0  0  0  0  0  0  0  0  0  0
  146.6550  142.7269  157.9796 H   0  0  0  0  0  0  0  0  0  0  0  0
  143.9735  142.4893  154.4777 H   0  0  0  0  0  0  0  0  0  0  0  0
  146.0501  142.3660  153.7171 H   0  0  0  0  0  0  0  0  0  0  0  0
  148.2154  141.2208  153.5063 H   0  0  0  0  0  0  0  0  0  0  0  0
  1  2  1  0  0  0  0
  1 23  1  0  0  0  0
  2  3  1  0  0  0  0
  2 13  1  0  0  0  0
  2 24  1  0  0  0  0
  3  4  1  0  0  0  0
  3 25  1  0  0  0  0
  3 26  1  0  0  0  0
  4 12  1  0  0  0  0
  4  5  1  0  0  0  0
  5  6  2  0  0  0  0
  5 27  1  0  0  0  0
  6  7  1  0  0  0  0
  7 12  2  0  0  0  0
  7  8  1  0  0  0  0
  8  9  2  0  0  0  0
  8 28  1  0  0  0  0
  9 10  1  0  0  0  0
  9 29  1  0  0  0  0
 10 11  2  0  0  0  0
 10 30  1  0  0  0  0
 11 12  1  0  0  0  0
 11 31  1  0  0  0  0
 13 22  1  0  0  0  0
 13 14  2  0  0  0  0
 14 15  1  0  0  0  0
 14 32  1  0  0  0  0
 15 16  2  0  0  0  0
 15 33  1  0  0  0  0
 16 17  1  0  0  0  0
 16 21  1  0  0  0  0
 17 18  1  0  0  0  0
 18 19  1  0  0  0  0
 18 20  1  0  0  0  0
 18 34  1  0  0  0  0
 21 22  2  0  0  0  0
 21 35  1  0  0  0  0
 22 36  1  0  0  0  0
M  END
> <s_m_source_file>
AV-unprocessed.smi

> <i_m_source_file_index>
1873

> <i_lp_mmshare_version>
43012

> <i_f3d_flags>
0

> <s_epik_input>
RltDSF0oRilPYyhbY0hdW2NIXTEpW2NIXVtjSF1jMVtDQEhdKFtPSF0pW0NIMl1uKFtjSF1uMiljKGMyMylbY0hdW2NIXVtjSF1bY0hdMw==

> <s_epik_cmdline>
J2VwaWtfcHl0aG9uJywgJy1waCcsICc3LjAnLCAnLXRuJywgJzgnLCAnLW1hJywgJzIwMCcsICctbWV0YWxfYmluZGluZycsICctaW1hZScsICc8aW5maWxlLm1hZT4nLCAnLW9tYWUnLCAnPG91dGZpbGUubWFlPic=

> <r_lp_tautomer_probability>
1

> <r_epik_Ionization_Penalty>
0.0696507

> <r_epik_Ionization_Penalty_Charging>
0

> <r_epik_Ionization_Penalty_Neutral>
0.0696507

> <r_epik_State_Penalty>
0.0610247

> <r_epik_Charging_Adjusted_Penalty>
0.0610247

> <i_epik_Tot_Q>
0

> <i_epik_Tot_abs_Q>
0

> <r_epik_Metal_State_Penalty>
6.42746e-05

> <b_epik_Metal_Only>
0

> <s_lp_Force_Field>
OPLS_2005

> <r_lp_Energy>
11.6076

> <b_lp_Chiralities_Consistent>
1

> <s_lp_Variant>
AV-unprocessed.smi:1873-2

> <Gold.Version>
5.8.1

> <Gold.Id.Protein>
6NUR|6NUR_protein|mol2

> <Gold.PLP.Fitness>
47.3973

> <Gold.PLP.PLP>
-45.5115

> <Gold.PLP.part.hbond>
-2.1578

> <Gold.PLP.part.metal>
0.0000

> <Gold.PLP.part.buried>
-7.1598

> <Gold.PLP.part.nonpolar>
-36.5477

> <Gold.PLP.part.repulsive>
0.1188

> <Gold.PLP.ligand.clash>
0.0000

> <Gold.PLP.ligand.torsion>
0.6063

> <Gold.PLP.Chemscore.Hbond>
1.0000

> <Gold.PLP.Chemscore.CHOScore>
0.0000

> <Gold.PLP.Chemscore.Metal>
0.0000

> <Gold.Chemscore.Hbonds>
donor molecule, donor type, donor heavy atom, donor atom, acceptor molecule, acceptor atom, score
      P1  H  7989  7998       L1     1  1.00

> <Gold.PLP.Chemscore.Internal.Correction>
0.0983

> <Gold.Rescore>
     Score         DG    S(hbond)    S(metal)    S(lipo)     H(rot)  DE(clash)    DE(int)     intcor
     14.86     -15.62       0.96        0.00     111.83       2.40       0.11       0.66       ----

> <Gold.Chemscore.Fitness>
14.8570

> <Gold.Chemscore.DG>
-15.6249

> <Gold.Chemscore.ZeroCoef>
-5.4800

> <Gold.Chemscore.Hbond>
0.9585

> <Gold.Chemscore.Metal>
0.0000

> <Gold.Chemscore.Lipo>
111.8299

> <Gold.Chemscore.Internal_Hbond>
0.0000

> <Gold.Chemscore.DEClash>
0.1102

> <Gold.Chemscore.DEInternal>
0.6577

> <Gold.Chemscore.Rot>
2.3986

> <Gold.Chemscore.Internal.Correction>
   9.000000E+99

> <Gold.Chemscore.Hbonds>
donor molecule, donor type, donor heavy atom, donor atom, acceptor molecule, acceptor atom, score
      P1  H  7989  7998       L1     1  0.71

> <Gold.Chemscore.Hbond.Weighted>
-3.2013

> <Gold.Chemscore.Metal.Weighted>
-0.0000

> <Gold.Chemscore.Lipo.Weighted>
-13.0841

> <Gold.Chemscore.Internal_Hbond.Weighted>
0.0000

> <Gold.Chemscore.DEClash.Weighted>
0.1102

> <Gold.Chemscore.DEInternal.Weighted>
0.6577

> <Gold.Chemscore.Rot.Weighted>
6.1405

> <Gold.Chemscore.Internal.Correction.Weighted>
   9.000000E+99

> <Gold.Protein.RotatedTorsions>
[ 6907 6896 6895 6894 ] final  104.16 input  -60.11 | X-H torsion
[ 7974 7965 7964 7962 ] final  158.86 input  175.53 | X-H torsion
[ 8008 7997 7996 7995 ] final  -73.92 input   59.86 | X-H torsion
[ 10167 10162 10161 10158 ] final   55.48 input  -65.29 | X-H torsion
[ 10718 10713 10712 10709 ] final  -96.90 input   66.30 | X-H torsion
[ 10763 10752 10751 10750 ] final  156.18 input  -60.55 | X-H torsion
[ 11005 11000 10999 10996 ] final -124.49 input  -57.11 | X-H torsion

> <Gold.Protein.ActiveResidues>
 VAL166  LYS551  ARG553  GLY616  TRP617  ASP618  TYR619  PRO620  LYS621  CYS622 
 ASP623  PHE694  ASN695  SER759  ASP760  ASP761  ALA762  ILE779  LEU786  VAL792 
 PHE793  MET794  SER795  GLU796  ALA797  LYS798  CYS799  TRP800  GLU811  SER814 

> <Gold.Protein.RotatedAtoms>
  152.5273  133.9718  159.7765 H   0  0  0  0  0  0  0  0  0  0  0  0  # atno 6907 bound_to 6896
  150.9988  133.6068  159.2705 H   0  0  0  0  0  0  0  0  0  0  0  0  # atno 6908 bound_to 6896
  151.3185  135.0819  159.9350 H   0  0  0  0  0  0  0  0  0  0  0  0  # atno 6909 bound_to 6896
  144.7822  139.7537  143.6255 H   0  0  0  0  0  0  0  0  0  0  0  0  # atno 7974 bound_to 7965
  154.5288  140.0770  156.8307 H   0  0  0  0  0  0  0  0  0  0  0  0  # atno 8008 bound_to 7997
  155.3419  140.3408  155.4221 H   0  0  0  0  0  0  0  0  0  0  0  0  # atno 8009 bound_to 7997
  156.1759  140.1635  156.8350 H   0  0  0  0  0  0  0  0  0  0  0  0  # atno 8010 bound_to 7997
  140.2190  144.3809  150.6458 H   0  0  0  0  0  0  0  0  0  0  0  0  # atno 10167 bound_to 10162
  156.0072  130.5171  150.6294 H   0  0  0  0  0  0  0  0  0  0  0  0  # atno 10718 bound_to 10713
  154.1803  135.2800  155.3054 H   0  0  0  0  0  0  0  0  0  0  0  0  # atno 10763 bound_to 10752
  154.6008  135.5530  153.7375 H   0  0  0  0  0  0  0  0  0  0  0  0  # atno 10764 bound_to 10752
  153.0140  135.6391  154.1942 H   0  0  0  0  0  0  0  0  0  0  0  0  # atno 10765 bound_to 10752
  140.9837  134.0637  157.3736 H   0  0  0  0  0  0  0  0  0  0  0  0  # atno 11005 bound_to 11000
  146.2036  139.5346  142.9727 LP  0  0  0  0  0  0  0  0  0  0  0  0  # atno 17320 bound_to 7965
  145.6019  141.0354  143.2014 LP  0  0  0  0  0  0  0  0  0  0  0  0  # atno 17321 bound_to 7965
  140.6269  143.2182  151.6578 LP  0  0  0  0  0  0  0  0  0  0  0  0  # atno 17342 bound_to 10162
  139.5151  144.3388  152.0759 LP  0  0  0  0  0  0  0  0  0  0  0  0  # atno 17343 bound_to 10162
  157.4095  131.0821  151.1234 LP  0  0  0  0  0  0  0  0  0  0  0  0  # atno 17370 bound_to 10713
  157.1870  130.6335  149.5691 LP  0  0  0  0  0  0  0  0  0  0  0  0  # atno 17371 bound_to 10713
  139.8961  135.0144  156.7035 LP  0  0  0  0  0  0  0  0  0  0  0  0  # atno 17394 bound_to 11000
  140.7148  133.9192  155.8108 LP  0  0  0  0  0  0  0  0  0  0  0  0  # atno 17395 bound_to 11000

$$$$
