AV-unprocessed.smi:1439|AV-procd|sdf|5872|dock2
  -GOLD-   22720 5543D 1   1.00000     0.00000
 Structure written by MMmdl.
 35 36  0  0  0  0  0  0  0  0  2 V2000
  145.4806  139.0904  154.1314 N   0  0  0  0  0  0  0  0  0  0  0  0
  146.7382  138.9110  153.7153 C   0  0  0  0  0  0  0  0  0  0  0  0
  147.1512  139.3984  152.6650 O   0  0  0  0  0  0  0  0  0  0  0  0
  147.6793  138.0931  154.6086 C   0  0  0  0  0  0  0  0  0  0  0  0
  148.8144  138.9270  155.1345 C   0  0  0  0  0  0  0  0  0  0  0  0
  149.5877  139.8058  154.4203 C   0  0  0  0  0  0  0  0  0  0  0  0
  150.7873  140.5703  155.4224 S   0  0  0  0  0  0  0  0  0  0  0  0
  150.1942  139.6567  156.8103 C   0  0  0  0  0  0  0  0  0  0  0  0
  150.6937  139.7388  158.0531 N   0  5  0  0  0  0  0  0  0  0  0  0
  152.0341  139.8230  158.2294 C   0  0  0  0  0  0  0  0  0  0  0  0
  152.9315  139.6558  157.4014 O   0  0  0  0  0  0  0  0  0  0  0  0
  152.4030  140.1760  159.6763 C   0  0  0  0  0  0  0  0  0  0  0  0
  153.0914  141.5485  159.7831 C   0  0  0  0  0  0  0  0  0  0  0  0
  152.1305  142.7161  159.5155 C   0  0  1  0  0  0  0  0  0  0  0  0
  152.7308  144.0890  159.8089 C   0  0  0  0  0  0  0  0  0  0  0  0
  151.8516  144.9867  158.9685 C   0  0  0  0  0  0  0  0  0  0  0  0
  151.6182  144.1313  157.7249 C   0  0  0  0  0  0  0  0  0  0  0  0
  151.7667  142.7748  158.1391 O   0  0  0  0  0  0  0  0  0  0  0  0
  149.1831  138.8455  156.4808 N   0  0  0  0  0  0  0  0  0  0  0  0
  144.8284  139.5988  153.5525 H   0  0  0  0  0  0  0  0  0  0  0  0
  145.1801  138.6915  155.0092 H   0  0  0  0  0  0  0  0  0  0  0  0
  147.1090  137.6672  155.4351 H   0  0  0  0  0  0  0  0  0  0  0  0
  148.0580  137.2493  154.0312 H   0  0  0  0  0  0  0  0  0  0  0  0
  149.5230  140.0521  153.3712 H   0  0  0  0  0  0  0  0  0  0  0  0
  151.4876  140.1734  160.2691 H   0  0  0  0  0  0  0  0  0  0  0  0
  153.0517  139.4133  160.1118 H   0  0  0  0  0  0  0  0  0  0  0  0
  153.5136  141.6608  160.7829 H   0  0  0  0  0  0  0  0  0  0  0  0
  153.9295  141.6022  159.0868 H   0  0  0  0  0  0  0  0  0  0  0  0
  151.2180  142.5953  160.1018 H   0  0  0  0  0  0  0  0  0  0  0  0
  152.7146  144.3435  160.8690 H   0  0  0  0  0  0  0  0  0  0  0  0
  153.7625  144.1424  159.4582 H   0  0  0  0  0  0  0  0  0  0  0  0
  150.9064  145.1682  159.4820 H   0  0  0  0  0  0  0  0  0  0  0  0
  152.3098  145.9503  158.7442 H   0  0  0  0  0  0  0  0  0  0  0  0
  150.6357  144.3059  157.2857 H   0  0  0  0  0  0  0  0  0  0  0  0
  152.3712  144.3444  156.9654 H   0  0  0  0  0  0  0  0  0  0  0  0
  1  2  1  0  0  0  0
  1 20  1  0  0  0  0
  1 21  1  0  0  0  0
  2  3  2  0  0  0  0
  2  4  1  0  0  0  0
  4  5  1  0  0  0  0
  4 22  1  0  0  0  0
  4 23  1  0  0  0  0
  5 19  1  0  0  0  0
  5  6  2  0  0  0  0
  6  7  1  0  0  0  0
  6 24  1  0  0  0  0
  7  8  1  0  0  0  0
  8  9  1  0  0  0  0
  8 19  2  0  0  0  0
  9 10  1  0  0  0  0
 10 11  2  0  0  0  0
 10 12  1  0  0  0  0
 12 13  1  0  0  0  0
 12 25  1  0  0  0  0
 12 26  1  0  0  0  0
 13 14  1  0  0  0  0
 13 27  1  0  0  0  0
 13 28  1  0  0  0  0
 14 18  1  0  0  0  0
 14 15  1  0  0  0  0
 14 29  1  0  0  0  0
 15 16  1  0  0  0  0
 15 30  1  0  0  0  0
 15 31  1  0  0  0  0
 16 17  1  0  0  0  0
 16 32  1  0  0  0  0
 16 33  1  0  0  0  0
 17 18  1  0  0  0  0
 17 34  1  0  0  0  0
 17 35  1  0  0  0  0
M  CHG  1   9  -1
M  END
> <s_m_source_file>
AV-unprocessed.smi

> <i_m_source_file_index>
1439

> <i_lp_mmshare_version>
43012

> <i_f3d_flags>
0

> <s_epik_input>
W05IMl1DKD1PKVtDSDJdYzFbY0hdc2MobjEpW05IXUMoPU8pW0NIMl1bQ0gyXVtDQEBIXTJbQ0gyXVtDSDJdW0NIMl1PMg==

> <s_epik_cmdline>
J2VwaWtfcHl0aG9uJywgJy1waCcsICc3LjAnLCAnLXRuJywgJzgnLCAnLW1hJywgJzIwMCcsICctbWV0YWxfYmluZGluZycsICctaW1hZScsICc8aW5maWxlLm1hZT4nLCAnLW9tYWUnLCAnPG91dGZpbGUubWFlPic=

> <r_lp_tautomer_probability>
1

> <r_epik_Ionization_Penalty>
4.85214

> <r_epik_Ionization_Penalty_Charging>
4.5239

> <r_epik_Ionization_Penalty_Neutral>
0.32824

> <r_epik_State_Penalty>
4.52362

> <r_epik_Charging_Adjusted_Penalty>
9.04752

> <i_epik_Tot_Q>
-1

> <i_epik_Tot_abs_Q>
1

> <r_epik_Metal_State_Penalty>
0.831335

> <b_epik_Metal_Only>
1

> <s_lp_Force_Field>
OPLS_2005

> <r_lp_Energy>
13.9468

> <b_lp_Chiralities_Consistent>
1

> <s_lp_Variant>
AV-unprocessed.smi:1439-4

> <Gold.Version>
5.8.1

> <Gold.Id.Protein>
6NUR|6NUR_protein|mol2

> <Gold.PLP.Fitness>
40.1957

> <Gold.PLP.PLP>
-32.2967

> <Gold.PLP.part.hbond>
-2.0000

> <Gold.PLP.part.metal>
0.0000

> <Gold.PLP.part.buried>
-3.4688

> <Gold.PLP.part.nonpolar>
-28.0039

> <Gold.PLP.part.repulsive>
1.2365

> <Gold.PLP.ligand.clash>
0.0000

> <Gold.PLP.ligand.torsion>
0.6418

> <Gold.PLP.Chemscore.Hbond>
2.0000

> <Gold.PLP.Chemscore.CHOScore>
1.0000

> <Gold.PLP.Chemscore.Metal>
0.0000

> <Gold.Chemscore.Hbonds>
donor molecule, donor type, donor heavy atom, donor atom, acceptor molecule, acceptor atom, score
      L1  H     1    20       P1 10175  1.00
      P1  H  7997  8009       L1    11  1.00
      L1  C     6    24       P1  7957  1.00

> <Gold.PLP.Chemscore.Internal.Correction>
0.1825

> <Gold.Rescore>
     Score         DG    S(hbond)    S(metal)    S(lipo)     H(rot)  DE(clash)    DE(int)     intcor
     14.58     -15.72       1.99        0.00      85.51       2.51       0.31       0.83       ----

> <Gold.Chemscore.Fitness>
14.5819

> <Gold.Chemscore.DG>
-15.7212

> <Gold.Chemscore.ZeroCoef>
-5.4800

> <Gold.Chemscore.Hbond>
1.9949

> <Gold.Chemscore.Metal>
0.0000

> <Gold.Chemscore.Lipo>
85.5108

> <Gold.Chemscore.Internal_Hbond>
0.0000

> <Gold.Chemscore.DEClash>
0.3056

> <Gold.Chemscore.DEInternal>
0.8337

> <Gold.Chemscore.Rot>
2.5103

> <Gold.Chemscore.Internal.Correction>
   9.000000E+99

> <Gold.Chemscore.Hbonds>
donor molecule, donor type, donor heavy atom, donor atom, acceptor molecule, acceptor atom, score
      L1  H     1    20       P1 10175  1.00
      P1  H  7997  8009       L1    11  1.00

> <Gold.Chemscore.Hbond.Weighted>
-6.6628

> <Gold.Chemscore.Metal.Weighted>
-0.0000

> <Gold.Chemscore.Lipo.Weighted>
-10.0048

> <Gold.Chemscore.Internal_Hbond.Weighted>
0.0000

> <Gold.Chemscore.DEClash.Weighted>
0.3056

> <Gold.Chemscore.DEInternal.Weighted>
0.8337

> <Gold.Chemscore.Rot.Weighted>
6.4264

> <Gold.Chemscore.Internal.Correction.Weighted>
   9.000000E+99

> <Gold.Protein.RotatedTorsions>
[ 6907 6896 6895 6894 ] final  -41.22 input  -60.11 | X-H torsion
[ 7974 7965 7964 7962 ] final -141.09 input  175.53 | X-H torsion
[ 8008 7997 7996 7995 ] final  169.28 input   59.86 | X-H torsion
[ 10167 10162 10161 10158 ] final  126.51 input  -65.29 | X-H torsion
[ 10718 10713 10712 10709 ] final  -64.48 input   66.30 | X-H torsion
[ 10763 10752 10751 10750 ] final  -95.16 input  -60.55 | X-H torsion
[ 11005 11000 10999 10996 ] final  126.41 input  -57.11 | X-H torsion

> <Gold.Protein.ActiveResidues>
 VAL166  LYS551  ARG553  GLY616  TRP617  ASP618  TYR619  PRO620  LYS621  CYS622 
 ASP623  PHE694  ASN695  SER759  ASP760  ASP761  ALA762  ILE779  LEU786  VAL792 
 PHE793  MET794  SER795  GLU796  ALA797  LYS798  CYS799  TRP800  GLU811  SER814 

> <Gold.Protein.RotatedAtoms>
  150.9693  134.9069  159.7777 H   0  0  0  0  0  0  0  0  0  0  0  0  # atno 6907 bound_to 6896
  152.5184  134.3563  159.9279 H   0  0  0  0  0  0  0  0  0  0  0  0  # atno 6908 bound_to 6896
  151.3573  133.3862  159.2721 H   0  0  0  0  0  0  0  0  0  0  0  0  # atno 6909 bound_to 6896
  144.8546  140.6121  143.5368 H   0  0  0  0  0  0  0  0  0  0  0  0  # atno 7974 bound_to 7965
  156.1471  140.1568  156.8829 H   0  0  0  0  0  0  0  0  0  0  0  0  # atno 8008 bound_to 7997
  154.5038  140.0818  156.7890 H   0  0  0  0  0  0  0  0  0  0  0  0  # atno 8009 bound_to 7997
  155.3967  140.3412  155.4257 H   0  0  0  0  0  0  0  0  0  0  0  0  # atno 8010 bound_to 7997
  139.5627  144.6892  151.3996 H   0  0  0  0  0  0  0  0  0  0  0  0  # atno 10167 bound_to 10162
  156.0727  130.4234  150.1426 H   0  0  0  0  0  0  0  0  0  0  0  0  # atno 10718 bound_to 10713
  154.7122  135.5131  153.8684 H   0  0  0  0  0  0  0  0  0  0  0  0  # atno 10763 bound_to 10752
  153.0790  135.6625  154.0093 H   0  0  0  0  0  0  0  0  0  0  0  0  # atno 10764 bound_to 10752
  153.9933  135.3018  155.3389 H   0  0  0  0  0  0  0  0  0  0  0  0  # atno 10765 bound_to 10752
  139.9455  134.9630  156.8703 H   0  0  0  0  0  0  0  0  0  0  0  0  # atno 11005 bound_to 11000
  145.4432  139.1533  143.3959 LP  0  0  0  0  0  0  0  0  0  0  0  0  # atno 17320 bound_to 7965
  146.2812  140.4554  142.8775 LP  0  0  0  0  0  0  0  0  0  0  0  0  # atno 17321 bound_to 7965
  140.6909  143.7865  150.7253 LP  0  0  0  0  0  0  0  0  0  0  0  0  # atno 17342 bound_to 10162
  140.1346  143.4495  152.2232 LP  0  0  0  0  0  0  0  0  0  0  0  0  # atno 17343 bound_to 10162
  156.9473  130.9763  151.3505 LP  0  0  0  0  0  0  0  0  0  0  0  0  # atno 17370 bound_to 10713
  157.5806  130.8374  149.8517 LP  0  0  0  0  0  0  0  0  0  0  0  0  # atno 17371 bound_to 10713
  140.5846  134.0320  155.7476 LP  0  0  0  0  0  0  0  0  0  0  0  0  # atno 17394 bound_to 11000
  141.1104  133.9626  157.2921 LP  0  0  0  0  0  0  0  0  0  0  0  0  # atno 17395 bound_to 11000

$$$$
