AV-unprocessed.smi:1019|AV-procd|sdf|4449|dock1
  -GOLD-   22720 2413D 1   1.00000     0.00000
 Structure written by MMmdl.
 45 47  0  0  0  0  0  0  0  0  3 V2000
  145.6240  139.9877  155.3630 C   0  0  0  0  0  0  0  0  0  0  0  0
  146.1344  139.8101  153.9839 N   0  3  1  0  0  0  0  0  0  0  0  0
  147.1784  140.8103  153.6490 C   0  0  0  0  0  0  0  0  0  0  0  0
  148.4387  140.6078  154.4725 C   0  0  0  0  0  0  0  0  0  0  0  0
  149.2879  139.5140  154.2022 C   0  0  0  0  0  0  0  0  0  0  0  0
  150.4516  139.3148  154.9699 C   0  0  0  0  0  0  0  0  0  0  0  0
  150.7728  140.2100  156.0082 C   0  0  0  0  0  0  0  0  0  0  0  0
  149.9306  141.3058  156.2782 C   0  0  0  0  0  0  0  0  0  0  0  0
  148.7664  141.5055  155.5113 C   0  0  0  0  0  0  0  0  0  0  0  0
  146.5418  138.4081  153.6996 C   0  0  0  0  0  0  0  0  0  0  0  0
  145.3577  137.5396  153.2320 C   0  0  1  0  0  0  0  0  0  0  0  0
  144.8961  138.0239  151.9842 O   0  0  0  0  0  0  0  0  0  0  0  0
  145.7670  136.0618  153.0719 C   0  0  0  0  0  0  0  0  0  0  0  0
  144.6621  135.2080  152.6153 N   0  0  0  0  0  0  0  0  0  0  0  0
  143.3231  135.4509  152.5880 C   0  0  0  0  0  0  0  0  0  0  0  0
  142.7147  134.3438  152.0792 N   0  3  0  0  0  0  0  0  0  0  0  0
  143.6783  133.3799  151.7752 C   0  0  0  0  0  0  0  0  0  0  0  0
  143.5525  132.1009  151.2419 C   0  0  0  0  0  0  0  0  0  0  0  0
  144.7458  131.3722  151.0568 C   0  0  0  0  0  0  0  0  0  0  0  0
  146.0009  131.9190  151.3957 C   0  0  0  0  0  0  0  0  0  0  0  0
  146.1170  133.2170  151.9359 C   0  0  0  0  0  0  0  0  0  0  0  0
  144.9324  133.9296  152.1165 C   0  0  0  0  0  0  0  0  0  0  0  0
  146.4140  139.8214  156.0966 H   0  0  0  0  0  0  0  0  0  0  0  0
  144.8095  139.2962  155.5772 H   0  0  0  0  0  0  0  0  0  0  0  0
  145.2372  140.9978  155.5032 H   0  0  0  0  0  0  0  0  0  0  0  0
  147.4573  140.7185  152.5981 H   0  0  0  0  0  0  0  0  0  0  0  0
  146.7864  141.8202  153.7803 H   0  0  0  0  0  0  0  0  0  0  0  0
  149.0476  138.8220  153.4081 H   0  0  0  0  0  0  0  0  0  0  0  0
  151.0988  138.4753  154.7624 H   0  0  0  0  0  0  0  0  0  0  0  0
  151.6656  140.0567  156.5964 H   0  0  0  0  0  0  0  0  0  0  0  0
  150.1774  141.9928  157.0744 H   0  0  0  0  0  0  0  0  0  0  0  0
  148.1250  142.3477  155.7266 H   0  0  0  0  0  0  0  0  0  0  0  0
  147.3146  138.3738  152.9315 H   0  0  0  0  0  0  0  0  0  0  0  0
  146.9995  137.9821  154.5940 H   0  0  0  0  0  0  0  0  0  0  0  0
  144.5367  137.6016  153.9463 H   0  0  0  0  0  0  0  0  0  0  0  0
  144.6675  138.9365  152.0715 H   0  0  0  0  0  0  0  0  0  0  0  0
  146.5726  135.9691  152.3419 H   0  0  0  0  0  0  0  0  0  0  0  0
  146.1515  135.6573  154.0090 H   0  0  0  0  0  0  0  0  0  0  0  0
  142.8314  136.3559  152.9153 H   0  0  0  0  0  0  0  0  0  0  0  0
  142.5928  131.6798  150.9806 H   0  0  0  0  0  0  0  0  0  0  0  0
  144.6972  130.3741  150.6460 H   0  0  0  0  0  0  0  0  0  0  0  0
  146.8929  131.3300  151.2375 H   0  0  0  0  0  0  0  0  0  0  0  0
  147.0827  133.6266  152.1917 H   0  0  0  0  0  0  0  0  0  0  0  0
  145.3629  140.0137  153.3652 H   0  0  0  0  0  0  0  0  0  0  0  0
  141.7147  134.2554  151.9506 H   0  0  0  0  0  0  0  0  0  0  0  0
  1  2  1  0  0  0  0
  1 23  1  0  0  0  0
  1 24  1  0  0  0  0
  1 25  1  0  0  0  0
  2  3  1  0  0  0  0
  2 10  1  0  0  0  0
  2 44  1  0  0  0  0
  3  4  1  0  0  0  0
  3 26  1  0  0  0  0
  3 27  1  0  0  0  0
  4  9  1  0  0  0  0
  4  5  2  0  0  0  0
  5  6  1  0  0  0  0
  5 28  1  0  0  0  0
  6  7  2  0  0  0  0
  6 29  1  0  0  0  0
  7  8  1  0  0  0  0
  7 30  1  0  0  0  0
  8  9  2  0  0  0  0
  8 31  1  0  0  0  0
  9 32  1  0  0  0  0
 10 11  1  0  0  0  0
 10 33  1  0  0  0  0
 10 34  1  0  0  0  0
 11 12  1  0  0  0  0
 11 13  1  0  0  0  0
 11 35  1  0  0  0  0
 12 36  1  0  0  0  0
 13 14  1  0  0  0  0
 13 37  1  0  0  0  0
 13 38  1  0  0  0  0
 14 22  1  0  0  0  0
 14 15  1  0  0  0  0
 15 16  2  0  0  0  0
 15 39  1  0  0  0  0
 16 17  1  0  0  0  0
 16 45  1  0  0  0  0
 17 22  2  0  0  0  0
 17 18  1  0  0  0  0
 18 19  2  0  0  0  0
 18 40  1  0  0  0  0
 19 20  1  0  0  0  0
 19 41  1  0  0  0  0
 20 21  2  0  0  0  0
 20 42  1  0  0  0  0
 21 22  1  0  0  0  0
 21 43  1  0  0  0  0
M  CHG  1   2   1
M  CHG  1  16   1
M  END
> <s_m_source_file>
AV-unprocessed.smi

> <i_m_source_file_index>
1019

> <i_lp_mmshare_version>
43012

> <i_f3d_flags>
0

> <s_epik_input>
W2NIXTFbY0hdW2NIXVtjSF1bY0hdYzFbQ0gyXU4oW0NIM10pW0NIMl1bQ0BIXShbT0hdKVtDSDJdbihbY0hdbjIpYyhjMjMpW2NIXVtjSF1bY0hdW2NIXTM=

> <s_epik_cmdline>
J2VwaWtfcHl0aG9uJywgJy1waCcsICc3LjAnLCAnLXRuJywgJzgnLCAnLW1hJywgJzIwMCcsICctbWV0YWxfYmluZGluZycsICctaW1hZScsICc8aW5maWxlLm1hZT4nLCAnLW9tYWUnLCAnPG91dGZpbGUubWFlPic=

> <r_epik_Ionization_Penalty>
1.5198

> <r_epik_Ionization_Penalty_Charging>
1.5198

> <r_epik_Ionization_Penalty_Neutral>
3.13312e-06

> <r_epik_State_Penalty>
1.624

> <r_epik_Charging_Adjusted_Penalty>
3.1438

> <i_epik_Tot_Q>
2

> <i_epik_Tot_abs_Q>
2

> <r_epik_Metal_State_Penalty>
5.67392

> <b_epik_Metal_Only>
0

> <s_lp_Force_Field>
OPLS_2005

> <r_lp_Energy>
24.7474

> <b_lp_Chiralities_Consistent>
1

> <s_lp_Variant>
AV-unprocessed.smi:1019-7

> <Gold.Version>
5.8.1

> <Gold.Id.Protein>
6NUR|6NUR_protein|mol2

> <Gold.PLP.Fitness>
48.7480

> <Gold.PLP.PLP>
-40.8839

> <Gold.PLP.part.hbond>
-3.2475

> <Gold.PLP.part.metal>
0.0000

> <Gold.PLP.part.buried>
0.2174

> <Gold.PLP.part.nonpolar>
-38.0458

> <Gold.PLP.part.repulsive>
0.0000

> <Gold.PLP.ligand.clash>
0.0000

> <Gold.PLP.ligand.torsion>
0.7421

> <Gold.PLP.Chemscore.Hbond>
3.0000

> <Gold.PLP.Chemscore.CHOScore>
0.0000

> <Gold.PLP.Chemscore.Metal>
0.0000

> <Gold.Chemscore.Hbonds>
donor molecule, donor type, donor heavy atom, donor atom, acceptor molecule, acceptor atom, score
      L1  H     2    44       P1 10175  2.00
      L1  H    12    36       P1 10175  1.00

> <Gold.PLP.Chemscore.Internal.Correction>
0.3482

> <Gold.Rescore>
     Score         DG    S(hbond)    S(metal)    S(lipo)     H(rot)  DE(clash)    DE(int)     intcor
     17.18     -17.93       1.99        0.00     103.29       2.46       0.08       0.66       ----

> <Gold.Chemscore.Fitness>
17.1819

> <Gold.Chemscore.DG>
-17.9258

> <Gold.Chemscore.ZeroCoef>
-5.4800

> <Gold.Chemscore.Hbond>
1.9899

> <Gold.Chemscore.Metal>
0.0000

> <Gold.Chemscore.Lipo>
103.2912

> <Gold.Chemscore.Internal_Hbond>
0.0000

> <Gold.Chemscore.DEClash>
0.0820

> <Gold.Chemscore.DEInternal>
0.6620

> <Gold.Chemscore.Rot>
2.4552

> <Gold.Chemscore.Internal.Correction>
   9.000000E+99

> <Gold.Chemscore.Hbonds>
donor molecule, donor type, donor heavy atom, donor atom, acceptor molecule, acceptor atom, score
      L1  H     2    44       P1 10175  0.99
      L1  H    12    36       P1 10175  1.00

> <Gold.Chemscore.Hbond.Weighted>
-6.6462

> <Gold.Chemscore.Metal.Weighted>
-0.0000

> <Gold.Chemscore.Lipo.Weighted>
-12.0851

> <Gold.Chemscore.Internal_Hbond.Weighted>
0.0000

> <Gold.Chemscore.DEClash.Weighted>
0.0820

> <Gold.Chemscore.DEInternal.Weighted>
0.6620

> <Gold.Chemscore.Rot.Weighted>
6.2854

> <Gold.Chemscore.Internal.Correction.Weighted>
   9.000000E+99

> <Gold.Protein.RotatedTorsions>
[ 6907 6896 6895 6894 ] final    0.62 input  -60.11 | X-H torsion
[ 7974 7965 7964 7962 ] final  111.27 input  175.53 | X-H torsion
[ 8008 7997 7996 7995 ] final   49.23 input   59.86 | X-H torsion
[ 10167 10162 10161 10158 ] final   76.98 input  -65.29 | X-H torsion
[ 10718 10713 10712 10709 ] final -121.03 input   66.30 | X-H torsion
[ 10763 10752 10751 10750 ] final  117.05 input  -60.55 | X-H torsion
[ 11005 11000 10999 10996 ] final   45.71 input  -57.11 | X-H torsion

> <Gold.Protein.ActiveResidues>
 VAL166  LYS551  ARG553  GLY616  TRP617  ASP618  TYR619  PRO620  LYS621  CYS622 
 ASP623  PHE694  ASN695  SER759  ASP760  ASP761  ALA762  ILE779  LEU786  VAL792 
 PHE793  MET794  SER795  GLU796  ALA797  LYS798  CYS799  TRP800  GLU811  SER814 

> <Gold.Protein.RotatedAtoms>
  151.5794  135.1059  160.0013 H   0  0  0  0  0  0  0  0  0  0  0  0  # atno 6907 bound_to 6896
  152.4361  133.7360  159.6625 H   0  0  0  0  0  0  0  0  0  0  0  0  # atno 6908 bound_to 6896
  150.8260  133.8102  159.3142 H   0  0  0  0  0  0  0  0  0  0  0  0  # atno 6909 bound_to 6896
  145.2444  139.2765  143.4101 H   0  0  0  0  0  0  0  0  0  0  0  0  # atno 7974 bound_to 7965
  155.3988  140.3437  155.4255 H   0  0  0  0  0  0  0  0  0  0  0  0  # atno 8008 bound_to 7997
  156.1515  140.1572  156.8794 H   0  0  0  0  0  0  0  0  0  0  0  0  # atno 8009 bound_to 7997
  154.5057  140.0803  156.7870 H   0  0  0  0  0  0  0  0  0  0  0  0  # atno 8010 bound_to 7997
  139.9865  144.5788  150.7855 H   0  0  0  0  0  0  0  0  0  0  0  0  # atno 10167 bound_to 10162
  156.1304  130.6391  150.9612 H   0  0  0  0  0  0  0  0  0  0  0  0  # atno 10718 bound_to 10713
  153.5464  135.3548  155.2741 H   0  0  0  0  0  0  0  0  0  0  0  0  # atno 10763 bound_to 10752
  154.8712  135.4103  154.2986 H   0  0  0  0  0  0  0  0  0  0  0  0  # atno 10764 bound_to 10752
  153.3703  135.7064  153.6711 H   0  0  0  0  0  0  0  0  0  0  0  0  # atno 10765 bound_to 10752
  140.1435  134.4553  155.8433 H   0  0  0  0  0  0  0  0  0  0  0  0  # atno 11005 bound_to 11000
  146.3320  140.2816  142.8610 LP  0  0  0  0  0  0  0  0  0  0  0  0  # atno 17320 bound_to 7965
  144.9560  140.8227  143.5543 LP  0  0  0  0  0  0  0  0  0  0  0  0  # atno 17321 bound_to 7965
  140.7470  143.2900  151.3357 LP  0  0  0  0  0  0  0  0  0  0  0  0  # atno 17342 bound_to 10162
  139.6371  144.0609  152.2525 LP  0  0  0  0  0  0  0  0  0  0  0  0  # atno 17343 bound_to 10162
  157.6483  131.0901  150.8106 LP  0  0  0  0  0  0  0  0  0  0  0  0  # atno 17370 bound_to 10713
  156.8192  130.4978  149.5345 LP  0  0  0  0  0  0  0  0  0  0  0  0  # atno 17371 bound_to 10713
  141.2189  133.6843  156.7290 LP  0  0  0  0  0  0  0  0  0  0  0  0  # atno 17394 bound_to 11000
  140.2693  134.8405  157.3832 LP  0  0  0  0  0  0  0  0  0  0  0  0  # atno 17395 bound_to 11000

$$$$
