AV-unprocessed.smi:2780|AV-procd|sdf|10714|dock5
  -GOLD-   2272015153D 1   1.00000     0.00000
 Structure written by MMmdl.
 47 49  0  0  0  0  0  0  0  0  2 V2000
  145.5032  135.5638  151.7891 C   0  0  0  0  0  0  0  0  0  0  0  0
  145.2715  134.1478  151.2877 C   0  0  0  0  0  0  0  0  0  0  0  0
  144.4397  133.9350  150.2501 C   0  0  0  0  0  0  0  0  0  0  0  0
  144.0781  132.5695  149.7132 C   0  0  0  0  0  0  0  0  0  0  0  0
  144.3437  131.4812  150.7556 C   0  0  0  0  0  0  0  0  0  0  0  0
  145.7543  131.6071  151.3543 C   0  0  2  0  0  0  0  0  0  0  0  0
  146.0016  130.4384  152.3283 C   0  0  0  0  0  0  0  0  0  0  0  0
  145.9958  132.9982  152.0183 C   0  0  1  0  0  0  0  0  0  0  0  0
  147.5177  133.2548  152.1805 C   0  0  0  0  0  0  0  0  0  0  0  0
  147.8226  134.2761  153.2038 N   0  3  0  0  0  0  0  0  0  0  0  0
  148.6852  133.7942  154.2991 C   0  0  0  0  0  0  0  0  0  0  0  0
  148.9206  134.8988  155.3379 C   0  0  0  0  0  0  0  0  0  0  0  0
  150.2263  134.7786  155.9603 N   0  0  0  0  0  0  0  0  0  0  0  0
  150.8222  133.6748  156.4376 C   0  0  0  0  0  0  0  0  0  0  0  0
  152.0393  133.8647  156.9442 N   0  0  0  0  0  0  0  0  0  0  0  0
  152.2758  135.2153  156.7822 N   0  0  0  0  0  0  0  0  0  0  0  0
  151.1719  135.7085  156.2088 C   0  0  0  0  0  0  0  0  0  0  0  0
  151.0131  137.1433  155.8175 C   0  0  0  0  0  0  0  0  0  0  0  0
  150.7295  137.5401  154.3853 C   0  0  0  0  0  0  0  0  0  0  0  0
  152.0698  137.8514  154.9984 C   0  0  0  0  0  0  0  0  0  0  0  0
  145.3471  135.6185  152.8667 H   0  0  0  0  0  0  0  0  0  0  0  0
  144.8142  136.2675  151.3206 H   0  0  0  0  0  0  0  0  0  0  0  0
  146.5142  135.8988  151.5579 H   0  0  0  0  0  0  0  0  0  0  0  0
  143.9712  134.7726  149.7533 H   0  0  0  0  0  0  0  0  0  0  0  0
  143.0242  132.5623  149.4336 H   0  0  0  0  0  0  0  0  0  0  0  0
  144.6527  132.3871  148.8045 H   0  0  0  0  0  0  0  0  0  0  0  0
  143.6014  131.5522  151.5522 H   0  0  0  0  0  0  0  0  0  0  0  0
  144.2088  130.5012  150.2961 H   0  0  0  0  0  0  0  0  0  0  0  0
  146.4572  131.5018  150.5263 H   0  0  0  0  0  0  0  0  0  0  0  0
  145.3334  130.4929  153.1883 H   0  0  0  0  0  0  0  0  0  0  0  0
  147.0232  130.4166  152.7044 H   0  0  0  0  0  0  0  0  0  0  0  0
  145.8259  129.4800  151.8388 H   0  0  0  0  0  0  0  0  0  0  0  0
  145.5479  132.9608  153.0126 H   0  0  0  0  0  0  0  0  0  0  0  0
  148.0410  132.3466  152.4752 H   0  0  0  0  0  0  0  0  0  0  0  0
  147.9439  133.5552  151.2222 H   0  0  0  0  0  0  0  0  0  0  0  0
  148.2866  135.0499  152.7495 H   0  0  0  0  0  0  0  0  0  0  0  0
  148.2195  132.9272  154.7681 H   0  0  0  0  0  0  0  0  0  0  0  0
  149.6376  133.4625  153.8829 H   0  0  0  0  0  0  0  0  0  0  0  0
  148.8574  135.8809  154.8671 H   0  0  0  0  0  0  0  0  0  0  0  0
  148.1515  134.8718  156.1104 H   0  0  0  0  0  0  0  0  0  0  0  0
  150.3536  132.7018  156.4103 H   0  0  0  0  0  0  0  0  0  0  0  0
  150.5173  137.7041  156.6074 H   0  0  0  0  0  0  0  0  0  0  0  0
  150.6933  136.7519  153.6356 H   0  0  0  0  0  0  0  0  0  0  0  0
  150.0459  138.3705  154.2213 H   0  0  0  0  0  0  0  0  0  0  0  0
  152.2825  138.8897  155.2438 H   0  0  0  0  0  0  0  0  0  0  0  0
  152.9196  137.2711  154.6454 H   0  0  0  0  0  0  0  0  0  0  0  0
  146.9530  134.6071  153.5967 H   0  0  0  0  0  0  0  0  0  0  0  0
  1  2  1  0  0  0  0
  1 21  1  0  0  0  0
  1 22  1  0  0  0  0
  1 23  1  0  0  0  0
  2  8  1  0  0  0  0
  2  3  2  0  0  0  0
  3  4  1  0  0  0  0
  3 24  1  0  0  0  0
  4  5  1  0  0  0  0
  4 25  1  0  0  0  0
  4 26  1  0  0  0  0
  5  6  1  0  0  0  0
  5 27  1  0  0  0  0
  5 28  1  0  0  0  0
  6  7  1  0  0  0  0
  6  8  1  0  0  0  0
  6 29  1  0  0  0  0
  7 30  1  0  0  0  0
  7 31  1  0  0  0  0
  7 32  1  0  0  0  0
  8  9  1  0  0  0  0
  8 33  1  0  0  0  0
  9 10  1  0  0  0  0
  9 34  1  0  0  0  0
  9 35  1  0  0  0  0
 10 11  1  0  0  0  0
 10 36  1  0  0  0  0
 10 47  1  0  0  0  0
 11 12  1  0  0  0  0
 11 37  1  0  0  0  0
 11 38  1  0  0  0  0
 12 13  1  0  0  0  0
 12 39  1  0  0  0  0
 12 40  1  0  0  0  0
 13 17  1  0  0  0  0
 13 14  1  0  0  0  0
 14 15  2  0  0  0  0
 14 41  1  0  0  0  0
 15 16  1  0  0  0  0
 16 17  2  0  0  0  0
 17 18  1  0  0  0  0
 18 20  1  0  0  0  0
 18 19  1  0  0  0  0
 18 42  1  0  0  0  0
 19 20  1  0  0  0  0
 19 43  1  0  0  0  0
 19 44  1  0  0  0  0
 20 45  1  0  0  0  0
 20 46  1  0  0  0  0
M  CHG  1  10   1
M  END
> <s_m_source_file>
AV-unprocessed.smi

> <i_m_source_file_index>
2780

> <i_lp_mmshare_version>
43012

> <i_f3d_flags>
0

> <s_epik_input>
W0NIM11DMT1bQ0hdW0NIMl1bQ0gyXVtDQEBIXShbQ0gzXSlbQ0BIXTFbQ0gyXVtOSF1bQ0gyXVtDSDJdbjJbY0hdbm5jMltDSF0zW0NIMl1bQ0gyXTM=

> <s_epik_cmdline>
J2VwaWtfcHl0aG9uJywgJy1waCcsICc3LjAnLCAnLXRuJywgJzgnLCAnLW1hJywgJzIwMCcsICctbWV0YWxfYmluZGluZycsICctaW1hZScsICc8aW5maWxlLm1hZT4nLCAnLW9tYWUnLCAnPG91dGZpbGUubWFlPic=

> <r_lp_tautomer_probability>
1

> <r_epik_Ionization_Penalty>
0.00176214

> <r_epik_Ionization_Penalty_Charging>
0.00175191

> <r_epik_Ionization_Penalty_Neutral>
1.02377e-05

> <r_epik_State_Penalty>
-0

> <r_epik_Charging_Adjusted_Penalty>
0.00175191

> <i_epik_Tot_Q>
1

> <i_epik_Tot_abs_Q>
1

> <r_epik_Metal_State_Penalty>
-0

> <b_epik_Metal_Only>
0

> <s_lp_Force_Field>
OPLS_2005

> <r_lp_Energy>
22.2191

> <b_lp_Chiralities_Consistent>
1

> <s_lp_Variant>
AV-unprocessed.smi:2780-2

> <Gold.Version>
5.8.1

> <Gold.Id.Protein>
6NUR|6NUR_protein|mol2

> <Gold.PLP.Fitness>
46.8928

> <Gold.PLP.PLP>
-39.2855

> <Gold.PLP.part.hbond>
-3.0344

> <Gold.PLP.part.metal>
0.0000

> <Gold.PLP.part.buried>
-5.0476

> <Gold.PLP.part.nonpolar>
-31.8326

> <Gold.PLP.part.repulsive>
0.0000

> <Gold.PLP.ligand.clash>
0.0000

> <Gold.PLP.ligand.torsion>
0.9737

> <Gold.PLP.Chemscore.Hbond>
3.1030

> <Gold.PLP.Chemscore.CHOScore>
0.0000

> <Gold.PLP.Chemscore.Metal>
0.0000

> <Gold.Chemscore.Hbonds>
donor molecule, donor type, donor heavy atom, donor atom, acceptor molecule, acceptor atom, score
      L1  H    10    36       P1  7948  2.00
      P1  H  6896  6908       L1    15  0.04
      P1  H 10752 10763       L1    16  1.00

> <Gold.PLP.Chemscore.Internal.Correction>
0.2459

> <Gold.Rescore>
     Score         DG    S(hbond)    S(metal)    S(lipo)     H(rot)  DE(clash)    DE(int)     intcor
     14.16     -16.27       1.36        0.00      96.87       1.98       0.11       2.00       ----

> <Gold.Chemscore.Fitness>
14.1621

> <Gold.Chemscore.DG>
-16.2724

> <Gold.Chemscore.ZeroCoef>
-5.4800

> <Gold.Chemscore.Hbond>
1.3555

> <Gold.Chemscore.Metal>
0.0000

> <Gold.Chemscore.Lipo>
96.8677

> <Gold.Chemscore.Internal_Hbond>
0.0000

> <Gold.Chemscore.DEClash>
0.1121

> <Gold.Chemscore.DEInternal>
1.9982

> <Gold.Chemscore.Rot>
1.9799

> <Gold.Chemscore.Internal.Correction>
   9.000000E+99

> <Gold.Chemscore.Hbonds>
donor molecule, donor type, donor heavy atom, donor atom, acceptor molecule, acceptor atom, score
      L1  H    10    36       P1  7948  0.80
      P1  H  6896  6908       L1    15  0.01
      P1  H 10752 10763       L1    16  0.17

> <Gold.Chemscore.Hbond.Weighted>
-4.5274

> <Gold.Chemscore.Metal.Weighted>
-0.0000

> <Gold.Chemscore.Lipo.Weighted>
-11.3335

> <Gold.Chemscore.Internal_Hbond.Weighted>
0.0000

> <Gold.Chemscore.DEClash.Weighted>
0.1121

> <Gold.Chemscore.DEInternal.Weighted>
1.9982

> <Gold.Chemscore.Rot.Weighted>
5.0685

> <Gold.Chemscore.Internal.Correction.Weighted>
   9.000000E+99

> <Gold.Protein.RotatedTorsions>
[ 6907 6896 6895 6894 ] final   64.47 input  -60.11 | X-H torsion
[ 7974 7965 7964 7962 ] final -139.91 input  175.53 | X-H torsion
[ 8008 7997 7996 7995 ] final  -86.20 input   59.86 | X-H torsion
[ 10167 10162 10161 10158 ] final  159.37 input  -65.29 | X-H torsion
[ 10718 10713 10712 10709 ] final   52.68 input   66.30 | X-H torsion
[ 10763 10752 10751 10750 ] final  119.93 input  -60.55 | X-H torsion
[ 11005 11000 10999 10996 ] final   14.88 input  -57.11 | X-H torsion

> <Gold.Protein.ActiveResidues>
 VAL166  LYS551  ARG553  GLY616  TRP617  ASP618  TYR619  PRO620  LYS621  CYS622 
 ASP623  PHE694  ASN695  SER759  ASP760  ASP761  ALA762  ILE779  LEU786  VAL792 
 PHE793  MET794  SER795  GLU796  ALA797  LYS798  CYS799  TRP800  GLU811  SER814 

> <Gold.Protein.RotatedAtoms>
  152.4334  134.5734  159.9927 H   0  0  0  0  0  0  0  0  0  0  0  0  # atno 6907 bound_to 6896
  151.5851  133.3367  159.3024 H   0  0  0  0  0  0  0  0  0  0  0  0  # atno 6908 bound_to 6896
  150.8229  134.7481  159.6853 H   0  0  0  0  0  0  0  0  0  0  0  0  # atno 6909 bound_to 6896
  144.8639  140.6263  143.5310 H   0  0  0  0  0  0  0  0  0  0  0  0  # atno 7974 bound_to 7965
  154.6492  140.0581  156.9936 H   0  0  0  0  0  0  0  0  0  0  0  0  # atno 8008 bound_to 7997
  155.1398  140.3264  155.4436 H   0  0  0  0  0  0  0  0  0  0  0  0  # atno 8009 bound_to 7997
  156.2568  140.1966  156.6514 H   0  0  0  0  0  0  0  0  0  0  0  0  # atno 8010 bound_to 7997
  139.4832  144.4736  151.8542 H   0  0  0  0  0  0  0  0  0  0  0  0  # atno 10167 bound_to 10162
  157.5097  130.8493  149.8420 H   0  0  0  0  0  0  0  0  0  0  0  0  # atno 10718 bound_to 10713
  153.5907  135.3466  155.2909 H   0  0  0  0  0  0  0  0  0  0  0  0  # atno 10763 bound_to 10752
  154.8653  135.4204  154.2519 H   0  0  0  0  0  0  0  0  0  0  0  0  # atno 10764 bound_to 10752
  153.3326  135.7045  153.7006 H   0  0  0  0  0  0  0  0  0  0  0  0  # atno 10765 bound_to 10752
  140.4645  134.1093  155.7722 H   0  0  0  0  0  0  0  0  0  0  0  0  # atno 11005 bound_to 11000
  145.4258  139.1556  143.4049 LP  0  0  0  0  0  0  0  0  0  0  0  0  # atno 17320 bound_to 7965
  146.2881  140.4372  142.8750 LP  0  0  0  0  0  0  0  0  0  0  0  0  # atno 17321 bound_to 7965
  140.4206  144.2248  150.5887 LP  0  0  0  0  0  0  0  0  0  0  0  0  # atno 17342 bound_to 10162
  140.4877  143.2358  151.8864 LP  0  0  0  0  0  0  0  0  0  0  0  0  # atno 17343 bound_to 10162
  156.0281  130.3773  150.1765 LP  0  0  0  0  0  0  0  0  0  0  0  0  # atno 17370 bound_to 10713
  156.9954  130.9906  151.3404 LP  0  0  0  0  0  0  0  0  0  0  0  0  # atno 17371 bound_to 10713
  141.1606  133.8801  157.1859 LP  0  0  0  0  0  0  0  0  0  0  0  0  # atno 17394 bound_to 11000
  139.9924  135.0059  157.0005 LP  0  0  0  0  0  0  0  0  0  0  0  0  # atno 17395 bound_to 11000

$$$$
