AV-unprocessed.smi:1207|AV-procd|sdf|5058|dock1
  -GOLD-   22720 4 93D 1   1.00000     0.00000
 Structure written by MMmdl.
 53 55  0  0  0  0  0  0  0  0  3 V2000
  152.4633  143.9718  160.0983 C   0  0  0  0  0  0  0  0  0  0  0  0
  152.0757  142.9570  159.0362 C   0  0  0  0  0  0  0  0  0  0  0  0
  151.1741  143.3530  158.0226 C   0  0  0  0  0  0  0  0  0  0  0  0
  150.8362  142.4018  157.0673 C   0  0  0  0  0  0  0  0  0  0  0  0
  149.9883  142.4769  155.9603 N   0  3  0  0  0  0  0  0  0  0  0  0
  149.9743  141.2772  155.3157 C   0  0  0  0  0  0  0  0  0  0  0  0
  150.7998  140.4361  155.9970 N   0  0  0  0  0  0  0  0  0  0  0  0
  151.1437  139.0312  155.7385 C   0  0  0  0  0  0  0  0  0  0  0  0
  150.0766  138.3001  154.9004 C   0  0  1  0  0  0  0  0  0  0  0  0
  150.6546  137.8667  153.6841 O   0  0  0  0  0  0  0  0  0  0  0  0
  149.4919  137.0789  155.6376 C   0  0  0  0  0  0  0  0  0  0  0  0
  149.2682  135.9351  154.7171 N   0  3  1  0  0  0  0  0  0  0  0  0
  150.4392  135.0308  154.6457 C   0  0  0  0  0  0  0  0  0  0  0  0
  148.0010  135.2072  154.9838 C   0  0  0  0  0  0  0  0  0  0  0  0
  147.7854  134.1166  153.9689 C   0  0  0  0  0  0  0  0  0  0  0  0
  146.8773  134.1236  152.8716 C   0  0  0  0  0  0  0  0  0  0  0  0
  145.9266  135.2094  152.4550 C   0  0  0  0  0  0  0  0  0  0  0  0
  146.9409  133.0049  152.1708 N   0  0  0  0  0  0  0  0  0  0  0  0
  147.9041  132.2121  152.8016 O   0  0  0  0  0  0  0  0  0  0  0  0
  148.3920  132.8940  153.8685 C   0  0  0  0  0  0  0  0  0  0  0  0
  149.4399  132.2016  154.6728 C   0  0  0  0  0  0  0  0  0  0  0  0
  151.3629  141.0961  157.0946 C   0  0  0  0  0  0  0  0  0  0  0  0
  152.2555  140.6902  158.0838 C   0  0  0  0  0  0  0  0  0  0  0  0
  152.6096  141.6424  159.0663 C   0  0  0  0  0  0  0  0  0  0  0  0
  153.5779  141.2278  160.1611 C   0  0  0  0  0  0  0  0  0  0  0  0
  151.9746  144.9320  159.9307 H   0  0  0  0  0  0  0  0  0  0  0  0
  153.5403  144.1413  160.0923 H   0  0  0  0  0  0  0  0  0  0  0  0
  152.1729  143.6192  161.0882 H   0  0  0  0  0  0  0  0  0  0  0  0
  150.7648  144.3524  157.9929 H   0  0  0  0  0  0  0  0  0  0  0  0
  149.4076  141.0370  154.4277 H   0  0  0  0  0  0  0  0  0  0  0  0
  152.1069  139.0172  155.2263 H   0  0  0  0  0  0  0  0  0  0  0  0
  151.2950  138.5351  156.6982 H   0  0  0  0  0  0  0  0  0  0  0  0
  149.2829  139.0044  154.6548 H   0  0  0  0  0  0  0  0  0  0  0  0
  150.0305  137.3228  153.2276 H   0  0  0  0  0  0  0  0  0  0  0  0
  150.1773  136.7933  156.4374 H   0  0  0  0  0  0  0  0  0  0  0  0
  148.5494  137.3345  156.1249 H   0  0  0  0  0  0  0  0  0  0  0  0
  150.6238  134.5527  155.6084 H   0  0  0  0  0  0  0  0  0  0  0  0
  151.3357  135.5817  154.3600 H   0  0  0  0  0  0  0  0  0  0  0  0
  150.2878  134.2511  153.8992 H   0  0  0  0  0  0  0  0  0  0  0  0
  148.0113  134.8180  156.0027 H   0  0  0  0  0  0  0  0  0  0  0  0
  147.1588  135.8979  154.9540 H   0  0  0  0  0  0  0  0  0  0  0  0
  145.3456  135.5684  153.3047 H   0  0  0  0  0  0  0  0  0  0  0  0
  145.2216  134.8615  151.6993 H   0  0  0  0  0  0  0  0  0  0  0  0
  146.4663  136.0599  152.0384 H   0  0  0  0  0  0  0  0  0  0  0  0
  149.9343  132.8917  155.3559 H   0  0  0  0  0  0  0  0  0  0  0  0
  150.2013  131.7689  154.0236 H   0  0  0  0  0  0  0  0  0  0  0  0
  149.0024  131.3965  155.2633 H   0  0  0  0  0  0  0  0  0  0  0  0
  152.6631  139.6906  158.1059 H   0  0  0  0  0  0  0  0  0  0  0  0
  153.8883  140.1886  160.0478 H   0  0  0  0  0  0  0  0  0  0  0  0
  153.1142  141.3313  161.1424 H   0  0  0  0  0  0  0  0  0  0  0  0
  154.4745  141.8477  160.1345 H   0  0  0  0  0  0  0  0  0  0  0  0
  149.1772  136.3461  153.7985 H   0  0  0  0  0  0  0  0  0  0  0  0
  149.4575  143.2864  155.6636 H   0  0  0  0  0  0  0  0  0  0  0  0
  1  2  1  0  0  0  0
  1 26  1  0  0  0  0
  1 27  1  0  0  0  0
  1 28  1  0  0  0  0
  2 24  1  0  0  0  0
  2  3  2  0  0  0  0
  3  4  1  0  0  0  0
  3 29  1  0  0  0  0
  4 22  2  0  0  0  0
  4  5  1  0  0  0  0
  5  6  2  0  0  0  0
  5 53  1  0  0  0  0
  6  7  1  0  0  0  0
  6 30  1  0  0  0  0
  7  8  1  0  0  0  0
  7 22  1  0  0  0  0
  8  9  1  0  0  0  0
  8 31  1  0  0  0  0
  8 32  1  0  0  0  0
  9 10  1  0  0  0  0
  9 11  1  0  0  0  0
  9 33  1  0  0  0  0
 10 34  1  0  0  0  0
 11 12  1  0  0  0  0
 11 35  1  0  0  0  0
 11 36  1  0  0  0  0
 12 13  1  0  0  0  0
 12 14  1  0  0  0  0
 12 52  1  0  0  0  0
 13 37  1  0  0  0  0
 13 38  1  0  0  0  0
 13 39  1  0  0  0  0
 14 15  1  0  0  0  0
 14 40  1  0  0  0  0
 14 41  1  0  0  0  0
 15 20  2  0  0  0  0
 15 16  1  0  0  0  0
 16 17  1  0  0  0  0
 16 18  2  0  0  0  0
 17 42  1  0  0  0  0
 17 43  1  0  0  0  0
 17 44  1  0  0  0  0
 18 19  1  0  0  0  0
 19 20  1  0  0  0  0
 20 21  1  0  0  0  0
 21 45  1  0  0  0  0
 21 46  1  0  0  0  0
 21 47  1  0  0  0  0
 22 23  1  0  0  0  0
 23 24  2  0  0  0  0
 23 48  1  0  0  0  0
 24 25  1  0  0  0  0
 25 49  1  0  0  0  0
 25 50  1  0  0  0  0
 25 51  1  0  0  0  0
M  CHG  1   5   1
M  CHG  1  12   1
M  END
> <s_m_source_file>
AV-unprocessed.smi

> <i_m_source_file_index>
1207

> <i_lp_mmshare_version>
43012

> <i_f3d_flags>
0

> <s_epik_input>
W0NIM11jKFtjSF0xKWMoW0NIM10pW2NIXWMoYzEyKW4oW2NIXW4yKVtDSDJdW0NASF0oW09IXSlbQ0gyXU4oW0NIM10pW0NIMl1jM2MoW0NIM10pbm9jM1tDSDNd

> <s_epik_cmdline>
J2VwaWtfcHl0aG9uJywgJy1waCcsICc3LjAnLCAnLXRuJywgJzgnLCAnLW1hJywgJzIwMCcsICctbWV0YWxfYmluZGluZycsICctaW1hZScsICc8aW5maWxlLm1hZT4nLCAnLW9tYWUnLCAnPG91dGZpbGUubWFlPic=

> <r_epik_Ionization_Penalty>
1.77463

> <r_epik_Ionization_Penalty_Charging>
1.77463

> <r_epik_Ionization_Penalty_Neutral>
3.70885e-06

> <r_epik_State_Penalty>
1.85225

> <r_epik_Charging_Adjusted_Penalty>
3.62688

> <i_epik_Tot_Q>
2

> <i_epik_Tot_abs_Q>
2

> <r_epik_Metal_State_Penalty>
1.92674

> <b_epik_Metal_Only>
0

> <s_lp_Force_Field>
OPLS_2005

> <r_lp_Energy>
18.8212

> <b_lp_Chiralities_Consistent>
1

> <s_lp_Variant>
AV-unprocessed.smi:1207-10

> <Gold.Version>
5.8.1

> <Gold.Id.Protein>
6NUR|6NUR_protein|mol2

> <Gold.PLP.Fitness>
56.1381

> <Gold.PLP.PLP>
-45.5083

> <Gold.PLP.part.hbond>
-3.9403

> <Gold.PLP.part.metal>
0.0000

> <Gold.PLP.part.buried>
-4.2933

> <Gold.PLP.part.nonpolar>
-38.1199

> <Gold.PLP.part.repulsive>
0.4359

> <Gold.PLP.ligand.clash>
0.0000

> <Gold.PLP.ligand.torsion>
2.3228

> <Gold.PLP.Chemscore.Hbond>
5.0000

> <Gold.PLP.Chemscore.CHOScore>
0.0000

> <Gold.PLP.Chemscore.Metal>
0.0000

> <Gold.Chemscore.Hbonds>
donor molecule, donor type, donor heavy atom, donor atom, acceptor molecule, acceptor atom, score
      L1  H     5    53       P1  8028  2.00
      L1  H    10    34       P1  7948  0.95
      L1  H    12    52       P1  7948  2.00

> <Gold.PLP.Chemscore.Internal.Correction>
0.2754

> <Gold.Rescore>
     Score         DG    S(hbond)    S(metal)    S(lipo)     H(rot)  DE(clash)    DE(int)     intcor
     17.70     -20.40       2.35        0.00     115.93       2.54       0.22       2.48       ----

> <Gold.Chemscore.Fitness>
17.6988

> <Gold.Chemscore.DG>
-20.3972

> <Gold.Chemscore.ZeroCoef>
-5.4800

> <Gold.Chemscore.Hbond>
2.3484

> <Gold.Chemscore.Metal>
0.0000

> <Gold.Chemscore.Lipo>
115.9292

> <Gold.Chemscore.Internal_Hbond>
0.0000

> <Gold.Chemscore.DEClash>
0.2176

> <Gold.Chemscore.DEInternal>
2.4809

> <Gold.Chemscore.Rot>
2.5351

> <Gold.Chemscore.Internal.Correction>
   9.000000E+99

> <Gold.Chemscore.Hbonds>
donor molecule, donor type, donor heavy atom, donor atom, acceptor molecule, acceptor atom, score
      L1  H     5    53       P1  8028  0.94
      L1  H    10    34       P1  7948  0.21
      L1  H    12    52       P1  7948  0.92

> <Gold.Chemscore.Hbond.Weighted>
-7.8435

> <Gold.Chemscore.Metal.Weighted>
-0.0000

> <Gold.Chemscore.Lipo.Weighted>
-13.5637

> <Gold.Chemscore.Internal_Hbond.Weighted>
0.0000

> <Gold.Chemscore.DEClash.Weighted>
0.2176

> <Gold.Chemscore.DEInternal.Weighted>
2.4809

> <Gold.Chemscore.Rot.Weighted>
6.4900

> <Gold.Chemscore.Internal.Correction.Weighted>
   9.000000E+99

> <Gold.Protein.RotatedTorsions>
[ 6907 6896 6895 6894 ] final   -9.29 input  -60.11 | X-H torsion
[ 7974 7965 7964 7962 ] final   87.37 input  175.53 | X-H torsion
[ 8008 7997 7996 7995 ] final  171.55 input   59.86 | X-H torsion
[ 10167 10162 10161 10158 ] final  -67.15 input  -65.29 | X-H torsion
[ 10718 10713 10712 10709 ] final   58.43 input   66.30 | X-H torsion
[ 10763 10752 10751 10750 ] final  134.76 input  -60.55 | X-H torsion
[ 11005 11000 10999 10996 ] final  -52.88 input  -57.11 | X-H torsion

> <Gold.Protein.ActiveResidues>
 VAL166  LYS551  ARG553  GLY616  TRP617  ASP618  TYR619  PRO620  LYS621  CYS622 
 ASP623  PHE694  ASN695  SER759  ASP760  ASP761  ALA762  ILE779  LEU786  VAL792 
 PHE793  MET794  SER795  GLU796  ALA797  LYS798  CYS799  TRP800  GLU811  SER814 

> <Gold.Protein.RotatedAtoms>
  151.4201  135.0996  159.9611 H   0  0  0  0  0  0  0  0  0  0  0  0  # atno 6907 bound_to 6896
  152.4991  133.8715  159.7311 H   0  0  0  0  0  0  0  0  0  0  0  0  # atno 6908 bound_to 6896
  150.9229  133.6801  159.2856 H   0  0  0  0  0  0  0  0  0  0  0  0  # atno 6909 bound_to 6896
  145.5598  139.2303  143.2466 H   0  0  0  0  0  0  0  0  0  0  0  0  # atno 7974 bound_to 7965
  156.1260  140.1509  156.9135 H   0  0  0  0  0  0  0  0  0  0  0  0  # atno 8008 bound_to 7997
  154.4872  140.0862  156.7553 H   0  0  0  0  0  0  0  0  0  0  0  0  # atno 8009 bound_to 7997
  155.4343  140.3428  155.4285 H   0  0  0  0  0  0  0  0  0  0  0  0  # atno 8010 bound_to 7997
  140.5604  143.2312  151.6739 H   0  0  0  0  0  0  0  0  0  0  0  0  # atno 10167 bound_to 10162
  157.5595  130.8825  149.9089 H   0  0  0  0  0  0  0  0  0  0  0  0  # atno 10718 bound_to 10713
  153.8289  135.3106  155.3417 H   0  0  0  0  0  0  0  0  0  0  0  0  # atno 10763 bound_to 10752
  154.7981  135.4743  154.0213 H   0  0  0  0  0  0  0  0  0  0  0  0  # atno 10764 bound_to 10752
  153.1646  135.6867  153.8783 H   0  0  0  0  0  0  0  0  0  0  0  0  # atno 10765 bound_to 10752
  141.0947  133.6626  156.4089 H   0  0  0  0  0  0  0  0  0  0  0  0  # atno 11005 bound_to 11000
  146.1859  140.6423  142.9168 LP  0  0  0  0  0  0  0  0  0  0  0  0  # atno 17320 bound_to 7965
  144.7488  140.5138  143.6816 LP  0  0  0  0  0  0  0  0  0  0  0  0  # atno 17321 bound_to 7965
  139.5067  144.3671  152.0506 LP  0  0  0  0  0  0  0  0  0  0  0  0  # atno 17342 bound_to 10162
  140.2797  144.3874  150.6123 LP  0  0  0  0  0  0  0  0  0  0  0  0  # atno 17343 bound_to 10162
  156.0649  130.3694  150.0899 LP  0  0  0  0  0  0  0  0  0  0  0  0  # atno 17370 bound_to 10713
  156.9065  130.9637  151.3569 LP  0  0  0  0  0  0  0  0  0  0  0  0  # atno 17371 bound_to 10713
  140.5168  134.6342  157.5304 LP  0  0  0  0  0  0  0  0  0  0  0  0  # atno 17394 bound_to 11000
  139.9781  134.7182  155.9911 LP  0  0  0  0  0  0  0  0  0  0  0  0  # atno 17395 bound_to 11000

$$$$
