AV-unprocessed.smi:1111|AV-procd|sdf|4795|dock7
  -GOLD-   22720 3343D 1   1.00000     0.00000
 Structure written by MMmdl.
 33 34  0  0  0  0  0  0  0  0  2 V2000
  149.4535  131.6065  153.9304 C   0  0  0  0  0  0  0  0  0  0  0  0
  149.0691  132.9995  154.4732 C   0  0  2  0  0  0  0  0  0  0  0  0
  148.2387  133.7227  153.5001 N   0  0  0  0  0  0  0  0  0  0  0  0
  147.0397  133.3710  153.0030 C   0  0  0  0  0  0  0  0  0  0  0  0
  146.4526  132.3289  153.2903 O   0  0  0  0  0  0  0  0  0  0  0  0
  146.3995  134.3533  152.0221 C   0  0  0  0  0  0  0  0  0  0  0  0
  145.4110  133.6871  151.1693 N   0  0  0  0  0  0  0  0  0  0  0  0
  145.6009  132.5769  150.3863 C   0  0  0  0  0  0  0  0  0  0  0  0
  144.4011  132.3208  149.7737 C   0  0  0  0  0  0  0  0  0  0  0  0
  143.5297  133.2832  150.2095 N   0  3  0  0  0  0  0  0  0  0  0  0
  144.1458  134.1138  151.0569 C   0  0  0  0  0  0  0  0  0  0  0  0
  150.3444  133.8451  154.7049 C   0  0  0  0  0  0  0  0  0  0  0  0
  150.0131  135.0534  155.5902 C   0  0  0  0  0  0  0  0  0  0  0  0
  148.6677  134.5009  156.7010 S   0  0  0  0  0  0  0  0  0  0  0  0
  149.2103  134.2324  158.0411 O   0  0  0  0  0  0  0  0  0  0  0  0
  147.5069  135.3848  156.5150 O   0  0  0  0  0  0  0  0  0  0  0  0
  148.3627  132.9080  155.8456 C   0  0  0  0  0  0  0  0  0  0  0  0
  150.1530  131.1019  154.5974 H   0  0  0  0  0  0  0  0  0  0  0  0
  149.9309  131.6808  152.9528 H   0  0  0  0  0  0  0  0  0  0  0  0
  148.5874  130.9530  153.8282 H   0  0  0  0  0  0  0  0  0  0  0  0
  148.6157  134.6049  153.1852 H   0  0  0  0  0  0  0  0  0  0  0  0
  145.9026  135.1602  152.5631 H   0  0  0  0  0  0  0  0  0  0  0  0
  147.1588  134.8081  151.3837 H   0  0  0  0  0  0  0  0  0  0  0  0
  146.5504  132.0653  150.3235 H   0  0  0  0  0  0  0  0  0  0  0  0
  144.1100  131.5462  149.0791 H   0  0  0  0  0  0  0  0  0  0  0  0
  143.7075  134.9606  151.5550 H   0  0  0  0  0  0  0  0  0  0  0  0
  151.0824  133.2375  155.2307 H   0  0  0  0  0  0  0  0  0  0  0  0
  150.8118  134.1534  153.7686 H   0  0  0  0  0  0  0  0  0  0  0  0
  150.8664  135.3986  156.1742 H   0  0  0  0  0  0  0  0  0  0  0  0
  149.6391  135.8861  154.9941 H   0  0  0  0  0  0  0  0  0  0  0  0
  147.2926  132.7083  155.7975 H   0  0  0  0  0  0  0  0  0  0  0  0
  148.8151  132.1260  156.4563 H   0  0  0  0  0  0  0  0  0  0  0  0
  142.5588  133.3581  149.9321 H   0  0  0  0  0  0  0  0  0  0  0  0
  1  2  1  0  0  0  0
  1 18  1  0  0  0  0
  1 19  1  0  0  0  0
  1 20  1  0  0  0  0
  2 17  1  0  0  0  0
  2  3  1  0  0  0  0
  2 12  1  0  0  0  0
  3  4  1  0  0  0  0
  3 21  1  0  0  0  0
  4  5  2  0  0  0  0
  4  6  1  0  0  0  0
  6  7  1  0  0  0  0
  6 22  1  0  0  0  0
  6 23  1  0  0  0  0
  7 11  1  0  0  0  0
  7  8  1  0  0  0  0
  8  9  2  0  0  0  0
  8 24  1  0  0  0  0
  9 10  1  0  0  0  0
  9 25  1  0  0  0  0
 10 11  2  0  0  0  0
 10 33  1  0  0  0  0
 11 26  1  0  0  0  0
 12 13  1  0  0  0  0
 12 27  1  0  0  0  0
 12 28  1  0  0  0  0
 13 14  1  0  0  0  0
 13 29  1  0  0  0  0
 13 30  1  0  0  0  0
 14 15  2  0  0  0  0
 14 16  2  0  0  0  0
 14 17  1  0  0  0  0
 17 31  1  0  0  0  0
 17 32  1  0  0  0  0
M  CHG  1  10   1
M  END
> <s_m_source_file>
AV-unprocessed.smi

> <i_m_source_file_index>
1111

> <i_lp_mmshare_version>
43012

> <i_f3d_flags>
0

> <s_epik_input>
Tz1TKD1PKShbQ0gyXTEpW0NIMl1bQ0gyXVtDQEBdMShbQ0gzXSlbTkhdQyg9TylbQ0gyXW4yW2NIXVtjSF1uW2NIXTI=

> <s_epik_cmdline>
J2VwaWtfcHl0aG9uJywgJy1waCcsICc3LjAnLCAnLXRuJywgJzgnLCAnLW1hJywgJzIwMCcsICctbWV0YWxfYmluZGluZycsICctaW1hZScsICc8aW5maWxlLm1hZT4nLCAnLW9tYWUnLCAnPG91dGZpbGUubWFlPic=

> <r_lp_tautomer_probability>
1

> <r_epik_Ionization_Penalty>
0.638881

> <r_epik_Ionization_Penalty_Charging>
0

> <r_epik_Ionization_Penalty_Neutral>
0.638881

> <r_epik_State_Penalty>
0.656385

> <r_epik_Charging_Adjusted_Penalty>
0.656385

> <i_epik_Tot_Q>
1

> <i_epik_Tot_abs_Q>
1

> <r_epik_Metal_State_Penalty>
0.832701

> <b_epik_Metal_Only>
0

> <s_lp_Force_Field>
OPLS_2005

> <r_lp_Energy>
7.98032

> <b_lp_Chiralities_Consistent>
1

> <s_lp_Variant>
AV-unprocessed.smi:1111-4

> <Gold.Version>
5.8.1

> <Gold.Id.Protein>
6NUR|6NUR_protein|mol2

> <Gold.PLP.Fitness>
38.8580

> <Gold.PLP.PLP>
-25.1116

> <Gold.PLP.part.hbond>
-3.0000

> <Gold.PLP.part.metal>
0.0000

> <Gold.PLP.part.buried>
-3.9417

> <Gold.PLP.part.nonpolar>
-17.3518

> <Gold.PLP.part.repulsive>
0.1545

> <Gold.PLP.ligand.clash>
0.0000

> <Gold.PLP.ligand.torsion>
0.3542

> <Gold.PLP.Chemscore.Hbond>
4.0000

> <Gold.PLP.Chemscore.CHOScore>
0.8130

> <Gold.PLP.Chemscore.Metal>
0.0000

> <Gold.Chemscore.Hbonds>
donor molecule, donor type, donor heavy atom, donor atom, acceptor molecule, acceptor atom, score
      L1  H     3    21       P1  7948  0.86
      L1  H    10    33       P1 10186  2.00
      P1  H  6896  6909       L1    15  1.00
      L1  C     8    24       P1 10747  0.57

> <Gold.PLP.Chemscore.Internal.Correction>
0.0158

> <Gold.Rescore>
     Score         DG    S(hbond)    S(metal)    S(lipo)     H(rot)  DE(clash)    DE(int)     intcor
     14.72     -15.02       2.58        0.00      46.73       1.78       0.02       0.29       ----

> <Gold.Chemscore.Fitness>
14.7170

> <Gold.Chemscore.DG>
-15.0233

> <Gold.Chemscore.ZeroCoef>
-5.4800

> <Gold.Chemscore.Hbond>
2.5838

> <Gold.Chemscore.Metal>
0.0000

> <Gold.Chemscore.Lipo>
46.7251

> <Gold.Chemscore.Internal_Hbond>
0.0000

> <Gold.Chemscore.DEClash>
0.0169

> <Gold.Chemscore.DEInternal>
0.2894

> <Gold.Chemscore.Rot>
1.7787

> <Gold.Chemscore.Internal.Correction>
   9.000000E+99

> <Gold.Chemscore.Hbonds>
donor molecule, donor type, donor heavy atom, donor atom, acceptor molecule, acceptor atom, score
      L1  H     3    21       P1  7948  0.25
      L1  H    10    33       P1 10186  0.95
      P1  H  6896  6909       L1    15  0.99

> <Gold.Chemscore.Hbond.Weighted>
-8.6300

> <Gold.Chemscore.Metal.Weighted>
-0.0000

> <Gold.Chemscore.Lipo.Weighted>
-5.4668

> <Gold.Chemscore.Internal_Hbond.Weighted>
0.0000

> <Gold.Chemscore.DEClash.Weighted>
0.0169

> <Gold.Chemscore.DEInternal.Weighted>
0.2894

> <Gold.Chemscore.Rot.Weighted>
4.5536

> <Gold.Chemscore.Internal.Correction.Weighted>
   9.000000E+99

> <Gold.Protein.RotatedTorsions>
[ 6907 6896 6895 6894 ] final   19.70 input  -60.11 | X-H torsion
[ 7974 7965 7964 7962 ] final  -68.76 input  175.53 | X-H torsion
[ 8008 7997 7996 7995 ] final   18.66 input   59.86 | X-H torsion
[ 10167 10162 10161 10158 ] final  -78.77 input  -65.29 | X-H torsion
[ 10718 10713 10712 10709 ] final -110.94 input   66.30 | X-H torsion
[ 10763 10752 10751 10750 ] final  -36.11 input  -60.55 | X-H torsion
[ 11005 11000 10999 10996 ] final  154.53 input  -57.11 | X-H torsion

> <Gold.Protein.ActiveResidues>
 VAL166  LYS551  ARG553  GLY616  TRP617  ASP618  TYR619  PRO620  LYS621  CYS622 
 ASP623  PHE694  ASN695  SER759  ASP760  ASP761  ALA762  ILE779  LEU786  VAL792 
 PHE793  MET794  SER795  GLU796  ALA797  LYS798  CYS799  TRP800  GLU811  SER814 

> <Gold.Protein.RotatedAtoms>
  151.8850  135.0439  160.0492 H   0  0  0  0  0  0  0  0  0  0  0  0  # atno 6907 bound_to 6896
  152.2482  133.5188  159.5318 H   0  0  0  0  0  0  0  0  0  0  0  0  # atno 6908 bound_to 6896
  150.7075  134.0913  159.3975 H   0  0  0  0  0  0  0  0  0  0  0  0  # atno 6909 bound_to 6896
  145.7124  140.9073  143.0673 H   0  0  0  0  0  0  0  0  0  0  0  0  # atno 7974 bound_to 7965
  154.9092  140.3011  155.5275 H   0  0  0  0  0  0  0  0  0  0  0  0  # atno 8008 bound_to 7997
  156.3015  140.2392  156.4065 H   0  0  0  0  0  0  0  0  0  0  0  0  # atno 8009 bound_to 7997
  154.8442  140.0412  157.1550 H   0  0  0  0  0  0  0  0  0  0  0  0  # atno 8010 bound_to 7997
  140.4653  143.2442  151.8287 H   0  0  0  0  0  0  0  0  0  0  0  0  # atno 10167 bound_to 10162
  156.0619  130.5841  150.8306 H   0  0  0  0  0  0  0  0  0  0  0  0  # atno 10718 bound_to 10713
  153.8743  135.6828  153.4772 H   0  0  0  0  0  0  0  0  0  0  0  0  # atno 10763 bound_to 10752
  153.1269  135.4715  154.9285 H   0  0  0  0  0  0  0  0  0  0  0  0  # atno 10764 bound_to 10752
  154.7699  135.3235  154.8162 H   0  0  0  0  0  0  0  0  0  0  0  0  # atno 10765 bound_to 10752
  140.1497  134.8683  157.2439 H   0  0  0  0  0  0  0  0  0  0  0  0  # atno 11005 bound_to 11000
  144.6938  139.9093  143.7462 LP  0  0  0  0  0  0  0  0  0  0  0  0  # atno 17320 bound_to 7965
  146.0700  139.3689  143.0529 LP  0  0  0  0  0  0  0  0  0  0  0  0  # atno 17321 bound_to 7965
  139.4811  144.4958  151.9125 LP  0  0  0  0  0  0  0  0  0  0  0  0  # atno 17342 bound_to 10162
  140.4044  144.2451  150.5891 LP  0  0  0  0  0  0  0  0  0  0  0  0  # atno 17343 bound_to 10162
  157.5633  131.0946  150.9527 LP  0  0  0  0  0  0  0  0  0  0  0  0  # atno 17370 bound_to 10713
  156.9759  130.5508  149.5293 LP  0  0  0  0  0  0  0  0  0  0  0  0  # atno 17371 bound_to 10713
  140.2619  134.3561  155.7403 LP  0  0  0  0  0  0  0  0  0  0  0  0  # atno 17394 bound_to 11000
  141.2197  133.7374  156.9093 LP  0  0  0  0  0  0  0  0  0  0  0  0  # atno 17395 bound_to 11000

$$$$
