AV-unprocessed.smi:153|AV-procd|sdf|1252|dock10
  -GOLD-   2262018483D 1   1.00000     0.00000
 Structure written by MMmdl.
 60 63  0  0  0  0  0  0  0  0  2 V2000
  150.0047  145.3027  160.2332 C   0  0  0  0  0  0  0  0  0  0  0  0
  151.5203  145.0371  160.2304 C   0  0  2  0  0  0  0  0  0  0  0  0
  152.1715  145.9266  159.3253 O   0  0  0  0  0  0  0  0  0  0  0  0
  152.7971  145.1864  158.2886 C   0  0  0  0  0  0  0  0  0  0  0  0
  153.1720  143.8697  158.9550 C   0  0  0  0  0  0  0  0  0  0  0  0
  151.9748  143.6020  159.8557 C   0  0  2  0  0  0  0  0  0  0  0  0
  150.9830  142.9454  159.0818 O   0  0  0  0  0  0  0  0  0  0  0  0
  152.3321  142.7046  161.0665 C   0  0  0  0  0  0  0  0  0  0  0  0
  153.0528  141.4974  160.6951 N   0  0  0  0  0  0  0  0  0  0  0  0
  154.2508  141.0612  161.2126 C   0  0  0  0  0  0  0  0  0  0  0  0
  154.6741  139.9198  160.7448 N   0  0  0  0  0  0  0  0  0  0  0  0
  153.7108  139.5506  159.8121 C   0  0  0  0  0  0  0  0  0  0  0  0
  153.5185  138.4180  158.9661 C   0  0  0  0  0  0  0  0  0  0  0  0
  154.3388  137.3379  158.9210 N   0  0  0  0  0  0  0  0  0  0  0  0
  154.6166  136.7173  157.6320 C   0  0  0  0  0  0  0  0  0  0  0  0
  155.2997  137.1617  160.0117 C   0  0  0  0  0  0  0  0  0  0  0  0
  154.9684  135.9668  160.9337 C   0  0  2  0  0  0  0  0  0  0  0  0
  154.2167  135.0479  160.1665 O   0  0  0  0  0  0  0  0  0  0  0  0
  154.1297  136.3581  162.1737 C   0  0  0  0  0  0  0  0  0  0  0  0
  154.9068  137.0757  163.2164 N   0  3  0  0  0  0  0  0  0  0  0  0
  154.1498  137.2899  164.4772 C   0  0  0  0  0  0  0  0  0  0  0  0
  155.0178  138.0140  165.5203 C   0  0  0  0  0  0  0  0  0  0  0  0
  156.2113  137.2768  165.7474 O   0  0  0  0  0  0  0  0  0  0  0  0
  156.9946  137.1666  164.5665 C   0  0  0  0  0  0  0  0  0  0  0  0
  156.1995  136.4036  163.4945 C   0  0  0  0  0  0  0  0  0  0  0  0
  152.4025  138.3986  158.1925 N   0  0  0  0  0  0  0  0  0  0  0  0
  151.5349  139.4134  158.2293 C   0  0  0  0  0  0  0  0  0  0  0  0
  151.5780  140.5193  158.9730 N   0  0  0  0  0  0  0  0  0  0  0  0
  152.6891  140.5418  159.7628 C   0  0  0  0  0  0  0  0  0  0  0  0
  149.4841  144.5991  160.8820 H   0  0  0  0  0  0  0  0  0  0  0  0
  149.5804  145.2129  159.2328 H   0  0  0  0  0  0  0  0  0  0  0  0
  149.7871  146.3091  160.5912 H   0  0  0  0  0  0  0  0  0  0  0  0
  151.9141  145.2902  161.2150 H   0  0  0  0  0  0  0  0  0  0  0  0
  152.0822  145.0229  157.4810 H   0  0  0  0  0  0  0  0  0  0  0  0
  153.6590  145.7151  157.8815 H   0  0  0  0  0  0  0  0  0  0  0  0
  153.3740  143.0700  158.2411 H   0  0  0  0  0  0  0  0  0  0  0  0
  154.0725  144.0172  159.5530 H   0  0  0  0  0  0  0  0  0  0  0  0
  150.7507  142.1372  159.5133 H   0  0  0  0  0  0  0  0  0  0  0  0
  152.9335  143.2591  161.7882 H   0  0  0  0  0  0  0  0  0  0  0  0
  151.4249  142.4046  161.5926 H   0  0  0  0  0  0  0  0  0  0  0  0
  154.7944  141.6089  161.9684 H   0  0  0  0  0  0  0  0  0  0  0  0
  153.7188  136.6802  157.0139 H   0  0  0  0  0  0  0  0  0  0  0  0
  154.9646  135.6936  157.7723 H   0  0  0  0  0  0  0  0  0  0  0  0
  155.3891  137.2655  157.0926 H   0  0  0  0  0  0  0  0  0  0  0  0
  156.3199  137.0782  159.6354 H   0  0  0  0  0  0  0  0  0  0  0  0
  155.2820  138.0810  160.5989 H   0  0  0  0  0  0  0  0  0  0  0  0
  155.8982  135.4764  161.2167 H   0  0  0  0  0  0  0  0  0  0  0  0
  154.7994  134.5819  159.5873 H   0  0  0  0  0  0  0  0  0  0  0  0
  153.2926  136.9976  161.9027 H   0  0  0  0  0  0  0  0  0  0  0  0
  153.6883  135.4536  162.5961 H   0  0  0  0  0  0  0  0  0  0  0  0
  153.2540  137.8810  164.2936 H   0  0  0  0  0  0  0  0  0  0  0  0
  153.8173  136.3310  164.8757 H   0  0  0  0  0  0  0  0  0  0  0  0
  155.2574  139.0271  165.1925 H   0  0  0  0  0  0  0  0  0  0  0  0
  154.4753  138.1048  166.4615 H   0  0  0  0  0  0  0  0  0  0  0  0
  157.2827  138.1568  164.2100 H   0  0  0  0  0  0  0  0  0  0  0  0
  157.9153  136.6325  164.8019 H   0  0  0  0  0  0  0  0  0  0  0  0
  156.0165  135.3805  163.8267 H   0  0  0  0  0  0  0  0  0  0  0  0
  156.7878  136.3410  162.5782 H   0  0  0  0  0  0  0  0  0  0  0  0
  150.6791  139.3212  157.5768 H   0  0  0  0  0  0  0  0  0  0  0  0
  155.1329  137.9864  162.8425 H   0  0  0  0  0  0  0  0  0  0  0  0
  1  2  1  0  0  0  0
  1 30  1  0  0  0  0
  1 31  1  0  0  0  0
  1 32  1  0  0  0  0
  2  6  1  0  0  0  0
  2  3  1  0  0  0  0
  2 33  1  0  0  0  0
  3  4  1  0  0  0  0
  4  5  1  0  0  0  0
  4 34  1  0  0  0  0
  4 35  1  0  0  0  0
  5  6  1  0  0  0  0
  5 36  1  0  0  0  0
  5 37  1  0  0  0  0
  6  7  1  0  0  0  0
  6  8  1  0  0  0  0
  7 38  1  0  0  0  0
  8  9  1  0  0  0  0
  8 39  1  0  0  0  0
  8 40  1  0  0  0  0
  9 29  1  0  0  0  0
  9 10  1  0  0  0  0
 10 11  2  0  0  0  0
 10 41  1  0  0  0  0
 11 12  1  0  0  0  0
 12 29  2  0  0  0  0
 12 13  1  0  0  0  0
 13 14  1  0  0  0  0
 13 26  2  0  0  0  0
 14 15  1  0  0  0  0
 14 16  1  0  0  0  0
 15 42  1  0  0  0  0
 15 43  1  0  0  0  0
 15 44  1  0  0  0  0
 16 17  1  0  0  0  0
 16 45  1  0  0  0  0
 16 46  1  0  0  0  0
 17 18  1  0  0  0  0
 17 19  1  0  0  0  0
 17 47  1  0  0  0  0
 18 48  1  0  0  0  0
 19 20  1  0  0  0  0
 19 49  1  0  0  0  0
 19 50  1  0  0  0  0
 20 25  1  0  0  0  0
 20 21  1  0  0  0  0
 20 60  1  0  0  0  0
 21 22  1  0  0  0  0
 21 51  1  0  0  0  0
 21 52  1  0  0  0  0
 22 23  1  0  0  0  0
 22 53  1  0  0  0  0
 22 54  1  0  0  0  0
 23 24  1  0  0  0  0
 24 25  1  0  0  0  0
 24 55  1  0  0  0  0
 24 56  1  0  0  0  0
 25 57  1  0  0  0  0
 25 58  1  0  0  0  0
 26 27  1  0  0  0  0
 27 28  2  0  0  0  0
 27 59  1  0  0  0  0
 28 29  1  0  0  0  0
M  CHG  1  20   1
M  END
> <s_m_source_file>
AV-unprocessed.smi

> <i_m_source_file_index>
153

> <i_lp_mmshare_version>
43012

> <i_f3d_flags>
0

> <s_epik_input>
W0NIMl0xW0NIMl1PW0NAQEhdKFtDSDNdKVtDQEBdMShbT0hdKVtDSDJdbihbY0hdbjIpYyhjMjMpbltjSF1uYzNOKFtDSDNdKVtDSDJdW0NASF0oW09IXSlbQ0gyXU40W0NIMl1bQ0gyXU9bQ0gyXVtDSDJdNA==

> <s_epik_cmdline>
J2VwaWtfcHl0aG9uJywgJy1waCcsICc3LjAnLCAnLXRuJywgJzgnLCAnLW1hJywgJzIwMCcsICctbWV0YWxfYmluZGluZycsICctaW1hZScsICc8aW5maWxlLm1hZT4nLCAnLW9tYWUnLCAnPG91dGZpbGUubWFlPic=

> <r_lp_tautomer_probability>
1

> <r_epik_Ionization_Penalty>
0.403509

> <r_epik_Ionization_Penalty_Charging>
0.40072

> <r_epik_Ionization_Penalty_Neutral>
0.00278876

> <r_epik_State_Penalty>
0.400058

> <r_epik_Charging_Adjusted_Penalty>
0.800778

> <i_epik_Tot_Q>
1

> <i_epik_Tot_abs_Q>
1

> <r_epik_Metal_State_Penalty>
0.400321

> <b_epik_Metal_Only>
0

> <s_lp_Force_Field>
OPLS_2005

> <r_lp_Energy>
42.6993

> <b_lp_Chiralities_Consistent>
1

> <s_lp_Variant>
AV-unprocessed.smi:153-3

> <Gold.Version>
5.8.1

> <Gold.Id.Protein>
6NUR|6NUR_protein|mol2

> <Gold.PLP.Fitness>
48.8537

> <Gold.PLP.PLP>
-48.0425

> <Gold.PLP.part.hbond>
-2.1143

> <Gold.PLP.part.metal>
0.0000

> <Gold.PLP.part.buried>
-7.8587

> <Gold.PLP.part.nonpolar>
-38.6063

> <Gold.PLP.part.repulsive>
0.1954

> <Gold.PLP.ligand.clash>
0.0000

> <Gold.PLP.ligand.torsion>
1.3469

> <Gold.PLP.Chemscore.Hbond>
0.9760

> <Gold.PLP.Chemscore.CHOScore>
0.0000

> <Gold.PLP.Chemscore.Metal>
0.0000

> <Gold.Chemscore.Hbonds>
donor molecule, donor type, donor heavy atom, donor atom, acceptor molecule, acceptor atom, score
      P1  H  6896  6908       L1    18  0.99

> <Gold.PLP.Chemscore.Internal.Correction>
0.5770

> <Gold.Rescore>
     Score         DG    S(hbond)    S(metal)    S(lipo)     H(rot)  DE(clash)    DE(int)     intcor
      6.29     -12.41       0.97        0.00     110.74       3.62       0.22       5.90       ----

> <Gold.Chemscore.Fitness>
6.2938

> <Gold.Chemscore.DG>
-12.4094

> <Gold.Chemscore.ZeroCoef>
-5.4800

> <Gold.Chemscore.Hbond>
0.9688

> <Gold.Chemscore.Metal>
0.0000

> <Gold.Chemscore.Lipo>
110.7361

> <Gold.Chemscore.Internal_Hbond>
0.0000

> <Gold.Chemscore.DEClash>
0.2178

> <Gold.Chemscore.DEInternal>
5.8978

> <Gold.Chemscore.Rot>
3.6182

> <Gold.Chemscore.Internal.Correction>
   9.000000E+99

> <Gold.Chemscore.Hbonds>
donor molecule, donor type, donor heavy atom, donor atom, acceptor molecule, acceptor atom, score
      P1  H  6896  6908       L1    18  0.90

> <Gold.Chemscore.Hbond.Weighted>
-3.2357

> <Gold.Chemscore.Metal.Weighted>
-0.0000

> <Gold.Chemscore.Lipo.Weighted>
-12.9561

> <Gold.Chemscore.Internal_Hbond.Weighted>
0.0000

> <Gold.Chemscore.DEClash.Weighted>
0.2178

> <Gold.Chemscore.DEInternal.Weighted>
5.8978

> <Gold.Chemscore.Rot.Weighted>
9.2625

> <Gold.Chemscore.Internal.Correction.Weighted>
   9.000000E+99

> <Gold.Protein.RotatedTorsions>
[ 6907 6896 6895 6894 ] final  -68.42 input  -60.11 | X-H torsion
[ 7974 7965 7964 7962 ] final  102.56 input  175.53 | X-H torsion
[ 8008 7997 7996 7995 ] final  -66.36 input   59.86 | X-H torsion
[ 10167 10162 10161 10158 ] final  128.51 input  -65.29 | X-H torsion
[ 10718 10713 10712 10709 ] final  -11.11 input   66.30 | X-H torsion
[ 10763 10752 10751 10750 ] final  175.11 input  -60.55 | X-H torsion
[ 11005 11000 10999 10996 ] final  -98.93 input  -57.11 | X-H torsion

> <Gold.Protein.ActiveResidues>
 VAL166  LYS551  ARG553  GLY616  TRP617  ASP618  TYR619  PRO620  LYS621  CYS622 
 ASP623  PHE694  ASN695  SER759  ASP760  ASP761  ALA762  ILE779  LEU786  VAL792 
 PHE793  MET794  SER795  GLU796  ALA797  LYS798  CYS799  TRP800  GLU811  SER814 

> <Gold.Protein.RotatedAtoms>
  150.7357  134.5742  159.5905 H   0  0  0  0  0  0  0  0  0  0  0  0  # atno 6907 bound_to 6896
  152.3173  134.7421  160.0331 H   0  0  0  0  0  0  0  0  0  0  0  0  # atno 6908 bound_to 6896
  151.7949  133.3327  159.3546 H   0  0  0  0  0  0  0  0  0  0  0  0  # atno 6909 bound_to 6896
  145.3575  139.2425  143.3525 H   0  0  0  0  0  0  0  0  0  0  0  0  # atno 7974 bound_to 7965
  154.4729  140.0914  156.7191 H   0  0  0  0  0  0  0  0  0  0  0  0  # atno 8008 bound_to 7997
  155.4674  140.3463  155.4302 H   0  0  0  0  0  0  0  0  0  0  0  0  # atno 8009 bound_to 7997
  156.1069  140.1437  156.9380 H   0  0  0  0  0  0  0  0  0  0  0  0  # atno 8010 bound_to 7997
  139.5523  144.6823  151.4286 H   0  0  0  0  0  0  0  0  0  0  0  0  # atno 10167 bound_to 10162
  156.6637  130.4989  149.6022 H   0  0  0  0  0  0  0  0  0  0  0  0  # atno 10718 bound_to 10713
  154.4631  135.2768  155.1698 H   0  0  0  0  0  0  0  0  0  0  0  0  # atno 10763 bound_to 10752
  154.3478  135.6156  153.5631 H   0  0  0  0  0  0  0  0  0  0  0  0  # atno 10764 bound_to 10752
  152.9856  135.5804  154.4997 H   0  0  0  0  0  0  0  0  0  0  0  0  # atno 10765 bound_to 10752
  141.1327  133.8283  157.0905 H   0  0  0  0  0  0  0  0  0  0  0  0  # atno 11005 bound_to 11000
  146.2942  140.4202  142.8728 LP  0  0  0  0  0  0  0  0  0  0  0  0  # atno 17320 bound_to 7965
  144.8671  140.7221  143.6070 LP  0  0  0  0  0  0  0  0  0  0  0  0  # atno 17321 bound_to 7965
  140.6789  143.8127  150.7094 LP  0  0  0  0  0  0  0  0  0  0  0  0  # atno 17342 bound_to 10162
  140.1575  143.4304  152.2090 LP  0  0  0  0  0  0  0  0  0  0  0  0  # atno 17343 bound_to 10162
  156.1991  130.6608  151.1147 LP  0  0  0  0  0  0  0  0  0  0  0  0  # atno 17370 bound_to 10713
  157.7101  131.0738  150.6532 LP  0  0  0  0  0  0  0  0  0  0  0  0  # atno 17371 bound_to 10713
  140.0395  134.9861  157.0935 LP  0  0  0  0  0  0  0  0  0  0  0  0  # atno 17394 bound_to 11000
  140.4157  134.1934  155.7163 LP  0  0  0  0  0  0  0  0  0  0  0  0  # atno 17395 bound_to 11000

$$$$
