AV-unprocessed.smi:1356|AV-procd|sdf|5540|dock5
  -GOLD-   22720 5133D 1   1.00000     0.00000
 Structure written by MMmdl.
 41 42  0  0  0  0  0  0  0  0  1 V2000
  150.4292  133.3083  153.1653 C   0  0  0  0  0  0  0  0  0  0  0  0
  150.7162  134.1152  154.4133 C   0  0  2  0  0  0  0  0  0  0  0  0
  149.6001  134.7852  155.1775 C   0  0  0  0  0  0  0  0  0  0  0  0
  150.5873  135.6271  154.3956 C   0  0  1  0  0  0  0  0  0  0  0  0
  151.5795  136.4237  155.1780 C   0  0  0  0  0  0  0  0  0  0  0  0
  152.4584  135.9102  155.8716 O   0  0  0  0  0  0  0  0  0  0  0  0
  151.4163  137.7508  155.0688 N   0  0  0  0  0  0  0  0  0  0  0  0
  152.2097  138.7646  155.7625 C   0  0  0  0  0  0  0  0  0  0  0  0
  151.9181  138.8425  157.2783 C   0  0  0  0  0  0  0  0  0  0  0  0
  153.1317  139.2697  158.1103 C   0  0  0  0  0  0  0  0  0  0  0  0
  154.2170  138.7101  157.9535 O   0  0  0  0  0  0  0  0  0  0  0  0
  152.9370  140.2778  158.9739 N   0  0  0  0  0  0  0  0  0  0  0  0
  153.9763  140.8925  159.7900 C   0  0  0  0  0  0  0  0  0  0  0  0
  153.3715  141.8116  160.8646 C   0  0  0  0  0  0  0  0  0  0  0  0
  152.7699  143.0708  160.2706 C   0  0  0  0  0  0  0  0  0  0  0  0
  152.0997  144.0047  161.0894 C   0  0  0  0  0  0  0  0  0  0  0  0
  151.5657  145.1614  160.4894 C   0  0  0  0  0  0  0  0  0  0  0  0
  151.7221  145.3393  159.1012 C   0  0  0  0  0  0  0  0  0  0  0  0
  152.4094  144.3486  158.3719 C   0  0  0  0  0  0  0  0  0  0  0  0
  152.9253  143.2360  158.9376 N   0  0  0  0  0  0  0  0  0  0  0  0
  149.6221  133.7606  152.5882 H   0  0  0  0  0  0  0  0  0  0  0  0
  150.1371  132.2934  153.4353 H   0  0  0  0  0  0  0  0  0  0  0  0
  151.3200  133.2594  152.5388 H   0  0  0  0  0  0  0  0  0  0  0  0
  151.5151  133.6921  155.0202 H   0  0  0  0  0  0  0  0  0  0  0  0
  148.5894  134.7164  154.7806 H   0  0  0  0  0  0  0  0  0  0  0  0
  149.6663  134.7820  156.2642 H   0  0  0  0  0  0  0  0  0  0  0  0
  150.2142  136.0830  153.4794 H   0  0  0  0  0  0  0  0  0  0  0  0
  150.6697  138.0872  154.4777 H   0  0  0  0  0  0  0  0  0  0  0  0
  153.2706  138.5705  155.5978 H   0  0  0  0  0  0  0  0  0  0  0  0
  152.0020  139.7284  155.2966 H   0  0  0  0  0  0  0  0  0  0  0  0
  151.0892  139.5285  157.4594 H   0  0  0  0  0  0  0  0  0  0  0  0
  151.5851  137.8676  157.6351 H   0  0  0  0  0  0  0  0  0  0  0  0
  152.0105  140.6745  159.0396 H   0  0  0  0  0  0  0  0  0  0  0  0
  154.5493  140.0952  160.2643 H   0  0  0  0  0  0  0  0  0  0  0  0
  154.6743  141.4445  159.1582 H   0  0  0  0  0  0  0  0  0  0  0  0
  152.5972  141.2833  161.4232 H   0  0  0  0  0  0  0  0  0  0  0  0
  154.1365  142.0876  161.5919 H   0  0  0  0  0  0  0  0  0  0  0  0
  151.9975  143.8408  162.1520 H   0  0  0  0  0  0  0  0  0  0  0  0
  151.0461  145.8988  161.0831 H   0  0  0  0  0  0  0  0  0  0  0  0
  151.3258  146.2141  158.6072 H   0  0  0  0  0  0  0  0  0  0  0  0
  152.5491  144.4527  157.3062 H   0  0  0  0  0  0  0  0  0  0  0  0
  1  2  1  0  0  0  0
  1 21  1  0  0  0  0
  1 22  1  0  0  0  0
  1 23  1  0  0  0  0
  2  4  1  0  0  0  0
  2  3  1  0  0  0  0
  2 24  1  0  0  0  0
  3  4  1  0  0  0  0
  3 25  1  0  0  0  0
  3 26  1  0  0  0  0
  4  5  1  0  0  0  0
  4 27  1  0  0  0  0
  5  6  2  0  0  0  0
  5  7  1  0  0  0  0
  7  8  1  0  0  0  0
  7 28  1  0  0  0  0
  8  9  1  0  0  0  0
  8 29  1  0  0  0  0
  8 30  1  0  0  0  0
  9 10  1  0  0  0  0
  9 31  1  0  0  0  0
  9 32  1  0  0  0  0
 10 11  2  0  0  0  0
 10 12  1  0  0  0  0
 12 13  1  0  0  0  0
 12 33  1  0  0  0  0
 13 14  1  0  0  0  0
 13 34  1  0  0  0  0
 13 35  1  0  0  0  0
 14 15  1  0  0  0  0
 14 36  1  0  0  0  0
 14 37  1  0  0  0  0
 15 20  1  0  0  0  0
 15 16  2  0  0  0  0
 16 17  1  0  0  0  0
 16 38  1  0  0  0  0
 17 18  2  0  0  0  0
 17 39  1  0  0  0  0
 18 19  1  0  0  0  0
 18 40  1  0  0  0  0
 19 20  2  0  0  0  0
 19 41  1  0  0  0  0
M  END
> <s_m_source_file>
AV-unprocessed.smi

> <i_m_source_file_index>
1356

> <i_lp_mmshare_version>
43012

> <i_f3d_flags>
0

> <s_epik_input>
W0NIM11bQ0BASF0xW0NIMl1bQ0BIXTFDKD1PKVtOSF1bQ0gyXVtDSDJdQyg9TylbTkhdW0NIMl1bQ0gyXWMyW2NIXVtjSF1bY0hdW2NIXW4y

> <s_epik_cmdline>
J2VwaWtfcHl0aG9uJywgJy1waCcsICc3LjAnLCAnLXRuJywgJzgnLCAnLW1hJywgJzIwMCcsICctbWV0YWxfYmluZGluZycsICctaW1hZScsICc8aW5maWxlLm1hZT4nLCAnLW9tYWUnLCAnPG91dGZpbGUubWFlPic=

> <r_epik_Ionization_Penalty>
0.0258005

> <r_epik_Ionization_Penalty_Charging>
0

> <r_epik_Ionization_Penalty_Neutral>
0.0258005

> <r_epik_State_Penalty>
0.0210245

> <r_epik_Charging_Adjusted_Penalty>
0.0210245

> <i_epik_Tot_Q>
0

> <i_epik_Tot_abs_Q>
0

> <r_epik_Metal_State_Penalty>
0.0201445

> <b_epik_Metal_Only>
0

> <s_lp_Force_Field>
OPLS_2005

> <r_lp_Energy>
2.94754

> <b_lp_Chiralities_Consistent>
1

> <s_lp_Variant>
AV-unprocessed.smi:1356-1

> <Gold.Version>
5.8.1

> <Gold.Id.Protein>
6NUR|6NUR_protein|mol2

> <Gold.PLP.Fitness>
49.2362

> <Gold.PLP.PLP>
-44.0663

> <Gold.PLP.part.hbond>
-2.0000

> <Gold.PLP.part.metal>
0.0000

> <Gold.PLP.part.buried>
-6.2965

> <Gold.PLP.part.nonpolar>
-36.8525

> <Gold.PLP.part.repulsive>
0.1717

> <Gold.PLP.ligand.clash>
0.0000

> <Gold.PLP.ligand.torsion>
0.4877

> <Gold.PLP.Chemscore.Hbond>
2.0000

> <Gold.PLP.Chemscore.CHOScore>
0.0000

> <Gold.PLP.Chemscore.Metal>
0.0000

> <Gold.Chemscore.Hbonds>
donor molecule, donor type, donor heavy atom, donor atom, acceptor molecule, acceptor atom, score
      P1  H  7997  8010       L1    11  0.80
      P1  H 10752 10763       L1     6  0.07

> <Gold.PLP.Chemscore.Internal.Correction>
0.1452

> <Gold.Rescore>
     Score         DG    S(hbond)    S(metal)    S(lipo)     H(rot)  DE(clash)    DE(int)     intcor
     17.35     -18.76       1.74        0.00     111.52       2.18       0.14       1.27       ----

> <Gold.Chemscore.Fitness>
17.3518

> <Gold.Chemscore.DG>
-18.7618

> <Gold.Chemscore.ZeroCoef>
-5.4800

> <Gold.Chemscore.Hbond>
1.7375

> <Gold.Chemscore.Metal>
0.0000

> <Gold.Chemscore.Lipo>
111.5160

> <Gold.Chemscore.Internal_Hbond>
0.0000

> <Gold.Chemscore.DEClash>
0.1363

> <Gold.Chemscore.DEInternal>
1.2737

> <Gold.Chemscore.Rot>
2.1753

> <Gold.Chemscore.Internal.Correction>
   9.000000E+99

> <Gold.Chemscore.Hbonds>
donor molecule, donor type, donor heavy atom, donor atom, acceptor molecule, acceptor atom, score
      P1  H  7997  8010       L1    11  0.11
      P1  H 10752 10763       L1     6  0.02

> <Gold.Chemscore.Hbond.Weighted>
-5.8031

> <Gold.Chemscore.Metal.Weighted>
-0.0000

> <Gold.Chemscore.Lipo.Weighted>
-13.0474

> <Gold.Chemscore.Internal_Hbond.Weighted>
0.0000

> <Gold.Chemscore.DEClash.Weighted>
0.1363

> <Gold.Chemscore.DEInternal.Weighted>
1.2737

> <Gold.Chemscore.Rot.Weighted>
5.5687

> <Gold.Chemscore.Internal.Correction.Weighted>
   9.000000E+99

> <Gold.Protein.RotatedTorsions>
[ 6907 6896 6895 6894 ] final  169.20 input  -60.11 | X-H torsion
[ 7974 7965 7964 7962 ] final   19.72 input  175.53 | X-H torsion
[ 8008 7997 7996 7995 ] final    9.30 input   59.86 | X-H torsion
[ 10167 10162 10161 10158 ] final -152.53 input  -65.29 | X-H torsion
[ 10718 10713 10712 10709 ] final    1.39 input   66.30 | X-H torsion
[ 10763 10752 10751 10750 ] final   84.16 input  -60.55 | X-H torsion
[ 11005 11000 10999 10996 ] final    5.14 input  -57.11 | X-H torsion

> <Gold.Protein.ActiveResidues>
 VAL166  LYS551  ARG553  GLY616  TRP617  ASP618  TYR619  PRO620  LYS621  CYS622 
 ASP623  PHE694  ASN695  SER759  ASP760  ASP761  ALA762  ILE779  LEU786  VAL792 
 PHE793  MET794  SER795  GLU796  ALA797  LYS798  CYS799  TRP800  GLU811  SER814 

> <Gold.Protein.RotatedAtoms>
  151.8356  133.3415  159.3626 H   0  0  0  0  0  0  0  0  0  0  0  0  # atno 6907 bound_to 6896
  150.7250  134.5440  159.5771 H   0  0  0  0  0  0  0  0  0  0  0  0  # atno 6908 bound_to 6896
  152.2903  134.7730  160.0430 H   0  0  0  0  0  0  0  0  0  0  0  0  # atno 6909 bound_to 6896
  146.2139  139.8273  142.8667 H   0  0  0  0  0  0  0  0  0  0  0  0  # atno 7974 bound_to 7965
  154.7783  140.2814  155.6084 H   0  0  0  0  0  0  0  0  0  0  0  0  # atno 8008 bound_to 7997
  156.2945  140.2628  156.2530 H   0  0  0  0  0  0  0  0  0  0  0  0  # atno 8009 bound_to 7997
  154.9816  140.0374  157.2269 H   0  0  0  0  0  0  0  0  0  0  0  0  # atno 8010 bound_to 7997
  139.7173  143.9013  152.2490 H   0  0  0  0  0  0  0  0  0  0  0  0  # atno 10167 bound_to 10162
  156.8475  130.5542  149.5672 H   0  0  0  0  0  0  0  0  0  0  0  0  # atno 10718 bound_to 10713
  153.1357  135.4664  154.9418 H   0  0  0  0  0  0  0  0  0  0  0  0  # atno 10763 bound_to 10752
  154.7703  135.3157  154.8205 H   0  0  0  0  0  0  0  0  0  0  0  0  # atno 10764 bound_to 10752
  153.8738  135.6901  153.4826 H   0  0  0  0  0  0  0  0  0  0  0  0  # atno 10765 bound_to 10752
  140.5740  134.0075  155.8020 H   0  0  0  0  0  0  0  0  0  0  0  0  # atno 11005 bound_to 11000
  145.3034  141.0200  143.3596 LP  0  0  0  0  0  0  0  0  0  0  0  0  # atno 17320 bound_to 7965
  144.8989  139.4675  143.6642 LP  0  0  0  0  0  0  0  0  0  0  0  0  # atno 17321 bound_to 7965
  139.8899  144.6971  150.8782 LP  0  0  0  0  0  0  0  0  0  0  0  0  # atno 17342 bound_to 10162
  140.7746  143.3595  151.1856 LP  0  0  0  0  0  0  0  0  0  0  0  0  # atno 17343 bound_to 10162
  156.0846  130.5848  150.9625 LP  0  0  0  0  0  0  0  0  0  0  0  0  # atno 17370 bound_to 10713
  157.6321  131.0920  150.8420 LP  0  0  0  0  0  0  0  0  0  0  0  0  # atno 17371 bound_to 10713
  141.1038  133.9726  157.3033 LP  0  0  0  0  0  0  0  0  0  0  0  0  # atno 17394 bound_to 11000
  139.9348  135.0197  156.8520 LP  0  0  0  0  0  0  0  0  0  0  0  0  # atno 17395 bound_to 11000

$$$$
