AV-unprocessed.smi:500|AV-procd|sdf|2736|dock7
  -GOLD-   2262023193D 1   1.00000     0.00000
 Structure written by MMmdl.
 46 48  0  0  0  0  0  0  0  0  2 V2000
  151.7531  130.1462  155.8133 C   0  0  0  0  0  0  0  0  0  0  0  0
  150.8947  129.0546  155.1706 C   0  0  0  0  0  0  0  0  0  0  0  0
  149.5429  129.4784  155.1762 O   0  0  0  0  0  0  0  0  0  0  0  0
  149.2252  130.3280  154.0862 C   0  0  0  0  0  0  0  0  0  0  0  0
  147.7598  130.7725  154.1896 C   0  0  0  0  0  0  0  0  0  0  0  0
  147.5170  132.0542  153.5095 N   0  0  0  0  0  0  0  0  0  0  0  0
  148.0631  133.2864  153.7280 C   0  0  0  0  0  0  0  0  0  0  0  0
  149.1080  133.6408  154.7441 C   0  0  2  0  0  0  0  0  0  0  0  0
  148.7005  133.1953  156.1571 C   0  0  0  0  0  0  0  0  0  0  0  0
  149.3684  135.0773  154.7403 N   0  0  0  0  0  0  0  0  0  0  0  0
  150.2228  135.7258  155.5479 C   0  0  0  0  0  0  0  0  0  0  0  0
  150.8877  135.1729  156.4233 O   0  0  0  0  0  0  0  0  0  0  0  0
  150.3221  137.1824  155.3372 C   0  0  0  0  0  0  0  0  0  0  0  0
  149.4120  138.0966  154.8744 C   0  0  0  0  0  0  0  0  0  0  0  0
  150.0669  139.3594  154.8754 C   0  0  0  0  0  0  0  0  0  0  0  0
  151.3311  139.1263  155.3347 C   0  0  0  0  0  0  0  0  0  0  0  0
  151.5030  137.8065  155.6176 O   0  0  0  0  0  0  0  0  0  0  0  0
  147.5107  134.1354  152.8135 N   0  3  0  0  0  0  0  0  0  0  0  0
  146.5834  133.4511  152.0282 C   0  0  0  0  0  0  0  0  0  0  0  0
  145.7672  133.8920  150.9910 C   0  0  0  0  0  0  0  0  0  0  0  0
  144.9227  132.9307  150.3980 C   0  0  0  0  0  0  0  0  0  0  0  0
  144.9127  131.5915  150.8387 C   0  0  0  0  0  0  0  0  0  0  0  0
  145.7475  131.1563  151.8889 C   0  0  0  0  0  0  0  0  0  0  0  0
  146.5799  132.1130  152.4706 C   0  0  0  0  0  0  0  0  0  0  0  0
  152.8050  129.8597  155.8226 H   0  0  0  0  0  0  0  0  0  0  0  0
  151.4468  130.3289  156.8435 H   0  0  0  0  0  0  0  0  0  0  0  0
  151.6663  131.0851  155.2660 H   0  0  0  0  0  0  0  0  0  0  0  0
  151.2278  128.8727  154.1477 H   0  0  0  0  0  0  0  0  0  0  0  0
  151.0003  128.1212  155.7256 H   0  0  0  0  0  0  0  0  0  0  0  0
  149.8794  131.2013  154.0901 H   0  0  0  0  0  0  0  0  0  0  0  0
  149.3868  129.8035  153.1434 H   0  0  0  0  0  0  0  0  0  0  0  0
  147.1098  130.0252  153.7370 H   0  0  0  0  0  0  0  0  0  0  0  0
  147.4473  130.8511  155.2308 H   0  0  0  0  0  0  0  0  0  0  0  0
  150.0176  133.0940  154.4918 H   0  0  0  0  0  0  0  0  0  0  0  0
  148.5171  132.1209  156.1905 H   0  0  0  0  0  0  0  0  0  0  0  0
  147.7954  133.7003  156.4964 H   0  0  0  0  0  0  0  0  0  0  0  0
  149.4896  133.4150  156.8771 H   0  0  0  0  0  0  0  0  0  0  0  0
  148.8640  135.6264  154.0596 H   0  0  0  0  0  0  0  0  0  0  0  0
  148.3971  137.8858  154.5710 H   0  0  0  0  0  0  0  0  0  0  0  0
  149.6650  140.3164  154.5771 H   0  0  0  0  0  0  0  0  0  0  0  0
  152.1930  139.7526  155.5124 H   0  0  0  0  0  0  0  0  0  0  0  0
  145.7719  134.9180  150.6531 H   0  0  0  0  0  0  0  0  0  0  0  0
  144.2683  133.2263  149.5908 H   0  0  0  0  0  0  0  0  0  0  0  0
  144.2503  130.8830  150.3627 H   0  0  0  0  0  0  0  0  0  0  0  0
  145.7260  130.1293  152.2218 H   0  0  0  0  0  0  0  0  0  0  0  0
  147.7465  135.1168  152.7426 H   0  0  0  0  0  0  0  0  0  0  0  0
  1  2  1  0  0  0  0
  1 25  1  0  0  0  0
  1 26  1  0  0  0  0
  1 27  1  0  0  0  0
  2  3  1  0  0  0  0
  2 28  1  0  0  0  0
  2 29  1  0  0  0  0
  3  4  1  0  0  0  0
  4  5  1  0  0  0  0
  4 30  1  0  0  0  0
  4 31  1  0  0  0  0
  5  6  1  0  0  0  0
  5 32  1  0  0  0  0
  5 33  1  0  0  0  0
  6 24  1  0  0  0  0
  6  7  1  0  0  0  0
  7  8  1  0  0  0  0
  7 18  2  0  0  0  0
  8  9  1  0  0  0  0
  8 10  1  0  0  0  0
  8 34  1  0  0  0  0
  9 35  1  0  0  0  0
  9 36  1  0  0  0  0
  9 37  1  0  0  0  0
 10 11  1  0  0  0  0
 10 38  1  0  0  0  0
 11 12  2  0  0  0  0
 11 13  1  0  0  0  0
 13 17  1  0  0  0  0
 13 14  2  0  0  0  0
 14 15  1  0  0  0  0
 14 39  1  0  0  0  0
 15 16  2  0  0  0  0
 15 40  1  0  0  0  0
 16 17  1  0  0  0  0
 16 41  1  0  0  0  0
 18 19  1  0  0  0  0
 18 46  1  0  0  0  0
 19 24  2  0  0  0  0
 19 20  1  0  0  0  0
 20 21  2  0  0  0  0
 20 42  1  0  0  0  0
 21 22  1  0  0  0  0
 21 43  1  0  0  0  0
 22 23  2  0  0  0  0
 22 44  1  0  0  0  0
 23 24  1  0  0  0  0
 23 45  1  0  0  0  0
M  CHG  1  18   1
M  END
> <s_m_source_file>
AV-unprocessed.smi

> <i_m_source_file_index>
500

> <i_lp_mmshare_version>
43012

> <i_f3d_flags>
0

> <s_epik_input>
W0NIM11bQ0gyXU9bQ0gyXVtDSDJdbihjKGMxMilbY0hdW2NIXVtjSF1bY0hdMiljKG4xKVtDQEhdKFtDSDNdKVtOSF1DKD1PKWMzW2NIXVtjSF1bY0hdbzM=

> <s_epik_cmdline>
J2VwaWtfcHl0aG9uJywgJy1waCcsICc3LjAnLCAnLXRuJywgJzgnLCAnLW1hJywgJzIwMCcsICctbWV0YWxfYmluZGluZycsICctaW1hZScsICc8aW5maWxlLm1hZT4nLCAnLW9tYWUnLCAnPG91dGZpbGUubWFlPic=

> <r_epik_Ionization_Penalty>
1.05286

> <r_epik_Ionization_Penalty_Charging>
1.05283

> <r_epik_Ionization_Penalty_Neutral>
2.09263e-05

> <r_epik_State_Penalty>
1.10586

> <r_epik_Charging_Adjusted_Penalty>
2.15869

> <i_epik_Tot_Q>
1

> <i_epik_Tot_abs_Q>
1

> <r_epik_Metal_State_Penalty>
1.22833

> <b_epik_Metal_Only>
0

> <s_lp_Force_Field>
OPLS_2005

> <r_lp_Energy>
11.0053

> <b_lp_Chiralities_Consistent>
1

> <s_lp_Variant>
AV-unprocessed.smi:500-3

> <Gold.Version>
5.8.1

> <Gold.Id.Protein>
6NUR|6NUR_protein|mol2

> <Gold.PLP.Fitness>
55.3511

> <Gold.PLP.PLP>
-45.5531

> <Gold.PLP.part.hbond>
-3.6287

> <Gold.PLP.part.metal>
0.0000

> <Gold.PLP.part.buried>
-2.7683

> <Gold.PLP.part.nonpolar>
-37.8225

> <Gold.PLP.part.repulsive>
0.2000

> <Gold.PLP.ligand.clash>
0.0000

> <Gold.PLP.ligand.torsion>
0.7325

> <Gold.PLP.Chemscore.Hbond>
3.7296

> <Gold.PLP.Chemscore.CHOScore>
0.0000

> <Gold.PLP.Chemscore.Metal>
0.0000

> <Gold.Chemscore.Hbonds>
donor molecule, donor type, donor heavy atom, donor atom, acceptor molecule, acceptor atom, score
      L1  H    10    38       P1  7948  0.33
      L1  H    18    46       P1  7948  1.54

> <Gold.PLP.Chemscore.Internal.Correction>
0.0742

> <Gold.Rescore>
     Score         DG    S(hbond)    S(metal)    S(lipo)     H(rot)  DE(clash)    DE(int)     intcor
     15.23     -17.17       1.49        0.00     100.70       1.97       0.06       1.88       ----

> <Gold.Chemscore.Fitness>
15.2261

> <Gold.Chemscore.DG>
-17.1739

> <Gold.Chemscore.ZeroCoef>
-5.4800

> <Gold.Chemscore.Hbond>
1.4872

> <Gold.Chemscore.Metal>
0.0000

> <Gold.Chemscore.Lipo>
100.6964

> <Gold.Chemscore.Internal_Hbond>
0.0000

> <Gold.Chemscore.DEClash>
0.0634

> <Gold.Chemscore.DEInternal>
1.8844

> <Gold.Chemscore.Rot>
1.9746

> <Gold.Chemscore.Internal.Correction>
   9.000000E+99

> <Gold.Chemscore.Hbonds>
donor molecule, donor type, donor heavy atom, donor atom, acceptor molecule, acceptor atom, score
      L1  H    10    38       P1  7948  0.31
      L1  H    18    46       P1  7948  0.75

> <Gold.Chemscore.Hbond.Weighted>
-4.9674

> <Gold.Chemscore.Metal.Weighted>
-0.0000

> <Gold.Chemscore.Lipo.Weighted>
-11.7815

> <Gold.Chemscore.Internal_Hbond.Weighted>
0.0000

> <Gold.Chemscore.DEClash.Weighted>
0.0634

> <Gold.Chemscore.DEInternal.Weighted>
1.8844

> <Gold.Chemscore.Rot.Weighted>
5.0550

> <Gold.Chemscore.Internal.Correction.Weighted>
   9.000000E+99

> <Gold.Protein.RotatedTorsions>
[ 6907 6896 6895 6894 ] final  -35.38 input  -60.11 | X-H torsion
[ 7974 7965 7964 7962 ] final  172.56 input  175.53 | X-H torsion
[ 8008 7997 7996 7995 ] final -168.94 input   59.86 | X-H torsion
[ 10167 10162 10161 10158 ] final  152.16 input  -65.29 | X-H torsion
[ 10718 10713 10712 10709 ] final   94.04 input   66.30 | X-H torsion
[ 10763 10752 10751 10750 ] final  -25.22 input  -60.55 | X-H torsion
[ 11005 11000 10999 10996 ] final -163.80 input  -57.11 | X-H torsion

> <Gold.Protein.ActiveResidues>
 VAL166  LYS551  ARG553  GLY616  TRP617  ASP618  TYR619  PRO620  LYS621  CYS622 
 ASP623  PHE694  ASN695  SER759  ASP760  ASP761  ALA762  ILE779  LEU786  VAL792 
 PHE793  MET794  SER795  GLU796  ALA797  LYS798  CYS799  TRP800  GLU811  SER814 

> <Gold.Protein.RotatedAtoms>
  151.0406  134.9604  159.8159 H   0  0  0  0  0  0  0  0  0  0  0  0  # atno 6907 bound_to 6896
  152.5363  134.2663  159.8964 H   0  0  0  0  0  0  0  0  0  0  0  0  # atno 6908 bound_to 6896
  151.2675  133.4229  159.2653 H   0  0  0  0  0  0  0  0  0  0  0  0  # atno 6909 bound_to 6896
  144.7265  139.9516  143.6432 H   0  0  0  0  0  0  0  0  0  0  0  0  # atno 7974 bound_to 7965
  155.8982  140.1036  157.1369 H   0  0  0  0  0  0  0  0  0  0  0  0  # atno 8008 bound_to 7997
  154.4023  140.1297  156.4467 H   0  0  0  0  0  0  0  0  0  0  0  0  # atno 8009 bound_to 7997
  155.7453  140.3466  155.5126 H   0  0  0  0  0  0  0  0  0  0  0  0  # atno 8010 bound_to 7997
  139.4835  144.5381  151.7611 H   0  0  0  0  0  0  0  0  0  0  0  0  # atno 10167 bound_to 10162
  157.6951  131.0499  150.4125 H   0  0  0  0  0  0  0  0  0  0  0  0  # atno 10718 bound_to 10713
  153.6963  135.6959  153.5076 H   0  0  0  0  0  0  0  0  0  0  0  0  # atno 10763 bound_to 10752
  153.2376  135.4317  155.0662 H   0  0  0  0  0  0  0  0  0  0  0  0  # atno 10764 bound_to 10752
  154.8358  135.3499  154.6503 H   0  0  0  0  0  0  0  0  0  0  0  0  # atno 10765 bound_to 10752
  140.5940  134.5015  157.5197 H   0  0  0  0  0  0  0  0  0  0  0  0  # atno 11005 bound_to 11000
  146.0707  139.3696  143.0525 LP  0  0  0  0  0  0  0  0  0  0  0  0  # atno 17320 bound_to 7965
  145.7972  140.9787  143.1018 LP  0  0  0  0  0  0  0  0  0  0  0  0  # atno 17321 bound_to 7965
  140.4916  144.1301  150.5951 LP  0  0  0  0  0  0  0  0  0  0  0  0  # atno 17342 bound_to 10162
  140.4164  143.2632  151.9769 LP  0  0  0  0  0  0  0  0  0  0  0  0  # atno 17343 bound_to 10162
  156.4508  130.4011  149.6637 LP  0  0  0  0  0  0  0  0  0  0  0  0  # atno 17370 bound_to 10713
  156.3787  130.7568  151.2559 LP  0  0  0  0  0  0  0  0  0  0  0  0  # atno 17371 bound_to 10713
  139.9261  134.8053  156.1064 LP  0  0  0  0  0  0  0  0  0  0  0  0  # atno 17394 bound_to 11000
  141.0916  133.6712  156.2553 LP  0  0  0  0  0  0  0  0  0  0  0  0  # atno 17395 bound_to 11000

$$$$
