AV-unprocessed.smi:3113|AV-procd|sdf|11852|dock3
  -GOLD-   2272017233D 1   1.00000     0.00000
 Structure written by MMmdl.
 35 36  0  0  0  0  0  0  0  0  2 V2000
  151.3725  138.2324  154.9007 C   0  0  0  0  0  0  0  0  0  0  0  0
  150.0149  138.2823  154.4768 C   0  0  0  0  0  0  0  0  0  0  0  0
  149.4585  139.4647  154.6863 N   0  0  0  0  0  0  0  0  0  0  0  0
  150.4395  140.2067  155.2440 N   0  0  0  0  0  0  0  0  0  0  0  0
  150.1763  141.5835  155.6165 C   0  0  0  0  0  0  0  0  0  0  0  0
  150.4080  141.8243  157.1155 C   0  0  0  0  0  0  0  0  0  0  0  0
  150.6750  143.2495  157.3882 N   0  3  0  0  0  0  0  0  0  0  0  0
  150.4757  143.6386  158.7984 C   0  0  0  0  0  0  0  0  0  0  0  0
  151.7646  143.4497  159.6114 C   0  0  2  0  0  0  0  0  0  0  0  0
  152.3132  142.0142  159.4930 C   0  0  0  0  0  0  0  0  0  0  0  0
  153.5391  141.8275  160.3944 C   0  0  0  0  0  0  0  0  0  0  0  0
  153.1960  142.2509  161.8262 C   0  0  0  0  0  0  0  0  0  0  0  0
  152.6010  143.6676  161.8344 C   0  0  0  0  0  0  0  0  0  0  0  0
  151.4628  143.7209  160.9792 O   0  0  0  0  0  0  0  0  0  0  0  0
  151.6063  139.4856  155.3898 C   0  0  0  0  0  0  0  0  0  0  0  0
  152.0650  137.4049  154.8542 H   0  0  0  0  0  0  0  0  0  0  0  0
  149.4215  137.4997  154.0274 H   0  0  0  0  0  0  0  0  0  0  0  0
  150.8199  142.2318  155.0201 H   0  0  0  0  0  0  0  0  0  0  0  0
  149.1468  141.8240  155.3477 H   0  0  0  0  0  0  0  0  0  0  0  0
  149.5314  141.5094  157.6834 H   0  0  0  0  0  0  0  0  0  0  0  0
  151.2520  141.2293  157.4670 H   0  0  0  0  0  0  0  0  0  0  0  0
  151.6294  143.4553  157.1296 H   0  0  0  0  0  0  0  0  0  0  0  0
  150.1446  144.6767  158.8528 H   0  0  0  0  0  0  0  0  0  0  0  0
  149.6781  143.0236  159.2174 H   0  0  0  0  0  0  0  0  0  0  0  0
  152.5187  144.1556  159.2574 H   0  0  0  0  0  0  0  0  0  0  0  0
  151.5399  141.2992  159.7779 H   0  0  0  0  0  0  0  0  0  0  0  0
  152.5770  141.7936  158.4580 H   0  0  0  0  0  0  0  0  0  0  0  0
  153.8733  140.7898  160.3739 H   0  0  0  0  0  0  0  0  0  0  0  0
  154.3666  142.4319  160.0207 H   0  0  0  0  0  0  0  0  0  0  0  0
  152.4768  141.5513  162.2538 H   0  0  0  0  0  0  0  0  0  0  0  0
  154.0852  142.2105  162.4561 H   0  0  0  0  0  0  0  0  0  0  0  0
  152.2948  143.9391  162.8449 H   0  0  0  0  0  0  0  0  0  0  0  0
  153.3420  144.4034  161.5183 H   0  0  0  0  0  0  0  0  0  0  0  0
  152.4963  139.9180  155.8232 H   0  0  0  0  0  0  0  0  0  0  0  0
  150.0572  143.8067  156.8151 H   0  0  0  0  0  0  0  0  0  0  0  0
  1 15  2  0  0  0  0
  1  2  1  0  0  0  0
  1 16  1  0  0  0  0
  2  3  2  0  0  0  0
  2 17  1  0  0  0  0
  3  4  1  0  0  0  0
  4  5  1  0  0  0  0
  4 15  1  0  0  0  0
  5  6  1  0  0  0  0
  5 18  1  0  0  0  0
  5 19  1  0  0  0  0
  6  7  1  0  0  0  0
  6 20  1  0  0  0  0
  6 21  1  0  0  0  0
  7  8  1  0  0  0  0
  7 22  1  0  0  0  0
  7 35  1  0  0  0  0
  8  9  1  0  0  0  0
  8 23  1  0  0  0  0
  8 24  1  0  0  0  0
  9 14  1  0  0  0  0
  9 10  1  0  0  0  0
  9 25  1  0  0  0  0
 10 11  1  0  0  0  0
 10 26  1  0  0  0  0
 10 27  1  0  0  0  0
 11 12  1  0  0  0  0
 11 28  1  0  0  0  0
 11 29  1  0  0  0  0
 12 13  1  0  0  0  0
 12 30  1  0  0  0  0
 12 31  1  0  0  0  0
 13 14  1  0  0  0  0
 13 32  1  0  0  0  0
 13 33  1  0  0  0  0
 15 34  1  0  0  0  0
M  CHG  1   7   1
M  END
> <s_m_source_file>
AV-unprocessed.smi

> <i_m_source_file_index>
3113

> <i_lp_mmshare_version>
43012

> <i_f3d_flags>
0

> <s_epik_input>
W2NIXTFbY0hdW2NIXW5uMVtDSDJdW0NIMl1bTkhdW0NIMl1bQ0BASF0yW0NIMl1bQ0gyXVtDSDJdW0NIMl1PMg==

> <s_epik_cmdline>
J2VwaWtfcHl0aG9uJywgJy1waCcsICc3LjAnLCAnLXRuJywgJzgnLCAnLW1hJywgJzIwMCcsICctbWV0YWxfYmluZGluZycsICctaW1hZScsICc8aW5maWxlLm1hZT4nLCAnLW9tYWUnLCAnPG91dGZpbGUubWFlPic=

> <r_lp_tautomer_probability>
1

> <r_epik_Ionization_Penalty>
0.00849054

> <r_epik_Ionization_Penalty_Charging>
0.00848754

> <r_epik_Ionization_Penalty_Neutral>
3.00382e-06

> <r_epik_State_Penalty>
0.00639836

> <r_epik_Charging_Adjusted_Penalty>
0.0148859

> <i_epik_Tot_Q>
1

> <i_epik_Tot_abs_Q>
1

> <r_epik_Metal_State_Penalty>
0.00641155

> <b_epik_Metal_Only>
0

> <s_lp_Force_Field>
OPLS_2005

> <r_lp_Energy>
10.9258

> <b_lp_Chiralities_Consistent>
1

> <s_lp_Variant>
AV-unprocessed.smi:3113-1

> <Gold.Version>
5.8.1

> <Gold.Id.Protein>
6NUR|6NUR_protein|mol2

> <Gold.PLP.Fitness>
48.0140

> <Gold.PLP.PLP>
-39.7957

> <Gold.PLP.part.hbond>
-1.7464

> <Gold.PLP.part.metal>
0.0000

> <Gold.PLP.part.buried>
-2.9176

> <Gold.PLP.part.nonpolar>
-34.0420

> <Gold.PLP.part.repulsive>
0.2696

> <Gold.PLP.ligand.clash>
0.0000

> <Gold.PLP.ligand.torsion>
0.3958

> <Gold.PLP.Chemscore.Hbond>
2.0000

> <Gold.PLP.Chemscore.CHOScore>
1.0000

> <Gold.PLP.Chemscore.Metal>
0.0000

> <Gold.Chemscore.Hbonds>
donor molecule, donor type, donor heavy atom, donor atom, acceptor molecule, acceptor atom, score
      L1  H     7    35       P1  8028  2.00
      L1  C     2    17       P1  7948  1.00

> <Gold.PLP.Chemscore.Internal.Correction>
0.0099

> <Gold.Rescore>
     Score         DG    S(hbond)    S(metal)    S(lipo)     H(rot)  DE(clash)    DE(int)     intcor
     15.65     -16.14       1.00        0.00      99.71       1.70       0.05       0.44       ----

> <Gold.Chemscore.Fitness>
15.6490

> <Gold.Chemscore.DG>
-16.1380

> <Gold.Chemscore.ZeroCoef>
-5.4800

> <Gold.Chemscore.Hbond>
0.9999

> <Gold.Chemscore.Metal>
0.0000

> <Gold.Chemscore.Lipo>
99.7137

> <Gold.Chemscore.Internal_Hbond>
0.0000

> <Gold.Chemscore.DEClash>
0.0533

> <Gold.Chemscore.DEInternal>
0.4357

> <Gold.Chemscore.Rot>
1.6985

> <Gold.Chemscore.Internal.Correction>
   9.000000E+99

> <Gold.Chemscore.Hbonds>
donor molecule, donor type, donor heavy atom, donor atom, acceptor molecule, acceptor atom, score
      L1  H     7    35       P1  8028  1.00

> <Gold.Chemscore.Hbond.Weighted>
-3.3397

> <Gold.Chemscore.Metal.Weighted>
-0.0000

> <Gold.Chemscore.Lipo.Weighted>
-11.6665

> <Gold.Chemscore.Internal_Hbond.Weighted>
0.0000

> <Gold.Chemscore.DEClash.Weighted>
0.0533

> <Gold.Chemscore.DEInternal.Weighted>
0.4357

> <Gold.Chemscore.Rot.Weighted>
4.3482

> <Gold.Chemscore.Internal.Correction.Weighted>
   9.000000E+99

> <Gold.Protein.RotatedTorsions>
[ 6907 6896 6895 6894 ] final  153.23 input  -60.11 | X-H torsion
[ 7974 7965 7964 7962 ] final  138.86 input  175.53 | X-H torsion
[ 8008 7997 7996 7995 ] final   15.63 input   59.86 | X-H torsion
[ 10167 10162 10161 10158 ] final  162.96 input  -65.29 | X-H torsion
[ 10718 10713 10712 10709 ] final -169.75 input   66.30 | X-H torsion
[ 10763 10752 10751 10750 ] final  -69.66 input  -60.55 | X-H torsion
[ 11005 11000 10999 10996 ] final -147.75 input  -57.11 | X-H torsion

> <Gold.Protein.ActiveResidues>
 VAL166  LYS551  ARG553  GLY616  TRP617  ASP618  TYR619  PRO620  LYS621  CYS622 
 ASP623  PHE694  ASN695  SER759  ASP760  ASP761  ALA762  ILE779  LEU786  VAL792 
 PHE793  MET794  SER795  GLU796  ALA797  LYS798  CYS799  TRP800  GLU811  SER814 

> <Gold.Protein.RotatedAtoms>
  152.0756  133.4127  159.4477 H   0  0  0  0  0  0  0  0  0  0  0  0  # atno 6907 bound_to 6896
  150.6863  134.3042  159.4728 H   0  0  0  0  0  0  0  0  0  0  0  0  # atno 6908 bound_to 6896
  152.0878  134.9427  160.0623 H   0  0  0  0  0  0  0  0  0  0  0  0  # atno 6909 bound_to 6896
  144.9333  139.5020  143.5607 H   0  0  0  0  0  0  0  0  0  0  0  0  # atno 7974 bound_to 7965
  154.8653  140.2950  155.5514 H   0  0  0  0  0  0  0  0  0  0  0  0  # atno 8008 bound_to 7997
  156.3020  140.2470  156.3567 H   0  0  0  0  0  0  0  0  0  0  0  0  # atno 8009 bound_to 7997
  154.8874  140.0395  157.1808 H   0  0  0  0  0  0  0  0  0  0  0  0  # atno 8010 bound_to 7997
  139.4867  144.4385  151.8981 H   0  0  0  0  0  0  0  0  0  0  0  0  # atno 10167 bound_to 10162
  156.7162  130.9252  151.3093 H   0  0  0  0  0  0  0  0  0  0  0  0  # atno 10718 bound_to 10713
  154.4065  135.6019  153.5927 H   0  0  0  0  0  0  0  0  0  0  0  0  # atno 10763 bound_to 10752
  152.9789  135.5919  154.4121 H   0  0  0  0  0  0  0  0  0  0  0  0  # atno 10764 bound_to 10752
  154.3927  135.2842  155.2123 H   0  0  0  0  0  0  0  0  0  0  0  0  # atno 10765 bound_to 10752
  140.7684  134.3218  157.5082 H   0  0  0  0  0  0  0  0  0  0  0  0  # atno 11005 bound_to 11000
  146.3256  139.8299  142.8910 LP  0  0  0  0  0  0  0  0  0  0  0  0  # atno 17320 bound_to 7965
  145.3107  141.0219  143.3556 LP  0  0  0  0  0  0  0  0  0  0  0  0  # atno 17321 bound_to 7965
  140.3836  144.2705  150.5906 LP  0  0  0  0  0  0  0  0  0  0  0  0  # atno 17342 bound_to 10162
  140.5210  143.2266  151.8388 LP  0  0  0  0  0  0  0  0  0  0  0  0  # atno 17343 bound_to 10162
  157.6916  130.9239  150.0530 LP  0  0  0  0  0  0  0  0  0  0  0  0  # atno 17370 bound_to 10713
  156.1626  130.3644  149.9277 LP  0  0  0  0  0  0  0  0  0  0  0  0  # atno 17371 bound_to 10713
  139.8759  134.9245  156.3352 LP  0  0  0  0  0  0  0  0  0  0  0  0  # atno 17394 bound_to 11000
  140.9597  133.7396  156.0385 LP  0  0  0  0  0  0  0  0  0  0  0  0  # atno 17395 bound_to 11000

$$$$
