AV-unprocessed.smi:100|AV-procd|sdf|911|dock5
  -GOLD-   2262017413D 1   1.00000     0.00000
 Structure written by MMmdl.
 31 33  0  0  0  0  0  0  0  0  1 V2000
  153.6568  137.9978  156.7288 N   0  0  0  0  0  0  0  0  0  0  0  0
  152.5001  138.2065  156.0844 C   0  0  0  0  0  0  0  0  0  0  0  0
  152.1436  137.3407  155.1069 N   0  0  0  0  0  0  0  0  0  0  0  0
  150.9938  137.5262  154.4504 C   0  0  0  0  0  0  0  0  0  0  0  0
  150.0831  138.4890  154.6163 N   0  0  0  0  0  0  0  0  0  0  0  0
  150.4431  139.3614  155.6029 C   0  0  0  0  0  0  0  0  0  0  0  0
  151.6335  139.2895  156.3788 C   0  0  0  0  0  0  0  0  0  0  0  0
  151.6732  140.3418  157.2833 N   0  0  0  0  0  0  0  0  0  0  0  0
  150.5665  140.9956  157.0525 C   0  0  0  0  0  0  0  0  0  0  0  0
  149.7666  140.4767  156.0577 N   0  0  0  0  0  0  0  0  0  0  0  0
  148.4513  141.0109  155.5797 C   0  0  2  0  0  0  0  0  0  0  0  0
  147.5223  139.9736  155.5079 O   0  0  0  0  0  0  0  0  0  0  0  0
  146.6913  140.1158  154.3548 C   0  0  2  0  0  0  0  0  0  0  0  0
  146.8702  138.8694  153.4719 C   0  0  0  0  0  0  0  0  0  0  0  0
  148.1794  138.8253  152.9442 O   0  0  0  0  0  0  0  0  0  0  0  0
  147.1256  141.4217  153.6724 C   0  0  1  0  0  0  0  0  0  0  0  0
  146.3348  142.4169  154.0784 F   0  0  0  0  0  0  0  0  0  0  0  0
  148.5298  141.6619  154.1929 C   0  0  2  0  0  0  0  0  0  0  0  0
  149.5080  141.1007  153.3366 O   0  0  0  0  0  0  0  0  0  0  0  0
  153.9453  138.6289  157.4624 H   0  0  0  0  0  0  0  0  0  0  0  0
  154.2343  137.2067  156.4834 H   0  0  0  0  0  0  0  0  0  0  0  0
  150.7709  136.7997  153.6830 H   0  0  0  0  0  0  0  0  0  0  0  0
  150.3008  141.8843  157.6065 H   0  0  0  0  0  0  0  0  0  0  0  0
  148.1319  141.7125  156.3521 H   0  0  0  0  0  0  0  0  0  0  0  0
  145.6526  140.1784  154.6830 H   0  0  0  0  0  0  0  0  0  0  0  0
  146.6692  137.9547  154.0296 H   0  0  0  0  0  0  0  0  0  0  0  0
  146.1689  138.8983  152.6375 H   0  0  0  0  0  0  0  0  0  0  0  0
  148.3646  137.9383  152.6759 H   0  0  0  0  0  0  0  0  0  0  0  0
  147.0601  141.3951  152.5838 H   0  0  0  0  0  0  0  0  0  0  0  0
  148.7521  142.7242  154.3010 H   0  0  0  0  0  0  0  0  0  0  0  0
  149.0856  140.4696  152.7739 H   0  0  0  0  0  0  0  0  0  0  0  0
  1  2  1  0  0  0  0
  1 20  1  0  0  0  0
  1 21  1  0  0  0  0
  2  7  1  0  0  0  0
  2  3  2  0  0  0  0
  3  4  1  0  0  0  0
  4  5  2  0  0  0  0
  4 22  1  0  0  0  0
  5  6  1  0  0  0  0
  6 10  1  0  0  0  0
  6  7  2  0  0  0  0
  7  8  1  0  0  0  0
  8  9  2  0  0  0  0
  9 10  1  0  0  0  0
  9 23  1  0  0  0  0
 10 11  1  0  0  0  0
 11 18  1  0  0  0  0
 11 12  1  0  0  0  0
 11 24  1  0  0  0  0
 12 13  1  0  0  0  0
 13 14  1  0  0  0  0
 13 16  1  0  0  0  0
 13 25  1  0  0  0  0
 14 15  1  0  0  0  0
 14 26  1  0  0  0  0
 14 27  1  0  0  0  0
 15 28  1  0  0  0  0
 16 17  1  0  0  0  0
 16 18  1  0  0  0  0
 16 29  1  0  0  0  0
 18 19  1  0  0  0  0
 18 30  1  0  0  0  0
 19 31  1  0  0  0  0
M  END
> <s_m_source_file>
AV-unprocessed.smi

> <i_m_source_file_index>
100

> <i_lp_mmshare_version>
43012

> <i_f3d_flags>
0

> <s_epik_input>
bjFbY0hdbmMoW05IMl0pYyhjMTIpbltjSF1uMltDQEBIXTNPW0NAQEhdKFtDSDJdW09IXSlbQ0BIXShGKVtDQEhdM1tPSF0=

> <s_epik_cmdline>
J2VwaWtfcHl0aG9uJywgJy1waCcsICc3LjAnLCAnLXRuJywgJzgnLCAnLW1hJywgJzIwMCcsICctbWV0YWxfYmluZGluZycsICctaW1hZScsICc8aW5maWxlLm1hZT4nLCAnLW9tYWUnLCAnPG91dGZpbGUubWFlPic=

> <r_lp_tautomer_probability>
1

> <r_epik_Ionization_Penalty>
0.000750324

> <r_epik_Ionization_Penalty_Charging>
0

> <r_epik_Ionization_Penalty_Neutral>
0.000750324

> <r_epik_State_Penalty>
-0

> <r_epik_Charging_Adjusted_Penalty>
0

> <i_epik_Tot_Q>
0

> <i_epik_Tot_abs_Q>
0

> <r_epik_Metal_State_Penalty>
-0

> <b_epik_Metal_Only>
0

> <s_epik_Chemistry_Notes>
This compound contains an acetal/aminal-like group ( X-CH(R)-Y where X, Y are N, S, or O) that may be acid/base labile, releasing an aldehyde.

> <s_lp_Force_Field>
OPLS_2005

> <r_lp_Energy>
38.301

> <b_lp_Chiralities_Consistent>
1

> <s_lp_Variant>
AV-unprocessed.smi:100-15

> <Gold.Version>
5.8.1

> <Gold.Id.Protein>
6NUR|6NUR_protein|mol2

> <Gold.PLP.Fitness>
43.6687

> <Gold.PLP.PLP>
-30.9248

> <Gold.PLP.part.hbond>
-5.6045

> <Gold.PLP.part.metal>
0.0000

> <Gold.PLP.part.buried>
-5.1546

> <Gold.PLP.part.nonpolar>
-22.2739

> <Gold.PLP.part.repulsive>
1.7536

> <Gold.PLP.ligand.clash>
0.0000

> <Gold.PLP.ligand.torsion>
0.2927

> <Gold.PLP.Chemscore.Hbond>
3.4100

> <Gold.PLP.Chemscore.CHOScore>
1.0326

> <Gold.PLP.Chemscore.Metal>
0.0000

> <Gold.Chemscore.Hbonds>
donor molecule, donor type, donor heavy atom, donor atom, acceptor molecule, acceptor atom, score
      L1  H    15    28       P1  7948  1.00
      L1  H    19    31       P1  7957  0.50
      P1  H  7989  7998       L1    19  0.13
      P1  H  8011  8017       L1    19  1.00
      P1  H 10752 10763       L1     3  0.80
      L1  C     4    22       P1  7948  0.26
      L1  C     4    22       P1  7949  0.77

> <Gold.PLP.Chemscore.Internal.Correction>
0.0014

> <Gold.Rescore>
     Score         DG    S(hbond)    S(metal)    S(lipo)     H(rot)  DE(clash)    DE(int)     intcor
      9.55     -10.95       2.98        0.00      31.66       3.19       0.10       1.31       ----

> <Gold.Chemscore.Fitness>
9.5482

> <Gold.Chemscore.DG>
-10.9548

> <Gold.Chemscore.ZeroCoef>
-5.4800

> <Gold.Chemscore.Hbond>
2.9753

> <Gold.Chemscore.Metal>
0.0000

> <Gold.Chemscore.Lipo>
31.6582

> <Gold.Chemscore.Internal_Hbond>
0.0000

> <Gold.Chemscore.DEClash>
0.0960

> <Gold.Chemscore.DEInternal>
1.3106

> <Gold.Chemscore.Rot>
3.1901

> <Gold.Chemscore.Internal.Correction>
   9.000000E+99

> <Gold.Chemscore.Hbonds>
donor molecule, donor type, donor heavy atom, donor atom, acceptor molecule, acceptor atom, score
      L1  H    15    28       P1  7948  0.99
      L1  H    19    31       P1  7957  0.50
      P1  H  7989  7998       L1    19  0.12
      P1  H  8011  8017       L1    19  0.11
      P1  H 10752 10763       L1     3  0.64

> <Gold.Chemscore.Hbond.Weighted>
-9.9375

> <Gold.Chemscore.Metal.Weighted>
-0.0000

> <Gold.Chemscore.Lipo.Weighted>
-3.7040

> <Gold.Chemscore.Internal_Hbond.Weighted>
0.0000

> <Gold.Chemscore.DEClash.Weighted>
0.0960

> <Gold.Chemscore.DEInternal.Weighted>
1.3106

> <Gold.Chemscore.Rot.Weighted>
8.1667

> <Gold.Chemscore.Internal.Correction.Weighted>
   9.000000E+99

> <Gold.Protein.RotatedTorsions>
[ 6907 6896 6895 6894 ] final   -1.96 input  -60.11 | X-H torsion
[ 7974 7965 7964 7962 ] final   73.93 input  175.53 | X-H torsion
[ 8008 7997 7996 7995 ] final  163.81 input   59.86 | X-H torsion
[ 10167 10162 10161 10158 ] final    7.93 input  -65.29 | X-H torsion
[ 10718 10713 10712 10709 ] final  -73.27 input   66.30 | X-H torsion
[ 10763 10752 10751 10750 ] final   63.58 input  -60.55 | X-H torsion
[ 11005 11000 10999 10996 ] final   19.72 input  -57.11 | X-H torsion

> <Gold.Protein.ActiveResidues>
 VAL166  LYS551  ARG553  GLY616  TRP617  ASP618  TYR619  PRO620  LYS621  CYS622 
 ASP623  PHE694  ASN695  SER759  ASP760  ASP761  ALA762  ILE779  LEU786  VAL792 
 PHE793  MET794  SER795  GLU796  ALA797  LYS798  CYS799  TRP800  GLU811  SER814 

> <Gold.Protein.RotatedAtoms>
  151.5377  135.1068  159.9918 H   0  0  0  0  0  0  0  0  0  0  0  0  # atno 6907 bound_to 6896
  152.4550  133.7700  159.6804 H   0  0  0  0  0  0  0  0  0  0  0  0  # atno 6908 bound_to 6896
  150.8490  133.7750  159.3057 H   0  0  0  0  0  0  0  0  0  0  0  0  # atno 6909 bound_to 6896
  145.7346  139.2697  143.1521 H   0  0  0  0  0  0  0  0  0  0  0  0  # atno 7974 bound_to 7965
  156.1928  140.1713  156.8057 H   0  0  0  0  0  0  0  0  0  0  0  0  # atno 8008 bound_to 7997
  154.5493  140.0721  156.8673 H   0  0  0  0  0  0  0  0  0  0  0  0  # atno 8009 bound_to 7997
  155.3060  140.3364  155.4248 H   0  0  0  0  0  0  0  0  0  0  0  0  # atno 8010 bound_to 7997
  140.6344  143.7920  150.7339 H   0  0  0  0  0  0  0  0  0  0  0  0  # atno 10167 bound_to 10162
  156.0287  130.4390  150.2717 H   0  0  0  0  0  0  0  0  0  0  0  0  # atno 10718 bound_to 10713
  153.0023  135.5424  154.6375 H   0  0  0  0  0  0  0  0  0  0  0  0  # atno 10763 bound_to 10752
  154.5638  135.2836  155.0896 H   0  0  0  0  0  0  0  0  0  0  0  0  # atno 10764 bound_to 10752
  154.2088  135.6471  153.5161 H   0  0  0  0  0  0  0  0  0  0  0  0  # atno 10765 bound_to 10752
  140.4105  134.1623  155.7667 H   0  0  0  0  0  0  0  0  0  0  0  0  # atno 11005 bound_to 11000
  146.0505  140.8074  142.9784 LP  0  0  0  0  0  0  0  0  0  0  0  0  # atno 17320 bound_to 7965
  144.6884  140.3045  143.7258 LP  0  0  0  0  0  0  0  0  0  0  0  0  # atno 17321 bound_to 7965
  140.1539  143.4334  152.2113 LP  0  0  0  0  0  0  0  0  0  0  0  0  # atno 17342 bound_to 10162
  139.5555  144.7369  151.4307 LP  0  0  0  0  0  0  0  0  0  0  0  0  # atno 17343 bound_to 10162
  157.0820  131.0146  151.3153 LP  0  0  0  0  0  0  0  0  0  0  0  0  # atno 17370 bound_to 10713
  157.4920  130.7828  149.7517 LP  0  0  0  0  0  0  0  0  0  0  0  0  # atno 17371 bound_to 10713
  141.1823  133.8388  157.1214 LP  0  0  0  0  0  0  0  0  0  0  0  0  # atno 17394 bound_to 11000
  140.0271  134.9919  157.0707 LP  0  0  0  0  0  0  0  0  0  0  0  0  # atno 17395 bound_to 11000

$$$$
