AV-unprocessed.smi:2755|AV-procd|sdf|10617|dock5
  -GOLD-   2272015 63D 1   1.00000     0.00000
 Structure written by MMmdl.
 32 32  0  0  0  0  0  0  0  0  1 V2000
  151.4796  145.6436  159.6915 C   0  0  0  0  0  0  0  0  0  0  0  0
  152.2402  144.3818  159.2697 C   0  0  0  0  0  0  0  0  0  0  0  0
  152.6370  143.5038  160.4652 C   0  0  0  0  0  0  0  0  0  0  0  0
  153.1623  142.1267  160.0354 C   0  0  0  0  0  0  0  0  0  0  0  0
  153.8303  141.3651  161.1878 C   0  0  0  0  0  0  0  0  0  0  0  0
  153.6762  139.9299  161.0022 N   0  0  0  0  0  0  0  0  0  0  0  0
  154.3518  139.1944  160.1043 C   0  0  0  0  0  0  0  0  0  0  0  0
  155.1921  139.6789  159.3473 O   0  0  0  0  0  0  0  0  0  0  0  0
  154.0562  137.6867  160.0252 C   0  0  0  0  0  0  0  0  0  0  0  0
  154.2021  136.9608  161.2908 N   0  0  0  0  0  0  0  0  0  0  0  0
  154.1957  137.7029  162.4477 N   0  0  0  0  0  0  0  0  0  0  0  0
  154.3262  136.8834  163.4306 C   0  0  0  0  0  0  0  0  0  0  0  0
  154.3680  137.2153  164.7691 N   0  0  0  0  0  0  0  0  0  0  0  0
  154.4720  135.1436  163.0971 S   0  0  0  0  0  0  0  0  0  0  0  0
  154.3403  135.5711  161.3792 C   0  0  0  0  0  0  0  0  0  0  0  0
  154.3636  134.7432  160.4703 O   0  0  0  0  0  0  0  0  0  0  0  0
  151.2135  146.2453  158.8222 H   0  0  0  0  0  0  0  0  0  0  0  0
  152.0836  146.2646  160.3537 H   0  0  0  0  0  0  0  0  0  0  0  0
  150.5577  145.3911  160.2159 H   0  0  0  0  0  0  0  0  0  0  0  0
  151.6231  143.8046  158.5803 H   0  0  0  0  0  0  0  0  0  0  0  0
  153.1338  144.6711  158.7153 H   0  0  0  0  0  0  0  0  0  0  0  0
  153.4001  144.0157  161.0528 H   0  0  0  0  0  0  0  0  0  0  0  0
  151.7762  143.3742  161.1226 H   0  0  0  0  0  0  0  0  0  0  0  0
  152.3383  141.5334  159.6367 H   0  0  0  0  0  0  0  0  0  0  0  0
  153.8773  142.2502  159.2207 H   0  0  0  0  0  0  0  0  0  0  0  0
  154.8911  141.6170  161.2362 H   0  0  0  0  0  0  0  0  0  0  0  0
  153.3841  141.6532  162.1409 H   0  0  0  0  0  0  0  0  0  0  0  0
  153.0046  139.4600  161.5920 H   0  0  0  0  0  0  0  0  0  0  0  0
  153.0402  137.5538  159.6500 H   0  0  0  0  0  0  0  0  0  0  0  0
  154.7128  137.2475  159.2722 H   0  0  0  0  0  0  0  0  0  0  0  0
  154.2974  138.1637  165.1090 H   0  0  0  0  0  0  0  0  0  0  0  0
  154.4800  136.5374  165.5092 H   0  0  0  0  0  0  0  0  0  0  0  0
  1  2  1  0  0  0  0
  1 17  1  0  0  0  0
  1 18  1  0  0  0  0
  1 19  1  0  0  0  0
  2  3  1  0  0  0  0
  2 20  1  0  0  0  0
  2 21  1  0  0  0  0
  3  4  1  0  0  0  0
  3 22  1  0  0  0  0
  3 23  1  0  0  0  0
  4  5  1  0  0  0  0
  4 24  1  0  0  0  0
  4 25  1  0  0  0  0
  5  6  1  0  0  0  0
  5 26  1  0  0  0  0
  5 27  1  0  0  0  0
  6  7  1  0  0  0  0
  6 28  1  0  0  0  0
  7  8  2  0  0  0  0
  7  9  1  0  0  0  0
  9 10  1  0  0  0  0
  9 29  1  0  0  0  0
  9 30  1  0  0  0  0
 10 15  1  0  0  0  0
 10 11  1  0  0  0  0
 11 12  2  0  0  0  0
 12 13  1  0  0  0  0
 12 14  1  0  0  0  0
 13 31  1  0  0  0  0
 13 32  1  0  0  0  0
 14 15  1  0  0  0  0
 15 16  2  0  0  0  0
M  END
> <s_m_source_file>
AV-unprocessed.smi

> <i_m_source_file_index>
2755

> <i_lp_mmshare_version>
43012

> <i_f3d_flags>
0

> <s_epik_input>
W0NIM11bQ0gyXVtDSDJdW0NIMl1bQ0gyXVtOSF1DKD1PKVtDSDJdbjFuYyhbTkgyXSlzYzE9Tw==

> <s_epik_cmdline>
J2VwaWtfcHl0aG9uJywgJy1waCcsICc3LjAnLCAnLXRuJywgJzgnLCAnLW1hJywgJzIwMCcsICctbWV0YWxfYmluZGluZycsICctaW1hZScsICc8aW5maWxlLm1hZT4nLCAnLW9tYWUnLCAnPG91dGZpbGUubWFlPic=

> <r_lp_tautomer_probability>
1

> <r_epik_Ionization_Penalty>
4.62415e-07

> <r_epik_Ionization_Penalty_Charging>
1.84682e-08

> <r_epik_Ionization_Penalty_Neutral>
4.43947e-07

> <r_epik_State_Penalty>
-0

> <r_epik_Charging_Adjusted_Penalty>
1.84682e-08

> <i_epik_Tot_Q>
0

> <i_epik_Tot_abs_Q>
0

> <r_epik_Metal_State_Penalty>
-0

> <b_epik_Metal_Only>
0

> <s_lp_Force_Field>
OPLS_2005

> <r_lp_Energy>
7.41943

> <b_lp_Chiralities_Consistent>
1

> <s_lp_Variant>
AV-unprocessed.smi:2755-1

> <Gold.Version>
5.8.1

> <Gold.Id.Protein>
6NUR|6NUR_protein|mol2

> <Gold.PLP.Fitness>
38.3954

> <Gold.PLP.PLP>
-33.6037

> <Gold.PLP.part.hbond>
-2.1932

> <Gold.PLP.part.metal>
0.0000

> <Gold.PLP.part.buried>
-4.3703

> <Gold.PLP.part.nonpolar>
-27.6640

> <Gold.PLP.part.repulsive>
0.1775

> <Gold.PLP.ligand.clash>
0.0000

> <Gold.PLP.ligand.torsion>
0.6073

> <Gold.PLP.Chemscore.Hbond>
1.9913

> <Gold.PLP.Chemscore.CHOScore>
0.0000

> <Gold.PLP.Chemscore.Metal>
0.0000

> <Gold.Chemscore.Hbonds>
donor molecule, donor type, donor heavy atom, donor atom, acceptor molecule, acceptor atom, score
      P1  H  6896  6909       L1    16  1.00
      P1  H  7997  8009       L1     8  1.00

> <Gold.PLP.Chemscore.Internal.Correction>
0.0325

> <Gold.Rescore>
     Score         DG    S(hbond)    S(metal)    S(lipo)     H(rot)  DE(clash)    DE(int)     intcor
     11.34     -13.17       1.90        0.00      73.05       2.81       0.12       1.71       ----

> <Gold.Chemscore.Fitness>
11.3355

> <Gold.Chemscore.DG>
-13.1725

> <Gold.Chemscore.ZeroCoef>
-5.4800

> <Gold.Chemscore.Hbond>
1.8954

> <Gold.Chemscore.Metal>
0.0000

> <Gold.Chemscore.Lipo>
73.0542

> <Gold.Chemscore.Internal_Hbond>
0.0000

> <Gold.Chemscore.DEClash>
0.1245

> <Gold.Chemscore.DEInternal>
1.7125

> <Gold.Chemscore.Rot>
2.8069

> <Gold.Chemscore.Internal.Correction>
   9.000000E+99

> <Gold.Chemscore.Hbonds>
donor molecule, donor type, donor heavy atom, donor atom, acceptor molecule, acceptor atom, score
      P1  H  6896  6909       L1    16  0.44
      P1  H  7997  8009       L1     8  0.93

> <Gold.Chemscore.Hbond.Weighted>
-6.3307

> <Gold.Chemscore.Metal.Weighted>
-0.0000

> <Gold.Chemscore.Lipo.Weighted>
-8.5473

> <Gold.Chemscore.Internal_Hbond.Weighted>
0.0000

> <Gold.Chemscore.DEClash.Weighted>
0.1245

> <Gold.Chemscore.DEInternal.Weighted>
1.7125

> <Gold.Chemscore.Rot.Weighted>
7.1856

> <Gold.Chemscore.Internal.Correction.Weighted>
   9.000000E+99

> <Gold.Protein.RotatedTorsions>
[ 6907 6896 6895 6894 ] final -171.88 input  -60.11 | X-H torsion
[ 7974 7965 7964 7962 ] final  100.61 input  175.53 | X-H torsion
[ 8008 7997 7996 7995 ] final  100.79 input   59.86 | X-H torsion
[ 10167 10162 10161 10158 ] final   45.41 input  -65.29 | X-H torsion
[ 10718 10713 10712 10709 ] final  -39.34 input   66.30 | X-H torsion
[ 10763 10752 10751 10750 ] final   40.75 input  -60.55 | X-H torsion
[ 11005 11000 10999 10996 ] final  122.84 input  -57.11 | X-H torsion

> <Gold.Protein.ActiveResidues>
 VAL166  LYS551  ARG553  GLY616  TRP617  ASP618  TYR619  PRO620  LYS621  CYS622 
 ASP623  PHE694  ASN695  SER759  ASP760  ASP761  ALA762  ILE779  LEU786  VAL792 
 PHE793  MET794  SER795  GLU796  ALA797  LYS798  CYS799  TRP800  GLU811  SER814 

> <Gold.Protein.RotatedAtoms>
  151.5310  133.3449  159.2917 H   0  0  0  0  0  0  0  0  0  0  0  0  # atno 6907 bound_to 6896
  150.8593  134.7943  159.7081 H   0  0  0  0  0  0  0  0  0  0  0  0  # atno 6908 bound_to 6896
  152.4618  134.5176  159.9824 H   0  0  0  0  0  0  0  0  0  0  0  0  # atno 6909 bound_to 6896
  145.3832  139.2376  143.3392 H   0  0  0  0  0  0  0  0  0  0  0  0  # atno 7974 bound_to 7965
  156.1237  140.3208  155.8246 H   0  0  0  0  0  0  0  0  0  0  0  0  # atno 8008 bound_to 7997
  155.4458  140.0529  157.3023 H   0  0  0  0  0  0  0  0  0  0  0  0  # atno 8009 bound_to 7997
  154.4846  140.2067  155.9698 H   0  0  0  0  0  0  0  0  0  0  0  0  # atno 8010 bound_to 7997
  140.3244  144.2666  150.6177 H   0  0  0  0  0  0  0  0  0  0  0  0  # atno 10167 bound_to 10162
  156.2935  130.4231  149.8214 H   0  0  0  0  0  0  0  0  0  0  0  0  # atno 10718 bound_to 10713
  152.9927  135.6182  154.2677 H   0  0  0  0  0  0  0  0  0  0  0  0  # atno 10763 bound_to 10752
  154.2411  135.2788  155.2855 H   0  0  0  0  0  0  0  0  0  0  0  0  # atno 10764 bound_to 10752
  154.5369  135.5772  153.6864 H   0  0  0  0  0  0  0  0  0  0  0  0  # atno 10765 bound_to 10752
  139.9286  134.9641  156.8170 H   0  0  0  0  0  0  0  0  0  0  0  0  # atno 11005 bound_to 11000
  146.2832  140.4503  142.8768 LP  0  0  0  0  0  0  0  0  0  0  0  0  # atno 17320 bound_to 7965
  144.8492  140.6976  143.6179 LP  0  0  0  0  0  0  0  0  0  0  0  0  # atno 17321 bound_to 7965
  140.5454  143.2215  151.8015 LP  0  0  0  0  0  0  0  0  0  0  0  0  # atno 17342 bound_to 10162
  139.4868  144.4546  151.9614 LP  0  0  0  0  0  0  0  0  0  0  0  0  # atno 17343 bound_to 10162
  156.5618  130.8387  151.3331 LP  0  0  0  0  0  0  0  0  0  0  0  0  # atno 17370 bound_to 10713
  157.7349  130.9753  150.2053 LP  0  0  0  0  0  0  0  0  0  0  0  0  # atno 17371 bound_to 10713
  140.6265  133.9945  155.7642 LP  0  0  0  0  0  0  0  0  0  0  0  0  # atno 17394 bound_to 11000
  141.0860  133.9989  157.3312 LP  0  0  0  0  0  0  0  0  0  0  0  0  # atno 17395 bound_to 11000

$$$$
