AV-unprocessed.smi:217|AV-procd|sdf|1660|dock3
  -GOLD-   2262020 53D 1   1.00000     0.00000
 Structure written by MMmdl.
 57 61  0  0  0  0  0  0  0  0  1 V2000
  146.6102  132.2750  151.3898 O   0  0  0  0  0  0  0  0  0  0  0  0
  146.4636  133.5680  150.8397 C   0  0  0  0  0  0  0  0  0  0  0  0
  145.5909  134.4600  151.7379 C   0  0  0  0  0  0  0  0  0  0  0  0
  144.1436  133.9266  151.7344 C   0  0  0  0  0  0  0  0  0  0  0  0
  143.6225  133.8471  150.4230 O   0  0  0  0  0  0  0  0  0  0  0  0
  146.1748  134.7703  153.1347 C   0  0  0  0  0  0  0  0  0  0  0  0
  145.7049  136.2203  153.0011 C   0  0  0  0  0  0  0  0  0  0  0  0
  146.4417  137.2954  153.5978 N   0  0  0  0  0  0  0  0  0  0  0  0
  146.2237  138.6439  153.4204 C   0  0  0  0  0  0  0  0  0  0  0  0
  146.9995  139.4308  154.1156 N   0  0  0  0  0  0  0  0  0  0  0  0
  147.7852  138.5573  154.8558 C   0  0  0  0  0  0  0  0  0  0  0  0
  148.8118  138.7295  155.8203 C   0  0  0  0  0  0  0  0  0  0  0  0
  149.2338  139.9532  156.2038 N   0  0  0  0  0  0  0  0  0  0  0  0
  150.6308  140.2148  155.8724 C   0  0  0  0  0  0  0  0  0  0  0  0
  150.9796  141.6924  156.1166 C   0  0  0  0  0  0  0  0  0  0  0  0
  150.6429  142.1234  157.5608 C   0  0  0  0  0  0  0  0  0  0  0  0
  150.9300  143.6194  157.8039 C   0  0  2  0  0  0  0  0  0  0  0  0
  152.4000  143.9614  158.0488 C   0  0  0  0  0  0  0  0  0  0  0  0
  152.2878  145.2816  158.7758 C   0  0  0  0  0  0  0  0  0  0  0  0
  151.0557  145.0600  159.6484 C   0  0  0  0  0  0  0  0  0  0  0  0
  150.2713  144.0710  158.9851 O   0  0  0  0  0  0  0  0  0  0  0  0
  149.1671  141.7812  157.8550 C   0  0  0  0  0  0  0  0  0  0  0  0
  148.8645  140.3009  157.5725 C   0  0  0  0  0  0  0  0  0  0  0  0
  149.3709  137.6166  156.3644 N   0  0  0  0  0  0  0  0  0  0  0  0
  148.9446  136.4066  155.9889 C   0  0  0  0  0  0  0  0  0  0  0  0
  147.9956  136.0930  155.1033 N   0  0  0  0  0  0  0  0  0  0  0  0
  147.4401  137.2110  154.5527 C   0  0  0  0  0  0  0  0  0  0  0  0
  145.7322  135.9784  151.4901 C   0  0  0  0  0  0  0  0  0  0  0  0
  147.3709  131.8683  151.0037 H   0  0  0  0  0  0  0  0  0  0  0  0
  147.4514  134.0003  150.6801 H   0  0  0  0  0  0  0  0  0  0  0  0
  146.0159  133.4595  149.8515 H   0  0  0  0  0  0  0  0  0  0  0  0
  144.0905  132.9294  152.1711 H   0  0  0  0  0  0  0  0  0  0  0  0
  143.4848  134.5526  152.3363 H   0  0  0  0  0  0  0  0  0  0  0  0
  142.7111  134.0948  150.4463 H   0  0  0  0  0  0  0  0  0  0  0  0
  145.7168  134.2253  153.9607 H   0  0  0  0  0  0  0  0  0  0  0  0
  147.2626  134.6883  153.1717 H   0  0  0  0  0  0  0  0  0  0  0  0
  144.6787  136.3268  153.3564 H   0  0  0  0  0  0  0  0  0  0  0  0
  145.4691  139.0301  152.7504 H   0  0  0  0  0  0  0  0  0  0  0  0
  151.2751  139.5770  156.4795 H   0  0  0  0  0  0  0  0  0  0  0  0
  150.8183  139.9581  154.8289 H   0  0  0  0  0  0  0  0  0  0  0  0
  152.0382  141.8470  155.9089 H   0  0  0  0  0  0  0  0  0  0  0  0
  150.4307  142.3155  155.4091 H   0  0  0  0  0  0  0  0  0  0  0  0
  151.2667  141.5425  158.2419 H   0  0  0  0  0  0  0  0  0  0  0  0
  150.5599  144.2148  156.9675 H   0  0  0  0  0  0  0  0  0  0  0  0
  152.8676  143.2166  158.6945 H   0  0  0  0  0  0  0  0  0  0  0  0
  152.9808  144.0332  157.1289 H   0  0  0  0  0  0  0  0  0  0  0  0
  153.1793  145.5341  159.3505 H   0  0  0  0  0  0  0  0  0  0  0  0
  152.1018  146.0849  158.0614 H   0  0  0  0  0  0  0  0  0  0  0  0
  151.3426  144.6735  160.6271 H   0  0  0  0  0  0  0  0  0  0  0  0
  150.4892  145.9791  159.8000 H   0  0  0  0  0  0  0  0  0  0  0  0
  148.9252  142.0070  158.8939 H   0  0  0  0  0  0  0  0  0  0  0  0
  148.5148  142.4061  157.2433 H   0  0  0  0  0  0  0  0  0  0  0  0
  147.8032  140.1035  157.7303 H   0  0  0  0  0  0  0  0  0  0  0  0
  149.4152  139.6710  158.2729 H   0  0  0  0  0  0  0  0  0  0  0  0
  149.4339  135.5700  156.4654 H   0  0  0  0  0  0  0  0  0  0  0  0
  146.6898  136.2473  151.0404 H   0  0  0  0  0  0  0  0  0  0  0  0
  144.9042  136.4324  150.9447 H   0  0  0  0  0  0  0  0  0  0  0  0
  1  2  1  0  0  0  0
  1 29  1  0  0  0  0
  2  3  1  0  0  0  0
  2 30  1  0  0  0  0
  2 31  1  0  0  0  0
  3 28  1  0  0  0  0
  3  4  1  0  0  0  0
  3  6  1  0  0  0  0
  4  5  1  0  0  0  0
  4 32  1  0  0  0  0
  4 33  1  0  0  0  0
  5 34  1  0  0  0  0
  6  7  1  0  0  0  0
  6 35  1  0  0  0  0
  6 36  1  0  0  0  0
  7  8  1  0  0  0  0
  7 28  1  0  0  0  0
  7 37  1  0  0  0  0
  8 27  1  0  0  0  0
  8  9  1  0  0  0  0
  9 10  2  0  0  0  0
  9 38  1  0  0  0  0
 10 11  1  0  0  0  0
 11 27  2  0  0  0  0
 11 12  1  0  0  0  0
 12 13  1  0  0  0  0
 12 24  2  0  0  0  0
 13 23  1  0  0  0  0
 13 14  1  0  0  0  0
 14 15  1  0  0  0  0
 14 39  1  0  0  0  0
 14 40  1  0  0  0  0
 15 16  1  0  0  0  0
 15 41  1  0  0  0  0
 15 42  1  0  0  0  0
 16 17  1  0  0  0  0
 16 22  1  0  0  0  0
 16 43  1  0  0  0  0
 17 21  1  0  0  0  0
 17 18  1  0  0  0  0
 17 44  1  0  0  0  0
 18 19  1  0  0  0  0
 18 45  1  0  0  0  0
 18 46  1  0  0  0  0
 19 20  1  0  0  0  0
 19 47  1  0  0  0  0
 19 48  1  0  0  0  0
 20 21  1  0  0  0  0
 20 49  1  0  0  0  0
 20 50  1  0  0  0  0
 22 23  1  0  0  0  0
 22 51  1  0  0  0  0
 22 52  1  0  0  0  0
 23 53  1  0  0  0  0
 23 54  1  0  0  0  0
 24 25  1  0  0  0  0
 25 26  2  0  0  0  0
 25 55  1  0  0  0  0
 26 27  1  0  0  0  0
 28 56  1  0  0  0  0
 28 57  1  0  0  0  0
M  END
> <s_m_source_file>
AV-unprocessed.smi

> <i_m_source_file_index>
217

> <i_lp_mmshare_version>
43012

> <i_f3d_flags>
0

> <s_epik_input>
W09IXVtDSDJdQzEoW0NIMl1bT0hdKVtDSDJdW0NIXShbQ0gyXTEpbihbY0hdbjIpYyhjMjMpbltjSF1uYzNONFtDSDJdW0NIMl1bQ0hdKFtDSDJdW0NIMl00KVtDQEBIXTVbQ0gyXVtDSDJdW0NIMl1PNQ==

> <s_epik_cmdline>
J2VwaWtfcHl0aG9uJywgJy1waCcsICc3LjAnLCAnLXRuJywgJzgnLCAnLW1hJywgJzIwMCcsICctbWV0YWxfYmluZGluZycsICctaW1hZScsICc8aW5maWxlLm1hZT4nLCAnLW9tYWUnLCAnPG91dGZpbGUubWFlPic=

> <r_lp_tautomer_probability>
1

> <r_epik_Ionization_Penalty>
0.0037022

> <r_epik_Ionization_Penalty_Charging>
0

> <r_epik_Ionization_Penalty_Neutral>
0.0037022

> <r_epik_State_Penalty>
0.00257654

> <r_epik_Charging_Adjusted_Penalty>
0.00257654

> <i_epik_Tot_Q>
0

> <i_epik_Tot_abs_Q>
0

> <r_epik_Metal_State_Penalty>
-0

> <b_epik_Metal_Only>
0

> <s_lp_Force_Field>
OPLS_2005

> <r_lp_Energy>
56.6597

> <b_lp_Chiralities_Consistent>
1

> <s_lp_Variant>
AV-unprocessed.smi:217-1

> <Gold.Version>
5.8.1

> <Gold.Id.Protein>
6NUR|6NUR_protein|mol2

> <Gold.PLP.Fitness>
47.3060

> <Gold.PLP.PLP>
-39.1105

> <Gold.PLP.part.hbond>
-2.0000

> <Gold.PLP.part.metal>
0.0000

> <Gold.PLP.part.buried>
-6.0539

> <Gold.PLP.part.nonpolar>
-31.4760

> <Gold.PLP.part.repulsive>
0.3999

> <Gold.PLP.ligand.clash>
0.0000

> <Gold.PLP.ligand.torsion>
0.7635

> <Gold.PLP.Chemscore.Hbond>
2.0000

> <Gold.PLP.Chemscore.CHOScore>
1.0000

> <Gold.PLP.Chemscore.Metal>
0.0000

> <Gold.Chemscore.Hbonds>
donor molecule, donor type, donor heavy atom, donor atom, acceptor molecule, acceptor atom, score
      L1  H     1    29       P1 10747  0.99
      L1  H     5    34       P1 10186  1.00
      L1  C     9    38       P1 10175  1.00

> <Gold.PLP.Chemscore.Internal.Correction>
0.7224

> <Gold.Rescore>
     Score         DG    S(hbond)    S(metal)    S(lipo)     H(rot)  DE(clash)    DE(int)     intcor
     14.08     -15.95       1.96        0.00     105.32       3.28       0.15       1.71       ----

> <Gold.Chemscore.Fitness>
14.0834

> <Gold.Chemscore.DG>
-15.9476

> <Gold.Chemscore.ZeroCoef>
-5.4800

> <Gold.Chemscore.Hbond>
1.9623

> <Gold.Chemscore.Metal>
0.0000

> <Gold.Chemscore.Lipo>
105.3217

> <Gold.Chemscore.Internal_Hbond>
0.0000

> <Gold.Chemscore.DEClash>
0.1505

> <Gold.Chemscore.DEInternal>
1.7137

> <Gold.Chemscore.Rot>
3.2848

> <Gold.Chemscore.Internal.Correction>
   9.000000E+99

> <Gold.Chemscore.Hbonds>
donor molecule, donor type, donor heavy atom, donor atom, acceptor molecule, acceptor atom, score
      L1  H     1    29       P1 10747  0.92
      L1  H     5    34       P1 10186  0.81

> <Gold.Chemscore.Hbond.Weighted>
-6.5541

> <Gold.Chemscore.Metal.Weighted>
-0.0000

> <Gold.Chemscore.Lipo.Weighted>
-12.3226

> <Gold.Chemscore.Internal_Hbond.Weighted>
0.0000

> <Gold.Chemscore.DEClash.Weighted>
0.1505

> <Gold.Chemscore.DEInternal.Weighted>
1.7137

> <Gold.Chemscore.Rot.Weighted>
8.4092

> <Gold.Chemscore.Internal.Correction.Weighted>
   9.000000E+99

> <Gold.Protein.RotatedTorsions>
[ 6907 6896 6895 6894 ] final   87.18 input  -60.11 | X-H torsion
[ 7974 7965 7964 7962 ] final   40.31 input  175.53 | X-H torsion
[ 8008 7997 7996 7995 ] final -122.62 input   59.86 | X-H torsion
[ 10167 10162 10161 10158 ] final   49.11 input  -65.29 | X-H torsion
[ 10718 10713 10712 10709 ] final  -64.86 input   66.30 | X-H torsion
[ 10763 10752 10751 10750 ] final -174.09 input  -60.55 | X-H torsion
[ 11005 11000 10999 10996 ] final -174.62 input  -57.11 | X-H torsion

> <Gold.Protein.ActiveResidues>
 VAL166  LYS551  ARG553  GLY616  TRP617  ASP618  TYR619  PRO620  LYS621  CYS622 
 ASP623  PHE694  ASN695  SER759  ASP760  ASP761  ALA762  ILE779  LEU786  VAL792 
 PHE793  MET794  SER795  GLU796  ALA797  LYS798  CYS799  TRP800  GLU811  SER814 

> <Gold.Protein.RotatedAtoms>
  152.5407  134.2317  159.8827 H   0  0  0  0  0  0  0  0  0  0  0  0  # atno 6907 bound_to 6896
  151.2289  133.4454  159.2610 H   0  0  0  0  0  0  0  0  0  0  0  0  # atno 6908 bound_to 6896
  151.0735  134.9826  159.8376 H   0  0  0  0  0  0  0  0  0  0  0  0  # atno 6909 bound_to 6896
  146.0915  139.5548  142.9473 H   0  0  0  0  0  0  0  0  0  0  0  0  # atno 7974 bound_to 7965
  155.1672  140.0407  157.2855 H   0  0  0  0  0  0  0  0  0  0  0  0  # atno 8008 bound_to 7997
  154.6295  140.2520  155.7424 H   0  0  0  0  0  0  0  0  0  0  0  0  # atno 8009 bound_to 7997
  156.2477  140.2878  156.0640 H   0  0  0  0  0  0  0  0  0  0  0  0  # atno 8010 bound_to 7997
  140.2863  144.3098  150.6251 H   0  0  0  0  0  0  0  0  0  0  0  0  # atno 10167 bound_to 10162
  156.0703  130.4239  150.1481 H   0  0  0  0  0  0  0  0  0  0  0  0  # atno 10718 bound_to 10713
  154.6003  135.2854  155.0542 H   0  0  0  0  0  0  0  0  0  0  0  0  # atno 10763 bound_to 10752
  154.1809  135.6457  153.5038 H   0  0  0  0  0  0  0  0  0  0  0  0  # atno 10764 bound_to 10752
  153.0154  135.5423  154.6720 H   0  0  0  0  0  0  0  0  0  0  0  0  # atno 10765 bound_to 10752
  140.4724  134.6152  157.4887 H   0  0  0  0  0  0  0  0  0  0  0  0  # atno 11005 bound_to 11000
  145.6030  141.0352  143.2008 LP  0  0  0  0  0  0  0  0  0  0  0  0  # atno 17320 bound_to 7965
  144.7363  139.7575  143.7328 LP  0  0  0  0  0  0  0  0  0  0  0  0  # atno 17321 bound_to 7965
  140.5770  143.2175  151.7497 LP  0  0  0  0  0  0  0  0  0  0  0  0  # atno 17342 bound_to 10162
  139.4949  144.4135  152.0055 LP  0  0  0  0  0  0  0  0  0  0  0  0  # atno 17343 bound_to 10162
  156.9533  130.9782  151.3494 LP  0  0  0  0  0  0  0  0  0  0  0  0  # atno 17370 bound_to 10713
  157.5771  130.8350  149.8470 LP  0  0  0  0  0  0  0  0  0  0  0  0  # atno 17371 bound_to 10713
  139.9877  134.7035  155.9745 LP  0  0  0  0  0  0  0  0  0  0  0  0  # atno 17394 bound_to 11000
  141.1570  133.6542  156.4195 LP  0  0  0  0  0  0  0  0  0  0  0  0  # atno 17395 bound_to 11000

$$$$
