AV-unprocessed.smi:2143|AV-procd|sdf|8722|dock6
  -GOLD-   2272011493D 1   1.00000     0.00000
 Structure written by MMmdl.
 44 45  0  0  0  0  0  0  0  0  1 V2000
  151.8188  145.7478  160.2557 C   0  0  0  0  0  0  0  0  0  0  0  0
  151.8524  144.2090  160.2682 C   0  0  2  0  0  0  0  0  0  0  0  0
  152.4109  143.7109  161.6175 C   0  0  0  0  0  0  0  0  0  0  0  0
  152.4543  142.1790  161.6967 C   0  0  0  0  0  0  0  0  0  0  0  0
  153.2642  141.5907  160.5322 C   0  0  0  0  0  0  0  0  0  0  0  0
  152.7312  142.0610  159.1664 C   0  0  1  0  0  0  0  0  0  0  0  0
  151.4274  141.4467  158.9042 N   0  0  0  0  0  0  0  0  0  0  0  0
  151.1054  140.6853  157.8472 C   0  0  0  0  0  0  0  0  0  0  0  0
  151.8924  140.4156  156.9389 O   0  0  0  0  0  0  0  0  0  0  0  0
  149.6572  140.1790  157.8093 C   0  0  0  0  0  0  0  0  0  0  0  0
  149.5535  138.7148  157.8505 N   0  0  0  0  0  0  0  0  0  0  0  0
  150.6607  137.9412  157.5543 C   0  0  0  0  0  0  0  0  0  0  0  0
  150.6549  136.5907  157.5823 C   0  0  0  0  0  0  0  0  0  0  0  0
  149.4474  135.8535  157.9347 C   0  0  0  0  0  0  0  0  0  0  0  0
  149.4044  134.6237  157.9826 O   0  0  0  0  0  0  0  0  0  0  0  0
  148.3273  136.6694  158.2253 N   0  0  0  0  0  0  0  0  0  0  0  0
  147.0772  136.0413  158.6000 C   0  0  0  0  0  0  0  0  0  0  0  0
  148.3431  138.0815  158.2047 C   0  0  0  0  0  0  0  0  0  0  0  0
  147.3433  138.7468  158.4875 O   0  0  0  0  0  0  0  0  0  0  0  0
  152.6631  143.6097  159.0847 C   0  0  1  0  0  0  0  0  0  0  0  0
  152.1592  144.0809  157.7053 C   0  0  0  0  0  0  0  0  0  0  0  0
  152.8254  146.1671  160.2616 H   0  0  0  0  0  0  0  0  0  0  0  0
  151.2944  146.1340  161.1301 H   0  0  0  0  0  0  0  0  0  0  0  0
  151.2980  146.1343  159.3801 H   0  0  0  0  0  0  0  0  0  0  0  0
  150.8211  143.8628  160.1873 H   0  0  0  0  0  0  0  0  0  0  0  0
  153.4157  144.1082  161.7680 H   0  0  0  0  0  0  0  0  0  0  0  0
  151.8039  144.0957  162.4379 H   0  0  0  0  0  0  0  0  0  0  0  0
  152.8933  141.8695  162.6457 H   0  0  0  0  0  0  0  0  0  0  0  0
  151.4390  141.7812  161.6844 H   0  0  0  0  0  0  0  0  0  0  0  0
  154.3070  141.8945  160.6338 H   0  0  0  0  0  0  0  0  0  0  0  0
  153.2603  140.5012  160.5853 H   0  0  0  0  0  0  0  0  0  0  0  0
  153.4458  141.7190  158.4156 H   0  0  0  0  0  0  0  0  0  0  0  0
  150.7077  141.6174  159.5915 H   0  0  0  0  0  0  0  0  0  0  0  0
  149.0933  140.6187  158.6341 H   0  0  0  0  0  0  0  0  0  0  0  0
  149.1895  140.5573  156.8993 H   0  0  0  0  0  0  0  0  0  0  0  0
  151.5819  138.4407  157.2910 H   0  0  0  0  0  0  0  0  0  0  0  0
  151.5575  136.0477  157.3435 H   0  0  0  0  0  0  0  0  0  0  0  0
  146.2873  136.4781  157.9857 H   0  0  0  0  0  0  0  0  0  0  0  0
  146.9211  136.2514  159.6594 H   0  0  0  0  0  0  0  0  0  0  0  0
  147.1076  134.9667  158.4231 H   0  0  0  0  0  0  0  0  0  0  0  0
  153.6881  143.9721  159.1796 H   0  0  0  0  0  0  0  0  0  0  0  0
  151.0951  143.8817  157.5751 H   0  0  0  0  0  0  0  0  0  0  0  0
  152.6926  143.5728  156.9013 H   0  0  0  0  0  0  0  0  0  0  0  0
  152.3169  145.1495  157.5630 H   0  0  0  0  0  0  0  0  0  0  0  0
  1  2  1  0  0  0  0
  1 22  1  0  0  0  0
  1 23  1  0  0  0  0
  1 24  1  0  0  0  0
  2 20  1  0  0  0  0
  2  3  1  0  0  0  0
  2 25  1  0  0  0  0
  3  4  1  0  0  0  0
  3 26  1  0  0  0  0
  3 27  1  0  0  0  0
  4  5  1  0  0  0  0
  4 28  1  0  0  0  0
  4 29  1  0  0  0  0
  5  6  1  0  0  0  0
  5 30  1  0  0  0  0
  5 31  1  0  0  0  0
  6  7  1  0  0  0  0
  6 20  1  0  0  0  0
  6 32  1  0  0  0  0
  7  8  1  0  0  0  0
  7 33  1  0  0  0  0
  8  9  2  0  0  0  0
  8 10  1  0  0  0  0
 10 11  1  0  0  0  0
 10 34  1  0  0  0  0
 10 35  1  0  0  0  0
 11 18  1  0  0  0  0
 11 12  1  0  0  0  0
 12 13  2  0  0  0  0
 12 36  1  0  0  0  0
 13 14  1  0  0  0  0
 13 37  1  0  0  0  0
 14 15  2  0  0  0  0
 14 16  1  0  0  0  0
 16 17  1  0  0  0  0
 16 18  1  0  0  0  0
 17 38  1  0  0  0  0
 17 39  1  0  0  0  0
 17 40  1  0  0  0  0
 18 19  2  0  0  0  0
 20 21  1  0  0  0  0
 20 41  1  0  0  0  0
 21 42  1  0  0  0  0
 21 43  1  0  0  0  0
 21 44  1  0  0  0  0
M  END
> <s_m_source_file>
AV-unprocessed.smi

> <i_m_source_file_index>
2143

> <i_lp_mmshare_version>
43012

> <i_f3d_flags>
0

> <s_epik_input>
W0NIM11bQ0BASF0xW0NIMl1bQ0gyXVtDSDJdW0NASF0oW0NASF0xW0NIM10pW05IXUMoPU8pW0NIMl1uMltjSF1bY0hdYyg9TyluKFtDSDNdKWMyPU8=

> <s_epik_cmdline>
J2VwaWtfcHl0aG9uJywgJy1waCcsICc3LjAnLCAnLXRuJywgJzgnLCAnLW1hJywgJzIwMCcsICctbWV0YWxfYmluZGluZycsICctaW1hZScsICc8aW5maWxlLm1hZT4nLCAnLW9tYWUnLCAnPG91dGZpbGUubWFlPic=

> <r_lp_tautomer_probability>
1

> <r_epik_Ionization_Penalty>
3.18445e-08

> <r_epik_Ionization_Penalty_Charging>
1.27977e-08

> <r_epik_Ionization_Penalty_Neutral>
1.90469e-08

> <r_epik_State_Penalty>
-0

> <r_epik_Charging_Adjusted_Penalty>
1.27977e-08

> <i_epik_Tot_Q>
0

> <i_epik_Tot_abs_Q>
0

> <r_epik_Metal_State_Penalty>
-0

> <b_epik_Metal_Only>
0

> <s_lp_Force_Field>
OPLS_2005

> <r_lp_Energy>
19.1403

> <b_lp_Chiralities_Consistent>
1

> <s_lp_Variant>
AV-unprocessed.smi:2143-1

> <Gold.Version>
5.8.1

> <Gold.Id.Protein>
6NUR|6NUR_protein|mol2

> <Gold.PLP.Fitness>
43.1643

> <Gold.PLP.PLP>
-40.6899

> <Gold.PLP.part.hbond>
-2.0000

> <Gold.PLP.part.metal>
0.0000

> <Gold.PLP.part.buried>
-5.4329

> <Gold.PLP.part.nonpolar>
-33.3118

> <Gold.PLP.part.repulsive>
0.1332

> <Gold.PLP.ligand.clash>
0.0000

> <Gold.PLP.ligand.torsion>
0.2759

> <Gold.PLP.Chemscore.Hbond>
1.0052

> <Gold.PLP.Chemscore.CHOScore>
0.0000

> <Gold.PLP.Chemscore.Metal>
0.0000

> <Gold.Chemscore.Hbonds>
donor molecule, donor type, donor heavy atom, donor atom, acceptor molecule, acceptor atom, score
      P1  H  6896  6909       L1    15  0.85
      P1  H  6934  6947       L1    19  0.01

> <Gold.PLP.Chemscore.Internal.Correction>
0.0107

> <Gold.Rescore>
     Score         DG    S(hbond)    S(metal)    S(lipo)     H(rot)  DE(clash)    DE(int)     intcor
     15.46     -17.17       0.88        0.00     107.74       1.51       0.16       1.55       ----

> <Gold.Chemscore.Fitness>
15.4567

> <Gold.Chemscore.DG>
-17.1673

> <Gold.Chemscore.ZeroCoef>
-5.4800

> <Gold.Chemscore.Hbond>
0.8849

> <Gold.Chemscore.Metal>
0.0000

> <Gold.Chemscore.Lipo>
107.7372

> <Gold.Chemscore.Internal_Hbond>
0.0000

> <Gold.Chemscore.DEClash>
0.1564

> <Gold.Chemscore.DEInternal>
1.5541

> <Gold.Chemscore.Rot>
1.5131

> <Gold.Chemscore.Internal.Correction>
   9.000000E+99

> <Gold.Chemscore.Hbonds>
donor molecule, donor type, donor heavy atom, donor atom, acceptor molecule, acceptor atom, score
      P1  H  6896  6909       L1    15  0.14
      P1  H  6934  6947       L1    19  0.01
      P1  H  7997  8010       L1     9  0.01

> <Gold.Chemscore.Hbond.Weighted>
-2.9555

> <Gold.Chemscore.Metal.Weighted>
-0.0000

> <Gold.Chemscore.Lipo.Weighted>
-12.6052

> <Gold.Chemscore.Internal_Hbond.Weighted>
0.0000

> <Gold.Chemscore.DEClash.Weighted>
0.1564

> <Gold.Chemscore.DEInternal.Weighted>
1.5541

> <Gold.Chemscore.Rot.Weighted>
3.8734

> <Gold.Chemscore.Internal.Correction.Weighted>
   9.000000E+99

> <Gold.Protein.RotatedTorsions>
[ 6907 6896 6895 6894 ] final   38.76 input  -60.11 | X-H torsion
[ 7974 7965 7964 7962 ] final  116.76 input  175.53 | X-H torsion
[ 8008 7997 7996 7995 ] final   66.09 input   59.86 | X-H torsion
[ 10167 10162 10161 10158 ] final  149.79 input  -65.29 | X-H torsion
[ 10718 10713 10712 10709 ] final   29.24 input   66.30 | X-H torsion
[ 10763 10752 10751 10750 ] final  -72.51 input  -60.55 | X-H torsion
[ 11005 11000 10999 10996 ] final -175.04 input  -57.11 | X-H torsion

> <Gold.Protein.ActiveResidues>
 VAL166  LYS551  ARG553  GLY616  TRP617  ASP618  TYR619  PRO620  LYS621  CYS622 
 ASP623  PHE694  ASN695  SER759  ASP760  ASP761  ALA762  ILE779  LEU786  VAL792 
 PHE793  MET794  SER795  GLU796  ALA797  LYS798  CYS799  TRP800  GLU811  SER814 

> <Gold.Protein.RotatedAtoms>
  152.1607  134.8914  160.0541 H   0  0  0  0  0  0  0  0  0  0  0  0  # atno 6907 bound_to 6896
  151.9911  133.3786  159.4153 H   0  0  0  0  0  0  0  0  0  0  0  0  # atno 6908 bound_to 6896
  150.6887  134.3858  159.5098 H   0  0  0  0  0  0  0  0  0  0  0  0  # atno 6909 bound_to 6896
  145.1757  139.3077  143.4444 H   0  0  0  0  0  0  0  0  0  0  0  0  # atno 7974 bound_to 7965
  155.6720  140.3497  155.4822 H   0  0  0  0  0  0  0  0  0  0  0  0  # atno 8008 bound_to 7997
  155.9680  140.1150  157.0860 H   0  0  0  0  0  0  0  0  0  0  0  0  # atno 8009 bound_to 7997
  154.4159  140.1162  156.5254 H   0  0  0  0  0  0  0  0  0  0  0  0  # atno 8010 bound_to 7997
  139.4857  144.5574  151.7293 H   0  0  0  0  0  0  0  0  0  0  0  0  # atno 10167 bound_to 10162
  157.2439  130.7082  149.6372 H   0  0  0  0  0  0  0  0  0  0  0  0  # atno 10718 bound_to 10713
  154.4467  135.5927  153.6164 H   0  0  0  0  0  0  0  0  0  0  0  0  # atno 10763 bound_to 10752
  152.9810  135.6011  154.3656 H   0  0  0  0  0  0  0  0  0  0  0  0  # atno 10764 bound_to 10752
  154.3512  135.2841  155.2350 H   0  0  0  0  0  0  0  0  0  0  0  0  # atno 10765 bound_to 10752
  140.4678  134.6194  157.4869 H   0  0  0  0  0  0  0  0  0  0  0  0  # atno 11005 bound_to 11000
  146.3461  140.1918  142.8589 LP  0  0  0  0  0  0  0  0  0  0  0  0  # atno 17320 bound_to 7965
  145.0188  140.8776  143.5179 LP  0  0  0  0  0  0  0  0  0  0  0  0  # atno 17321 bound_to 7965
  140.5138  144.0984  150.6002 LP  0  0  0  0  0  0  0  0  0  0  0  0  # atno 17342 bound_to 10162
  140.3919  143.2748  152.0050 LP  0  0  0  0  0  0  0  0  0  0  0  0  # atno 17343 bound_to 10162
  155.9669  130.4449  150.5480 LP  0  0  0  0  0  0  0  0  0  0  0  0  # atno 17370 bound_to 10713
  157.3349  131.0706  151.1832 LP  0  0  0  0  0  0  0  0  0  0  0  0  # atno 17371 bound_to 10713
  139.9904  134.6994  155.9699 LP  0  0  0  0  0  0  0  0  0  0  0  0  # atno 17394 bound_to 11000
  141.1591  133.6540  156.4259 LP  0  0  0  0  0  0  0  0  0  0  0  0  # atno 17395 bound_to 11000

$$$$
