AV-unprocessed.smi:1131|AV-procd|sdf|4851|dock8
  -GOLD-   22720 3423D 1   1.00000     0.00000
 Structure written by MMmdl.
 33 34  0  0  0  0  0  0  0  0  1 V2000
  149.5074  140.7421  157.4813 O   0  0  0  0  0  0  0  0  0  0  0  0
  149.6009  141.7614  156.7956 C   0  0  0  0  0  0  0  0  0  0  0  0
  149.9141  141.6814  155.2943 C   0  0  0  0  0  0  0  0  0  0  0  0
  149.0018  140.7976  154.5535 N   0  0  0  0  0  0  0  0  0  0  0  0
  147.6585  141.1235  154.4316 C   0  0  0  0  0  0  0  0  0  0  0  0
  146.7617  140.3548  153.7694 C   0  0  0  0  0  0  0  0  0  0  0  0
  147.1822  139.1102  153.1347 C   0  0  0  0  0  0  0  0  0  0  0  0
  146.4467  138.3491  152.5100 O   0  0  0  0  0  0  0  0  0  0  0  0
  148.5399  138.8149  153.2829 N   0  0  0  0  0  0  0  0  0  0  0  0
  149.4688  139.6014  153.9663 C   0  0  0  0  0  0  0  0  0  0  0  0
  150.6441  139.2452  154.0416 O   0  0  0  0  0  0  0  0  0  0  0  0
  149.4241  142.9944  157.2906 N   0  0  0  0  0  0  0  0  0  0  0  0
  149.1148  143.2901  158.6831 C   0  0  0  0  0  0  0  0  0  0  0  0
  150.2689  144.0553  159.3513 C   0  0  1  0  0  0  0  0  0  0  0  0
  151.5448  143.2514  159.4901 C   0  0  0  0  0  0  0  0  0  0  0  0
  152.5784  144.3482  159.7249 C   0  0  0  0  0  0  0  0  0  0  0  0
  152.1188  145.4753  158.9850 O   0  0  0  0  0  0  0  0  0  0  0  0
  150.7701  145.2729  158.5714 C   0  0  0  0  0  0  0  0  0  0  0  0
  148.8765  137.9608  152.8631 H   0  0  0  0  0  0  0  0  0  0  0  0
  149.8726  142.6915  154.8841 H   0  0  0  0  0  0  0  0  0  0  0  0
  150.9478  141.3582  155.1558 H   0  0  0  0  0  0  0  0  0  0  0  0
  147.3016  142.0353  154.8890 H   0  0  0  0  0  0  0  0  0  0  0  0
  145.7278  140.6623  153.7094 H   0  0  0  0  0  0  0  0  0  0  0  0
  149.5152  143.7795  156.6621 H   0  0  0  0  0  0  0  0  0  0  0  0
  148.2013  143.8848  158.7351 H   0  0  0  0  0  0  0  0  0  0  0  0
  148.9190  142.3562  159.2126 H   0  0  0  0  0  0  0  0  0  0  0  0
  149.9591  144.3806  160.3461 H   0  0  0  0  0  0  0  0  0  0  0  0
  151.5079  142.5228  160.3004 H   0  0  0  0  0  0  0  0  0  0  0  0
  151.7664  142.7213  158.5624 H   0  0  0  0  0  0  0  0  0  0  0  0
  152.6118  144.6175  160.7814 H   0  0  0  0  0  0  0  0  0  0  0  0
  153.5817  144.0505  159.4190 H   0  0  0  0  0  0  0  0  0  0  0  0
  150.7678  145.0741  157.4990 H   0  0  0  0  0  0  0  0  0  0  0  0
  150.1635  146.1608  158.7504 H   0  0  0  0  0  0  0  0  0  0  0  0
  1  2  2  0  0  0  0
  2  3  1  0  0  0  0
  2 12  1  0  0  0  0
  3  4  1  0  0  0  0
  3 20  1  0  0  0  0
  3 21  1  0  0  0  0
  4 10  1  0  0  0  0
  4  5  1  0  0  0  0
  5  6  2  0  0  0  0
  5 22  1  0  0  0  0
  6  7  1  0  0  0  0
  6 23  1  0  0  0  0
  7  8  2  0  0  0  0
  7  9  1  0  0  0  0
  9 19  1  0  0  0  0
  9 10  1  0  0  0  0
 10 11  2  0  0  0  0
 12 13  1  0  0  0  0
 12 24  1  0  0  0  0
 13 14  1  0  0  0  0
 13 25  1  0  0  0  0
 13 26  1  0  0  0  0
 14 18  1  0  0  0  0
 14 15  1  0  0  0  0
 14 27  1  0  0  0  0
 15 16  1  0  0  0  0
 15 28  1  0  0  0  0
 15 29  1  0  0  0  0
 16 17  1  0  0  0  0
 16 30  1  0  0  0  0
 16 31  1  0  0  0  0
 17 18  1  0  0  0  0
 18 32  1  0  0  0  0
 18 33  1  0  0  0  0
M  END
> <s_m_source_file>
AV-unprocessed.smi

> <i_m_source_file_index>
1131

> <i_lp_mmshare_version>
43012

> <i_f3d_flags>
0

> <s_epik_input>
W0NIMl0xT1tDSDJdW0NIMl1bQ0BIXTFbQ0gyXVtOSF1DKD1PKVtDSDJdbjJbY0hdW2NIXWMoPU8pW25IXWMyPU8=

> <s_epik_cmdline>
J2VwaWtfcHl0aG9uJywgJy1waCcsICc3LjAnLCAnLXRuJywgJzgnLCAnLW1hJywgJzIwMCcsICctbWV0YWxfYmluZGluZycsICctaW1hZScsICc8aW5maWxlLm1hZT4nLCAnLW9tYWUnLCAnPG91dGZpbGUubWFlPic=

> <r_lp_tautomer_probability>
0.999537

> <r_epik_Ionization_Penalty>
0.00329016

> <r_epik_Ionization_Penalty_Charging>
0.00329014

> <r_epik_Ionization_Penalty_Neutral>
1.87063e-08

> <r_epik_State_Penalty>
0.00232461

> <r_epik_Charging_Adjusted_Penalty>
0.00561475

> <i_epik_Tot_Q>
0

> <i_epik_Tot_abs_Q>
0

> <r_epik_Metal_State_Penalty>
0.365289

> <b_epik_Metal_Only>
0

> <s_lp_Force_Field>
OPLS_2005

> <r_lp_Energy>
18.0195

> <b_lp_Chiralities_Consistent>
1

> <s_lp_Variant>
AV-unprocessed.smi:1131-2

> <Gold.Version>
5.8.1

> <Gold.Id.Protein>
6NUR|6NUR_protein|mol2

> <Gold.PLP.Fitness>
38.3260

> <Gold.PLP.PLP>
-29.6906

> <Gold.PLP.part.hbond>
-3.9940

> <Gold.PLP.part.metal>
0.0000

> <Gold.PLP.part.buried>
-2.5552

> <Gold.PLP.part.nonpolar>
-24.1947

> <Gold.PLP.part.repulsive>
0.6651

> <Gold.PLP.ligand.clash>
0.0000

> <Gold.PLP.ligand.torsion>
0.1290

> <Gold.PLP.Chemscore.Hbond>
2.9600

> <Gold.PLP.Chemscore.CHOScore>
0.0000

> <Gold.PLP.Chemscore.Metal>
0.0000

> <Gold.Chemscore.Hbonds>
donor molecule, donor type, donor heavy atom, donor atom, acceptor molecule, acceptor atom, score
      L1  H     9    19       P1  7948  1.00
      L1  H    12    24       P1  8028  0.92
      P1  H  7989  7998       L1    11  1.00

> <Gold.PLP.Chemscore.Internal.Correction>
0.0134

> <Gold.Rescore>
     Score         DG    S(hbond)    S(metal)    S(lipo)     H(rot)  DE(clash)    DE(int)     intcor
     15.23     -15.56       2.41        0.00      63.11       2.09       0.18       0.15       ----

> <Gold.Chemscore.Fitness>
15.2332

> <Gold.Chemscore.DG>
-15.5633

> <Gold.Chemscore.ZeroCoef>
-5.4800

> <Gold.Chemscore.Hbond>
2.4117

> <Gold.Chemscore.Metal>
0.0000

> <Gold.Chemscore.Lipo>
63.1071

> <Gold.Chemscore.Internal_Hbond>
0.0000

> <Gold.Chemscore.DEClash>
0.1794

> <Gold.Chemscore.DEInternal>
0.1507

> <Gold.Chemscore.Rot>
2.0919

> <Gold.Chemscore.Internal.Correction>
   9.000000E+99

> <Gold.Chemscore.Hbonds>
donor molecule, donor type, donor heavy atom, donor atom, acceptor molecule, acceptor atom, score
      L1  H     9    19       P1  7948  0.98
      L1  H    12    24       P1  8028  0.82
      P1  H  7989  7998       L1    11  0.39

> <Gold.Chemscore.Hbond.Weighted>
-8.0550

> <Gold.Chemscore.Metal.Weighted>
-0.0000

> <Gold.Chemscore.Lipo.Weighted>
-7.3835

> <Gold.Chemscore.Internal_Hbond.Weighted>
0.0000

> <Gold.Chemscore.DEClash.Weighted>
0.1794

> <Gold.Chemscore.DEInternal.Weighted>
0.1507

> <Gold.Chemscore.Rot.Weighted>
5.3552

> <Gold.Chemscore.Internal.Correction.Weighted>
   9.000000E+99

> <Gold.Protein.RotatedTorsions>
[ 6907 6896 6895 6894 ] final   20.75 input  -60.11 | X-H torsion
[ 7974 7965 7964 7962 ] final -168.24 input  175.53 | X-H torsion
[ 8008 7997 7996 7995 ] final  -22.99 input   59.86 | X-H torsion
[ 10167 10162 10161 10158 ] final   29.02 input  -65.29 | X-H torsion
[ 10718 10713 10712 10709 ] final   25.35 input   66.30 | X-H torsion
[ 10763 10752 10751 10750 ] final -123.83 input  -60.55 | X-H torsion
[ 11005 11000 10999 10996 ] final -171.78 input  -57.11 | X-H torsion

> <Gold.Protein.ActiveResidues>
 VAL166  LYS551  ARG553  GLY616  TRP617  ASP618  TYR619  PRO620  LYS621  CYS622 
 ASP623  PHE694  ASN695  SER759  ASP760  ASP761  ALA762  ILE779  LEU786  VAL792 
 PHE793  MET794  SER795  GLU796  ALA797  LYS798  CYS799  TRP800  GLU811  SER814 

> <Gold.Protein.RotatedAtoms>
  151.9012  135.0377  160.0506 H   0  0  0  0  0  0  0  0  0  0  0  0  # atno 6907 bound_to 6896
  152.2356  133.5089  159.5249 H   0  0  0  0  0  0  0  0  0  0  0  0  # atno 6908 bound_to 6896
  150.7038  134.1074  159.4030 H   0  0  0  0  0  0  0  0  0  0  0  0  # atno 6909 bound_to 6896
  144.7207  140.2399  143.6293 H   0  0  0  0  0  0  0  0  0  0  0  0  # atno 7974 bound_to 7965
  154.4611  140.1993  156.0242 H   0  0  0  0  0  0  0  0  0  0  0  0  # atno 8008 bound_to 7997
  156.0842  140.3267  155.7704 H   0  0  0  0  0  0  0  0  0  0  0  0  # atno 8009 bound_to 7997
  155.5062  140.0558  157.2922 H   0  0  0  0  0  0  0  0  0  0  0  0  # atno 8010 bound_to 7997
  140.4802  144.0628  150.6263 H   0  0  0  0  0  0  0  0  0  0  0  0  # atno 10167 bound_to 10162
  157.1922  130.6851  149.6154 H   0  0  0  0  0  0  0  0  0  0  0  0  # atno 10718 bound_to 10713
  154.8714  135.4084  154.3007 H   0  0  0  0  0  0  0  0  0  0  0  0  # atno 10763 bound_to 10752
  153.3867  135.7013  153.6530 H   0  0  0  0  0  0  0  0  0  0  0  0  # atno 10764 bound_to 10752
  153.5330  135.3663  155.2656 H   0  0  0  0  0  0  0  0  0  0  0  0  # atno 10765 bound_to 10752
  140.5043  134.5863  157.4998 H   0  0  0  0  0  0  0  0  0  0  0  0  # atno 11005 bound_to 11000
  145.8330  139.2094  143.1872 LP  0  0  0  0  0  0  0  0  0  0  0  0  # atno 17320 bound_to 7965
  146.0414  140.8161  142.9827 LP  0  0  0  0  0  0  0  0  0  0  0  0  # atno 17321 bound_to 7965
  140.3868  143.2773  152.0107 LP  0  0  0  0  0  0  0  0  0  0  0  0  # atno 17342 bound_to 10162
  139.4832  144.6110  151.7433 LP  0  0  0  0  0  0  0  0  0  0  0  0  # atno 17343 bound_to 10162
  155.9710  130.4611  150.6096 LP  0  0  0  0  0  0  0  0  0  0  0  0  # atno 17370 bound_to 10713
  157.3849  131.0787  151.1444 LP  0  0  0  0  0  0  0  0  0  0  0  0  # atno 17371 bound_to 10713
  139.9695  134.7317  156.0070 LP  0  0  0  0  0  0  0  0  0  0  0  0  # atno 17394 bound_to 11000
  141.1419  133.6563  156.3754 LP  0  0  0  0  0  0  0  0  0  0  0  0  # atno 17395 bound_to 11000

$$$$
