AV-unprocessed.smi:1045|AV-procd|sdf|4546|dock3
  -GOLD-   22720 2573D 1   1.00000     0.00000
 Structure written by MMmdl.
 43 44  0  0  0  0  0  0  0  0  2 V2000
  144.7253  135.4108  150.6446 C   0  0  0  0  0  0  0  0  0  0  0  0
  144.5196  136.2783  151.7461 O   0  0  0  0  0  0  0  0  0  0  0  0
  145.7292  136.6215  152.4023 C   0  0  0  0  0  0  0  0  0  0  0  0
  146.1629  138.0333  151.9768 C   0  0  2  0  0  0  0  0  0  0  0  0
  146.2430  138.1819  150.4502 C   0  0  0  0  0  0  0  0  0  0  0  0
  147.4685  138.3378  152.5590 N   0  0  0  0  0  0  0  0  0  0  0  0
  147.7091  139.2366  153.5248 C   0  0  0  0  0  0  0  0  0  0  0  0
  146.8356  139.9257  154.0506 O   0  0  0  0  0  0  0  0  0  0  0  0
  149.0140  139.2647  153.8476 N   0  0  0  0  0  0  0  0  0  0  0  0
  149.6753  140.1095  154.7805 C   0  0  0  0  0  0  0  0  0  0  0  0
  150.8757  139.6422  155.3582 C   0  0  0  0  0  0  0  0  0  0  0  0
  151.5760  140.4551  156.2732 C   0  0  0  0  0  0  0  0  0  0  0  0
  151.0693  141.7366  156.5917 C   0  0  0  0  0  0  0  0  0  0  0  0
  151.6876  142.6230  157.4850 N   0  0  0  0  0  0  0  0  0  0  0  0
  151.1713  142.5965  158.8435 C   0  0  0  0  0  0  0  0  0  0  0  0
  151.6826  143.8812  159.5002 C   0  0  0  0  0  0  0  0  0  0  0  0
  151.9948  144.8230  158.3312 C   0  0  0  0  0  0  0  0  0  0  0  0
  151.6576  144.0162  157.0740 C   0  0  0  0  0  0  0  0  0  0  0  0
  149.9224  142.1512  156.0115 N   0  3  0  0  0  0  0  0  0  0  0  0
  149.2199  141.4038  155.1326 C   0  0  0  0  0  0  0  0  0  0  0  0
  143.7675  135.1726  150.1821 H   0  0  0  0  0  0  0  0  0  0  0  0
  145.1887  134.4747  150.9587 H   0  0  0  0  0  0  0  0  0  0  0  0
  145.3570  135.8778  149.8878 H   0  0  0  0  0  0  0  0  0  0  0  0
  145.5728  136.5908  153.4821 H   0  0  0  0  0  0  0  0  0  0  0  0
  146.5088  135.8956  152.1643 H   0  0  0  0  0  0  0  0  0  0  0  0
  145.4151  138.7393  152.3420 H   0  0  0  0  0  0  0  0  0  0  0  0
  145.2786  137.9814  149.9828 H   0  0  0  0  0  0  0  0  0  0  0  0
  146.9698  137.4918  150.0204 H   0  0  0  0  0  0  0  0  0  0  0  0
  146.5370  139.1940  150.1703 H   0  0  0  0  0  0  0  0  0  0  0  0
  148.2525  137.8172  152.1932 H   0  0  0  0  0  0  0  0  0  0  0  0
  149.5974  138.5769  153.3940 H   0  0  0  0  0  0  0  0  0  0  0  0
  151.2593  138.6639  155.1078 H   0  0  0  0  0  0  0  0  0  0  0  0
  152.4899  140.0929  156.7214 H   0  0  0  0  0  0  0  0  0  0  0  0
  150.0808  142.5860  158.8431 H   0  0  0  0  0  0  0  0  0  0  0  0
  151.5161  141.7102  159.3771 H   0  0  0  0  0  0  0  0  0  0  0  0
  150.9481  144.3013  160.1880 H   0  0  0  0  0  0  0  0  0  0  0  0
  152.5922  143.6807  160.0675 H   0  0  0  0  0  0  0  0  0  0  0  0
  151.4201  145.7485  158.3787 H   0  0  0  0  0  0  0  0  0  0  0  0
  153.0527  145.0888  158.3405 H   0  0  0  0  0  0  0  0  0  0  0  0
  152.3730  144.2051  156.2731 H   0  0  0  0  0  0  0  0  0  0  0  0
  150.6654  144.2852  156.7098 H   0  0  0  0  0  0  0  0  0  0  0  0
  148.3342  141.8808  154.7409 H   0  0  0  0  0  0  0  0  0  0  0  0
  149.5692  143.0793  156.2463 H   0  0  0  0  0  0  0  0  0  0  0  0
  1  2  1  0  0  0  0
  1 21  1  0  0  0  0
  1 22  1  0  0  0  0
  1 23  1  0  0  0  0
  2  3  1  0  0  0  0
  3  4  1  0  0  0  0
  3 24  1  0  0  0  0
  3 25  1  0  0  0  0
  4  5  1  0  0  0  0
  4  6  1  0  0  0  0
  4 26  1  0  0  0  0
  5 27  1  0  0  0  0
  5 28  1  0  0  0  0
  5 29  1  0  0  0  0
  6  7  1  0  0  0  0
  6 30  1  0  0  0  0
  7  8  2  0  0  0  0
  7  9  1  0  0  0  0
  9 10  1  0  0  0  0
  9 31  1  0  0  0  0
 10 20  1  0  0  0  0
 10 11  2  0  0  0  0
 11 12  1  0  0  0  0
 11 32  1  0  0  0  0
 12 13  2  0  0  0  0
 12 33  1  0  0  0  0
 13 14  1  0  0  0  0
 13 19  1  0  0  0  0
 14 18  1  0  0  0  0
 14 15  1  0  0  0  0
 15 16  1  0  0  0  0
 15 34  1  0  0  0  0
 15 35  1  0  0  0  0
 16 17  1  0  0  0  0
 16 36  1  0  0  0  0
 16 37  1  0  0  0  0
 17 18  1  0  0  0  0
 17 38  1  0  0  0  0
 17 39  1  0  0  0  0
 18 40  1  0  0  0  0
 18 41  1  0  0  0  0
 19 20  2  0  0  0  0
 19 43  1  0  0  0  0
 20 42  1  0  0  0  0
M  CHG  1  19   1
M  END
> <s_m_source_file>
AV-unprocessed.smi

> <i_m_source_file_index>
1045

> <i_lp_mmshare_version>
43012

> <i_f3d_flags>
0

> <s_epik_input>
W0NIM11PW0NIMl1bQ0BIXShbQ0gzXSlbTkhdQyg9TylbTkhdYzFbY0hdW2NIXWMobltjSF0xKU4yW0NIMl1bQ0gyXVtDSDJdW0NIMl0y

> <s_epik_cmdline>
J2VwaWtfcHl0aG9uJywgJy1waCcsICc3LjAnLCAnLXRuJywgJzgnLCAnLW1hJywgJzIwMCcsICctbWV0YWxfYmluZGluZycsICctaW1hZScsICc8aW5maWxlLm1hZT4nLCAnLW9tYWUnLCAnPG91dGZpbGUubWFlPic=

> <r_lp_tautomer_probability>
0.999994

> <r_epik_Ionization_Penalty>
1.10308

> <r_epik_Ionization_Penalty_Charging>
1.10306

> <r_epik_Ionization_Penalty_Neutral>
1.99752e-05

> <r_epik_State_Penalty>
1.16038

> <r_epik_Charging_Adjusted_Penalty>
2.26344

> <i_epik_Tot_Q>
1

> <i_epik_Tot_abs_Q>
1

> <r_epik_Metal_State_Penalty>
1.24746

> <b_epik_Metal_Only>
0

> <s_lp_Force_Field>
OPLS_2005

> <r_lp_Energy>
40.1243

> <b_lp_Chiralities_Consistent>
1

> <s_lp_Variant>
AV-unprocessed.smi:1045-3

> <Gold.Version>
5.8.1

> <Gold.Id.Protein>
6NUR|6NUR_protein|mol2

> <Gold.PLP.Fitness>
43.1465

> <Gold.PLP.PLP>
-36.6039

> <Gold.PLP.part.hbond>
-3.9457

> <Gold.PLP.part.metal>
0.0000

> <Gold.PLP.part.buried>
4.5855

> <Gold.PLP.part.nonpolar>
-38.6847

> <Gold.PLP.part.repulsive>
0.8998

> <Gold.PLP.ligand.clash>
0.0000

> <Gold.PLP.ligand.torsion>
1.1392

> <Gold.PLP.Chemscore.Hbond>
2.9280

> <Gold.PLP.Chemscore.CHOScore>
0.0000

> <Gold.PLP.Chemscore.Metal>
0.0000

> <Gold.Chemscore.Hbonds>
donor molecule, donor type, donor heavy atom, donor atom, acceptor molecule, acceptor atom, score
      L1  H     6    30       P1  7948  0.98
      L1  H    19    43       P1  8028  1.95

> <Gold.PLP.Chemscore.Internal.Correction>
0.0369

> <Gold.Rescore>
     Score         DG    S(hbond)    S(metal)    S(lipo)     H(rot)  DE(clash)    DE(int)     intcor
     15.23     -20.04       1.93        0.00     105.15       1.64       2.66       2.15       ----

> <Gold.Chemscore.Fitness>
15.2309

> <Gold.Chemscore.DG>
-20.0405

> <Gold.Chemscore.ZeroCoef>
-5.4800

> <Gold.Chemscore.Hbond>
1.9313

> <Gold.Chemscore.Metal>
0.0000

> <Gold.Chemscore.Lipo>
105.1476

> <Gold.Chemscore.Internal_Hbond>
0.0000

> <Gold.Chemscore.DEClash>
2.6620

> <Gold.Chemscore.DEInternal>
2.1476

> <Gold.Chemscore.Rot>
1.6376

> <Gold.Chemscore.Internal.Correction>
   9.000000E+99

> <Gold.Chemscore.Hbonds>
donor molecule, donor type, donor heavy atom, donor atom, acceptor molecule, acceptor atom, score
      L1  H     6    30       P1  7948  0.93
      L1  H    19    43       P1  8028  0.93

> <Gold.Chemscore.Hbond.Weighted>
-6.4506

> <Gold.Chemscore.Metal.Weighted>
-0.0000

> <Gold.Chemscore.Lipo.Weighted>
-12.3023

> <Gold.Chemscore.Internal_Hbond.Weighted>
0.0000

> <Gold.Chemscore.DEClash.Weighted>
2.6620

> <Gold.Chemscore.DEInternal.Weighted>
2.1476

> <Gold.Chemscore.Rot.Weighted>
4.1924

> <Gold.Chemscore.Internal.Correction.Weighted>
   9.000000E+99

> <Gold.Protein.RotatedTorsions>
[ 6907 6896 6895 6894 ] final -167.18 input  -60.11 | X-H torsion
[ 7974 7965 7964 7962 ] final  -18.71 input  175.53 | X-H torsion
[ 8008 7997 7996 7995 ] final  -60.33 input   59.86 | X-H torsion
[ 10167 10162 10161 10158 ] final  -30.97 input  -65.29 | X-H torsion
[ 10718 10713 10712 10709 ] final  -72.15 input   66.30 | X-H torsion
[ 10763 10752 10751 10750 ] final  -71.87 input  -60.55 | X-H torsion
[ 11005 11000 10999 10996 ] final  -22.40 input  -57.11 | X-H torsion

> <Gold.Protein.ActiveResidues>
 VAL166  LYS551  ARG553  GLY616  TRP617  ASP618  TYR619  PRO620  LYS621  CYS622 
 ASP623  PHE694  ASN695  SER759  ASP760  ASP761  ALA762  ILE779  LEU786  VAL792 
 PHE793  MET794  SER795  GLU796  ALA797  LYS798  CYS799  TRP800  GLU811  SER814 

> <Gold.Protein.RotatedAtoms>
  151.4555  133.3606  159.2801 H   0  0  0  0  0  0  0  0  0  0  0  0  # atno 6907 bound_to 6896
  150.9061  134.8478  159.7404 H   0  0  0  0  0  0  0  0  0  0  0  0  # atno 6908 bound_to 6896
  152.4907  134.4480  159.9617 H   0  0  0  0  0  0  0  0  0  0  0  0  # atno 6909 bound_to 6896
  146.1878  140.3959  142.8469 H   0  0  0  0  0  0  0  0  0  0  0  0  # atno 7974 bound_to 7965
  154.4393  140.1042  156.6256 H   0  0  0  0  0  0  0  0  0  0  0  0  # atno 8008 bound_to 7997
  155.5660  140.3488  155.4484 H   0  0  0  0  0  0  0  0  0  0  0  0  # atno 8009 bound_to 7997
  156.0425  140.1285  157.0129 H   0  0  0  0  0  0  0  0  0  0  0  0  # atno 8010 bound_to 7997
  140.7242  143.3807  151.1607 H   0  0  0  0  0  0  0  0  0  0  0  0  # atno 10167 bound_to 10162
  156.0332  130.4366  150.2551 H   0  0  0  0  0  0  0  0  0  0  0  0  # atno 10718 bound_to 10713
  154.4377  135.5948  153.6109 H   0  0  0  0  0  0  0  0  0  0  0  0  # atno 10763 bound_to 10752
  152.9803  135.5990  154.3760 H   0  0  0  0  0  0  0  0  0  0  0  0  # atno 10764 bound_to 10752
  154.3606  135.2841  155.2300 H   0  0  0  0  0  0  0  0  0  0  0  0  # atno 10765 bound_to 10752
  140.8653  133.7759  156.0122 H   0  0  0  0  0  0  0  0  0  0  0  0  # atno 11005 bound_to 11000
  144.8430  140.6887  143.6217 LP  0  0  0  0  0  0  0  0  0  0  0  0  # atno 17320 bound_to 7965
  145.3884  139.1622  143.4242 LP  0  0  0  0  0  0  0  0  0  0  0  0  # atno 17321 bound_to 7965
  139.7395  143.8946  152.3045 LP  0  0  0  0  0  0  0  0  0  0  0  0  # atno 17342 bound_to 10162
  139.8763  144.7042  150.8929 LP  0  0  0  0  0  0  0  0  0  0  0  0  # atno 17343 bound_to 10162
  157.0652  131.0101  151.3209 LP  0  0  0  0  0  0  0  0  0  0  0  0  # atno 17370 bound_to 10713
  157.5041  130.7898  149.7635 LP  0  0  0  0  0  0  0  0  0  0  0  0  # atno 17371 bound_to 10713
  140.8636  134.2811  157.5223 LP  0  0  0  0  0  0  0  0  0  0  0  0  # atno 17394 bound_to 11000
  139.8709  134.9531  156.4134 LP  0  0  0  0  0  0  0  0  0  0  0  0  # atno 17395 bound_to 11000

$$$$
