AV-unprocessed.smi:1829|AV-procd|sdf|7428|dock3
  -GOLD-   22720 9113D 1   1.00000     0.00000
 Structure written by MMmdl.
 45 47  0  0  0  0  0  0  0  0  1 V2000
  150.3939  145.2645  159.9784 C   0  0  0  0  0  0  0  0  0  0  0  0
  151.8465  144.9902  159.5578 C   0  0  0  0  0  0  0  0  0  0  0  0
  152.0657  145.2665  158.0623 C   0  0  0  0  0  0  0  0  0  0  0  0
  152.2886  143.5814  159.9345 C   0  0  0  0  0  0  0  0  0  0  0  0
  152.2801  143.1755  161.2860 C   0  0  0  0  0  0  0  0  0  0  0  0
  152.6983  141.8787  161.6422 C   0  0  0  0  0  0  0  0  0  0  0  0
  153.1310  140.9716  160.6525 C   0  0  0  0  0  0  0  0  0  0  0  0
  153.5740  139.5724  161.0518 C   0  0  2  0  0  0  0  0  0  0  0  0
  154.9269  139.3195  160.7233 O   0  0  0  0  0  0  0  0  0  0  0  0
  152.6640  138.4995  160.4199 C   0  0  0  0  0  0  0  0  0  0  0  0
  153.1796  137.1469  160.5871 N   0  0  0  0  0  0  0  0  0  0  0  0
  153.6894  136.3211  159.6388 C   0  0  0  0  0  0  0  0  0  0  0  0
  153.7997  136.7246  158.2000 C   0  0  0  0  0  0  0  0  0  0  0  0
  154.2630  135.6777  157.3746 O   0  0  0  0  0  0  0  0  0  0  0  0
  154.0953  135.1254  160.0677 N   0  0  0  0  0  0  0  0  0  0  0  0
  153.8267  135.1812  161.4214 C   0  0  0  0  0  0  0  0  0  0  0  0
  154.0320  134.2212  162.4383 C   0  0  0  0  0  0  0  0  0  0  0  0
  153.6730  134.5061  163.7721 C   0  0  0  0  0  0  0  0  0  0  0  0
  153.1048  135.7520  164.1080 C   0  0  0  0  0  0  0  0  0  0  0  0
  152.8926  136.7227  163.1101 C   0  0  0  0  0  0  0  0  0  0  0  0
  153.2531  136.4337  161.7801 C   0  0  0  0  0  0  0  0  0  0  0  0
  153.1309  141.3735  159.2991 C   0  0  0  0  0  0  0  0  0  0  0  0
  152.7152  142.6708  158.9434 C   0  0  0  0  0  0  0  0  0  0  0  0
  150.2630  145.1180  161.0509 H   0  0  0  0  0  0  0  0  0  0  0  0
  149.6937  144.6062  159.4637 H   0  0  0  0  0  0  0  0  0  0  0  0
  150.1075  146.2915  159.7497 H   0  0  0  0  0  0  0  0  0  0  0  0
  152.4744  145.6926  160.1078 H   0  0  0  0  0  0  0  0  0  0  0  0
  153.1106  145.1215  157.7868 H   0  0  0  0  0  0  0  0  0  0  0  0
  151.7990  146.2928  157.8101 H   0  0  0  0  0  0  0  0  0  0  0  0
  151.4623  144.6065  157.4388 H   0  0  0  0  0  0  0  0  0  0  0  0
  151.9543  143.8573  162.0580 H   0  0  0  0  0  0  0  0  0  0  0  0
  152.6850  141.5826  162.6810 H   0  0  0  0  0  0  0  0  0  0  0  0
  153.5084  139.4994  162.1374 H   0  0  0  0  0  0  0  0  0  0  0  0
  155.4614  139.9905  161.1196 H   0  0  0  0  0  0  0  0  0  0  0  0
  151.6648  138.5492  160.8535 H   0  0  0  0  0  0  0  0  0  0  0  0
  152.5370  138.6927  159.3540 H   0  0  0  0  0  0  0  0  0  0  0  0
  152.8210  137.0442  157.8401 H   0  0  0  0  0  0  0  0  0  0  0  0
  154.4633  137.5830  158.1026 H   0  0  0  0  0  0  0  0  0  0  0  0
  154.9644  135.2302  157.8226 H   0  0  0  0  0  0  0  0  0  0  0  0
  154.4665  133.2641  162.1911 H   0  0  0  0  0  0  0  0  0  0  0  0
  153.8339  133.7646  164.5410 H   0  0  0  0  0  0  0  0  0  0  0  0
  152.8306  135.9619  165.1315 H   0  0  0  0  0  0  0  0  0  0  0  0
  152.4541  137.6768  163.3623 H   0  0  0  0  0  0  0  0  0  0  0  0
  153.4498  140.6886  158.5270 H   0  0  0  0  0  0  0  0  0  0  0  0
  152.7267  142.9635  157.9039 H   0  0  0  0  0  0  0  0  0  0  0  0
  1  2  1  0  0  0  0
  1 24  1  0  0  0  0
  1 25  1  0  0  0  0
  1 26  1  0  0  0  0
  2  3  1  0  0  0  0
  2  4  1  0  0  0  0
  2 27  1  0  0  0  0
  3 28  1  0  0  0  0
  3 29  1  0  0  0  0
  3 30  1  0  0  0  0
  4 23  1  0  0  0  0
  4  5  2  0  0  0  0
  5  6  1  0  0  0  0
  5 31  1  0  0  0  0
  6  7  2  0  0  0  0
  6 32  1  0  0  0  0
  7  8  1  0  0  0  0
  7 22  1  0  0  0  0
  8  9  1  0  0  0  0
  8 10  1  0  0  0  0
  8 33  1  0  0  0  0
  9 34  1  0  0  0  0
 10 11  1  0  0  0  0
 10 35  1  0  0  0  0
 10 36  1  0  0  0  0
 11 21  1  0  0  0  0
 11 12  1  0  0  0  0
 12 13  1  0  0  0  0
 12 15  2  0  0  0  0
 13 14  1  0  0  0  0
 13 37  1  0  0  0  0
 13 38  1  0  0  0  0
 14 39  1  0  0  0  0
 15 16  1  0  0  0  0
 16 21  2  0  0  0  0
 16 17  1  0  0  0  0
 17 18  2  0  0  0  0
 17 40  1  0  0  0  0
 18 19  1  0  0  0  0
 18 41  1  0  0  0  0
 19 20  2  0  0  0  0
 19 42  1  0  0  0  0
 20 21  1  0  0  0  0
 20 43  1  0  0  0  0
 22 23  2  0  0  0  0
 22 44  1  0  0  0  0
 23 45  1  0  0  0  0
M  END
> <s_m_source_file>
AV-unprocessed.smi

> <i_m_source_file_index>
1829

> <i_lp_mmshare_version>
43012

> <i_f3d_flags>
0

> <s_epik_input>
W0NIM11bQ0hdKFtDSDNdKWMxW2NIXVtjSF1jKFtjSF1bY0hdMSlbQ0BIXShbT0hdKVtDSDJdbihjKG4yKVtDSDJdW09IXSljKGMyMylbY0hdW2NIXVtjSF1bY0hdMw==

> <s_epik_cmdline>
J2VwaWtfcHl0aG9uJywgJy1waCcsICc3LjAnLCAnLXRuJywgJzgnLCAnLW1hJywgJzIwMCcsICctbWV0YWxfYmluZGluZycsICctaW1hZScsICc8aW5maWxlLm1hZT4nLCAnLW9tYWUnLCAnPG91dGZpbGUubWFlPic=

> <r_epik_Ionization_Penalty>
0.0634718

> <r_epik_Ionization_Penalty_Charging>
0

> <r_epik_Ionization_Penalty_Neutral>
0.0634718

> <r_epik_State_Penalty>
0.0551572

> <r_epik_Charging_Adjusted_Penalty>
0.0551572

> <i_epik_Tot_Q>
0

> <i_epik_Tot_abs_Q>
0

> <r_epik_Metal_State_Penalty>
5.78034e-05

> <b_epik_Metal_Only>
0

> <s_lp_Force_Field>
OPLS_2005

> <r_lp_Energy>
12.4565

> <b_lp_Chiralities_Consistent>
1

> <s_lp_Variant>
AV-unprocessed.smi:1829-1

> <Gold.Version>
5.8.1

> <Gold.Id.Protein>
6NUR|6NUR_protein|mol2

> <Gold.PLP.Fitness>
54.1528

> <Gold.PLP.PLP>
-51.5951

> <Gold.PLP.part.hbond>
-1.2486

> <Gold.PLP.part.metal>
0.0000

> <Gold.PLP.part.buried>
-6.4234

> <Gold.PLP.part.nonpolar>
-43.5912

> <Gold.PLP.part.repulsive>
0.0000

> <Gold.PLP.ligand.clash>
0.0000

> <Gold.PLP.ligand.torsion>
0.2304

> <Gold.PLP.Chemscore.Hbond>
0.9750

> <Gold.PLP.Chemscore.CHOScore>
0.0000

> <Gold.PLP.Chemscore.Metal>
0.0000

> <Gold.Chemscore.Hbonds>
donor molecule, donor type, donor heavy atom, donor atom, acceptor molecule, acceptor atom, score
      P1  H  6896  6909       L1    15  0.20
      P1  H 10752 10763       L1    14  0.99

> <Gold.PLP.Chemscore.Internal.Correction>
0.0935

> <Gold.Rescore>
     Score         DG    S(hbond)    S(metal)    S(lipo)     H(rot)  DE(clash)    DE(int)     intcor
     19.68     -20.04       0.99        0.00     154.84       2.68       0.01       0.36       ----

> <Gold.Chemscore.Fitness>
19.6802

> <Gold.Chemscore.DG>
-20.0409

> <Gold.Chemscore.ZeroCoef>
-5.4800

> <Gold.Chemscore.Hbond>
0.9865

> <Gold.Chemscore.Metal>
0.0000

> <Gold.Chemscore.Lipo>
154.8424

> <Gold.Chemscore.Internal_Hbond>
0.0000

> <Gold.Chemscore.DEClash>
0.0053

> <Gold.Chemscore.DEInternal>
0.3554

> <Gold.Chemscore.Rot>
2.6761

> <Gold.Chemscore.Internal.Correction>
   9.000000E+99

> <Gold.Chemscore.Hbonds>
donor molecule, donor type, donor heavy atom, donor atom, acceptor molecule, acceptor atom, score
      P1  H  6896  6909       L1    15  0.01
      P1  H 10752 10763       L1    14  0.92

> <Gold.Chemscore.Hbond.Weighted>
-3.2951

> <Gold.Chemscore.Metal.Weighted>
-0.0000

> <Gold.Chemscore.Lipo.Weighted>
-18.1166

> <Gold.Chemscore.Internal_Hbond.Weighted>
0.0000

> <Gold.Chemscore.DEClash.Weighted>
0.0053

> <Gold.Chemscore.DEInternal.Weighted>
0.3554

> <Gold.Chemscore.Rot.Weighted>
6.8507

> <Gold.Chemscore.Internal.Correction.Weighted>
   9.000000E+99

> <Gold.Protein.RotatedTorsions>
[ 6907 6896 6895 6894 ] final -123.18 input  -60.11 | X-H torsion
[ 7974 7965 7964 7962 ] final  -92.04 input  175.53 | X-H torsion
[ 8008 7997 7996 7995 ] final   23.88 input   59.86 | X-H torsion
[ 10167 10162 10161 10158 ] final  149.75 input  -65.29 | X-H torsion
[ 10718 10713 10712 10709 ] final -106.70 input   66.30 | X-H torsion
[ 10763 10752 10751 10750 ] final  137.43 input  -60.55 | X-H torsion
[ 11005 11000 10999 10996 ] final  -49.46 input  -57.11 | X-H torsion

> <Gold.Protein.ActiveResidues>
 VAL166  LYS551  ARG553  GLY616  TRP617  ASP618  TYR619  PRO620  LYS621  CYS622 
 ASP623  PHE694  ASN695  SER759  ASP760  ASP761  ALA762  ILE779  LEU786  VAL792 
 PHE793  MET794  SER795  GLU796  ALA797  LYS798  CYS799  TRP800  GLU811  SER814 

> <Gold.Protein.RotatedAtoms>
  150.8646  133.7593  159.2980 H   0  0  0  0  0  0  0  0  0  0  0  0  # atno 6907 bound_to 6896
  151.5224  135.1066  159.9891 H   0  0  0  0  0  0  0  0  0  0  0  0  # atno 6908 bound_to 6896
  152.4652  133.7863  159.6933 H   0  0  0  0  0  0  0  0  0  0  0  0  # atno 6909 bound_to 6896
  145.4052  140.9540  143.2265 H   0  0  0  0  0  0  0  0  0  0  0  0  # atno 7974 bound_to 7965
  154.9877  140.3110  155.4919 H   0  0  0  0  0  0  0  0  0  0  0  0  # atno 8008 bound_to 7997
  156.2944  140.2255  156.4920 H   0  0  0  0  0  0  0  0  0  0  0  0  # atno 8009 bound_to 7997
  154.7731  140.0451  157.1056 H   0  0  0  0  0  0  0  0  0  0  0  0  # atno 8010 bound_to 7997
  139.4858  144.5577  151.7287 H   0  0  0  0  0  0  0  0  0  0  0  0  # atno 10167 bound_to 10162
  156.0402  130.5626  150.7718 H   0  0  0  0  0  0  0  0  0  0  0  0  # atno 10718 bound_to 10713
  153.8730  135.3053  155.3443 H   0  0  0  0  0  0  0  0  0  0  0  0  # atno 10763 bound_to 10752
  154.7797  135.4842  153.9821 H   0  0  0  0  0  0  0  0  0  0  0  0  # atno 10764 bound_to 10752
  153.1395  135.6821  153.9145 H   0  0  0  0  0  0  0  0  0  0  0  0  # atno 10765 bound_to 10752
  141.0760  133.6665  156.3589 H   0  0  0  0  0  0  0  0  0  0  0  0  # atno 11005 bound_to 11000
  144.8347  139.5570  143.6928 LP  0  0  0  0  0  0  0  0  0  0  0  0  # atno 17320 bound_to 7965
  146.2732  139.6688  142.9281 LP  0  0  0  0  0  0  0  0  0  0  0  0  # atno 17321 bound_to 7965
  140.5141  144.0979  150.6003 LP  0  0  0  0  0  0  0  0  0  0  0  0  # atno 17342 bound_to 10162
  140.3915  143.2750  152.0054 LP  0  0  0  0  0  0  0  0  0  0  0  0  # atno 17343 bound_to 10162
  157.5210  131.0931  151.0079 LP  0  0  0  0  0  0  0  0  0  0  0  0  # atno 17370 bound_to 10713
  157.0409  130.5749  149.5356 LP  0  0  0  0  0  0  0  0  0  0  0  0  # atno 17371 bound_to 10713
  140.5571  134.5970  157.5424 LP  0  0  0  0  0  0  0  0  0  0  0  0  # atno 17394 bound_to 11000
  139.9573  134.7513  156.0314 LP  0  0  0  0  0  0  0  0  0  0  0  0  # atno 17395 bound_to 11000

$$$$
