AV-unprocessed.smi:2881|AV-procd|sdf|11062|dock9
  -GOLD-   2272015533D 1   1.00000     0.00000
 Structure written by MMmdl.
 40 42  0  0  0  0  0  0  0  0  1 V2000
  154.4448  136.5478  163.9930 C   0  0  0  0  0  0  0  0  0  0  0  0
  154.4529  137.5189  162.8617 C   0  0  0  0  0  0  0  0  0  0  0  0
  154.8674  138.8186  162.7882 C   0  0  0  0  0  0  0  0  0  0  0  0
  154.6196  139.1930  161.4343 C   0  0  0  0  0  0  0  0  0  0  0  0
  154.8916  140.5191  160.7768 C   0  0  0  0  0  0  0  0  0  0  0  0
  153.6162  141.0497  160.1219 C   0  0  0  0  0  0  0  0  0  0  0  0
  153.0751  140.4110  159.2196 O   0  0  0  0  0  0  0  0  0  0  0  0
  153.1466  142.2176  160.5868 N   0  0  0  0  0  0  0  0  0  0  0  0
  151.9372  142.8854  160.1140 C   0  0  1  0  0  0  0  0  0  0  0  0
  151.7409  144.2317  160.8453 C   0  0  2  0  0  0  0  0  0  0  0  0
  150.2896  144.7003  160.6370 C   0  0  0  0  0  0  0  0  0  0  0  0
  150.2885  145.1320  159.1586 C   0  0  0  0  0  0  0  0  0  0  0  0
  151.7367  144.8385  158.7102 C   0  0  1  0  0  0  0  0  0  0  0  0
  152.5110  145.2143  159.9673 C   0  0  0  0  0  0  0  0  0  0  0  0
  152.0259  143.3186  158.6278 C   0  0  2  0  0  0  0  0  0  0  0  0
  151.1218  142.5048  157.6810 C   0  0  0  0  0  0  0  0  0  0  0  0
  150.9864  143.1638  156.4398 O   0  0  0  0  0  0  0  0  0  0  0  0
  154.0862  138.2055  160.7277 N   0  0  0  0  0  0  0  0  0  0  0  0
  153.9919  137.1915  161.6076 N   0  0  0  0  0  0  0  0  0  0  0  0
  153.6157  136.2924  161.3419 H   0  0  0  0  0  0  0  0  0  0  0  0
  155.0140  136.9318  164.8399 H   0  0  0  0  0  0  0  0  0  0  0  0
  154.8881  135.5979  163.6937 H   0  0  0  0  0  0  0  0  0  0  0  0
  153.4262  136.3558  164.3307 H   0  0  0  0  0  0  0  0  0  0  0  0
  155.2912  139.4159  163.5820 H   0  0  0  0  0  0  0  0  0  0  0  0
  155.2631  141.2482  161.4987 H   0  0  0  0  0  0  0  0  0  0  0  0
  155.6680  140.4123  160.0185 H   0  0  0  0  0  0  0  0  0  0  0  0
  153.6553  142.6690  161.3334 H   0  0  0  0  0  0  0  0  0  0  0  0
  151.0801  142.2339  160.2958 H   0  0  0  0  0  0  0  0  0  0  0  0
  152.0398  144.2163  161.8942 H   0  0  0  0  0  0  0  0  0  0  0  0
  149.5627  143.9141  160.8432 H   0  0  0  0  0  0  0  0  0  0  0  0
  150.0570  145.5479  161.2828 H   0  0  0  0  0  0  0  0  0  0  0  0
  149.5369  144.6127  158.5660 H   0  0  0  0  0  0  0  0  0  0  0  0
  150.0769  146.1991  159.0799 H   0  0  0  0  0  0  0  0  0  0  0  0
  152.0348  145.3865  157.8160 H   0  0  0  0  0  0  0  0  0  0  0  0
  152.3783  146.2563  160.2644 H   0  0  0  0  0  0  0  0  0  0  0  0
  153.5786  144.9962  159.9027 H   0  0  0  0  0  0  0  0  0  0  0  0
  153.0545  143.2007  158.2804 H   0  0  0  0  0  0  0  0  0  0  0  0
  151.5631  141.5252  157.4986 H   0  0  0  0  0  0  0  0  0  0  0  0
  150.1367  142.3248  158.1097 H   0  0  0  0  0  0  0  0  0  0  0  0
  150.1084  143.5078  156.3771 H   0  0  0  0  0  0  0  0  0  0  0  0
  1  2  1  0  0  0  0
  1 21  1  0  0  0  0
  1 22  1  0  0  0  0
  1 23  1  0  0  0  0
  2 19  1  0  0  0  0
  2  3  2  0  0  0  0
  3  4  1  0  0  0  0
  3 24  1  0  0  0  0
  4  5  1  0  0  0  0
  4 18  2  0  0  0  0
  5  6  1  0  0  0  0
  5 25  1  0  0  0  0
  5 26  1  0  0  0  0
  6  7  2  0  0  0  0
  6  8  1  0  0  0  0
  8  9  1  0  0  0  0
  8 27  1  0  0  0  0
  9 15  1  0  0  0  0
  9 10  1  0  0  0  0
  9 28  1  0  0  0  0
 10 14  1  0  0  0  0
 10 11  1  0  0  0  0
 10 29  1  0  0  0  0
 11 12  1  0  0  0  0
 11 30  1  0  0  0  0
 11 31  1  0  0  0  0
 12 13  1  0  0  0  0
 12 32  1  0  0  0  0
 12 33  1  0  0  0  0
 13 14  1  0  0  0  0
 13 15  1  0  0  0  0
 13 34  1  0  0  0  0
 14 35  1  0  0  0  0
 14 36  1  0  0  0  0
 15 16  1  0  0  0  0
 15 37  1  0  0  0  0
 16 17  1  0  0  0  0
 16 38  1  0  0  0  0
 16 39  1  0  0  0  0
 17 40  1  0  0  0  0
 18 19  1  0  0  0  0
 19 20  1  0  0  0  0
M  END
> <s_m_source_file>
AV-unprocessed.smi

> <i_m_source_file_index>
2881

> <i_lp_mmshare_version>
43012

> <i_f3d_flags>
0

> <s_epik_input>
W0NIM11jMVtjSF1jKG5bbkhdMSlbQ0gyXUMoPU8pW05IXVtDQEhdKFtDQEBIXTIzKVtDQEhdKFtDSDJdW09IXSlbQ0BASF0oW0NIMl0zKVtDSDJdW0NIMl0y

> <s_epik_cmdline>
J2VwaWtfcHl0aG9uJywgJy1waCcsICc3LjAnLCAnLXRuJywgJzgnLCAnLW1hJywgJzIwMCcsICctbWV0YWxfYmluZGluZycsICctaW1hZScsICc8aW5maWxlLm1hZT4nLCAnLW9tYWUnLCAnPG91dGZpbGUubWFlPic=

> <r_lp_tautomer_probability>
0.5

> <r_epik_Ionization_Penalty>
9.4349e-05

> <r_epik_Ionization_Penalty_Charging>
0

> <r_epik_Ionization_Penalty_Neutral>
9.4349e-05

> <r_epik_State_Penalty>
0.41068

> <r_epik_Charging_Adjusted_Penalty>
0.41068

> <i_epik_Tot_Q>
0

> <i_epik_Tot_abs_Q>
0

> <r_epik_Metal_State_Penalty>
0.4107

> <b_epik_Metal_Only>
0

> <s_lp_Force_Field>
OPLS_2005

> <r_lp_Energy>
47.6032

> <b_lp_Chiralities_Consistent>
1

> <s_lp_Variant>
AV-unprocessed.smi:2881-8

> <Gold.Version>
5.8.1

> <Gold.Id.Protein>
6NUR|6NUR_protein|mol2

> <Gold.PLP.Fitness>
41.5971

> <Gold.PLP.PLP>
-38.8580

> <Gold.PLP.part.hbond>
-1.0000

> <Gold.PLP.part.metal>
0.0000

> <Gold.PLP.part.buried>
-5.6004

> <Gold.PLP.part.nonpolar>
-32.1806

> <Gold.PLP.part.repulsive>
0.0835

> <Gold.PLP.ligand.clash>
0.0000

> <Gold.PLP.ligand.torsion>
0.1480

> <Gold.PLP.Chemscore.Hbond>
1.0000

> <Gold.PLP.Chemscore.CHOScore>
0.0000

> <Gold.PLP.Chemscore.Metal>
0.0000

> <Gold.Chemscore.Hbonds>
donor molecule, donor type, donor heavy atom, donor atom, acceptor molecule, acceptor atom, score
      L1  H    17    40       P1  8028  1.00

> <Gold.PLP.Chemscore.Internal.Correction>
0.0350

> <Gold.Rescore>
     Score         DG    S(hbond)    S(metal)    S(lipo)     H(rot)  DE(clash)    DE(int)     intcor
     15.70     -17.33       1.00        0.00     122.52       2.28       1.24       0.39       ----

> <Gold.Chemscore.Fitness>
15.7003

> <Gold.Chemscore.DG>
-17.3282

> <Gold.Chemscore.ZeroCoef>
-5.4800

> <Gold.Chemscore.Hbond>
0.9997

> <Gold.Chemscore.Metal>
0.0000

> <Gold.Chemscore.Lipo>
122.5167

> <Gold.Chemscore.Internal_Hbond>
0.0000

> <Gold.Chemscore.DEClash>
1.2429

> <Gold.Chemscore.DEInternal>
0.3850

> <Gold.Chemscore.Rot>
2.2755

> <Gold.Chemscore.Internal.Correction>
   9.000000E+99

> <Gold.Chemscore.Hbonds>
donor molecule, donor type, donor heavy atom, donor atom, acceptor molecule, acceptor atom, score
      L1  H    17    40       P1  8028  0.94

> <Gold.Chemscore.Hbond.Weighted>
-3.3390

> <Gold.Chemscore.Metal.Weighted>
-0.0000

> <Gold.Chemscore.Lipo.Weighted>
-14.3345

> <Gold.Chemscore.Internal_Hbond.Weighted>
0.0000

> <Gold.Chemscore.DEClash.Weighted>
1.2429

> <Gold.Chemscore.DEInternal.Weighted>
0.3850

> <Gold.Chemscore.Rot.Weighted>
5.8252

> <Gold.Chemscore.Internal.Correction.Weighted>
   9.000000E+99

> <Gold.Protein.RotatedTorsions>
[ 6907 6896 6895 6894 ] final   10.95 input  -60.11 | X-H torsion
[ 7974 7965 7964 7962 ] final   65.56 input  175.53 | X-H torsion
[ 8008 7997 7996 7995 ] final    0.65 input   59.86 | X-H torsion
[ 10167 10162 10161 10158 ] final -124.93 input  -65.29 | X-H torsion
[ 10718 10713 10712 10709 ] final  130.74 input   66.30 | X-H torsion
[ 10763 10752 10751 10750 ] final   85.28 input  -60.55 | X-H torsion
[ 11005 11000 10999 10996 ] final   13.49 input  -57.11 | X-H torsion

> <Gold.Protein.ActiveResidues>
 VAL166  LYS551  ARG553  GLY616  TRP617  ASP618  TYR619  PRO620  LYS621  CYS622 
 ASP623  PHE694  ASN695  SER759  ASP760  ASP761  ALA762  ILE779  LEU786  VAL792 
 PHE793  MET794  SER795  GLU796  ALA797  LYS798  CYS799  TRP800  GLU811  SER814 

> <Gold.Protein.RotatedAtoms>
  151.7464  135.0842  160.0323 H   0  0  0  0  0  0  0  0  0  0  0  0  # atno 6907 bound_to 6896
  152.3445  133.6102  159.5909 H   0  0  0  0  0  0  0  0  0  0  0  0  # atno 6908 bound_to 6896
  150.7500  133.9586  159.3550 H   0  0  0  0  0  0  0  0  0  0  0  0  # atno 6909 bound_to 6896
  145.8370  139.3172  143.0954 H   0  0  0  0  0  0  0  0  0  0  0  0  # atno 7974 bound_to 7965
  154.6705  140.2611  155.7012 H   0  0  0  0  0  0  0  0  0  0  0  0  # atno 8008 bound_to 7997
  156.2657  140.2830  156.1134 H   0  0  0  0  0  0  0  0  0  0  0  0  # atno 8009 bound_to 7997
  155.1175  140.0376  157.2731 H   0  0  0  0  0  0  0  0  0  0  0  0  # atno 8010 bound_to 7997
  139.9875  143.5676  152.2355 H   0  0  0  0  0  0  0  0  0  0  0  0  # atno 10167 bound_to 10162
  157.5034  131.1095  150.9395 H   0  0  0  0  0  0  0  0  0  0  0  0  # atno 10718 bound_to 10713
  153.1460  135.4623  154.9566 H   0  0  0  0  0  0  0  0  0  0  0  0  # atno 10763 bound_to 10752
  154.7786  135.3181  154.8041 H   0  0  0  0  0  0  0  0  0  0  0  0  # atno 10764 bound_to 10752
  153.8555  135.6917  153.4842 H   0  0  0  0  0  0  0  0  0  0  0  0  # atno 10765 bound_to 10752
  140.4802  134.0943  155.7749 H   0  0  0  0  0  0  0  0  0  0  0  0  # atno 11005 bound_to 11000
  145.9508  140.8910  143.0260 LP  0  0  0  0  0  0  0  0  0  0  0  0  # atno 17320 bound_to 7965
  144.6736  140.1677  143.7417 LP  0  0  0  0  0  0  0  0  0  0  0  0  # atno 17321 bound_to 7965
  139.6364  144.7650  151.2429 LP  0  0  0  0  0  0  0  0  0  0  0  0  # atno 17342 bound_to 10162
  140.7467  143.6391  150.8352 LP  0  0  0  0  0  0  0  0  0  0  0  0  # atno 17343 bound_to 10162
  157.0059  130.5618  149.5316 LP  0  0  0  0  0  0  0  0  0  0  0  0  # atno 17370 bound_to 10713
  156.0243  130.5337  150.8363 LP  0  0  0  0  0  0  0  0  0  0  0  0  # atno 17371 bound_to 10713
  141.1535  133.8926  157.2038 LP  0  0  0  0  0  0  0  0  0  0  0  0  # atno 17394 bound_to 11000
  139.9831  135.0091  156.9798 LP  0  0  0  0  0  0  0  0  0  0  0  0  # atno 17395 bound_to 11000

$$$$
