AV-unprocessed.smi:1922|AV-procd|sdf|7787|dock5
  -GOLD-   22720 9533D 1   1.00000     0.00000
 Structure written by MMmdl.
 34 35  0  0  0  0  0  0  0  0  2 V2000
  153.3676  138.4795  160.6329 O   0  0  0  0  0  0  0  0  0  0  0  0
  153.6276  138.9843  159.5395 C   0  0  0  0  0  0  0  0  0  0  0  0
  154.0545  138.1174  158.3446 C   0  0  0  0  0  0  0  0  0  0  0  0
  153.0344  138.0013  157.2920 N   0  0  0  0  0  0  0  0  0  0  0  0
  152.7509  139.2576  156.6035 N   0  5  0  0  0  0  0  0  0  0  0  0
  151.8365  139.2699  155.5976 C   0  0  0  0  0  0  0  0  0  0  0  0
  151.5602  140.2836  154.9604 O   0  0  0  0  0  0  0  0  0  0  0  0
  151.1580  138.0259  155.2744 C   0  0  0  0  0  0  0  0  0  0  0  0
  151.4204  136.8865  155.9447 C   0  0  0  0  0  0  0  0  0  0  0  0
  152.3976  136.8251  157.0248 C   0  0  0  0  0  0  0  0  0  0  0  0
  152.6341  135.7901  157.6488 O   0  0  0  0  0  0  0  0  0  0  0  0
  153.5695  140.3045  159.3066 N   0  0  0  0  0  0  0  0  0  0  0  0
  153.1714  141.3222  160.2734 C   0  0  0  0  0  0  0  0  0  0  0  0
  153.0556  142.7124  159.6206 C   0  0  0  0  0  0  0  0  0  0  0  0
  152.4408  143.7695  160.5400 C   0  0  0  0  0  0  0  0  0  0  0  0
  151.9944  144.8963  159.6025 C   0  0  0  0  0  0  0  0  0  0  0  0
  151.7838  144.2500  158.2244 C   0  0  0  0  0  0  0  0  0  0  0  0
  152.1579  142.7714  158.3798 C   0  0  0  0  0  0  0  0  0  0  0  0
  154.9696  138.5267  157.9127 H   0  0  0  0  0  0  0  0  0  0  0  0
  154.3263  137.1315  158.7260 H   0  0  0  0  0  0  0  0  0  0  0  0
  150.4254  138.0154  154.4810 H   0  0  0  0  0  0  0  0  0  0  0  0
  150.8907  135.9862  155.6722 H   0  0  0  0  0  0  0  0  0  0  0  0
  153.8066  140.6268  158.3796 H   0  0  0  0  0  0  0  0  0  0  0  0
  152.2376  141.0496  160.7681 H   0  0  0  0  0  0  0  0  0  0  0  0
  153.9317  141.3493  161.0543 H   0  0  0  0  0  0  0  0  0  0  0  0
  154.0527  143.0534  159.3365 H   0  0  0  0  0  0  0  0  0  0  0  0
  151.5697  143.3557  161.0505 H   0  0  0  0  0  0  0  0  0  0  0  0
  153.1375  144.1153  161.3042 H   0  0  0  0  0  0  0  0  0  0  0  0
  151.0915  145.3864  159.9680 H   0  0  0  0  0  0  0  0  0  0  0  0
  152.7734  145.6567  159.5359 H   0  0  0  0  0  0  0  0  0  0  0  0
  150.7568  144.3617  157.8755 H   0  0  0  0  0  0  0  0  0  0  0  0
  152.4312  144.7287  157.4887 H   0  0  0  0  0  0  0  0  0  0  0  0
  152.6449  142.3707  157.4900 H   0  0  0  0  0  0  0  0  0  0  0  0
  151.2533  142.1858  158.5498 H   0  0  0  0  0  0  0  0  0  0  0  0
  1  2  2  0  0  0  0
  2  3  1  0  0  0  0
  2 12  1  0  0  0  0
  3 19  1  0  0  0  0
  3 20  1  0  0  0  0
  3  4  1  0  0  0  0
  4  5  1  0  0  0  0
  4 10  1  0  0  0  0
  5  6  1  0  0  0  0
  6  7  2  0  0  0  0
  6  8  1  0  0  0  0
  8 21  1  0  0  0  0
  8  9  2  0  0  0  0
  9 22  1  0  0  0  0
  9 10  1  0  0  0  0
 10 11  2  0  0  0  0
 12 13  1  0  0  0  0
 12 23  1  0  0  0  0
 13 14  1  0  0  0  0
 13 24  1  0  0  0  0
 13 25  1  0  0  0  0
 14 18  1  0  0  0  0
 14 15  1  0  0  0  0
 14 26  1  0  0  0  0
 15 16  1  0  0  0  0
 15 27  1  0  0  0  0
 15 28  1  0  0  0  0
 16 17  1  0  0  0  0
 16 29  1  0  0  0  0
 16 30  1  0  0  0  0
 17 18  1  0  0  0  0
 17 31  1  0  0  0  0
 17 32  1  0  0  0  0
 18 33  1  0  0  0  0
 18 34  1  0  0  0  0
M  CHG  1   5  -1
M  END
> <s_m_source_file>
AV-unprocessed.smi

> <i_m_source_file_index>
1922

> <i_lp_mmshare_version>
43012

> <i_f3d_flags>
0

> <s_epik_input>
W0NIMl0xW0NIMl1bQ0gyXVtDSDJdW0NIXTFbQ0gyXVtOSF1DKD1PKVtDSDJdbjJbbkhdYyg9TylbY0hdW2NIXWMyPU8=

> <s_epik_cmdline>
J2VwaWtfcHl0aG9uJywgJy1waCcsICc3LjAnLCAnLXRuJywgJzgnLCAnLW1hJywgJzIwMCcsICctbWV0YWxfYmluZGluZycsICctaW1hZScsICc8aW5maWxlLm1hZT4nLCAnLW9tYWUnLCAnPG91dGZpbGUubWFlPic=

> <r_lp_tautomer_probability>
1

> <r_epik_Ionization_Penalty>
0.0984168

> <r_epik_Ionization_Penalty_Charging>
0.0984168

> <r_epik_Ionization_Penalty_Neutral>
1.97085e-08

> <r_epik_State_Penalty>
0.0346886

> <r_epik_Charging_Adjusted_Penalty>
0.133105

> <i_epik_Tot_Q>
-1

> <i_epik_Tot_abs_Q>
1

> <r_epik_Metal_State_Penalty>
0.0346886

> <b_epik_Metal_Only>
0

> <s_lp_Force_Field>
OPLS_2005

> <r_lp_Energy>
36.8816

> <b_lp_Chiralities_Consistent>
1

> <s_lp_Variant>
AV-unprocessed.smi:1922-1

> <Gold.Version>
5.8.1

> <Gold.Id.Protein>
6NUR|6NUR_protein|mol2

> <Gold.PLP.Fitness>
43.6650

> <Gold.PLP.PLP>
-35.1160

> <Gold.PLP.part.hbond>
-2.9586

> <Gold.PLP.part.metal>
0.0000

> <Gold.PLP.part.buried>
-4.1787

> <Gold.PLP.part.nonpolar>
-27.8064

> <Gold.PLP.part.repulsive>
0.1470

> <Gold.PLP.ligand.clash>
0.0000

> <Gold.PLP.ligand.torsion>
0.2306

> <Gold.PLP.Chemscore.Hbond>
3.0000

> <Gold.PLP.Chemscore.CHOScore>
0.0000

> <Gold.PLP.Chemscore.Metal>
0.0000

> <Gold.Chemscore.Hbonds>
donor molecule, donor type, donor heavy atom, donor atom, acceptor molecule, acceptor atom, score
      P1  H  7989  7998       L1     7  0.99
      P1  H  7997  8008       L1     5  2.00

> <Gold.PLP.Chemscore.Internal.Correction>
0.0102

> <Gold.Rescore>
     Score         DG    S(hbond)    S(metal)    S(lipo)     H(rot)  DE(clash)    DE(int)     intcor
     17.13     -17.65       2.10        0.00      86.69       1.94       0.16       0.37       ----

> <Gold.Chemscore.Fitness>
17.1271

> <Gold.Chemscore.DG>
-17.6542

> <Gold.Chemscore.ZeroCoef>
-5.4800

> <Gold.Chemscore.Hbond>
2.0954

> <Gold.Chemscore.Metal>
0.0000

> <Gold.Chemscore.Lipo>
86.6853

> <Gold.Chemscore.Internal_Hbond>
0.0000

> <Gold.Chemscore.DEClash>
0.1577

> <Gold.Chemscore.DEInternal>
0.3694

> <Gold.Chemscore.Rot>
1.9401

> <Gold.Chemscore.Internal.Correction>
   9.000000E+99

> <Gold.Chemscore.Hbonds>
donor molecule, donor type, donor heavy atom, donor atom, acceptor molecule, acceptor atom, score
      P1  H  7989  7998       L1     7  0.90
      P1  H  7997  8008       L1     5  0.64

> <Gold.Chemscore.Hbond.Weighted>
-6.9987

> <Gold.Chemscore.Metal.Weighted>
-0.0000

> <Gold.Chemscore.Lipo.Weighted>
-10.1422

> <Gold.Chemscore.Internal_Hbond.Weighted>
0.0000

> <Gold.Chemscore.DEClash.Weighted>
0.1577

> <Gold.Chemscore.DEInternal.Weighted>
0.3694

> <Gold.Chemscore.Rot.Weighted>
4.9666

> <Gold.Chemscore.Internal.Correction.Weighted>
   9.000000E+99

> <Gold.Protein.RotatedTorsions>
[ 6907 6896 6895 6894 ] final  -47.63 input  -60.11 | X-H torsion
[ 7974 7965 7964 7962 ] final -150.58 input  175.53 | X-H torsion
[ 8008 7997 7996 7995 ] final  -36.13 input   59.86 | X-H torsion
[ 10167 10162 10161 10158 ] final -144.46 input  -65.29 | X-H torsion
[ 10718 10713 10712 10709 ] final -133.99 input   66.30 | X-H torsion
[ 10763 10752 10751 10750 ] final -142.07 input  -60.55 | X-H torsion
[ 11005 11000 10999 10996 ] final  132.74 input  -57.11 | X-H torsion

> <Gold.Protein.ActiveResidues>
 VAL166  LYS551  ARG553  GLY616  TRP617  ASP618  TYR619  PRO620  LYS621  CYS622 
 ASP623  PHE694  ASN695  SER759  ASP760  ASP761  ALA762  ILE779  LEU786  VAL792 
 PHE793  MET794  SER795  GLU796  ALA797  LYS798  CYS799  TRP800  GLU811  SER814 

> <Gold.Protein.RotatedAtoms>
  150.8988  134.8398  159.7345 H   0  0  0  0  0  0  0  0  0  0  0  0  # atno 6907 bound_to 6896
  152.4880  134.4535  159.9592 H   0  0  0  0  0  0  0  0  0  0  0  0  # atno 6908 bound_to 6896
  151.4589  133.3559  159.2841 H   0  0  0  0  0  0  0  0  0  0  0  0  # atno 6909 bound_to 6896
  144.7899  140.4912  143.5780 H   0  0  0  0  0  0  0  0  0  0  0  0  # atno 7974 bound_to 7965
  154.4080  140.1639  156.2324 H   0  0  0  0  0  0  0  0  0  0  0  0  # atno 8008 bound_to 7997
  155.9271  140.3417  155.6196 H   0  0  0  0  0  0  0  0  0  0  0  0  # atno 8009 bound_to 7997
  155.7152  140.0761  157.2345 H   0  0  0  0  0  0  0  0  0  0  0  0  # atno 8010 bound_to 7997
  139.7897  143.7984  152.2648 H   0  0  0  0  0  0  0  0  0  0  0  0  # atno 10167 bound_to 10162
  156.2507  130.7151  151.1049 H   0  0  0  0  0  0  0  0  0  0  0  0  # atno 10718 bound_to 10713
  154.8522  135.3506  154.5969 H   0  0  0  0  0  0  0  0  0  0  0  0  # atno 10763 bound_to 10752
  153.6578  135.6991  153.5192 H   0  0  0  0  0  0  0  0  0  0  0  0  # atno 10764 bound_to 10752
  153.2842  135.4254  155.1064 H   0  0  0  0  0  0  0  0  0  0  0  0  # atno 10765 bound_to 10752
  139.9809  134.9548  156.9625 H   0  0  0  0  0  0  0  0  0  0  0  0  # atno 11005 bound_to 11000
  145.5822  139.1489  143.3229 LP  0  0  0  0  0  0  0  0  0  0  0  0  # atno 17320 bound_to 7965
  146.2147  140.5951  142.9044 LP  0  0  0  0  0  0  0  0  0  0  0  0  # atno 17321 bound_to 7965
  139.8071  144.7351  150.9746 LP  0  0  0  0  0  0  0  0  0  0  0  0  # atno 17342 bound_to 10162
  140.7820  143.4287  151.0728 LP  0  0  0  0  0  0  0  0  0  0  0  0  # atno 17343 bound_to 10162
  157.7213  131.0679  150.6122 LP  0  0  0  0  0  0  0  0  0  0  0  0  # atno 17370 bound_to 10713
  156.6202  130.4404  149.5825 LP  0  0  0  0  0  0  0  0  0  0  0  0  # atno 17371 bound_to 10713
  140.5099  134.1012  155.7268 LP  0  0  0  0  0  0  0  0  0  0  0  0  # atno 17394 bound_to 11000
  141.1481  133.9019  157.2167 LP  0  0  0  0  0  0  0  0  0  0  0  0  # atno 17395 bound_to 11000

$$$$
