AV-unprocessed.smi:2410|AV-procd|sdf|9528|dock6
  -GOLD-   2272013163D 1   1.00000     0.00000
 Structure written by MMmdl.
 47 49  0  0  0  0  0  0  0  0  2 V2000
  145.6716  131.8048  150.1817 C   0  0  0  0  0  0  0  0  0  0  0  0
  146.5743  131.8698  151.4019 C   0  0  0  0  0  0  0  0  0  0  0  0
  147.1542  133.1120  151.7469 C   0  0  0  0  0  0  0  0  0  0  0  0
  147.9729  133.1401  152.8699 C   0  0  0  0  0  0  0  0  0  0  0  0
  148.6786  134.1886  153.4653 N   0  3  0  0  0  0  0  0  0  0  0  0
  149.3424  133.7258  154.5613 C   0  0  0  0  0  0  0  0  0  0  0  0
  149.0710  132.3972  154.6725 N   0  0  0  0  0  0  0  0  0  0  0  0
  149.5175  131.4150  155.6678 C   0  0  0  0  0  0  0  0  0  0  0  0
  149.2895  131.8968  157.1140 C   0  0  2  0  0  0  0  0  0  0  0  0
  150.0875  131.1069  157.9741 O   0  0  0  0  0  0  0  0  0  0  0  0
  147.8105  131.7698  157.5401 C   0  0  0  0  0  0  0  0  0  0  0  0
  147.5361  132.5005  158.7880 N   0  0  0  0  0  0  0  0  0  0  0  0
  147.1535  131.7246  159.8939 C   0  0  0  0  0  0  0  0  0  0  0  0
  146.8898  132.2610  161.0404 N   0  0  0  0  0  0  0  0  0  0  0  0
  146.9874  133.6464  161.2016 C   0  0  0  0  0  0  0  0  0  0  0  0
  146.6492  134.1711  162.5858 C   0  0  0  0  0  0  0  0  0  0  0  0
  147.3646  134.4532  160.1721 C   0  0  0  0  0  0  0  0  0  0  0  0
  147.4882  135.9673  160.2881 C   0  0  0  0  0  0  0  0  0  0  0  0
  147.6751  133.8563  158.8632 C   0  0  0  0  0  0  0  0  0  0  0  0
  148.0432  134.5229  157.8931 O   0  0  0  0  0  0  0  0  0  0  0  0
  148.2230  131.9876  153.6387 C   0  0  0  0  0  0  0  0  0  0  0  0
  147.6622  130.7552  153.3123 C   0  0  0  0  0  0  0  0  0  0  0  0
  146.8254  130.7063  152.1750 C   0  0  0  0  0  0  0  0  0  0  0  0
  146.1950  129.3764  151.7979 C   0  0  0  0  0  0  0  0  0  0  0  0
  145.5645  132.7831  149.7119 H   0  0  0  0  0  0  0  0  0  0  0  0
  144.6757  131.4584  150.4590 H   0  0  0  0  0  0  0  0  0  0  0  0
  146.0820  131.1214  149.4380 H   0  0  0  0  0  0  0  0  0  0  0  0
  146.9672  134.0015  151.1634 H   0  0  0  0  0  0  0  0  0  0  0  0
  149.9665  134.3080  155.2238 H   0  0  0  0  0  0  0  0  0  0  0  0
  148.9851  130.4820  155.4788 H   0  0  0  0  0  0  0  0  0  0  0  0
  150.5742  131.2112  155.4889 H   0  0  0  0  0  0  0  0  0  0  0  0
  149.6204  132.9323  157.1983 H   0  0  0  0  0  0  0  0  0  0  0  0
  149.5178  130.5933  158.5261 H   0  0  0  0  0  0  0  0  0  0  0  0
  147.1679  132.1860  156.7619 H   0  0  0  0  0  0  0  0  0  0  0  0
  147.5105  130.7212  157.5951 H   0  0  0  0  0  0  0  0  0  0  0  0
  147.0990  130.6490  159.7178 H   0  0  0  0  0  0  0  0  0  0  0  0
  145.8051  134.8595  162.5379 H   0  0  0  0  0  0  0  0  0  0  0  0
  147.5037  134.6944  163.0156 H   0  0  0  0  0  0  0  0  0  0  0  0
  146.3804  133.3593  163.2631 H   0  0  0  0  0  0  0  0  0  0  0  0
  148.5054  136.2812  160.0512 H   0  0  0  0  0  0  0  0  0  0  0  0
  147.2539  136.3419  161.2832 H   0  0  0  0  0  0  0  0  0  0  0  0
  146.8108  136.4546  159.5860 H   0  0  0  0  0  0  0  0  0  0  0  0
  147.8519  129.8707  153.9032 H   0  0  0  0  0  0  0  0  0  0  0  0
  146.5138  128.5788  152.4699 H   0  0  0  0  0  0  0  0  0  0  0  0
  146.4786  129.0902  150.7848 H   0  0  0  0  0  0  0  0  0  0  0  0
  145.1080  129.4406  151.8495 H   0  0  0  0  0  0  0  0  0  0  0  0
  148.7051  135.1502  153.1506 H   0  0  0  0  0  0  0  0  0  0  0  0
  1  2  1  0  0  0  0
  1 25  1  0  0  0  0
  1 26  1  0  0  0  0
  1 27  1  0  0  0  0
  2 23  1  0  0  0  0
  2  3  2  0  0  0  0
  3  4  1  0  0  0  0
  3 28  1  0  0  0  0
  4 21  2  0  0  0  0
  4  5  1  0  0  0  0
  5  6  2  0  0  0  0
  5 47  1  0  0  0  0
  6  7  1  0  0  0  0
  6 29  1  0  0  0  0
  7  8  1  0  0  0  0
  7 21  1  0  0  0  0
  8  9  1  0  0  0  0
  8 30  1  0  0  0  0
  8 31  1  0  0  0  0
  9 10  1  0  0  0  0
  9 11  1  0  0  0  0
  9 32  1  0  0  0  0
 10 33  1  0  0  0  0
 11 12  1  0  0  0  0
 11 34  1  0  0  0  0
 11 35  1  0  0  0  0
 12 19  1  0  0  0  0
 12 13  1  0  0  0  0
 13 14  2  0  0  0  0
 13 36  1  0  0  0  0
 14 15  1  0  0  0  0
 15 16  1  0  0  0  0
 15 17  2  0  0  0  0
 16 37  1  0  0  0  0
 16 38  1  0  0  0  0
 16 39  1  0  0  0  0
 17 18  1  0  0  0  0
 17 19  1  0  0  0  0
 18 40  1  0  0  0  0
 18 41  1  0  0  0  0
 18 42  1  0  0  0  0
 19 20  2  0  0  0  0
 21 22  1  0  0  0  0
 22 23  2  0  0  0  0
 22 43  1  0  0  0  0
 23 24  1  0  0  0  0
 24 44  1  0  0  0  0
 24 45  1  0  0  0  0
 24 46  1  0  0  0  0
M  CHG  1   5   1
M  END
> <s_m_source_file>
AV-unprocessed.smi

> <i_m_source_file_index>
2410

> <i_lp_mmshare_version>
43012

> <i_f3d_flags>
0

> <s_epik_input>
W0NIM11jKFtjSF0xKWMoW0NIM10pW2NIXWMoYzEyKW4oW2NIXW4yKVtDSDJdW0NASF0oW09IXSlbQ0gyXW4zW2NIXW5jKFtDSDNdKWMoW0NIM10pYzM9Tw==

> <s_epik_cmdline>
J2VwaWtfcHl0aG9uJywgJy1waCcsICc3LjAnLCAnLXRuJywgJzgnLCAnLW1hJywgJzIwMCcsICctbWV0YWxfYmluZGluZycsICctaW1hZScsICc8aW5maWxlLm1hZT4nLCAnLW9tYWUnLCAnPG91dGZpbGUubWFlPic=

> <r_lp_tautomer_probability>
1

> <r_epik_Ionization_Penalty>
1.03571

> <r_epik_Ionization_Penalty_Charging>
1.03568

> <r_epik_Ionization_Penalty_Neutral>
3.18232e-05

> <r_epik_State_Penalty>
1.08724

> <r_epik_Charging_Adjusted_Penalty>
2.12292

> <i_epik_Tot_Q>
1

> <i_epik_Tot_abs_Q>
1

> <r_epik_Metal_State_Penalty>
1.18374

> <b_epik_Metal_Only>
0

> <s_lp_Force_Field>
OPLS_2005

> <r_lp_Energy>
24.5371

> <b_lp_Chiralities_Consistent>
1

> <s_lp_Variant>
AV-unprocessed.smi:2410-3

> <Gold.Version>
5.8.1

> <Gold.Id.Protein>
6NUR|6NUR_protein|mol2

> <Gold.PLP.Fitness>
45.0410

> <Gold.PLP.PLP>
-39.6658

> <Gold.PLP.part.hbond>
-1.0000

> <Gold.PLP.part.metal>
0.0000

> <Gold.PLP.part.buried>
-3.7761

> <Gold.PLP.part.nonpolar>
-35.1783

> <Gold.PLP.part.repulsive>
0.0000

> <Gold.PLP.ligand.clash>
0.0000

> <Gold.PLP.ligand.torsion>
0.3208

> <Gold.PLP.Chemscore.Hbond>
2.0000

> <Gold.PLP.Chemscore.CHOScore>
0.0000

> <Gold.PLP.Chemscore.Metal>
0.0000

> <Gold.Chemscore.Hbonds>
donor molecule, donor type, donor heavy atom, donor atom, acceptor molecule, acceptor atom, score
      L1  H     5    47       P1  7948  1.82

> <Gold.PLP.Chemscore.Internal.Correction>
0.0168

> <Gold.Rescore>
     Score         DG    S(hbond)    S(metal)    S(lipo)     H(rot)  DE(clash)    DE(int)     intcor
     12.00     -12.65       0.83        0.00      90.22       2.41       0.00       0.66       ----

> <Gold.Chemscore.Fitness>
11.9954

> <Gold.Chemscore.DG>
-12.6504

> <Gold.Chemscore.ZeroCoef>
-5.4800

> <Gold.Chemscore.Hbond>
0.8299

> <Gold.Chemscore.Metal>
0.0000

> <Gold.Chemscore.Lipo>
90.2203

> <Gold.Chemscore.Internal_Hbond>
0.0000

> <Gold.Chemscore.DEClash>
0.0000

> <Gold.Chemscore.DEInternal>
0.6550

> <Gold.Chemscore.Rot>
2.4052

> <Gold.Chemscore.Internal.Correction>
   9.000000E+99

> <Gold.Chemscore.Hbonds>
donor molecule, donor type, donor heavy atom, donor atom, acceptor molecule, acceptor atom, score
      L1  H     5    47       P1  7948  0.58

> <Gold.Chemscore.Hbond.Weighted>
-2.7719

> <Gold.Chemscore.Metal.Weighted>
-0.0000

> <Gold.Chemscore.Lipo.Weighted>
-10.5558

> <Gold.Chemscore.Internal_Hbond.Weighted>
0.0000

> <Gold.Chemscore.DEClash.Weighted>
0.0000

> <Gold.Chemscore.DEInternal.Weighted>
0.6550

> <Gold.Chemscore.Rot.Weighted>
6.1573

> <Gold.Chemscore.Internal.Correction.Weighted>
   9.000000E+99

> <Gold.Protein.RotatedTorsions>
[ 6907 6896 6895 6894 ] final  -96.24 input  -60.11 | X-H torsion
[ 7974 7965 7964 7962 ] final -145.57 input  175.53 | X-H torsion
[ 8008 7997 7996 7995 ] final -144.33 input   59.86 | X-H torsion
[ 10167 10162 10161 10158 ] final -154.06 input  -65.29 | X-H torsion
[ 10718 10713 10712 10709 ] final  -92.22 input   66.30 | X-H torsion
[ 10763 10752 10751 10750 ] final  -21.67 input  -60.55 | X-H torsion
[ 11005 11000 10999 10996 ] final  -98.97 input  -57.11 | X-H torsion

> <Gold.Protein.ActiveResidues>
 VAL166  LYS551  ARG553  GLY616  TRP617  ASP618  TYR619  PRO620  LYS621  CYS622 
 ASP623  PHE694  ASN695  SER759  ASP760  ASP761  ALA762  ILE779  LEU786  VAL792 
 PHE793  MET794  SER795  GLU796  ALA797  LYS798  CYS799  TRP800  GLU811  SER814 

> <Gold.Protein.RotatedAtoms>
  150.6984  134.1533  159.4148 H   0  0  0  0  0  0  0  0  0  0  0  0  # atno 6907 bound_to 6896
  151.9515  135.0164  160.0551 H   0  0  0  0  0  0  0  0  0  0  0  0  # atno 6908 bound_to 6896
  152.2006  133.4803  159.5093 H   0  0  0  0  0  0  0  0  0  0  0  0  # atno 6909 bound_to 6896
  144.8218  140.5567  143.5573 H   0  0  0  0  0  0  0  0  0  0  0  0  # atno 7974 bound_to 7965
  155.5252  140.0595  157.2899 H   0  0  0  0  0  0  0  0  0  0  0  0  # atno 8008 bound_to 7997
  154.4503  140.1945  156.0484 H   0  0  0  0  0  0  0  0  0  0  0  0  # atno 8009 bound_to 7997
  156.0691  140.3262  155.7558 H   0  0  0  0  0  0  0  0  0  0  0  0  # atno 8010 bound_to 7997
  139.7045  143.9209  152.2443 H   0  0  0  0  0  0  0  0  0  0  0  0  # atno 10167 bound_to 10162
  156.0000  130.4979  150.5593 H   0  0  0  0  0  0  0  0  0  0  0  0  # atno 10718 bound_to 10713
  153.6398  135.6985  153.5245 H   0  0  0  0  0  0  0  0  0  0  0  0  # atno 10763 bound_to 10752
  153.2791  135.4191  155.1061 H   0  0  0  0  0  0  0  0  0  0  0  0  # atno 10764 bound_to 10752
  154.8502  135.3597  154.5942 H   0  0  0  0  0  0  0  0  0  0  0  0  # atno 10765 bound_to 10752
  141.1325  133.8286  157.0910 H   0  0  0  0  0  0  0  0  0  0  0  0  # atno 11005 bound_to 11000
  145.5087  139.1480  143.3616 LP  0  0  0  0  0  0  0  0  0  0  0  0  # atno 17320 bound_to 7965
  146.2524  140.5228  142.8888 LP  0  0  0  0  0  0  0  0  0  0  0  0  # atno 17321 bound_to 7965
  139.9060  144.6884  150.8613 LP  0  0  0  0  0  0  0  0  0  0  0  0  # atno 17342 bound_to 10162
  140.7718  143.3478  151.2075 LP  0  0  0  0  0  0  0  0  0  0  0  0  # atno 17343 bound_to 10162
  157.3505  131.0732  151.1717 LP  0  0  0  0  0  0  0  0  0  0  0  0  # atno 17370 bound_to 10713
  157.2535  130.6625  149.5942 LP  0  0  0  0  0  0  0  0  0  0  0  0  # atno 17371 bound_to 10713
  140.0392  134.9863  157.0930 LP  0  0  0  0  0  0  0  0  0  0  0  0  # atno 17394 bound_to 11000
  140.4162  134.1929  155.7163 LP  0  0  0  0  0  0  0  0  0  0  0  0  # atno 17395 bound_to 11000

$$$$
