AV-unprocessed.smi:1557|AV-procd|sdf|6270|dock8
  -GOLD-   22720 6463D 1   1.00000     0.00000
 Structure written by MMmdl.
 41 42  0  0  0  0  0  0  0  0  1 V2000
  145.7633  133.9169  150.9306 C   0  0  0  0  0  0  0  0  0  0  0  0
  146.3879  132.8038  151.7752 C   0  0  0  0  0  0  0  0  0  0  0  0
  147.4199  133.3670  152.5789 O   0  0  0  0  0  0  0  0  0  0  0  0
  148.1360  132.5365  153.4199 C   0  0  0  0  0  0  0  0  0  0  0  0
  147.8570  131.2088  153.4100 N   0  0  0  0  0  0  0  0  0  0  0  0
  148.5541  130.3999  154.2343 C   0  0  0  0  0  0  0  0  0  0  0  0
  149.5518  130.8665  155.1099 C   0  0  0  0  0  0  0  0  0  0  0  0
  149.8432  132.2432  155.1216 C   0  0  0  0  0  0  0  0  0  0  0  0
  149.1309  133.1023  154.2503 C   0  0  0  0  0  0  0  0  0  0  0  0
  149.3331  134.5082  154.1949 N   0  0  0  0  0  0  0  0  0  0  0  0
  149.6286  135.3480  155.2006 C   0  0  0  0  0  0  0  0  0  0  0  0
  149.7537  135.0283  156.3829 O   0  0  0  0  0  0  0  0  0  0  0  0
  149.7978  136.5998  154.7493 N   0  0  0  0  0  0  0  0  0  0  0  0
  150.2052  137.7473  155.5615 C   0  0  2  0  0  0  0  0  0  0  0  0
  150.4292  138.9515  154.6124 C   0  0  0  0  0  0  0  0  0  0  0  0
  151.2355  140.1379  155.1867 C   0  0  0  0  0  0  0  0  0  0  0  0
  150.8581  140.5528  156.6236 C   0  0  0  0  0  0  0  0  0  0  0  0
  151.0579  139.4864  157.7320 C   0  0  0  0  0  0  0  0  0  0  0  0
  151.8368  138.3155  157.3280 N   0  0  0  0  0  0  0  0  0  0  0  0
  151.5016  137.4563  156.3506 C   0  0  0  0  0  0  0  0  0  0  0  0
  152.2131  136.4913  156.0734 O   0  0  0  0  0  0  0  0  0  0  0  0
  144.9650  133.5256  150.2996 H   0  0  0  0  0  0  0  0  0  0  0  0
  146.5068  134.3796  150.2812 H   0  0  0  0  0  0  0  0  0  0  0  0
  145.3382  134.6966  151.5632 H   0  0  0  0  0  0  0  0  0  0  0  0
  145.6210  132.3479  152.4035 H   0  0  0  0  0  0  0  0  0  0  0  0
  146.7936  132.0314  151.1201 H   0  0  0  0  0  0  0  0  0  0  0  0
  148.3042  129.3499  154.1997 H   0  0  0  0  0  0  0  0  0  0  0  0
  150.0786  130.1852  155.7612 H   0  0  0  0  0  0  0  0  0  0  0  0
  150.5920  132.6138  155.8045 H   0  0  0  0  0  0  0  0  0  0  0  0
  149.3504  134.9044  153.2665 H   0  0  0  0  0  0  0  0  0  0  0  0
  149.6809  136.7660  153.7608 H   0  0  0  0  0  0  0  0  0  0  0  0
  149.3993  137.9805  156.2590 H   0  0  0  0  0  0  0  0  0  0  0  0
  150.9291  138.6192  153.7009 H   0  0  0  0  0  0  0  0  0  0  0  0
  149.4520  139.3162  154.2930 H   0  0  0  0  0  0  0  0  0  0  0  0
  152.3014  139.9086  155.1483 H   0  0  0  0  0  0  0  0  0  0  0  0
  151.1092  140.9957  154.5254 H   0  0  0  0  0  0  0  0  0  0  0  0
  151.4559  141.4274  156.8827 H   0  0  0  0  0  0  0  0  0  0  0  0
  149.8228  140.8960  156.6418 H   0  0  0  0  0  0  0  0  0  0  0  0
  151.5541  139.9426  158.5890 H   0  0  0  0  0  0  0  0  0  0  0  0
  150.0894  139.1504  158.1048 H   0  0  0  0  0  0  0  0  0  0  0  0
  152.6911  138.1385  157.8363 H   0  0  0  0  0  0  0  0  0  0  0  0
  1  2  1  0  0  0  0
  1 22  1  0  0  0  0
  1 23  1  0  0  0  0
  1 24  1  0  0  0  0
  2  3  1  0  0  0  0
  2 25  1  0  0  0  0
  2 26  1  0  0  0  0
  3  4  1  0  0  0  0
  4  9  1  0  0  0  0
  4  5  2  0  0  0  0
  5  6  1  0  0  0  0
  6  7  2  0  0  0  0
  6 27  1  0  0  0  0
  7  8  1  0  0  0  0
  7 28  1  0  0  0  0
  8  9  2  0  0  0  0
  8 29  1  0  0  0  0
  9 10  1  0  0  0  0
 10 11  1  0  0  0  0
 10 30  1  0  0  0  0
 11 12  2  0  0  0  0
 11 13  1  0  0  0  0
 13 14  1  0  0  0  0
 13 31  1  0  0  0  0
 14 20  1  0  0  0  0
 14 15  1  0  0  0  0
 14 32  1  0  0  0  0
 15 16  1  0  0  0  0
 15 33  1  0  0  0  0
 15 34  1  0  0  0  0
 16 17  1  0  0  0  0
 16 35  1  0  0  0  0
 16 36  1  0  0  0  0
 17 18  1  0  0  0  0
 17 37  1  0  0  0  0
 17 38  1  0  0  0  0
 18 19  1  0  0  0  0
 18 39  1  0  0  0  0
 18 40  1  0  0  0  0
 19 20  1  0  0  0  0
 19 41  1  0  0  0  0
 20 21  2  0  0  0  0
M  END
> <s_m_source_file>
AV-unprocessed.smi

> <i_m_source_file_index>
1557

> <i_lp_mmshare_version>
43012

> <i_f3d_flags>
0

> <s_epik_input>
W0NIM11bQ0gyXU9jMW5bY0hdW2NIXVtjSF1jMVtOSF1DKD1PKVtOSF1bQ0BASF0yW0NIMl1bQ0gyXVtDSDJdW0NIMl1bTkhdQzI9Tw==

> <s_epik_cmdline>
J2VwaWtfcHl0aG9uJywgJy1waCcsICc3LjAnLCAnLXRuJywgJzgnLCAnLW1hJywgJzIwMCcsICctbWV0YWxfYmluZGluZycsICctaW1hZScsICc8aW5maWxlLm1hZT4nLCAnLW9tYWUnLCAnPG91dGZpbGUubWFlPic=

> <r_lp_tautomer_probability>
1

> <r_epik_Ionization_Penalty>
0.000101084

> <r_epik_Ionization_Penalty_Charging>
0

> <r_epik_Ionization_Penalty_Neutral>
0.000101084

> <r_epik_State_Penalty>
-0

> <r_epik_Charging_Adjusted_Penalty>
0

> <i_epik_Tot_Q>
0

> <i_epik_Tot_abs_Q>
0

> <r_epik_Metal_State_Penalty>
-0

> <b_epik_Metal_Only>
0

> <s_lp_Force_Field>
OPLS_2005

> <r_lp_Energy>
17.7694

> <b_lp_Chiralities_Consistent>
1

> <s_lp_Variant>
AV-unprocessed.smi:1557-1

> <Gold.Version>
5.8.1

> <Gold.Id.Protein>
6NUR|6NUR_protein|mol2

> <Gold.PLP.Fitness>
38.0710

> <Gold.PLP.PLP>
-31.6563

> <Gold.PLP.part.hbond>
-3.0000

> <Gold.PLP.part.metal>
0.0000

> <Gold.PLP.part.buried>
-2.7632

> <Gold.PLP.part.nonpolar>
-26.8821

> <Gold.PLP.part.repulsive>
0.5637

> <Gold.PLP.ligand.clash>
0.0000

> <Gold.PLP.ligand.torsion>
0.3078

> <Gold.PLP.Chemscore.Hbond>
2.3413

> <Gold.PLP.Chemscore.CHOScore>
0.0000

> <Gold.PLP.Chemscore.Metal>
0.0000

> <Gold.Chemscore.Hbonds>
donor molecule, donor type, donor heavy atom, donor atom, acceptor molecule, acceptor atom, score
      L1  H    10    30       P1  7948  0.50
      L1  H    13    31       P1  7948  0.89
      P1  H 10752 10764       L1    21  1.00

> <Gold.PLP.Chemscore.Internal.Correction>
0.0066

> <Gold.Rescore>
     Score         DG    S(hbond)    S(metal)    S(lipo)     H(rot)  DE(clash)    DE(int)     intcor
     11.09     -14.99       1.93        0.00      58.79       1.49       0.36       3.54       ----

> <Gold.Chemscore.Fitness>
11.0912

> <Gold.Chemscore.DG>
-14.9858

> <Gold.Chemscore.ZeroCoef>
-5.4800

> <Gold.Chemscore.Hbond>
1.9324

> <Gold.Chemscore.Metal>
0.0000

> <Gold.Chemscore.Lipo>
58.7911

> <Gold.Chemscore.Internal_Hbond>
0.0000

> <Gold.Chemscore.DEClash>
0.3552

> <Gold.Chemscore.DEInternal>
3.5394

> <Gold.Chemscore.Rot>
1.4948

> <Gold.Chemscore.Internal.Correction>
   9.000000E+99

> <Gold.Chemscore.Hbonds>
donor molecule, donor type, donor heavy atom, donor atom, acceptor molecule, acceptor atom, score
      L1  H    10    30       P1  7948  0.02
      L1  H    13    31       P1  7948  0.59
      P1  H 10752 10764       L1    21  1.00

> <Gold.Chemscore.Hbond.Weighted>
-6.4541

> <Gold.Chemscore.Metal.Weighted>
-0.0000

> <Gold.Chemscore.Lipo.Weighted>
-6.8786

> <Gold.Chemscore.Internal_Hbond.Weighted>
0.0000

> <Gold.Chemscore.DEClash.Weighted>
0.3552

> <Gold.Chemscore.DEInternal.Weighted>
3.5394

> <Gold.Chemscore.Rot.Weighted>
3.8268

> <Gold.Chemscore.Internal.Correction.Weighted>
   9.000000E+99

> <Gold.Protein.RotatedTorsions>
[ 6907 6896 6895 6894 ] final  -10.97 input  -60.11 | X-H torsion
[ 7974 7965 7964 7962 ] final   17.07 input  175.53 | X-H torsion
[ 8008 7997 7996 7995 ] final -111.97 input   59.86 | X-H torsion
[ 10167 10162 10161 10158 ] final   21.97 input  -65.29 | X-H torsion
[ 10718 10713 10712 10709 ] final   37.17 input   66.30 | X-H torsion
[ 10763 10752 10751 10750 ] final  -34.15 input  -60.55 | X-H torsion
[ 11005 11000 10999 10996 ] final   68.80 input  -57.11 | X-H torsion

> <Gold.Protein.ActiveResidues>
 VAL166  LYS551  ARG553  GLY616  TRP617  ASP618  TYR619  PRO620  LYS621  CYS622 
 ASP623  PHE694  ASN695  SER759  ASP760  ASP761  ALA762  ILE779  LEU786  VAL792 
 PHE793  MET794  SER795  GLU796  ALA797  LYS798  CYS799  TRP800  GLU811  SER814 

> <Gold.Protein.RotatedAtoms>
  151.3936  135.0960  159.9533 H   0  0  0  0  0  0  0  0  0  0  0  0  # atno 6907 bound_to 6896
  152.5072  133.8956  159.7426 H   0  0  0  0  0  0  0  0  0  0  0  0  # atno 6908 bound_to 6896
  150.9415  133.6595  159.2818 H   0  0  0  0  0  0  0  0  0  0  0  0  # atno 6909 bound_to 6896
  146.2230  139.8655  142.8597 H   0  0  0  0  0  0  0  0  0  0  0  0  # atno 7974 bound_to 7965
  154.9981  140.0394  157.2348 H   0  0  0  0  0  0  0  0  0  0  0  0  # atno 8008 bound_to 7997
  154.7569  140.2777  155.6223 H   0  0  0  0  0  0  0  0  0  0  0  0  # atno 8009 bound_to 7997
  156.2896  140.2636  156.2337 H   0  0  0  0  0  0  0  0  0  0  0  0  # atno 8010 bound_to 7997
  140.5385  143.9718  150.6505 H   0  0  0  0  0  0  0  0  0  0  0  0  # atno 10167 bound_to 10162
  157.3437  130.7561  149.6929 H   0  0  0  0  0  0  0  0  0  0  0  0  # atno 10718 bound_to 10713
  153.8420  135.6856  153.4802 H   0  0  0  0  0  0  0  0  0  0  0  0  # atno 10763 bound_to 10752
  153.1448  135.4642  154.9547 H   0  0  0  0  0  0  0  0  0  0  0  0  # atno 10764 bound_to 10752
  154.7840  135.3278  154.7873 H   0  0  0  0  0  0  0  0  0  0  0  0  # atno 10765 bound_to 10752
  139.9690  134.6932  156.0486 H   0  0  0  0  0  0  0  0  0  0  0  0  # atno 11005 bound_to 11000
  145.2661  141.0093  143.3799 LP  0  0  0  0  0  0  0  0  0  0  0  0  # atno 17320 bound_to 7965
  144.9260  139.4354  143.6518 LP  0  0  0  0  0  0  0  0  0  0  0  0  # atno 17321 bound_to 7965
  140.3112  143.3197  152.0877 LP  0  0  0  0  0  0  0  0  0  0  0  0  # atno 17342 bound_to 10162
  139.4980  144.6635  151.6411 LP  0  0  0  0  0  0  0  0  0  0  0  0  # atno 17343 bound_to 10162
  155.9711  130.4160  150.4211 LP  0  0  0  0  0  0  0  0  0  0  0  0  # atno 17370 bound_to 10713
  157.2263  131.0494  151.2518 LP  0  0  0  0  0  0  0  0  0  0  0  0  # atno 17371 bound_to 10713
  141.1370  133.6573  156.3621 LP  0  0  0  0  0  0  0  0  0  0  0  0  # atno 17394 bound_to 11000
  140.5334  134.6190  157.5357 LP  0  0  0  0  0  0  0  0  0  0  0  0  # atno 17395 bound_to 11000

$$$$
