AV-unprocessed.smi:1760|AV-procd|sdf|7093|dock2
  -GOLD-   22720 8313D 1   1.00000     0.00000
 Structure written by MMmdl.
 43 45  0  0  0  0  0  0  0  0  3 V2000
  146.8946  132.5659  154.5139 O   0  0  0  0  0  0  0  0  0  0  0  0
  147.5948  133.4380  154.0002 C   0  0  0  0  0  0  0  0  0  0  0  0
  148.8966  133.6609  154.2571 N   0  0  0  0  0  0  0  0  0  0  0  0
  149.7686  132.9789  155.1236 C   0  0  0  0  0  0  0  0  0  0  0  0
  150.3794  131.7943  154.8426 C   0  0  0  0  0  0  0  0  0  0  0  0
  151.2795  131.1398  155.7844 C   0  0  0  0  0  0  0  0  0  0  0  0
  151.9669  129.8109  155.5301 C   0  0  0  0  0  0  0  0  0  0  0  0
  151.5025  129.2593  154.4096 F   0  0  0  0  0  0  0  0  0  0  0  0
  153.2795  129.9911  155.3866 F   0  0  0  0  0  0  0  0  0  0  0  0
  151.7665  128.9572  156.5343 F   0  0  0  0  0  0  0  0  0  0  0  0
  151.4365  131.8617  156.9505 C   0  0  0  0  0  0  0  0  0  0  0  0
  150.8827  133.0431  157.3009 N   0  5  0  0  0  0  0  0  0  0  0  0
  150.0366  133.6432  156.4166 C   0  0  0  0  0  0  0  0  0  0  0  0
  149.4959  134.7200  156.6721 O   0  0  0  0  0  0  0  0  0  0  0  0
  147.1307  134.3231  153.1054 N   0  0  0  0  0  0  0  0  0  0  0  0
  145.7565  134.4075  152.6177 C   0  0  2  0  0  0  0  0  0  0  0  0
  145.2130  133.0001  152.3203 C   0  0  0  0  0  0  0  0  0  0  0  0
  143.8043  133.0681  151.7000 C   0  0  0  0  0  0  0  0  0  0  0  0
  143.7680  133.9222  150.4848 N   0  3  2  0  0  0  0  0  0  0  0  0
  144.3820  133.2816  149.2981 C   0  0  0  0  0  0  0  0  0  0  0  0
  143.7902  133.7428  147.9866 C   0  0  0  0  0  0  0  0  0  0  0  0
  143.4367  132.3800  148.5389 C   0  0  0  0  0  0  0  0  0  0  0  0
  144.2839  135.2904  150.7477 C   0  0  0  0  0  0  0  0  0  0  0  0
  145.7034  135.2694  151.3456 C   0  0  0  0  0  0  0  0  0  0  0  0
  149.3143  134.4575  153.7985 H   0  0  0  0  0  0  0  0  0  0  0  0
  150.2254  131.3045  153.8958 H   0  0  0  0  0  0  0  0  0  0  0  0
  152.1078  131.4196  157.7174 H   0  0  0  0  0  0  0  0  0  0  0  0
  147.7825  135.0034  152.7422 H   0  0  0  0  0  0  0  0  0  0  0  0
  145.1122  134.8707  153.3674 H   0  0  0  0  0  0  0  0  0  0  0  0
  145.8890  132.4728  151.6460 H   0  0  0  0  0  0  0  0  0  0  0  0
  145.1805  132.4131  153.2391 H   0  0  0  0  0  0  0  0  0  0  0  0
  143.4436  132.0666  151.4630 H   0  0  0  0  0  0  0  0  0  0  0  0
  143.1063  133.4807  152.4298 H   0  0  0  0  0  0  0  0  0  0  0  0
  145.4397  133.0342  149.3642 H   0  0  0  0  0  0  0  0  0  0  0  0
  143.0176  134.5093  148.0095 H   0  0  0  0  0  0  0  0  0  0  0  0
  144.4501  133.7740  147.1219 H   0  0  0  0  0  0  0  0  0  0  0  0
  143.8633  131.5137  148.0375 H   0  0  0  0  0  0  0  0  0  0  0  0
  142.4294  132.2423  148.9283 H   0  0  0  0  0  0  0  0  0  0  0  0
  144.2655  135.8793  149.8301 H   0  0  0  0  0  0  0  0  0  0  0  0
  143.6048  135.7854  151.4433 H   0  0  0  0  0  0  0  0  0  0  0  0
  146.0195  136.2881  151.5737 H   0  0  0  0  0  0  0  0  0  0  0  0
  146.4102  134.8899  150.6065 H   0  0  0  0  0  0  0  0  0  0  0  0
  142.7916  134.0324  150.2498 H   0  0  0  0  0  0  0  0  0  0  0  0
  1  2  2  0  0  0  0
  2  3  1  0  0  0  0
  2 15  1  0  0  0  0
  3  4  1  0  0  0  0
  3 25  1  0  0  0  0
  4 13  1  0  0  0  0
  4  5  2  0  0  0  0
  5  6  1  0  0  0  0
  5 26  1  0  0  0  0
  6  7  1  0  0  0  0
  6 11  2  0  0  0  0
  7  8  1  0  0  0  0
  7  9  1  0  0  0  0
  7 10  1  0  0  0  0
 11 12  1  0  0  0  0
 11 27  1  0  0  0  0
 12 13  1  0  0  0  0
 13 14  2  0  0  0  0
 15 16  1  0  0  0  0
 15 28  1  0  0  0  0
 16 24  1  0  0  0  0
 16 17  1  0  0  0  0
 16 29  1  0  0  0  0
 17 18  1  0  0  0  0
 17 30  1  0  0  0  0
 17 31  1  0  0  0  0
 18 19  1  0  0  0  0
 18 32  1  0  0  0  0
 18 33  1  0  0  0  0
 19 20  1  0  0  0  0
 19 23  1  0  0  0  0
 19 43  1  0  0  0  0
 20 22  1  0  0  0  0
 20 21  1  0  0  0  0
 20 34  1  0  0  0  0
 21 22  1  0  0  0  0
 21 35  1  0  0  0  0
 21 36  1  0  0  0  0
 22 37  1  0  0  0  0
 22 38  1  0  0  0  0
 23 24  1  0  0  0  0
 23 39  1  0  0  0  0
 23 40  1  0  0  0  0
 24 41  1  0  0  0  0
 24 42  1  0  0  0  0
M  CHG  1  12  -1
M  CHG  1  19   1
M  END
> <s_m_source_file>
AV-unprocessed.smi

> <i_m_source_file_index>
1760

> <i_lp_mmshare_version>
43012

> <i_f3d_flags>
0

> <s_epik_input>
W0NIMl0xW0NIMl1bQ0hdMU4oW0NIMl1bQ0gyXTIpW0NIMl1bQ0gyXVtDSF0yW05IXUMoPU8pW05IXWMzW2NIXWMoQyhGKShGKUYpW2NIXVtuSF1jMz1P

> <s_epik_cmdline>
J2VwaWtfcHl0aG9uJywgJy1waCcsICc3LjAnLCAnLXRuJywgJzgnLCAnLW1hJywgJzIwMCcsICctbWV0YWxfYmluZGluZycsICctaW1hZScsICc8aW5maWxlLm1hZT4nLCAnLW9tYWUnLCAnPG91dGZpbGUubWFlPic=

> <r_lp_tautomer_probability>
0.999

> <r_epik_Ionization_Penalty>
3.16043

> <r_epik_Ionization_Penalty_Charging>
0.268029

> <r_epik_Ionization_Penalty_Neutral>
2.8924

> <r_epik_State_Penalty>
3.0039

> <r_epik_Charging_Adjusted_Penalty>
3.27193

> <i_epik_Tot_Q>
0

> <i_epik_Tot_abs_Q>
2

> <r_epik_Metal_State_Penalty>
0.560618

> <b_epik_Metal_Only>
1

> <s_lp_Force_Field>
OPLS_2005

> <r_lp_Energy>
41.7611

> <b_lp_Chiralities_Consistent>
1

> <s_lp_Variant>
AV-unprocessed.smi:1760-5

> <Gold.Version>
5.8.1

> <Gold.Id.Protein>
6NUR|6NUR_protein|mol2

> <Gold.PLP.Fitness>
46.6953

> <Gold.PLP.PLP>
-33.9947

> <Gold.PLP.part.hbond>
-3.0000

> <Gold.PLP.part.metal>
0.0000

> <Gold.PLP.part.buried>
4.7569

> <Gold.PLP.part.nonpolar>
-35.9885

> <Gold.PLP.part.repulsive>
0.0543

> <Gold.PLP.ligand.clash>
0.0000

> <Gold.PLP.ligand.torsion>
1.7678

> <Gold.PLP.Chemscore.Hbond>
4.9840

> <Gold.PLP.Chemscore.CHOScore>
0.0000

> <Gold.PLP.Chemscore.Metal>
0.0000

> <Gold.Chemscore.Hbonds>
donor molecule, donor type, donor heavy atom, donor atom, acceptor molecule, acceptor atom, score
      L1  H    15    28       P1  7948  1.00
      L1  H    19    43       P1 10186  2.00
      P1  H  6896  6908       L1    12  1.95

> <Gold.PLP.Chemscore.Internal.Correction>
1.2841

> <Gold.Rescore>
     Score         DG    S(hbond)    S(metal)    S(lipo)     H(rot)  DE(clash)    DE(int)     intcor
     16.35     -22.07       2.79        0.00      90.10       1.28       2.65       3.08       ----

> <Gold.Chemscore.Fitness>
16.3476

> <Gold.Chemscore.DG>
-22.0742

> <Gold.Chemscore.ZeroCoef>
-5.4800

> <Gold.Chemscore.Hbond>
2.7923

> <Gold.Chemscore.Metal>
0.0000

> <Gold.Chemscore.Lipo>
90.0966

> <Gold.Chemscore.Internal_Hbond>
0.0000

> <Gold.Chemscore.DEClash>
2.6493

> <Gold.Chemscore.DEInternal>
3.0773

> <Gold.Chemscore.Rot>
1.2787

> <Gold.Chemscore.Internal.Correction>
   9.000000E+99

> <Gold.Chemscore.Hbonds>
donor molecule, donor type, donor heavy atom, donor atom, acceptor molecule, acceptor atom, score
      L1  H    15    28       P1  7948  0.98
      L1  H    19    43       P1 10186  0.96
      P1  H  6896  6908       L1    12  0.79

> <Gold.Chemscore.Hbond.Weighted>
-9.3264

> <Gold.Chemscore.Metal.Weighted>
-0.0000

> <Gold.Chemscore.Lipo.Weighted>
-10.5413

> <Gold.Chemscore.Internal_Hbond.Weighted>
0.0000

> <Gold.Chemscore.DEClash.Weighted>
2.6493

> <Gold.Chemscore.DEInternal.Weighted>
3.0773

> <Gold.Chemscore.Rot.Weighted>
3.2735

> <Gold.Chemscore.Internal.Correction.Weighted>
   9.000000E+99

> <Gold.Protein.RotatedTorsions>
[ 6907 6896 6895 6894 ] final   93.71 input  -60.11 | X-H torsion
[ 7974 7965 7964 7962 ] final    6.78 input  175.53 | X-H torsion
[ 8008 7997 7996 7995 ] final  -15.79 input   59.86 | X-H torsion
[ 10167 10162 10161 10158 ] final -139.55 input  -65.29 | X-H torsion
[ 10718 10713 10712 10709 ] final   -3.96 input   66.30 | X-H torsion
[ 10763 10752 10751 10750 ] final    2.96 input  -60.55 | X-H torsion
[ 11005 11000 10999 10996 ] final   57.89 input  -57.11 | X-H torsion

> <Gold.Protein.ActiveResidues>
 VAL166  LYS551  ARG553  GLY616  TRP617  ASP618  TYR619  PRO620  LYS621  CYS622 
 ASP623  PHE694  ASN695  SER759  ASP760  ASP761  ALA762  ILE779  LEU786  VAL792 
 PHE793  MET794  SER795  GLU796  ALA797  LYS798  CYS799  TRP800  GLU811  SER814 

> <Gold.Protein.RotatedAtoms>
  152.5452  134.1306  159.8437 H   0  0  0  0  0  0  0  0  0  0  0  0  # atno 6907 bound_to 6896
  151.1352  133.5002  159.2605 H   0  0  0  0  0  0  0  0  0  0  0  0  # atno 6908 bound_to 6896
  151.1632  135.0293  159.8774 H   0  0  0  0  0  0  0  0  0  0  0  0  # atno 6909 bound_to 6896
  146.2432  140.0181  142.8400 H   0  0  0  0  0  0  0  0  0  0  0  0  # atno 7974 bound_to 7965
  154.5103  140.2187  155.9170 H   0  0  0  0  0  0  0  0  0  0  0  0  # atno 8008 bound_to 7997
  156.1544  140.3155  155.8667 H   0  0  0  0  0  0  0  0  0  0  0  0  # atno 8009 bound_to 7997
  155.3876  140.0476  157.3032 H   0  0  0  0  0  0  0  0  0  0  0  0  # atno 8010 bound_to 7997
  139.8368  143.7374  152.2664 H   0  0  0  0  0  0  0  0  0  0  0  0  # atno 10167 bound_to 10162
  156.7683  130.5291  149.5772 H   0  0  0  0  0  0  0  0  0  0  0  0  # atno 10718 bound_to 10713
  153.2891  135.6947  153.7310 H   0  0  0  0  0  0  0  0  0  0  0  0  # atno 10763 bound_to 10752
  153.6268  135.3417  155.3030 H   0  0  0  0  0  0  0  0  0  0  0  0  # atno 10764 bound_to 10752
  154.8518  135.4399  154.1968 H   0  0  0  0  0  0  0  0  0  0  0  0  # atno 10765 bound_to 10752
  140.0418  134.5862  155.9372 H   0  0  0  0  0  0  0  0  0  0  0  0  # atno 11005 bound_to 11000
  145.1266  140.9493  143.4569 LP  0  0  0  0  0  0  0  0  0  0  0  0  # atno 17320 bound_to 7965
  145.0429  139.3245  143.5967 LP  0  0  0  0  0  0  0  0  0  0  0  0  # atno 17321 bound_to 7965
  139.7598  144.7510  151.0380 LP  0  0  0  0  0  0  0  0  0  0  0  0  # atno 17342 bound_to 10162
  140.7802  143.4763  151.0078 LP  0  0  0  0  0  0  0  0  0  0  0  0  # atno 17343 bound_to 10162
  156.1294  130.6167  151.0312 LP  0  0  0  0  0  0  0  0  0  0  0  0  # atno 17370 bound_to 10713
  157.6703  131.0863  150.7629 LP  0  0  0  0  0  0  0  0  0  0  0  0  # atno 17371 bound_to 10713
  141.1887  133.6563  156.5336 LP  0  0  0  0  0  0  0  0  0  0  0  0  # atno 17394 bound_to 11000
  140.4056  134.7318  157.4806 LP  0  0  0  0  0  0  0  0  0  0  0  0  # atno 17395 bound_to 11000

$$$$
