AV-unprocessed.smi:878|AV-procd|sdf|4031|dock10
  -GOLD-   22720 1523D 1   1.00000     0.00000
 Structure written by MMmdl.
 33 34  0  0  0  0  0  0  0  0  1 V2000
  151.8347  145.6192  159.9507 C   0  0  0  0  0  0  0  0  0  0  0  0
  151.8694  144.2144  161.0967 S   0  0  0  0  0  0  0  0  0  0  0  0
  152.3012  142.7639  160.1788 C   0  0  0  0  0  0  0  0  0  0  0  0
  151.5417  142.3392  159.0685 C   0  0  0  0  0  0  0  0  0  0  0  0
  151.9120  141.1792  158.3598 C   0  0  0  0  0  0  0  0  0  0  0  0
  153.0492  140.4292  158.7512 C   0  0  0  0  0  0  0  0  0  0  0  0
  153.4853  139.2894  158.1117 O   0  0  0  0  0  0  0  0  0  0  0  0
  152.5727  138.5917  157.2753 C   0  0  0  0  0  0  0  0  0  0  0  0
  152.7160  139.0812  155.8247 C   0  0  0  0  0  0  0  0  0  0  0  0
  151.4560  139.1608  155.1250 N   0  0  0  0  0  0  0  0  0  0  0  0
  150.6826  140.3113  155.1305 C   0  0  0  0  0  0  0  0  0  0  0  0
  149.4894  140.4082  154.4960 C   0  0  0  0  0  0  0  0  0  0  0  0
  148.5838  141.8781  154.5503 Cl  0  0  0  0  0  0  0  0  0  0  0  0
  148.9570  139.2625  153.7598 C   0  0  0  0  0  0  0  0  0  0  0  0
  147.8911  139.2422  153.1472 O   0  0  0  0  0  0  0  0  0  0  0  0
  149.7651  138.1220  153.7883 N   0  0  0  0  0  0  0  0  0  0  0  0
  150.9931  138.0119  154.4414 C   0  0  0  0  0  0  0  0  0  0  0  0
  151.6124  136.9487  154.4023 O   0  0  0  0  0  0  0  0  0  0  0  0
  153.7987  140.8631  159.8633 C   0  0  0  0  0  0  0  0  0  0  0  0
  153.4283  142.0197  160.5752 C   0  0  0  0  0  0  0  0  0  0  0  0
  149.4305  137.3067  153.2955 H   0  0  0  0  0  0  0  0  0  0  0  0
  151.6388  146.5412  160.4980 H   0  0  0  0  0  0  0  0  0  0  0  0
  151.0489  145.4906  159.2065 H   0  0  0  0  0  0  0  0  0  0  0  0
  152.7930  145.7197  159.4407 H   0  0  0  0  0  0  0  0  0  0  0  0
  150.6710  142.8879  158.7456 H   0  0  0  0  0  0  0  0  0  0  0  0
  151.3066  140.8873  157.5154 H   0  0  0  0  0  0  0  0  0  0  0  0
  152.7499  137.5159  157.3257 H   0  0  0  0  0  0  0  0  0  0  0  0
  151.5520  138.7795  157.6114 H   0  0  0  0  0  0  0  0  0  0  0  0
  153.1214  140.0941  155.8085 H   0  0  0  0  0  0  0  0  0  0  0  0
  153.4084  138.4736  155.2385 H   0  0  0  0  0  0  0  0  0  0  0  0
  151.0459  141.1753  155.6689 H   0  0  0  0  0  0  0  0  0  0  0  0
  154.6672  140.3013  160.1745 H   0  0  0  0  0  0  0  0  0  0  0  0
  154.0148  142.3354  161.4256 H   0  0  0  0  0  0  0  0  0  0  0  0
  1  2  1  0  0  0  0
  1 22  1  0  0  0  0
  1 23  1  0  0  0  0
  1 24  1  0  0  0  0
  2  3  1  0  0  0  0
  3 20  1  0  0  0  0
  3  4  2  0  0  0  0
  4  5  1  0  0  0  0
  4 25  1  0  0  0  0
  5  6  2  0  0  0  0
  5 26  1  0  0  0  0
  6  7  1  0  0  0  0
  6 19  1  0  0  0  0
  7  8  1  0  0  0  0
  8  9  1  0  0  0  0
  8 27  1  0  0  0  0
  8 28  1  0  0  0  0
  9 10  1  0  0  0  0
  9 29  1  0  0  0  0
  9 30  1  0  0  0  0
 10 17  1  0  0  0  0
 10 11  1  0  0  0  0
 11 12  2  0  0  0  0
 11 31  1  0  0  0  0
 12 13  1  0  0  0  0
 12 14  1  0  0  0  0
 14 15  2  0  0  0  0
 14 16  1  0  0  0  0
 16 21  1  0  0  0  0
 16 17  1  0  0  0  0
 17 18  2  0  0  0  0
 19 20  2  0  0  0  0
 19 32  1  0  0  0  0
 20 33  1  0  0  0  0
M  END
> <s_m_source_file>
AV-unprocessed.smi

> <i_m_source_file_index>
878

> <i_lp_mmshare_version>
43012

> <i_f3d_flags>
0

> <s_epik_input>
W0NIM11TYzFbY0hdW2NIXWMoW2NIXVtjSF0xKU9bQ0gyXVtDSDJdbjJbY0hdYyhDbCljKD1PKVtuSF1jMj1P

> <s_epik_cmdline>
J2VwaWtfcHl0aG9uJywgJy1waCcsICc3LjAnLCAnLXRuJywgJzgnLCAnLW1hJywgJzIwMCcsICctbWV0YWxfYmluZGluZycsICctaW1hZScsICc8aW5maWxlLm1hZT4nLCAnLW9tYWUnLCAnPG91dGZpbGUubWFlPic=

> <r_lp_tautomer_probability>
0.999537

> <r_epik_Ionization_Penalty>
0.037527

> <r_epik_Ionization_Penalty_Charging>
0.037527

> <r_epik_Ionization_Penalty_Neutral>
0

> <r_epik_State_Penalty>
0.0314158

> <r_epik_Charging_Adjusted_Penalty>
0.0689428

> <i_epik_Tot_Q>
0

> <i_epik_Tot_abs_Q>
0

> <r_epik_Metal_State_Penalty>
2.37917

> <b_epik_Metal_Only>
0

> <s_lp_Force_Field>
OPLS_2005

> <r_lp_Energy>
14.7844

> <b_lp_Chiralities_Consistent>
1

> <s_lp_Variant>
AV-unprocessed.smi:878-1

> <Gold.Version>
5.8.1

> <Gold.Id.Protein>
6NUR|6NUR_protein|mol2

> <Gold.PLP.Fitness>
51.8784

> <Gold.PLP.PLP>
-45.1017

> <Gold.PLP.part.hbond>
-3.0000

> <Gold.PLP.part.metal>
0.0000

> <Gold.PLP.part.buried>
-1.1112

> <Gold.PLP.part.nonpolar>
-41.0168

> <Gold.PLP.part.repulsive>
0.6776

> <Gold.PLP.ligand.clash>
0.0000

> <Gold.PLP.ligand.torsion>
1.1229

> <Gold.PLP.Chemscore.Hbond>
3.0000

> <Gold.PLP.Chemscore.CHOScore>
0.0000

> <Gold.PLP.Chemscore.Metal>
0.0000

> <Gold.Chemscore.Hbonds>
donor molecule, donor type, donor heavy atom, donor atom, acceptor molecule, acceptor atom, score
      L1  H    16    21       P1  7948  1.00
      P1  H  7997  8010       L1     7  0.90
      P1  H 10752 10765       L1    18  1.00

> <Gold.PLP.Chemscore.Internal.Correction>
0.0226

> <Gold.Rescore>
     Score         DG    S(hbond)    S(metal)    S(lipo)     H(rot)  DE(clash)    DE(int)     intcor
     19.05     -20.60       2.12        0.00     111.87       1.98       0.35       1.19       ----

> <Gold.Chemscore.Fitness>
19.0496

> <Gold.Chemscore.DG>
-20.5962

> <Gold.Chemscore.ZeroCoef>
-5.4800

> <Gold.Chemscore.Hbond>
2.1213

> <Gold.Chemscore.Metal>
0.0000

> <Gold.Chemscore.Lipo>
111.8667

> <Gold.Chemscore.Internal_Hbond>
0.0000

> <Gold.Chemscore.DEClash>
0.3533

> <Gold.Chemscore.DEInternal>
1.1933

> <Gold.Chemscore.Rot>
1.9755

> <Gold.Chemscore.Internal.Correction>
   9.000000E+99

> <Gold.Chemscore.Hbonds>
donor molecule, donor type, donor heavy atom, donor atom, acceptor molecule, acceptor atom, score
      L1  H    16    21       P1  7948  0.92
      P1  H  7997  8010       L1     7  0.15
      P1  H 10752 10765       L1    18  0.99

> <Gold.Chemscore.Hbond.Weighted>
-7.0852

> <Gold.Chemscore.Metal.Weighted>
-0.0000

> <Gold.Chemscore.Lipo.Weighted>
-13.0884

> <Gold.Chemscore.Internal_Hbond.Weighted>
0.0000

> <Gold.Chemscore.DEClash.Weighted>
0.3533

> <Gold.Chemscore.DEInternal.Weighted>
1.1933

> <Gold.Chemscore.Rot.Weighted>
5.0574

> <Gold.Chemscore.Internal.Correction.Weighted>
   9.000000E+99

> <Gold.Protein.RotatedTorsions>
[ 6907 6896 6895 6894 ] final  169.06 input  -60.11 | X-H torsion
[ 7974 7965 7964 7962 ] final  -89.21 input  175.53 | X-H torsion
[ 8008 7997 7996 7995 ] final   15.65 input   59.86 | X-H torsion
[ 10167 10162 10161 10158 ] final    0.48 input  -65.29 | X-H torsion
[ 10718 10713 10712 10709 ] final  102.98 input   66.30 | X-H torsion
[ 10763 10752 10751 10750 ] final  172.54 input  -60.55 | X-H torsion
[ 11005 11000 10999 10996 ] final  -33.39 input  -57.11 | X-H torsion

> <Gold.Protein.ActiveResidues>
 VAL166  LYS551  ARG553  GLY616  TRP617  ASP618  TYR619  PRO620  LYS621  CYS622 
 ASP623  PHE694  ASN695  SER759  ASP760  ASP761  ALA762  ILE779  LEU786  VAL792 
 PHE793  MET794  SER795  GLU796  ALA797  LYS798  CYS799  TRP800  GLU811  SER814 

> <Gold.Protein.RotatedAtoms>
  151.8378  133.3419  159.3633 H   0  0  0  0  0  0  0  0  0  0  0  0  # atno 6907 bound_to 6896
  150.7244  134.5420  159.5761 H   0  0  0  0  0  0  0  0  0  0  0  0  # atno 6908 bound_to 6896
  152.2887  134.7746  160.0433 H   0  0  0  0  0  0  0  0  0  0  0  0  # atno 6909 bound_to 6896
  145.4428  140.9559  143.2065 H   0  0  0  0  0  0  0  0  0  0  0  0  # atno 7974 bound_to 7965
  154.8656  140.2951  155.5512 H   0  0  0  0  0  0  0  0  0  0  0  0  # atno 8008 bound_to 7997
  156.3020  140.2470  156.3570 H   0  0  0  0  0  0  0  0  0  0  0  0  # atno 8009 bound_to 7997
  154.8871  140.0396  157.1806 H   0  0  0  0  0  0  0  0  0  0  0  0  # atno 8010 bound_to 7997
  140.6726  143.7005  150.7955 H   0  0  0  0  0  0  0  0  0  0  0  0  # atno 10167 bound_to 10162
  157.6786  131.0767  150.5485 H   0  0  0  0  0  0  0  0  0  0  0  0  # atno 10718 bound_to 10713
  154.4275  135.2759  155.1935 H   0  0  0  0  0  0  0  0  0  0  0  0  # atno 10763 bound_to 10752
  154.3854  135.6078  153.5817 H   0  0  0  0  0  0  0  0  0  0  0  0  # atno 10764 bound_to 10752
  152.9835  135.5890  154.4581 H   0  0  0  0  0  0  0  0  0  0  0  0  # atno 10765 bound_to 10752
  140.9631  133.7153  156.1401 H   0  0  0  0  0  0  0  0  0  0  0  0  # atno 11005 bound_to 11000
  144.8111  139.5961  143.7029 LP  0  0  0  0  0  0  0  0  0  0  0  0  # atno 17320 bound_to 7965
  146.2547  139.6276  142.9403 LP  0  0  0  0  0  0  0  0  0  0  0  0  # atno 17321 bound_to 7965
  140.0693  143.5077  152.2588 LP  0  0  0  0  0  0  0  0  0  0  0  0  # atno 17342 bound_to 10162
  139.6002  144.7580  151.3189 LP  0  0  0  0  0  0  0  0  0  0  0  0  # atno 17343 bound_to 10162
  156.5790  130.4299  149.5985 LP  0  0  0  0  0  0  0  0  0  0  0  0  # atno 17370 bound_to 10713
  156.2677  130.6999  151.1787 LP  0  0  0  0  0  0  0  0  0  0  0  0  # atno 17371 bound_to 10713
  140.7439  134.4120  157.5551 LP  0  0  0  0  0  0  0  0  0  0  0  0  # atno 17394 bound_to 11000
  139.8885  134.8855  156.2472 LP  0  0  0  0  0  0  0  0  0  0  0  0  # atno 17395 bound_to 11000

$$$$
