AV-unprocessed.smi:2195|AV-procd|sdf|8905|dock6
  -GOLD-   2272012123D 1   1.00000     0.00000
 Structure written by MMmdl.
 39 41  0  0  0  0  0  0  0  0  1 V2000
  151.2852  145.5579  159.9993 C   0  0  0  0  0  0  0  0  0  0  0  0
  152.0234  144.2515  160.2074 C   0  0  0  0  0  0  0  0  0  0  0  0
  152.3446  143.4283  159.1099 C   0  0  0  0  0  0  0  0  0  0  0  0
  153.0325  142.2165  159.3139 C   0  0  0  0  0  0  0  0  0  0  0  0
  153.4102  141.8087  160.6099 C   0  0  0  0  0  0  0  0  0  0  0  0
  154.0832  140.6104  160.7175 O   0  0  0  0  0  0  0  0  0  0  0  0
  154.5299  140.2004  162.0035 C   0  0  0  0  0  0  0  0  0  0  0  0
  155.7594  139.2944  161.8337 C   0  0  1  0  0  0  0  0  0  0  0  0
  156.7792  140.0385  161.1955 O   0  0  0  0  0  0  0  0  0  0  0  0
  156.2895  138.7814  163.1869 C   0  0  0  0  0  0  0  0  0  0  0  0
  155.5859  137.5966  163.6451 N   0  0  0  0  0  0  0  0  0  0  0  0
  154.8088  137.4831  164.7395 C   0  0  0  0  0  0  0  0  0  0  0  0
  154.2561  136.2961  164.9743 N   0  0  0  0  0  0  0  0  0  0  0  0
  154.7311  135.5516  163.9082 C   0  0  0  0  0  0  0  0  0  0  0  0
  154.5156  134.1971  163.5668 C   0  0  0  0  0  0  0  0  0  0  0  0
  155.1146  133.6466  162.4145 C   0  0  0  0  0  0  0  0  0  0  0  0
  155.9363  134.4398  161.5871 C   0  0  0  0  0  0  0  0  0  0  0  0
  156.1648  135.7922  161.9061 C   0  0  0  0  0  0  0  0  0  0  0  0
  155.5658  136.3370  163.0571 C   0  0  0  0  0  0  0  0  0  0  0  0
  153.0805  142.6402  161.7100 C   0  0  0  0  0  0  0  0  0  0  0  0
  152.3922  143.8521  161.5068 C   0  0  0  0  0  0  0  0  0  0  0  0
  151.1724  145.7871  158.9392 H   0  0  0  0  0  0  0  0  0  0  0  0
  151.8290  146.3786  160.4676 H   0  0  0  0  0  0  0  0  0  0  0  0
  150.2918  145.5050  160.4451 H   0  0  0  0  0  0  0  0  0  0  0  0
  152.0660  143.7214  158.1082 H   0  0  0  0  0  0  0  0  0  0  0  0
  153.2744  141.5939  158.4651 H   0  0  0  0  0  0  0  0  0  0  0  0
  154.7638  141.0539  162.6427 H   0  0  0  0  0  0  0  0  0  0  0  0
  153.7281  139.6349  162.4815 H   0  0  0  0  0  0  0  0  0  0  0  0
  155.4993  138.4401  161.2072 H   0  0  0  0  0  0  0  0  0  0  0  0
  157.0446  139.5733  160.4166 H   0  0  0  0  0  0  0  0  0  0  0  0
  157.3543  138.5529  163.1193 H   0  0  0  0  0  0  0  0  0  0  0  0
  156.1842  139.5527  163.9510 H   0  0  0  0  0  0  0  0  0  0  0  0
  154.6426  138.3188  165.4034 H   0  0  0  0  0  0  0  0  0  0  0  0
  153.8884  133.5802  164.1930 H   0  0  0  0  0  0  0  0  0  0  0  0
  154.9428  132.6099  162.1647 H   0  0  0  0  0  0  0  0  0  0  0  0
  156.3914  134.0093  160.7072 H   0  0  0  0  0  0  0  0  0  0  0  0
  156.7932  136.4035  161.2755 H   0  0  0  0  0  0  0  0  0  0  0  0
  153.3439  142.3710  162.7214 H   0  0  0  0  0  0  0  0  0  0  0  0
  152.1477  144.4762  162.3539 H   0  0  0  0  0  0  0  0  0  0  0  0
  1  2  1  0  0  0  0
  1 22  1  0  0  0  0
  1 23  1  0  0  0  0
  1 24  1  0  0  0  0
  2 21  1  0  0  0  0
  2  3  2  0  0  0  0
  3  4  1  0  0  0  0
  3 25  1  0  0  0  0
  4  5  2  0  0  0  0
  4 26  1  0  0  0  0
  5  6  1  0  0  0  0
  5 20  1  0  0  0  0
  6  7  1  0  0  0  0
  7  8  1  0  0  0  0
  7 27  1  0  0  0  0
  7 28  1  0  0  0  0
  8  9  1  0  0  0  0
  8 10  1  0  0  0  0
  8 29  1  0  0  0  0
  9 30  1  0  0  0  0
 10 11  1  0  0  0  0
 10 31  1  0  0  0  0
 10 32  1  0  0  0  0
 11 19  1  0  0  0  0
 11 12  1  0  0  0  0
 12 13  2  0  0  0  0
 12 33  1  0  0  0  0
 13 14  1  0  0  0  0
 14 19  2  0  0  0  0
 14 15  1  0  0  0  0
 15 16  2  0  0  0  0
 15 34  1  0  0  0  0
 16 17  1  0  0  0  0
 16 35  1  0  0  0  0
 17 18  2  0  0  0  0
 17 36  1  0  0  0  0
 18 19  1  0  0  0  0
 18 37  1  0  0  0  0
 20 21  2  0  0  0  0
 20 38  1  0  0  0  0
 21 39  1  0  0  0  0
M  END
> <s_m_source_file>
AV-unprocessed.smi

> <i_m_source_file_index>
2195

> <i_lp_mmshare_version>
43012

> <i_f3d_flags>
0

> <s_epik_input>
W0NIM11jMVtjSF1bY0hdYyhbY0hdW2NIXTEpT1tDSDJdW0NASF0oW09IXSlbQ0gyXW4oW2NIXW4yKWMoYzIzKVtjSF1bY0hdW2NIXVtjSF0z

> <s_epik_cmdline>
J2VwaWtfcHl0aG9uJywgJy1waCcsICc3LjAnLCAnLXRuJywgJzgnLCAnLW1hJywgJzIwMCcsICctbWV0YWxfYmluZGluZycsICctaW1hZScsICc8aW5maWxlLm1hZT4nLCAnLW9tYWUnLCAnPG91dGZpbGUubWFlPic=

> <r_lp_tautomer_probability>
1

> <r_epik_Ionization_Penalty>
0.0609831

> <r_epik_Ionization_Penalty_Charging>
0

> <r_epik_Ionization_Penalty_Neutral>
0.0609831

> <r_epik_State_Penalty>
0.0529032

> <r_epik_Charging_Adjusted_Penalty>
0.0529032

> <i_epik_Tot_Q>
0

> <i_epik_Tot_abs_Q>
0

> <r_epik_Metal_State_Penalty>
5.53344e-05

> <b_epik_Metal_Only>
0

> <s_lp_Force_Field>
OPLS_2005

> <r_lp_Energy>
16.3269

> <b_lp_Chiralities_Consistent>
1

> <s_lp_Variant>
AV-unprocessed.smi:2195-2

> <Gold.Version>
5.8.1

> <Gold.Id.Protein>
6NUR|6NUR_protein|mol2

> <Gold.PLP.Fitness>
45.0343

> <Gold.PLP.PLP>
-45.9086

> <Gold.PLP.part.hbond>
-1.0000

> <Gold.PLP.part.metal>
0.0000

> <Gold.PLP.part.buried>
-6.1066

> <Gold.PLP.part.nonpolar>
-40.3379

> <Gold.PLP.part.repulsive>
0.0990

> <Gold.PLP.ligand.clash>
0.0000

> <Gold.PLP.ligand.torsion>
0.4541

> <Gold.PLP.Chemscore.Hbond>
0.0000

> <Gold.PLP.Chemscore.CHOScore>
0.0000

> <Gold.PLP.Chemscore.Metal>
0.0000

> <Gold.PLP.Chemscore.Internal.Correction>
0.0339

> <Gold.Rescore>
     Score         DG    S(hbond)    S(metal)    S(lipo)     H(rot)  DE(clash)    DE(int)     intcor
     14.43     -15.16       0.00        0.00     130.64       2.19       0.33       0.40       ----

> <Gold.Chemscore.Fitness>
14.4313

> <Gold.Chemscore.DG>
-15.1646

> <Gold.Chemscore.ZeroCoef>
-5.4800

> <Gold.Chemscore.Hbond>
0.0000

> <Gold.Chemscore.Metal>
0.0000

> <Gold.Chemscore.Lipo>
130.6418

> <Gold.Chemscore.Internal_Hbond>
0.0000

> <Gold.Chemscore.DEClash>
0.3313

> <Gold.Chemscore.DEInternal>
0.4020

> <Gold.Chemscore.Rot>
2.1877

> <Gold.Chemscore.Internal.Correction>
   9.000000E+99

> <Gold.Chemscore.Hbond.Weighted>
-0.0000

> <Gold.Chemscore.Metal.Weighted>
-0.0000

> <Gold.Chemscore.Lipo.Weighted>
-15.2851

> <Gold.Chemscore.Internal_Hbond.Weighted>
0.0000

> <Gold.Chemscore.DEClash.Weighted>
0.3313

> <Gold.Chemscore.DEInternal.Weighted>
0.4020

> <Gold.Chemscore.Rot.Weighted>
5.6005

> <Gold.Chemscore.Internal.Correction.Weighted>
   9.000000E+99

> <Gold.Protein.RotatedTorsions>
[ 6907 6896 6895 6894 ] final  -27.26 input  -60.11 | X-H torsion
[ 7974 7965 7964 7962 ] final   17.73 input  175.53 | X-H torsion
[ 8008 7997 7996 7995 ] final   42.37 input   59.86 | X-H torsion
[ 10167 10162 10161 10158 ] final  115.00 input  -65.29 | X-H torsion
[ 10718 10713 10712 10709 ] final  -25.95 input   66.30 | X-H torsion
[ 10763 10752 10751 10750 ] final -164.72 input  -60.55 | X-H torsion
[ 11005 11000 10999 10996 ] final   38.94 input  -57.11 | X-H torsion

> <Gold.Protein.ActiveResidues>
 VAL166  LYS551  ARG553  GLY616  TRP617  ASP618  TYR619  PRO620  LYS621  CYS622 
 ASP623  PHE694  ASN695  SER759  ASP760  ASP761  ALA762  ILE779  LEU786  VAL792 
 PHE793  MET794  SER795  GLU796  ALA797  LYS798  CYS799  TRP800  GLU811  SER814 

> <Gold.Protein.RotatedAtoms>
  151.1493  135.0219  159.8660 H   0  0  0  0  0  0  0  0  0  0  0  0  # atno 6907 bound_to 6896
  152.5453  134.1407  159.8488 H   0  0  0  0  0  0  0  0  0  0  0  0  # atno 6908 bound_to 6896
  151.1490  133.4874  159.2628 H   0  0  0  0  0  0  0  0  0  0  0  0  # atno 6909 bound_to 6896
  146.2209  139.8560  142.8613 H   0  0  0  0  0  0  0  0  0  0  0  0  # atno 7974 bound_to 7965
  155.2851  140.3375  155.4256 H   0  0  0  0  0  0  0  0  0  0  0  0  # atno 8008 bound_to 7997
  156.2072  140.1755  156.7814 H   0  0  0  0  0  0  0  0  0  0  0  0  # atno 8009 bound_to 7997
  154.5637  140.0682  156.8842 H   0  0  0  0  0  0  0  0  0  0  0  0  # atno 8010 bound_to 7997
  139.6348  144.7119  151.2357 H   0  0  0  0  0  0  0  0  0  0  0  0  # atno 10167 bound_to 10162
  156.4577  130.4497  149.6949 H   0  0  0  0  0  0  0  0  0  0  0  0  # atno 10718 bound_to 10713
  154.7002  135.2986  154.9353 H   0  0  0  0  0  0  0  0  0  0  0  0  # atno 10763 bound_to 10752
  154.0287  135.6673  153.4783 H   0  0  0  0  0  0  0  0  0  0  0  0  # atno 10764 bound_to 10752
  153.0675  135.5079  154.8141 H   0  0  0  0  0  0  0  0  0  0  0  0  # atno 10765 bound_to 10752
  140.2077  134.3793  155.8064 H   0  0  0  0  0  0  0  0  0  0  0  0  # atno 11005 bound_to 11000
  145.2753  141.0122  143.3748 LP  0  0  0  0  0  0  0  0  0  0  0  0  # atno 17320 bound_to 7965
  144.9192  139.4433  143.6549 LP  0  0  0  0  0  0  0  0  0  0  0  0  # atno 17321 bound_to 7965
  140.7459  143.6415  150.8330 LP  0  0  0  0  0  0  0  0  0  0  0  0  # atno 17342 bound_to 10162
  140.0045  143.5708  152.2863 LP  0  0  0  0  0  0  0  0  0  0  0  0  # atno 17343 bound_to 10162
  156.3750  130.7550  151.2537 LP  0  0  0  0  0  0  0  0  0  0  0  0  # atno 17370 bound_to 10713
  157.7499  131.0312  150.4172 LP  0  0  0  0  0  0  0  0  0  0  0  0  # atno 17371 bound_to 10713
  141.2227  133.7126  156.8365 LP  0  0  0  0  0  0  0  0  0  0  0  0  # atno 17394 bound_to 11000
  140.1985  134.8914  157.3142 LP  0  0  0  0  0  0  0  0  0  0  0  0  # atno 17395 bound_to 11000

$$$$
