AV-unprocessed.smi:2229|AV-procd|sdf|9032|dock1
  -GOLD-   2272012233D 1   1.00000     0.00000
 Structure written by MMmdl.
 43 44  0  0  0  0  0  0  0  0  2 V2000
  151.3107  145.5667  159.7079 C   0  0  0  0  0  0  0  0  0  0  0  0
  151.9724  144.3211  159.0933 C   0  0  0  0  0  0  0  0  0  0  0  0
  150.9339  143.4806  158.3350 C   0  0  0  0  0  0  0  0  0  0  0  0
  152.7119  143.4597  160.1388 C   0  0  0  0  0  0  0  0  0  0  0  0
  153.1308  142.0778  159.6104 C   0  0  0  0  0  0  0  0  0  0  0  0
  154.2378  141.3871  160.4385 C   0  0  1  0  0  0  0  0  0  0  0  0
  154.0219  141.4687  161.9539 C   0  0  0  0  0  0  0  0  0  0  0  0
  154.9264  140.3795  162.5191 C   0  0  0  0  0  0  0  0  0  0  0  0
  154.8170  139.2328  161.5135 C   0  0  0  0  0  0  0  0  0  0  0  0
  154.4744  139.8772  160.1550 C   0  0  1  0  0  0  0  0  0  0  0  0
  153.3114  139.2156  159.5605 N   0  0  0  0  0  0  0  0  0  0  0  0
  153.3260  138.4674  158.4461 C   0  0  0  0  0  0  0  0  0  0  0  0
  154.3541  138.1794  157.8330 O   0  0  0  0  0  0  0  0  0  0  0  0
  151.9691  137.9758  157.9364 C   0  0  0  0  0  0  0  0  0  0  0  0
  151.7978  138.2926  156.5176 N   0  0  0  0  0  0  0  0  0  0  0  0
  151.7187  139.5757  156.0364 C   0  0  0  0  0  0  0  0  0  0  0  0
  151.5334  139.5740  154.7651 N   0  0  0  0  0  0  0  0  0  0  0  0
  151.4828  138.2007  154.3641 N   0  5  0  0  0  0  0  0  0  0  0  0
  151.6485  137.4629  155.4839 C   0  0  0  0  0  0  0  0  0  0  0  0
  151.6676  136.2378  155.5950 O   0  0  0  0  0  0  0  0  0  0  0  0
  150.6042  145.2957  160.4928 H   0  0  0  0  0  0  0  0  0  0  0  0
  150.7662  146.1331  158.9521 H   0  0  0  0  0  0  0  0  0  0  0  0
  152.0472  146.2450  160.1384 H   0  0  0  0  0  0  0  0  0  0  0  0
  152.7047  144.6649  158.3613 H   0  0  0  0  0  0  0  0  0  0  0  0
  150.1658  143.0985  159.0081 H   0  0  0  0  0  0  0  0  0  0  0  0
  151.4012  142.6271  157.8431 H   0  0  0  0  0  0  0  0  0  0  0  0
  150.4381  144.0703  157.5636 H   0  0  0  0  0  0  0  0  0  0  0  0
  153.5883  143.9939  160.5078 H   0  0  0  0  0  0  0  0  0  0  0  0
  152.0560  143.3227  160.9986 H   0  0  0  0  0  0  0  0  0  0  0  0
  152.2529  141.4338  159.5669 H   0  0  0  0  0  0  0  0  0  0  0  0
  153.4852  142.1928  158.5868 H   0  0  0  0  0  0  0  0  0  0  0  0
  155.1785  141.8958  160.2205 H   0  0  0  0  0  0  0  0  0  0  0  0
  154.2578  142.4521  162.3616 H   0  0  0  0  0  0  0  0  0  0  0  0
  152.9821  141.2461  162.1979 H   0  0  0  0  0  0  0  0  0  0  0  0
  155.9550  140.7409  162.5541 H   0  0  0  0  0  0  0  0  0  0  0  0
  154.6444  140.0812  163.5291 H   0  0  0  0  0  0  0  0  0  0  0  0
  155.7363  138.6479  161.4688 H   0  0  0  0  0  0  0  0  0  0  0  0
  154.0230  138.5554  161.8326 H   0  0  0  0  0  0  0  0  0  0  0  0
  155.3347  139.7748  159.4909 H   0  0  0  0  0  0  0  0  0  0  0  0
  152.4162  139.3987  159.9904 H   0  0  0  0  0  0  0  0  0  0  0  0
  151.8982  136.8989  158.0975 H   0  0  0  0  0  0  0  0  0  0  0  0
  151.1599  138.4249  158.5148 H   0  0  0  0  0  0  0  0  0  0  0  0
  151.8076  140.4245  156.7164 H   0  0  0  0  0  0  0  0  0  0  0  0
  1  2  1  0  0  0  0
  1 21  1  0  0  0  0
  1 22  1  0  0  0  0
  1 23  1  0  0  0  0
  2  3  1  0  0  0  0
  2  4  1  0  0  0  0
  2 24  1  0  0  0  0
  3 25  1  0  0  0  0
  3 26  1  0  0  0  0
  3 27  1  0  0  0  0
  4  5  1  0  0  0  0
  4 28  1  0  0  0  0
  4 29  1  0  0  0  0
  5  6  1  0  0  0  0
  5 30  1  0  0  0  0
  5 31  1  0  0  0  0
  6 10  1  0  0  0  0
  6  7  1  0  0  0  0
  6 32  1  0  0  0  0
  7  8  1  0  0  0  0
  7 33  1  0  0  0  0
  7 34  1  0  0  0  0
  8  9  1  0  0  0  0
  8 35  1  0  0  0  0
  8 36  1  0  0  0  0
  9 10  1  0  0  0  0
  9 37  1  0  0  0  0
  9 38  1  0  0  0  0
 10 11  1  0  0  0  0
 10 39  1  0  0  0  0
 11 12  1  0  0  0  0
 11 40  1  0  0  0  0
 12 13  2  0  0  0  0
 12 14  1  0  0  0  0
 14 15  1  0  0  0  0
 14 41  1  0  0  0  0
 14 42  1  0  0  0  0
 15 19  1  0  0  0  0
 15 16  1  0  0  0  0
 16 17  2  0  0  0  0
 16 43  1  0  0  0  0
 17 18  1  0  0  0  0
 18 19  1  0  0  0  0
 19 20  2  0  0  0  0
M  CHG  1  18  -1
M  END
> <s_m_source_file>
AV-unprocessed.smi

> <i_m_source_file_index>
2229

> <i_lp_mmshare_version>
43012

> <i_f3d_flags>
0

> <s_epik_input>
W0NIM11bQ0hdKFtDSDNdKVtDSDJdW0NIMl1bQ0BASF0xW0NIMl1bQ0gyXVtDSDJdW0NASF0xW05IXUMoPU8pW0NIMl1uMltjSF1uW25IXWMyPU8=

> <s_epik_cmdline>
J2VwaWtfcHl0aG9uJywgJy1waCcsICc3LjAnLCAnLXRuJywgJzgnLCAnLW1hJywgJzIwMCcsICctbWV0YWxfYmluZGluZycsICctaW1hZScsICc8aW5maWxlLm1hZT4nLCAnLW9tYWUnLCAnPG91dGZpbGUubWFlPic=

> <r_lp_tautomer_probability>
1

> <r_epik_Ionization_Penalty>
13.6733

> <r_epik_Ionization_Penalty_Charging>
13.6725

> <r_epik_Ionization_Penalty_Neutral>
0.000837689

> <r_epik_State_Penalty>
5.67062

> <r_epik_Charging_Adjusted_Penalty>
19.3431

> <i_epik_Tot_Q>
-1

> <i_epik_Tot_abs_Q>
1

> <r_epik_Metal_State_Penalty>
1.61781

> <b_epik_Metal_Only>
1

> <s_lp_Force_Field>
OPLS_2005

> <r_lp_Energy>
25.9104

> <b_lp_Chiralities_Consistent>
1

> <s_lp_Variant>
AV-unprocessed.smi:2229-6

> <Gold.Version>
5.8.1

> <Gold.Id.Protein>
6NUR|6NUR_protein|mol2

> <Gold.PLP.Fitness>
49.4046

> <Gold.PLP.PLP>
-41.7145

> <Gold.PLP.part.hbond>
-3.0000

> <Gold.PLP.part.metal>
0.0000

> <Gold.PLP.part.buried>
-4.2639

> <Gold.PLP.part.nonpolar>
-34.4771

> <Gold.PLP.part.repulsive>
0.4125

> <Gold.PLP.ligand.clash>
0.0000

> <Gold.PLP.ligand.torsion>
0.4351

> <Gold.PLP.Chemscore.Hbond>
2.8320

> <Gold.PLP.Chemscore.CHOScore>
0.0000

> <Gold.PLP.Chemscore.Metal>
0.0000

> <Gold.Chemscore.Hbonds>
donor molecule, donor type, donor heavy atom, donor atom, acceptor molecule, acceptor atom, score
      P1  H  7989  7998       L1    17  1.00
      P1  H  7997  8009       L1    13  0.76
      P1  H 10752 10764       L1    20  1.00

> <Gold.PLP.Chemscore.Internal.Correction>
0.0643

> <Gold.Rescore>
     Score         DG    S(hbond)    S(metal)    S(lipo)     H(rot)  DE(clash)    DE(int)     intcor
     18.57     -19.13       2.61        0.00      98.92       2.59       0.07       0.49       ----

> <Gold.Chemscore.Fitness>
18.5739

> <Gold.Chemscore.DG>
-19.1293

> <Gold.Chemscore.ZeroCoef>
-5.4800

> <Gold.Chemscore.Hbond>
2.6095

> <Gold.Chemscore.Metal>
0.0000

> <Gold.Chemscore.Lipo>
98.9239

> <Gold.Chemscore.Internal_Hbond>
0.0000

> <Gold.Chemscore.DEClash>
0.0659

> <Gold.Chemscore.DEInternal>
0.4896

> <Gold.Chemscore.Rot>
2.5939

> <Gold.Chemscore.Internal.Correction>
   9.000000E+99

> <Gold.Chemscore.Hbonds>
donor molecule, donor type, donor heavy atom, donor atom, acceptor molecule, acceptor atom, score
      P1  H  7989  7998       L1    17  0.96
      P1  H  7997  8009       L1    13  0.15
      P1  H 10752 10764       L1    20  0.78

> <Gold.Chemscore.Hbond.Weighted>
-8.7157

> <Gold.Chemscore.Metal.Weighted>
-0.0000

> <Gold.Chemscore.Lipo.Weighted>
-11.5741

> <Gold.Chemscore.Internal_Hbond.Weighted>
0.0000

> <Gold.Chemscore.DEClash.Weighted>
0.0659

> <Gold.Chemscore.DEInternal.Weighted>
0.4896

> <Gold.Chemscore.Rot.Weighted>
6.6405

> <Gold.Chemscore.Internal.Correction.Weighted>
   9.000000E+99

> <Gold.Protein.RotatedTorsions>
[ 6907 6896 6895 6894 ] final  -29.16 input  -60.11 | X-H torsion
[ 7974 7965 7964 7962 ] final  179.32 input  175.53 | X-H torsion
[ 8008 7997 7996 7995 ] final  140.83 input   59.86 | X-H torsion
[ 10167 10162 10161 10158 ] final -150.64 input  -65.29 | X-H torsion
[ 10718 10713 10712 10709 ] final  -74.72 input   66.30 | X-H torsion
[ 10763 10752 10751 10750 ] final  -53.28 input  -60.55 | X-H torsion
[ 11005 11000 10999 10996 ] final   21.09 input  -57.11 | X-H torsion

> <Gold.Protein.ActiveResidues>
 VAL166  LYS551  ARG553  GLY616  TRP617  ASP618  TYR619  PRO620  LYS621  CYS622 
 ASP623  PHE694  ASN695  SER759  ASP760  ASP761  ALA762  ILE779  LEU786  VAL792 
 PHE793  MET794  SER795  GLU796  ALA797  LYS798  CYS799  TRP800  GLU811  SER814 

> <Gold.Protein.RotatedAtoms>
  151.1230  135.0089  159.8547 H   0  0  0  0  0  0  0  0  0  0  0  0  # atno 6907 bound_to 6896
  152.5448  134.1700  159.8603 H   0  0  0  0  0  0  0  0  0  0  0  0  # atno 6908 bound_to 6896
  151.1760  133.4710  159.2627 H   0  0  0  0  0  0  0  0  0  0  0  0  # atno 6909 bound_to 6896
  144.7147  140.0531  143.6434 H   0  0  0  0  0  0  0  0  0  0  0  0  # atno 7974 bound_to 7965
  156.2974  140.2331  156.4464 H   0  0  0  0  0  0  0  0  0  0  0  0  # atno 8008 bound_to 7997
  154.8140  140.0441  157.1384 H   0  0  0  0  0  0  0  0  0  0  0  0  # atno 8009 bound_to 7997
  154.9391  140.3027  155.5133 H   0  0  0  0  0  0  0  0  0  0  0  0  # atno 8010 bound_to 7997
  139.7337  143.8769  152.2542 H   0  0  0  0  0  0  0  0  0  0  0  0  # atno 10167 bound_to 10162
  156.0232  130.4424  150.2935 H   0  0  0  0  0  0  0  0  0  0  0  0  # atno 10718 bound_to 10713
  154.1562  135.6482  153.4975 H   0  0  0  0  0  0  0  0  0  0  0  0  # atno 10763 bound_to 10752
  153.0123  135.5350  154.6757 H   0  0  0  0  0  0  0  0  0  0  0  0  # atno 10764 bound_to 10752
  154.6058  135.2948  155.0457 H   0  0  0  0  0  0  0  0  0  0  0  0  # atno 10765 bound_to 10752
  140.3954  134.1774  155.7663 H   0  0  0  0  0  0  0  0  0  0  0  0  # atno 11005 bound_to 11000
  145.9927  139.3028  143.0975 LP  0  0  0  0  0  0  0  0  0  0  0  0  # atno 17320 bound_to 7965
  145.8884  140.9319  143.0565 LP  0  0  0  0  0  0  0  0  0  0  0  0  # atno 17321 bound_to 7965
  139.8699  144.7073  150.8999 LP  0  0  0  0  0  0  0  0  0  0  0  0  # atno 17342 bound_to 10162
  140.7775  143.3747  151.1586 LP  0  0  0  0  0  0  0  0  0  0  0  0  # atno 17343 bound_to 10162
  157.1039  131.0203  151.3075 LP  0  0  0  0  0  0  0  0  0  0  0  0  # atno 17370 bound_to 10713
  157.4758  130.7736  149.7367 LP  0  0  0  0  0  0  0  0  0  0  0  0  # atno 17371 bound_to 10713
  141.1876  133.8278  157.1026 LP  0  0  0  0  0  0  0  0  0  0  0  0  # atno 17394 bound_to 11000
  140.0375  134.9871  157.0899 LP  0  0  0  0  0  0  0  0  0  0  0  0  # atno 17395 bound_to 11000

$$$$
