AV-unprocessed.smi:2336|AV-procd|sdf|9327|dock9
  -GOLD-   2272012543D 1   1.00000     0.00000
 Structure written by MMmdl.
 50 51  0  0  0  0  0  0  0  0  2 V2000
  150.6543  142.3016  157.9587 C   0  0  0  0  0  0  0  0  0  0  0  0
  150.6587  140.7737  158.1462 C   0  0  0  0  0  0  0  0  0  0  0  0
  152.0840  140.2532  158.4047 C   0  0  0  0  0  0  0  0  0  0  0  0
  149.9049  139.9918  157.0142 C   0  0  2  0  0  0  0  0  0  0  0  0
  149.8540  138.4487  157.2573 C   0  0  0  0  0  0  0  0  0  0  0  0
  149.0273  138.0688  158.3965 N   0  0  0  0  0  0  0  0  0  0  0  0
  148.8727  136.8130  158.8411 C   0  0  0  0  0  0  0  0  0  0  0  0
  149.4270  135.8424  158.3245 O   0  0  0  0  0  0  0  0  0  0  0  0
  148.0306  136.7701  159.8876 N   0  0  0  0  0  0  0  0  0  0  0  0
  147.5691  135.6439  160.6236 C   0  0  0  0  0  0  0  0  0  0  0  0
  147.7052  134.2991  160.2002 C   0  0  0  0  0  0  0  0  0  0  0  0
  147.2106  133.2759  161.0337 C   0  0  0  0  0  0  0  0  0  0  0  0
  146.6183  133.5062  162.2244 N   0  0  0  0  0  0  0  0  0  0  0  0
  146.5023  134.7877  162.6312 C   0  0  0  0  0  0  0  0  0  0  0  0
  146.9608  135.8843  161.8741 C   0  0  0  0  0  0  0  0  0  0  0  0
  146.8159  137.1471  162.3438 F   0  0  0  0  0  0  0  0  0  0  0  0
  150.4842  140.3523  155.6969 N   0  0  0  0  0  0  0  0  0  0  0  0
  150.5245  139.3092  154.6609 C   0  0  0  0  0  0  0  0  0  0  0  0
  149.1116  138.9500  154.1534 C   0  0  0  0  0  0  0  0  0  0  0  0
  148.4706  140.1421  153.5556 N   0  3  0  0  0  0  0  0  0  0  0  0
  147.1342  139.8525  152.9938 C   0  0  0  0  0  0  0  0  0  0  0  0
  148.4546  141.2625  154.5232 C   0  0  0  0  0  0  0  0  0  0  0  0
  149.8766  141.5375  155.0635 C   0  0  0  0  0  0  0  0  0  0  0  0
  151.2655  142.6104  157.1108 H   0  0  0  0  0  0  0  0  0  0  0  0
  151.0525  142.8016  158.8421 H   0  0  0  0  0  0  0  0  0  0  0  0
  149.6429  142.6763  157.8001 H   0  0  0  0  0  0  0  0  0  0  0  0
  150.1519  140.6083  159.0928 H   0  0  0  0  0  0  0  0  0  0  0  0
  152.7789  140.5280  157.6133 H   0  0  0  0  0  0  0  0  0  0  0  0
  152.0975  139.1675  158.5042 H   0  0  0  0  0  0  0  0  0  0  0  0
  152.4823  140.6685  159.3309 H   0  0  0  0  0  0  0  0  0  0  0  0
  148.8708  140.3310  157.0072 H   0  0  0  0  0  0  0  0  0  0  0  0
  149.4431  137.9133  156.4026 H   0  0  0  0  0  0  0  0  0  0  0  0
  150.8555  138.0438  157.4030 H   0  0  0  0  0  0  0  0  0  0  0  0
  148.5348  138.8112  158.8720 H   0  0  0  0  0  0  0  0  0  0  0  0
  147.6146  137.6505  160.1545 H   0  0  0  0  0  0  0  0  0  0  0  0
  148.1815  134.0285  159.2713 H   0  0  0  0  0  0  0  0  0  0  0  0
  147.3001  132.2413  160.7369 H   0  0  0  0  0  0  0  0  0  0  0  0
  146.0309  134.9448  163.5901 H   0  0  0  0  0  0  0  0  0  0  0  0
  151.1214  139.6763  153.8247 H   0  0  0  0  0  0  0  0  0  0  0  0
  151.0563  138.4251  155.0098 H   0  0  0  0  0  0  0  0  0  0  0  0
  149.1858  138.1666  153.3986 H   0  0  0  0  0  0  0  0  0  0  0  0
  148.4868  138.5567  154.9563 H   0  0  0  0  0  0  0  0  0  0  0  0
  146.4426  139.5312  153.7739 H   0  0  0  0  0  0  0  0  0  0  0  0
  147.1953  139.0631  152.2439 H   0  0  0  0  0  0  0  0  0  0  0  0
  146.7197  140.7385  152.5121 H   0  0  0  0  0  0  0  0  0  0  0  0
  148.0826  142.1568  154.0223 H   0  0  0  0  0  0  0  0  0  0  0  0
  147.7543  141.0513  155.3317 H   0  0  0  0  0  0  0  0  0  0  0  0
  149.8445  142.3933  155.7333 H   0  0  0  0  0  0  0  0  0  0  0  0
  150.5169  141.8486  154.2368 H   0  0  0  0  0  0  0  0  0  0  0  0
  149.0578  140.4309  152.7862 H   0  0  0  0  0  0  0  0  0  0  0  0
  1  2  1  0  0  0  0
  1 24  1  0  0  0  0
  1 25  1  0  0  0  0
  1 26  1  0  0  0  0
  2  3  1  0  0  0  0
  2  4  1  0  0  0  0
  2 27  1  0  0  0  0
  3 28  1  0  0  0  0
  3 29  1  0  0  0  0
  3 30  1  0  0  0  0
  4  5  1  0  0  0  0
  4 17  1  0  0  0  0
  4 31  1  0  0  0  0
  5  6  1  0  0  0  0
  5 32  1  0  0  0  0
  5 33  1  0  0  0  0
  6  7  1  0  0  0  0
  6 34  1  0  0  0  0
  7  8  2  0  0  0  0
  7  9  1  0  0  0  0
  9 10  1  0  0  0  0
  9 35  1  0  0  0  0
 10 15  1  0  0  0  0
 10 11  2  0  0  0  0
 11 12  1  0  0  0  0
 11 36  1  0  0  0  0
 12 13  2  0  0  0  0
 12 37  1  0  0  0  0
 13 14  1  0  0  0  0
 14 15  2  0  0  0  0
 14 38  1  0  0  0  0
 15 16  1  0  0  0  0
 17 23  1  0  0  0  0
 17 18  1  0  0  0  0
 18 19  1  0  0  0  0
 18 39  1  0  0  0  0
 18 40  1  0  0  0  0
 19 20  1  0  0  0  0
 19 41  1  0  0  0  0
 19 42  1  0  0  0  0
 20 21  1  0  0  0  0
 20 22  1  0  0  0  0
 20 50  1  0  0  0  0
 21 43  1  0  0  0  0
 21 44  1  0  0  0  0
 21 45  1  0  0  0  0
 22 23  1  0  0  0  0
 22 46  1  0  0  0  0
 22 47  1  0  0  0  0
 23 48  1  0  0  0  0
 23 49  1  0  0  0  0
M  CHG  1  20   1
M  END
> <s_m_source_file>
AV-unprocessed.smi

> <i_m_source_file_index>
2336

> <i_lp_mmshare_version>
43012

> <i_f3d_flags>
0

> <s_epik_input>
W0NIMl0xW0NIMl1OKFtDSDNdKVtDSDJdW0NIMl1OMVtDQEhdKFtDSF0oW0NIM10pW0NIM10pW0NIMl1bTkhdQyg9TylbTkhdYzJbY0hdW2NIXW5bY0hdYzJG

> <s_epik_cmdline>
J2VwaWtfcHl0aG9uJywgJy1waCcsICc3LjAnLCAnLXRuJywgJzgnLCAnLW1hJywgJzIwMCcsICctbWV0YWxfYmluZGluZycsICctaW1hZScsICc8aW5maWxlLm1hZT4nLCAnLW9tYWUnLCAnPG91dGZpbGUubWFlPic=

> <r_epik_Ionization_Penalty>
0.0313013

> <r_epik_Ionization_Penalty_Charging>
0.0272987

> <r_epik_Ionization_Penalty_Neutral>
0.00400259

> <r_epik_State_Penalty>
0.0776825

> <r_epik_Charging_Adjusted_Penalty>
0.104981

> <i_epik_Tot_Q>
1

> <i_epik_Tot_abs_Q>
1

> <r_epik_Metal_State_Penalty>
0.0776139

> <b_epik_Metal_Only>
0

> <s_lp_Force_Field>
OPLS_2005

> <r_lp_Energy>
31.6665

> <b_lp_Chiralities_Consistent>
1

> <s_lp_Variant>
AV-unprocessed.smi:2336-1

> <Gold.Version>
5.8.1

> <Gold.Id.Protein>
6NUR|6NUR_protein|mol2

> <Gold.PLP.Fitness>
44.4869

> <Gold.PLP.PLP>
-40.5162

> <Gold.PLP.part.hbond>
-2.0000

> <Gold.PLP.part.metal>
0.0000

> <Gold.PLP.part.buried>
-3.5035

> <Gold.PLP.part.nonpolar>
-34.4834

> <Gold.PLP.part.repulsive>
0.5221

> <Gold.PLP.ligand.clash>
0.0000

> <Gold.PLP.ligand.torsion>
1.0808

> <Gold.PLP.Chemscore.Hbond>
1.9920

> <Gold.PLP.Chemscore.CHOScore>
0.0000

> <Gold.PLP.Chemscore.Metal>
0.0000

> <Gold.Chemscore.Hbonds>
donor molecule, donor type, donor heavy atom, donor atom, acceptor molecule, acceptor atom, score
      L1  H    20    50       P1  7957  0.91
      P1  H  6896  6907       L1     8  0.67

> <Gold.PLP.Chemscore.Internal.Correction>
0.1562

> <Gold.Rescore>
     Score         DG    S(hbond)    S(metal)    S(lipo)     H(rot)  DE(clash)    DE(int)     intcor
     16.49     -18.91       1.99        0.00      94.60       1.67       0.15       2.27       ----

> <Gold.Chemscore.Fitness>
16.4920

> <Gold.Chemscore.DG>
-18.9147

> <Gold.Chemscore.ZeroCoef>
-5.4800

> <Gold.Chemscore.Hbond>
1.9916

> <Gold.Chemscore.Metal>
0.0000

> <Gold.Chemscore.Lipo>
94.5984

> <Gold.Chemscore.Internal_Hbond>
0.0000

> <Gold.Chemscore.DEClash>
0.1492

> <Gold.Chemscore.DEInternal>
2.2735

> <Gold.Chemscore.Rot>
1.6739

> <Gold.Chemscore.Internal.Correction>
   9.000000E+99

> <Gold.Chemscore.Hbonds>
donor molecule, donor type, donor heavy atom, donor atom, acceptor molecule, acceptor atom, score
      L1  H    20    50       P1  7957  0.90
      P1  H  6896  6907       L1     8  0.60

> <Gold.Chemscore.Hbond.Weighted>
-6.6518

> <Gold.Chemscore.Metal.Weighted>
-0.0000

> <Gold.Chemscore.Lipo.Weighted>
-11.0680

> <Gold.Chemscore.Internal_Hbond.Weighted>
0.0000

> <Gold.Chemscore.DEClash.Weighted>
0.1492

> <Gold.Chemscore.DEInternal.Weighted>
2.2735

> <Gold.Chemscore.Rot.Weighted>
4.2851

> <Gold.Chemscore.Internal.Correction.Weighted>
   9.000000E+99

> <Gold.Protein.RotatedTorsions>
[ 6907 6896 6895 6894 ] final  -56.27 input  -60.11 | X-H torsion
[ 7974 7965 7964 7962 ] final  -98.17 input  175.53 | X-H torsion
[ 8008 7997 7996 7995 ] final  -35.37 input   59.86 | X-H torsion
[ 10167 10162 10161 10158 ] final -126.21 input  -65.29 | X-H torsion
[ 10718 10713 10712 10709 ] final -121.71 input   66.30 | X-H torsion
[ 10763 10752 10751 10750 ] final  -46.34 input  -60.55 | X-H torsion
[ 11005 11000 10999 10996 ] final -140.58 input  -57.11 | X-H torsion

> <Gold.Protein.ActiveResidues>
 VAL166  LYS551  ARG553  GLY616  TRP617  ASP618  TYR619  PRO620  LYS621  CYS622 
 ASP623  PHE694  ASN695  SER759  ASP760  ASP761  ALA762  ILE779  LEU786  VAL792 
 PHE793  MET794  SER795  GLU796  ALA797  LYS798  CYS799  TRP800  GLU811  SER814 

> <Gold.Protein.RotatedAtoms>
  150.8182  134.7375  159.6748 H   0  0  0  0  0  0  0  0  0  0  0  0  # atno 6907 bound_to 6896
  152.4299  134.5794  159.9953 H   0  0  0  0  0  0  0  0  0  0  0  0  # atno 6908 bound_to 6896
  151.5985  133.3321  159.3078 H   0  0  0  0  0  0  0  0  0  0  0  0  # atno 6909 bound_to 6896
  145.3241  140.9428  143.2699 H   0  0  0  0  0  0  0  0  0  0  0  0  # atno 7974 bound_to 7965
  154.4097  140.1659  156.2201 H   0  0  0  0  0  0  0  0  0  0  0  0  # atno 8008 bound_to 7997
  155.9371  140.3410  155.6273 H   0  0  0  0  0  0  0  0  0  0  0  0  # atno 8009 bound_to 7997
  155.7035  140.0748  157.2391 H   0  0  0  0  0  0  0  0  0  0  0  0  # atno 8010 bound_to 7997
  139.9739  143.5816  152.2403 H   0  0  0  0  0  0  0  0  0  0  0  0  # atno 10167 bound_to 10162
  156.1359  130.6430  150.9696 H   0  0  0  0  0  0  0  0  0  0  0  0  # atno 10718 bound_to 10713
  154.0433  135.6641  153.4792 H   0  0  0  0  0  0  0  0  0  0  0  0  # atno 10763 bound_to 10752
  153.0493  135.5095  154.7821 H   0  0  0  0  0  0  0  0  0  0  0  0  # atno 10764 bound_to 10752
  154.6804  135.3044  154.9586 H   0  0  0  0  0  0  0  0  0  0  0  0  # atno 10765 bound_to 10752
  140.8408  134.2404  157.4811 H   0  0  0  0  0  0  0  0  0  0  0  0  # atno 11005 bound_to 11000
  144.8916  139.4767  143.6675 LP  0  0  0  0  0  0  0  0  0  0  0  0  # atno 17320 bound_to 7965
  146.3071  139.7617  142.9048 LP  0  0  0  0  0  0  0  0  0  0  0  0  # atno 17321 bound_to 7965
  139.6460  144.7658  151.2242 LP  0  0  0  0  0  0  0  0  0  0  0  0  # atno 17342 bound_to 10162
  140.7512  143.6238  150.8488 LP  0  0  0  0  0  0  0  0  0  0  0  0  # atno 17343 bound_to 10162
  157.6532  131.0893  150.8005 LP  0  0  0  0  0  0  0  0  0  0  0  0  # atno 17370 bound_to 10713
  156.8085  130.4944  149.5359 LP  0  0  0  0  0  0  0  0  0  0  0  0  # atno 17371 bound_to 10713
  139.8703  134.9634  156.4462 LP  0  0  0  0  0  0  0  0  0  0  0  0  # atno 17394 bound_to 11000
  140.8897  133.7857  155.9558 LP  0  0  0  0  0  0  0  0  0  0  0  0  # atno 17395 bound_to 11000

$$$$
