AV-unprocessed.smi:581|AV-procd|sdf|2993|dock6
  -GOLD-   2262023493D 1   1.00000     0.00000
 Structure written by MMmdl.
 35 36  0  0  0  0  0  0  0  0  2 V2000
  148.6259  141.4759  155.1569 C   0  0  0  0  0  0  0  0  0  0  0  0
  149.9276  141.1993  155.8864 C   0  0  0  0  0  0  0  0  0  0  0  0
  150.2329  142.0507  156.8896 N   0  0  0  0  0  0  0  0  0  0  0  0
  151.3759  141.8532  157.5566 C   0  0  0  0  0  0  0  0  0  0  0  0
  151.6852  142.7458  158.5913 N   0  0  0  0  0  0  0  0  0  0  0  0
  151.3423  144.1683  158.5265 C   0  0  0  0  0  0  0  0  0  0  0  0
  151.0122  144.7126  159.9265 C   0  0  0  0  0  0  0  0  0  0  0  0
  152.0944  144.4541  160.8126 O   0  0  0  0  0  0  0  0  0  0  0  0
  152.3327  143.0593  160.9555 C   0  0  0  0  0  0  0  0  0  0  0  0
  152.7125  142.4536  159.5940 C   0  0  0  0  0  0  0  0  0  0  0  0
  152.2470  140.8682  157.3045 N   0  0  0  0  0  0  0  0  0  0  0  0
  151.9636  140.0030  156.3078 C   0  0  0  0  0  0  0  0  0  0  0  0
  152.8605  139.0066  156.0525 O   0  0  0  0  0  0  0  0  0  0  0  0
  150.7793  140.1218  155.5435 C   0  0  0  0  0  0  0  0  0  0  0  0
  150.4562  139.1528  154.4119 C   0  0  0  0  0  0  0  0  0  0  0  0
  149.6614  137.9281  154.9083 C   0  0  0  0  0  0  0  0  0  0  0  0
  150.5527  136.8188  155.4824 C   0  0  0  0  0  0  0  0  0  0  0  0
  151.4335  136.3671  154.7186 O   0  0  0  0  0  0  0  0  0  0  0  0
  150.3504  136.4289  156.6543 O   0  5  0  0  0  0  0  0  0  0  0  0
  152.6704  138.5422  155.2525 H   0  0  0  0  0  0  0  0  0  0  0  0
  148.7939  141.5390  154.0818 H   0  0  0  0  0  0  0  0  0  0  0  0
  148.1799  142.4170  155.4813 H   0  0  0  0  0  0  0  0  0  0  0  0
  147.9073  140.6792  155.3493 H   0  0  0  0  0  0  0  0  0  0  0  0
  150.4873  144.3562  157.8777 H   0  0  0  0  0  0  0  0  0  0  0  0
  152.1870  144.7120  158.1022 H   0  0  0  0  0  0  0  0  0  0  0  0
  150.8424  145.7883  159.8791 H   0  0  0  0  0  0  0  0  0  0  0  0
  150.0956  144.2630  160.3116 H   0  0  0  0  0  0  0  0  0  0  0  0
  153.1421  142.9099  161.6703 H   0  0  0  0  0  0  0  0  0  0  0  0
  151.4497  142.5673  161.3672 H   0  0  0  0  0  0  0  0  0  0  0  0
  153.6599  142.8707  159.2513 H   0  0  0  0  0  0  0  0  0  0  0  0
  152.8706  141.3840  159.7272 H   0  0  0  0  0  0  0  0  0  0  0  0
  151.3801  138.8374  153.9270 H   0  0  0  0  0  0  0  0  0  0  0  0
  149.8904  139.6799  153.6426 H   0  0  0  0  0  0  0  0  0  0  0  0
  148.9529  138.2305  155.6799 H   0  0  0  0  0  0  0  0  0  0  0  0
  149.0749  137.5103  154.0889 H   0  0  0  0  0  0  0  0  0  0  0  0
  1 21  1  0  0  0  0
  1 22  1  0  0  0  0
  1 23  1  0  0  0  0
  1  2  1  0  0  0  0
  2 14  2  0  0  0  0
  2  3  1  0  0  0  0
  3  4  2  0  0  0  0
  4  5  1  0  0  0  0
  4 11  1  0  0  0  0
  5 10  1  0  0  0  0
  5  6  1  0  0  0  0
  6  7  1  0  0  0  0
  6 24  1  0  0  0  0
  6 25  1  0  0  0  0
  7  8  1  0  0  0  0
  7 26  1  0  0  0  0
  7 27  1  0  0  0  0
  8  9  1  0  0  0  0
  9 10  1  0  0  0  0
  9 28  1  0  0  0  0
  9 29  1  0  0  0  0
 10 30  1  0  0  0  0
 10 31  1  0  0  0  0
 11 12  2  0  0  0  0
 12 13  1  0  0  0  0
 12 14  1  0  0  0  0
 13 20  1  0  0  0  0
 14 15  1  0  0  0  0
 15 16  1  0  0  0  0
 15 32  1  0  0  0  0
 15 33  1  0  0  0  0
 16 17  1  0  0  0  0
 16 34  1  0  0  0  0
 16 35  1  0  0  0  0
 17 18  2  0  0  0  0
 17 19  1  0  0  0  0
M  CHG  1  19  -1
M  END
> <s_m_source_file>
AV-unprocessed.smi

> <i_m_source_file_index>
581

> <i_lp_mmshare_version>
43012

> <i_f3d_flags>
0

> <s_epik_input>
W0NIMl0xW0NIMl1PW0NIMl1bQ0gyXU4xYyhuYzJbQ0gzXSlbbkhdYyg9TyljMltDSDJdW0NIMl1DKD1PKVtPSF0=

> <s_epik_cmdline>
J2VwaWtfcHl0aG9uJywgJy1waCcsICc3LjAnLCAnLXRuJywgJzgnLCAnLW1hJywgJzIwMCcsICctbWV0YWxfYmluZGluZycsICctaW1hZScsICc8aW5maWxlLm1hZT4nLCAnLW9tYWUnLCAnPG91dGZpbGUubWFlPic=

> <r_lp_tautomer_probability>
0.0131408

> <r_epik_Ionization_Penalty>
9.14148

> <r_epik_Ionization_Penalty_Charging>
0.00124504

> <r_epik_Ionization_Penalty_Neutral>
9.14023

> <r_epik_State_Penalty>
2.72329

> <r_epik_Charging_Adjusted_Penalty>
2.72453

> <i_epik_Tot_Q>
-1

> <i_epik_Tot_abs_Q>
1

> <r_epik_Metal_State_Penalty>
2.96989

> <b_epik_Metal_Only>
0

> <s_lp_Force_Field>
OPLS_2005

> <r_lp_Energy>
10.3836

> <b_lp_Chiralities_Consistent>
1

> <s_lp_Variant>
AV-unprocessed.smi:581-3

> <Gold.Version>
5.8.1

> <Gold.Id.Protein>
6NUR|6NUR_protein|mol2

> <Gold.PLP.Fitness>
42.5269

> <Gold.PLP.PLP>
-35.6716

> <Gold.PLP.part.hbond>
-2.5965

> <Gold.PLP.part.metal>
0.0000

> <Gold.PLP.part.buried>
-3.4294

> <Gold.PLP.part.nonpolar>
-30.8642

> <Gold.PLP.part.repulsive>
0.4061

> <Gold.PLP.ligand.clash>
0.0000

> <Gold.PLP.ligand.torsion>
0.8171

> <Gold.PLP.Chemscore.Hbond>
2.8000

> <Gold.PLP.Chemscore.CHOScore>
0.0000

> <Gold.PLP.Chemscore.Metal>
0.0000

> <Gold.Chemscore.Hbonds>
donor molecule, donor type, donor heavy atom, donor atom, acceptor molecule, acceptor atom, score
      P1  H  7997  8009       L1    13  0.75
      P1  H 10752 10765       L1    18  2.00

> <Gold.PLP.Chemscore.Internal.Correction>
0.0894

> <Gold.Rescore>
     Score         DG    S(hbond)    S(metal)    S(lipo)     H(rot)  DE(clash)    DE(int)     intcor
     11.13     -12.61       1.43        0.00      74.24       2.48       0.78       0.70       ----

> <Gold.Chemscore.Fitness>
11.1323

> <Gold.Chemscore.DG>
-12.6146

> <Gold.Chemscore.ZeroCoef>
-5.4800

> <Gold.Chemscore.Hbond>
1.4342

> <Gold.Chemscore.Metal>
0.0000

> <Gold.Chemscore.Lipo>
74.2432

> <Gold.Chemscore.Internal_Hbond>
0.0000

> <Gold.Chemscore.DEClash>
0.7826

> <Gold.Chemscore.DEInternal>
0.6997

> <Gold.Chemscore.Rot>
2.4774

> <Gold.Chemscore.Internal.Correction>
   9.000000E+99

> <Gold.Chemscore.Hbonds>
donor molecule, donor type, donor heavy atom, donor atom, acceptor molecule, acceptor atom, score
      P1  H  7997  8009       L1    13  0.08
      P1  H 10752 10765       L1    18  0.99

> <Gold.Chemscore.Hbond.Weighted>
-4.7902

> <Gold.Chemscore.Metal.Weighted>
-0.0000

> <Gold.Chemscore.Lipo.Weighted>
-8.6865

> <Gold.Chemscore.Internal_Hbond.Weighted>
0.0000

> <Gold.Chemscore.DEClash.Weighted>
0.7826

> <Gold.Chemscore.DEInternal.Weighted>
0.6997

> <Gold.Chemscore.Rot.Weighted>
6.3420

> <Gold.Chemscore.Internal.Correction.Weighted>
   9.000000E+99

> <Gold.Protein.RotatedTorsions>
[ 6907 6896 6895 6894 ] final  -56.94 input  -60.11 | X-H torsion
[ 7974 7965 7964 7962 ] final  -45.56 input  175.53 | X-H torsion
[ 8008 7997 7996 7995 ] final -141.68 input   59.86 | X-H torsion
[ 10167 10162 10161 10158 ] final -137.88 input  -65.29 | X-H torsion
[ 10718 10713 10712 10709 ] final  119.01 input   66.30 | X-H torsion
[ 10763 10752 10751 10750 ] final -171.84 input  -60.55 | X-H torsion
[ 11005 11000 10999 10996 ] final  -52.39 input  -57.11 | X-H torsion

> <Gold.Protein.ActiveResidues>
 VAL166  LYS551  ARG553  GLY616  TRP617  ASP618  TYR619  PRO620  LYS621  CYS622 
 ASP623  PHE694  ASN695  SER759  ASP760  ASP761  ALA762  ILE779  LEU786  VAL792 
 PHE793  MET794  SER795  GLU796  ALA797  LYS798  CYS799  TRP800  GLU811  SER814 

> <Gold.Protein.RotatedAtoms>
  150.8126  134.7290  159.6701 H   0  0  0  0  0  0  0  0  0  0  0  0  # atno 6907 bound_to 6896
  152.4246  134.5889  159.9978 H   0  0  0  0  0  0  0  0  0  0  0  0  # atno 6908 bound_to 6896
  151.6095  133.3311  159.3100 H   0  0  0  0  0  0  0  0  0  0  0  0  # atno 6909 bound_to 6896
  145.9808  140.7285  142.9364 H   0  0  0  0  0  0  0  0  0  0  0  0  # atno 7974 bound_to 7965
  155.4818  140.0561  157.2966 H   0  0  0  0  0  0  0  0  0  0  0  0  # atno 8008 bound_to 7997
  154.4657  140.2017  156.0077 H   0  0  0  0  0  0  0  0  0  0  0  0  # atno 8009 bound_to 7997
  156.0970  140.3225  155.7896 H   0  0  0  0  0  0  0  0  0  0  0  0  # atno 8010 bound_to 7997
  139.8534  143.7169  152.2656 H   0  0  0  0  0  0  0  0  0  0  0  0  # atno 10167 bound_to 10162
  157.5991  131.1054  150.7837 H   0  0  0  0  0  0  0  0  0  0  0  0  # atno 10718 bound_to 10713
  154.6260  135.2881  155.0272 H   0  0  0  0  0  0  0  0  0  0  0  0  # atno 10763 bound_to 10752
  154.1450  135.6512  153.4954 H   0  0  0  0  0  0  0  0  0  0  0  0  # atno 10764 bound_to 10752
  153.0257  135.5342  154.7068 H   0  0  0  0  0  0  0  0  0  0  0  0  # atno 10765 bound_to 10752
  141.0921  133.6631  156.4017 H   0  0  0  0  0  0  0  0  0  0  0  0  # atno 11005 bound_to 11000
  144.6861  140.2906  143.7278 LP  0  0  0  0  0  0  0  0  0  0  0  0  # atno 17320 bound_to 7965
  145.7772  139.1878  143.2179 LP  0  0  0  0  0  0  0  0  0  0  0  0  # atno 17321 bound_to 7965
  139.7443  144.7551  151.0604 LP  0  0  0  0  0  0  0  0  0  0  0  0  # atno 17342 bound_to 10162
  140.7784  143.4935  150.9863 LP  0  0  0  0  0  0  0  0  0  0  0  0  # atno 17343 bound_to 10162
  156.8240  130.4993  149.5339 LP  0  0  0  0  0  0  0  0  0  0  0  0  # atno 17370 bound_to 10713
  156.1060  130.6004  150.9971 LP  0  0  0  0  0  0  0  0  0  0  0  0  # atno 17371 bound_to 10713
  140.5226  134.6289  157.5323 LP  0  0  0  0  0  0  0  0  0  0  0  0  # atno 17394 bound_to 11000
  139.9750  134.7231  155.9968 LP  0  0  0  0  0  0  0  0  0  0  0  0  # atno 17395 bound_to 11000

$$$$
