AV-unprocessed.smi:211|AV-procd|sdf|1616|dock3
  -GOLD-   2262019543D 1   1.00000     0.00000
 Structure written by MMmdl.
 59 62  0  0  0  0  0  0  0  0  1 V2000
  156.7992  131.3453  156.0546 C   0  0  0  0  0  0  0  0  0  0  0  0
  155.7892  130.2703  155.6688 C   0  0  0  0  0  0  0  0  0  0  0  0
  155.5967  130.0009  154.4836 O   0  0  0  0  0  0  0  0  0  0  0  0
  155.1511  129.6672  156.6835 N   0  0  0  0  0  0  0  0  0  0  0  0
  154.1269  128.6313  156.5523 C   0  0  1  0  0  0  0  0  0  0  0  0
  153.5604  128.3166  157.9498 C   0  0  0  0  0  0  0  0  0  0  0  0
  153.0440  129.0795  155.5351 C   0  0  0  0  0  0  0  0  0  0  0  0
  152.3059  130.3632  155.9777 C   0  0  0  0  0  0  0  0  0  0  0  0
  151.2228  130.7760  154.9678 C   0  0  0  0  0  0  0  0  0  0  0  0
  150.2879  129.6787  154.7193 N   0  0  0  0  0  0  0  0  0  0  0  0
  149.1275  129.9763  154.0801 C   0  0  0  0  0  0  0  0  0  0  0  0
  148.1885  129.0099  153.8925 N   0  0  0  0  0  0  0  0  0  0  0  0
  147.0352  129.2973  153.2819 C   0  0  0  0  0  0  0  0  0  0  0  0
  146.6231  130.4645  152.7847 N   0  0  0  0  0  0  0  0  0  0  0  0
  147.5645  131.4360  152.9580 C   0  0  0  0  0  0  0  0  0  0  0  0
  148.8295  131.2804  153.5925 C   0  0  0  0  0  0  0  0  0  0  0  0
  149.5122  132.4914  153.5859 N   0  0  0  0  0  0  0  0  0  0  0  0
  148.6907  133.3181  152.9988 C   0  0  0  0  0  0  0  0  0  0  0  0
  147.5085  132.7618  152.5653 N   0  0  0  0  0  0  0  0  0  0  0  0
  146.4169  133.4427  151.9337 C   0  0  0  0  0  0  0  0  0  0  0  0
  145.0000  132.8648  151.9627 C   0  0  0  0  0  0  0  0  0  0  0  0
  144.7244  133.4950  150.5797 C   0  0  0  0  0  0  0  0  0  0  0  0
  143.9312  132.6115  149.6025 C   0  0  0  0  0  0  0  0  0  0  0  0
  142.6165  132.3830  150.0682 O   0  0  0  0  0  0  0  0  0  0  0  0
  144.0948  134.9025  150.6157 C   0  0  0  0  0  0  0  0  0  0  0  0
  144.5436  135.6964  149.5362 O   0  0  0  0  0  0  0  0  0  0  0  0
  146.2609  133.4629  150.4112 C   0  0  0  0  0  0  0  0  0  0  0  0
  150.9156  128.4357  154.2779 C   0  0  0  0  0  0  0  0  0  0  0  0
  151.9897  127.9767  155.2761 C   0  0  0  0  0  0  0  0  0  0  0  0
  157.5468  130.9411  156.7377 H   0  0  0  0  0  0  0  0  0  0  0  0
  156.2965  132.1793  156.5452 H   0  0  0  0  0  0  0  0  0  0  0  0
  157.3144  131.7283  155.1729 H   0  0  0  0  0  0  0  0  0  0  0  0
  155.3840  129.9564  157.6225 H   0  0  0  0  0  0  0  0  0  0  0  0
  154.5925  127.7238  156.1630 H   0  0  0  0  0  0  0  0  0  0  0  0
  152.8980  127.4518  157.9327 H   0  0  0  0  0  0  0  0  0  0  0  0
  152.9998  129.1618  158.3511 H   0  0  0  0  0  0  0  0  0  0  0  0
  154.3587  128.0842  158.6556 H   0  0  0  0  0  0  0  0  0  0  0  0
  153.5420  129.2918  154.5876 H   0  0  0  0  0  0  0  0  0  0  0  0
  151.8501  130.2074  156.9564 H   0  0  0  0  0  0  0  0  0  0  0  0
  153.0033  131.1928  156.0883 H   0  0  0  0  0  0  0  0  0  0  0  0
  150.6848  131.6446  155.3507 H   0  0  0  0  0  0  0  0  0  0  0  0
  151.6883  131.0736  154.0271 H   0  0  0  0  0  0  0  0  0  0  0  0
  146.3436  128.4743  153.1774 H   0  0  0  0  0  0  0  0  0  0  0  0
  148.9303  134.3627  152.8612 H   0  0  0  0  0  0  0  0  0  0  0  0
  146.4277  134.4581  152.3333 H   0  0  0  0  0  0  0  0  0  0  0  0
  144.9949  131.7730  151.9432 H   0  0  0  0  0  0  0  0  0  0  0  0
  144.3743  133.2426  152.7718 H   0  0  0  0  0  0  0  0  0  0  0  0
  143.8828  133.0551  148.6080 H   0  0  0  0  0  0  0  0  0  0  0  0
  144.4133  131.6411  149.4800 H   0  0  0  0  0  0  0  0  0  0  0  0
  142.0472  133.0378  149.6936 H   0  0  0  0  0  0  0  0  0  0  0  0
  143.0060  134.8538  150.5873 H   0  0  0  0  0  0  0  0  0  0  0  0
  144.3472  135.4248  151.5385 H   0  0  0  0  0  0  0  0  0  0  0  0
  144.4909  136.6052  149.7904 H   0  0  0  0  0  0  0  0  0  0  0  0
  146.6930  134.3390  149.9268 H   0  0  0  0  0  0  0  0  0  0  0  0
  146.6182  132.5439  149.9425 H   0  0  0  0  0  0  0  0  0  0  0  0
  150.1814  127.6404  154.1530 H   0  0  0  0  0  0  0  0  0  0  0  0
  151.3661  128.5996  153.2979 H   0  0  0  0  0  0  0  0  0  0  0  0
  152.4583  127.0728  154.8872 H   0  0  0  0  0  0  0  0  0  0  0  0
  151.5133  127.6958  156.2166 H   0  0  0  0  0  0  0  0  0  0  0  0
  1  2  1  0  0  0  0
  1 30  1  0  0  0  0
  1 31  1  0  0  0  0
  1 32  1  0  0  0  0
  2  3  2  0  0  0  0
  2  4  1  0  0  0  0
  4  5  1  0  0  0  0
  4 33  1  0  0  0  0
  5  6  1  0  0  0  0
  5  7  1  0  0  0  0
  5 34  1  0  0  0  0
  6 35  1  0  0  0  0
  6 36  1  0  0  0  0
  6 37  1  0  0  0  0
  7 29  1  0  0  0  0
  7  8  1  0  0  0  0
  7 38  1  0  0  0  0
  8  9  1  0  0  0  0
  8 39  1  0  0  0  0
  8 40  1  0  0  0  0
  9 10  1  0  0  0  0
  9 41  1  0  0  0  0
  9 42  1  0  0  0  0
 10 11  1  0  0  0  0
 10 28  1  0  0  0  0
 11 16  1  0  0  0  0
 11 12  2  0  0  0  0
 12 13  1  0  0  0  0
 13 14  2  0  0  0  0
 13 43  1  0  0  0  0
 14 15  1  0  0  0  0
 15 19  1  0  0  0  0
 15 16  2  0  0  0  0
 16 17  1  0  0  0  0
 17 18  2  0  0  0  0
 18 19  1  0  0  0  0
 18 44  1  0  0  0  0
 19 20  1  0  0  0  0
 20 27  1  0  0  0  0
 20 21  1  0  0  0  0
 20 45  1  0  0  0  0
 21 22  1  0  0  0  0
 21 46  1  0  0  0  0
 21 47  1  0  0  0  0
 22 23  1  0  0  0  0
 22 25  1  0  0  0  0
 22 27  1  0  0  0  0
 23 24  1  0  0  0  0
 23 48  1  0  0  0  0
 23 49  1  0  0  0  0
 24 50  1  0  0  0  0
 25 26  1  0  0  0  0
 25 51  1  0  0  0  0
 25 52  1  0  0  0  0
 26 53  1  0  0  0  0
 27 54  1  0  0  0  0
 27 55  1  0  0  0  0
 28 29  1  0  0  0  0
 28 56  1  0  0  0  0
 28 57  1  0  0  0  0
 29 58  1  0  0  0  0
 29 59  1  0  0  0  0
M  END
> <s_m_source_file>
AV-unprocessed.smi

> <i_m_source_file_index>
211

> <i_lp_mmshare_version>
43012

> <i_f3d_flags>
0

> <s_epik_input>
W0NIM11DKD1PKVtOSF1bQ0BIXShbQ0gzXSlbQ0hdMVtDSDJdW0NIMl1OKFtDSDJdW0NIMl0xKWMobltjSF1uMiljKGMyMyluW2NIXW4zW0NIXShbQ0gyXTQpW0NIMl1DNChbQ0gyXVtPSF0pW0NIMl1bT0hd

> <s_epik_cmdline>
J2VwaWtfcHl0aG9uJywgJy1waCcsICc3LjAnLCAnLXRuJywgJzgnLCAnLW1hJywgJzIwMCcsICctbWV0YWxfYmluZGluZycsICctaW1hZScsICc8aW5maWxlLm1hZT4nLCAnLW9tYWUnLCAnPG91dGZpbGUubWFlPic=

> <r_lp_tautomer_probability>
1

> <r_epik_Ionization_Penalty>
0.00335435

> <r_epik_Ionization_Penalty_Charging>
0

> <r_epik_Ionization_Penalty_Neutral>
0.00335435

> <r_epik_State_Penalty>
0.00231338

> <r_epik_Charging_Adjusted_Penalty>
0.00231338

> <i_epik_Tot_Q>
0

> <i_epik_Tot_abs_Q>
0

> <r_epik_Metal_State_Penalty>
-0

> <b_epik_Metal_Only>
0

> <s_lp_Force_Field>
OPLS_2005

> <r_lp_Energy>
40.8238

> <b_lp_Chiralities_Consistent>
1

> <s_lp_Variant>
AV-unprocessed.smi:211-2

> <Gold.Version>
5.8.1

> <Gold.Id.Protein>
6NUR|6NUR_protein|mol2

> <Gold.PLP.Fitness>
46.1408

> <Gold.PLP.PLP>
-39.7012

> <Gold.PLP.part.hbond>
-4.0000

> <Gold.PLP.part.metal>
0.0000

> <Gold.PLP.part.buried>
-4.3686

> <Gold.PLP.part.nonpolar>
-31.4188

> <Gold.PLP.part.repulsive>
0.3763

> <Gold.PLP.ligand.clash>
0.0000

> <Gold.PLP.ligand.torsion>
1.3572

> <Gold.PLP.Chemscore.Hbond>
2.0000

> <Gold.PLP.Chemscore.CHOScore>
0.7529

> <Gold.PLP.Chemscore.Metal>
0.0000

> <Gold.Chemscore.Hbonds>
donor molecule, donor type, donor heavy atom, donor atom, acceptor molecule, acceptor atom, score
      L1  H    24    50       P1 10186  1.00
      L1  H    26    53       P1 10171  0.94
      L1  C    18    44       P1  7948  0.39

> <Gold.PLP.Chemscore.Internal.Correction>
0.8951

> <Gold.Rescore>
     Score         DG    S(hbond)    S(metal)    S(lipo)     H(rot)  DE(clash)    DE(int)     intcor
      5.95     -10.86       2.00        0.00      74.61       3.92       0.18       4.72       ----

> <Gold.Chemscore.Fitness>
5.9471

> <Gold.Chemscore.DG>
-10.8555

> <Gold.Chemscore.ZeroCoef>
-5.4800

> <Gold.Chemscore.Hbond>
1.9970

> <Gold.Chemscore.Metal>
0.0000

> <Gold.Chemscore.Lipo>
74.6082

> <Gold.Chemscore.Internal_Hbond>
0.0000

> <Gold.Chemscore.DEClash>
0.1841

> <Gold.Chemscore.DEInternal>
4.7243

> <Gold.Chemscore.Rot>
3.9155

> <Gold.Chemscore.Internal.Correction>
   9.000000E+99

> <Gold.Chemscore.Hbonds>
donor molecule, donor type, donor heavy atom, donor atom, acceptor molecule, acceptor atom, score
      L1  H    24    50       P1 10186  1.00
      L1  H    26    53       P1 10171  0.89

> <Gold.Chemscore.Hbond.Weighted>
-6.6699

> <Gold.Chemscore.Metal.Weighted>
-0.0000

> <Gold.Chemscore.Lipo.Weighted>
-8.7292

> <Gold.Chemscore.Internal_Hbond.Weighted>
0.0000

> <Gold.Chemscore.DEClash.Weighted>
0.1841

> <Gold.Chemscore.DEInternal.Weighted>
4.7243

> <Gold.Chemscore.Rot.Weighted>
10.0236

> <Gold.Chemscore.Internal.Correction.Weighted>
   9.000000E+99

> <Gold.Protein.RotatedTorsions>
[ 6907 6896 6895 6894 ] final   25.79 input  -60.11 | X-H torsion
[ 7974 7965 7964 7962 ] final  -29.44 input  175.53 | X-H torsion
[ 8008 7997 7996 7995 ] final  155.24 input   59.86 | X-H torsion
[ 10167 10162 10161 10158 ] final  -82.60 input  -65.29 | X-H torsion
[ 10718 10713 10712 10709 ] final  -48.52 input   66.30 | X-H torsion
[ 10763 10752 10751 10750 ] final   68.83 input  -60.55 | X-H torsion
[ 11005 11000 10999 10996 ] final   34.83 input  -57.11 | X-H torsion

> <Gold.Protein.ActiveResidues>
 VAL166  LYS551  ARG553  GLY616  TRP617  ASP618  TYR619  PRO620  LYS621  CYS622 
 ASP623  PHE694  ASN695  SER759  ASP760  ASP761  ALA762  ILE779  LEU786  VAL792 
 PHE793  MET794  SER795  GLU796  ALA797  LYS798  CYS799  TRP800  GLU811  SER814 

> <Gold.Protein.RotatedAtoms>
  151.9777  135.0044  160.0555 H   0  0  0  0  0  0  0  0  0  0  0  0  # atno 6907 bound_to 6896
  152.1725  133.4648  159.4924 H   0  0  0  0  0  0  0  0  0  0  0  0  # atno 6908 bound_to 6896
  150.6904  134.1853  159.4307 H   0  0  0  0  0  0  0  0  0  0  0  0  # atno 6909 bound_to 6896
  146.1216  140.5413  142.8733 H   0  0  0  0  0  0  0  0  0  0  0  0  # atno 7974 bound_to 7965
  156.2488  140.1945  156.6771 H   0  0  0  0  0  0  0  0  0  0  0  0  # atno 8008 bound_to 7997
  154.6349  140.0591  156.9803 H   0  0  0  0  0  0  0  0  0  0  0  0  # atno 8009 bound_to 7997
  155.1652  140.3263  155.4406 H   0  0  0  0  0  0  0  0  0  0  0  0  # atno 8010 bound_to 7997
  140.4305  143.2550  151.8766 H   0  0  0  0  0  0  0  0  0  0  0  0  # atno 10167 bound_to 10162
  156.1980  130.4155  149.9279 H   0  0  0  0  0  0  0  0  0  0  0  0  # atno 10718 bound_to 10713
  153.0255  135.5233  154.7195 H   0  0  0  0  0  0  0  0  0  0  0  0  # atno 10763 bound_to 10752
  154.6255  135.2894  155.0280 H   0  0  0  0  0  0  0  0  0  0  0  0  # atno 10764 bound_to 10752
  154.1251  135.6601  153.4963 H   0  0  0  0  0  0  0  0  0  0  0  0  # atno 10765 bound_to 10752
  140.2488  134.3327  155.7898 H   0  0  0  0  0  0  0  0  0  0  0  0  # atno 11005 bound_to 11000
  144.7602  140.5404  143.6740 LP  0  0  0  0  0  0  0  0  0  0  0  0  # atno 17320 bound_to 7965
  145.5454  139.1476  143.3424 LP  0  0  0  0  0  0  0  0  0  0  0  0  # atno 17321 bound_to 7965
  139.4785  144.5340  151.8626 LP  0  0  0  0  0  0  0  0  0  0  0  0  # atno 17342 bound_to 10162
  140.4433  144.1957  150.5892 LP  0  0  0  0  0  0  0  0  0  0  0  0  # atno 17343 bound_to 10162
  156.6998  130.8928  151.3598 LP  0  0  0  0  0  0  0  0  0  0  0  0  # atno 17370 bound_to 10713
  157.6969  130.9291  150.0671 LP  0  0  0  0  0  0  0  0  0  0  0  0  # atno 17371 bound_to 10713
  141.2203  133.7341  156.9004 LP  0  0  0  0  0  0  0  0  0  0  0  0  # atno 17394 bound_to 11000
  140.1579  134.9186  157.2676 LP  0  0  0  0  0  0  0  0  0  0  0  0  # atno 17395 bound_to 11000

$$$$
