AV-unprocessed.smi:39|AV-procd|sdf|363|dock1
  -GOLD-   2262016203D 1   1.00000     0.00000
 Structure written by MMmdl.
 31 32  0  0  0  0  0  0  0  0  4 V2000
  151.1426  144.9909  159.3144 C   0  0  0  0  0  0  0  0  0  0  0  0
  151.5889  143.5870  158.9449 C   0  0  0  0  0  0  0  0  0  0  0  0
  151.1482  142.9599  157.8319 C   0  0  0  0  0  0  0  0  0  0  0  0
  151.5559  141.6789  157.4991 N   0  0  0  0  0  0  0  0  0  0  0  0
  151.0474  140.9905  156.2482 C   0  0  1  0  0  0  0  0  0  0  0  0
  150.1990  139.7706  156.6175 C   0  0  0  0  0  0  0  0  0  0  0  0
  148.8142  140.3795  156.6639 C   0  0  2  0  0  0  0  0  0  0  0  0
  147.7477  139.3797  156.5650 N   0  0  0  0  0  0  0  0  0  0  0  0
  146.9518  139.3337  157.5119 N   0  3  0  0  0  0  0  0  0  0  0  0
  146.2474  139.1719  158.3910 N   0  5  0  0  0  0  0  0  0  0  0  0
  148.8697  141.3979  155.5082 C   0  0  2  0  0  0  0  0  0  0  0  0
  148.6230  140.8186  154.0977 C   0  0  0  0  0  0  0  0  0  0  0  0
  149.7738  140.1309  153.6556 O   0  0  0  0  0  0  0  0  0  0  0  0
  150.2193  141.8693  155.5387 O   0  0  0  0  0  0  0  0  0  0  0  0
  152.4542  140.9867  158.3532 C   0  0  0  0  0  0  0  0  0  0  0  0
  152.7817  139.8412  158.0421 O   0  0  0  0  0  0  0  0  0  0  0  0
  152.9074  141.6129  159.4764 N   0  5  0  0  0  0  0  0  0  0  0  0
  152.5284  142.8770  159.8209 C   0  0  0  0  0  0  0  0  0  0  0  0
  152.9477  143.4316  160.8361 O   0  0  0  0  0  0  0  0  0  0  0  0
  151.9322  140.7564  155.6541 H   0  0  0  0  0  0  0  0  0  0  0  0
  148.7244  140.9258  157.6052 H   0  0  0  0  0  0  0  0  0  0  0  0
  148.1751  142.2163  155.7036 H   0  0  0  0  0  0  0  0  0  0  0  0
  150.4513  145.3950  158.5743 H   0  0  0  0  0  0  0  0  0  0  0  0
  152.0014  145.6601  159.3746 H   0  0  0  0  0  0  0  0  0  0  0  0
  150.6385  144.9880  160.2813 H   0  0  0  0  0  0  0  0  0  0  0  0
  150.4527  143.4816  157.1920 H   0  0  0  0  0  0  0  0  0  0  0  0
  150.2811  139.0330  155.8182 H   0  0  0  0  0  0  0  0  0  0  0  0
  150.5140  139.3114  157.5551 H   0  0  0  0  0  0  0  0  0  0  0  0
  147.7582  140.1548  154.0806 H   0  0  0  0  0  0  0  0  0  0  0  0
  148.4369  141.6080  153.3705 H   0  0  0  0  0  0  0  0  0  0  0  0
  149.6285  139.8420  152.7677 H   0  0  0  0  0  0  0  0  0  0  0  0
  1  2  1  0  0  0  0
  1 23  1  0  0  0  0
  1 24  1  0  0  0  0
  1 25  1  0  0  0  0
  2 18  1  0  0  0  0
  2  3  2  0  0  0  0
  3  4  1  0  0  0  0
  3 26  1  0  0  0  0
  4  5  1  0  0  0  0
  4 15  1  0  0  0  0
  5 20  1  0  0  0  0
  5 14  1  0  0  0  0
  5  6  1  0  0  0  0
  6  7  1  0  0  0  0
  6 27  1  0  0  0  0
  6 28  1  0  0  0  0
  7 21  1  0  0  0  0
  7  8  1  0  0  0  0
  7 11  1  0  0  0  0
  8  9  2  0  0  0  0
  9 10  2  0  0  0  0
 11 22  1  0  0  0  0
 11 12  1  0  0  0  0
 11 14  1  0  0  0  0
 12 13  1  0  0  0  0
 12 29  1  0  0  0  0
 12 30  1  0  0  0  0
 13 31  1  0  0  0  0
 15 16  2  0  0  0  0
 15 17  1  0  0  0  0
 17 18  1  0  0  0  0
 18 19  2  0  0  0  0
M  CHG  1   9   1
M  CHG  1  10  -1
M  CHG  1  17  -1
M  END
> <s_m_source_file>
AV-unprocessed.smi

> <i_m_source_file_index>
39

> <i_lp_mmshare_version>
43012

> <i_f3d_flags>
0

> <s_epik_input>
Tz1jMVtuSF1jKD1PKW4oW2NIXWMxW0NIM10pW0NASF0yW0NIMl1bQ0BIXShOPVtOK109W04tXSlbQ0BIXShPMilbQ0gyXVtPSF0=

> <s_epik_cmdline>
J2VwaWtfcHl0aG9uJywgJy1waCcsICc3LjAnLCAnLXRuJywgJzgnLCAnLW1hJywgJzIwMCcsICctbWV0YWxfYmluZGluZycsICctaW1hZScsICc8aW5maWxlLm1hZT4nLCAnLW9tYWUnLCAnPG91dGZpbGUubWFlPic=

> <r_lp_tautomer_probability>
0.999537

> <r_epik_Ionization_Penalty>
3.6393

> <r_epik_Ionization_Penalty_Charging>
9.76484e-08

> <r_epik_Ionization_Penalty_Neutral>
3.6393

> <r_epik_State_Penalty>
3.63887

> <r_epik_Charging_Adjusted_Penalty>
3.63887

> <i_epik_Tot_Q>
-1

> <i_epik_Tot_abs_Q>
3

> <r_epik_Metal_State_Penalty>
0.225911

> <b_epik_Metal_Only>
1

> <s_epik_Chemistry_Notes>
This compound contains an acetal/aminal-like group ( X-CH(R)-Y where X, Y are N, S, or O) that may be acid/base labile, releasing an aldehyde.

> <s_lp_Force_Field>
OPLS_2005

> <r_lp_Energy>
35.706

> <b_lp_Chiralities_Consistent>
1

> <s_lp_Variant>
AV-unprocessed.smi:39-13

> <Gold.Version>
5.8.1

> <Gold.Id.Protein>
6NUR|6NUR_protein|mol2

> <Gold.PLP.Fitness>
40.8351

> <Gold.PLP.PLP>
-30.1884

> <Gold.PLP.part.hbond>
-4.2015

> <Gold.PLP.part.metal>
0.0000

> <Gold.PLP.part.buried>
-3.0183

> <Gold.PLP.part.nonpolar>
-22.1995

> <Gold.PLP.part.repulsive>
0.1573

> <Gold.PLP.ligand.clash>
0.0000

> <Gold.PLP.ligand.torsion>
0.2025

> <Gold.PLP.Chemscore.Hbond>
2.6720

> <Gold.PLP.Chemscore.CHOScore>
1.0000

> <Gold.PLP.Chemscore.Metal>
0.0000

> <Gold.Chemscore.Hbonds>
donor molecule, donor type, donor heavy atom, donor atom, acceptor molecule, acceptor atom, score
      L1  H    13    31       P1  7957  1.00
      P1  H  7989  7998       L1    13  0.64
      P1  H  7997  8010       L1    16  0.91
      L1  C     3    26       P1  8028  1.00

> <Gold.PLP.Chemscore.Internal.Correction>
0.0356

> <Gold.Rescore>
     Score         DG    S(hbond)    S(metal)    S(lipo)     H(rot)  DE(clash)    DE(int)     intcor
      8.90     -11.35       2.12        0.00      49.20       2.72       0.06       2.40       ----

> <Gold.Chemscore.Fitness>
8.8995

> <Gold.Chemscore.DG>
-11.3527

> <Gold.Chemscore.ZeroCoef>
-5.4800

> <Gold.Chemscore.Hbond>
2.1161

> <Gold.Chemscore.Metal>
0.0000

> <Gold.Chemscore.Lipo>
49.1985

> <Gold.Chemscore.Internal_Hbond>
0.0000

> <Gold.Chemscore.DEClash>
0.0558

> <Gold.Chemscore.DEInternal>
2.3974

> <Gold.Chemscore.Rot>
2.7153

> <Gold.Chemscore.Internal.Correction>
   9.000000E+99

> <Gold.Chemscore.Hbonds>
donor molecule, donor type, donor heavy atom, donor atom, acceptor molecule, acceptor atom, score
      L1  H    13    31       P1  7957  0.97
      P1  H  7989  7998       L1    13  0.14
      P1  H  7997  8010       L1    16  0.43

> <Gold.Chemscore.Hbond.Weighted>
-7.0677

> <Gold.Chemscore.Metal.Weighted>
-0.0000

> <Gold.Chemscore.Lipo.Weighted>
-5.7562

> <Gold.Chemscore.Internal_Hbond.Weighted>
0.0000

> <Gold.Chemscore.DEClash.Weighted>
0.0558

> <Gold.Chemscore.DEInternal.Weighted>
2.3974

> <Gold.Chemscore.Rot.Weighted>
6.9512

> <Gold.Chemscore.Internal.Correction.Weighted>
   9.000000E+99

> <Gold.Protein.RotatedTorsions>
[ 6907 6896 6895 6894 ] final -107.25 input  -60.11 | X-H torsion
[ 7974 7965 7964 7962 ] final  166.74 input  175.53 | X-H torsion
[ 8008 7997 7996 7995 ] final   42.95 input   59.86 | X-H torsion
[ 10167 10162 10161 10158 ] final  119.56 input  -65.29 | X-H torsion
[ 10718 10713 10712 10709 ] final  -72.61 input   66.30 | X-H torsion
[ 10763 10752 10751 10750 ] final   74.50 input  -60.55 | X-H torsion
[ 11005 11000 10999 10996 ] final   58.42 input  -57.11 | X-H torsion

> <Gold.Protein.ActiveResidues>
 VAL166  LYS551  ARG553  GLY616  TRP617  ASP618  TYR619  PRO620  LYS621  CYS622 
 ASP623  PHE694  ASN695  SER759  ASP760  ASP761  ALA762  ILE779  LEU786  VAL792 
 PHE793  MET794  SER795  GLU796  ALA797  LYS798  CYS799  TRP800  GLU811  SER814 

> <Gold.Protein.RotatedAtoms>
  150.7433  133.9855  159.3589 H   0  0  0  0  0  0  0  0  0  0  0  0  # atno 6907 bound_to 6896
  151.7799  135.0762  160.0381 H   0  0  0  0  0  0  0  0  0  0  0  0  # atno 6908 bound_to 6896
  152.3281  133.5891  159.5827 H   0  0  0  0  0  0  0  0  0  0  0  0  # atno 6909 bound_to 6896
  144.7451  139.8659  143.6385 H   0  0  0  0  0  0  0  0  0  0  0  0  # atno 7974 bound_to 7965
  155.2947  140.3381  155.4250 H   0  0  0  0  0  0  0  0  0  0  0  0  # atno 8008 bound_to 7997
  156.2029  140.1740  156.7900 H   0  0  0  0  0  0  0  0  0  0  0  0  # atno 8009 bound_to 7997
  154.5583  140.0692  156.8763 H   0  0  0  0  0  0  0  0  0  0  0  0  # atno 8010 bound_to 7997
  139.6038  144.7064  151.3001 H   0  0  0  0  0  0  0  0  0  0  0  0  # atno 10167 bound_to 10162
  156.0313  130.4376  150.2618 H   0  0  0  0  0  0  0  0  0  0  0  0  # atno 10718 bound_to 10713
  153.0591  135.5023  154.8052 H   0  0  0  0  0  0  0  0  0  0  0  0  # atno 10763 bound_to 10752
  154.6854  135.2975  154.9556 H   0  0  0  0  0  0  0  0  0  0  0  0  # atno 10764 bound_to 10752
  154.0329  135.6727  153.4835 H   0  0  0  0  0  0  0  0  0  0  0  0  # atno 10765 bound_to 10752
  140.0379  134.5916  155.9420 H   0  0  0  0  0  0  0  0  0  0  0  0  # atno 11005 bound_to 11000
  146.1315  139.4351  143.0166 LP  0  0  0  0  0  0  0  0  0  0  0  0  # atno 17320 bound_to 7965
  145.7156  141.0092  143.1430 LP  0  0  0  0  0  0  0  0  0  0  0  0  # atno 17321 bound_to 7965
  140.7269  143.6976  150.7871 LP  0  0  0  0  0  0  0  0  0  0  0  0  # atno 17342 bound_to 10162
  140.0558  143.5204  152.2652 LP  0  0  0  0  0  0  0  0  0  0  0  0  # atno 17343 bound_to 10162
  157.0720  131.0119  151.3186 LP  0  0  0  0  0  0  0  0  0  0  0  0  # atno 17370 bound_to 10713
  157.4992  130.7869  149.7587 LP  0  0  0  0  0  0  0  0  0  0  0  0  # atno 17371 bound_to 10713
  141.1867  133.6558  156.5251 LP  0  0  0  0  0  0  0  0  0  0  0  0  # atno 17394 bound_to 11000
  140.4117  134.7266  157.4840 LP  0  0  0  0  0  0  0  0  0  0  0  0  # atno 17395 bound_to 11000

$$$$
