AV-unprocessed.smi:1830|AV-procd|sdf|7444|dock4
  -GOLD-   22720 9133D 1   1.00000     0.00000
 Structure written by MMmdl.
 54 57  0  0  0  0  0  0  0  0  3 V2000
  145.5704  137.4828  153.4116 O   0  0  0  0  0  0  0  0  0  0  0  0
  146.7322  137.0921  153.3024 C   0  0  0  0  0  0  0  0  0  0  0  0
  147.0628  135.8272  153.0117 N   0  0  0  0  0  0  0  0  0  0  0  0
  146.1014  134.7510  152.8030 C   0  0  0  0  0  0  0  0  0  0  0  0
  146.8141  133.4409  152.4383 C   0  0  2  0  0  0  0  0  0  0  0  0
  145.8110  132.3402  152.0178 C   0  0  0  0  0  0  0  0  0  0  0  0
  146.5612  131.0914  151.7940 N   0  3  2  0  0  0  0  0  0  0  0  0
  145.8180  129.8951  151.3627 C   0  0  0  0  0  0  0  0  0  0  0  0
  146.7024  128.7075  151.7931 C   0  0  0  0  0  0  0  0  0  0  0  0
  147.8449  129.3166  152.6270 C   0  0  0  0  0  0  0  0  0  0  0  0
  147.3080  130.6974  152.9905 C   0  0  1  0  0  0  0  0  0  0  0  0
  148.3150  131.8012  153.3380 C   0  0  0  0  0  0  0  0  0  0  0  0
  147.5762  133.0024  153.5700 O   0  0  0  0  0  0  0  0  0  0  0  0
  147.8228  137.8650  153.4374 N   0  0  0  0  0  0  0  0  0  0  0  0
  147.8732  139.2675  153.6787 C   0  0  0  0  0  0  0  0  0  0  0  0
  146.8357  140.1248  153.2296 C   0  0  0  0  0  0  0  0  0  0  0  0
  146.8729  141.4972  153.5397 C   0  0  0  0  0  0  0  0  0  0  0  0
  147.9391  141.9912  154.3097 C   0  0  0  0  0  0  0  0  0  0  0  0
  148.9034  141.1489  154.7342 N   0  3  0  0  0  0  0  0  0  0  0  0
  148.9322  139.8212  154.4563 C   0  0  0  0  0  0  0  0  0  0  0  0
  150.0148  139.0662  154.9632 N   0  0  0  0  0  0  0  0  0  0  0  0
  150.9457  139.6578  155.9173 C   0  0  0  0  0  0  0  0  0  0  0  0
  152.1331  138.7001  155.9571 C   0  0  0  0  0  0  0  0  0  0  0  0
  152.2068  138.2094  154.5144 C   0  0  0  0  0  0  0  0  0  0  0  0
  150.7414  138.1706  154.0684 C   0  0  0  0  0  0  0  0  0  0  0  0
  148.0409  135.5868  152.9436 H   0  0  0  0  0  0  0  0  0  0  0  0
  145.5053  134.6221  153.7074 H   0  0  0  0  0  0  0  0  0  0  0  0
  145.4121  135.0224  152.0014 H   0  0  0  0  0  0  0  0  0  0  0  0
  147.4995  133.6318  151.6101 H   0  0  0  0  0  0  0  0  0  0  0  0
  145.0565  132.1877  152.7914 H   0  0  0  0  0  0  0  0  0  0  0  0
  145.2891  132.6238  151.1030 H   0  0  0  0  0  0  0  0  0  0  0  0
  144.8544  129.8495  151.8729 H   0  0  0  0  0  0  0  0  0  0  0  0
  145.6342  129.9143  150.2883 H   0  0  0  0  0  0  0  0  0  0  0  0
  146.1205  128.0020  152.3873 H   0  0  0  0  0  0  0  0  0  0  0  0
  147.0953  128.1652  150.9325 H   0  0  0  0  0  0  0  0  0  0  0  0
  148.0961  128.7174  153.5028 H   0  0  0  0  0  0  0  0  0  0  0  0
  148.7424  129.4100  152.0137 H   0  0  0  0  0  0  0  0  0  0  0  0
  146.6051  130.5844  153.8195 H   0  0  0  0  0  0  0  0  0  0  0  0
  148.8720  131.5422  154.2385 H   0  0  0  0  0  0  0  0  0  0  0  0
  149.0400  131.9497  152.5359 H   0  0  0  0  0  0  0  0  0  0  0  0
  148.7087  137.4259  153.2336 H   0  0  0  0  0  0  0  0  0  0  0  0
  145.9948  139.7460  152.6686 H   0  0  0  0  0  0  0  0  0  0  0  0
  146.0875  142.1576  153.2022 H   0  0  0  0  0  0  0  0  0  0  0  0
  148.0475  143.0256  154.6024 H   0  0  0  0  0  0  0  0  0  0  0  0
  151.2771  140.6374  155.5696 H   0  0  0  0  0  0  0  0  0  0  0  0
  150.4887  139.7770  156.9000 H   0  0  0  0  0  0  0  0  0  0  0  0
  153.0537  139.1769  156.2952 H   0  0  0  0  0  0  0  0  0  0  0  0
  151.9177  137.8642  156.6245 H   0  0  0  0  0  0  0  0  0  0  0  0
  152.7557  138.9330  153.9101 H   0  0  0  0  0  0  0  0  0  0  0  0
  152.7050  137.2444  154.4174 H   0  0  0  0  0  0  0  0  0  0  0  0
  150.3447  137.1619  154.1851 H   0  0  0  0  0  0  0  0  0  0  0  0
  150.6373  138.4587  153.0215 H   0  0  0  0  0  0  0  0  0  0  0  0
  147.2471  131.2758  151.0758 H   0  0  0  0  0  0  0  0  0  0  0  0
  149.6626  141.5378  155.2936 H   0  0  0  0  0  0  0  0  0  0  0  0
  1  2  2  0  0  0  0
  2  3  1  0  0  0  0
  2 14  1  0  0  0  0
  3  4  1  0  0  0  0
  3 26  1  0  0  0  0
  4  5  1  0  0  0  0
  4 27  1  0  0  0  0
  4 28  1  0  0  0  0
  5 13  1  0  0  0  0
  5  6  1  0  0  0  0
  5 29  1  0  0  0  0
  6  7  1  0  0  0  0
  6 30  1  0  0  0  0
  6 31  1  0  0  0  0
  7 11  1  0  0  0  0
  7  8  1  0  0  0  0
  7 53  1  0  0  0  0
  8  9  1  0  0  0  0
  8 32  1  0  0  0  0
  8 33  1  0  0  0  0
  9 10  1  0  0  0  0
  9 34  1  0  0  0  0
  9 35  1  0  0  0  0
 10 11  1  0  0  0  0
 10 36  1  0  0  0  0
 10 37  1  0  0  0  0
 11 12  1  0  0  0  0
 11 38  1  0  0  0  0
 12 13  1  0  0  0  0
 12 39  1  0  0  0  0
 12 40  1  0  0  0  0
 14 15  1  0  0  0  0
 14 41  1  0  0  0  0
 15 20  1  0  0  0  0
 15 16  2  0  0  0  0
 16 17  1  0  0  0  0
 16 42  1  0  0  0  0
 17 18  2  0  0  0  0
 17 43  1  0  0  0  0
 18 19  1  0  0  0  0
 18 44  1  0  0  0  0
 19 20  2  0  0  0  0
 19 54  1  0  0  0  0
 20 21  1  0  0  0  0
 21 25  1  0  0  0  0
 21 22  1  0  0  0  0
 22 23  1  0  0  0  0
 22 45  1  0  0  0  0
 22 46  1  0  0  0  0
 23 24  1  0  0  0  0
 23 47  1  0  0  0  0
 23 48  1  0  0  0  0
 24 25  1  0  0  0  0
 24 49  1  0  0  0  0
 24 50  1  0  0  0  0
 25 51  1  0  0  0  0
 25 52  1  0  0  0  0
M  CHG  1   7   1
M  CHG  1  19   1
M  END
> <s_m_source_file>
AV-unprocessed.smi

> <i_m_source_file_index>
1830

> <i_lp_mmshare_version>
43012

> <i_f3d_flags>
0

> <s_epik_input>
W0NIMl0xW0NIMl1bQ0gyXVtDQEhdKE4xMilbQ0gyXU9bQ0BASF0oW0NIMl0yKVtDSDJdW05IXUMoPU8pW05IXWMzW2NIXVtjSF1bY0hdbmMzTjRbQ0gyXVtDSDJdW0NIMl1bQ0gyXTQ=

> <s_epik_cmdline>
J2VwaWtfcHl0aG9uJywgJy1waCcsICc3LjAnLCAnLXRuJywgJzgnLCAnLW1hJywgJzIwMCcsICctbWV0YWxfYmluZGluZycsICctaW1hZScsICc8aW5maWxlLm1hZT4nLCAnLW9tYWUnLCAnPG91dGZpbGUubWFlPic=

> <r_lp_tautomer_probability>
0.999994

> <r_epik_Ionization_Penalty>
1.29113

> <r_epik_Ionization_Penalty_Charging>
1.29111

> <r_epik_Ionization_Penalty_Neutral>
1.88144e-05

> <r_epik_State_Penalty>
1.32676

> <r_epik_Charging_Adjusted_Penalty>
2.61787

> <i_epik_Tot_Q>
2

> <i_epik_Tot_abs_Q>
2

> <r_epik_Metal_State_Penalty>
1.40425

> <b_epik_Metal_Only>
0

> <s_lp_Force_Field>
OPLS_2005

> <r_lp_Energy>
74.3766

> <b_lp_Chiralities_Consistent>
1

> <s_lp_Variant>
AV-unprocessed.smi:1830-13

> <Gold.Version>
5.8.1

> <Gold.Id.Protein>
6NUR|6NUR_protein|mol2

> <Gold.PLP.Fitness>
44.9836

> <Gold.PLP.PLP>
-39.6385

> <Gold.PLP.part.hbond>
-2.2051

> <Gold.PLP.part.metal>
0.0000

> <Gold.PLP.part.buried>
-2.2810

> <Gold.PLP.part.nonpolar>
-35.5180

> <Gold.PLP.part.repulsive>
0.5482

> <Gold.PLP.ligand.clash>
0.0000

> <Gold.PLP.ligand.torsion>
0.4238

> <Gold.PLP.Chemscore.Hbond>
1.9280

> <Gold.PLP.Chemscore.CHOScore>
0.0000

> <Gold.PLP.Chemscore.Metal>
0.0000

> <Gold.Chemscore.Hbonds>
donor molecule, donor type, donor heavy atom, donor atom, acceptor molecule, acceptor atom, score
      L1  H     3    26       P1  7948  0.43
      L1  H     7    53       P1 10747  0.98
      L1  H    14    41       P1  7948  0.48

> <Gold.PLP.Chemscore.Internal.Correction>
0.4086

> <Gold.Rescore>
     Score         DG    S(hbond)    S(metal)    S(lipo)     H(rot)  DE(clash)    DE(int)     intcor
     18.22     -21.51       1.99        0.00     111.39       1.43       1.52       1.76       ----

> <Gold.Chemscore.Fitness>
18.2249

> <Gold.Chemscore.DG>
-21.5111

> <Gold.Chemscore.ZeroCoef>
-5.4800

> <Gold.Chemscore.Hbond>
1.9919

> <Gold.Chemscore.Metal>
0.0000

> <Gold.Chemscore.Lipo>
111.3941

> <Gold.Chemscore.Internal_Hbond>
0.0000

> <Gold.Chemscore.DEClash>
1.5223

> <Gold.Chemscore.DEInternal>
1.7638

> <Gold.Chemscore.Rot>
1.4278

> <Gold.Chemscore.Internal.Correction>
   9.000000E+99

> <Gold.Chemscore.Hbonds>
donor molecule, donor type, donor heavy atom, donor atom, acceptor molecule, acceptor atom, score
      L1  H     3    26       P1  7948  0.42
      L1  H     7    53       P1 10747  0.92
      L1  H    14    41       P1  7948  0.48

> <Gold.Chemscore.Hbond.Weighted>
-6.6530

> <Gold.Chemscore.Metal.Weighted>
-0.0000

> <Gold.Chemscore.Lipo.Weighted>
-13.0331

> <Gold.Chemscore.Internal_Hbond.Weighted>
0.0000

> <Gold.Chemscore.DEClash.Weighted>
1.5223

> <Gold.Chemscore.DEInternal.Weighted>
1.7638

> <Gold.Chemscore.Rot.Weighted>
3.6551

> <Gold.Chemscore.Internal.Correction.Weighted>
   9.000000E+99

> <Gold.Protein.RotatedTorsions>
[ 6907 6896 6895 6894 ] final   -4.48 input  -60.11 | X-H torsion
[ 7974 7965 7964 7962 ] final  -91.74 input  175.53 | X-H torsion
[ 8008 7997 7996 7995 ] final -129.79 input   59.86 | X-H torsion
[ 10167 10162 10161 10158 ] final -112.26 input  -65.29 | X-H torsion
[ 10718 10713 10712 10709 ] final -171.85 input   66.30 | X-H torsion
[ 10763 10752 10751 10750 ] final   13.06 input  -60.55 | X-H torsion
[ 11005 11000 10999 10996 ] final  117.92 input  -57.11 | X-H torsion

> <Gold.Protein.ActiveResidues>
 VAL166  LYS551  ARG553  GLY616  TRP617  ASP618  TYR619  PRO620  LYS621  CYS622 
 ASP623  PHE694  ASN695  SER759  ASP760  ASP761  ALA762  ILE779  LEU786  VAL792 
 PHE793  MET794  SER795  GLU796  ALA797  LYS798  CYS799  TRP800  GLU811  SER814 

> <Gold.Protein.RotatedAtoms>
  151.4971  135.1060  159.9818 H   0  0  0  0  0  0  0  0  0  0  0  0  # atno 6907 bound_to 6896
  152.4717  133.8041  159.6979 H   0  0  0  0  0  0  0  0  0  0  0  0  # atno 6908 bound_to 6896
  150.8730  133.7415  159.2981 H   0  0  0  0  0  0  0  0  0  0  0  0  # atno 6909 bound_to 6896
  145.4091  140.9543  143.2244 H   0  0  0  0  0  0  0  0  0  0  0  0  # atno 7974 bound_to 7965
  155.2850  140.0446  157.3018 H   0  0  0  0  0  0  0  0  0  0  0  0  # atno 8008 bound_to 7997
  154.5575  140.2336  155.8356 H   0  0  0  0  0  0  0  0  0  0  0  0  # atno 8009 bound_to 7997
  156.2019  140.3023  155.9552 H   0  0  0  0  0  0  0  0  0  0  0  0  # atno 8010 bound_to 7997
  140.1246  143.4413  152.1668 H   0  0  0  0  0  0  0  0  0  0  0  0  # atno 10167 bound_to 10162
  156.7469  130.9363  151.3113 H   0  0  0  0  0  0  0  0  0  0  0  0  # atno 10718 bound_to 10713
  153.1759  135.6820  153.8544 H   0  0  0  0  0  0  0  0  0  0  0  0  # atno 10763 bound_to 10752
  153.7892  135.3171  155.3377 H   0  0  0  0  0  0  0  0  0  0  0  0  # atno 10764 bound_to 10752
  154.8028  135.4767  154.0412 H   0  0  0  0  0  0  0  0  0  0  0  0  # atno 10765 bound_to 10752
  139.9091  134.9615  156.7424 H   0  0  0  0  0  0  0  0  0  0  0  0  # atno 11005 bound_to 11000
  144.8321  139.5611  143.6939 LP  0  0  0  0  0  0  0  0  0  0  0  0  # atno 17320 bound_to 7965
  146.2714  139.6644  142.9293 LP  0  0  0  0  0  0  0  0  0  0  0  0  # atno 17321 bound_to 7965
  139.5551  144.7366  151.4319 LP  0  0  0  0  0  0  0  0  0  0  0  0  # atno 17342 bound_to 10162
  140.6852  143.7990  150.7176 LP  0  0  0  0  0  0  0  0  0  0  0  0  # atno 17343 bound_to 10162
  157.6794  130.9125  150.0229 LP  0  0  0  0  0  0  0  0  0  0  0  0  # atno 17370 bound_to 10713
  156.1427  130.3642  149.9558 LP  0  0  0  0  0  0  0  0  0  0  0  0  # atno 17371 bound_to 10713
  140.6839  133.9450  155.7926 LP  0  0  0  0  0  0  0  0  0  0  0  0  # atno 17394 bound_to 11000
  141.0490  134.0512  157.3807 LP  0  0  0  0  0  0  0  0  0  0  0  0  # atno 17395 bound_to 11000

$$$$
