AV-unprocessed.smi:1123|AV-procd|sdf|4831|dock10
  -GOLD-   22720 3393D 1   1.00000     0.00000
 Structure written by MMmdl.
 38 39  0  0  0  0  0  0  0  0  2 V2000
  147.1699  133.0454  152.5759 C   0  0  0  0  0  0  0  0  0  0  0  0
  146.3498  133.9107  151.5973 C   0  0  2  0  0  0  0  0  0  0  0  0
  145.6294  135.0833  152.2868 C   0  0  0  0  0  0  0  0  0  0  0  0
  144.5934  134.8998  152.9274 O   0  0  0  0  0  0  0  0  0  0  0  0
  146.2009  136.2924  152.1628 N   0  0  0  0  0  0  0  0  0  0  0  0
  145.6856  137.5245  152.7479 C   0  0  0  0  0  0  0  0  0  0  0  0
  146.7282  138.6565  152.6744 C   0  0  0  0  0  0  0  0  0  0  0  0
  146.2935  139.8854  153.3847 N   0  3  0  0  0  0  0  0  0  0  0  0
  146.1637  139.6701  154.8462 C   0  0  0  0  0  0  0  0  0  0  0  0
  145.6639  140.9484  155.5399 C   0  0  0  0  0  0  0  0  0  0  0  0
  146.5554  142.0196  155.2590 O   0  0  0  0  0  0  0  0  0  0  0  0
  146.6235  142.3011  153.8669 C   0  0  0  0  0  0  0  0  0  0  0  0
  147.1482  141.0678  153.1109 C   0  0  0  0  0  0  0  0  0  0  0  0
  145.4117  133.1048  150.8246 N   0  0  0  0  0  0  0  0  0  0  0  0
  145.6332  132.0582  150.0264 C   0  0  0  0  0  0  0  0  0  0  0  0
  144.5395  131.5786  149.4515 N   0  0  0  0  0  0  0  0  0  0  0  0
  143.6131  132.4383  149.9700 C   0  0  0  0  0  0  0  0  0  0  0  0
  144.0831  133.3767  150.7916 N   0  0  0  0  0  0  0  0  0  0  0  0
  147.9185  133.6417  153.0984 H   0  0  0  0  0  0  0  0  0  0  0  0
  147.6987  132.2539  152.0441 H   0  0  0  0  0  0  0  0  0  0  0  0
  146.5389  132.5716  153.3290 H   0  0  0  0  0  0  0  0  0  0  0  0
  147.0529  134.3505  150.8882 H   0  0  0  0  0  0  0  0  0  0  0  0
  147.0492  136.3633  151.6193 H   0  0  0  0  0  0  0  0  0  0  0  0
  144.7844  137.7890  152.1964 H   0  0  0  0  0  0  0  0  0  0  0  0
  145.3790  137.3505  153.7809 H   0  0  0  0  0  0  0  0  0  0  0  0
  147.6543  138.3021  153.1297 H   0  0  0  0  0  0  0  0  0  0  0  0
  146.9661  138.8939  151.6362 H   0  0  0  0  0  0  0  0  0  0  0  0
  145.4678  138.8533  155.0414 H   0  0  0  0  0  0  0  0  0  0  0  0
  147.1294  139.3748  155.2597 H   0  0  0  0  0  0  0  0  0  0  0  0
  144.6542  141.2020  155.2129 H   0  0  0  0  0  0  0  0  0  0  0  0
  145.6208  140.7981  156.6188 H   0  0  0  0  0  0  0  0  0  0  0  0
  145.6412  142.5970  153.4949 H   0  0  0  0  0  0  0  0  0  0  0  0
  147.2914  143.1485  153.7111 H   0  0  0  0  0  0  0  0  0  0  0  0
  148.1751  140.8559  153.4132 H   0  0  0  0  0  0  0  0  0  0  0  0
  147.1672  141.2876  152.0444 H   0  0  0  0  0  0  0  0  0  0  0  0
  146.6151  131.6394  149.8610 H   0  0  0  0  0  0  0  0  0  0  0  0
  142.5618  132.3734  149.7312 H   0  0  0  0  0  0  0  0  0  0  0  0
  145.3666  140.1033  153.0474 H   0  0  0  0  0  0  0  0  0  0  0  0
  1  2  1  0  0  0  0
  1 19  1  0  0  0  0
  1 20  1  0  0  0  0
  1 21  1  0  0  0  0
  2  3  1  0  0  0  0
  2 14  1  0  0  0  0
  2 22  1  0  0  0  0
  3  4  2  0  0  0  0
  3  5  1  0  0  0  0
  5  6  1  0  0  0  0
  5 23  1  0  0  0  0
  6  7  1  0  0  0  0
  6 24  1  0  0  0  0
  6 25  1  0  0  0  0
  7  8  1  0  0  0  0
  7 26  1  0  0  0  0
  7 27  1  0  0  0  0
  8 13  1  0  0  0  0
  8  9  1  0  0  0  0
  8 38  1  0  0  0  0
  9 10  1  0  0  0  0
  9 28  1  0  0  0  0
  9 29  1  0  0  0  0
 10 11  1  0  0  0  0
 10 30  1  0  0  0  0
 10 31  1  0  0  0  0
 11 12  1  0  0  0  0
 12 13  1  0  0  0  0
 12 32  1  0  0  0  0
 12 33  1  0  0  0  0
 13 34  1  0  0  0  0
 13 35  1  0  0  0  0
 14 18  1  0  0  0  0
 14 15  1  0  0  0  0
 15 16  2  0  0  0  0
 15 36  1  0  0  0  0
 16 17  1  0  0  0  0
 17 18  2  0  0  0  0
 17 37  1  0  0  0  0
M  CHG  1   8   1
M  END
> <s_m_source_file>
AV-unprocessed.smi

> <i_m_source_file_index>
1123

> <i_lp_mmshare_version>
43012

> <i_f3d_flags>
0

> <s_epik_input>
bjFbY0hdbltjSF1uMVtDQEhdKFtDSDNdKUMoPU8pW05IXVtDSDJdW0NIMl1OMltDSDJdW0NIMl1PW0NIMl1bQ0gyXTI=

> <s_epik_cmdline>
J2VwaWtfcHl0aG9uJywgJy1waCcsICc3LjAnLCAnLXRuJywgJzgnLCAnLW1hJywgJzIwMCcsICctbWV0YWxfYmluZGluZycsICctaW1hZScsICc8aW5maWxlLm1hZT4nLCAnLW9tYWUnLCAnPG91dGZpbGUubWFlPic=

> <r_lp_tautomer_probability>
1

> <r_epik_Ionization_Penalty>
0.71326

> <r_epik_Ionization_Penalty_Charging>
0.713252

> <r_epik_Ionization_Penalty_Neutral>
7.98515e-06

> <r_epik_State_Penalty>
0.737017

> <r_epik_Charging_Adjusted_Penalty>
1.45027

> <i_epik_Tot_Q>
1

> <i_epik_Tot_abs_Q>
1

> <r_epik_Metal_State_Penalty>
0.73702

> <b_epik_Metal_Only>
0

> <s_lp_Force_Field>
OPLS_2005

> <r_lp_Energy>
21.5068

> <b_lp_Chiralities_Consistent>
1

> <s_lp_Variant>
AV-unprocessed.smi:1123-3

> <Gold.Version>
5.8.1

> <Gold.Id.Protein>
6NUR|6NUR_protein|mol2

> <Gold.PLP.Fitness>
44.6779

> <Gold.PLP.PLP>
-28.5077

> <Gold.PLP.part.hbond>
-3.0000

> <Gold.PLP.part.metal>
0.0000

> <Gold.PLP.part.buried>
-5.5089

> <Gold.PLP.part.nonpolar>
-21.9766

> <Gold.PLP.part.repulsive>
0.5528

> <Gold.PLP.ligand.clash>
0.0000

> <Gold.PLP.ligand.torsion>
0.5165

> <Gold.PLP.Chemscore.Hbond>
3.1951

> <Gold.PLP.Chemscore.CHOScore>
2.4954

> <Gold.PLP.Chemscore.Metal>
0.0000

> <Gold.Chemscore.Hbonds>
donor molecule, donor type, donor heavy atom, donor atom, acceptor molecule, acceptor atom, score
      L1  H     5    23       P1  7948  0.82
      L1  H     8    38       P1 10175  2.00
      P1  H 10785 10796       L1    16  0.33
      L1  C    15    36       P1 10747  1.00
      L1  C    17    37       P1 10186  0.80
      L1  C    17    37       P1 10952  0.66

> <Gold.PLP.Chemscore.Internal.Correction>
0.1317

> <Gold.Rescore>
     Score         DG    S(hbond)    S(metal)    S(lipo)     H(rot)  DE(clash)    DE(int)     intcor
      8.84     -11.16       2.41        0.00      38.78       2.69       0.28       2.04       ----

> <Gold.Chemscore.Fitness>
8.8403

> <Gold.Chemscore.DG>
-11.1641

> <Gold.Chemscore.ZeroCoef>
-5.4800

> <Gold.Chemscore.Hbond>
2.4063

> <Gold.Chemscore.Metal>
0.0000

> <Gold.Chemscore.Lipo>
38.7823

> <Gold.Chemscore.Internal_Hbond>
0.0000

> <Gold.Chemscore.DEClash>
0.2836

> <Gold.Chemscore.DEInternal>
2.0402

> <Gold.Chemscore.Rot>
2.6916

> <Gold.Chemscore.Internal.Correction>
   9.000000E+99

> <Gold.Chemscore.Hbonds>
donor molecule, donor type, donor heavy atom, donor atom, acceptor molecule, acceptor atom, score
      L1  H     5    23       P1  7948  0.81
      L1  H     8    38       P1 10175  1.00
      P1  H 10785 10796       L1    16  0.06

> <Gold.Chemscore.Hbond.Weighted>
-8.0372

> <Gold.Chemscore.Metal.Weighted>
-0.0000

> <Gold.Chemscore.Lipo.Weighted>
-4.5375

> <Gold.Chemscore.Internal_Hbond.Weighted>
0.0000

> <Gold.Chemscore.DEClash.Weighted>
0.2836

> <Gold.Chemscore.DEInternal.Weighted>
2.0402

> <Gold.Chemscore.Rot.Weighted>
6.8906

> <Gold.Chemscore.Internal.Correction.Weighted>
   9.000000E+99

> <Gold.Protein.RotatedTorsions>
[ 6907 6896 6895 6894 ] final  -65.97 input  -60.11 | X-H torsion
[ 7974 7965 7964 7962 ] final -176.57 input  175.53 | X-H torsion
[ 8008 7997 7996 7995 ] final  -93.74 input   59.86 | X-H torsion
[ 10167 10162 10161 10158 ] final  -58.08 input  -65.29 | X-H torsion
[ 10718 10713 10712 10709 ] final -160.07 input   66.30 | X-H torsion
[ 10763 10752 10751 10750 ] final  -87.89 input  -60.55 | X-H torsion
[ 11005 11000 10999 10996 ] final   85.98 input  -57.11 | X-H torsion

> <Gold.Protein.ActiveResidues>
 VAL166  LYS551  ARG553  GLY616  TRP617  ASP618  TYR619  PRO620  LYS621  CYS622 
 ASP623  PHE694  ASN695  SER759  ASP760  ASP761  ALA762  ILE779  LEU786  VAL792 
 PHE793  MET794  SER795  GLU796  ALA797  LYS798  CYS799  TRP800  GLU811  SER814 

> <Gold.Protein.RotatedAtoms>
  150.7492  134.6086  159.6073 H   0  0  0  0  0  0  0  0  0  0  0  0  # atno 6907 bound_to 6896
  152.3427  134.7110  160.0268 H   0  0  0  0  0  0  0  0  0  0  0  0  # atno 6908 bound_to 6896
  151.7557  133.3294  159.3440 H   0  0  0  0  0  0  0  0  0  0  0  0  # atno 6909 bound_to 6896
  144.7127  140.1150  143.6409 H   0  0  0  0  0  0  0  0  0  0  0  0  # atno 7974 bound_to 7965
  154.7395  140.0496  157.0798 H   0  0  0  0  0  0  0  0  0  0  0  0  # atno 8008 bound_to 7997
  155.0197  140.3145  155.4779 H   0  0  0  0  0  0  0  0  0  0  0  0  # atno 8009 bound_to 7997
  156.2861  140.2169  156.5315 H   0  0  0  0  0  0  0  0  0  0  0  0  # atno 8010 bound_to 7997
  140.6219  143.2423  151.5459 H   0  0  0  0  0  0  0  0  0  0  0  0  # atno 10167 bound_to 10162
  156.5770  130.8713  151.2854 H   0  0  0  0  0  0  0  0  0  0  0  0  # atno 10718 bound_to 10713
  154.6385  135.5397  153.7762 H   0  0  0  0  0  0  0  0  0  0  0  0  # atno 10763 bound_to 10752
  153.0321  135.6453  154.1195 H   0  0  0  0  0  0  0  0  0  0  0  0  # atno 10764 bound_to 10752
  154.1120  135.2926  155.3208 H   0  0  0  0  0  0  0  0  0  0  0  0  # atno 10765 bound_to 10752
  139.8957  134.8324  156.2657 H   0  0  0  0  0  0  0  0  0  0  0  0  # atno 11005 bound_to 11000
  145.9421  139.2676  143.1262 LP  0  0  0  0  0  0  0  0  0  0  0  0  # atno 17320 bound_to 7965
  145.9413  140.8978  143.0306 LP  0  0  0  0  0  0  0  0  0  0  0  0  # atno 17321 bound_to 7965
  139.5446  144.2556  152.1417 LP  0  0  0  0  0  0  0  0  0  0  0  0  # atno 17342 bound_to 10162
  140.1778  144.4874  150.6545 LP  0  0  0  0  0  0  0  0  0  0  0  0  # atno 17343 bound_to 10162
  157.7335  130.9732  150.1982 LP  0  0  0  0  0  0  0  0  0  0  0  0  # atno 17370 bound_to 10713
  156.2665  130.3717  149.8076 LP  0  0  0  0  0  0  0  0  0  0  0  0  # atno 17371 bound_to 10713
  141.0133  133.7083  156.1148 LP  0  0  0  0  0  0  0  0  0  0  0  0  # atno 17394 bound_to 11000
  140.7336  134.4227  157.5563 LP  0  0  0  0  0  0  0  0  0  0  0  0  # atno 17395 bound_to 11000

$$$$
