AV-unprocessed.smi:3263|AV-procd|sdf|12490|dock8
  -GOLD-   2272018393D 1   1.00000     0.00000
 Structure written by MMmdl.
 42 44  0  0  0  0  0  0  0  0  2 V2000
  150.1014  140.4042  156.3758 O   0  0  0  0  0  0  0  0  0  0  0  0
  149.9688  141.6021  156.1241 C   0  0  0  0  0  0  0  0  0  0  0  0
  150.9988  142.6155  156.6297 C   0  0  0  0  0  0  0  0  0  0  0  0
  151.1124  142.6390  158.1705 C   0  0  2  0  0  0  0  0  0  0  0  0
  150.1226  143.6020  158.8606 C   0  0  0  0  0  0  0  0  0  0  0  0
  151.0300  144.4088  159.8091 C   0  0  2  0  0  0  0  0  0  0  0  0
  151.8662  145.4029  158.9826 C   0  0  0  0  0  0  0  0  0  0  0  0
  152.8822  144.4855  158.2780 C   0  0  0  0  0  0  0  0  0  0  0  0
  152.4726  143.0813  158.7685 C   0  0  1  0  0  0  0  0  0  0  0  0
  152.0770  143.3762  160.2115 C   0  0  0  0  0  0  0  0  0  0  0  0
  148.9547  142.0931  155.3955 N   0  0  0  0  0  0  0  0  0  0  0  0
  147.9168  141.2870  154.7655 C   0  0  0  0  0  0  0  0  0  0  0  0
  146.8642  142.1718  154.0763 C   0  0  0  0  0  0  0  0  0  0  0  0
  145.6924  142.4839  154.9856 C   0  0  0  0  0  0  0  0  0  0  0  0
  145.8297  143.2741  156.1475 C   0  0  0  0  0  0  0  0  0  0  0  0
  144.6959  143.5214  156.9493 C   0  0  0  0  0  0  0  0  0  0  0  0
  143.4514  142.9741  156.5735 C   0  0  0  0  0  0  0  0  0  0  0  0
  143.3720  142.1916  155.4035 C   0  0  0  0  0  0  0  0  0  0  0  0
  144.4805  141.9774  154.6614 N   0  3  0  0  0  0  0  0  0  0  0  0
  151.9707  142.4146  156.1774 H   0  0  0  0  0  0  0  0  0  0  0  0
  150.7038  143.6032  156.2740 H   0  0  0  0  0  0  0  0  0  0  0  0
  150.9028  141.6310  158.5340 H   0  0  0  0  0  0  0  0  0  0  0  0
  149.5955  144.2482  158.1573 H   0  0  0  0  0  0  0  0  0  0  0  0
  149.3716  143.0423  159.4192 H   0  0  0  0  0  0  0  0  0  0  0  0
  150.4942  144.8720  160.6381 H   0  0  0  0  0  0  0  0  0  0  0  0
  151.2576  145.9696  158.2770 H   0  0  0  0  0  0  0  0  0  0  0  0
  152.3780  146.1156  159.6306 H   0  0  0  0  0  0  0  0  0  0  0  0
  152.8636  144.5880  157.1937 H   0  0  0  0  0  0  0  0  0  0  0  0
  153.8950  144.7221  158.6070 H   0  0  0  0  0  0  0  0  0  0  0  0
  153.2613  142.3357  158.6620 H   0  0  0  0  0  0  0  0  0  0  0  0
  152.8900  143.7936  160.8081 H   0  0  0  0  0  0  0  0  0  0  0  0
  151.6575  142.5138  160.7328 H   0  0  0  0  0  0  0  0  0  0  0  0
  148.9184  143.0908  155.2429 H   0  0  0  0  0  0  0  0  0  0  0  0
  148.3670  140.5948  154.0518 H   0  0  0  0  0  0  0  0  0  0  0  0
  147.4437  140.6761  155.5350 H   0  0  0  0  0  0  0  0  0  0  0  0
  147.3214  143.1056  153.7460 H   0  0  0  0  0  0  0  0  0  0  0  0
  146.4843  141.6832  153.1780 H   0  0  0  0  0  0  0  0  0  0  0  0
  146.7899  143.6858  156.4229 H   0  0  0  0  0  0  0  0  0  0  0  0
  144.7798  144.1238  157.8420 H   0  0  0  0  0  0  0  0  0  0  0  0
  142.5711  143.1518  157.1738 H   0  0  0  0  0  0  0  0  0  0  0  0
  142.4629  141.7340  155.0413 H   0  0  0  0  0  0  0  0  0  0  0  0
  144.4004  141.4076  153.8185 H   0  0  0  0  0  0  0  0  0  0  0  0
  1  2  2  0  0  0  0
  2  3  1  0  0  0  0
  2 11  1  0  0  0  0
  3  4  1  0  0  0  0
  3 20  1  0  0  0  0
  3 21  1  0  0  0  0
  4  9  1  0  0  0  0
  4  5  1  0  0  0  0
  4 22  1  0  0  0  0
  5  6  1  0  0  0  0
  5 23  1  0  0  0  0
  5 24  1  0  0  0  0
  6 10  1  0  0  0  0
  6  7  1  0  0  0  0
  6 25  1  0  0  0  0
  7  8  1  0  0  0  0
  7 26  1  0  0  0  0
  7 27  1  0  0  0  0
  8  9  1  0  0  0  0
  8 28  1  0  0  0  0
  8 29  1  0  0  0  0
  9 10  1  0  0  0  0
  9 30  1  0  0  0  0
 10 31  1  0  0  0  0
 10 32  1  0  0  0  0
 11 12  1  0  0  0  0
 11 33  1  0  0  0  0
 12 13  1  0  0  0  0
 12 34  1  0  0  0  0
 12 35  1  0  0  0  0
 13 14  1  0  0  0  0
 13 36  1  0  0  0  0
 13 37  1  0  0  0  0
 14 19  1  0  0  0  0
 14 15  2  0  0  0  0
 15 16  1  0  0  0  0
 15 38  1  0  0  0  0
 16 17  2  0  0  0  0
 16 39  1  0  0  0  0
 17 18  1  0  0  0  0
 17 40  1  0  0  0  0
 18 19  2  0  0  0  0
 18 41  1  0  0  0  0
 19 42  1  0  0  0  0
M  CHG  1  19   1
M  END
> <s_m_source_file>
AV-unprocessed.smi

> <i_m_source_file_index>
3263

> <i_lp_mmshare_version>
43012

> <i_f3d_flags>
0

> <s_epik_input>
W0NIMl0xW0NIMl1bQ0BASF0oW0NIMl0yKVtDQEBIXShbQ0gyXVtDQEhdMTIpW0NIMl1DKD1PKVtOSF1bQ0gyXVtDSDJdYzNbY0hdW2NIXVtjSF1bY0hdbjM=

> <s_epik_cmdline>
J2VwaWtfcHl0aG9uJywgJy1waCcsICc3LjAnLCAnLXRuJywgJzgnLCAnLW1hJywgJzIwMCcsICctbWV0YWxfYmluZGluZycsICctaW1hZScsICc8aW5maWxlLm1hZT4nLCAnLW9tYWUnLCAnPG91dGZpbGUubWFlPic=

> <r_epik_Ionization_Penalty>
1.83579

> <r_epik_Ionization_Penalty_Charging>
1.83579

> <r_epik_Ionization_Penalty_Neutral>
2.47288e-08

> <r_epik_State_Penalty>
1.95213

> <r_epik_Charging_Adjusted_Penalty>
3.78793

> <i_epik_Tot_Q>
1

> <i_epik_Tot_abs_Q>
1

> <r_epik_Metal_State_Penalty>
1.97847

> <b_epik_Metal_Only>
0

> <s_lp_Force_Field>
OPLS_2005

> <r_lp_Energy>
51.925

> <b_lp_Chiralities_Consistent>
1

> <s_lp_Variant>
AV-unprocessed.smi:3263-5

> <Gold.Version>
5.8.1

> <Gold.Id.Protein>
6NUR|6NUR_protein|mol2

> <Gold.PLP.Fitness>
47.6248

> <Gold.PLP.PLP>
-39.7647

> <Gold.PLP.part.hbond>
-2.2447

> <Gold.PLP.part.metal>
0.0000

> <Gold.PLP.part.buried>
-5.4416

> <Gold.PLP.part.nonpolar>
-33.2601

> <Gold.PLP.part.repulsive>
0.1775

> <Gold.PLP.ligand.clash>
0.0000

> <Gold.PLP.ligand.torsion>
0.5879

> <Gold.PLP.Chemscore.Hbond>
3.0000

> <Gold.PLP.Chemscore.CHOScore>
0.0000

> <Gold.PLP.Chemscore.Metal>
0.0000

> <Gold.Chemscore.Hbonds>
donor molecule, donor type, donor heavy atom, donor atom, acceptor molecule, acceptor atom, score
      L1  H    11    33       P1  8028  1.00
      L1  H    19    42       P1 10175  1.90

> <Gold.PLP.Chemscore.Internal.Correction>
0.0359

> <Gold.Rescore>
     Score         DG    S(hbond)    S(metal)    S(lipo)     H(rot)  DE(clash)    DE(int)     intcor
     20.05     -20.88       1.91        0.00     111.47       1.56       0.12       0.71       ----

> <Gold.Chemscore.Fitness>
20.0513

> <Gold.Chemscore.DG>
-20.8845

> <Gold.Chemscore.ZeroCoef>
-5.4800

> <Gold.Chemscore.Hbond>
1.9062

> <Gold.Chemscore.Metal>
0.0000

> <Gold.Chemscore.Lipo>
111.4669

> <Gold.Chemscore.Internal_Hbond>
0.0000

> <Gold.Chemscore.DEClash>
0.1218

> <Gold.Chemscore.DEInternal>
0.7114

> <Gold.Chemscore.Rot>
1.5640

> <Gold.Chemscore.Internal.Correction>
   9.000000E+99

> <Gold.Chemscore.Hbonds>
donor molecule, donor type, donor heavy atom, donor atom, acceptor molecule, acceptor atom, score
      L1  H    11    33       P1  8028  0.99
      L1  H    19    42       P1 10175  0.21

> <Gold.Chemscore.Hbond.Weighted>
-6.3667

> <Gold.Chemscore.Metal.Weighted>
-0.0000

> <Gold.Chemscore.Lipo.Weighted>
-13.0416

> <Gold.Chemscore.Internal_Hbond.Weighted>
0.0000

> <Gold.Chemscore.DEClash.Weighted>
0.1218

> <Gold.Chemscore.DEInternal.Weighted>
0.7114

> <Gold.Chemscore.Rot.Weighted>
4.0038

> <Gold.Chemscore.Internal.Correction.Weighted>
   9.000000E+99

> <Gold.Protein.RotatedTorsions>
[ 6907 6896 6895 6894 ] final -128.68 input  -60.11 | X-H torsion
[ 7974 7965 7964 7962 ] final  174.95 input  175.53 | X-H torsion
[ 8008 7997 7996 7995 ] final -170.73 input   59.86 | X-H torsion
[ 10167 10162 10161 10158 ] final  -58.22 input  -65.29 | X-H torsion
[ 10718 10713 10712 10709 ] final -114.66 input   66.30 | X-H torsion
[ 10763 10752 10751 10750 ] final   90.67 input  -60.55 | X-H torsion
[ 11005 11000 10999 10996 ] final  -50.89 input  -57.11 | X-H torsion

> <Gold.Protein.ActiveResidues>
 VAL166  LYS551  ARG553  GLY616  TRP617  ASP618  TYR619  PRO620  LYS621  CYS622 
 ASP623  PHE694  ASN695  SER759  ASP760  ASP761  ALA762  ILE779  LEU786  VAL792 
 PHE793  MET794  SER795  GLU796  ALA797  LYS798  CYS799  TRP800  GLU811  SER814 

> <Gold.Protein.RotatedAtoms>
  150.9205  133.6886  159.2833 H   0  0  0  0  0  0  0  0  0  0  0  0  # atno 6907 bound_to 6896
  151.4343  135.1012  159.9661 H   0  0  0  0  0  0  0  0  0  0  0  0  # atno 6908 bound_to 6896
  152.4977  133.8628  159.7314 H   0  0  0  0  0  0  0  0  0  0  0  0  # atno 6909 bound_to 6896
  144.7211  139.9873  143.6439 H   0  0  0  0  0  0  0  0  0  0  0  0  # atno 7974 bound_to 7965
  155.9223  140.1076  157.1197 H   0  0  0  0  0  0  0  0  0  0  0  0  # atno 8008 bound_to 7997
  154.4056  140.1253  156.4760 H   0  0  0  0  0  0  0  0  0  0  0  0  # atno 8009 bound_to 7997
  155.7181  140.3470  155.5006 H   0  0  0  0  0  0  0  0  0  0  0  0  # atno 8010 bound_to 7997
  140.6210  143.2420  151.5479 H   0  0  0  0  0  0  0  0  0  0  0  0  # atno 10167 bound_to 10162
  156.0844  130.6038  150.8804 H   0  0  0  0  0  0  0  0  0  0  0  0  # atno 10718 bound_to 10713
  153.2000  135.4425  155.0255 H   0  0  0  0  0  0  0  0  0  0  0  0  # atno 10763 bound_to 10752
  154.8141  135.3307  154.7226 H   0  0  0  0  0  0  0  0  0  0  0  0  # atno 10764 bound_to 10752
  153.7672  135.6987  153.4969 H   0  0  0  0  0  0  0  0  0  0  0  0  # atno 10765 bound_to 10752
  141.0841  133.6646  156.3797 H   0  0  0  0  0  0  0  0  0  0  0  0  # atno 11005 bound_to 11000
  146.0440  139.3448  143.0680 LP  0  0  0  0  0  0  0  0  0  0  0  0  # atno 17320 bound_to 7965
  145.8299  140.9636  143.0854 LP  0  0  0  0  0  0  0  0  0  0  0  0  # atno 17321 bound_to 7965
  139.5439  144.2573  152.1405 LP  0  0  0  0  0  0  0  0  0  0  0  0  # atno 17342 bound_to 10162
  140.1793  144.4859  150.6537 LP  0  0  0  0  0  0  0  0  0  0  0  0  # atno 17343 bound_to 10162
  157.5973  131.0942  150.9019 LP  0  0  0  0  0  0  0  0  0  0  0  0  # atno 17370 bound_to 10713
  156.9183  130.5306  149.5279 LP  0  0  0  0  0  0  0  0  0  0  0  0  # atno 17371 bound_to 10713
  140.5403  134.6127  157.5377 LP  0  0  0  0  0  0  0  0  0  0  0  0  # atno 17394 bound_to 11000
  139.9657  134.7377  156.0143 LP  0  0  0  0  0  0  0  0  0  0  0  0  # atno 17395 bound_to 11000

$$$$
