AV-unprocessed.smi:2318|AV-procd|sdf|9275|dock8
  -GOLD-   2272012503D 1   1.00000     0.00000
 Structure written by MMmdl.
 37 38  0  0  0  0  0  0  0  0  1 V2000
  151.5965  131.3538  156.5504 C   0  0  0  0  0  0  0  0  0  0  0  0
  150.9970  132.5557  156.0120 N   0  0  0  0  0  0  0  0  0  0  0  0
  151.2269  133.8683  156.3718 C   0  0  0  0  0  0  0  0  0  0  0  0
  150.4308  134.6532  155.5867 C   0  0  0  0  0  0  0  0  0  0  0  0
  149.7446  133.7115  154.7713 C   0  0  0  0  0  0  0  0  0  0  0  0
  148.8032  134.1451  153.8030 N   0  0  0  0  0  0  0  0  0  0  0  0
  147.4808  133.9060  153.7784 C   0  0  0  0  0  0  0  0  0  0  0  0
  146.8638  133.2490  154.6171 O   0  0  0  0  0  0  0  0  0  0  0  0
  146.9069  134.4774  152.7095 N   0  0  0  0  0  0  0  0  0  0  0  0
  145.4835  134.4330  152.3678 C   0  0  2  0  0  0  0  0  0  0  0  0
  145.3266  133.9666  150.8979 C   0  0  0  0  0  0  0  0  0  0  0  0
  143.9309  133.4613  150.5172 C   0  0  0  0  0  0  0  0  0  0  0  0
  144.1400  132.6644  149.2272 C   0  0  0  0  0  0  0  0  0  0  0  0
  145.5830  132.1451  149.2785 C   0  0  0  0  0  0  0  0  0  0  0  0
  146.2259  132.7807  150.5174 C   0  0  0  0  0  0  0  0  0  0  0  0
  144.8576  135.8158  152.6606 C   0  0  0  0  0  0  0  0  0  0  0  0
  145.4276  136.7426  151.8893 F   0  0  0  0  0  0  0  0  0  0  0  0
  143.5475  135.8004  152.4112 F   0  0  0  0  0  0  0  0  0  0  0  0
  145.0521  136.1709  153.9299 F   0  0  0  0  0  0  0  0  0  0  0  0
  150.0831  132.4544  155.0240 N   0  0  0  0  0  0  0  0  0  0  0  0
  152.2974  131.6086  157.3457 H   0  0  0  0  0  0  0  0  0  0  0  0
  152.1316  130.8234  155.7622 H   0  0  0  0  0  0  0  0  0  0  0  0
  150.8204  130.7043  156.9566 H   0  0  0  0  0  0  0  0  0  0  0  0
  151.9302  134.1321  157.1482 H   0  0  0  0  0  0  0  0  0  0  0  0
  150.3523  135.7302  155.5964 H   0  0  0  0  0  0  0  0  0  0  0  0
  149.1775  134.7003  153.0480 H   0  0  0  0  0  0  0  0  0  0  0  0
  147.5000  134.9982  152.0802 H   0  0  0  0  0  0  0  0  0  0  0  0
  144.9762  133.7057  153.0044 H   0  0  0  0  0  0  0  0  0  0  0  0
  145.5738  134.7978  150.2354 H   0  0  0  0  0  0  0  0  0  0  0  0
  143.5478  132.8011  151.2969 H   0  0  0  0  0  0  0  0  0  0  0  0
  143.2117  134.2687  150.3792 H   0  0  0  0  0  0  0  0  0  0  0  0
  143.4132  131.8580  149.1257 H   0  0  0  0  0  0  0  0  0  0  0  0
  144.0200  133.3221  148.3652 H   0  0  0  0  0  0  0  0  0  0  0  0
  145.6162  131.0567  149.3390 H   0  0  0  0  0  0  0  0  0  0  0  0
  146.1179  132.4369  148.3739 H   0  0  0  0  0  0  0  0  0  0  0  0
  147.2583  133.0811  150.3354 H   0  0  0  0  0  0  0  0  0  0  0  0
  146.2375  132.0513  151.3292 H   0  0  0  0  0  0  0  0  0  0  0  0
  1  2  1  0  0  0  0
  1 21  1  0  0  0  0
  1 22  1  0  0  0  0
  1 23  1  0  0  0  0
  2 20  1  0  0  0  0
  2  3  1  0  0  0  0
  3  4  2  0  0  0  0
  3 24  1  0  0  0  0
  4  5  1  0  0  0  0
  4 25  1  0  0  0  0
  5  6  1  0  0  0  0
  5 20  2  0  0  0  0
  6  7  1  0  0  0  0
  6 26  1  0  0  0  0
  7  8  2  0  0  0  0
  7  9  1  0  0  0  0
  9 10  1  0  0  0  0
  9 27  1  0  0  0  0
 10 11  1  0  0  0  0
 10 16  1  0  0  0  0
 10 28  1  0  0  0  0
 11 15  1  0  0  0  0
 11 12  1  0  0  0  0
 11 29  1  0  0  0  0
 12 13  1  0  0  0  0
 12 30  1  0  0  0  0
 12 31  1  0  0  0  0
 13 14  1  0  0  0  0
 13 32  1  0  0  0  0
 13 33  1  0  0  0  0
 14 15  1  0  0  0  0
 14 34  1  0  0  0  0
 14 35  1  0  0  0  0
 15 36  1  0  0  0  0
 15 37  1  0  0  0  0
 16 17  1  0  0  0  0
 16 18  1  0  0  0  0
 16 19  1  0  0  0  0
M  END
> <s_m_source_file>
AV-unprocessed.smi

> <i_m_source_file_index>
2318

> <i_lp_mmshare_version>
43012

> <i_f3d_flags>
0

> <s_epik_input>
W0NIM11uMVtjSF1bY0hdYyhuMSlbTkhdQyg9TylbTkhdW0NAQEhdKEMoRikoRilGKVtDSF0yW0NIMl1bQ0gyXVtDSDJdW0NIMl0y

> <s_epik_cmdline>
J2VwaWtfcHl0aG9uJywgJy1waCcsICc3LjAnLCAnLXRuJywgJzgnLCAnLW1hJywgJzIwMCcsICctbWV0YWxfYmluZGluZycsICctaW1hZScsICc8aW5maWxlLm1hZT4nLCAnLW9tYWUnLCAnPG91dGZpbGUubWFlPic=

> <r_lp_tautomer_probability>
1

> <r_epik_Ionization_Penalty>
2.39546e-05

> <r_epik_Ionization_Penalty_Charging>
0

> <r_epik_Ionization_Penalty_Neutral>
2.39546e-05

> <r_epik_State_Penalty>
-0

> <r_epik_Charging_Adjusted_Penalty>
0

> <i_epik_Tot_Q>
0

> <i_epik_Tot_abs_Q>
0

> <r_epik_Metal_State_Penalty>
-0

> <b_epik_Metal_Only>
0

> <s_lp_Force_Field>
OPLS_2005

> <r_lp_Energy>
23.9909

> <b_lp_Chiralities_Consistent>
1

> <s_lp_Variant>
AV-unprocessed.smi:2318-1

> <Gold.Version>
5.8.1

> <Gold.Id.Protein>
6NUR|6NUR_protein|mol2

> <Gold.PLP.Fitness>
36.7323

> <Gold.PLP.PLP>
-34.0300

> <Gold.PLP.part.hbond>
-2.0000

> <Gold.PLP.part.metal>
0.0000

> <Gold.PLP.part.buried>
-4.2059

> <Gold.PLP.part.nonpolar>
-27.7748

> <Gold.PLP.part.repulsive>
0.0505

> <Gold.PLP.ligand.clash>
0.0000

> <Gold.PLP.ligand.torsion>
0.9894

> <Gold.PLP.Chemscore.Hbond>
1.4720

> <Gold.PLP.Chemscore.CHOScore>
0.0000

> <Gold.PLP.Chemscore.Metal>
0.0000

> <Gold.Chemscore.Hbonds>
donor molecule, donor type, donor heavy atom, donor atom, acceptor molecule, acceptor atom, score
      L1  H     6    26       P1  7948  0.45
      L1  H     9    27       P1  7948  0.99

> <Gold.PLP.Chemscore.Internal.Correction>
0.2650

> <Gold.Rescore>
     Score         DG    S(hbond)    S(metal)    S(lipo)     H(rot)  DE(clash)    DE(int)     intcor
     14.10     -15.46       1.71        0.00      64.91       1.30       0.17       1.20       ----

> <Gold.Chemscore.Fitness>
14.0954

> <Gold.Chemscore.DG>
-15.4610

> <Gold.Chemscore.ZeroCoef>
-5.4800

> <Gold.Chemscore.Hbond>
1.7110

> <Gold.Chemscore.Metal>
0.0000

> <Gold.Chemscore.Lipo>
64.9134

> <Gold.Chemscore.Internal_Hbond>
0.0000

> <Gold.Chemscore.DEClash>
0.1651

> <Gold.Chemscore.DEInternal>
1.2004

> <Gold.Chemscore.Rot>
1.3003

> <Gold.Chemscore.Internal.Correction>
   9.000000E+99

> <Gold.Chemscore.Hbonds>
donor molecule, donor type, donor heavy atom, donor atom, acceptor molecule, acceptor atom, score
      L1  H     6    26       P1  7948  0.01
      L1  H     9    27       P1  7948  0.86

> <Gold.Chemscore.Hbond.Weighted>
-5.7148

> <Gold.Chemscore.Metal.Weighted>
-0.0000

> <Gold.Chemscore.Lipo.Weighted>
-7.5949

> <Gold.Chemscore.Internal_Hbond.Weighted>
0.0000

> <Gold.Chemscore.DEClash.Weighted>
0.1651

> <Gold.Chemscore.DEInternal.Weighted>
1.2004

> <Gold.Chemscore.Rot.Weighted>
3.3287

> <Gold.Chemscore.Internal.Correction.Weighted>
   9.000000E+99

> <Gold.Protein.RotatedTorsions>
[ 6907 6896 6895 6894 ] final  -93.25 input  -60.11 | X-H torsion
[ 7974 7965 7964 7962 ] final   41.50 input  175.53 | X-H torsion
[ 8008 7997 7996 7995 ] final    6.89 input   59.86 | X-H torsion
[ 10167 10162 10161 10158 ] final  141.20 input  -65.29 | X-H torsion
[ 10718 10713 10712 10709 ] final -129.73 input   66.30 | X-H torsion
[ 10763 10752 10751 10750 ] final   46.62 input  -60.55 | X-H torsion
[ 11005 11000 10999 10996 ] final  122.58 input  -57.11 | X-H torsion

> <Gold.Protein.ActiveResidues>
 VAL166  LYS551  ARG553  GLY616  TRP617  ASP618  TYR619  PRO620  LYS621  CYS622 
 ASP623  PHE694  ASN695  SER759  ASP760  ASP761  ALA762  ILE779  LEU786  VAL792 
 PHE793  MET794  SER795  GLU796  ALA797  LYS798  CYS799  TRP800  GLU811  SER814 

> <Gold.Protein.RotatedAtoms>
  150.6919  134.1995  159.4316 H   0  0  0  0  0  0  0  0  0  0  0  0  # atno 6907 bound_to 6896
  151.9962  134.9950  160.0572 H   0  0  0  0  0  0  0  0  0  0  0  0  # atno 6908 bound_to 6896
  152.1621  133.4553  159.4903 H   0  0  0  0  0  0  0  0  0  0  0  0  # atno 6909 bound_to 6896
  146.0818  139.5408  142.9532 H   0  0  0  0  0  0  0  0  0  0  0  0  # atno 7974 bound_to 7965
  154.7468  140.2759  155.6326 H   0  0  0  0  0  0  0  0  0  0  0  0  # atno 8008 bound_to 7997
  156.2886  140.2686  156.2137 H   0  0  0  0  0  0  0  0  0  0  0  0  # atno 8009 bound_to 7997
  155.0188  140.0371  157.2419 H   0  0  0  0  0  0  0  0  0  0  0  0  # atno 8010 bound_to 7997
  139.5027  144.6186  151.6104 H   0  0  0  0  0  0  0  0  0  0  0  0  # atno 10167 bound_to 10162
  156.2075  130.6897  151.0611 H   0  0  0  0  0  0  0  0  0  0  0  0  # atno 10718 bound_to 10713
  152.9808  135.6002  154.3629 H   0  0  0  0  0  0  0  0  0  0  0  0  # atno 10763 bound_to 10752
  154.3309  135.2768  155.2474 H   0  0  0  0  0  0  0  0  0  0  0  0  # atno 10764 bound_to 10752
  154.4598  135.5969  153.6303 H   0  0  0  0  0  0  0  0  0  0  0  0  # atno 10765 bound_to 10752
  139.9275  134.9641  156.8131 H   0  0  0  0  0  0  0  0  0  0  0  0  # atno 11005 bound_to 11000
  145.6203  141.0323  143.1918 LP  0  0  0  0  0  0  0  0  0  0  0  0  # atno 17320 bound_to 7965
  144.7298  139.7760  143.7351 LP  0  0  0  0  0  0  0  0  0  0  0  0  # atno 17321 bound_to 7965
  140.5882  143.9827  150.6308 LP  0  0  0  0  0  0  0  0  0  0  0  0  # atno 17342 bound_to 10162
  140.2999  143.3268  152.0982 LP  0  0  0  0  0  0  0  0  0  0  0  0  # atno 17343 bound_to 10162
  157.7020  131.0772  150.6789 LP  0  0  0  0  0  0  0  0  0  0  0  0  # atno 17370 bound_to 10713
  156.6847  130.4577  149.5617 LP  0  0  0  0  0  0  0  0  0  0  0  0  # atno 17371 bound_to 10713
  140.6296  133.9918  155.7655 LP  0  0  0  0  0  0  0  0  0  0  0  0  # atno 17394 bound_to 11000
  141.0842  134.0016  157.3339 LP  0  0  0  0  0  0  0  0  0  0  0  0  # atno 17395 bound_to 11000

$$$$
