AV-unprocessed.smi:1471|AV-procd|sdf|5963|dock5
  -GOLD-   22720 6 53D 1   1.00000     0.00000
 Structure written by MMmdl.
 42 43  0  0  0  0  0  0  0  0  1 V2000
  156.2160  137.4593  164.5812 C   0  0  0  0  0  0  0  0  0  0  0  0
  155.7495  136.8451  163.2886 C   0  0  0  0  0  0  0  0  0  0  0  0
  155.0867  137.6129  162.4875 N   0  0  0  0  0  0  0  0  0  0  0  0
  154.6081  137.1483  161.2788 N   0  0  0  0  0  0  0  0  0  0  0  0
  153.8756  138.1545  160.5017 C   0  0  0  0  0  0  0  0  0  0  0  0
  154.7275  138.7301  159.3482 C   0  0  1  0  0  0  0  0  0  0  0  0
  154.0015  138.6108  158.1410 O   0  0  0  0  0  0  0  0  0  0  0  0
  155.0355  140.2212  159.5482 C   0  0  0  0  0  0  0  0  0  0  0  0
  154.0533  140.7790  160.4091 O   0  0  0  0  0  0  0  0  0  0  0  0
  152.8608  141.1717  159.7455 C   0  0  0  0  0  0  0  0  0  0  0  0
  152.3785  142.5542  160.1534 C   0  0  0  0  0  0  0  0  0  0  0  0
  151.7501  143.3906  159.2062 C   0  0  0  0  0  0  0  0  0  0  0  0
  151.3056  144.6742  159.5781 C   0  0  0  0  0  0  0  0  0  0  0  0
  151.4914  145.1291  160.8977 C   0  0  0  0  0  0  0  0  0  0  0  0
  152.1236  144.3004  161.8445 C   0  0  0  0  0  0  0  0  0  0  0  0
  152.5693  143.0163  161.4744 C   0  0  0  0  0  0  0  0  0  0  0  0
  153.1792  142.2305  162.3940 F   0  0  0  0  0  0  0  0  0  0  0  0
  154.7686  135.8754  160.8164 C   0  0  0  0  0  0  0  0  0  0  0  0
  154.3128  135.5003  159.7351 O   0  0  0  0  0  0  0  0  0  0  0  0
  155.5249  135.0122  161.7265 C   0  0  0  0  0  0  0  0  0  0  0  0
  155.7164  133.6696  161.2811 C   0  0  0  0  0  0  0  0  0  0  0  0
  155.8719  132.5876  160.9000 N   0  0  0  0  0  0  0  0  0  0  0  0
  156.0075  135.4586  162.9130 C   0  0  0  0  0  0  0  0  0  0  0  0
  156.7977  134.6018  163.8927 C   0  0  0  0  0  0  0  0  0  0  0  0
  155.8881  136.8652  165.4346 H   0  0  0  0  0  0  0  0  0  0  0  0
  155.8245  138.4689  164.7166 H   0  0  0  0  0  0  0  0  0  0  0  0
  157.3042  137.5197  164.6083 H   0  0  0  0  0  0  0  0  0  0  0  0
  152.9366  137.7485  160.1197 H   0  0  0  0  0  0  0  0  0  0  0  0
  153.5721  138.9568  161.1770 H   0  0  0  0  0  0  0  0  0  0  0  0
  155.6678  138.1878  159.2420 H   0  0  0  0  0  0  0  0  0  0  0  0
  153.6775  137.7260  158.0716 H   0  0  0  0  0  0  0  0  0  0  0  0
  156.0182  140.3467  160.0059 H   0  0  0  0  0  0  0  0  0  0  0  0
  155.0551  140.7330  158.5846 H   0  0  0  0  0  0  0  0  0  0  0  0
  153.0640  141.1907  158.6746 H   0  0  0  0  0  0  0  0  0  0  0  0
  152.0804  140.4245  159.8982 H   0  0  0  0  0  0  0  0  0  0  0  0
  151.6038  143.0499  158.1917 H   0  0  0  0  0  0  0  0  0  0  0  0
  150.8229  145.3101  158.8505 H   0  0  0  0  0  0  0  0  0  0  0  0
  151.1511  146.1138  161.1828 H   0  0  0  0  0  0  0  0  0  0  0  0
  152.2687  144.6505  162.8560 H   0  0  0  0  0  0  0  0  0  0  0  0
  157.0486  133.6266  163.4766 H   0  0  0  0  0  0  0  0  0  0  0  0
  156.2205  134.4356  164.8028 H   0  0  0  0  0  0  0  0  0  0  0  0
  157.7355  135.0877  164.1635 H   0  0  0  0  0  0  0  0  0  0  0  0
  1  2  1  0  0  0  0
  1 25  1  0  0  0  0
  1 26  1  0  0  0  0
  1 27  1  0  0  0  0
  2 23  1  0  0  0  0
  2  3  2  0  0  0  0
  3  4  1  0  0  0  0
  4  5  1  0  0  0  0
  4 18  1  0  0  0  0
  5  6  1  0  0  0  0
  5 28  1  0  0  0  0
  5 29  1  0  0  0  0
  6  7  1  0  0  0  0
  6  8  1  0  0  0  0
  6 30  1  0  0  0  0
  7 31  1  0  0  0  0
  8  9  1  0  0  0  0
  8 32  1  0  0  0  0
  8 33  1  0  0  0  0
  9 10  1  0  0  0  0
 10 11  1  0  0  0  0
 10 34  1  0  0  0  0
 10 35  1  0  0  0  0
 11 16  1  0  0  0  0
 11 12  2  0  0  0  0
 12 13  1  0  0  0  0
 12 36  1  0  0  0  0
 13 14  2  0  0  0  0
 13 37  1  0  0  0  0
 14 15  1  0  0  0  0
 14 38  1  0  0  0  0
 15 16  2  0  0  0  0
 15 39  1  0  0  0  0
 16 17  1  0  0  0  0
 18 19  2  0  0  0  0
 18 20  1  0  0  0  0
 20 21  1  0  0  0  0
 20 23  2  0  0  0  0
 21 22  3  0  0  0  0
 23 24  1  0  0  0  0
 24 40  1  0  0  0  0
 24 41  1  0  0  0  0
 24 42  1  0  0  0  0
M  END
> <s_m_source_file>
AV-unprocessed.smi

> <i_m_source_file_index>
1471

> <i_lp_mmshare_version>
43012

> <i_f3d_flags>
0

> <s_epik_input>
TiNDYyhjMVtDSDNdKWMoPU8pbihuYzFbQ0gzXSlbQ0gyXVtDQEhdKFtPSF0pW0NIMl1PW0NIMl1jMltjSF1bY0hdW2NIXVtjSF1jMkY=

> <s_epik_cmdline>
J2VwaWtfcHl0aG9uJywgJy1waCcsICc3LjAnLCAnLXRuJywgJzgnLCAnLW1hJywgJzIwMCcsICctbWV0YWxfYmluZGluZycsICctaW1hZScsICc8aW5maWxlLm1hZT4nLCAnLW9tYWUnLCAnPG91dGZpbGUubWFlPic=

> <r_lp_tautomer_probability>
1

> <r_epik_Ionization_Penalty>
6.13319e-08

> <r_epik_Ionization_Penalty_Charging>
2.19172e-10

> <r_epik_Ionization_Penalty_Neutral>
6.11128e-08

> <r_epik_State_Penalty>
-0

> <r_epik_Charging_Adjusted_Penalty>
2.19172e-10

> <i_epik_Tot_Q>
0

> <i_epik_Tot_abs_Q>
0

> <r_epik_Metal_State_Penalty>
-0

> <b_epik_Metal_Only>
0

> <s_lp_Force_Field>
OPLS_2005

> <r_lp_Energy>
30.1465

> <b_lp_Chiralities_Consistent>
1

> <s_lp_Variant>
AV-unprocessed.smi:1471-2

> <Gold.Version>
5.8.1

> <Gold.Id.Protein>
6NUR|6NUR_protein|mol2

> <Gold.PLP.Fitness>
56.3274

> <Gold.PLP.PLP>
-54.8536

> <Gold.PLP.part.hbond>
-2.0000

> <Gold.PLP.part.metal>
0.0000

> <Gold.PLP.part.buried>
-5.5945

> <Gold.PLP.part.nonpolar>
-47.6226

> <Gold.PLP.part.repulsive>
0.0000

> <Gold.PLP.ligand.clash>
0.0000

> <Gold.PLP.ligand.torsion>
2.2847

> <Gold.PLP.Chemscore.Hbond>
2.0000

> <Gold.PLP.Chemscore.CHOScore>
0.0000

> <Gold.PLP.Chemscore.Metal>
0.0000

> <Gold.Chemscore.Hbonds>
donor molecule, donor type, donor heavy atom, donor atom, acceptor molecule, acceptor atom, score
      P1  H  6896  6908       L1    19  0.96
      P1  H  7997  8010       L1     7  0.42

> <Gold.PLP.Chemscore.Internal.Correction>
0.0431

> <Gold.Rescore>
     Score         DG    S(hbond)    S(metal)    S(lipo)     H(rot)  DE(clash)    DE(int)     intcor
     16.87     -21.10       1.88        0.00     137.71       2.65       0.15       4.07       ----

> <Gold.Chemscore.Fitness>
16.8738

> <Gold.Chemscore.DG>
-21.1008

> <Gold.Chemscore.ZeroCoef>
-5.4800

> <Gold.Chemscore.Hbond>
1.8816

> <Gold.Chemscore.Metal>
0.0000

> <Gold.Chemscore.Lipo>
137.7141

> <Gold.Chemscore.Internal_Hbond>
0.0000

> <Gold.Chemscore.DEClash>
0.1540

> <Gold.Chemscore.DEInternal>
4.0731

> <Gold.Chemscore.Rot>
2.6470

> <Gold.Chemscore.Internal.Correction>
   9.000000E+99

> <Gold.Chemscore.Hbonds>
donor molecule, donor type, donor heavy atom, donor atom, acceptor molecule, acceptor atom, score
      P1  H  6896  6908       L1    19  0.67
      P1  H  7997  8010       L1     7  0.02

> <Gold.Chemscore.Hbond.Weighted>
-6.2845

> <Gold.Chemscore.Metal.Weighted>
-0.0000

> <Gold.Chemscore.Lipo.Weighted>
-16.1125

> <Gold.Chemscore.Internal_Hbond.Weighted>
0.0000

> <Gold.Chemscore.DEClash.Weighted>
0.1540

> <Gold.Chemscore.DEInternal.Weighted>
4.0731

> <Gold.Chemscore.Rot.Weighted>
6.7762

> <Gold.Chemscore.Internal.Correction.Weighted>
   9.000000E+99

> <Gold.Protein.RotatedTorsions>
[ 6907 6896 6895 6894 ] final  -59.95 input  -60.11 | X-H torsion
[ 7974 7965 7964 7962 ] final   37.40 input  175.53 | X-H torsion
[ 8008 7997 7996 7995 ] final   -2.57 input   59.86 | X-H torsion
[ 10167 10162 10161 10158 ] final   62.04 input  -65.29 | X-H torsion
[ 10718 10713 10712 10709 ] final   95.65 input   66.30 | X-H torsion
[ 10763 10752 10751 10750 ] final  -59.23 input  -60.55 | X-H torsion
[ 11005 11000 10999 10996 ] final -169.57 input  -57.11 | X-H torsion

> <Gold.Protein.ActiveResidues>
 VAL166  LYS551  ARG553  GLY616  TRP617  ASP618  TYR619  PRO620  LYS621  CYS622 
 ASP623  PHE694  ASN695  SER759  ASP760  ASP761  ALA762  ILE779  LEU786  VAL792 
 PHE793  MET794  SER795  GLU796  ALA797  LYS798  CYS799  TRP800  GLU811  SER814 

> <Gold.Protein.RotatedAtoms>
  150.7892  134.6901  159.6491 H   0  0  0  0  0  0  0  0  0  0  0  0  # atno 6907 bound_to 6896
  152.3994  134.6308  160.0085 H   0  0  0  0  0  0  0  0  0  0  0  0  # atno 6908 bound_to 6896
  151.6584  133.3281  159.3204 H   0  0  0  0  0  0  0  0  0  0  0  0  # atno 6909 bound_to 6896
  146.1140  139.5898  142.9333 H   0  0  0  0  0  0  0  0  0  0  0  0  # atno 7974 bound_to 7965
  154.6343  140.2531  155.7396 H   0  0  0  0  0  0  0  0  0  0  0  0  # atno 8008 bound_to 7997
  156.2496  140.2900  156.0629 H   0  0  0  0  0  0  0  0  0  0  0  0  # atno 8009 bound_to 7997
  155.1695  140.0386  157.2850 H   0  0  0  0  0  0  0  0  0  0  0  0  # atno 8010 bound_to 7997
  140.1483  144.4487  150.6773 H   0  0  0  0  0  0  0  0  0  0  0  0  # atno 10167 bound_to 10162
  157.6936  131.0552  150.4371 H   0  0  0  0  0  0  0  0  0  0  0  0  # atno 10718 bound_to 10713
  154.2505  135.6327  153.5238 H   0  0  0  0  0  0  0  0  0  0  0  0  # atno 10763 bound_to 10752
  152.9913  135.5563  154.5813 H   0  0  0  0  0  0  0  0  0  0  0  0  # atno 10764 bound_to 10752
  154.5339  135.2890  155.1130 H   0  0  0  0  0  0  0  0  0  0  0  0  # atno 10765 bound_to 10752
  140.5292  134.5633  157.5070 H   0  0  0  0  0  0  0  0  0  0  0  0  # atno 11005 bound_to 11000
  145.5605  141.0405  143.2229 LP  0  0  0  0  0  0  0  0  0  0  0  0  # atno 17320 bound_to 7965
  144.7536  139.7130  143.7263 LP  0  0  0  0  0  0  0  0  0  0  0  0  # atno 17321 bound_to 7965
  140.6718  143.2289  151.5605 LP  0  0  0  0  0  0  0  0  0  0  0  0  # atno 17342 bound_to 10162
  139.5438  144.2575  152.1403 LP  0  0  0  0  0  0  0  0  0  0  0  0  # atno 17343 bound_to 10162
  156.4733  130.4057  149.6505 LP  0  0  0  0  0  0  0  0  0  0  0  0  # atno 17370 bound_to 10713
  156.3577  130.7465  151.2433 LP  0  0  0  0  0  0  0  0  0  0  0  0  # atno 17371 bound_to 10713
  139.9563  134.7529  156.0334 LP  0  0  0  0  0  0  0  0  0  0  0  0  # atno 17394 bound_to 11000
  141.1291  133.6591  156.3415 LP  0  0  0  0  0  0  0  0  0  0  0  0  # atno 17395 bound_to 11000

$$$$
