AV-unprocessed.smi:2967|AV-procd|sdf|11327|dock3
  -GOLD-   2272016233D 1   1.00000     0.00000
 Structure written by MMmdl.
 37 38  0  0  0  0  0  0  0  0  2 V2000
  149.2323  142.0619  157.1946 O   0  0  0  0  0  0  0  0  0  0  0  0
  150.2805  141.6004  156.7440 C   0  0  0  0  0  0  0  0  0  0  0  0
  150.2730  140.9507  155.3491 C   0  0  0  0  0  0  0  0  0  0  0  0
  150.5846  139.5092  155.3338 N   0  0  0  0  0  0  0  0  0  0  0  0
  149.5213  138.6130  155.5412 C   0  0  0  0  0  0  0  0  0  0  0  0
  149.7045  137.2789  155.5351 C   0  0  0  0  0  0  0  0  0  0  0  0
  151.0500  136.7681  155.3048 C   0  0  0  0  0  0  0  0  0  0  0  0
  151.2361  135.5530  155.2953 O   0  0  0  0  0  0  0  0  0  0  0  0
  152.0487  137.6777  155.1074 N   0  5  0  0  0  0  0  0  0  0  0  0
  151.8473  139.0319  155.1147 C   0  0  0  0  0  0  0  0  0  0  0  0
  152.7607  139.8348  154.9229 O   0  0  0  0  0  0  0  0  0  0  0  0
  151.4441  141.6454  157.4154 N   0  0  0  0  0  0  0  0  0  0  0  0
  151.6462  142.2008  158.7505 C   0  0  0  0  0  0  0  0  0  0  0  0
  151.7412  143.7407  158.6858 C   0  0  0  0  0  0  0  0  0  0  0  0
  151.2570  144.4252  159.9765 C   0  0  0  0  0  0  0  0  0  0  0  0
  152.1928  144.2827  161.1856 C   0  0  0  0  0  0  0  0  0  0  0  0
  152.5148  142.8328  161.5845 C   0  0  0  0  0  0  0  0  0  0  0  0
  153.5008  142.1592  160.6172 C   0  0  0  0  0  0  0  0  0  0  0  0
  152.8800  141.5086  159.3675 C   0  0  0  0  0  0  0  0  0  0  0  0
  149.2999  141.1310  154.8894 H   0  0  0  0  0  0  0  0  0  0  0  0
  150.9835  141.4912  154.7222 H   0  0  0  0  0  0  0  0  0  0  0  0
  148.5564  139.0726  155.6984 H   0  0  0  0  0  0  0  0  0  0  0  0
  148.8763  136.6040  155.6940 H   0  0  0  0  0  0  0  0  0  0  0  0
  152.2528  141.2380  156.9680 H   0  0  0  0  0  0  0  0  0  0  0  0
  150.7788  141.9320  159.3564 H   0  0  0  0  0  0  0  0  0  0  0  0
  152.7530  144.0578  158.4303 H   0  0  0  0  0  0  0  0  0  0  0  0
  151.1058  144.1063  157.8779 H   0  0  0  0  0  0  0  0  0  0  0  0
  151.1249  145.4888  159.7749 H   0  0  0  0  0  0  0  0  0  0  0  0
  150.2652  144.0525  160.2364 H   0  0  0  0  0  0  0  0  0  0  0  0
  153.1185  144.8294  161.0007 H   0  0  0  0  0  0  0  0  0  0  0  0
  151.7245  144.7799  162.0358 H   0  0  0  0  0  0  0  0  0  0  0  0
  152.9789  142.8587  162.5710 H   0  0  0  0  0  0  0  0  0  0  0  0
  151.6059  142.2410  161.6992 H   0  0  0  0  0  0  0  0  0  0  0  0
  154.2541  142.8855  160.3098 H   0  0  0  0  0  0  0  0  0  0  0  0
  154.0536  141.3882  161.1552 H   0  0  0  0  0  0  0  0  0  0  0  0
  152.5989  140.4832  159.6117 H   0  0  0  0  0  0  0  0  0  0  0  0
  153.6671  141.4200  158.6169 H   0  0  0  0  0  0  0  0  0  0  0  0
  1  2  2  0  0  0  0
  2  3  1  0  0  0  0
  2 12  1  0  0  0  0
  3  4  1  0  0  0  0
  3 20  1  0  0  0  0
  3 21  1  0  0  0  0
  4 10  1  0  0  0  0
  4  5  1  0  0  0  0
  5  6  2  0  0  0  0
  5 22  1  0  0  0  0
  6  7  1  0  0  0  0
  6 23  1  0  0  0  0
  7  8  2  0  0  0  0
  7  9  1  0  0  0  0
  9 10  1  0  0  0  0
 10 11  2  0  0  0  0
 12 13  1  0  0  0  0
 12 24  1  0  0  0  0
 13 19  1  0  0  0  0
 13 14  1  0  0  0  0
 13 25  1  0  0  0  0
 14 15  1  0  0  0  0
 14 26  1  0  0  0  0
 14 27  1  0  0  0  0
 15 16  1  0  0  0  0
 15 28  1  0  0  0  0
 15 29  1  0  0  0  0
 16 17  1  0  0  0  0
 16 30  1  0  0  0  0
 16 31  1  0  0  0  0
 17 18  1  0  0  0  0
 17 32  1  0  0  0  0
 17 33  1  0  0  0  0
 18 19  1  0  0  0  0
 18 34  1  0  0  0  0
 18 35  1  0  0  0  0
 19 36  1  0  0  0  0
 19 37  1  0  0  0  0
M  CHG  1   9  -1
M  END
> <s_m_source_file>
AV-unprocessed.smi

> <i_m_source_file_index>
2967

> <i_lp_mmshare_version>
43012

> <i_f3d_flags>
0

> <s_epik_input>
W0NIMl0xW0NIMl1bQ0gyXVtDSDJdW0NIMl1bQ0gyXVtDSF0xW05IXUMoPU8pW0NIMl1uMltjSF1bY0hdYyg9TylbbkhdYzI9Tw==

> <s_epik_cmdline>
J2VwaWtfcHl0aG9uJywgJy1waCcsICc3LjAnLCAnLXRuJywgJzgnLCAnLW1hJywgJzIwMCcsICctbWV0YWxfYmluZGluZycsICctaW1hZScsICc8aW5maWxlLm1hZT4nLCAnLW9tYWUnLCAnPG91dGZpbGUubWFlPic=

> <r_lp_tautomer_probability>
0.999537

> <r_epik_Ionization_Penalty>
3.09244

> <r_epik_Ionization_Penalty_Charging>
2.84692e-08

> <r_epik_Ionization_Penalty_Neutral>
3.09244

> <r_epik_State_Penalty>
3.09149

> <r_epik_Charging_Adjusted_Penalty>
3.09149

> <i_epik_Tot_Q>
-1

> <i_epik_Tot_abs_Q>
1

> <r_epik_Metal_State_Penalty>
0.461034

> <b_epik_Metal_Only>
1

> <s_lp_Force_Field>
OPLS_2005

> <r_lp_Energy>
23.2827

> <b_lp_Chiralities_Consistent>
1

> <s_lp_Variant>
AV-unprocessed.smi:2967-2

> <Gold.Version>
5.8.1

> <Gold.Id.Protein>
6NUR|6NUR_protein|mol2

> <Gold.PLP.Fitness>
45.2034

> <Gold.PLP.PLP>
-39.6218

> <Gold.PLP.part.hbond>
-3.5539

> <Gold.PLP.part.metal>
0.0000

> <Gold.PLP.part.buried>
-4.6304

> <Gold.PLP.part.nonpolar>
-32.5578

> <Gold.PLP.part.repulsive>
0.9221

> <Gold.PLP.ligand.clash>
0.0000

> <Gold.PLP.ligand.torsion>
0.6866

> <Gold.PLP.Chemscore.Hbond>
2.3120

> <Gold.PLP.Chemscore.CHOScore>
0.0000

> <Gold.PLP.Chemscore.Metal>
0.0000

> <Gold.Chemscore.Hbonds>
donor molecule, donor type, donor heavy atom, donor atom, acceptor molecule, acceptor atom, score
      P1  H  7989  7998       L1    11  0.29
      P1  H  7997  8010       L1    11  1.00
      P1  H 10752 10764       L1     8  0.95

> <Gold.PLP.Chemscore.Internal.Correction>
0.0189

> <Gold.Rescore>
     Score         DG    S(hbond)    S(metal)    S(lipo)     H(rot)  DE(clash)    DE(int)     intcor
     16.22     -17.31       1.67        0.00      89.48       1.65       0.41       0.68       ----

> <Gold.Chemscore.Fitness>
16.2154

> <Gold.Chemscore.DG>
-17.3064

> <Gold.Chemscore.ZeroCoef>
-5.4800

> <Gold.Chemscore.Hbond>
1.6748

> <Gold.Chemscore.Metal>
0.0000

> <Gold.Chemscore.Lipo>
89.4793

> <Gold.Chemscore.Internal_Hbond>
0.0000

> <Gold.Chemscore.DEClash>
0.4085

> <Gold.Chemscore.DEInternal>
0.6826

> <Gold.Chemscore.Rot>
1.6549

> <Gold.Chemscore.Internal.Correction>
   9.000000E+99

> <Gold.Chemscore.Hbonds>
donor molecule, donor type, donor heavy atom, donor atom, acceptor molecule, acceptor atom, score
      P1  H  7989  7998       L1    11  0.02
      P1  H  7997  8010       L1    11  0.98
      P1  H 10752 10764       L1     8  0.21

> <Gold.Chemscore.Hbond.Weighted>
-5.5938

> <Gold.Chemscore.Metal.Weighted>
-0.0000

> <Gold.Chemscore.Lipo.Weighted>
-10.4691

> <Gold.Chemscore.Internal_Hbond.Weighted>
0.0000

> <Gold.Chemscore.DEClash.Weighted>
0.4085

> <Gold.Chemscore.DEInternal.Weighted>
0.6826

> <Gold.Chemscore.Rot.Weighted>
4.2364

> <Gold.Chemscore.Internal.Correction.Weighted>
   9.000000E+99

> <Gold.Protein.RotatedTorsions>
[ 6907 6896 6895 6894 ] final -113.36 input  -60.11 | X-H torsion
[ 7974 7965 7964 7962 ] final -124.31 input  175.53 | X-H torsion
[ 8008 7997 7996 7995 ] final  102.62 input   59.86 | X-H torsion
[ 10167 10162 10161 10158 ] final    7.87 input  -65.29 | X-H torsion
[ 10718 10713 10712 10709 ] final  -70.34 input   66.30 | X-H torsion
[ 10763 10752 10751 10750 ] final  -49.12 input  -60.55 | X-H torsion
[ 11005 11000 10999 10996 ] final  -25.86 input  -57.11 | X-H torsion

> <Gold.Protein.ActiveResidues>
 VAL166  LYS551  ARG553  GLY616  TRP617  ASP618  TYR619  PRO620  LYS621  CYS622 
 ASP623  PHE694  ASN695  SER759  ASP760  ASP761  ALA762  ILE779  LEU786  VAL792 
 PHE793  MET794  SER795  GLU796  ALA797  LYS798  CYS799  TRP800  GLU811  SER814 

> <Gold.Protein.RotatedAtoms>
  150.7824  133.8956  159.3325 H   0  0  0  0  0  0  0  0  0  0  0  0  # atno 6907 bound_to 6896
  151.6815  135.0959  160.0226 H   0  0  0  0  0  0  0  0  0  0  0  0  # atno 6908 bound_to 6896
  152.3879  133.6598  159.6249 H   0  0  0  0  0  0  0  0  0  0  0  0  # atno 6909 bound_to 6896
  145.0094  140.7892  143.4447 H   0  0  0  0  0  0  0  0  0  0  0  0  # atno 7974 bound_to 7965
  156.1409  140.3178  155.8494 H   0  0  0  0  0  0  0  0  0  0  0  0  # atno 8008 bound_to 7997
  155.4156  140.0509  157.3046 H   0  0  0  0  0  0  0  0  0  0  0  0  # atno 8009 bound_to 7997
  154.4975  140.2116  155.9427 H   0  0  0  0  0  0  0  0  0  0  0  0  # atno 8010 bound_to 7997
  140.6347  143.7913  150.7343 H   0  0  0  0  0  0  0  0  0  0  0  0  # atno 10167 bound_to 10162
  156.0412  130.4329  150.2281 H   0  0  0  0  0  0  0  0  0  0  0  0  # atno 10718 bound_to 10713
  154.0890  135.6580  153.4849 H   0  0  0  0  0  0  0  0  0  0  0  0  # atno 10763 bound_to 10752
  153.0328  135.5198  154.7399 H   0  0  0  0  0  0  0  0  0  0  0  0  # atno 10764 bound_to 10752
  154.6517  135.3002  154.9947 H   0  0  0  0  0  0  0  0  0  0  0  0  # atno 10765 bound_to 10752
  140.8976  133.7545  156.0502 H   0  0  0  0  0  0  0  0  0  0  0  0  # atno 11005 bound_to 11000
  145.2043  139.2236  143.5176 LP  0  0  0  0  0  0  0  0  0  0  0  0  # atno 17320 bound_to 7965
  146.3467  140.1868  142.8589 LP  0  0  0  0  0  0  0  0  0  0  0  0  # atno 17321 bound_to 7965
  140.1532  143.4340  152.2117 LP  0  0  0  0  0  0  0  0  0  0  0  0  # atno 17342 bound_to 10162
  139.5558  144.7372  151.4298 LP  0  0  0  0  0  0  0  0  0  0  0  0  # atno 17343 bound_to 10162
  157.0376  131.0026  151.3293 LP  0  0  0  0  0  0  0  0  0  0  0  0  # atno 17370 bound_to 10713
  157.5233  130.8011  149.7833 LP  0  0  0  0  0  0  0  0  0  0  0  0  # atno 17371 bound_to 10713
  140.8269  134.3223  157.5362 LP  0  0  0  0  0  0  0  0  0  0  0  0  # atno 17394 bound_to 11000
  139.8738  134.9341  156.3599 LP  0  0  0  0  0  0  0  0  0  0  0  0  # atno 17395 bound_to 11000

$$$$
