AV-unprocessed.smi:334|AV-procd|sdf|2363|dock8
  -GOLD-   2262022273D 1   1.00000     0.00000
 Structure written by MMmdl.
 44 46  0  0  0  0  0  0  0  0  3 V2000
  151.3942  140.4549  157.5779 C   0  0  0  0  0  0  0  0  0  0  0  0
  151.2660  141.9288  157.1581 C   0  0  1  0  0  0  0  0  0  0  0  0
  150.1047  142.0563  156.2788 N   0  0  0  0  0  0  0  0  0  0  0  0
  149.8206  141.2719  155.2276 C   0  0  0  0  0  0  0  0  0  0  0  0
  150.4975  140.2956  154.9034 O   0  0  0  0  0  0  0  0  0  0  0  0
  148.5692  141.6505  154.4249 C   0  0  0  0  0  0  0  0  0  0  0  0
  147.5743  140.5661  154.3808 N   0  0  0  0  0  0  0  0  0  0  0  0
  147.4018  139.9008  153.1508 C   0  0  0  0  0  0  0  0  0  0  0  0
  146.5130  138.8998  152.9969 C   0  0  0  0  0  0  0  0  0  0  0  0
  146.3444  138.2319  151.7250 N   0  3  0  0  0  0  0  0  0  0  0  0
  146.9169  138.6882  150.7405 O   0  0  0  0  0  0  0  0  0  0  0  0
  145.6353  137.2316  151.6667 O   0  5  0  0  0  0  0  0  0  0  0  0
  145.7242  138.5152  154.1514 C   0  0  0  0  0  0  0  0  0  0  0  0
  145.8820  139.1496  155.3296 C   0  0  0  0  0  0  0  0  0  0  0  0
  146.8475  140.2409  155.4941 C   0  0  0  0  0  0  0  0  0  0  0  0
  146.9940  140.8273  156.5669 O   0  0  0  0  0  0  0  0  0  0  0  0
  151.1111  142.8906  158.3630 C   0  0  2  0  0  0  0  0  0  0  0  0
  151.3185  144.3848  158.0035 C   0  0  0  0  0  0  0  0  0  0  0  0
  152.3821  144.8499  159.0125 C   0  0  1  0  0  0  0  0  0  0  0  0
  151.7767  144.8797  160.4276 C   0  0  0  0  0  0  0  0  0  0  0  0
  151.6482  143.3841  160.7708 C   0  0  0  0  0  0  0  0  0  0  0  0
  152.1572  142.6954  159.4899 C   0  0  2  0  0  0  0  0  0  0  0  0
  153.2903  143.6302  159.0777 C   0  0  0  0  0  0  0  0  0  0  0  0
  152.2927  140.2767  158.1669 H   0  0  0  0  0  0  0  0  0  0  0  0
  151.4531  139.8053  156.7037 H   0  0  0  0  0  0  0  0  0  0  0  0
  150.5377  140.1341  158.1718 H   0  0  0  0  0  0  0  0  0  0  0  0
  152.1744  142.1985  156.6173 H   0  0  0  0  0  0  0  0  0  0  0  0
  149.4826  142.8289  156.4672 H   0  0  0  0  0  0  0  0  0  0  0  0
  148.1438  142.5519  154.8675 H   0  0  0  0  0  0  0  0  0  0  0  0
  148.8509  141.9365  153.4094 H   0  0  0  0  0  0  0  0  0  0  0  0
  148.0307  140.2648  152.3514 H   0  0  0  0  0  0  0  0  0  0  0  0
  145.0003  137.7168  154.0795 H   0  0  0  0  0  0  0  0  0  0  0  0
  145.2827  138.8480  156.1762 H   0  0  0  0  0  0  0  0  0  0  0  0
  150.1080  142.7550  158.7712 H   0  0  0  0  0  0  0  0  0  0  0  0
  151.7030  144.5070  156.9901 H   0  0  0  0  0  0  0  0  0  0  0  0
  150.3955  144.9611  158.0749 H   0  0  0  0  0  0  0  0  0  0  0  0
  152.8771  145.7787  158.7279 H   0  0  0  0  0  0  0  0  0  0  0  0
  152.4481  145.3776  161.1285 H   0  0  0  0  0  0  0  0  0  0  0  0
  150.8177  145.3981  160.4554 H   0  0  0  0  0  0  0  0  0  0  0  0
  152.2829  143.1324  161.6213 H   0  0  0  0  0  0  0  0  0  0  0  0
  150.6264  143.0985  161.0237 H   0  0  0  0  0  0  0  0  0  0  0  0
  152.4603  141.6632  159.6602 H   0  0  0  0  0  0  0  0  0  0  0  0
  153.7428  143.3741  158.1184 H   0  0  0  0  0  0  0  0  0  0  0  0
  154.0758  143.7166  159.8304 H   0  0  0  0  0  0  0  0  0  0  0  0
  1  2  1  0  0  0  0
  1 24  1  0  0  0  0
  1 25  1  0  0  0  0
  1 26  1  0  0  0  0
  2  3  1  0  0  0  0
  2 17  1  0  0  0  0
  2 27  1  0  0  0  0
  3  4  1  0  0  0  0
  3 28  1  0  0  0  0
  4  5  2  0  0  0  0
  4  6  1  0  0  0  0
  6  7  1  0  0  0  0
  6 29  1  0  0  0  0
  6 30  1  0  0  0  0
  7 15  1  0  0  0  0
  7  8  1  0  0  0  0
  8  9  2  0  0  0  0
  8 31  1  0  0  0  0
  9 10  1  0  0  0  0
  9 13  1  0  0  0  0
 10 11  2  0  0  0  0
 10 12  1  0  0  0  0
 13 14  2  0  0  0  0
 13 32  1  0  0  0  0
 14 15  1  0  0  0  0
 14 33  1  0  0  0  0
 15 16  2  0  0  0  0
 17 22  1  0  0  0  0
 17 18  1  0  0  0  0
 17 34  1  0  0  0  0
 18 19  1  0  0  0  0
 18 35  1  0  0  0  0
 18 36  1  0  0  0  0
 19 23  1  0  0  0  0
 19 20  1  0  0  0  0
 19 37  1  0  0  0  0
 20 21  1  0  0  0  0
 20 38  1  0  0  0  0
 20 39  1  0  0  0  0
 21 22  1  0  0  0  0
 21 40  1  0  0  0  0
 21 41  1  0  0  0  0
 22 23  1  0  0  0  0
 22 42  1  0  0  0  0
 23 43  1  0  0  0  0
 23 44  1  0  0  0  0
M  CHG  1  10   1
M  CHG  1  12  -1
M  END
> <s_m_source_file>
AV-unprocessed.smi

> <i_m_source_file_index>
334

> <i_lp_mmshare_version>
43012

> <i_f3d_flags>
0

> <s_epik_input>
W0NIMl0xW0NIMl1bQ0BIXShbQ0gyXTIpW0NAQEhdKFtDSDJdW0NAQEhdMTIpW0NASF0oW0NIM10pW05IXUMoPU8pW0NIMl1uM1tjSF1jKFtOK10oPU8pW08tXSlbY0hdW2NIXWMzPU8=

> <s_epik_cmdline>
J2VwaWtfcHl0aG9uJywgJy1waCcsICc3LjAnLCAnLXRuJywgJzgnLCAnLW1hJywgJzIwMCcsICctbWV0YWxfYmluZGluZycsICctaW1hZScsICc8aW5maWxlLm1hZT4nLCAnLW9tYWUnLCAnPG91dGZpbGUubWFlPic=

> <r_lp_tautomer_probability>
1

> <r_epik_Ionization_Penalty>
2.17081e-08

> <r_epik_Ionization_Penalty_Charging>
8.1195e-11

> <r_epik_Ionization_Penalty_Neutral>
2.16269e-08

> <r_epik_State_Penalty>
-0

> <r_epik_Charging_Adjusted_Penalty>
8.1195e-11

> <i_epik_Tot_Q>
0

> <i_epik_Tot_abs_Q>
2

> <r_epik_Metal_State_Penalty>
-0

> <b_epik_Metal_Only>
0

> <s_lp_Force_Field>
OPLS_2005

> <r_lp_Energy>
62.172

> <b_lp_Chiralities_Consistent>
1

> <s_lp_Variant>
AV-unprocessed.smi:334-2

> <Gold.Version>
5.8.1

> <Gold.Id.Protein>
6NUR|6NUR_protein|mol2

> <Gold.PLP.Fitness>
56.2302

> <Gold.PLP.PLP>
-45.8417

> <Gold.PLP.part.hbond>
-3.0000

> <Gold.PLP.part.metal>
0.0000

> <Gold.PLP.part.buried>
-5.9812

> <Gold.PLP.part.nonpolar>
-37.8926

> <Gold.PLP.part.repulsive>
0.8265

> <Gold.PLP.ligand.clash>
0.0000

> <Gold.PLP.ligand.torsion>
0.3905

> <Gold.PLP.Chemscore.Hbond>
2.7160

> <Gold.PLP.Chemscore.CHOScore>
1.0000

> <Gold.PLP.Chemscore.Metal>
0.0000

> <Gold.Chemscore.Hbonds>
donor molecule, donor type, donor heavy atom, donor atom, acceptor molecule, acceptor atom, score
      L1  H     3    28       P1  8028  0.61
      P1  H  7954  7966       L1    11  0.85
      P1  H  7989  7998       L1     5  1.00
      L1  C     8    31       P1  7957  0.86

> <Gold.PLP.Chemscore.Internal.Correction>
0.0214

> <Gold.Rescore>
     Score         DG    S(hbond)    S(metal)    S(lipo)     H(rot)  DE(clash)    DE(int)     intcor
     21.39     -23.54       2.52        0.00     120.50       1.75       0.25       1.90       ----

> <Gold.Chemscore.Fitness>
21.3855

> <Gold.Chemscore.DG>
-23.5383

> <Gold.Chemscore.ZeroCoef>
-5.4800

> <Gold.Chemscore.Hbond>
2.5249

> <Gold.Chemscore.Metal>
0.0000

> <Gold.Chemscore.Lipo>
120.4997

> <Gold.Chemscore.Internal_Hbond>
0.0000

> <Gold.Chemscore.DEClash>
0.2523

> <Gold.Chemscore.DEInternal>
1.9005

> <Gold.Chemscore.Rot>
1.7474

> <Gold.Chemscore.Internal.Correction>
   9.000000E+99

> <Gold.Chemscore.Hbonds>
donor molecule, donor type, donor heavy atom, donor atom, acceptor molecule, acceptor atom, score
      L1  H     3    28       P1  8028  0.59
      P1  H  7954  7966       L1    11  0.85
      P1  H  7989  7998       L1     5  0.54

> <Gold.Chemscore.Hbond.Weighted>
-8.4331

> <Gold.Chemscore.Metal.Weighted>
-0.0000

> <Gold.Chemscore.Lipo.Weighted>
-14.0985

> <Gold.Chemscore.Internal_Hbond.Weighted>
0.0000

> <Gold.Chemscore.DEClash.Weighted>
0.2523

> <Gold.Chemscore.DEInternal.Weighted>
1.9005

> <Gold.Chemscore.Rot.Weighted>
4.4733

> <Gold.Chemscore.Internal.Correction.Weighted>
   9.000000E+99

> <Gold.Protein.RotatedTorsions>
[ 6907 6896 6895 6894 ] final   80.25 input  -60.11 | X-H torsion
[ 7974 7965 7964 7962 ] final   41.16 input  175.53 | X-H torsion
[ 8008 7997 7996 7995 ] final -102.43 input   59.86 | X-H torsion
[ 10167 10162 10161 10158 ] final  -15.06 input  -65.29 | X-H torsion
[ 10718 10713 10712 10709 ] final   80.02 input   66.30 | X-H torsion
[ 10763 10752 10751 10750 ] final  -47.33 input  -60.55 | X-H torsion
[ 11005 11000 10999 10996 ] final  -45.27 input  -57.11 | X-H torsion

> <Gold.Protein.ActiveResidues>
 VAL166  LYS551  ARG553  GLY616  TRP617  ASP618  TYR619  PRO620  LYS621  CYS622 
 ASP623  PHE694  ASN695  SER759  ASP760  ASP761  ALA762  ILE779  LEU786  VAL792 
 PHE793  MET794  SER795  GLU796  ALA797  LYS798  CYS799  TRP800  GLU811  SER814 

> <Gold.Protein.RotatedAtoms>
  152.5228  134.3386  159.9208 H   0  0  0  0  0  0  0  0  0  0  0  0  # atno 6907 bound_to 6896
  151.3336  133.3984  159.2672 H   0  0  0  0  0  0  0  0  0  0  0  0  # atno 6908 bound_to 6896
  150.9861  134.9223  159.7930 H   0  0  0  0  0  0  0  0  0  0  0  0  # atno 6909 bound_to 6896
  146.0846  139.5448  142.9515 H   0  0  0  0  0  0  0  0  0  0  0  0  # atno 7974 bound_to 7965
  154.8566  140.0428  157.1638 H   0  0  0  0  0  0  0  0  0  0  0  0  # atno 8008 bound_to 7997
  154.8885  140.2983  155.5364 H   0  0  0  0  0  0  0  0  0  0  0  0  # atno 8009 bound_to 7997
  156.2997  140.2398  156.3897 H   0  0  0  0  0  0  0  0  0  0  0  0  # atno 8010 bound_to 7997
  140.7212  143.5257  150.9579 H   0  0  0  0  0  0  0  0  0  0  0  0  # atno 10167 bound_to 10162
  157.6794  130.9940  150.2017 H   0  0  0  0  0  0  0  0  0  0  0  0  # atno 10718 bound_to 10713
  154.0596  135.6620  153.4810 H   0  0  0  0  0  0  0  0  0  0  0  0  # atno 10763 bound_to 10752
  153.0432  135.5131  154.7672 H   0  0  0  0  0  0  0  0  0  0  0  0  # atno 10764 bound_to 10752
  154.6704  135.3028  154.9716 H   0  0  0  0  0  0  0  0  0  0  0  0  # atno 10765 bound_to 10752
  141.0505  133.6745  156.2990 H   0  0  0  0  0  0  0  0  0  0  0  0  # atno 11005 bound_to 11000
  145.6154  141.0332  143.1944 LP  0  0  0  0  0  0  0  0  0  0  0  0  # atno 17320 bound_to 7965
  144.7317  139.7706  143.7345 LP  0  0  0  0  0  0  0  0  0  0  0  0  # atno 17321 bound_to 7965
  139.8976  143.6876  152.3136 LP  0  0  0  0  0  0  0  0  0  0  0  0  # atno 17342 bound_to 10162
  139.7213  144.7602  151.0950 LP  0  0  0  0  0  0  0  0  0  0  0  0  # atno 17343 bound_to 10162
  156.2707  130.3721  149.8035 LP  0  0  0  0  0  0  0  0  0  0  0  0  # atno 17370 bound_to 10713
  156.5753  130.8442  151.3368 LP  0  0  0  0  0  0  0  0  0  0  0  0  # atno 17371 bound_to 10713
  140.6065  134.5502  157.5526 LP  0  0  0  0  0  0  0  0  0  0  0  0  # atno 17394 bound_to 11000
  139.9346  134.7899  156.0837 LP  0  0  0  0  0  0  0  0  0  0  0  0  # atno 17395 bound_to 11000

$$$$
