AV-unprocessed.smi:3072|AV-procd|sdf|11718|dock2
  -GOLD-   2272017123D 1   1.00000     0.00000
 Structure written by MMmdl.
 25 26  0  0  0  0  0  0  0  0  2 V2000
  145.8836  135.8102  154.0148 C   0  0  0  0  0  0  0  0  0  0  0  0
  145.8243  136.8246  154.8625 N   0  0  0  0  0  0  0  0  0  0  0  0
  145.3485  137.8371  154.1153 N   0  0  0  0  0  0  0  0  0  0  0  0
  145.1085  137.4724  152.8116 C   0  0  0  0  0  0  0  0  0  0  0  0
  145.4478  136.1516  152.6999 C   0  0  0  0  0  0  0  0  0  0  0  0
  145.3885  135.2518  151.4920 C   0  0  1  0  0  0  0  0  0  0  0  0
  145.7268  133.7937  151.8587 C   0  0  0  0  0  0  0  0  0  0  0  0
  145.6178  132.8874  150.6223 C   0  0  0  0  0  0  0  0  0  0  0  0
  144.2353  133.0203  149.9627 C   0  0  0  0  0  0  0  0  0  0  0  0
  143.9481  134.4328  149.6316 N   0  3  0  0  0  0  0  0  0  0  0  0
  144.0065  135.3251  150.8102 C   0  0  0  0  0  0  0  0  0  0  0  0
  145.1950  138.7572  154.5035 H   0  0  0  0  0  0  0  0  0  0  0  0
  146.2424  134.8574  154.3753 H   0  0  0  0  0  0  0  0  0  0  0  0
  144.7238  138.1721  152.0842 H   0  0  0  0  0  0  0  0  0  0  0  0
  146.1298  135.5855  150.7639 H   0  0  0  0  0  0  0  0  0  0  0  0
  146.7327  133.7330  152.2757 H   0  0  0  0  0  0  0  0  0  0  0  0
  145.0467  133.4334  152.6319 H   0  0  0  0  0  0  0  0  0  0  0  0
  146.3941  133.1534  149.9034 H   0  0  0  0  0  0  0  0  0  0  0  0
  145.7993  131.8497  150.9034 H   0  0  0  0  0  0  0  0  0  0  0  0
  144.1917  132.4243  149.0508 H   0  0  0  0  0  0  0  0  0  0  0  0
  143.4585  132.6420  150.6287 H   0  0  0  0  0  0  0  0  0  0  0  0
  144.6286  134.7490  148.9555 H   0  0  0  0  0  0  0  0  0  0  0  0
  143.2162  135.0424  151.5072 H   0  0  0  0  0  0  0  0  0  0  0  0
  143.7961  136.3452  150.4873 H   0  0  0  0  0  0  0  0  0  0  0  0
  143.0277  134.4929  149.2200 H   0  0  0  0  0  0  0  0  0  0  0  0
  1  5  1  0  0  0  0
  1  2  2  0  0  0  0
  1 13  1  0  0  0  0
  2  3  1  0  0  0  0
  3 12  1  0  0  0  0
  3  4  1  0  0  0  0
  4  5  2  0  0  0  0
  4 14  1  0  0  0  0
  5  6  1  0  0  0  0
  6 11  1  0  0  0  0
  6  7  1  0  0  0  0
  6 15  1  0  0  0  0
  7  8  1  0  0  0  0
  7 16  1  0  0  0  0
  7 17  1  0  0  0  0
  8  9  1  0  0  0  0
  8 18  1  0  0  0  0
  8 19  1  0  0  0  0
  9 10  1  0  0  0  0
  9 20  1  0  0  0  0
  9 21  1  0  0  0  0
 10 11  1  0  0  0  0
 10 22  1  0  0  0  0
 10 25  1  0  0  0  0
 11 23  1  0  0  0  0
 11 24  1  0  0  0  0
M  CHG  1  10   1
M  END
> <s_m_source_file>
AV-unprocessed.smi

> <i_m_source_file_index>
3072

> <i_lp_mmshare_version>
43012

> <i_f3d_flags>
0

> <s_epik_input>
W2NIXTFbbkhdbltjSF1jMVtDQEBIXTJbQ0gyXVtDSDJdW0NIMl1bTkhdW0NIMl0y

> <s_epik_cmdline>
J2VwaWtfcHl0aG9uJywgJy1waCcsICc3LjAnLCAnLXRuJywgJzgnLCAnLW1hJywgJzIwMCcsICctbWV0YWxfYmluZGluZycsICctaW1hZScsICc8aW5maWxlLm1hZT4nLCAnLW9tYWUnLCAnPG91dGZpbGUubWFlPic=

> <r_lp_tautomer_probability>
1

> <r_epik_Ionization_Penalty>
0.000160186

> <r_epik_Ionization_Penalty_Charging>
0.000157527

> <r_epik_Ionization_Penalty_Neutral>
2.65916e-06

> <r_epik_State_Penalty>
-0

> <r_epik_Charging_Adjusted_Penalty>
0.000157527

> <i_epik_Tot_Q>
1

> <i_epik_Tot_abs_Q>
1

> <r_epik_Metal_State_Penalty>
-0

> <b_epik_Metal_Only>
0

> <s_lp_Force_Field>
OPLS_2005

> <r_lp_Energy>
12.3326

> <b_lp_Chiralities_Consistent>
1

> <s_lp_Variant>
AV-unprocessed.smi:3072-2

> <Gold.Version>
5.8.1

> <Gold.Id.Protein>
6NUR|6NUR_protein|mol2

> <Gold.PLP.Fitness>
30.8741

> <Gold.PLP.PLP>
-16.5177

> <Gold.PLP.part.hbond>
-2.0000

> <Gold.PLP.part.metal>
0.0000

> <Gold.PLP.part.buried>
-3.8788

> <Gold.PLP.part.nonpolar>
-12.6370

> <Gold.PLP.part.repulsive>
0.1198

> <Gold.PLP.ligand.clash>
0.0000

> <Gold.PLP.ligand.torsion>
0.1247

> <Gold.PLP.Chemscore.Hbond>
2.8715

> <Gold.PLP.Chemscore.CHOScore>
1.9930

> <Gold.PLP.Chemscore.Metal>
0.0000

> <Gold.Chemscore.Hbonds>
donor molecule, donor type, donor heavy atom, donor atom, acceptor molecule, acceptor atom, score
      L1  H    10    22       P1  7921  1.00
      L1  H    10    25       P1 10186  1.87
      L1  C     4    14       P1 10171  1.00
      L1  C     4    14       P1 10175  0.99

> <Gold.PLP.Chemscore.Internal.Correction>
0.0123

> <Gold.Rescore>
     Score         DG    S(hbond)    S(metal)    S(lipo)     H(rot)  DE(clash)    DE(int)     intcor
     15.15     -15.22       1.93        0.00      50.10       1.00       0.06       0.01       ----

> <Gold.Chemscore.Fitness>
15.1540

> <Gold.Chemscore.DG>
-15.2247

> <Gold.Chemscore.ZeroCoef>
-5.4800

> <Gold.Chemscore.Hbond>
1.9291

> <Gold.Chemscore.Metal>
0.0000

> <Gold.Chemscore.Lipo>
50.0993

> <Gold.Chemscore.Internal_Hbond>
0.0000

> <Gold.Chemscore.DEClash>
0.0632

> <Gold.Chemscore.DEInternal>
0.0075

> <Gold.Chemscore.Rot>
1.0000

> <Gold.Chemscore.Internal.Correction>
   9.000000E+99

> <Gold.Chemscore.Hbonds>
donor molecule, donor type, donor heavy atom, donor atom, acceptor molecule, acceptor atom, score
      L1  H    10    22       P1  7921  0.96
      L1  H    10    25       P1 10186  0.84

> <Gold.Chemscore.Hbond.Weighted>
-6.4431

> <Gold.Chemscore.Metal.Weighted>
-0.0000

> <Gold.Chemscore.Lipo.Weighted>
-5.8616

> <Gold.Chemscore.Internal_Hbond.Weighted>
0.0000

> <Gold.Chemscore.DEClash.Weighted>
0.0632

> <Gold.Chemscore.DEInternal.Weighted>
0.0075

> <Gold.Chemscore.Rot.Weighted>
2.5600

> <Gold.Chemscore.Internal.Correction.Weighted>
   9.000000E+99

> <Gold.Protein.RotatedTorsions>
[ 6907 6896 6895 6894 ] final -159.34 input  -60.11 | X-H torsion
[ 7974 7965 7964 7962 ] final  -49.48 input  175.53 | X-H torsion
[ 8008 7997 7996 7995 ] final  -46.45 input   59.86 | X-H torsion
[ 10167 10162 10161 10158 ] final  -69.28 input  -65.29 | X-H torsion
[ 10718 10713 10712 10709 ] final    2.76 input   66.30 | X-H torsion
[ 10763 10752 10751 10750 ] final  142.55 input  -60.55 | X-H torsion
[ 11005 11000 10999 10996 ] final  -13.31 input  -57.11 | X-H torsion

> <Gold.Protein.ActiveResidues>
 VAL166  LYS551  ARG553  GLY616  TRP617  ASP618  TYR619  PRO620  LYS621  CYS622 
 ASP623  PHE694  ASN695  SER759  ASP760  ASP761  ALA762  ILE779  LEU786  VAL792 
 PHE793  MET794  SER795  GLU796  ALA797  LYS798  CYS799  TRP800  GLU811  SER814 

> <Gold.Protein.RotatedAtoms>
  151.3321  133.3996  159.2663 H   0  0  0  0  0  0  0  0  0  0  0  0  # atno 6907 bound_to 6896
  150.9947  134.9274  159.7930 H   0  0  0  0  0  0  0  0  0  0  0  0  # atno 6908 bound_to 6896
  152.5257  134.3286  159.9227 H   0  0  0  0  0  0  0  0  0  0  0  0  # atno 6909 bound_to 6896
  145.9401  140.7670  142.9556 H   0  0  0  0  0  0  0  0  0  0  0  0  # atno 7974 bound_to 7965
  154.4007  140.1371  156.4014 H   0  0  0  0  0  0  0  0  0  0  0  0  # atno 8008 bound_to 7997
  155.7821  140.3481  155.5282 H   0  0  0  0  0  0  0  0  0  0  0  0  # atno 8009 bound_to 7997
  155.8663  140.0964  157.1570 H   0  0  0  0  0  0  0  0  0  0  0  0  # atno 8010 bound_to 7997
  140.5443  143.2313  151.7032 H   0  0  0  0  0  0  0  0  0  0  0  0  # atno 10167 bound_to 10162
  156.8678  130.5609  149.5659 H   0  0  0  0  0  0  0  0  0  0  0  0  # atno 10718 bound_to 10713
  153.9577  135.2963  155.3435 H   0  0  0  0  0  0  0  0  0  0  0  0  # atno 10763 bound_to 10752
  154.7392  135.5032  153.9096 H   0  0  0  0  0  0  0  0  0  0  0  0  # atno 10764 bound_to 10752
  153.0962  135.6722  153.9868 H   0  0  0  0  0  0  0  0  0  0  0  0  # atno 10765 bound_to 10752
  140.7747  133.8410  155.9238 H   0  0  0  0  0  0  0  0  0  0  0  0  # atno 11005 bound_to 11000
  144.6778  140.2267  143.7360 LP  0  0  0  0  0  0  0  0  0  0  0  0  # atno 17320 bound_to 7965
  145.8311  139.2086  143.1882 LP  0  0  0  0  0  0  0  0  0  0  0  0  # atno 17321 bound_to 7965
  139.5001  144.3920  152.0270 LP  0  0  0  0  0  0  0  0  0  0  0  0  # atno 17342 bound_to 10162
  140.3031  144.3623  150.6054 LP  0  0  0  0  0  0  0  0  0  0  0  0  # atno 17343 bound_to 10162
  156.0742  130.5768  150.9442 LP  0  0  0  0  0  0  0  0  0  0  0  0  # atno 17370 bound_to 10713
  157.6213  131.0929  150.8617 LP  0  0  0  0  0  0  0  0  0  0  0  0  # atno 17371 bound_to 10713
  140.9540  134.1742  157.4706 LP  0  0  0  0  0  0  0  0  0  0  0  0  # atno 17394 bound_to 11000
  139.8750  134.9920  156.5574 LP  0  0  0  0  0  0  0  0  0  0  0  0  # atno 17395 bound_to 11000

$$$$
