AV-unprocessed.smi:3030|AV-procd|sdf|11536|dock4
  -GOLD-   2272016483D 1   1.00000     0.00000
 Structure written by MMmdl.
 52 53  0  0  0  0  0  0  0  0  1 V2000
  154.6753  140.7203  160.0378 C   0  0  0  0  0  0  0  0  0  0  0  0
  153.1794  140.7961  160.3636 C   0  0  0  0  0  0  0  0  0  0  0  0
  152.5780  142.0219  159.8588 N   0  0  0  0  0  0  0  0  0  0  0  0
  153.0316  143.2713  160.2684 C   0  0  0  0  0  0  0  0  0  0  0  0
  152.4774  144.4378  159.8857 C   0  0  0  0  0  0  0  0  0  0  0  0
  151.3117  144.4223  158.9791 C   0  0  0  0  0  0  0  0  0  0  0  0
  150.7818  145.4697  158.6084 O   0  0  0  0  0  0  0  0  0  0  0  0
  150.8224  143.0867  158.5456 C   0  0  0  0  0  0  0  0  0  0  0  0
  149.7195  143.0830  157.6754 N   0  0  0  0  0  0  0  0  0  0  0  0
  148.6672  142.2456  157.6328 C   0  0  0  0  0  0  0  0  0  0  0  0
  148.4586  141.3058  158.3995 O   0  0  0  0  0  0  0  0  0  0  0  0
  147.8430  142.5698  156.6266 N   0  0  0  0  0  0  0  0  0  0  0  0
  146.6060  141.8690  156.2769 C   0  0  1  0  0  0  0  0  0  0  0  0
  145.3877  142.8070  156.4132 C   0  0  0  0  0  0  0  0  0  0  0  0
  145.3609  143.9013  155.3316 C   0  0  2  0  0  0  0  0  0  0  0  0
  144.1350  144.8127  155.4850 C   0  0  0  0  0  0  0  0  0  0  0  0
  145.4150  143.2568  153.9378 C   0  0  0  0  0  0  0  0  0  0  0  0
  146.6416  142.3447  153.7799 C   0  0  0  0  0  0  0  0  0  0  0  0
  146.7001  141.2344  154.8598 C   0  0  1  0  0  0  0  0  0  0  0  0
  147.9264  140.2870  154.6774 C   0  0  0  0  0  0  0  0  0  0  0  0
  149.2397  141.0565  154.4382 C   0  0  0  0  0  0  0  0  0  0  0  0
  147.7309  139.2746  153.5318 C   0  0  0  0  0  0  0  0  0  0  0  0
  151.4769  141.9893  159.0054 C   0  0  0  0  0  0  0  0  0  0  0  0
  155.1088  139.7963  160.4206 H   0  0  0  0  0  0  0  0  0  0  0  0
  155.2191  141.5536  160.4842 H   0  0  0  0  0  0  0  0  0  0  0  0
  154.8449  140.7459  158.9610 H   0  0  0  0  0  0  0  0  0  0  0  0
  152.6639  139.9355  159.9356 H   0  0  0  0  0  0  0  0  0  0  0  0
  153.0309  140.7354  161.4424 H   0  0  0  0  0  0  0  0  0  0  0  0
  153.8874  143.2406  160.9273 H   0  0  0  0  0  0  0  0  0  0  0  0
  152.8668  145.3857  160.2267 H   0  0  0  0  0  0  0  0  0  0  0  0
  149.7273  143.8254  156.9908 H   0  0  0  0  0  0  0  0  0  0  0  0
  148.0917  143.3587  156.0480 H   0  0  0  0  0  0  0  0  0  0  0  0
  146.4528  141.0634  156.9960 H   0  0  0  0  0  0  0  0  0  0  0  0
  144.4756  142.2125  156.3450 H   0  0  0  0  0  0  0  0  0  0  0  0
  145.3741  143.2609  157.4052 H   0  0  0  0  0  0  0  0  0  0  0  0
  146.2475  144.5257  155.4510 H   0  0  0  0  0  0  0  0  0  0  0  0
  143.2063  144.2518  155.3750 H   0  0  0  0  0  0  0  0  0  0  0  0
  144.1375  145.6034  154.7342 H   0  0  0  0  0  0  0  0  0  0  0  0
  144.1213  145.2901  156.4654 H   0  0  0  0  0  0  0  0  0  0  0  0
  144.5074  142.6770  153.7631 H   0  0  0  0  0  0  0  0  0  0  0  0
  145.4377  144.0313  153.1705 H   0  0  0  0  0  0  0  0  0  0  0  0
  146.5998  141.9102  152.7824 H   0  0  0  0  0  0  0  0  0  0  0  0
  147.5509  142.9460  153.8148 H   0  0  0  0  0  0  0  0  0  0  0  0
  145.8054  140.6228  154.7322 H   0  0  0  0  0  0  0  0  0  0  0  0
  148.0595  139.7126  155.5950 H   0  0  0  0  0  0  0  0  0  0  0  0
  149.1538  141.7351  153.5890 H   0  0  0  0  0  0  0  0  0  0  0  0
  150.0636  140.3729  154.2310 H   0  0  0  0  0  0  0  0  0  0  0  0
  149.5374  141.6392  155.3090 H   0  0  0  0  0  0  0  0  0  0  0  0
  147.5151  139.7794  152.5896 H   0  0  0  0  0  0  0  0  0  0  0  0
  146.9183  138.5779  153.7357 H   0  0  0  0  0  0  0  0  0  0  0  0
  148.6256  138.6689  153.3845 H   0  0  0  0  0  0  0  0  0  0  0  0
  151.2038  140.9831  158.7312 H   0  0  0  0  0  0  0  0  0  0  0  0
  1  2  1  0  0  0  0
  1 24  1  0  0  0  0
  1 25  1  0  0  0  0
  1 26  1  0  0  0  0
  2  3  1  0  0  0  0
  2 27  1  0  0  0  0
  2 28  1  0  0  0  0
  3 23  1  0  0  0  0
  3  4  1  0  0  0  0
  4  5  2  0  0  0  0
  4 29  1  0  0  0  0
  5  6  1  0  0  0  0
  5 30  1  0  0  0  0
  6  7  2  0  0  0  0
  6  8  1  0  0  0  0
  8  9  1  0  0  0  0
  8 23  2  0  0  0  0
  9 10  1  0  0  0  0
  9 31  1  0  0  0  0
 10 11  2  0  0  0  0
 10 12  1  0  0  0  0
 12 13  1  0  0  0  0
 12 32  1  0  0  0  0
 13 19  1  0  0  0  0
 13 14  1  0  0  0  0
 13 33  1  0  0  0  0
 14 15  1  0  0  0  0
 14 34  1  0  0  0  0
 14 35  1  0  0  0  0
 15 16  1  0  0  0  0
 15 17  1  0  0  0  0
 15 36  1  0  0  0  0
 16 37  1  0  0  0  0
 16 38  1  0  0  0  0
 16 39  1  0  0  0  0
 17 18  1  0  0  0  0
 17 40  1  0  0  0  0
 17 41  1  0  0  0  0
 18 19  1  0  0  0  0
 18 42  1  0  0  0  0
 18 43  1  0  0  0  0
 19 20  1  0  0  0  0
 19 44  1  0  0  0  0
 20 21  1  0  0  0  0
 20 22  1  0  0  0  0
 20 45  1  0  0  0  0
 21 46  1  0  0  0  0
 21 47  1  0  0  0  0
 21 48  1  0  0  0  0
 22 49  1  0  0  0  0
 22 50  1  0  0  0  0
 22 51  1  0  0  0  0
 23 52  1  0  0  0  0
M  END
> <s_m_source_file>
AV-unprocessed.smi

> <i_m_source_file_index>
3030

> <i_lp_mmshare_version>
43012

> <i_f3d_flags>
0

> <s_epik_input>
W0NIM11bQ0gyXW4xW2NIXVtjSF1jKD1PKWMoW2NIXTEpW05IXUMoPU8pW05IXVtDQEBIXTJbQ0gyXVtDQEBIXShbQ0gzXSlbQ0gyXVtDSDJdW0NASF0yW0NIXShbQ0gzXSlbQ0gzXQ==

> <s_epik_cmdline>
J2VwaWtfcHl0aG9uJywgJy1waCcsICc3LjAnLCAnLXRuJywgJzgnLCAnLW1hJywgJzIwMCcsICctbWV0YWxfYmluZGluZycsICctaW1hZScsICc8aW5maWxlLm1hZT4nLCAnLW9tYWUnLCAnPG91dGZpbGUubWFlPic=

> <r_lp_tautomer_probability>
1

> <r_epik_Ionization_Penalty>
0.00147933

> <r_epik_Ionization_Penalty_Charging>
0.00145753

> <r_epik_Ionization_Penalty_Neutral>
2.17987e-05

> <r_epik_State_Penalty>
0.00097457

> <r_epik_Charging_Adjusted_Penalty>
0.0024321

> <i_epik_Tot_Q>
0

> <i_epik_Tot_abs_Q>
0

> <r_epik_Metal_State_Penalty>
-0

> <b_epik_Metal_Only>
0

> <s_lp_Force_Field>
OPLS_2005

> <r_lp_Energy>
8.95674

> <b_lp_Chiralities_Consistent>
1

> <s_lp_Variant>
AV-unprocessed.smi:3030-4

> <Gold.Version>
5.8.1

> <Gold.Id.Protein>
6NUR|6NUR_protein|mol2

> <Gold.PLP.Fitness>
50.1398

> <Gold.PLP.PLP>
-45.3047

> <Gold.PLP.part.hbond>
-3.6791

> <Gold.PLP.part.metal>
0.0000

> <Gold.PLP.part.buried>
-3.5867

> <Gold.PLP.part.nonpolar>
-36.9032

> <Gold.PLP.part.repulsive>
0.2499

> <Gold.PLP.ligand.clash>
0.0000

> <Gold.PLP.ligand.torsion>
0.6147

> <Gold.PLP.Chemscore.Hbond>
2.0000

> <Gold.PLP.Chemscore.CHOScore>
0.0000

> <Gold.PLP.Chemscore.Metal>
0.0000

> <Gold.Chemscore.Hbonds>
donor molecule, donor type, donor heavy atom, donor atom, acceptor molecule, acceptor atom, score
      L1  H     9    31       P1  8028  0.99
      L1  H    12    32       P1  8028  1.00

> <Gold.PLP.Chemscore.Internal.Correction>
0.0645

> <Gold.Rescore>
     Score         DG    S(hbond)    S(metal)    S(lipo)     H(rot)  DE(clash)    DE(int)     intcor
     19.31     -20.62       1.67        0.00     109.58       1.27       0.52       0.79       ----

> <Gold.Chemscore.Fitness>
19.3133

> <Gold.Chemscore.DG>
-20.6232

> <Gold.Chemscore.ZeroCoef>
-5.4800

> <Gold.Chemscore.Hbond>
1.6675

> <Gold.Chemscore.Metal>
0.0000

> <Gold.Chemscore.Lipo>
109.5822

> <Gold.Chemscore.Internal_Hbond>
0.0000

> <Gold.Chemscore.DEClash>
0.5197

> <Gold.Chemscore.DEInternal>
0.7901

> <Gold.Chemscore.Rot>
1.2685

> <Gold.Chemscore.Internal.Correction>
   9.000000E+99

> <Gold.Chemscore.Hbonds>
donor molecule, donor type, donor heavy atom, donor atom, acceptor molecule, acceptor atom, score
      L1  H     9    31       P1  8028  0.88
      L1  H    12    32       P1  8028  0.39

> <Gold.Chemscore.Hbond.Weighted>
-5.5695

> <Gold.Chemscore.Metal.Weighted>
-0.0000

> <Gold.Chemscore.Lipo.Weighted>
-12.8211

> <Gold.Chemscore.Internal_Hbond.Weighted>
0.0000

> <Gold.Chemscore.DEClash.Weighted>
0.5197

> <Gold.Chemscore.DEInternal.Weighted>
0.7901

> <Gold.Chemscore.Rot.Weighted>
3.2474

> <Gold.Chemscore.Internal.Correction.Weighted>
   9.000000E+99

> <Gold.Protein.RotatedTorsions>
[ 6907 6896 6895 6894 ] final   45.90 input  -60.11 | X-H torsion
[ 7974 7965 7964 7962 ] final -175.70 input  175.53 | X-H torsion
[ 8008 7997 7996 7995 ] final  123.77 input   59.86 | X-H torsion
[ 10167 10162 10161 10158 ] final   77.64 input  -65.29 | X-H torsion
[ 10718 10713 10712 10709 ] final -144.62 input   66.30 | X-H torsion
[ 10763 10752 10751 10750 ] final -179.49 input  -60.55 | X-H torsion
[ 11005 11000 10999 10996 ] final  -55.25 input  -57.11 | X-H torsion

> <Gold.Protein.ActiveResidues>
 VAL166  LYS551  ARG553  GLY616  TRP617  ASP618  TYR619  PRO620  LYS621  CYS622 
 ASP623  PHE694  ASN695  SER759  ASP760  ASP761  ALA762  ILE779  LEU786  VAL792 
 PHE793  MET794  SER795  GLU796  ALA797  LYS798  CYS799  TRP800  GLU811  SER814 

> <Gold.Protein.RotatedAtoms>
  152.2500  134.8142  160.0447 H   0  0  0  0  0  0  0  0  0  0  0  0  # atno 6907 bound_to 6896
  151.8826  133.3493  159.3779 H   0  0  0  0  0  0  0  0  0  0  0  0  # atno 6908 bound_to 6896
  150.7081  134.4930  159.5569 H   0  0  0  0  0  0  0  0  0  0  0  0  # atno 6909 bound_to 6896
  144.7127  140.1282  143.6400 H   0  0  0  0  0  0  0  0  0  0  0  0  # atno 7974 bound_to 7965
  156.2778  140.2755  156.1681 H   0  0  0  0  0  0  0  0  0  0  0  0  # atno 8008 bound_to 7997
  155.0683  140.0387  157.2618 H   0  0  0  0  0  0  0  0  0  0  0  0  # atno 8009 bound_to 7997
  154.7061  140.2659  155.6679 H   0  0  0  0  0  0  0  0  0  0  0  0  # atno 8010 bound_to 7997
  139.9794  144.5837  150.7914 H   0  0  0  0  0  0  0  0  0  0  0  0  # atno 10167 bound_to 10162
  156.3723  130.7794  151.1977 H   0  0  0  0  0  0  0  0  0  0  0  0  # atno 10718 bound_to 10713
  154.5344  135.2802  155.1151 H   0  0  0  0  0  0  0  0  0  0  0  0  # atno 10763 bound_to 10752
  154.2658  135.6313  153.5295 H   0  0  0  0  0  0  0  0  0  0  0  0  # atno 10764 bound_to 10752
  152.9964  135.5616  154.5867 H   0  0  0  0  0  0  0  0  0  0  0  0  # atno 10765 bound_to 10752
  141.1065  133.6613  156.4442 H   0  0  0  0  0  0  0  0  0  0  0  0  # atno 11005 bound_to 11000
  145.9311  139.2607  143.1325 LP  0  0  0  0  0  0  0  0  0  0  0  0  # atno 17320 bound_to 7965
  145.9522  140.8900  143.0253 LP  0  0  0  0  0  0  0  0  0  0  0  0  # atno 17321 bound_to 7965
  140.7494  143.2938  151.3258 LP  0  0  0  0  0  0  0  0  0  0  0  0  # atno 17342 bound_to 10162
  139.6421  144.0520  152.2562 LP  0  0  0  0  0  0  0  0  0  0  0  0  # atno 17343 bound_to 10162
  157.7485  131.0368  150.4428 LP  0  0  0  0  0  0  0  0  0  0  0  0  # atno 17370 bound_to 10713
  156.4657  130.4041  149.6548 LP  0  0  0  0  0  0  0  0  0  0  0  0  # atno 17371 bound_to 10713
  140.4889  134.6594  157.5202 LP  0  0  0  0  0  0  0  0  0  0  0  0  # atno 17394 bound_to 11000
  139.9937  134.6944  155.9645 LP  0  0  0  0  0  0  0  0  0  0  0  0  # atno 17395 bound_to 11000

$$$$
