AV-unprocessed.smi:2871|AV-procd|sdf|11030|dock5
  -GOLD-   2272015493D 1   1.00000     0.00000
 Structure written by MMmdl.
 38 40  0  0  0  0  0  0  0  0  1 V2000
  154.8124  138.5708  159.3250 C   0  0  0  0  0  0  0  0  0  0  0  0
  154.4099  139.8248  159.9529 N   0  0  0  0  0  0  0  0  0  0  0  0
  155.0903  140.2938  161.1535 C   0  0  0  0  0  0  0  0  0  0  0  0
  153.4281  140.6313  159.3359 C   0  0  0  0  0  0  0  0  0  0  0  0
  152.9491  141.8227  159.9335 C   0  0  0  0  0  0  0  0  0  0  0  0
  151.9689  142.5492  159.2205 C   0  0  0  0  0  0  0  0  0  0  0  0
  151.3769  143.8455  159.7531 C   0  0  0  0  0  0  0  0  0  0  0  0
  150.0485  143.7449  159.8071 F   0  0  0  0  0  0  0  0  0  0  0  0
  151.8287  144.1267  160.9759 F   0  0  0  0  0  0  0  0  0  0  0  0
  151.6998  144.8528  158.9418 F   0  0  0  0  0  0  0  0  0  0  0  0
  151.5094  142.1269  158.0213 N   0  0  0  0  0  0  0  0  0  0  0  0
  152.0201  140.9937  157.5415 C   0  0  0  0  0  0  0  0  0  0  0  0
  151.5310  140.5930  156.3120 N   0  0  0  0  0  0  0  0  0  0  0  0
  150.1414  140.2380  156.0513 C   0  0  2  0  0  0  0  0  0  0  0  0
  149.9933  139.0035  155.1530 C   0  0  0  0  0  0  0  0  0  0  0  0
  149.1226  139.5452  154.0128 C   0  0  1  0  0  0  0  0  0  0  0  0
  147.6905  139.8556  154.4699 C   0  0  0  0  0  0  0  0  0  0  0  0
  147.8944  141.1255  155.2959 C   0  0  0  0  0  0  0  0  0  0  0  0
  149.4160  141.3103  155.2213 C   0  0  2  0  0  0  0  0  0  0  0  0
  149.6516  140.8543  153.8986 O   0  0  0  0  0  0  0  0  0  0  0  0
  152.9450  140.2325  158.1345 N   0  0  0  0  0  0  0  0  0  0  0  0
  153.9613  137.8937  159.2437 H   0  0  0  0  0  0  0  0  0  0  0  0
  155.5860  138.0660  159.9035 H   0  0  0  0  0  0  0  0  0  0  0  0
  155.2072  138.7525  158.3248 H   0  0  0  0  0  0  0  0  0  0  0  0
  154.3771  140.4427  161.9647 H   0  0  0  0  0  0  0  0  0  0  0  0
  155.6030  141.2365  160.9601 H   0  0  0  0  0  0  0  0  0  0  0  0
  155.8346  139.5740  161.4943 H   0  0  0  0  0  0  0  0  0  0  0  0
  153.3075  142.1732  160.8893 H   0  0  0  0  0  0  0  0  0  0  0  0
  152.2000  140.4740  155.5652 H   0  0  0  0  0  0  0  0  0  0  0  0
  149.6311  140.0980  157.0054 H   0  0  0  0  0  0  0  0  0  0  0  0
  150.9566  138.6708  154.7633 H   0  0  0  0  0  0  0  0  0  0  0  0
  149.5303  138.1622  155.6696 H   0  0  0  0  0  0  0  0  0  0  0  0
  149.1782  138.9569  153.0967 H   0  0  0  0  0  0  0  0  0  0  0  0
  147.0428  140.0553  153.6154 H   0  0  0  0  0  0  0  0  0  0  0  0
  147.2550  139.0391  155.0469 H   0  0  0  0  0  0  0  0  0  0  0  0
  147.3807  141.9685  154.8325 H   0  0  0  0  0  0  0  0  0  0  0  0
  147.5342  141.0281  156.3207 H   0  0  0  0  0  0  0  0  0  0  0  0
  149.7411  142.3331  155.4161 H   0  0  0  0  0  0  0  0  0  0  0  0
  1  2  1  0  0  0  0
  1 22  1  0  0  0  0
  1 23  1  0  0  0  0
  1 24  1  0  0  0  0
  2  3  1  0  0  0  0
  2  4  1  0  0  0  0
  3 25  1  0  0  0  0
  3 26  1  0  0  0  0
  3 27  1  0  0  0  0
  4 21  1  0  0  0  0
  4  5  2  0  0  0  0
  5  6  1  0  0  0  0
  5 28  1  0  0  0  0
  6  7  1  0  0  0  0
  6 11  2  0  0  0  0
  7  8  1  0  0  0  0
  7  9  1  0  0  0  0
  7 10  1  0  0  0  0
 11 12  1  0  0  0  0
 12 13  1  0  0  0  0
 12 21  2  0  0  0  0
 13 14  1  0  0  0  0
 13 29  1  0  0  0  0
 14 19  1  0  0  0  0
 14 15  1  0  0  0  0
 14 30  1  0  0  0  0
 15 16  1  0  0  0  0
 15 31  1  0  0  0  0
 15 32  1  0  0  0  0
 16 20  1  0  0  0  0
 16 17  1  0  0  0  0
 16 33  1  0  0  0  0
 17 18  1  0  0  0  0
 17 34  1  0  0  0  0
 17 35  1  0  0  0  0
 18 19  1  0  0  0  0
 18 36  1  0  0  0  0
 18 37  1  0  0  0  0
 19 20  1  0  0  0  0
 19 38  1  0  0  0  0
M  END
> <s_m_source_file>
AV-unprocessed.smi

> <i_m_source_file_index>
2871

> <i_lp_mmshare_version>
43012

> <i_f3d_flags>
0

> <s_epik_input>
W0NIM11OKFtDSDNdKWMxW2NIXWMoQyhGKShGKUYpbmMobjEpW05IXVtDQEhdKFtDSDJdW0NAQEhdMjMpW0NAQEhdKE8zKVtDSDJdW0NIMl0y

> <s_epik_cmdline>
J2VwaWtfcHl0aG9uJywgJy1waCcsICc3LjAnLCAnLXRuJywgJzgnLCAnLW1hJywgJzIwMCcsICctbWV0YWxfYmluZGluZycsICctaW1hZScsICc8aW5maWxlLm1hZT4nLCAnLW9tYWUnLCAnPG91dGZpbGUubWFlPic=

> <r_lp_tautomer_probability>
1

> <r_epik_Ionization_Penalty>
0.00695968

> <r_epik_Ionization_Penalty_Charging>
0

> <r_epik_Ionization_Penalty_Neutral>
0.00695968

> <r_epik_State_Penalty>
0.0050343

> <r_epik_Charging_Adjusted_Penalty>
0.0050343

> <i_epik_Tot_Q>
0

> <i_epik_Tot_abs_Q>
0

> <r_epik_Metal_State_Penalty>
-0

> <b_epik_Metal_Only>
0

> <s_lp_Force_Field>
OPLS_2005

> <r_lp_Energy>
32.5714

> <b_lp_Chiralities_Consistent>
1

> <s_lp_Variant>
AV-unprocessed.smi:2871-1

> <Gold.Version>
5.8.1

> <Gold.Id.Protein>
6NUR|6NUR_protein|mol2

> <Gold.PLP.Fitness>
44.9872

> <Gold.PLP.PLP>
-39.8390

> <Gold.PLP.part.hbond>
-2.8570

> <Gold.PLP.part.metal>
0.0000

> <Gold.PLP.part.buried>
-1.5152

> <Gold.PLP.part.nonpolar>
-36.1618

> <Gold.PLP.part.repulsive>
2.4400

> <Gold.PLP.ligand.clash>
0.0000

> <Gold.PLP.ligand.torsion>
0.8620

> <Gold.PLP.Chemscore.Hbond>
2.2795

> <Gold.PLP.Chemscore.CHOScore>
0.0000

> <Gold.PLP.Chemscore.Metal>
0.0000

> <Gold.Chemscore.Hbonds>
donor molecule, donor type, donor heavy atom, donor atom, acceptor molecule, acceptor atom, score
      P1  H  7989  7998       L1    20  0.46
      P1  H  7997  8008       L1    21  0.96
      P1  H  8011  8017       L1    20  0.51

> <Gold.PLP.Chemscore.Internal.Correction>
0.0340

> <Gold.Rescore>
     Score         DG    S(hbond)    S(metal)    S(lipo)     H(rot)  DE(clash)    DE(int)     intcor
     14.61     -16.10       1.13        0.00      80.35       1.00       0.67       0.82       ----

> <Gold.Chemscore.Fitness>
14.6109

> <Gold.Chemscore.DG>
-16.1015

> <Gold.Chemscore.ZeroCoef>
-5.4800

> <Gold.Chemscore.Hbond>
1.1320

> <Gold.Chemscore.Metal>
0.0000

> <Gold.Chemscore.Lipo>
80.3479

> <Gold.Chemscore.Internal_Hbond>
0.0000

> <Gold.Chemscore.DEClash>
0.6693

> <Gold.Chemscore.DEInternal>
0.8214

> <Gold.Chemscore.Rot>
1.0000

> <Gold.Chemscore.Internal.Correction>
   9.000000E+99

> <Gold.Chemscore.Hbonds>
donor molecule, donor type, donor heavy atom, donor atom, acceptor molecule, acceptor atom, score
      P1  H  7989  7998       L1    20  0.32
      P1  H  7997  8008       L1    21  0.35
      P1  H  8011  8017       L1    20  0.46

> <Gold.Chemscore.Hbond.Weighted>
-3.7808

> <Gold.Chemscore.Metal.Weighted>
-0.0000

> <Gold.Chemscore.Lipo.Weighted>
-9.4007

> <Gold.Chemscore.Internal_Hbond.Weighted>
0.0000

> <Gold.Chemscore.DEClash.Weighted>
0.6693

> <Gold.Chemscore.DEInternal.Weighted>
0.8214

> <Gold.Chemscore.Rot.Weighted>
2.5600

> <Gold.Chemscore.Internal.Correction.Weighted>
   9.000000E+99

> <Gold.Protein.RotatedTorsions>
[ 6907 6896 6895 6894 ] final -154.25 input  -60.11 | X-H torsion
[ 7974 7965 7964 7962 ] final   50.52 input  175.53 | X-H torsion
[ 8008 7997 7996 7995 ] final  -79.56 input   59.86 | X-H torsion
[ 10167 10162 10161 10158 ] final   -2.59 input  -65.29 | X-H torsion
[ 10718 10713 10712 10709 ] final    9.85 input   66.30 | X-H torsion
[ 10763 10752 10751 10750 ] final   95.05 input  -60.55 | X-H torsion
[ 11005 11000 10999 10996 ] final   92.25 input  -57.11 | X-H torsion

> <Gold.Protein.ActiveResidues>
 VAL166  LYS551  ARG553  GLY616  TRP617  ASP618  TYR619  PRO620  LYS621  CYS622 
 ASP623  PHE694  ASN695  SER759  ASP760  ASP761  ALA762  ILE779  LEU786  VAL792 
 PHE793  MET794  SER795  GLU796  ALA797  LYS798  CYS799  TRP800  GLU811  SER814 

> <Gold.Protein.RotatedAtoms>
  151.2547  133.4332  159.2612 H   0  0  0  0  0  0  0  0  0  0  0  0  # atno 6907 bound_to 6896
  151.0585  134.9721  159.8258 H   0  0  0  0  0  0  0  0  0  0  0  0  # atno 6908 bound_to 6896
  152.5394  134.2498  159.8947 H   0  0  0  0  0  0  0  0  0  0  0  0  # atno 6909 bound_to 6896
  146.0004  139.4433  143.0018 H   0  0  0  0  0  0  0  0  0  0  0  0  # atno 7974 bound_to 7965
  154.5797  140.0676  156.9085 H   0  0  0  0  0  0  0  0  0  0  0  0  # atno 8008 bound_to 7997
  155.2485  140.3350  155.4266 H   0  0  0  0  0  0  0  0  0  0  0  0  # atno 8009 bound_to 7997
  156.2180  140.1786  156.7529 H   0  0  0  0  0  0  0  0  0  0  0  0  # atno 8010 bound_to 7997
  140.6857  143.6639  150.8243 H   0  0  0  0  0  0  0  0  0  0  0  0  # atno 10167 bound_to 10162
  156.9724  130.5974  149.5670 H   0  0  0  0  0  0  0  0  0  0  0  0  # atno 10718 bound_to 10713
  153.2487  135.4268  155.0774 H   0  0  0  0  0  0  0  0  0  0  0  0  # atno 10763 bound_to 10752
  154.8372  135.3420  154.6544 H   0  0  0  0  0  0  0  0  0  0  0  0  # atno 10764 bound_to 10752
  153.6966  135.7030  153.5131 H   0  0  0  0  0  0  0  0  0  0  0  0  # atno 10765 bound_to 10752
  139.8826  134.8722  156.3545 H   0  0  0  0  0  0  0  0  0  0  0  0  # atno 11005 bound_to 11000
  145.7496  140.9977  143.1257 LP  0  0  0  0  0  0  0  0  0  0  0  0  # atno 17320 bound_to 7965
  144.6917  139.9198  143.7467 LP  0  0  0  0  0  0  0  0  0  0  0  0  # atno 17321 bound_to 7965
  140.0346  143.5408  152.2745 LP  0  0  0  0  0  0  0  0  0  0  0  0  # atno 17342 bound_to 10162
  139.6214  144.7629  151.2733 LP  0  0  0  0  0  0  0  0  0  0  0  0  # atno 17343 bound_to 10162
  156.0277  130.5370  150.8452 LP  0  0  0  0  0  0  0  0  0  0  0  0  # atno 17370 bound_to 10713
  157.5583  131.0945  150.9596 LP  0  0  0  0  0  0  0  0  0  0  0  0  # atno 17371 bound_to 10713
  140.9571  133.7413  156.0351 LP  0  0  0  0  0  0  0  0  0  0  0  0  # atno 17394 bound_to 11000
  140.8035  134.3482  157.5433 LP  0  0  0  0  0  0  0  0  0  0  0  0  # atno 17395 bound_to 11000

$$$$
