AV-unprocessed.smi:1638|AV-procd|sdf|6546|dock2
  -GOLD-   22720 7233D 1   1.00000     0.00000
 Structure written by MMmdl.
 41 42  0  0  0  0  0  0  0  0  2 V2000
  151.6073  141.6720  158.0639 C   0  0  0  0  0  0  0  0  0  0  0  0
  151.2620  140.8606  156.8622 C   0  0  0  0  0  0  0  0  0  0  0  0
  152.1854  140.3972  156.0112 N   0  0  0  0  0  0  0  0  0  0  0  0
  151.6239  139.6734  154.9686 N   0  0  0  0  0  0  0  0  0  0  0  0
  150.2885  139.6139  155.0638 C   0  0  0  0  0  0  0  0  0  0  0  0
  149.4603  138.9422  154.1255 N   0  0  0  0  0  0  0  0  0  0  0  0
  148.2020  139.2453  153.7602 C   0  0  0  0  0  0  0  0  0  0  0  0
  147.5518  140.2076  154.1696 O   0  0  0  0  0  0  0  0  0  0  0  0
  147.7244  138.3615  152.8717 N   0  0  0  0  0  0  0  0  0  0  0  0
  146.3878  138.4110  152.2897 C   0  0  0  0  0  0  0  0  0  0  0  0
  145.4960  137.2755  152.8304 C   0  0  0  0  0  0  0  0  0  0  0  0
  146.1187  135.9313  152.6926 N   0  3  0  0  0  0  0  0  0  0  0  0
  145.3289  135.0260  151.8166 C   0  0  0  0  0  0  0  0  0  0  0  0
  146.2544  134.1870  150.9186 C   0  0  0  0  0  0  0  0  0  0  0  0
  146.9008  132.9823  151.6164 C   0  0  0  0  0  0  0  0  0  0  0  0
  147.7078  133.3383  152.8741 C   0  0  0  0  0  0  0  0  0  0  0  0
  146.8126  133.8349  154.0195 C   0  0  0  0  0  0  0  0  0  0  0  0
  146.5153  135.3481  154.0075 C   0  0  0  0  0  0  0  0  0  0  0  0
  149.6028  140.4442  156.4501 S   0  0  0  0  0  0  0  0  0  0  0  0
  152.6611  141.5527  158.3181 H   0  0  0  0  0  0  0  0  0  0  0  0
  151.0061  141.3551  158.9160 H   0  0  0  0  0  0  0  0  0  0  0  0
  151.4111  142.7263  157.8690 H   0  0  0  0  0  0  0  0  0  0  0  0
  149.8716  138.1291  153.6913 H   0  0  0  0  0  0  0  0  0  0  0  0
  148.3208  137.5978  152.5878 H   0  0  0  0  0  0  0  0  0  0  0  0
  145.9466  139.3782  152.5319 H   0  0  0  0  0  0  0  0  0  0  0  0
  146.4752  138.3715  151.2034 H   0  0  0  0  0  0  0  0  0  0  0  0
  145.2360  137.4463  153.8762 H   0  0  0  0  0  0  0  0  0  0  0  0
  144.5599  137.3026  152.2708 H   0  0  0  0  0  0  0  0  0  0  0  0
  144.6368  134.4093  152.3917 H   0  0  0  0  0  0  0  0  0  0  0  0
  144.7006  135.6164  151.1489 H   0  0  0  0  0  0  0  0  0  0  0  0
  145.6738  133.8122  150.0749 H   0  0  0  0  0  0  0  0  0  0  0  0
  147.0262  134.8246  150.4849 H   0  0  0  0  0  0  0  0  0  0  0  0
  146.1305  132.2536  151.8724 H   0  0  0  0  0  0  0  0  0  0  0  0
  147.5585  132.4807  150.9056 H   0  0  0  0  0  0  0  0  0  0  0  0
  148.2220  132.4358  153.2066 H   0  0  0  0  0  0  0  0  0  0  0  0
  148.4898  134.0641  152.6476 H   0  0  0  0  0  0  0  0  0  0  0  0
  145.8830  133.2648  154.0397 H   0  0  0  0  0  0  0  0  0  0  0  0
  147.3020  133.6054  154.9667 H   0  0  0  0  0  0  0  0  0  0  0  0
  147.4064  135.8727  154.3520 H   0  0  0  0  0  0  0  0  0  0  0  0
  145.7361  135.5479  154.7448 H   0  0  0  0  0  0  0  0  0  0  0  0
  146.9781  136.0855  152.1851 H   0  0  0  0  0  0  0  0  0  0  0  0
  1  2  1  0  0  0  0
  1 20  1  0  0  0  0
  1 21  1  0  0  0  0
  1 22  1  0  0  0  0
  2 19  1  0  0  0  0
  2  3  2  0  0  0  0
  3  4  1  0  0  0  0
  4  5  2  0  0  0  0
  5  6  1  0  0  0  0
  5 19  1  0  0  0  0
  6  7  1  0  0  0  0
  6 23  1  0  0  0  0
  7  8  2  0  0  0  0
  7  9  1  0  0  0  0
  9 10  1  0  0  0  0
  9 24  1  0  0  0  0
 10 11  1  0  0  0  0
 10 25  1  0  0  0  0
 10 26  1  0  0  0  0
 11 12  1  0  0  0  0
 11 27  1  0  0  0  0
 11 28  1  0  0  0  0
 12 18  1  0  0  0  0
 12 13  1  0  0  0  0
 12 41  1  0  0  0  0
 13 14  1  0  0  0  0
 13 29  1  0  0  0  0
 13 30  1  0  0  0  0
 14 15  1  0  0  0  0
 14 31  1  0  0  0  0
 14 32  1  0  0  0  0
 15 16  1  0  0  0  0
 15 33  1  0  0  0  0
 15 34  1  0  0  0  0
 16 17  1  0  0  0  0
 16 35  1  0  0  0  0
 16 36  1  0  0  0  0
 17 18  1  0  0  0  0
 17 37  1  0  0  0  0
 17 38  1  0  0  0  0
 18 39  1  0  0  0  0
 18 40  1  0  0  0  0
M  CHG  1  12   1
M  END
> <s_m_source_file>
AV-unprocessed.smi

> <i_m_source_file_index>
1638

> <i_lp_mmshare_version>
43012

> <i_f3d_flags>
0

> <s_epik_input>
W0NIM11jMW5uYyhzMSlbTkhdQyg9TylbTkhdW0NIMl1bQ0gyXU4yW0NIMl1bQ0gyXVtDSDJdW0NIMl1bQ0gyXVtDSDJdMg==

> <s_epik_cmdline>
J2VwaWtfcHl0aG9uJywgJy1waCcsICc3LjAnLCAnLXRuJywgJzgnLCAnLW1hJywgJzIwMCcsICctbWV0YWxfYmluZGluZycsICctaW1hZScsICc8aW5maWxlLm1hZT4nLCAnLW9tYWUnLCAnPG91dGZpbGUubWFlPic=

> <r_lp_tautomer_probability>
1

> <r_epik_Ionization_Penalty>
0.00683162

> <r_epik_Ionization_Penalty_Charging>
0.00256589

> <r_epik_Ionization_Penalty_Neutral>
0.00426573

> <r_epik_State_Penalty>
0.0020046

> <r_epik_Charging_Adjusted_Penalty>
0.00457048

> <i_epik_Tot_Q>
1

> <i_epik_Tot_abs_Q>
1

> <r_epik_Metal_State_Penalty>
0.375345

> <b_epik_Metal_Only>
0

> <s_lp_Force_Field>
OPLS_2005

> <r_lp_Energy>
20.2813

> <b_lp_Chiralities_Consistent>
1

> <s_lp_Variant>
AV-unprocessed.smi:1638-1

> <Gold.Version>
5.8.1

> <Gold.Id.Protein>
6NUR|6NUR_protein|mol2

> <Gold.PLP.Fitness>
40.7855

> <Gold.PLP.PLP>
-28.6114

> <Gold.PLP.part.hbond>
-6.4178

> <Gold.PLP.part.metal>
0.0000

> <Gold.PLP.part.buried>
-0.3523

> <Gold.PLP.part.nonpolar>
-21.8172

> <Gold.PLP.part.repulsive>
0.3123

> <Gold.PLP.ligand.clash>
0.0000

> <Gold.PLP.ligand.torsion>
0.9917

> <Gold.PLP.Chemscore.Hbond>
4.7000

> <Gold.PLP.Chemscore.CHOScore>
0.0000

> <Gold.PLP.Chemscore.Metal>
0.0000

> <Gold.Chemscore.Hbonds>
donor molecule, donor type, donor heavy atom, donor atom, acceptor molecule, acceptor atom, score
      L1  H     9    24       P1  7948  1.00
      L1  H    12    41       P1  7948  2.00
      P1  H  7989  7998       L1     4  0.80
      P1  H  7997  8009       L1     3  0.62

> <Gold.PLP.Chemscore.Internal.Correction>
0.0575

> <Gold.Rescore>
     Score         DG    S(hbond)    S(metal)    S(lipo)     H(rot)  DE(clash)    DE(int)     intcor
     15.68     -17.83       2.92        0.00      57.08       1.60       0.26       1.88       ----

> <Gold.Chemscore.Fitness>
15.6823

> <Gold.Chemscore.DG>
-17.8252

> <Gold.Chemscore.ZeroCoef>
-5.4800

> <Gold.Chemscore.Hbond>
2.9212

> <Gold.Chemscore.Metal>
0.0000

> <Gold.Chemscore.Lipo>
57.0773

> <Gold.Chemscore.Internal_Hbond>
0.0000

> <Gold.Chemscore.DEClash>
0.2640

> <Gold.Chemscore.DEInternal>
1.8789

> <Gold.Chemscore.Rot>
1.5975

> <Gold.Chemscore.Internal.Correction>
   9.000000E+99

> <Gold.Chemscore.Hbonds>
donor molecule, donor type, donor heavy atom, donor atom, acceptor molecule, acceptor atom, score
      L1  H     9    24       P1  7948  1.00
      L1  H    12    41       P1  7948  0.97
      P1  H  7989  7998       L1     4  0.05
      P1  H  7997  8009       L1     3  0.51

> <Gold.Chemscore.Hbond.Weighted>
-9.7567

> <Gold.Chemscore.Metal.Weighted>
-0.0000

> <Gold.Chemscore.Lipo.Weighted>
-6.6780

> <Gold.Chemscore.Internal_Hbond.Weighted>
0.0000

> <Gold.Chemscore.DEClash.Weighted>
0.2640

> <Gold.Chemscore.DEInternal.Weighted>
1.8789

> <Gold.Chemscore.Rot.Weighted>
4.0896

> <Gold.Chemscore.Internal.Correction.Weighted>
   9.000000E+99

> <Gold.Protein.RotatedTorsions>
[ 6907 6896 6895 6894 ] final  -97.38 input  -60.11 | X-H torsion
[ 7974 7965 7964 7962 ] final   26.90 input  175.53 | X-H torsion
[ 8008 7997 7996 7995 ] final -151.09 input   59.86 | X-H torsion
[ 10167 10162 10161 10158 ] final -164.46 input  -65.29 | X-H torsion
[ 10718 10713 10712 10709 ] final  -79.50 input   66.30 | X-H torsion
[ 10763 10752 10751 10750 ] final  -19.04 input  -60.55 | X-H torsion
[ 11005 11000 10999 10996 ] final  -86.11 input  -57.11 | X-H torsion

> <Gold.Protein.ActiveResidues>
 VAL166  LYS551  ARG553  GLY616  TRP617  ASP618  TYR619  PRO620  LYS621  CYS622 
 ASP623  PHE694  ASN695  SER759  ASP760  ASP761  ALA762  ILE779  LEU786  VAL792 
 PHE793  MET794  SER795  GLU796  ALA797  LYS798  CYS799  TRP800  GLU811  SER814 

> <Gold.Protein.RotatedAtoms>
  150.7014  134.1358  159.4086 H   0  0  0  0  0  0  0  0  0  0  0  0  # atno 6907 bound_to 6896
  151.9343  135.0240  160.0540 H   0  0  0  0  0  0  0  0  0  0  0  0  # atno 6908 bound_to 6896
  152.2148  133.4903  159.5167 H   0  0  0  0  0  0  0  0  0  0  0  0  # atno 6909 bound_to 6896
  146.1813  139.7265  142.8898 H   0  0  0  0  0  0  0  0  0  0  0  0  # atno 7974 bound_to 7965
  155.6338  140.0694  157.2640 H   0  0  0  0  0  0  0  0  0  0  0  0  # atno 8008 bound_to 7997
  154.4199  140.1762  156.1550 H   0  0  0  0  0  0  0  0  0  0  0  0  # atno 8009 bound_to 7997
  155.9911  140.3345  155.6757 H   0  0  0  0  0  0  0  0  0  0  0  0  # atno 8010 bound_to 7997
  139.6249  144.0551  152.1966 H   0  0  0  0  0  0  0  0  0  0  0  0  # atno 10167 bound_to 10162
  156.0091  130.4547  150.3657 H   0  0  0  0  0  0  0  0  0  0  0  0  # atno 10718 bound_to 10713
  153.5986  135.7000  153.5394 H   0  0  0  0  0  0  0  0  0  0  0  0  # atno 10763 bound_to 10752
  153.3117  135.4099  155.1341 H   0  0  0  0  0  0  0  0  0  0  0  0  # atno 10764 bound_to 10752
  154.8587  135.3673  154.5520 H   0  0  0  0  0  0  0  0  0  0  0  0  # atno 10765 bound_to 10752
  141.1634  133.7436  156.9113 H   0  0  0  0  0  0  0  0  0  0  0  0  # atno 11005 bound_to 11000
  145.4068  141.0392  143.3040 LP  0  0  0  0  0  0  0  0  0  0  0  0  # atno 17320 bound_to 7965
  144.8320  139.5612  143.6939 LP  0  0  0  0  0  0  0  0  0  0  0  0  # atno 17321 bound_to 7965
  140.0202  144.6158  150.7573 LP  0  0  0  0  0  0  0  0  0  0  0  0  # atno 17342 bound_to 10162
  140.7405  143.2805  151.3612 LP  0  0  0  0  0  0  0  0  0  0  0  0  # atno 17343 bound_to 10162
  157.1744  131.0377  151.2779 LP  0  0  0  0  0  0  0  0  0  0  0  0  # atno 17370 bound_to 10713
  157.4201  130.7432  149.6906 LP  0  0  0  0  0  0  0  0  0  0  0  0  # atno 17371 bound_to 10713
  140.1515  134.9227  157.2598 LP  0  0  0  0  0  0  0  0  0  0  0  0  # atno 17394 bound_to 11000
  140.2717  134.3452  155.7371 LP  0  0  0  0  0  0  0  0  0  0  0  0  # atno 17395 bound_to 11000

$$$$
