AV-unprocessed.smi:745|AV-procd|sdf|3574|dock2
  -GOLD-   22720 0563D 1   1.00000     0.00000
 Structure written by MMmdl.
 42 43  0  0  0  0  0  0  0  0  2 V2000
  148.8805  139.5116  154.9842 C   0  0  0  0  0  0  0  0  0  0  0  0
  148.9759  140.8450  154.2228 C   0  0  2  0  0  0  0  0  0  0  0  0
  149.3906  141.8734  155.1780 N   0  0  0  0  0  0  0  0  0  0  0  0
  150.3256  141.7328  156.1309 C   0  0  0  0  0  0  0  0  0  0  0  0
  150.9858  140.7055  156.2903 O   0  0  0  0  0  0  0  0  0  0  0  0
  150.4394  142.8510  156.8688 N   0  0  0  0  0  0  0  0  0  0  0  0
  151.3071  143.0929  157.9673 C   0  0  0  0  0  0  0  0  0  0  0  0
  151.5189  144.4559  158.2745 C   0  0  0  0  0  0  0  0  0  0  0  0
  152.3626  144.8012  159.3482 C   0  0  0  0  0  0  0  0  0  0  0  0
  152.9742  143.7730  160.0876 C   0  0  0  0  0  0  0  0  0  0  0  0
  152.7117  142.4419  159.7145 C   0  0  0  0  0  0  0  0  0  0  0  0
  151.9038  142.1088  158.6858 N   0  0  0  0  0  0  0  0  0  0  0  0
  147.6466  141.2456  153.5169 C   0  0  2  0  0  0  0  0  0  0  0  0
  146.4651  141.4605  154.4895 C   0  0  0  0  0  0  0  0  0  0  0  0
  145.9508  140.1355  155.0834 C   0  0  0  0  0  0  0  0  0  0  0  0
  145.5617  139.1841  154.0126 N   0  3  2  0  0  0  0  0  0  0  0  0
  144.9862  137.9331  154.5517 C   0  0  0  0  0  0  0  0  0  0  0  0
  146.6661  138.9289  153.0553 C   0  0  0  0  0  0  0  0  0  0  0  0
  147.1760  140.2431  152.4378 C   0  0  0  0  0  0  0  0  0  0  0  0
  148.7187  138.6693  154.3127 H   0  0  0  0  0  0  0  0  0  0  0  0
  148.0674  139.5242  155.7110 H   0  0  0  0  0  0  0  0  0  0  0  0
  149.8045  139.3062  155.5263 H   0  0  0  0  0  0  0  0  0  0  0  0
  149.7541  140.7213  153.4695 H   0  0  0  0  0  0  0  0  0  0  0  0
  148.9067  142.7578  155.1225 H   0  0  0  0  0  0  0  0  0  0  0  0
  149.8272  143.6153  156.6243 H   0  0  0  0  0  0  0  0  0  0  0  0
  151.0403  145.2335  157.6970 H   0  0  0  0  0  0  0  0  0  0  0  0
  152.5363  145.8371  159.5998 H   0  0  0  0  0  0  0  0  0  0  0  0
  153.6271  143.9981  160.9179 H   0  0  0  0  0  0  0  0  0  0  0  0
  153.1622  141.6230  160.2556 H   0  0  0  0  0  0  0  0  0  0  0  0
  147.8316  142.1957  153.0133 H   0  0  0  0  0  0  0  0  0  0  0  0
  146.7264  142.1544  155.2872 H   0  0  0  0  0  0  0  0  0  0  0  0
  145.6472  141.9401  153.9498 H   0  0  0  0  0  0  0  0  0  0  0  0
  146.7070  139.6816  155.7250 H   0  0  0  0  0  0  0  0  0  0  0  0
  145.0859  140.3364  155.7170 H   0  0  0  0  0  0  0  0  0  0  0  0
  145.7263  137.3799  155.1314 H   0  0  0  0  0  0  0  0  0  0  0  0
  144.6360  137.2915  153.7426 H   0  0  0  0  0  0  0  0  0  0  0  0
  144.1345  138.1473  155.1980 H   0  0  0  0  0  0  0  0  0  0  0  0
  147.4756  138.4013  153.5606 H   0  0  0  0  0  0  0  0  0  0  0  0
  146.3117  138.2703  152.2615 H   0  0  0  0  0  0  0  0  0  0  0  0
  146.3676  140.6958  151.8620 H   0  0  0  0  0  0  0  0  0  0  0  0
  147.9629  140.0371  151.7127 H   0  0  0  0  0  0  0  0  0  0  0  0
  144.8261  139.6333  153.4859 H   0  0  0  0  0  0  0  0  0  0  0  0
  1  2  1  0  0  0  0
  1 20  1  0  0  0  0
  1 21  1  0  0  0  0
  1 22  1  0  0  0  0
  2  3  1  0  0  0  0
  2 13  1  0  0  0  0
  2 23  1  0  0  0  0
  3  4  1  0  0  0  0
  3 24  1  0  0  0  0
  4  5  2  0  0  0  0
  4  6  1  0  0  0  0
  6  7  1  0  0  0  0
  6 25  1  0  0  0  0
  7 12  1  0  0  0  0
  7  8  2  0  0  0  0
  8  9  1  0  0  0  0
  8 26  1  0  0  0  0
  9 10  2  0  0  0  0
  9 27  1  0  0  0  0
 10 11  1  0  0  0  0
 10 28  1  0  0  0  0
 11 12  2  0  0  0  0
 11 29  1  0  0  0  0
 13 19  1  0  0  0  0
 13 14  1  0  0  0  0
 13 30  1  0  0  0  0
 14 15  1  0  0  0  0
 14 31  1  0  0  0  0
 14 32  1  0  0  0  0
 15 16  1  0  0  0  0
 15 33  1  0  0  0  0
 15 34  1  0  0  0  0
 16 17  1  0  0  0  0
 16 18  1  0  0  0  0
 16 42  1  0  0  0  0
 17 35  1  0  0  0  0
 17 36  1  0  0  0  0
 17 37  1  0  0  0  0
 18 19  1  0  0  0  0
 18 38  1  0  0  0  0
 18 39  1  0  0  0  0
 19 40  1  0  0  0  0
 19 41  1  0  0  0  0
M  CHG  1  16   1
M  END
> <s_m_source_file>
AV-unprocessed.smi

> <i_m_source_file_index>
745

> <i_lp_mmshare_version>
43012

> <i_f3d_flags>
0

> <s_epik_input>
W0NIMl0xW0NIMl1OKFtDSDNdKVtDSDJdW0NIMl1bQ0hdMVtDQEhdKFtDSDNdKVtOSF1DKD1PKVtOSF1jMltjSF1bY0hdW2NIXVtjSF1uMg==

> <s_epik_cmdline>
J2VwaWtfcHl0aG9uJywgJy1waCcsICc3LjAnLCAnLXRuJywgJzgnLCAnLW1hJywgJzIwMCcsICctbWV0YWxfYmluZGluZycsICctaW1hZScsICc8aW5maWxlLm1hZT4nLCAnLW9tYWUnLCAnPG91dGZpbGUubWFlPic=

> <r_epik_Ionization_Penalty>
0.0011087

> <r_epik_Ionization_Penalty_Charging>
0.00106265

> <r_epik_Ionization_Penalty_Neutral>
4.60506e-05

> <r_epik_State_Penalty>
0.000695551

> <r_epik_Charging_Adjusted_Penalty>
0.0017582

> <i_epik_Tot_Q>
1

> <i_epik_Tot_abs_Q>
1

> <r_epik_Metal_State_Penalty>
-0

> <b_epik_Metal_Only>
0

> <s_lp_Force_Field>
OPLS_2005

> <r_lp_Energy>
21.1146

> <b_lp_Chiralities_Consistent>
1

> <s_lp_Variant>
AV-unprocessed.smi:745-3

> <Gold.Version>
5.8.1

> <Gold.Id.Protein>
6NUR|6NUR_protein|mol2

> <Gold.PLP.Fitness>
48.4030

> <Gold.PLP.PLP>
-37.4994

> <Gold.PLP.part.hbond>
-3.0000

> <Gold.PLP.part.metal>
0.0000

> <Gold.PLP.part.buried>
-2.9900

> <Gold.PLP.part.nonpolar>
-32.3810

> <Gold.PLP.part.repulsive>
0.2277

> <Gold.PLP.ligand.clash>
0.3019

> <Gold.PLP.ligand.torsion>
0.2985

> <Gold.PLP.Chemscore.Hbond>
3.9280

> <Gold.PLP.Chemscore.CHOScore>
0.0000

> <Gold.PLP.Chemscore.Metal>
0.0000

> <Gold.Chemscore.Hbonds>
donor molecule, donor type, donor heavy atom, donor atom, acceptor molecule, acceptor atom, score
      L1  H     3    24       P1  8028  0.96
      L1  H     6    25       P1  8028  1.00
      L1  H    16    42       P1 10175  2.00

> <Gold.PLP.Chemscore.Internal.Correction>
0.0187

> <Gold.Rescore>
     Score         DG    S(hbond)    S(metal)    S(lipo)     H(rot)  DE(clash)    DE(int)     intcor
     17.52     -22.86       2.94        0.00      92.32       1.26       1.16       4.19       ----

> <Gold.Chemscore.Fitness>
17.5161

> <Gold.Chemscore.DG>
-22.8632

> <Gold.Chemscore.ZeroCoef>
-5.4800

> <Gold.Chemscore.Hbond>
2.9365

> <Gold.Chemscore.Metal>
0.0000

> <Gold.Chemscore.Lipo>
92.3191

> <Gold.Chemscore.Internal_Hbond>
0.0000

> <Gold.Chemscore.DEClash>
1.1579

> <Gold.Chemscore.DEInternal>
4.1893

> <Gold.Chemscore.Rot>
1.2601

> <Gold.Chemscore.Internal.Correction>
   9.000000E+99

> <Gold.Chemscore.Hbonds>
donor molecule, donor type, donor heavy atom, donor atom, acceptor molecule, acceptor atom, score
      L1  H     3    24       P1  8028  0.86
      L1  H     6    25       P1  8028  1.00
      L1  H    16    42       P1 10175  1.00

> <Gold.Chemscore.Hbond.Weighted>
-9.8079

> <Gold.Chemscore.Metal.Weighted>
-0.0000

> <Gold.Chemscore.Lipo.Weighted>
-10.8013

> <Gold.Chemscore.Internal_Hbond.Weighted>
0.0000

> <Gold.Chemscore.DEClash.Weighted>
1.1579

> <Gold.Chemscore.DEInternal.Weighted>
4.1893

> <Gold.Chemscore.Rot.Weighted>
3.2260

> <Gold.Chemscore.Internal.Correction.Weighted>
   9.000000E+99

> <Gold.Protein.RotatedTorsions>
[ 6907 6896 6895 6894 ] final  148.57 input  -60.11 | X-H torsion
[ 7974 7965 7964 7962 ] final  -96.98 input  175.53 | X-H torsion
[ 8008 7997 7996 7995 ] final -101.64 input   59.86 | X-H torsion
[ 10167 10162 10161 10158 ] final -164.55 input  -65.29 | X-H torsion
[ 10718 10713 10712 10709 ] final  -81.30 input   66.30 | X-H torsion
[ 10763 10752 10751 10750 ] final   36.73 input  -60.55 | X-H torsion
[ 11005 11000 10999 10996 ] final  141.93 input  -57.11 | X-H torsion

> <Gold.Protein.ActiveResidues>
 VAL166  LYS551  ARG553  GLY616  TRP617  ASP618  TYR619  PRO620  LYS621  CYS622 
 ASP623  PHE694  ASN695  SER759  ASP760  ASP761  ALA762  ILE779  LEU786  VAL792 
 PHE793  MET794  SER795  GLU796  ALA797  LYS798  CYS799  TRP800  GLU811  SER814 

> <Gold.Protein.RotatedAtoms>
  152.1398  133.4457  159.4760 H   0  0  0  0  0  0  0  0  0  0  0  0  # atno 6907 bound_to 6896
  150.6885  134.2320  159.4447 H   0  0  0  0  0  0  0  0  0  0  0  0  # atno 6908 bound_to 6896
  152.0209  134.9822  160.0621 H   0  0  0  0  0  0  0  0  0  0  0  0  # atno 6909 bound_to 6896
  145.3398  140.9457  143.2614 H   0  0  0  0  0  0  0  0  0  0  0  0  # atno 7974 bound_to 7965
  154.8454  140.0433  157.1569 H   0  0  0  0  0  0  0  0  0  0  0  0  # atno 8008 bound_to 7997
  154.9000  140.2999  155.5302 H   0  0  0  0  0  0  0  0  0  0  0  0  # atno 8009 bound_to 7997
  156.2994  140.2377  156.4027 H   0  0  0  0  0  0  0  0  0  0  0  0  # atno 8010 bound_to 7997
  139.6242  144.0564  152.1960 H   0  0  0  0  0  0  0  0  0  0  0  0  # atno 10167 bound_to 10162
  156.0053  130.4600  150.3932 H   0  0  0  0  0  0  0  0  0  0  0  0  # atno 10718 bound_to 10713
  153.0065  135.6297  154.2031 H   0  0  0  0  0  0  0  0  0  0  0  0  # atno 10763 bound_to 10752
  154.1775  135.2815  155.3064 H   0  0  0  0  0  0  0  0  0  0  0  0  # atno 10764 bound_to 10752
  154.5861  135.5632  153.7292 H   0  0  0  0  0  0  0  0  0  0  0  0  # atno 10765 bound_to 10752
  140.0438  134.9291  157.0893 H   0  0  0  0  0  0  0  0  0  0  0  0  # atno 11005 bound_to 11000
  144.8799  139.4918  143.6728 LP  0  0  0  0  0  0  0  0  0  0  0  0  # atno 17320 bound_to 7965
  146.3012  139.7433  142.9090 LP  0  0  0  0  0  0  0  0  0  0  0  0  # atno 17321 bound_to 7965
  140.0213  144.6150  150.7564 LP  0  0  0  0  0  0  0  0  0  0  0  0  # atno 17342 bound_to 10162
  140.7401  143.2800  151.3627 LP  0  0  0  0  0  0  0  0  0  0  0  0  # atno 17343 bound_to 10162
  157.2005  131.0437  151.2653 LP  0  0  0  0  0  0  0  0  0  0  0  0  # atno 17370 bound_to 10713
  157.3980  130.7318  149.6746 LP  0  0  0  0  0  0  0  0  0  0  0  0  # atno 17371 bound_to 10713
  140.4026  134.2066  155.7163 LP  0  0  0  0  0  0  0  0  0  0  0  0  # atno 17394 bound_to 11000
  141.1897  133.8234  157.0948 LP  0  0  0  0  0  0  0  0  0  0  0  0  # atno 17395 bound_to 11000

$$$$
