AV-unprocessed.smi:767|AV-procd|sdf|3657|dock1
  -GOLD-   22720 1 63D 1   1.00000     0.00000
 Structure written by MMmdl.
 47 49  0  0  0  0  0  0  0  0  1 V2000
  145.5486  130.0886  151.8769 C   0  0  0  0  0  0  0  0  0  0  0  0
  145.4222  131.5632  151.5552 C   0  0  0  0  0  0  0  0  0  0  0  0
  144.3034  132.0556  150.8505 C   0  0  0  0  0  0  0  0  0  0  0  0
  144.2359  133.4359  150.5797 C   0  0  0  0  0  0  0  0  0  0  0  0
  145.2836  134.2682  151.0242 C   0  0  0  0  0  0  0  0  0  0  0  0
  145.2557  135.7611  150.7640 C   0  0  0  0  0  0  0  0  0  0  0  0
  145.2113  136.5736  152.0679 C   0  0  0  0  0  0  0  0  0  0  0  0
  146.5509  136.8794  152.5545 N   0  0  0  0  0  0  0  0  0  0  0  0
  146.8240  137.5588  153.6768 C   0  0  0  0  0  0  0  0  0  0  0  0
  145.9674  138.0132  154.4356 O   0  0  0  0  0  0  0  0  0  0  0  0
  148.1426  137.6774  153.8772 N   0  0  0  0  0  0  0  0  0  0  0  0
  148.7425  138.3435  155.0268 C   0  0  2  0  0  0  0  0  0  0  0  0
  149.1585  139.7820  154.7181 C   0  0  1  0  0  0  0  0  0  0  0  0
  148.7093  141.1221  155.1809 C   0  0  0  0  0  0  0  0  0  0  0  0
  150.1107  141.7338  155.4488 C   0  0  0  0  0  0  0  0  0  0  0  0
  151.0476  140.6315  155.3690 O   0  0  0  0  0  0  0  0  0  0  0  0
  150.2691  139.5034  155.7120 C   0  0  2  0  0  0  0  0  0  0  0  0
  150.2817  138.0518  155.1920 C   0  0  0  0  0  0  0  0  0  0  0  0
  150.6368  136.9894  156.2326 C   0  0  0  0  0  0  0  0  0  0  0  0
  151.1392  137.7423  153.9480 C   0  0  0  0  0  0  0  0  0  0  0  0
  146.3560  133.6760  151.7242 C   0  0  0  0  0  0  0  0  0  0  0  0
  146.4298  132.3534  151.9871 N   0  0  0  0  0  0  0  0  0  0  0  0
  144.8856  129.4919  151.2498 H   0  0  0  0  0  0  0  0  0  0  0  0
  145.2887  129.9073  152.9199 H   0  0  0  0  0  0  0  0  0  0  0  0
  146.5700  129.7440  151.7117 H   0  0  0  0  0  0  0  0  0  0  0  0
  143.5146  131.3938  150.5241 H   0  0  0  0  0  0  0  0  0  0  0  0
  143.3931  133.8459  150.0422 H   0  0  0  0  0  0  0  0  0  0  0  0
  146.1359  136.0310  150.1791 H   0  0  0  0  0  0  0  0  0  0  0  0
  144.3900  135.9990  150.1445 H   0  0  0  0  0  0  0  0  0  0  0  0
  144.6913  137.5172  151.8996 H   0  0  0  0  0  0  0  0  0  0  0  0
  144.6474  136.0395  152.8348 H   0  0  0  0  0  0  0  0  0  0  0  0
  147.3248  136.5456  151.9989 H   0  0  0  0  0  0  0  0  0  0  0  0
  148.7717  137.2710  153.2002 H   0  0  0  0  0  0  0  0  0  0  0  0
  148.1649  138.2531  155.9515 H   0  0  0  0  0  0  0  0  0  0  0  0
  149.5155  139.8611  153.6884 H   0  0  0  0  0  0  0  0  0  0  0  0
  148.1514  141.6695  154.4208 H   0  0  0  0  0  0  0  0  0  0  0  0
  148.1086  141.0596  156.0895 H   0  0  0  0  0  0  0  0  0  0  0  0
  150.3734  142.4890  154.7076 H   0  0  0  0  0  0  0  0  0  0  0  0
  150.1504  142.1978  156.4350 H   0  0  0  0  0  0  0  0  0  0  0  0
  149.9503  139.5592  156.7593 H   0  0  0  0  0  0  0  0  0  0  0  0
  151.6906  137.0360  156.5090 H   0  0  0  0  0  0  0  0  0  0  0  0
  150.4354  135.9834  155.8631 H   0  0  0  0  0  0  0  0  0  0  0  0
  150.0576  137.1157  157.1476 H   0  0  0  0  0  0  0  0  0  0  0  0
  152.2025  137.8165  154.1776 H   0  0  0  0  0  0  0  0  0  0  0  0
  150.9554  138.4121  153.1099 H   0  0  0  0  0  0  0  0  0  0  0  0
  150.9581  136.7305  153.5839 H   0  0  0  0  0  0  0  0  0  0  0  0
  147.1757  134.2792  152.0858 H   0  0  0  0  0  0  0  0  0  0  0  0
  1  2  1  0  0  0  0
  1 23  1  0  0  0  0
  1 24  1  0  0  0  0
  1 25  1  0  0  0  0
  2 22  1  0  0  0  0
  2  3  2  0  0  0  0
  3  4  1  0  0  0  0
  3 26  1  0  0  0  0
  4  5  2  0  0  0  0
  4 27  1  0  0  0  0
  5  6  1  0  0  0  0
  5 21  1  0  0  0  0
  6  7  1  0  0  0  0
  6 28  1  0  0  0  0
  6 29  1  0  0  0  0
  7  8  1  0  0  0  0
  7 30  1  0  0  0  0
  7 31  1  0  0  0  0
  8  9  1  0  0  0  0
  8 32  1  0  0  0  0
  9 10  2  0  0  0  0
  9 11  1  0  0  0  0
 11 12  1  0  0  0  0
 11 33  1  0  0  0  0
 12 18  1  0  0  0  0
 12 13  1  0  0  0  0
 12 34  1  0  0  0  0
 13 17  1  0  0  0  0
 13 14  1  0  0  0  0
 13 35  1  0  0  0  0
 14 15  1  0  0  0  0
 14 36  1  0  0  0  0
 14 37  1  0  0  0  0
 15 16  1  0  0  0  0
 15 38  1  0  0  0  0
 15 39  1  0  0  0  0
 16 17  1  0  0  0  0
 17 18  1  0  0  0  0
 17 40  1  0  0  0  0
 18 19  1  0  0  0  0
 18 20  1  0  0  0  0
 19 41  1  0  0  0  0
 19 42  1  0  0  0  0
 19 43  1  0  0  0  0
 20 44  1  0  0  0  0
 20 45  1  0  0  0  0
 20 46  1  0  0  0  0
 21 22  2  0  0  0  0
 21 47  1  0  0  0  0
M  END
> <s_m_source_file>
AV-unprocessed.smi

> <i_m_source_file_index>
767

> <i_lp_mmshare_version>
43012

> <i_f3d_flags>
0

> <s_epik_input>
W0NIM11jMVtjSF1bY0hdYyhbY0hdbjEpW0NIMl1bQ0gyXVtOSF1DKD1PKVtOSF1bQ0BIXTJDKFtDSDNdKShbQ0gzXSlbQ0BIXShbQ0BASF0yMylPW0NIMl1bQ0gyXTM=

> <s_epik_cmdline>
J2VwaWtfcHl0aG9uJywgJy1waCcsICc3LjAnLCAnLXRuJywgJzgnLCAnLW1hJywgJzIwMCcsICctbWV0YWxfYmluZGluZycsICctaW1hZScsICc8aW5maWxlLm1hZT4nLCAnLW9tYWUnLCAnPG91dGZpbGUubWFlPic=

> <r_epik_Ionization_Penalty>
0.0567523

> <r_epik_Ionization_Penalty_Charging>
0

> <r_epik_Ionization_Penalty_Neutral>
0.0567523

> <r_epik_State_Penalty>
0.0489186

> <r_epik_Charging_Adjusted_Penalty>
0.0489186

> <i_epik_Tot_Q>
0

> <i_epik_Tot_abs_Q>
0

> <r_epik_Metal_State_Penalty>
0.044622

> <b_epik_Metal_Only>
0

> <s_lp_Force_Field>
OPLS_2005

> <r_lp_Energy>
54.5337

> <b_lp_Chiralities_Consistent>
1

> <s_lp_Variant>
AV-unprocessed.smi:767-1

> <Gold.Version>
5.8.1

> <Gold.Id.Protein>
6NUR|6NUR_protein|mol2

> <Gold.PLP.Fitness>
46.1011

> <Gold.PLP.PLP>
-35.2559

> <Gold.PLP.part.hbond>
-2.9664

> <Gold.PLP.part.metal>
0.0000

> <Gold.PLP.part.buried>
-4.5289

> <Gold.PLP.part.nonpolar>
-29.2096

> <Gold.PLP.part.repulsive>
0.2882

> <Gold.PLP.ligand.clash>
0.0000

> <Gold.PLP.ligand.torsion>
0.4273

> <Gold.PLP.Chemscore.Hbond>
2.8080

> <Gold.PLP.Chemscore.CHOScore>
1.0000

> <Gold.PLP.Chemscore.Metal>
0.0000

> <Gold.Chemscore.Hbonds>
donor molecule, donor type, donor heavy atom, donor atom, acceptor molecule, acceptor atom, score
      L1  H     8    32       P1  7948  1.00
      L1  H    11    33       P1  7948  0.96
      P1  H  7989  7998       L1    16  0.79
      L1  C    21    47       P1  7948  0.82

> <Gold.PLP.Chemscore.Internal.Correction>
0.2758

> <Gold.Rescore>
     Score         DG    S(hbond)    S(metal)    S(lipo)     H(rot)  DE(clash)    DE(int)     intcor
     20.15     -21.88       2.32        0.00     105.67       1.45       1.28       0.45       ----

> <Gold.Chemscore.Fitness>
20.1532

> <Gold.Chemscore.DG>
-21.8800

> <Gold.Chemscore.ZeroCoef>
-5.4800

> <Gold.Chemscore.Hbond>
2.3197

> <Gold.Chemscore.Metal>
0.0000

> <Gold.Chemscore.Lipo>
105.6692

> <Gold.Chemscore.Internal_Hbond>
0.0000

> <Gold.Chemscore.DEClash>
1.2777

> <Gold.Chemscore.DEInternal>
0.4491

> <Gold.Chemscore.Rot>
1.4497

> <Gold.Chemscore.Internal.Correction>
   9.000000E+99

> <Gold.Chemscore.Hbonds>
donor molecule, donor type, donor heavy atom, donor atom, acceptor molecule, acceptor atom, score
      L1  H     8    32       P1  7948  0.95
      L1  H    11    33       P1  7948  0.92
      P1  H  7989  7998       L1    16  0.15

> <Gold.Chemscore.Hbond.Weighted>
-7.7479

> <Gold.Chemscore.Metal.Weighted>
-0.0000

> <Gold.Chemscore.Lipo.Weighted>
-12.3633

> <Gold.Chemscore.Internal_Hbond.Weighted>
0.0000

> <Gold.Chemscore.DEClash.Weighted>
1.2777

> <Gold.Chemscore.DEInternal.Weighted>
0.4491

> <Gold.Chemscore.Rot.Weighted>
3.7112

> <Gold.Chemscore.Internal.Correction.Weighted>
   9.000000E+99

> <Gold.Protein.RotatedTorsions>
[ 6907 6896 6895 6894 ] final   -2.76 input  -60.11 | X-H torsion
[ 7974 7965 7964 7962 ] final  -36.21 input  175.53 | X-H torsion
[ 8008 7997 7996 7995 ] final  160.28 input   59.86 | X-H torsion
[ 10167 10162 10161 10158 ] final -149.11 input  -65.29 | X-H torsion
[ 10718 10713 10712 10709 ] final  -60.75 input   66.30 | X-H torsion
[ 10763 10752 10751 10750 ] final   -9.50 input  -60.55 | X-H torsion
[ 11005 11000 10999 10996 ] final   46.31 input  -57.11 | X-H torsion

> <Gold.Protein.ActiveResidues>
 VAL166  LYS551  ARG553  GLY616  TRP617  ASP618  TYR619  PRO620  LYS621  CYS622 
 ASP623  PHE694  ASN695  SER759  ASP760  ASP761  ALA762  ILE779  LEU786  VAL792 
 PHE793  MET794  SER795  GLU796  ALA797  LYS798  CYS799  TRP800  GLU811  SER814 

> <Gold.Protein.RotatedAtoms>
  151.5247  135.1067  159.9887 H   0  0  0  0  0  0  0  0  0  0  0  0  # atno 6907 bound_to 6896
  152.4605  133.7808  159.6860 H   0  0  0  0  0  0  0  0  0  0  0  0  # atno 6908 bound_to 6896
  150.8565  133.7643  159.3032 H   0  0  0  0  0  0  0  0  0  0  0  0  # atno 6909 bound_to 6896
  146.0681  140.6251  142.8965 H   0  0  0  0  0  0  0  0  0  0  0  0  # atno 7974 bound_to 7965
  156.2183  140.1808  156.7538 H   0  0  0  0  0  0  0  0  0  0  0  0  # atno 8008 bound_to 7997
  154.5825  140.0664  156.9153 H   0  0  0  0  0  0  0  0  0  0  0  0  # atno 8009 bound_to 7997
  155.2477  140.3326  155.4288 H   0  0  0  0  0  0  0  0  0  0  0  0  # atno 8010 bound_to 7997
  139.7471  143.8573  152.2577 H   0  0  0  0  0  0  0  0  0  0  0  0  # atno 10167 bound_to 10162
  156.0969  130.4191  150.0898 H   0  0  0  0  0  0  0  0  0  0  0  0  # atno 10718 bound_to 10713
  153.4556  135.7015  153.6082 H   0  0  0  0  0  0  0  0  0  0  0  0  # atno 10763 bound_to 10752
  153.4398  135.3783  155.2221 H   0  0  0  0  0  0  0  0  0  0  0  0  # atno 10764 bound_to 10752
  154.8728  135.3971  154.3974 H   0  0  0  0  0  0  0  0  0  0  0  0  # atno 10765 bound_to 10752
  140.1380  134.4620  155.8471 H   0  0  0  0  0  0  0  0  0  0  0  0  # atno 11005 bound_to 11000
  144.7215  140.4387  143.7005 LP  0  0  0  0  0  0  0  0  0  0  0  0  # atno 17320 bound_to 7965
  145.6441  139.1554  143.2899 LP  0  0  0  0  0  0  0  0  0  0  0  0  # atno 17321 bound_to 7965
  139.8541  144.7150  150.9178 LP  0  0  0  0  0  0  0  0  0  0  0  0  # atno 17342 bound_to 10162
  140.7793  143.3874  151.1370 LP  0  0  0  0  0  0  0  0  0  0  0  0  # atno 17343 bound_to 10162
  156.8895  130.9583  151.3590 LP  0  0  0  0  0  0  0  0  0  0  0  0  # atno 17370 bound_to 10713
  157.6131  130.8598  149.8984 LP  0  0  0  0  0  0  0  0  0  0  0  0  # atno 17371 bound_to 10713
  141.2181  133.6822  156.7194 LP  0  0  0  0  0  0  0  0  0  0  0  0  # atno 17394 bound_to 11000
  140.2758  134.8356  157.3888 LP  0  0  0  0  0  0  0  0  0  0  0  0  # atno 17395 bound_to 11000

$$$$
