AV-unprocessed.smi:178|AV-procd|sdf|1448|dock4
  -GOLD-   2262019243D 1   1.00000     0.00000
 Structure written by MMmdl.
 50 52  0  0  0  0  0  0  0  0  1 V2000
  148.1651  132.9914  158.2147 C   0  0  0  0  0  0  0  0  0  0  0  0
  149.5749  132.8600  158.3041 O   0  0  0  0  0  0  0  0  0  0  0  0
  150.1849  132.2615  157.1662 C   0  0  0  0  0  0  0  0  0  0  0  0
  149.9742  130.7322  157.0879 C   0  0  0  0  0  0  0  0  0  0  0  0
  150.4010  130.1336  155.8220 N   0  0  0  0  0  0  0  0  0  0  0  0
  151.7870  130.4063  155.4479 C   0  0  0  0  0  0  0  0  0  0  0  0
  152.4329  129.2723  154.6359 C   0  0  0  0  0  0  0  0  0  0  0  0
  153.8838  129.4526  154.4817 C   0  0  0  0  0  0  0  0  0  0  0  0
  155.0255  129.5944  154.3597 N   0  0  0  0  0  0  0  0  0  0  0  0
  149.5314  130.3394  154.8075 C   0  0  0  0  0  0  0  0  0  0  0  0
  148.9390  129.2460  154.2676 N   0  0  0  0  0  0  0  0  0  0  0  0
  148.0465  129.3895  153.2834 C   0  0  0  0  0  0  0  0  0  0  0  0
  147.6121  130.5124  152.7066 N   0  0  0  0  0  0  0  0  0  0  0  0
  148.2123  131.6126  153.2455 C   0  0  0  0  0  0  0  0  0  0  0  0
  149.1825  131.6170  154.2857 C   0  0  0  0  0  0  0  0  0  0  0  0
  149.5712  132.9209  154.5680 N   0  0  0  0  0  0  0  0  0  0  0  0
  148.8641  133.6471  153.7460 C   0  0  0  0  0  0  0  0  0  0  0  0
  148.0133  132.9435  152.9232 N   0  0  0  0  0  0  0  0  0  0  0  0
  147.1071  133.4963  151.9282 C   0  0  0  0  0  0  0  0  0  0  0  0
  145.6797  132.8921  151.9965 C   0  0  2  0  0  0  0  0  0  0  0  0
  145.3880  132.6253  153.3586 O   0  0  0  0  0  0  0  0  0  0  0  0
  145.5261  131.5864  151.2226 C   0  0  0  0  0  0  0  0  0  0  0  0
  144.0456  131.5719  150.8746 C   0  0  0  0  0  0  0  0  0  0  0  0
  143.7912  132.9274  150.5493 O   0  0  0  0  0  0  0  0  0  0  0  0
  144.5269  133.7706  151.4337 C   0  0  2  0  0  0  0  0  0  0  0  0
  144.9366  135.0192  150.6369 C   0  0  0  0  0  0  0  0  0  0  0  0
  147.7923  133.4861  159.1114 H   0  0  0  0  0  0  0  0  0  0  0  0
  147.6676  132.0249  158.1426 H   0  0  0  0  0  0  0  0  0  0  0  0
  147.8789  133.5979  157.3547 H   0  0  0  0  0  0  0  0  0  0  0  0
  149.8043  132.7377  156.2614 H   0  0  0  0  0  0  0  0  0  0  0  0
  151.2530  132.4799  157.1938 H   0  0  0  0  0  0  0  0  0  0  0  0
  150.4388  130.2197  157.9296 H   0  0  0  0  0  0  0  0  0  0  0  0
  148.9048  130.5423  157.1845 H   0  0  0  0  0  0  0  0  0  0  0  0
  151.8422  131.3421  154.8904 H   0  0  0  0  0  0  0  0  0  0  0  0
  152.3658  130.5590  156.3594 H   0  0  0  0  0  0  0  0  0  0  0  0
  152.2676  128.3114  155.1236 H   0  0  0  0  0  0  0  0  0  0  0  0
  152.0052  129.2090  153.6351 H   0  0  0  0  0  0  0  0  0  0  0  0
  147.6147  128.4738  152.9074 H   0  0  0  0  0  0  0  0  0  0  0  0
  148.9365  134.7249  153.7227 H   0  0  0  0  0  0  0  0  0  0  0  0
  147.0705  134.5780  152.0637 H   0  0  0  0  0  0  0  0  0  0  0  0
  147.5509  133.3229  150.9478 H   0  0  0  0  0  0  0  0  0  0  0  0
  144.4759  132.3876  153.4274 H   0  0  0  0  0  0  0  0  0  0  0  0
  146.1024  131.6285  150.2977 H   0  0  0  0  0  0  0  0  0  0  0  0
  145.8485  130.7029  151.7756 H   0  0  0  0  0  0  0  0  0  0  0  0
  143.8128  130.9073  150.0424 H   0  0  0  0  0  0  0  0  0  0  0  0
  143.4404  131.2783  151.7336 H   0  0  0  0  0  0  0  0  0  0  0  0
  143.8561  134.0812  152.2369 H   0  0  0  0  0  0  0  0  0  0  0  0
  145.4967  135.7210  151.2548 H   0  0  0  0  0  0  0  0  0  0  0  0
  144.0559  135.5437  150.2657 H   0  0  0  0  0  0  0  0  0  0  0  0
  145.5486  134.7589  149.7728 H   0  0  0  0  0  0  0  0  0  0  0  0
  1  2  1  0  0  0  0
  1 27  1  0  0  0  0
  1 28  1  0  0  0  0
  1 29  1  0  0  0  0
  2  3  1  0  0  0  0
  3  4  1  0  0  0  0
  3 30  1  0  0  0  0
  3 31  1  0  0  0  0
  4  5  1  0  0  0  0
  4 32  1  0  0  0  0
  4 33  1  0  0  0  0
  5  6  1  0  0  0  0
  5 10  1  0  0  0  0
  6  7  1  0  0  0  0
  6 34  1  0  0  0  0
  6 35  1  0  0  0  0
  7  8  1  0  0  0  0
  7 36  1  0  0  0  0
  7 37  1  0  0  0  0
  8  9  3  0  0  0  0
 10 15  1  0  0  0  0
 10 11  2  0  0  0  0
 11 12  1  0  0  0  0
 12 13  2  0  0  0  0
 12 38  1  0  0  0  0
 13 14  1  0  0  0  0
 14 18  1  0  0  0  0
 14 15  2  0  0  0  0
 15 16  1  0  0  0  0
 16 17  2  0  0  0  0
 17 18  1  0  0  0  0
 17 39  1  0  0  0  0
 18 19  1  0  0  0  0
 19 20  1  0  0  0  0
 19 40  1  0  0  0  0
 19 41  1  0  0  0  0
 20 25  1  0  0  0  0
 20 21  1  0  0  0  0
 20 22  1  0  0  0  0
 21 42  1  0  0  0  0
 22 23  1  0  0  0  0
 22 43  1  0  0  0  0
 22 44  1  0  0  0  0
 23 24  1  0  0  0  0
 23 45  1  0  0  0  0
 23 46  1  0  0  0  0
 24 25  1  0  0  0  0
 25 26  1  0  0  0  0
 25 47  1  0  0  0  0
 26 48  1  0  0  0  0
 26 49  1  0  0  0  0
 26 50  1  0  0  0  0
M  END
> <s_m_source_file>
AV-unprocessed.smi

> <i_m_source_file_index>
178

> <i_lp_mmshare_version>
43012

> <i_f3d_flags>
0

> <s_epik_input>
W0NIM11PW0NIMl1bQ0gyXU4oW0NIMl1bQ0gyXUMjTiljKG5bY0hdbjEpYyhjMTIpbltjSF1uMltDSDJdW0NAQF0zKFtPSF0pW0NIMl1bQ0gyXU9bQ0BIXTNbQ0gzXQ==

> <s_epik_cmdline>
J2VwaWtfcHl0aG9uJywgJy1waCcsICc3LjAnLCAnLXRuJywgJzgnLCAnLW1hJywgJzIwMCcsICctbWV0YWxfYmluZGluZycsICctaW1hZScsICc8aW5maWxlLm1hZT4nLCAnLW9tYWUnLCAnPG91dGZpbGUubWFlPic=

> <r_lp_tautomer_probability>
1

> <r_epik_Ionization_Penalty>
0.000885317

> <r_epik_Ionization_Penalty_Charging>
0

> <r_epik_Ionization_Penalty_Neutral>
0.000885317

> <r_epik_State_Penalty>
0.00047273

> <r_epik_Charging_Adjusted_Penalty>
0.00047273

> <i_epik_Tot_Q>
0

> <i_epik_Tot_abs_Q>
0

> <r_epik_Metal_State_Penalty>
-0

> <b_epik_Metal_Only>
0

> <s_lp_Force_Field>
OPLS_2005

> <r_lp_Energy>
31.3349

> <b_lp_Chiralities_Consistent>
1

> <s_lp_Variant>
AV-unprocessed.smi:178-4

> <Gold.Version>
5.8.1

> <Gold.Id.Protein>
6NUR|6NUR_protein|mol2

> <Gold.PLP.Fitness>
43.5093

> <Gold.PLP.PLP>
-38.7720

> <Gold.PLP.part.hbond>
-1.5324

> <Gold.PLP.part.metal>
0.0000

> <Gold.PLP.part.buried>
-4.7944

> <Gold.PLP.part.nonpolar>
-34.6345

> <Gold.PLP.part.repulsive>
2.4717

> <Gold.PLP.ligand.clash>
0.0012

> <Gold.PLP.ligand.torsion>
1.1362

> <Gold.PLP.Chemscore.Hbond>
1.2122

> <Gold.PLP.Chemscore.CHOScore>
0.9814

> <Gold.PLP.Chemscore.Metal>
0.0000

> <Gold.Chemscore.Hbonds>
donor molecule, donor type, donor heavy atom, donor atom, acceptor molecule, acceptor atom, score
      L1  H    21    42       P1 10957  0.22
      P1  H  6896  6907       L1     2  1.00
      L1  C    17    39       P1  7948  0.98

> <Gold.PLP.Chemscore.Internal.Correction>
0.4301

> <Gold.Rescore>
     Score         DG    S(hbond)    S(metal)    S(lipo)     H(rot)  DE(clash)    DE(int)     intcor
      4.15      -8.23       1.47        0.00      62.44       3.69       0.12       3.97       ----

> <Gold.Chemscore.Fitness>
4.1456

> <Gold.Chemscore.DG>
-8.2327

> <Gold.Chemscore.ZeroCoef>
-5.4800

> <Gold.Chemscore.Hbond>
1.4668

> <Gold.Chemscore.Metal>
0.0000

> <Gold.Chemscore.Lipo>
62.4437

> <Gold.Chemscore.Internal_Hbond>
0.0000

> <Gold.Chemscore.DEClash>
0.1202

> <Gold.Chemscore.DEInternal>
3.9669

> <Gold.Chemscore.Rot>
3.6923

> <Gold.Chemscore.Internal.Correction>
   9.000000E+99

> <Gold.Chemscore.Hbonds>
donor molecule, donor type, donor heavy atom, donor atom, acceptor molecule, acceptor atom, score
      L1  H    21    42       P1 10957  0.04
      P1  H  6896  6907       L1     2  0.34

> <Gold.Chemscore.Hbond.Weighted>
-4.8992

> <Gold.Chemscore.Metal.Weighted>
-0.0000

> <Gold.Chemscore.Lipo.Weighted>
-7.3059

> <Gold.Chemscore.Internal_Hbond.Weighted>
0.0000

> <Gold.Chemscore.DEClash.Weighted>
0.1202

> <Gold.Chemscore.DEInternal.Weighted>
3.9669

> <Gold.Chemscore.Rot.Weighted>
9.4524

> <Gold.Chemscore.Internal.Correction.Weighted>
   9.000000E+99

> <Gold.Protein.RotatedTorsions>
[ 6907 6896 6895 6894 ] final -142.14 input  -60.11 | X-H torsion
[ 7974 7965 7964 7962 ] final   88.48 input  175.53 | X-H torsion
[ 8008 7997 7996 7995 ] final  -65.29 input   59.86 | X-H torsion
[ 10167 10162 10161 10158 ] final -103.88 input  -65.29 | X-H torsion
[ 10718 10713 10712 10709 ] final   22.41 input   66.30 | X-H torsion
[ 10763 10752 10751 10750 ] final -136.85 input  -60.55 | X-H torsion
[ 11005 11000 10999 10996 ] final   79.82 input  -57.11 | X-H torsion

> <Gold.Protein.ActiveResidues>
 VAL166  LYS551  ARG553  GLY616  TRP617  ASP618  TYR619  PRO620  LYS621  CYS622 
 ASP623  PHE694  ASN695  SER759  ASP760  ASP761  ALA762  ILE779  LEU786  VAL792 
 PHE793  MET794  SER795  GLU796  ALA797  LYS798  CYS799  TRP800  GLU811  SER814 

> <Gold.Protein.RotatedAtoms>
  151.0831  133.5374  159.2619 H   0  0  0  0  0  0  0  0  0  0  0  0  # atno 6907 bound_to 6896
  151.2270  135.0539  159.8982 H   0  0  0  0  0  0  0  0  0  0  0  0  # atno 6908 bound_to 6896
  152.5426  134.0625  159.8212 H   0  0  0  0  0  0  0  0  0  0  0  0  # atno 6909 bound_to 6896
  145.5451  139.2291  143.2544 H   0  0  0  0  0  0  0  0  0  0  0  0  # atno 7974 bound_to 7965
  154.4663  140.0936  156.7028 H   0  0  0  0  0  0  0  0  0  0  0  0  # atno 8008 bound_to 7997
  155.4849  140.3469  155.4327 H   0  0  0  0  0  0  0  0  0  0  0  0  # atno 8009 bound_to 7997
  156.0961  140.1410  156.9517 H   0  0  0  0  0  0  0  0  0  0  0  0  # atno 8010 bound_to 7997
  140.2153  143.3716  152.1016 H   0  0  0  0  0  0  0  0  0  0  0  0  # atno 10167 bound_to 10162
  157.1519  130.6678  149.6015 H   0  0  0  0  0  0  0  0  0  0  0  0  # atno 10718 bound_to 10713
  154.8675  135.3660  154.5128 H   0  0  0  0  0  0  0  0  0  0  0  0  # atno 10763 bound_to 10752
  153.5762  135.7019  153.5488 H   0  0  0  0  0  0  0  0  0  0  0  0  # atno 10764 bound_to 10752
  153.3498  135.4075  155.1600 H   0  0  0  0  0  0  0  0  0  0  0  0  # atno 10765 bound_to 10752
  139.9158  134.7872  156.1828 H   0  0  0  0  0  0  0  0  0  0  0  0  # atno 11005 bound_to 11000
  146.1955  140.6272  142.9126 LP  0  0  0  0  0  0  0  0  0  0  0  0  # atno 17320 bound_to 7965
  144.7557  140.5302  143.6770 LP  0  0  0  0  0  0  0  0  0  0  0  0  # atno 17321 bound_to 7965
  139.5164  144.6977  151.5582 LP  0  0  0  0  0  0  0  0  0  0  0  0  # atno 17342 bound_to 10162
  140.6294  143.9105  150.6593 LP  0  0  0  0  0  0  0  0  0  0  0  0  # atno 17343 bound_to 10162
  155.9769  130.4741  150.6558 LP  0  0  0  0  0  0  0  0  0  0  0  0  # atno 17370 bound_to 10713
  157.4212  131.0837  151.1129 LP  0  0  0  0  0  0  0  0  0  0  0  0  # atno 17371 bound_to 10713
  141.0632  133.6832  156.1992 LP  0  0  0  0  0  0  0  0  0  0  0  0  # atno 17394 bound_to 11000
  140.6628  134.4950  157.5584 LP  0  0  0  0  0  0  0  0  0  0  0  0  # atno 17395 bound_to 11000

$$$$
