AV-unprocessed.smi:1880|AV-procd|sdf|7637|dock10
  -GOLD-   22720 9363D 1   1.00000     0.00000
 Structure written by MMmdl.
 37 39  0  0  0  0  0  0  0  0  2 V2000
  152.4380  137.5465  159.1901 O   0  0  0  0  0  0  0  0  0  0  0  0
  151.3727  138.3303  158.6903 C   0  0  2  0  0  0  0  0  0  0  0  0
  150.1428  137.4336  158.4752 C   0  0  0  0  0  0  0  0  0  0  0  0
  149.8765  136.6848  159.6503 O   0  0  0  0  0  0  0  0  0  0  0  0
  148.5998  136.0717  159.6333 C   0  0  0  0  0  0  0  0  0  0  0  0
  148.1227  136.0530  161.0454 C   0  0  0  0  0  0  0  0  0  0  0  0
  147.8763  135.0514  161.9433 C   0  0  0  0  0  0  0  0  0  0  0  0
  147.4422  135.6849  163.1407 C   0  0  0  0  0  0  0  0  0  0  0  0
  147.4570  137.0263  162.8837 C   0  0  0  0  0  0  0  0  0  0  0  0
  147.8709  137.2677  161.6101 O   0  0  0  0  0  0  0  0  0  0  0  0
  151.7842  139.1235  157.4338 C   0  0  0  0  0  0  0  0  0  0  0  0
  151.2944  140.5091  157.4508 N   0  0  0  0  0  0  0  0  0  0  0  0
  150.4494  141.1416  156.5921 C   0  0  0  0  0  0  0  0  0  0  0  0
  150.3065  142.4244  157.0258 N   0  3  0  0  0  0  0  0  0  0  0  0
  151.0715  142.6153  158.1788 C   0  0  0  0  0  0  0  0  0  0  0  0
  151.2504  143.7399  158.9778 C   0  0  0  0  0  0  0  0  0  0  0  0
  152.1033  143.5984  160.0922 C   0  0  0  0  0  0  0  0  0  0  0  0
  152.3143  144.6631  160.9015 F   0  0  0  0  0  0  0  0  0  0  0  0
  152.7385  142.3714  160.3791 C   0  0  0  0  0  0  0  0  0  0  0  0
  153.5476  142.2785  161.4608 F   0  0  0  0  0  0  0  0  0  0  0  0
  152.5484  141.2376  159.5620 C   0  0  0  0  0  0  0  0  0  0  0  0
  151.7075  141.3877  158.4596 C   0  0  0  0  0  0  0  0  0  0  0  0
  152.4934  136.7543  158.6788 H   0  0  0  0  0  0  0  0  0  0  0  0
  151.1289  139.0413  159.4806 H   0  0  0  0  0  0  0  0  0  0  0  0
  149.2750  138.0311  158.1902 H   0  0  0  0  0  0  0  0  0  0  0  0
  150.3413  136.7433  157.6538 H   0  0  0  0  0  0  0  0  0  0  0  0
  147.9073  136.6334  159.0044 H   0  0  0  0  0  0  0  0  0  0  0  0
  148.6665  135.0564  159.2400 H   0  0  0  0  0  0  0  0  0  0  0  0
  147.9955  133.9935  161.7609 H   0  0  0  0  0  0  0  0  0  0  0  0
  147.1561  135.2186  164.0719 H   0  0  0  0  0  0  0  0  0  0  0  0
  147.2165  137.9046  163.4645 H   0  0  0  0  0  0  0  0  0  0  0  0
  152.8657  139.1294  157.2980 H   0  0  0  0  0  0  0  0  0  0  0  0
  151.3700  138.6459  156.5449 H   0  0  0  0  0  0  0  0  0  0  0  0
  149.9787  140.7050  155.7226 H   0  0  0  0  0  0  0  0  0  0  0  0
  150.7648  144.6806  158.7635 H   0  0  0  0  0  0  0  0  0  0  0  0
  153.0367  140.3028  159.7955 H   0  0  0  0  0  0  0  0  0  0  0  0
  149.7295  143.1170  156.5653 H   0  0  0  0  0  0  0  0  0  0  0  0
  1  2  1  0  0  0  0
  1 23  1  0  0  0  0
  2  3  1  0  0  0  0
  2 11  1  0  0  0  0
  2 24  1  0  0  0  0
  3  4  1  0  0  0  0
  3 25  1  0  0  0  0
  3 26  1  0  0  0  0
  4  5  1  0  0  0  0
  5  6  1  0  0  0  0
  5 27  1  0  0  0  0
  5 28  1  0  0  0  0
  6 10  1  0  0  0  0
  6  7  2  0  0  0  0
  7  8  1  0  0  0  0
  7 29  1  0  0  0  0
  8  9  2  0  0  0  0
  8 30  1  0  0  0  0
  9 10  1  0  0  0  0
  9 31  1  0  0  0  0
 11 12  1  0  0  0  0
 11 32  1  0  0  0  0
 11 33  1  0  0  0  0
 12 22  1  0  0  0  0
 12 13  1  0  0  0  0
 13 14  2  0  0  0  0
 13 34  1  0  0  0  0
 14 15  1  0  0  0  0
 14 37  1  0  0  0  0
 15 22  2  0  0  0  0
 15 16  1  0  0  0  0
 16 17  2  0  0  0  0
 16 35  1  0  0  0  0
 17 18  1  0  0  0  0
 17 19  1  0  0  0  0
 19 20  1  0  0  0  0
 19 21  2  0  0  0  0
 21 22  1  0  0  0  0
 21 36  1  0  0  0  0
M  CHG  1  14   1
M  END
> <s_m_source_file>
AV-unprocessed.smi

> <i_m_source_file_index>
1880

> <i_lp_mmshare_version>
43012

> <i_f3d_flags>
0

> <s_epik_input>
W2NIXTFjKEYpYyhGKVtjSF1jKGMxMiluKFtjSF1uMilbQ0gyXVtDQEhdKFtPSF0pW0NIMl1PW0NIMl1jM1tjSF1bY0hdW2NIXW8z

> <s_epik_cmdline>
J2VwaWtfcHl0aG9uJywgJy1waCcsICc3LjAnLCAnLXRuJywgJzgnLCAnLW1hJywgJzIwMCcsICctbWV0YWxfYmluZGluZycsICctaW1hZScsICc8aW5maWxlLm1hZT4nLCAnLW9tYWUnLCAnPG91dGZpbGUubWFlPic=

> <r_epik_Ionization_Penalty>
2.17656

> <r_epik_Ionization_Penalty_Charging>
2.17656

> <r_epik_Ionization_Penalty_Neutral>
9.34185e-07

> <r_epik_State_Penalty>
2.31826

> <r_epik_Charging_Adjusted_Penalty>
4.49482

> <i_epik_Tot_Q>
1

> <i_epik_Tot_abs_Q>
1

> <r_epik_Metal_State_Penalty>
6.39906

> <b_epik_Metal_Only>
0

> <s_lp_Force_Field>
OPLS_2005

> <r_lp_Energy>
13.1736

> <b_lp_Chiralities_Consistent>
1

> <s_lp_Variant>
AV-unprocessed.smi:1880-3

> <Gold.Version>
5.8.1

> <Gold.Id.Protein>
6NUR|6NUR_protein|mol2

> <Gold.PLP.Fitness>
63.3573

> <Gold.PLP.PLP>
-51.1289

> <Gold.PLP.part.hbond>
-3.9891

> <Gold.PLP.part.metal>
0.0000

> <Gold.PLP.part.buried>
-6.9390

> <Gold.PLP.part.nonpolar>
-40.4563

> <Gold.PLP.part.repulsive>
0.0201

> <Gold.PLP.ligand.clash>
0.0000

> <Gold.PLP.ligand.torsion>
0.9000

> <Gold.PLP.Chemscore.Hbond>
4.6500

> <Gold.PLP.Chemscore.CHOScore>
0.0000

> <Gold.PLP.Chemscore.Metal>
0.0000

> <Gold.Chemscore.Hbonds>
donor molecule, donor type, donor heavy atom, donor atom, acceptor molecule, acceptor atom, score
      L1  H    14    37       P1  8028  2.00
      P1  H  6896  6909       L1     4  0.75
      P1  H  6931  6943       L1    10  0.95
      P1  H  6934  6947       L1    10  0.66

> <Gold.PLP.Chemscore.Internal.Correction>
0.0784

> <Gold.Rescore>
     Score         DG    S(hbond)    S(metal)    S(lipo)     H(rot)  DE(clash)    DE(int)     intcor
     17.38     -18.23       2.20        0.00     110.43       2.94       0.04       0.81       ----

> <Gold.Chemscore.Fitness>
17.3774

> <Gold.Chemscore.DG>
-18.2307

> <Gold.Chemscore.ZeroCoef>
-5.4800

> <Gold.Chemscore.Hbond>
2.2002

> <Gold.Chemscore.Metal>
0.0000

> <Gold.Chemscore.Lipo>
110.4318

> <Gold.Chemscore.Internal_Hbond>
0.0000

> <Gold.Chemscore.DEClash>
0.0445

> <Gold.Chemscore.DEInternal>
0.8088

> <Gold.Chemscore.Rot>
2.9369

> <Gold.Chemscore.Internal.Correction>
   9.000000E+99

> <Gold.Chemscore.Hbonds>
donor molecule, donor type, donor heavy atom, donor atom, acceptor molecule, acceptor atom, score
      L1  H    14    37       P1  8028  0.93
      P1  H  6896  6909       L1     4  0.08
      P1  H  6931  6943       L1    10  0.19
      P1  H  6934  6947       L1    10  0.49

> <Gold.Chemscore.Hbond.Weighted>
-7.3487

> <Gold.Chemscore.Metal.Weighted>
-0.0000

> <Gold.Chemscore.Lipo.Weighted>
-12.9205

> <Gold.Chemscore.Internal_Hbond.Weighted>
0.0000

> <Gold.Chemscore.DEClash.Weighted>
0.0445

> <Gold.Chemscore.DEInternal.Weighted>
0.8088

> <Gold.Chemscore.Rot.Weighted>
7.5185

> <Gold.Chemscore.Internal.Correction.Weighted>
   9.000000E+99

> <Gold.Protein.RotatedTorsions>
[ 6907 6896 6895 6894 ] final   76.17 input  -60.11 | X-H torsion
[ 7974 7965 7964 7962 ] final    2.65 input  175.53 | X-H torsion
[ 8008 7997 7996 7995 ] final   20.07 input   59.86 | X-H torsion
[ 10167 10162 10161 10158 ] final -141.93 input  -65.29 | X-H torsion
[ 10718 10713 10712 10709 ] final  141.14 input   66.30 | X-H torsion
[ 10763 10752 10751 10750 ] final  129.92 input  -60.55 | X-H torsion
[ 11005 11000 10999 10996 ] final    3.69 input  -57.11 | X-H torsion

> <Gold.Protein.ActiveResidues>
 VAL166  LYS551  ARG553  GLY616  TRP617  ASP618  TYR619  PRO620  LYS621  CYS622 
 ASP623  PHE694  ASN695  SER759  ASP760  ASP761  ALA762  ILE779  LEU786  VAL792 
 PHE793  MET794  SER795  GLU796  ALA797  LYS798  CYS799  TRP800  GLU811  SER814 

> <Gold.Protein.RotatedAtoms>
  152.5061  134.4009  159.9415 H   0  0  0  0  0  0  0  0  0  0  0  0  # atno 6907 bound_to 6896
  151.3973  133.3763  159.2736 H   0  0  0  0  0  0  0  0  0  0  0  0  # atno 6908 bound_to 6896
  150.9388  134.8819  159.7658 H   0  0  0  0  0  0  0  0  0  0  0  0  # atno 6909 bound_to 6896
  146.2444  140.0804  142.8357 H   0  0  0  0  0  0  0  0  0  0  0  0  # atno 7974 bound_to 7965
  154.9302  140.3039  155.5172 H   0  0  0  0  0  0  0  0  0  0  0  0  # atno 8008 bound_to 7997
  156.3004  140.2355  156.4298 H   0  0  0  0  0  0  0  0  0  0  0  0  # atno 8009 bound_to 7997
  154.8245  140.0421  157.1422 H   0  0  0  0  0  0  0  0  0  0  0  0  # atno 8010 bound_to 7997
  139.8137  143.7667  152.2664 H   0  0  0  0  0  0  0  0  0  0  0  0  # atno 10167 bound_to 10162
  157.3953  131.1010  151.0605 H   0  0  0  0  0  0  0  0  0  0  0  0  # atno 10718 bound_to 10713
  153.7496  135.3212  155.3318 H   0  0  0  0  0  0  0  0  0  0  0  0  # atno 10763 bound_to 10752
  154.8267  135.4564  154.0945 H   0  0  0  0  0  0  0  0  0  0  0  0  # atno 10764 bound_to 10752
  153.2144  135.6940  153.8157 H   0  0  0  0  0  0  0  0  0  0  0  0  # atno 10765 bound_to 10752
  140.5902  133.9931  155.8085 H   0  0  0  0  0  0  0  0  0  0  0  0  # atno 11005 bound_to 11000
  145.0738  140.9174  143.4866 LP  0  0  0  0  0  0  0  0  0  0  0  0  # atno 17320 bound_to 7965
  145.0943  139.2867  143.5719 LP  0  0  0  0  0  0  0  0  0  0  0  0  # atno 17321 bound_to 7965
  139.7824  144.7439  151.0069 LP  0  0  0  0  0  0  0  0  0  0  0  0  # atno 17342 bound_to 10162
  140.7816  143.4528  151.0389 LP  0  0  0  0  0  0  0  0  0  0  0  0  # atno 17343 bound_to 10162
  157.1624  130.6231  149.5615 LP  0  0  0  0  0  0  0  0  0  0  0  0  # atno 17370 bound_to 10713
  155.9809  130.4812  150.6797 LP  0  0  0  0  0  0  0  0  0  0  0  0  # atno 17371 bound_to 10713
  141.0939  133.9873  157.3191 LP  0  0  0  0  0  0  0  0  0  0  0  0  # atno 17394 bound_to 11000
  139.9277  135.0201  156.8293 LP  0  0  0  0  0  0  0  0  0  0  0  0  # atno 17395 bound_to 11000

$$$$
