AV-unprocessed.smi:2226|AV-procd|sdf|9020|dock5
  -GOLD-   2272012223D 1   1.00000     0.00000
 Structure written by MMmdl.
 39 41  0  0  0  0  0  0  0  0  3 V2000
  146.8115  139.1905  152.9082 C   0  0  0  0  0  0  0  0  0  0  0  0
  146.3801  140.3742  153.6892 N   0  3  2  0  0  0  0  0  0  0  0  0
  147.2262  141.5783  153.5132 C   0  0  1  0  0  0  0  0  0  0  0  0
  146.4487  142.8187  154.0101 C   0  0  0  0  0  0  0  0  0  0  0  0
  145.8955  142.6797  155.4415 C   0  0  0  0  0  0  0  0  0  0  0  0
  145.3148  141.2797  155.7215 C   0  0  0  0  0  0  0  0  0  0  0  0
  146.1512  140.1202  155.1314 C   0  0  2  0  0  0  0  0  0  0  0  0
  147.4784  139.8170  155.8716 C   0  0  0  0  0  0  0  0  0  0  0  0
  148.6543  140.7784  155.5705 C   0  0  2  0  0  0  0  0  0  0  0  0
  148.7961  141.7883  156.6165 N   0  0  0  0  0  0  0  0  0  0  0  0
  149.8585  141.9755  157.4131 C   0  0  0  0  0  0  0  0  0  0  0  0
  150.8431  141.2404  157.3104 O   0  0  0  0  0  0  0  0  0  0  0  0
  149.7137  143.0095  158.2710 N   0  5  0  0  0  0  0  0  0  0  0  0
  150.7773  143.4657  158.9519 C   0  0  0  0  0  0  0  0  0  0  0  0
  151.9714  142.8777  159.0404 N   0  0  0  0  0  0  0  0  0  0  0  0
  152.7415  143.7040  159.8444 C   0  0  0  0  0  0  0  0  0  0  0  0
  151.9660  144.7673  160.2186 C   0  0  0  0  0  0  0  0  0  0  0  0
  150.7239  144.6267  159.6645 O   0  0  0  0  0  0  0  0  0  0  0  0
  148.6288  141.3833  154.1409 C   0  0  0  0  0  0  0  0  0  0  0  0
  147.7880  138.8217  153.2217 H   0  0  0  0  0  0  0  0  0  0  0  0
  146.8681  139.4356  151.8473 H   0  0  0  0  0  0  0  0  0  0  0  0
  146.0923  138.3788  153.0203 H   0  0  0  0  0  0  0  0  0  0  0  0
  147.3739  141.7242  152.4422 H   0  0  0  0  0  0  0  0  0  0  0  0
  147.0687  143.7128  153.9347 H   0  0  0  0  0  0  0  0  0  0  0  0
  145.6066  142.9834  153.3366 H   0  0  0  0  0  0  0  0  0  0  0  0
  146.6635  142.9241  156.1673 H   0  0  0  0  0  0  0  0  0  0  0  0
  145.1232  143.4316  155.6060 H   0  0  0  0  0  0  0  0  0  0  0  0
  145.1736  141.1412  156.7940 H   0  0  0  0  0  0  0  0  0  0  0  0
  144.3173  141.2348  155.2826 H   0  0  0  0  0  0  0  0  0  0  0  0
  145.5294  139.2277  155.2143 H   0  0  0  0  0  0  0  0  0  0  0  0
  147.3037  139.7458  156.9461 H   0  0  0  0  0  0  0  0  0  0  0  0
  147.7945  138.8150  155.5797 H   0  0  0  0  0  0  0  0  0  0  0  0
  149.5613  140.1750  155.6446 H   0  0  0  0  0  0  0  0  0  0  0  0
  148.0153  142.4145  156.7483 H   0  0  0  0  0  0  0  0  0  0  0  0
  153.7686  143.4720  160.0842 H   0  0  0  0  0  0  0  0  0  0  0  0
  152.1317  145.6430  160.8278 H   0  0  0  0  0  0  0  0  0  0  0  0
  149.1856  140.7049  153.4935 H   0  0  0  0  0  0  0  0  0  0  0  0
  149.1881  142.3183  154.0973 H   0  0  0  0  0  0  0  0  0  0  0  0
  145.4771  140.6191  153.3088 H   0  0  0  0  0  0  0  0  0  0  0  0
  1  2  1  0  0  0  0
  1 20  1  0  0  0  0
  1 21  1  0  0  0  0
  1 22  1  0  0  0  0
  2  7  1  0  0  0  0
  2  3  1  0  0  0  0
  2 39  1  0  0  0  0
  3 19  1  0  0  0  0
  3  4  1  0  0  0  0
  3 23  1  0  0  0  0
  4  5  1  0  0  0  0
  4 24  1  0  0  0  0
  4 25  1  0  0  0  0
  5  6  1  0  0  0  0
  5 26  1  0  0  0  0
  5 27  1  0  0  0  0
  6  7  1  0  0  0  0
  6 28  1  0  0  0  0
  6 29  1  0  0  0  0
  7  8  1  0  0  0  0
  7 30  1  0  0  0  0
  8  9  1  0  0  0  0
  8 31  1  0  0  0  0
  8 32  1  0  0  0  0
  9 10  1  0  0  0  0
  9 19  1  0  0  0  0
  9 33  1  0  0  0  0
 10 34  1  0  0  0  0
 10 11  1  0  0  0  0
 11 13  1  0  0  0  0
 11 12  2  0  0  0  0
 13 14  1  0  0  0  0
 14 18  1  0  0  0  0
 14 15  2  0  0  0  0
 15 16  1  0  0  0  0
 16 35  1  0  0  0  0
 16 17  2  0  0  0  0
 17 36  1  0  0  0  0
 17 18  1  0  0  0  0
 19 37  1  0  0  0  0
 19 38  1  0  0  0  0
M  CHG  1   2   1
M  CHG  1  13  -1
M  END
> <s_m_source_file>
AV-unprocessed.smi

> <i_m_source_file_index>
2226

> <i_lp_mmshare_version>
43012

> <i_f3d_flags>
0

> <s_epik_input>
W0NIMl0xW0NIMl1bQ0gyXVtDQEhdKE4oW0NIM10pW0NIXTEyKVtDSDJdW0NASF0oW0NIMl0yKVtOSF1DKD1PKVtOSF1jM25bY0hdW2NIXW8z

> <s_epik_cmdline>
J2VwaWtfcHl0aG9uJywgJy1waCcsICc3LjAnLCAnLXRuJywgJzgnLCAnLW1hJywgJzIwMCcsICctbWV0YWxfYmluZGluZycsICctaW1hZScsICc8aW5maWxlLm1hZT4nLCAnLW9tYWUnLCAnPG91dGZpbGUubWFlPic=

> <r_lp_tautomer_probability>
0.107061

> <r_epik_Ionization_Penalty>
10.5612

> <r_epik_Ionization_Penalty_Charging>
7.48913

> <r_epik_Ionization_Penalty_Neutral>
3.07202

> <r_epik_State_Penalty>
5.6431

> <r_epik_Charging_Adjusted_Penalty>
13.1322

> <i_epik_Tot_Q>
0

> <i_epik_Tot_abs_Q>
2

> <r_epik_Metal_State_Penalty>
1.58163

> <b_epik_Metal_Only>
1

> <s_lp_Force_Field>
OPLS_2005

> <r_lp_Energy>
26.6809

> <b_lp_Chiralities_Consistent>
1

> <s_lp_Variant>
AV-unprocessed.smi:2226-20

> <Gold.Version>
5.8.1

> <Gold.Id.Protein>
6NUR|6NUR_protein|mol2

> <Gold.PLP.Fitness>
37.1104

> <Gold.PLP.PLP>
-31.2431

> <Gold.PLP.part.hbond>
-2.0000

> <Gold.PLP.part.metal>
0.0000

> <Gold.PLP.part.buried>
-6.5134

> <Gold.PLP.part.nonpolar>
-23.8389

> <Gold.PLP.part.repulsive>
0.4000

> <Gold.PLP.ligand.clash>
0.0000

> <Gold.PLP.ligand.torsion>
0.0926

> <Gold.PLP.Chemscore.Hbond>
2.0000

> <Gold.PLP.Chemscore.CHOScore>
0.0000

> <Gold.PLP.Chemscore.Metal>
0.0000

> <Gold.Chemscore.Hbonds>
donor molecule, donor type, donor heavy atom, donor atom, acceptor molecule, acceptor atom, score
      L1  H     2    39       P1 10175  2.00

> <Gold.PLP.Chemscore.Internal.Correction>
0.0524

> <Gold.Rescore>
     Score         DG    S(hbond)    S(metal)    S(lipo)     H(rot)  DE(clash)    DE(int)     intcor
     12.44     -14.16       0.96        0.00      68.53       1.00       0.02       1.70       ----

> <Gold.Chemscore.Fitness>
12.4438

> <Gold.Chemscore.DG>
-14.1596

> <Gold.Chemscore.ZeroCoef>
-5.4800

> <Gold.Chemscore.Hbond>
0.9645

> <Gold.Chemscore.Metal>
0.0000

> <Gold.Chemscore.Lipo>
68.5322

> <Gold.Chemscore.Internal_Hbond>
0.0000

> <Gold.Chemscore.DEClash>
0.0157

> <Gold.Chemscore.DEInternal>
1.7001

> <Gold.Chemscore.Rot>
1.0000

> <Gold.Chemscore.Internal.Correction>
   9.000000E+99

> <Gold.Chemscore.Hbonds>
donor molecule, donor type, donor heavy atom, donor atom, acceptor molecule, acceptor atom, score
      L1  H     2    39       P1 10175  0.89

> <Gold.Chemscore.Hbond.Weighted>
-3.2214

> <Gold.Chemscore.Metal.Weighted>
-0.0000

> <Gold.Chemscore.Lipo.Weighted>
-8.0183

> <Gold.Chemscore.Internal_Hbond.Weighted>
0.0000

> <Gold.Chemscore.DEClash.Weighted>
0.0157

> <Gold.Chemscore.DEInternal.Weighted>
1.7001

> <Gold.Chemscore.Rot.Weighted>
2.5600

> <Gold.Chemscore.Internal.Correction.Weighted>
   9.000000E+99

> <Gold.Protein.RotatedTorsions>
[ 6907 6896 6895 6894 ] final   -7.65 input  -60.11 | X-H torsion
[ 7974 7965 7964 7962 ] final -131.89 input  175.53 | X-H torsion
[ 8008 7997 7996 7995 ] final  -15.39 input   59.86 | X-H torsion
[ 10167 10162 10161 10158 ] final  -83.53 input  -65.29 | X-H torsion
[ 10718 10713 10712 10709 ] final  -23.47 input   66.30 | X-H torsion
[ 10763 10752 10751 10750 ] final  -37.59 input  -60.55 | X-H torsion
[ 11005 11000 10999 10996 ] final  -89.81 input  -57.11 | X-H torsion

> <Gold.Protein.ActiveResidues>
 VAL166  LYS551  ARG553  GLY616  TRP617  ASP618  TYR619  PRO620  LYS621  CYS622 
 ASP623  PHE694  ASN695  SER759  ASP760  ASP761  ALA762  ILE779  LEU786  VAL792 
 PHE793  MET794  SER795  GLU796  ALA797  LYS798  CYS799  TRP800  GLU811  SER814 

> <Gold.Protein.RotatedAtoms>
  151.4462  135.1025  159.9684 H   0  0  0  0  0  0  0  0  0  0  0  0  # atno 6907 bound_to 6896
  152.4905  133.8482  159.7198 H   0  0  0  0  0  0  0  0  0  0  0  0  # atno 6908 bound_to 6896
  150.9053  133.7006  159.2896 H   0  0  0  0  0  0  0  0  0  0  0  0  # atno 6909 bound_to 6896
  144.9336  140.7158  143.4890 H   0  0  0  0  0  0  0  0  0  0  0  0  # atno 7974 bound_to 7965
  154.5134  140.2197  155.9113 H   0  0  0  0  0  0  0  0  0  0  0  0  # atno 8008 bound_to 7997
  156.1579  140.3148  155.8723 H   0  0  0  0  0  0  0  0  0  0  0  0  # atno 8009 bound_to 7997
  155.3810  140.0472  157.3034 H   0  0  0  0  0  0  0  0  0  0  0  0  # atno 8010 bound_to 7997
  140.4218  143.2582  151.8880 H   0  0  0  0  0  0  0  0  0  0  0  0  # atno 10167 bound_to 10162
  156.4905  130.4565  149.6758 H   0  0  0  0  0  0  0  0  0  0  0  0  # atno 10718 bound_to 10713
  153.8988  135.6804  153.4756 H   0  0  0  0  0  0  0  0  0  0  0  0  # atno 10763 bound_to 10752
  153.1140  135.4770  154.9082 H   0  0  0  0  0  0  0  0  0  0  0  0  # atno 10764 bound_to 10752
  154.7585  135.3204  154.8377 H   0  0  0  0  0  0  0  0  0  0  0  0  # atno 10765 bound_to 10752
  141.1578  133.7653  156.9649 H   0  0  0  0  0  0  0  0  0  0  0  0  # atno 11005 bound_to 11000
  145.3102  139.1821  143.4643 LP  0  0  0  0  0  0  0  0  0  0  0  0  # atno 17320 bound_to 7965
  146.3257  140.3105  142.8626 LP  0  0  0  0  0  0  0  0  0  0  0  0  # atno 17321 bound_to 7965
  139.4783  144.5429  151.8501 LP  0  0  0  0  0  0  0  0  0  0  0  0  # atno 17342 bound_to 10162
  140.4525  144.1835  150.5898 LP  0  0  0  0  0  0  0  0  0  0  0  0  # atno 17343 bound_to 10162
  156.3431  130.7392  151.2340 LP  0  0  0  0  0  0  0  0  0  0  0  0  # atno 17370 bound_to 10713
  157.7474  131.0398  150.4568 LP  0  0  0  0  0  0  0  0  0  0  0  0  # atno 17371 bound_to 10713
  140.1168  134.9442  157.2146 LP  0  0  0  0  0  0  0  0  0  0  0  0  # atno 17394 bound_to 11000
  140.3123  134.3010  155.7264 LP  0  0  0  0  0  0  0  0  0  0  0  0  # atno 17395 bound_to 11000

$$$$
