AV-unprocessed.smi:1823|AV-procd|sdf|7392|dock9
  -GOLD-   22720 9 63D 1   1.00000     0.00000
 Structure written by MMmdl.
 43 44  0  0  0  0  0  0  0  0  1 V2000
  147.0285  133.8918  163.3535 C   0  0  0  0  0  0  0  0  0  0  0  0
  147.7352  135.0001  162.6517 C   0  0  0  0  0  0  0  0  0  0  0  0
  147.5538  136.2643  163.0132 N   0  0  0  0  0  0  0  0  0  0  0  0
  148.3872  136.9735  162.1366 O   0  0  0  0  0  0  0  0  0  0  0  0
  148.9636  136.0418  161.3388 C   0  0  0  0  0  0  0  0  0  0  0  0
  149.9729  136.4815  160.3270 C   0  0  0  0  0  0  0  0  0  0  0  0
  149.3660  137.1681  159.0873 C   0  0  0  0  0  0  0  0  0  0  0  0
  150.3230  138.0289  158.3949 N   0  0  0  0  0  0  0  0  0  0  0  0
  151.6334  137.7742  158.2511 C   0  0  0  0  0  0  0  0  0  0  0  0
  152.1721  136.7476  158.6671 O   0  0  0  0  0  0  0  0  0  0  0  0
  152.4703  138.8533  157.5467 C   0  0  1  0  0  0  0  0  0  0  0  0
  151.9127  139.1561  156.1419 C   0  0  0  0  0  0  0  0  0  0  0  0
  151.2892  140.5343  156.2879 C   0  0  0  0  0  0  0  0  0  0  0  0
  150.6312  141.0663  155.3952 O   0  0  0  0  0  0  0  0  0  0  0  0
  151.5409  141.0470  157.4983 N   0  0  0  0  0  0  0  0  0  0  0  0
  151.0996  142.3432  158.0104 C   0  0  0  0  0  0  0  0  0  0  0  0
  152.2764  143.2724  158.3849 C   0  0  0  0  0  0  0  0  0  0  0  0
  152.9921  142.8591  159.6831 C   0  0  0  0  0  0  0  0  0  0  0  0
  151.8024  144.7309  158.4734 C   0  0  0  0  0  0  0  0  0  0  0  0
  152.4287  140.2074  158.2855 C   0  0  0  0  0  0  0  0  0  0  0  0
  148.5972  134.7934  161.6181 N   0  0  0  0  0  0  0  0  0  0  0  0
  145.9491  134.0109  163.2566 H   0  0  0  0  0  0  0  0  0  0  0  0
  147.2850  133.8918  164.4131 H   0  0  0  0  0  0  0  0  0  0  0  0
  147.3082  132.9260  162.9314 H   0  0  0  0  0  0  0  0  0  0  0  0
  150.6767  137.1581  160.8126 H   0  0  0  0  0  0  0  0  0  0  0  0
  150.5508  135.6099  160.0176 H   0  0  0  0  0  0  0  0  0  0  0  0
  148.9652  136.4161  158.4057 H   0  0  0  0  0  0  0  0  0  0  0  0
  148.5174  137.7810  159.3912 H   0  0  0  0  0  0  0  0  0  0  0  0
  149.9665  138.8964  158.0206 H   0  0  0  0  0  0  0  0  0  0  0  0
  153.5035  138.5097  157.4725 H   0  0  0  0  0  0  0  0  0  0  0  0
  152.7119  139.1955  155.4014 H   0  0  0  0  0  0  0  0  0  0  0  0
  151.1700  138.4339  155.7986 H   0  0  0  0  0  0  0  0  0  0  0  0
  150.4823  142.8204  157.2480 H   0  0  0  0  0  0  0  0  0  0  0  0
  150.4478  142.1991  158.8740 H   0  0  0  0  0  0  0  0  0  0  0  0
  153.0101  143.2217  157.5792 H   0  0  0  0  0  0  0  0  0  0  0  0
  152.2977  142.8182  160.5228 H   0  0  0  0  0  0  0  0  0  0  0  0
  153.7810  143.5671  159.9379 H   0  0  0  0  0  0  0  0  0  0  0  0
  153.4625  141.8804  159.5885 H   0  0  0  0  0  0  0  0  0  0  0  0
  151.0701  144.8617  159.2710 H   0  0  0  0  0  0  0  0  0  0  0  0
  151.3395  145.0521  157.5398 H   0  0  0  0  0  0  0  0  0  0  0  0
  152.6364  145.4045  158.6734 H   0  0  0  0  0  0  0  0  0  0  0  0
  152.0750  140.1233  159.3145 H   0  0  0  0  0  0  0  0  0  0  0  0
  153.4203  140.6613  158.3152 H   0  0  0  0  0  0  0  0  0  0  0  0
  1  2  1  0  0  0  0
  1 22  1  0  0  0  0
  1 23  1  0  0  0  0
  1 24  1  0  0  0  0
  2 21  1  0  0  0  0
  2  3  2  0  0  0  0
  3  4  1  0  0  0  0
  4  5  1  0  0  0  0
  5  6  1  0  0  0  0
  5 21  2  0  0  0  0
  6  7  1  0  0  0  0
  6 25  1  0  0  0  0
  6 26  1  0  0  0  0
  7  8  1  0  0  0  0
  7 27  1  0  0  0  0
  7 28  1  0  0  0  0
  8  9  1  0  0  0  0
  8 29  1  0  0  0  0
  9 10  2  0  0  0  0
  9 11  1  0  0  0  0
 11 20  1  0  0  0  0
 11 12  1  0  0  0  0
 11 30  1  0  0  0  0
 12 13  1  0  0  0  0
 12 31  1  0  0  0  0
 12 32  1  0  0  0  0
 13 14  2  0  0  0  0
 13 15  1  0  0  0  0
 15 16  1  0  0  0  0
 15 20  1  0  0  0  0
 16 17  1  0  0  0  0
 16 33  1  0  0  0  0
 16 34  1  0  0  0  0
 17 18  1  0  0  0  0
 17 19  1  0  0  0  0
 17 35  1  0  0  0  0
 18 36  1  0  0  0  0
 18 37  1  0  0  0  0
 18 38  1  0  0  0  0
 19 39  1  0  0  0  0
 19 40  1  0  0  0  0
 19 41  1  0  0  0  0
 20 42  1  0  0  0  0
 20 43  1  0  0  0  0
M  END
> <s_m_source_file>
AV-unprocessed.smi

> <i_m_source_file_index>
1823

> <i_lp_mmshare_version>
43012

> <i_f3d_flags>
0

> <s_epik_input>
W0NIM11jMW5vYyhuMSlbQ0gyXVtDSDJdW05IXUMoPU8pW0NAQEhdMltDSDJdQyg9TylOKFtDSDJdMilbQ0gyXVtDSF0oW0NIM10pW0NIM10=

> <s_epik_cmdline>
J2VwaWtfcHl0aG9uJywgJy1waCcsICc3LjAnLCAnLXRuJywgJzgnLCAnLW1hJywgJzIwMCcsICctbWV0YWxfYmluZGluZycsICctaW1hZScsICc8aW5maWxlLm1hZT4nLCAnLW9tYWUnLCAnPG91dGZpbGUubWFlPic=

> <r_lp_tautomer_probability>
1

> <r_epik_Ionization_Penalty>
3.64678e-08

> <r_epik_Ionization_Penalty_Charging>
0

> <r_epik_Ionization_Penalty_Neutral>
3.64678e-08

> <r_epik_State_Penalty>
-0

> <r_epik_Charging_Adjusted_Penalty>
0

> <i_epik_Tot_Q>
0

> <i_epik_Tot_abs_Q>
0

> <r_epik_Metal_State_Penalty>
-0

> <b_epik_Metal_Only>
0

> <s_lp_Force_Field>
OPLS_2005

> <r_lp_Energy>
11.154

> <b_lp_Chiralities_Consistent>
1

> <s_lp_Variant>
AV-unprocessed.smi:1823-2

> <Gold.Version>
5.8.1

> <Gold.Id.Protein>
6NUR|6NUR_protein|mol2

> <Gold.PLP.Fitness>
48.7601

> <Gold.PLP.PLP>
-40.6423

> <Gold.PLP.part.hbond>
-4.0000

> <Gold.PLP.part.metal>
0.0000

> <Gold.PLP.part.buried>
-3.7143

> <Gold.PLP.part.nonpolar>
-32.6996

> <Gold.PLP.part.repulsive>
0.1791

> <Gold.PLP.ligand.clash>
0.0000

> <Gold.PLP.ligand.torsion>
0.5894

> <Gold.PLP.Chemscore.Hbond>
3.0560

> <Gold.PLP.Chemscore.CHOScore>
0.0000

> <Gold.PLP.Chemscore.Metal>
0.0000

> <Gold.Chemscore.Hbonds>
donor molecule, donor type, donor heavy atom, donor atom, acceptor molecule, acceptor atom, score
      P1  H  6896  6907       L1    10  0.53
      P1  H  6931  6943       L1     4  0.76
      P1  H  7989  7998       L1    14  0.49

> <Gold.PLP.Chemscore.Internal.Correction>
0.1286

> <Gold.Rescore>
     Score         DG    S(hbond)    S(metal)    S(lipo)     H(rot)  DE(clash)    DE(int)     intcor
     14.98     -15.79       2.36        0.00      73.28       2.40       0.09       0.72       ----

> <Gold.Chemscore.Fitness>
14.9761

> <Gold.Chemscore.DG>
-15.7906

> <Gold.Chemscore.ZeroCoef>
-5.4800

> <Gold.Chemscore.Hbond>
2.3562

> <Gold.Chemscore.Metal>
0.0000

> <Gold.Chemscore.Lipo>
73.2812

> <Gold.Chemscore.Internal_Hbond>
0.0000

> <Gold.Chemscore.DEClash>
0.0920

> <Gold.Chemscore.DEInternal>
0.7225

> <Gold.Chemscore.Rot>
2.3957

> <Gold.Chemscore.Internal.Correction>
   9.000000E+99

> <Gold.Chemscore.Hbonds>
donor molecule, donor type, donor heavy atom, donor atom, acceptor molecule, acceptor atom, score
      P1  H  6896  6907       L1    10  0.52
      P1  H  6931  6943       L1     4  0.54
      P1  H  7989  7998       L1    14  0.39

> <Gold.Chemscore.Hbond.Weighted>
-7.8696

> <Gold.Chemscore.Metal.Weighted>
-0.0000

> <Gold.Chemscore.Lipo.Weighted>
-8.5739

> <Gold.Chemscore.Internal_Hbond.Weighted>
0.0000

> <Gold.Chemscore.DEClash.Weighted>
0.0920

> <Gold.Chemscore.DEInternal.Weighted>
0.7225

> <Gold.Chemscore.Rot.Weighted>
6.1329

> <Gold.Chemscore.Internal.Correction.Weighted>
   9.000000E+99

> <Gold.Protein.RotatedTorsions>
[ 6907 6896 6895 6894 ] final   -4.81 input  -60.11 | X-H torsion
[ 7974 7965 7964 7962 ] final  -44.02 input  175.53 | X-H torsion
[ 8008 7997 7996 7995 ] final    4.36 input   59.86 | X-H torsion
[ 10167 10162 10161 10158 ] final   54.13 input  -65.29 | X-H torsion
[ 10718 10713 10712 10709 ] final -161.27 input   66.30 | X-H torsion
[ 10763 10752 10751 10750 ] final  -72.40 input  -60.55 | X-H torsion
[ 11005 11000 10999 10996 ] final   14.97 input  -57.11 | X-H torsion

> <Gold.Protein.ActiveResidues>
 VAL166  LYS551  ARG553  GLY616  TRP617  ASP618  TYR619  PRO620  LYS621  CYS622 
 ASP623  PHE694  ASN695  SER759  ASP760  ASP761  ALA762  ILE779  LEU786  VAL792 
 PHE793  MET794  SER795  GLU796  ALA797  LYS798  CYS799  TRP800  GLU811  SER814 

> <Gold.Protein.RotatedAtoms>
  151.4917  135.1058  159.9804 H   0  0  0  0  0  0  0  0  0  0  0  0  # atno 6907 bound_to 6896
  152.4738  133.8087  159.7002 H   0  0  0  0  0  0  0  0  0  0  0  0  # atno 6908 bound_to 6896
  150.8763  133.7372  159.2971 H   0  0  0  0  0  0  0  0  0  0  0  0  # atno 6909 bound_to 6896
  145.9962  140.7126  142.9293 H   0  0  0  0  0  0  0  0  0  0  0  0  # atno 7974 bound_to 7965
  154.7150  140.2700  155.6594 H   0  0  0  0  0  0  0  0  0  0  0  0  # atno 8008 bound_to 7997
  156.2807  140.2746  156.1728 H   0  0  0  0  0  0  0  0  0  0  0  0  # atno 8009 bound_to 7997
  155.0583  140.0371  157.2558 H   0  0  0  0  0  0  0  0  0  0  0  0  # atno 8010 bound_to 7997
  140.2334  144.3662  150.6406 H   0  0  0  0  0  0  0  0  0  0  0  0  # atno 10167 bound_to 10162
  156.5939  130.8782  151.2897 H   0  0  0  0  0  0  0  0  0  0  0  0  # atno 10718 bound_to 10713
  154.4452  135.5931  153.6155 H   0  0  0  0  0  0  0  0  0  0  0  0  # atno 10763 bound_to 10752
  152.9808  135.6007  154.3673 H   0  0  0  0  0  0  0  0  0  0  0  0  # atno 10764 bound_to 10752
  154.3528  135.2841  155.2341 H   0  0  0  0  0  0  0  0  0  0  0  0  # atno 10765 bound_to 10752
  140.4635  134.1103  155.7720 H   0  0  0  0  0  0  0  0  0  0  0  0  # atno 11005 bound_to 11000
  144.6904  140.3154  143.7241 LP  0  0  0  0  0  0  0  0  0  0  0  0  # atno 17320 bound_to 7965
  145.7557  139.1808  143.2296 LP  0  0  0  0  0  0  0  0  0  0  0  0  # atno 17321 bound_to 7965
  140.6168  143.2173  151.6775 LP  0  0  0  0  0  0  0  0  0  0  0  0  # atno 17342 bound_to 10162
  139.5102  144.3551  152.0616 LP  0  0  0  0  0  0  0  0  0  0  0  0  # atno 17343 bound_to 10162
  157.7297  130.9674  150.1797 LP  0  0  0  0  0  0  0  0  0  0  0  0  # atno 17370 bound_to 10713
  156.2526  130.3702  149.8216 LP  0  0  0  0  0  0  0  0  0  0  0  0  # atno 17371 bound_to 10713
  141.1610  133.8793  157.1847 LP  0  0  0  0  0  0  0  0  0  0  0  0  # atno 17394 bound_to 11000
  139.9930  135.0057  157.0018 LP  0  0  0  0  0  0  0  0  0  0  0  0  # atno 17395 bound_to 11000

$$$$
