AV-unprocessed.smi:1508|AV-procd|sdf|6087|dock3
  -GOLD-   22720 6213D 1   1.00000     0.00000
 Structure written by MMmdl.
 38 39  0  0  0  0  0  0  0  0  2 V2000
  148.5628  132.8771  153.7634 C   0  0  0  0  0  0  0  0  0  0  0  0
  147.5123  133.3729  152.7581 C   0  0  0  0  0  0  0  0  0  0  0  0
  146.1524  133.7755  153.3914 C   0  0  1  0  0  0  0  0  0  0  0  0
  146.2760  135.0273  154.3062 C   0  0  0  0  0  0  0  0  0  0  0  0
  147.2207  136.0231  153.8009 N   0  0  0  0  0  0  0  0  0  0  0  0
  147.4639  137.2202  154.3534 C   0  0  0  0  0  0  0  0  0  0  0  0
  146.9114  137.6194  155.3774 O   0  0  0  0  0  0  0  0  0  0  0  0
  148.3795  137.9032  153.6479 N   0  0  0  0  0  0  0  0  0  0  0  0
  148.9087  139.1894  153.9216 C   0  0  0  0  0  0  0  0  0  0  0  0
  150.2114  139.2825  154.2121 N   0  0  0  0  0  0  0  0  0  0  0  0
  150.5969  140.5943  154.4587 N   0  0  0  0  0  0  0  0  0  0  0  0
  149.5685  141.4403  154.3439 C   0  0  0  0  0  0  0  0  0  0  0  0
  148.0249  140.7185  153.9255 S   0  0  0  0  0  0  0  0  0  0  0  0
  145.0981  133.9781  152.3507 N   0  3  0  0  0  0  0  0  0  0  0  0
  145.3796  135.0047  151.3231 C   0  0  0  0  0  0  0  0  0  0  0  0
  144.4407  134.6768  150.1683 C   0  0  0  0  0  0  0  0  0  0  0  0
  144.4197  133.1532  150.1625 C   0  0  0  0  0  0  0  0  0  0  0  0
  144.6924  132.7505  151.6182 C   0  0  0  0  0  0  0  0  0  0  0  0
  149.4460  132.5081  153.2418 H   0  0  0  0  0  0  0  0  0  0  0  0
  148.1733  132.0592  154.3701 H   0  0  0  0  0  0  0  0  0  0  0  0
  148.8973  133.6661  154.4351 H   0  0  0  0  0  0  0  0  0  0  0  0
  147.9209  134.1995  152.1767 H   0  0  0  0  0  0  0  0  0  0  0  0
  147.3683  132.5567  152.0514 H   0  0  0  0  0  0  0  0  0  0  0  0
  145.8307  132.9398  154.0152 H   0  0  0  0  0  0  0  0  0  0  0  0
  145.3092  135.5245  154.3789 H   0  0  0  0  0  0  0  0  0  0  0  0
  146.5135  134.7519  155.3336 H   0  0  0  0  0  0  0  0  0  0  0  0
  147.7123  135.7903  152.9502 H   0  0  0  0  0  0  0  0  0  0  0  0
  148.7456  137.4532  152.8220 H   0  0  0  0  0  0  0  0  0  0  0  0
  149.7201  142.4970  154.5071 H   0  0  0  0  0  0  0  0  0  0  0  0
  145.2166  136.0157  151.6980 H   0  0  0  0  0  0  0  0  0  0  0  0
  146.4164  134.9223  150.9919 H   0  0  0  0  0  0  0  0  0  0  0  0
  143.4424  135.0605  150.3828 H   0  0  0  0  0  0  0  0  0  0  0  0
  144.7690  135.1016  149.2192 H   0  0  0  0  0  0  0  0  0  0  0  0
  143.4779  132.7525  149.7858 H   0  0  0  0  0  0  0  0  0  0  0  0
  145.2181  132.7769  149.5212 H   0  0  0  0  0  0  0  0  0  0  0  0
  145.4735  131.9892  151.6430 H   0  0  0  0  0  0  0  0  0  0  0  0
  143.8030  132.3282  152.0868 H   0  0  0  0  0  0  0  0  0  0  0  0
  144.2708  134.2994  152.8329 H   0  0  0  0  0  0  0  0  0  0  0  0
  1  2  1  0  0  0  0
  1 19  1  0  0  0  0
  1 20  1  0  0  0  0
  1 21  1  0  0  0  0
  2  3  1  0  0  0  0
  2 22  1  0  0  0  0
  2 23  1  0  0  0  0
  3  4  1  0  0  0  0
  3 14  1  0  0  0  0
  3 24  1  0  0  0  0
  4  5  1  0  0  0  0
  4 25  1  0  0  0  0
  4 26  1  0  0  0  0
  5  6  1  0  0  0  0
  5 27  1  0  0  0  0
  6  7  2  0  0  0  0
  6  8  1  0  0  0  0
  8  9  1  0  0  0  0
  8 28  1  0  0  0  0
  9 13  1  0  0  0  0
  9 10  2  0  0  0  0
 10 11  1  0  0  0  0
 11 12  2  0  0  0  0
 12 13  1  0  0  0  0
 12 29  1  0  0  0  0
 14 18  1  0  0  0  0
 14 15  1  0  0  0  0
 14 38  1  0  0  0  0
 15 16  1  0  0  0  0
 15 30  1  0  0  0  0
 15 31  1  0  0  0  0
 16 17  1  0  0  0  0
 16 32  1  0  0  0  0
 16 33  1  0  0  0  0
 17 18  1  0  0  0  0
 17 34  1  0  0  0  0
 17 35  1  0  0  0  0
 18 36  1  0  0  0  0
 18 37  1  0  0  0  0
M  CHG  1  14   1
M  END
> <s_m_source_file>
AV-unprocessed.smi

> <i_m_source_file_index>
1508

> <i_lp_mmshare_version>
43012

> <i_f3d_flags>
0

> <s_epik_input>
W0NIMl0xW0NIMl1bQ0gyXVtDSDJdTjFbQ0BIXShbQ0gyXVtDSDNdKVtDSDJdW05IXUMoPU8pW05IXWMybm5bY0hdczI=

> <s_epik_cmdline>
J2VwaWtfcHl0aG9uJywgJy1waCcsICc3LjAnLCAnLXRuJywgJzgnLCAnLW1hJywgJzIwMCcsICctbWV0YWxfYmluZGluZycsICctaW1hZScsICc8aW5maWxlLm1hZT4nLCAnLW9tYWUnLCAnPG91dGZpbGUubWFlPic=

> <r_lp_tautomer_probability>
1

> <r_epik_Ionization_Penalty>
0.00193711

> <r_epik_Ionization_Penalty_Charging>
0.00115997

> <r_epik_Ionization_Penalty_Neutral>
0.000777142

> <r_epik_State_Penalty>
-0

> <r_epik_Charging_Adjusted_Penalty>
0.00115997

> <i_epik_Tot_Q>
1

> <i_epik_Tot_abs_Q>
1

> <r_epik_Metal_State_Penalty>
0.264283

> <b_epik_Metal_Only>
0

> <s_lp_Force_Field>
OPLS_2005

> <r_lp_Energy>
37.6611

> <b_lp_Chiralities_Consistent>
1

> <s_lp_Variant>
AV-unprocessed.smi:1508-2

> <Gold.Version>
5.8.1

> <Gold.Id.Protein>
6NUR|6NUR_protein|mol2

> <Gold.PLP.Fitness>
37.6766

> <Gold.PLP.PLP>
-27.7006

> <Gold.PLP.part.hbond>
-3.0000

> <Gold.PLP.part.metal>
0.0000

> <Gold.PLP.part.buried>
-1.8260

> <Gold.PLP.part.nonpolar>
-21.8719

> <Gold.PLP.part.repulsive>
0.2897

> <Gold.PLP.ligand.clash>
0.0000

> <Gold.PLP.ligand.torsion>
1.0285

> <Gold.PLP.Chemscore.Hbond>
2.9920

> <Gold.PLP.Chemscore.CHOScore>
1.0000

> <Gold.PLP.Chemscore.Metal>
0.0000

> <Gold.Chemscore.Hbonds>
donor molecule, donor type, donor heavy atom, donor atom, acceptor molecule, acceptor atom, score
      L1  H     5    27       P1  7948  0.94
      L1  H     8    28       P1  7948  1.00
      P1  H  7989  7998       L1    11  0.73
      L1  C    12    29       P1  8028  0.77

> <Gold.PLP.Chemscore.Internal.Correction>
0.0569

> <Gold.Rescore>
     Score         DG    S(hbond)    S(metal)    S(lipo)     H(rot)  DE(clash)    DE(int)     intcor
     14.89     -15.62       2.59        0.00      54.07       1.89       0.03       0.70       ----

> <Gold.Chemscore.Fitness>
14.8859

> <Gold.Chemscore.DG>
-15.6227

> <Gold.Chemscore.ZeroCoef>
-5.4800

> <Gold.Chemscore.Hbond>
2.5949

> <Gold.Chemscore.Metal>
0.0000

> <Gold.Chemscore.Lipo>
54.0747

> <Gold.Chemscore.Internal_Hbond>
0.0000

> <Gold.Chemscore.DEClash>
0.0339

> <Gold.Chemscore.DEInternal>
0.7030

> <Gold.Chemscore.Rot>
1.8950

> <Gold.Chemscore.Internal.Correction>
   9.000000E+99

> <Gold.Chemscore.Hbonds>
donor molecule, donor type, donor heavy atom, donor atom, acceptor molecule, acceptor atom, score
      L1  H     5    27       P1  7948  0.91
      L1  H     8    28       P1  7948  0.93
      P1  H  7989  7998       L1    11  0.30

> <Gold.Chemscore.Hbond.Weighted>
-8.6671

> <Gold.Chemscore.Metal.Weighted>
-0.0000

> <Gold.Chemscore.Lipo.Weighted>
-6.3267

> <Gold.Chemscore.Internal_Hbond.Weighted>
0.0000

> <Gold.Chemscore.DEClash.Weighted>
0.0339

> <Gold.Chemscore.DEInternal.Weighted>
0.7030

> <Gold.Chemscore.Rot.Weighted>
4.8511

> <Gold.Chemscore.Internal.Correction.Weighted>
   9.000000E+99

> <Gold.Protein.RotatedTorsions>
[ 6907 6896 6895 6894 ] final  -22.13 input  -60.11 | X-H torsion
[ 7974 7965 7964 7962 ] final  -56.94 input  175.53 | X-H torsion
[ 8008 7997 7996 7995 ] final -123.16 input   59.86 | X-H torsion
[ 10167 10162 10161 10158 ] final   35.27 input  -65.29 | X-H torsion
[ 10718 10713 10712 10709 ] final -145.82 input   66.30 | X-H torsion
[ 10763 10752 10751 10750 ] final   39.47 input  -60.55 | X-H torsion
[ 11005 11000 10999 10996 ] final  -52.91 input  -57.11 | X-H torsion

> <Gold.Protein.ActiveResidues>
 VAL166  LYS551  ARG553  GLY616  TRP617  ASP618  TYR619  PRO620  LYS621  CYS622 
 ASP623  PHE694  ASN695  SER759  ASP760  ASP761  ALA762  ILE779  LEU786  VAL792 
 PHE793  MET794  SER795  GLU796  ALA797  LYS798  CYS799  TRP800  GLU811  SER814 

> <Gold.Protein.RotatedAtoms>
  151.2232  135.0526  159.8957 H   0  0  0  0  0  0  0  0  0  0  0  0  # atno 6907 bound_to 6896
  152.5413  134.0618  159.8165 H   0  0  0  0  0  0  0  0  0  0  0  0  # atno 6908 bound_to 6896
  151.0787  133.5359  159.2654 H   0  0  0  0  0  0  0  0  0  0  0  0  # atno 6909 bound_to 6896
  145.8568  140.8313  142.9957 H   0  0  0  0  0  0  0  0  0  0  0  0  # atno 7974 bound_to 7965
  155.1760  140.0409  157.2872 H   0  0  0  0  0  0  0  0  0  0  0  0  # atno 8008 bound_to 7997
  154.6237  140.2507  155.7491 H   0  0  0  0  0  0  0  0  0  0  0  0  # atno 8009 bound_to 7997
  156.2447  140.2889  156.0556 H   0  0  0  0  0  0  0  0  0  0  0  0  # atno 8010 bound_to 7997
  140.4238  144.1422  150.6151 H   0  0  0  0  0  0  0  0  0  0  0  0  # atno 10167 bound_to 10162
  156.3872  130.7867  151.2066 H   0  0  0  0  0  0  0  0  0  0  0  0  # atno 10718 bound_to 10713
  152.9966  135.6219  154.2470 H   0  0  0  0  0  0  0  0  0  0  0  0  # atno 10763 bound_to 10752
  154.2209  135.2796  155.2926 H   0  0  0  0  0  0  0  0  0  0  0  0  # atno 10764 bound_to 10752
  154.5529  135.5728  153.6996 H   0  0  0  0  0  0  0  0  0  0  0  0  # atno 10765 bound_to 10752
  141.0949  133.6626  156.4094 H   0  0  0  0  0  0  0  0  0  0  0  0  # atno 11005 bound_to 11000
  144.6727  140.1036  143.7459 LP  0  0  0  0  0  0  0  0  0  0  0  0  # atno 17320 bound_to 7965
  145.9294  139.2596  143.1334 LP  0  0  0  0  0  0  0  0  0  0  0  0  # atno 17321 bound_to 7965
  140.4504  143.2489  151.9355 LP  0  0  0  0  0  0  0  0  0  0  0  0  # atno 17342 bound_to 10162
  139.4783  144.5567  151.8302 LP  0  0  0  0  0  0  0  0  0  0  0  0  # atno 17343 bound_to 10162
  157.7496  131.0326  150.4235 LP  0  0  0  0  0  0  0  0  0  0  0  0  # atno 17370 bound_to 10713
  156.4490  130.4007  149.6648 LP  0  0  0  0  0  0  0  0  0  0  0  0  # atno 17371 bound_to 10713
  140.5164  134.6346  157.5303 LP  0  0  0  0  0  0  0  0  0  0  0  0  # atno 17394 bound_to 11000
  139.9783  134.7179  155.9907 LP  0  0  0  0  0  0  0  0  0  0  0  0  # atno 17395 bound_to 11000

$$$$
