AV-unprocessed.smi:1991|AV-procd|sdf|8068|dock8
  -GOLD-   2272010273D 1   1.00000     0.00000
 Structure written by MMmdl.
 44 45  0  0  0  0  0  0  0  0  1 V2000
  147.4094  135.9650  157.4825 C   0  0  0  0  0  0  0  0  0  0  0  0
  147.6458  136.3414  158.9526 C   0  0  1  0  0  0  0  0  0  0  0  0
  147.5494  135.1446  159.7211 O   0  0  0  0  0  0  0  0  0  0  0  0
  146.4626  135.0883  160.6398 C   0  0  0  0  0  0  0  0  0  0  0  0
  146.9445  134.4726  161.9588 C   0  0  0  0  0  0  0  0  0  0  0  0
  145.9364  134.4565  162.8300 F   0  0  0  0  0  0  0  0  0  0  0  0
  147.3581  133.2213  161.7596 F   0  0  0  0  0  0  0  0  0  0  0  0
  147.9391  135.1978  162.4695 F   0  0  0  0  0  0  0  0  0  0  0  0
  149.0234  136.9951  159.1459 C   0  0  0  0  0  0  0  0  0  0  0  0
  149.7995  136.5626  159.9981 O   0  0  0  0  0  0  0  0  0  0  0  0
  149.2972  138.0467  158.3583 N   0  0  0  0  0  0  0  0  0  0  0  0
  150.5410  138.8092  158.3583 C   0  0  0  0  0  0  0  0  0  0  0  0
  151.1596  138.9149  156.9679 C   0  0  0  0  0  0  0  0  0  0  0  0
  150.3872  138.5383  155.8478 C   0  0  0  0  0  0  0  0  0  0  0  0
  150.9346  138.6602  154.5582 C   0  0  0  0  0  0  0  0  0  0  0  0
  152.2434  139.1594  154.4358 C   0  0  0  0  0  0  0  0  0  0  0  0
  152.9965  139.5216  155.4945 N   0  0  0  0  0  0  0  0  0  0  0  0
  152.4743  139.4049  156.7401 C   0  0  0  0  0  0  0  0  0  0  0  0
  153.3036  139.7589  157.8177 N   0  0  0  0  0  0  0  0  0  0  0  0
  152.8530  140.9575  158.5114 C   0  0  0  0  0  0  0  0  0  0  0  0
  153.9313  141.4203  159.5056 C   0  0  0  0  0  0  0  0  0  0  0  0
  154.2392  140.3571  160.4040 O   0  0  0  0  0  0  0  0  0  0  0  0
  154.7382  139.2064  159.7261 C   0  0  0  0  0  0  0  0  0  0  0  0
  153.6797  138.6901  158.7361 C   0  0  0  0  0  0  0  0  0  0  0  0
  147.4844  136.8376  156.8325 H   0  0  0  0  0  0  0  0  0  0  0  0
  146.4148  135.5394  157.3482 H   0  0  0  0  0  0  0  0  0  0  0  0
  148.1322  135.2253  157.1359 H   0  0  0  0  0  0  0  0  0  0  0  0
  146.8593  137.0336  159.2594 H   0  0  0  0  0  0  0  0  0  0  0  0
  146.0611  136.0842  160.8306 H   0  0  0  0  0  0  0  0  0  0  0  0
  145.6545  134.4842  160.2247 H   0  0  0  0  0  0  0  0  0  0  0  0
  148.5921  138.3325  157.6948 H   0  0  0  0  0  0  0  0  0  0  0  0
  150.3036  139.8195  158.6923 H   0  0  0  0  0  0  0  0  0  0  0  0
  151.2455  138.4235  159.0954 H   0  0  0  0  0  0  0  0  0  0  0  0
  149.3815  138.1653  155.9740 H   0  0  0  0  0  0  0  0  0  0  0  0
  150.3640  138.3814  153.6847 H   0  0  0  0  0  0  0  0  0  0  0  0
  152.6987  139.2697  153.4628 H   0  0  0  0  0  0  0  0  0  0  0  0
  152.6300  141.7503  157.7982 H   0  0  0  0  0  0  0  0  0  0  0  0
  151.9259  140.7382  159.0425 H   0  0  0  0  0  0  0  0  0  0  0  0
  154.8325  141.7406  158.9801 H   0  0  0  0  0  0  0  0  0  0  0  0
  153.5730  142.2769  160.0765 H   0  0  0  0  0  0  0  0  0  0  0  0
  155.6673  139.4516  159.2088 H   0  0  0  0  0  0  0  0  0  0  0  0
  154.9748  138.4355  160.4596 H   0  0  0  0  0  0  0  0  0  0  0  0
  152.8017  138.3444  159.2838 H   0  0  0  0  0  0  0  0  0  0  0  0
  154.0704  137.8400  158.1755 H   0  0  0  0  0  0  0  0  0  0  0  0
  1  2  1  0  0  0  0
  1 25  1  0  0  0  0
  1 26  1  0  0  0  0
  1 27  1  0  0  0  0
  2  3  1  0  0  0  0
  2  9  1  0  0  0  0
  2 28  1  0  0  0  0
  3  4  1  0  0  0  0
  4  5  1  0  0  0  0
  4 29  1  0  0  0  0
  4 30  1  0  0  0  0
  5  6  1  0  0  0  0
  5  7  1  0  0  0  0
  5  8  1  0  0  0  0
  9 10  2  0  0  0  0
  9 11  1  0  0  0  0
 11 12  1  0  0  0  0
 11 31  1  0  0  0  0
 12 13  1  0  0  0  0
 12 32  1  0  0  0  0
 12 33  1  0  0  0  0
 13 18  1  0  0  0  0
 13 14  2  0  0  0  0
 14 15  1  0  0  0  0
 14 34  1  0  0  0  0
 15 16  2  0  0  0  0
 15 35  1  0  0  0  0
 16 17  1  0  0  0  0
 16 36  1  0  0  0  0
 17 18  2  0  0  0  0
 18 19  1  0  0  0  0
 19 24  1  0  0  0  0
 19 20  1  0  0  0  0
 20 21  1  0  0  0  0
 20 37  1  0  0  0  0
 20 38  1  0  0  0  0
 21 22  1  0  0  0  0
 21 39  1  0  0  0  0
 21 40  1  0  0  0  0
 22 23  1  0  0  0  0
 23 24  1  0  0  0  0
 23 41  1  0  0  0  0
 23 42  1  0  0  0  0
 24 43  1  0  0  0  0
 24 44  1  0  0  0  0
M  END
> <s_m_source_file>
AV-unprocessed.smi

> <i_m_source_file_index>
1991

> <i_lp_mmshare_version>
43012

> <i_f3d_flags>
0

> <s_epik_input>
RkMoRikoRilbQ0gyXU9bQ0BASF0oW0NIM10pQyg9TylbTkhdW0NIMl1jMVtjSF1bY0hdW2NIXW5jMU4yW0NIMl1bQ0gyXU9bQ0gyXVtDSDJdMg==

> <s_epik_cmdline>
J2VwaWtfcHl0aG9uJywgJy1waCcsICc3LjAnLCAnLXRuJywgJzgnLCAnLW1hJywgJzIwMCcsICctbWV0YWxfYmluZGluZycsICctaW1hZScsICc8aW5maWxlLm1hZT4nLCAnLW9tYWUnLCAnPG91dGZpbGUubWFlPic=

> <r_lp_tautomer_probability>
1

> <r_epik_Ionization_Penalty>
0.00436412

> <r_epik_Ionization_Penalty_Charging>
0

> <r_epik_Ionization_Penalty_Neutral>
0.00436412

> <r_epik_State_Penalty>
0.00314317

> <r_epik_Charging_Adjusted_Penalty>
0.00314317

> <i_epik_Tot_Q>
0

> <i_epik_Tot_abs_Q>
0

> <r_epik_Metal_State_Penalty>
-0

> <b_epik_Metal_Only>
0

> <s_lp_Force_Field>
OPLS_2005

> <r_lp_Energy>
21.3683

> <b_lp_Chiralities_Consistent>
1

> <s_lp_Variant>
AV-unprocessed.smi:1991-2

> <Gold.Version>
5.8.1

> <Gold.Id.Protein>
6NUR|6NUR_protein|mol2

> <Gold.PLP.Fitness>
44.1940

> <Gold.PLP.PLP>
-42.2850

> <Gold.PLP.part.hbond>
-2.9603

> <Gold.PLP.part.metal>
0.0000

> <Gold.PLP.part.buried>
-6.2011

> <Gold.PLP.part.nonpolar>
-33.5253

> <Gold.PLP.part.repulsive>
0.1118

> <Gold.PLP.ligand.clash>
0.0000

> <Gold.PLP.ligand.torsion>
1.3842

> <Gold.PLP.Chemscore.Hbond>
1.4640

> <Gold.PLP.Chemscore.CHOScore>
0.0000

> <Gold.PLP.Chemscore.Metal>
0.0000

> <Gold.Chemscore.Hbonds>
donor molecule, donor type, donor heavy atom, donor atom, acceptor molecule, acceptor atom, score
      P1  H  7997  8008       L1    17  0.60

> <Gold.PLP.Chemscore.Internal.Correction>
0.2854

> <Gold.Rescore>
     Score         DG    S(hbond)    S(metal)    S(lipo)     H(rot)  DE(clash)    DE(int)     intcor
     11.78     -13.05       1.50        0.00      76.39       2.49       0.00       1.26       ----

> <Gold.Chemscore.Fitness>
11.7816

> <Gold.Chemscore.DG>
-13.0451

> <Gold.Chemscore.ZeroCoef>
-5.4800

> <Gold.Chemscore.Hbond>
1.4974

> <Gold.Chemscore.Metal>
0.0000

> <Gold.Chemscore.Lipo>
76.3921

> <Gold.Chemscore.Internal_Hbond>
0.0000

> <Gold.Chemscore.DEClash>
0.0000

> <Gold.Chemscore.DEInternal>
1.2635

> <Gold.Chemscore.Rot>
2.4899

> <Gold.Chemscore.Internal.Correction>
   9.000000E+99

> <Gold.Chemscore.Hbonds>
donor molecule, donor type, donor heavy atom, donor atom, acceptor molecule, acceptor atom, score
      P1  H  7997  8008       L1    17  0.04

> <Gold.Chemscore.Hbond.Weighted>
-5.0014

> <Gold.Chemscore.Metal.Weighted>
-0.0000

> <Gold.Chemscore.Lipo.Weighted>
-8.9379

> <Gold.Chemscore.Internal_Hbond.Weighted>
0.0000

> <Gold.Chemscore.DEClash.Weighted>
0.0000

> <Gold.Chemscore.DEInternal.Weighted>
1.2635

> <Gold.Chemscore.Rot.Weighted>
6.3741

> <Gold.Chemscore.Internal.Correction.Weighted>
   9.000000E+99

> <Gold.Protein.RotatedTorsions>
[ 6907 6896 6895 6894 ] final  141.58 input  -60.11 | X-H torsion
[ 7974 7965 7964 7962 ] final   74.23 input  175.53 | X-H torsion
[ 8008 7997 7996 7995 ] final  -27.71 input   59.86 | X-H torsion
[ 10167 10162 10161 10158 ] final    1.97 input  -65.29 | X-H torsion
[ 10718 10713 10712 10709 ] final -124.96 input   66.30 | X-H torsion
[ 10763 10752 10751 10750 ] final  100.52 input  -60.55 | X-H torsion
[ 11005 11000 10999 10996 ] final   -8.33 input  -57.11 | X-H torsion

> <Gold.Protein.ActiveResidues>
 VAL166  LYS551  ARG553  GLY616  TRP617  ASP618  TYR619  PRO620  LYS621  CYS622 
 ASP623  PHE694  ASN695  SER759  ASP760  ASP761  ALA762  ILE779  LEU786  VAL792 
 PHE793  MET794  SER795  GLU796  ALA797  LYS798  CYS799  TRP800  GLU811  SER814 

> <Gold.Protein.RotatedAtoms>
  152.2293  133.5045  159.5206 H   0  0  0  0  0  0  0  0  0  0  0  0  # atno 6907 bound_to 6896
  150.7033  134.1238  159.4053 H   0  0  0  0  0  0  0  0  0  0  0  0  # atno 6908 bound_to 6896
  151.9159  135.0319  160.0569 H   0  0  0  0  0  0  0  0  0  0  0  0  # atno 6909 bound_to 6896
  145.7309  139.2683  143.1541 H   0  0  0  0  0  0  0  0  0  0  0  0  # atno 7974 bound_to 7965
  154.4365  140.1865  156.0975 H   0  0  0  0  0  0  0  0  0  0  0  0  # atno 8008 bound_to 7997
  156.0318  140.3329  155.7122 H   0  0  0  0  0  0  0  0  0  0  0  0  # atno 8009 bound_to 7997
  155.5828  140.0623  157.2769 H   0  0  0  0  0  0  0  0  0  0  0  0  # atno 8010 bound_to 7997
  140.6657  143.7185  150.7823 H   0  0  0  0  0  0  0  0  0  0  0  0  # atno 10167 bound_to 10162
  156.1634  130.6617  151.0081 H   0  0  0  0  0  0  0  0  0  0  0  0  # atno 10718 bound_to 10713
  153.3150  135.4076  155.1368 H   0  0  0  0  0  0  0  0  0  0  0  0  # atno 10763 bound_to 10752
  154.8586  135.3573  154.5673 H   0  0  0  0  0  0  0  0  0  0  0  0  # atno 10764 bound_to 10752
  153.6103  135.7068  153.5408 H   0  0  0  0  0  0  0  0  0  0  0  0  # atno 10765 bound_to 10752
  140.7224  133.8818  155.8830 H   0  0  0  0  0  0  0  0  0  0  0  0  # atno 11005 bound_to 11000
  146.0538  140.8042  142.9768 LP  0  0  0  0  0  0  0  0  0  0  0  0  # atno 17320 bound_to 7965
  144.6893  140.3093  143.7250 LP  0  0  0  0  0  0  0  0  0  0  0  0  # atno 17321 bound_to 7965
  140.0862  143.4921  152.2504 LP  0  0  0  0  0  0  0  0  0  0  0  0  # atno 17342 bound_to 10162
  139.5905  144.7548  151.3412 LP  0  0  0  0  0  0  0  0  0  0  0  0  # atno 17343 bound_to 10162
  157.6749  131.0852  150.7519 LP  0  0  0  0  0  0  0  0  0  0  0  0  # atno 17370 bound_to 10713
  156.7581  130.4790  149.5442 LP  0  0  0  0  0  0  0  0  0  0  0  0  # atno 17371 bound_to 10713
  140.9992  134.1173  157.4333 LP  0  0  0  0  0  0  0  0  0  0  0  0  # atno 17394 bound_to 11000
  139.8845  135.0063  156.6373 LP  0  0  0  0  0  0  0  0  0  0  0  0  # atno 17395 bound_to 11000

$$$$
