AV-unprocessed.smi:712|AV-procd|sdf|3468|dock2
  -GOLD-   22720 0453D 1   1.00000     0.00000
 Structure written by MMmdl.
 51 52  0  0  0  0  0  0  0  0  2 V2000
  152.4638  143.3934  161.5444 C   0  0  0  0  0  0  0  0  0  0  0  0
  152.1872  142.9202  160.1324 C   0  0  0  0  0  0  0  0  0  0  0  0
  151.6114  143.8159  159.1509 C   0  0  0  0  0  0  0  0  0  0  0  0
  151.3817  143.3637  157.9085 C   0  0  0  0  0  0  0  0  0  0  0  0
  151.6835  142.0425  157.5310 N   0  0  0  0  0  0  0  0  0  0  0  0
  151.3870  141.6522  156.1427 C   0  0  0  0  0  0  0  0  0  0  0  0
  149.8830  141.5032  155.8777 C   0  0  0  0  0  0  0  0  0  0  0  0
  149.1176  141.1747  156.7848 O   0  0  0  0  0  0  0  0  0  0  0  0
  149.4752  141.7541  154.6246 N   0  0  0  0  0  0  0  0  0  0  0  0
  148.1066  141.6059  154.1418 C   0  0  0  0  0  0  0  0  0  0  0  0
  147.7862  140.1383  153.8036 C   0  0  2  0  0  0  0  0  0  0  0  0
  146.4122  139.9898  153.1212 C   0  0  0  0  0  0  0  0  0  0  0  0
  146.1157  138.5600  152.8548 N   0  3  2  0  0  0  0  0  0  0  0  0
  144.8302  138.3357  152.1448 C   0  0  0  0  0  0  0  0  0  0  0  0
  144.7449  136.9544  151.4591 C   0  0  0  0  0  0  0  0  0  0  0  0
  143.6238  136.9427  150.4094 C   0  0  0  0  0  0  0  0  0  0  0  0
  144.5391  135.8189  152.4760 C   0  0  0  0  0  0  0  0  0  0  0  0
  146.2151  137.7705  154.1050 C   0  0  0  0  0  0  0  0  0  0  0  0
  147.5822  137.9901  154.7716 C   0  0  0  0  0  0  0  0  0  0  0  0
  147.7725  139.3780  155.0080 O   0  0  0  0  0  0  0  0  0  0  0  0
  152.2219  141.1450  158.4111 C   0  0  0  0  0  0  0  0  0  0  0  0
  152.4787  139.9841  158.0885 O   0  0  0  0  0  0  0  0  0  0  0  0
  152.4715  141.6512  159.7654 C   0  0  0  0  0  0  0  0  0  0  0  0
  152.2438  144.4555  161.6547 H   0  0  0  0  0  0  0  0  0  0  0  0
  153.5118  143.2355  161.8003 H   0  0  0  0  0  0  0  0  0  0  0  0
  151.8483  142.8420  162.2558 H   0  0  0  0  0  0  0  0  0  0  0  0
  151.3651  144.8346  159.4121 H   0  0  0  0  0  0  0  0  0  0  0  0
  150.9491  143.9784  157.1326 H   0  0  0  0  0  0  0  0  0  0  0  0
  151.7841  142.3843  155.4382 H   0  0  0  0  0  0  0  0  0  0  0  0
  151.9002  140.7179  155.9066 H   0  0  0  0  0  0  0  0  0  0  0  0
  150.1706  142.0332  153.9477 H   0  0  0  0  0  0  0  0  0  0  0  0
  147.3920  142.0037  154.8646 H   0  0  0  0  0  0  0  0  0  0  0  0
  148.0110  142.2189  153.2453 H   0  0  0  0  0  0  0  0  0  0  0  0
  148.5628  139.7530  153.1393 H   0  0  0  0  0  0  0  0  0  0  0  0
  145.6299  140.4150  153.7521 H   0  0  0  0  0  0  0  0  0  0  0  0
  146.4133  140.5552  152.1903 H   0  0  0  0  0  0  0  0  0  0  0  0
  144.0079  138.4127  152.8582 H   0  0  0  0  0  0  0  0  0  0  0  0
  144.6777  139.1358  151.4188 H   0  0  0  0  0  0  0  0  0  0  0  0
  145.6742  136.7609  150.9241 H   0  0  0  0  0  0  0  0  0  0  0  0
  142.6507  137.1267  150.8659 H   0  0  0  0  0  0  0  0  0  0  0  0
  143.5739  135.9813  149.8973 H   0  0  0  0  0  0  0  0  0  0  0  0
  143.7863  137.7089  149.6510 H   0  0  0  0  0  0  0  0  0  0  0  0
  143.6227  135.9610  153.0496 H   0  0  0  0  0  0  0  0  0  0  0  0
  145.3680  135.7588  153.1813 H   0  0  0  0  0  0  0  0  0  0  0  0
  144.4701  134.8524  151.9759 H   0  0  0  0  0  0  0  0  0  0  0  0
  145.4151  138.0634  154.7869 H   0  0  0  0  0  0  0  0  0  0  0  0
  146.0810  136.7102  153.8877 H   0  0  0  0  0  0  0  0  0  0  0  0
  147.6271  137.4605  155.7235 H   0  0  0  0  0  0  0  0  0  0  0  0
  148.3893  137.5982  154.1505 H   0  0  0  0  0  0  0  0  0  0  0  0
  152.9003  140.9779  160.4937 H   0  0  0  0  0  0  0  0  0  0  0  0
  146.8441  138.2152  152.2456 H   0  0  0  0  0  0  0  0  0  0  0  0
  1  2  1  0  0  0  0
  1 24  1  0  0  0  0
  1 25  1  0  0  0  0
  1 26  1  0  0  0  0
  2 23  2  0  0  0  0
  2  3  1  0  0  0  0
  3  4  2  0  0  0  0
  3 27  1  0  0  0  0
  4  5  1  0  0  0  0
  4 28  1  0  0  0  0
  5  6  1  0  0  0  0
  5 21  1  0  0  0  0
  6  7  1  0  0  0  0
  6 29  1  0  0  0  0
  6 30  1  0  0  0  0
  7  8  2  0  0  0  0
  7  9  1  0  0  0  0
  9 10  1  0  0  0  0
  9 31  1  0  0  0  0
 10 11  1  0  0  0  0
 10 32  1  0  0  0  0
 10 33  1  0  0  0  0
 11 20  1  0  0  0  0
 11 12  1  0  0  0  0
 11 34  1  0  0  0  0
 12 13  1  0  0  0  0
 12 35  1  0  0  0  0
 12 36  1  0  0  0  0
 13 14  1  0  0  0  0
 13 18  1  0  0  0  0
 13 51  1  0  0  0  0
 14 15  1  0  0  0  0
 14 37  1  0  0  0  0
 14 38  1  0  0  0  0
 15 16  1  0  0  0  0
 15 17  1  0  0  0  0
 15 39  1  0  0  0  0
 16 40  1  0  0  0  0
 16 41  1  0  0  0  0
 16 42  1  0  0  0  0
 17 43  1  0  0  0  0
 17 44  1  0  0  0  0
 17 45  1  0  0  0  0
 18 19  1  0  0  0  0
 18 46  1  0  0  0  0
 18 47  1  0  0  0  0
 19 20  1  0  0  0  0
 19 48  1  0  0  0  0
 19 49  1  0  0  0  0
 21 22  2  0  0  0  0
 21 23  1  0  0  0  0
 23 50  1  0  0  0  0
M  CHG  1  13   1
M  END
> <s_m_source_file>
AV-unprocessed.smi

> <i_m_source_file_index>
712

> <i_lp_mmshare_version>
43012

> <i_f3d_flags>
0

> <s_epik_input>
W0NIM11jMVtjSF1bY0hdbihjKD1PKVtjSF0xKVtDSDJdQyg9TylbTkhdW0NIMl1bQ0BASF0yW0NIMl1OKFtDSDJdW0NIMl1PMilbQ0gyXVtDSF0oW0NIM10pW0NIM10=

> <s_epik_cmdline>
J2VwaWtfcHl0aG9uJywgJy1waCcsICc3LjAnLCAnLXRuJywgJzgnLCAnLW1hJywgJzIwMCcsICctbWV0YWxfYmluZGluZycsICctaW1hZScsICc8aW5maWxlLm1hZT4nLCAnLW9tYWUnLCAnPG91dGZpbGUubWFlPic=

> <r_lp_tautomer_probability>
1

> <r_epik_Ionization_Penalty>
0.0975935

> <r_epik_Ionization_Penalty_Charging>
0.0975934

> <r_epik_Ionization_Penalty_Neutral>
6.27044e-08

> <r_epik_State_Penalty>
0.0877056

> <r_epik_Charging_Adjusted_Penalty>
0.185299

> <i_epik_Tot_Q>
1

> <i_epik_Tot_abs_Q>
1

> <r_epik_Metal_State_Penalty>
0.0877109

> <b_epik_Metal_Only>
0

> <s_lp_Force_Field>
OPLS_2005

> <r_lp_Energy>
27.343

> <b_lp_Chiralities_Consistent>
1

> <s_lp_Variant>
AV-unprocessed.smi:712-1

> <Gold.Version>
5.8.1

> <Gold.Id.Protein>
6NUR|6NUR_protein|mol2

> <Gold.PLP.Fitness>
48.0726

> <Gold.PLP.PLP>
-37.8948

> <Gold.PLP.part.hbond>
-2.0000

> <Gold.PLP.part.metal>
0.0000

> <Gold.PLP.part.buried>
-5.5836

> <Gold.PLP.part.nonpolar>
-30.3514

> <Gold.PLP.part.repulsive>
0.4152

> <Gold.PLP.ligand.clash>
0.0000

> <Gold.PLP.ligand.torsion>
0.9393

> <Gold.PLP.Chemscore.Hbond>
2.9833

> <Gold.PLP.Chemscore.CHOScore>
1.0000

> <Gold.PLP.Chemscore.Metal>
0.0000

> <Gold.Chemscore.Hbonds>
donor molecule, donor type, donor heavy atom, donor atom, acceptor molecule, acceptor atom, score
      P1  H  7997  8009       L1    22  0.21
      L1  C     4    28       P1  8028  0.78

> <Gold.PLP.Chemscore.Internal.Correction>
0.1066

> <Gold.Rescore>
     Score         DG    S(hbond)    S(metal)    S(lipo)     H(rot)  DE(clash)    DE(int)     intcor
     14.95     -18.82       1.84        0.00     102.77       1.89       1.32       2.55       ----

> <Gold.Chemscore.Fitness>
14.9492

> <Gold.Chemscore.DG>
-18.8154

> <Gold.Chemscore.ZeroCoef>
-5.4800

> <Gold.Chemscore.Hbond>
1.8390

> <Gold.Chemscore.Metal>
0.0000

> <Gold.Chemscore.Lipo>
102.7707

> <Gold.Chemscore.Internal_Hbond>
0.0000

> <Gold.Chemscore.DEClash>
1.3190

> <Gold.Chemscore.DEInternal>
2.5473

> <Gold.Chemscore.Rot>
1.8871

> <Gold.Chemscore.Internal.Correction>
   9.000000E+99

> <Gold.Chemscore.Hbonds>
donor molecule, donor type, donor heavy atom, donor atom, acceptor molecule, acceptor atom, score
      P1  H  7997  8009       L1    22  0.12

> <Gold.Chemscore.Hbond.Weighted>
-6.1422

> <Gold.Chemscore.Metal.Weighted>
-0.0000

> <Gold.Chemscore.Lipo.Weighted>
-12.0242

> <Gold.Chemscore.Internal_Hbond.Weighted>
0.0000

> <Gold.Chemscore.DEClash.Weighted>
1.3190

> <Gold.Chemscore.DEInternal.Weighted>
2.5473

> <Gold.Chemscore.Rot.Weighted>
4.8309

> <Gold.Chemscore.Internal.Correction.Weighted>
   9.000000E+99

> <Gold.Protein.RotatedTorsions>
[ 6907 6896 6895 6894 ] final   60.90 input  -60.11 | X-H torsion
[ 7974 7965 7964 7962 ] final  -75.60 input  175.53 | X-H torsion
[ 8008 7997 7996 7995 ] final  159.26 input   59.86 | X-H torsion
[ 10167 10162 10161 10158 ] final   98.25 input  -65.29 | X-H torsion
[ 10718 10713 10712 10709 ] final  154.48 input   66.30 | X-H torsion
[ 10763 10752 10751 10750 ] final -147.81 input  -60.55 | X-H torsion
[ 11005 11000 10999 10996 ] final   59.21 input  -57.11 | X-H torsion

> <Gold.Protein.ActiveResidues>
 VAL166  LYS551  ARG553  GLY616  TRP617  ASP618  TYR619  PRO620  LYS621  CYS622 
 ASP623  PHE694  ASN695  SER759  ASP760  ASP761  ALA762  ILE779  LEU786  VAL792 
 PHE793  MET794  SER795  GLU796  ALA797  LYS798  CYS799  TRP800  GLU811  SER814 

> <Gold.Protein.RotatedAtoms>
  152.4043  134.6234  160.0056 H   0  0  0  0  0  0  0  0  0  0  0  0  # atno 6907 bound_to 6896
  151.6430  133.3319  159.3142 H   0  0  0  0  0  0  0  0  0  0  0  0  # atno 6908 bound_to 6896
  150.7939  134.7026  159.6603 H   0  0  0  0  0  0  0  0  0  0  0  0  # atno 6909 bound_to 6896
  145.6239  140.9356  143.1123 H   0  0  0  0  0  0  0  0  0  0  0  0  # atno 7974 bound_to 7965
  156.2250  140.1836  156.7384 H   0  0  0  0  0  0  0  0  0  0  0  0  # atno 8008 bound_to 7997
  154.5927  140.0648  156.9289 H   0  0  0  0  0  0  0  0  0  0  0  0  # atno 8009 bound_to 7997
  155.2309  140.3314  155.4306 H   0  0  0  0  0  0  0  0  0  0  0  0  # atno 8010 bound_to 7997
  139.7726  144.6917  151.0135 H   0  0  0  0  0  0  0  0  0  0  0  0  # atno 10167 bound_to 10162
  157.2311  131.0739  151.1852 H   0  0  0  0  0  0  0  0  0  0  0  0  # atno 10718 bound_to 10713
  154.8266  135.3350  154.6876 H   0  0  0  0  0  0  0  0  0  0  0  0  # atno 10763 bound_to 10752
  153.7501  135.6940  153.4952 H   0  0  0  0  0  0  0  0  0  0  0  0  # atno 10764 bound_to 10752
  153.2182  135.4458  155.0409 H   0  0  0  0  0  0  0  0  0  0  0  0  # atno 10765 bound_to 10752
  140.0321  134.5997  155.9493 H   0  0  0  0  0  0  0  0  0  0  0  0  # atno 11005 bound_to 11000
  144.7220  139.7998  143.7378 LP  0  0  0  0  0  0  0  0  0  0  0  0  # atno 17320 bound_to 7965
  146.1410  139.4467  143.0109 LP  0  0  0  0  0  0  0  0  0  0  0  0  # atno 17321 bound_to 7965
  140.7815  143.4572  151.0329 LP  0  0  0  0  0  0  0  0  0  0  0  0  # atno 17342 bound_to 10162
  139.8255  143.7762  152.3178 LP  0  0  0  0  0  0  0  0  0  0  0  0  # atno 17343 bound_to 10162
  157.3477  130.7066  149.6421 LP  0  0  0  0  0  0  0  0  0  0  0  0  # atno 17370 bound_to 10713
  155.9675  130.4261  150.4686 LP  0  0  0  0  0  0  0  0  0  0  0  0  # atno 17371 bound_to 10713
  141.1837  133.6551  156.5125 LP  0  0  0  0  0  0  0  0  0  0  0  0  # atno 17394 bound_to 11000
  140.4209  134.7188  157.4889 LP  0  0  0  0  0  0  0  0  0  0  0  0  # atno 17395 bound_to 11000

$$$$
