AV-unprocessed.smi:765|AV-procd|sdf|3648|dock10
  -GOLD-   22720 1 53D 1   1.00000     0.00000
 Structure written by MMmdl.
 39 40  0  0  0  0  0  0  0  0  1 V2000
  151.9127  144.2113  158.0097 C   0  0  0  0  0  0  0  0  0  0  0  0
  151.8675  142.6927  157.7881 C   0  0  1  0  0  0  0  0  0  0  0  0
  151.9473  141.9292  159.1221 C   0  0  0  0  0  0  0  0  0  0  0  0
  151.8828  140.4105  158.9086 C   0  0  0  0  0  0  0  0  0  0  0  0
  150.6236  140.0149  158.1208 C   0  0  0  0  0  0  0  0  0  0  0  0
  150.5290  140.7496  156.7607 C   0  0  1  0  0  0  0  0  0  0  0  0
  151.6370  140.3450  155.8718 C   0  0  0  0  0  0  0  0  0  0  0  0
  152.5043  140.0268  155.1749 N   0  0  0  0  0  0  0  0  0  0  0  0
  149.2304  140.4767  156.1416 N   0  0  0  0  0  0  0  0  0  0  0  0
  148.8382  140.8132  154.9009 C   0  0  0  0  0  0  0  0  0  0  0  0
  149.5498  141.4382  154.1143 O   0  0  0  0  0  0  0  0  0  0  0  0
  147.4255  140.3634  154.4951 C   0  0  1  0  0  0  0  0  0  0  0  0
  146.8850  139.2172  155.3744 C   0  0  0  0  0  0  0  0  0  0  0  0
  146.5214  141.5076  154.4646 N   0  0  0  0  0  0  0  0  0  0  0  0
  146.6512  142.6718  153.7346 C   0  0  0  0  0  0  0  0  0  0  0  0
  145.5945  143.4763  154.0516 C   0  0  0  0  0  0  0  0  0  0  0  0
  144.8651  142.7147  155.0063 C   0  0  0  0  0  0  0  0  0  0  0  0
  145.4250  141.5430  155.2574 N   0  0  0  0  0  0  0  0  0  0  0  0
  150.6032  142.2736  157.0099 C   0  0  0  0  0  0  0  0  0  0  0  0
  151.0650  144.5513  158.6056 H   0  0  0  0  0  0  0  0  0  0  0  0
  151.8889  144.7481  157.0609 H   0  0  0  0  0  0  0  0  0  0  0  0
  152.8244  144.5049  158.5309 H   0  0  0  0  0  0  0  0  0  0  0  0
  152.7419  142.4260  157.1929 H   0  0  0  0  0  0  0  0  0  0  0  0
  152.8692  142.1856  159.6454 H   0  0  0  0  0  0  0  0  0  0  0  0
  151.1278  142.2377  159.7726 H   0  0  0  0  0  0  0  0  0  0  0  0
  152.7740  140.0750  158.3768 H   0  0  0  0  0  0  0  0  0  0  0  0
  151.8907  139.9012  159.8727 H   0  0  0  0  0  0  0  0  0  0  0  0
  150.6218  138.9345  157.9732 H   0  0  0  0  0  0  0  0  0  0  0  0
  149.7421  140.2405  158.7231 H   0  0  0  0  0  0  0  0  0  0  0  0
  148.5702  139.9650  156.7085 H   0  0  0  0  0  0  0  0  0  0  0  0
  147.4913  139.9797  153.4756 H   0  0  0  0  0  0  0  0  0  0  0  0
  147.5472  138.3515  155.3417 H   0  0  0  0  0  0  0  0  0  0  0  0
  145.9048  138.8906  155.0261 H   0  0  0  0  0  0  0  0  0  0  0  0
  146.7815  139.5138  156.4190 H   0  0  0  0  0  0  0  0  0  0  0  0
  147.4772  142.8300  153.0570 H   0  0  0  0  0  0  0  0  0  0  0  0
  145.3778  144.4606  153.6640 H   0  0  0  0  0  0  0  0  0  0  0  0
  143.9545  142.9779  155.5240 H   0  0  0  0  0  0  0  0  0  0  0  0
  149.7209  142.5977  157.5650 H   0  0  0  0  0  0  0  0  0  0  0  0
  150.5708  142.8023  156.0558 H   0  0  0  0  0  0  0  0  0  0  0  0
  1  2  1  0  0  0  0
  1 20  1  0  0  0  0
  1 21  1  0  0  0  0
  1 22  1  0  0  0  0
  2 19  1  0  0  0  0
  2  3  1  0  0  0  0
  2 23  1  0  0  0  0
  3  4  1  0  0  0  0
  3 24  1  0  0  0  0
  3 25  1  0  0  0  0
  4  5  1  0  0  0  0
  4 26  1  0  0  0  0
  4 27  1  0  0  0  0
  5  6  1  0  0  0  0
  5 28  1  0  0  0  0
  5 29  1  0  0  0  0
  6  7  1  0  0  0  0
  6  9  1  0  0  0  0
  6 19  1  0  0  0  0
  7  8  3  0  0  0  0
  9 10  1  0  0  0  0
  9 30  1  0  0  0  0
 10 11  2  0  0  0  0
 10 12  1  0  0  0  0
 12 13  1  0  0  0  0
 12 14  1  0  0  0  0
 12 31  1  0  0  0  0
 13 32  1  0  0  0  0
 13 33  1  0  0  0  0
 13 34  1  0  0  0  0
 14 18  1  0  0  0  0
 14 15  1  0  0  0  0
 15 16  2  0  0  0  0
 15 35  1  0  0  0  0
 16 17  1  0  0  0  0
 16 36  1  0  0  0  0
 17 18  2  0  0  0  0
 17 37  1  0  0  0  0
 19 38  1  0  0  0  0
 19 39  1  0  0  0  0
M  END
> <s_m_source_file>
AV-unprocessed.smi

> <i_m_source_file_index>
765

> <i_lp_mmshare_version>
43012

> <i_f3d_flags>
0

> <s_epik_input>
W0NIM11bQ0BASF0oW0NIMl0xKVtDSDJdW0NIMl1bQ0gyXVtDQEBdMShDI04pW05IXUMoPU8pW0NASF0oW0NIM10pbjJbY0hdW2NIXVtjSF1uMg==

> <s_epik_cmdline>
J2VwaWtfcHl0aG9uJywgJy1waCcsICc3LjAnLCAnLXRuJywgJzgnLCAnLW1hJywgJzIwMCcsICctbWV0YWxfYmluZGluZycsICctaW1hZScsICc8aW5maWxlLm1hZT4nLCAnLW9tYWUnLCAnPG91dGZpbGUubWFlPic=

> <r_lp_tautomer_probability>
1

> <r_epik_Ionization_Penalty>
2.71142e-05

> <r_epik_Ionization_Penalty_Charging>
0

> <r_epik_Ionization_Penalty_Neutral>
2.71142e-05

> <r_epik_State_Penalty>
-0

> <r_epik_Charging_Adjusted_Penalty>
0

> <i_epik_Tot_Q>
0

> <i_epik_Tot_abs_Q>
0

> <r_epik_Metal_State_Penalty>
-0

> <b_epik_Metal_Only>
0

> <s_lp_Force_Field>
OPLS_2005

> <r_lp_Energy>
11.5189

> <b_lp_Chiralities_Consistent>
1

> <s_lp_Variant>
AV-unprocessed.smi:765-6

> <Gold.Version>
5.8.1

> <Gold.Id.Protein>
6NUR|6NUR_protein|mol2

> <Gold.PLP.Fitness>
40.2419

> <Gold.PLP.PLP>
-35.3606

> <Gold.PLP.part.hbond>
-3.9070

> <Gold.PLP.part.metal>
0.0000

> <Gold.PLP.part.buried>
-3.7897

> <Gold.PLP.part.nonpolar>
-26.9969

> <Gold.PLP.part.repulsive>
0.3708

> <Gold.PLP.ligand.clash>
0.0000

> <Gold.PLP.ligand.torsion>
0.5893

> <Gold.PLP.Chemscore.Hbond>
1.9864

> <Gold.PLP.Chemscore.CHOScore>
0.0000

> <Gold.PLP.Chemscore.Metal>
0.0000

> <Gold.Chemscore.Hbonds>
donor molecule, donor type, donor heavy atom, donor atom, acceptor molecule, acceptor atom, score
      P1  H  7989  7998       L1     8  0.42
      P1  H  7997  8009       L1     8  0.91
      P1  H  8011  8017       L1    11  0.66

> <Gold.PLP.Chemscore.Internal.Correction>
0.1008

> <Gold.Rescore>
     Score         DG    S(hbond)    S(metal)    S(lipo)     H(rot)  DE(clash)    DE(int)     intcor
     15.08     -17.37       1.89        0.00      78.73       1.42       0.40       1.89       ----

> <Gold.Chemscore.Fitness>
15.0760

> <Gold.Chemscore.DG>
-17.3682

> <Gold.Chemscore.ZeroCoef>
-5.4800

> <Gold.Chemscore.Hbond>
1.8886

> <Gold.Chemscore.Metal>
0.0000

> <Gold.Chemscore.Lipo>
78.7281

> <Gold.Chemscore.Internal_Hbond>
0.0000

> <Gold.Chemscore.DEClash>
0.3991

> <Gold.Chemscore.DEInternal>
1.8931

> <Gold.Chemscore.Rot>
1.4183

> <Gold.Chemscore.Internal.Correction>
   9.000000E+99

> <Gold.Chemscore.Hbonds>
donor molecule, donor type, donor heavy atom, donor atom, acceptor molecule, acceptor atom, score
      P1  H  7989  7998       L1    11  0.15
      P1  H  7997  8009       L1     8  0.79
      P1  H  8011  8017       L1    11  0.60

> <Gold.Chemscore.Hbond.Weighted>
-6.3079

> <Gold.Chemscore.Metal.Weighted>
-0.0000

> <Gold.Chemscore.Lipo.Weighted>
-9.2112

> <Gold.Chemscore.Internal_Hbond.Weighted>
0.0000

> <Gold.Chemscore.DEClash.Weighted>
0.3991

> <Gold.Chemscore.DEInternal.Weighted>
1.8931

> <Gold.Chemscore.Rot.Weighted>
3.6309

> <Gold.Chemscore.Internal.Correction.Weighted>
   9.000000E+99

> <Gold.Protein.RotatedTorsions>
[ 6907 6896 6895 6894 ] final -104.19 input  -60.11 | X-H torsion
[ 7974 7965 7964 7962 ] final -103.54 input  175.53 | X-H torsion
[ 8008 7997 7996 7995 ] final -143.40 input   59.86 | X-H torsion
[ 10167 10162 10161 10158 ] final -164.03 input  -65.29 | X-H torsion
[ 10718 10713 10712 10709 ] final -165.16 input   66.30 | X-H torsion
[ 10763 10752 10751 10750 ] final  166.19 input  -60.55 | X-H torsion
[ 11005 11000 10999 10996 ] final   31.96 input  -57.11 | X-H torsion

> <Gold.Protein.ActiveResidues>
 VAL166  LYS551  ARG553  GLY616  TRP617  ASP618  TYR619  PRO620  LYS621  CYS622 
 ASP623  PHE694  ASN695  SER759  ASP760  ASP761  ALA762  ILE779  LEU786  VAL792 
 PHE793  MET794  SER795  GLU796  ALA797  LYS798  CYS799  TRP800  GLU811  SER814 

> <Gold.Protein.RotatedAtoms>
  150.7275  134.0315  159.3734 H   0  0  0  0  0  0  0  0  0  0  0  0  # atno 6907 bound_to 6896
  151.8284  135.0627  160.0443 H   0  0  0  0  0  0  0  0  0  0  0  0  # atno 6908 bound_to 6896
  152.2951  133.5564  159.5619 H   0  0  0  0  0  0  0  0  0  0  0  0  # atno 6909 bound_to 6896
  145.2546  140.9249  143.3075 H   0  0  0  0  0  0  0  0  0  0  0  0  # atno 7974 bound_to 7965
  155.5100  140.0582  157.2925 H   0  0  0  0  0  0  0  0  0  0  0  0  # atno 8008 bound_to 7997
  154.4555  140.1971  156.0340 H   0  0  0  0  0  0  0  0  0  0  0  0  # atno 8009 bound_to 7997
  156.0790  140.3249  155.7674 H   0  0  0  0  0  0  0  0  0  0  0  0  # atno 8010 bound_to 7997
  139.6279  144.0496  152.1990 H   0  0  0  0  0  0  0  0  0  0  0  0  # atno 10167 bound_to 10162
  156.6494  130.9001  151.3010 H   0  0  0  0  0  0  0  0  0  0  0  0  # atno 10718 bound_to 10713
  154.3353  135.2754  155.2451 H   0  0  0  0  0  0  0  0  0  0  0  0  # atno 10763 bound_to 10752
  154.4745  135.5874  153.6348 H   0  0  0  0  0  0  0  0  0  0  0  0  # atno 10764 bound_to 10752
  152.9862  135.6096  154.3549 H   0  0  0  0  0  0  0  0  0  0  0  0  # atno 10765 bound_to 10752
  140.2784  134.3001  155.7807 H   0  0  0  0  0  0  0  0  0  0  0  0  # atno 11005 bound_to 11000
  144.9472  139.4122  143.6420 LP  0  0  0  0  0  0  0  0  0  0  0  0  # atno 17320 bound_to 7965
  146.3293  139.8462  142.8881 LP  0  0  0  0  0  0  0  0  0  0  0  0  # atno 17321 bound_to 7965
  140.0154  144.6192  150.7611 LP  0  0  0  0  0  0  0  0  0  0  0  0  # atno 17342 bound_to 10162
  140.7422  143.2828  151.3548 LP  0  0  0  0  0  0  0  0  0  0  0  0  # atno 17343 bound_to 10162
  157.7146  130.9481  150.1208 LP  0  0  0  0  0  0  0  0  0  0  0  0  # atno 17370 bound_to 10713
  156.2096  130.3666  149.8686 LP  0  0  0  0  0  0  0  0  0  0  0  0  # atno 17371 bound_to 10713
  141.2166  133.7510  156.9443 LP  0  0  0  0  0  0  0  0  0  0  0  0  # atno 17394 bound_to 11000
  140.1306  134.9358  157.2332 LP  0  0  0  0  0  0  0  0  0  0  0  0  # atno 17395 bound_to 11000

$$$$
