AV-unprocessed.smi:487|AV-procd|sdf|2699|dock1
  -GOLD-   2262023133D 1   1.00000     0.00000
 Structure written by MMmdl.
 41 42  0  0  0  0  0  0  0  0  1 V2000
  150.7149  140.2140  154.9205 O   0  0  0  0  0  0  0  0  0  0  0  0
  149.8293  141.0553  155.0690 C   0  0  0  0  0  0  0  0  0  0  0  0
  148.5661  140.9733  154.1946 C   0  0  0  0  0  0  0  0  0  0  0  0
  147.4058  141.7117  154.7205 N   0  0  0  0  0  0  0  0  0  0  0  0
  146.7371  142.6240  153.9166 C   0  0  0  0  0  0  0  0  0  0  0  0
  145.6739  143.3495  154.3371 C   0  0  0  0  0  0  0  0  0  0  0  0
  145.1686  143.1990  155.6974 C   0  0  0  0  0  0  0  0  0  0  0  0
  144.2138  143.8107  156.1711 O   0  0  0  0  0  0  0  0  0  0  0  0
  145.8683  142.2726  156.4755 N   0  0  0  0  0  0  0  0  0  0  0  0
  146.9653  141.5229  156.0490 C   0  0  0  0  0  0  0  0  0  0  0  0
  147.5165  140.7395  156.8212 O   0  0  0  0  0  0  0  0  0  0  0  0
  149.9166  142.0555  155.9634 N   0  0  0  0  0  0  0  0  0  0  0  0
  151.0256  142.2898  156.8861 C   0  0  0  0  0  0  0  0  0  0  0  0
  151.1277  141.0392  157.7968 C   0  0  0  0  0  0  0  0  0  0  0  0
  152.5072  140.7737  158.4249 C   0  0  0  0  0  0  0  0  0  0  0  0
  152.7375  141.3304  159.8445 C   0  0  0  0  0  0  0  0  0  0  0  0
  152.4996  142.8362  160.0528 C   0  0  0  0  0  0  0  0  0  0  0  0
  153.0581  143.7311  158.9316 C   0  0  0  0  0  0  0  0  0  0  0  0
  151.9883  144.4334  158.0776 C   0  0  0  0  0  0  0  0  0  0  0  0
  150.7560  143.6104  157.6467 C   0  0  0  0  0  0  0  0  0  0  0  0
  145.5552  142.1358  157.4255 H   0  0  0  0  0  0  0  0  0  0  0  0
  148.8210  141.3476  153.2019 H   0  0  0  0  0  0  0  0  0  0  0  0
  148.3139  139.9222  154.0426 H   0  0  0  0  0  0  0  0  0  0  0  0
  147.0805  142.7715  152.9025 H   0  0  0  0  0  0  0  0  0  0  0  0
  145.1957  144.0463  153.6637 H   0  0  0  0  0  0  0  0  0  0  0  0
  149.1421  142.7012  156.0166 H   0  0  0  0  0  0  0  0  0  0  0  0
  151.9415  142.3820  156.2996 H   0  0  0  0  0  0  0  0  0  0  0  0
  150.3499  141.0441  158.5614 H   0  0  0  0  0  0  0  0  0  0  0  0
  150.9101  140.1646  157.1809 H   0  0  0  0  0  0  0  0  0  0  0  0
  152.6334  139.6926  158.4949 H   0  0  0  0  0  0  0  0  0  0  0  0
  153.2962  141.0907  157.7433 H   0  0  0  0  0  0  0  0  0  0  0  0
  152.1154  140.7807  160.5517 H   0  0  0  0  0  0  0  0  0  0  0  0
  153.7666  141.1031  160.1249 H   0  0  0  0  0  0  0  0  0  0  0  0
  151.4400  143.0267  160.2155 H   0  0  0  0  0  0  0  0  0  0  0  0
  152.9716  143.1201  160.9941 H   0  0  0  0  0  0  0  0  0  0  0  0
  153.6818  144.5044  159.3815 H   0  0  0  0  0  0  0  0  0  0  0  0
  153.7417  143.1777  158.2897 H   0  0  0  0  0  0  0  0  0  0  0  0
  151.6251  145.2990  158.6328 H   0  0  0  0  0  0  0  0  0  0  0  0
  152.4709  144.8419  157.1890 H   0  0  0  0  0  0  0  0  0  0  0  0
  150.1725  144.2763  157.0089 H   0  0  0  0  0  0  0  0  0  0  0  0
  150.1015  143.4193  158.4968 H   0  0  0  0  0  0  0  0  0  0  0  0
  1  2  2  0  0  0  0
  2  3  1  0  0  0  0
  2 12  1  0  0  0  0
  3  4  1  0  0  0  0
  3 22  1  0  0  0  0
  3 23  1  0  0  0  0
  4 10  1  0  0  0  0
  4  5  1  0  0  0  0
  5  6  2  0  0  0  0
  5 24  1  0  0  0  0
  6  7  1  0  0  0  0
  6 25  1  0  0  0  0
  7  8  2  0  0  0  0
  7  9  1  0  0  0  0
  9 21  1  0  0  0  0
  9 10  1  0  0  0  0
 10 11  2  0  0  0  0
 12 13  1  0  0  0  0
 12 26  1  0  0  0  0
 13 20  1  0  0  0  0
 13 14  1  0  0  0  0
 13 27  1  0  0  0  0
 14 15  1  0  0  0  0
 14 28  1  0  0  0  0
 14 29  1  0  0  0  0
 15 16  1  0  0  0  0
 15 30  1  0  0  0  0
 15 31  1  0  0  0  0
 16 17  1  0  0  0  0
 16 32  1  0  0  0  0
 16 33  1  0  0  0  0
 17 18  1  0  0  0  0
 17 34  1  0  0  0  0
 17 35  1  0  0  0  0
 18 19  1  0  0  0  0
 18 36  1  0  0  0  0
 18 37  1  0  0  0  0
 19 20  1  0  0  0  0
 19 38  1  0  0  0  0
 19 39  1  0  0  0  0
 20 40  1  0  0  0  0
 20 41  1  0  0  0  0
M  END
> <s_m_source_file>
AV-unprocessed.smi

> <i_m_source_file_index>
487

> <i_lp_mmshare_version>
43012

> <i_f3d_flags>
0

> <s_epik_input>
Tz1jMVtuSF1jKD1PKVtjSF1bY0hdbjFbQ0gyXUMoPU8pW05IXVtDSF0yW0NIMl1bQ0gyXVtDSDJdW0NIMl1bQ0gyXVtDSDJdW0NIMl0y

> <s_epik_cmdline>
J2VwaWtfcHl0aG9uJywgJy1waCcsICc3LjAnLCAnLXRuJywgJzgnLCAnLW1hJywgJzIwMCcsICctbWV0YWxfYmluZGluZycsICctaW1hZScsICc8aW5maWxlLm1hZT4nLCAnLW9tYWUnLCAnPG91dGZpbGUubWFlPic=

> <r_lp_tautomer_probability>
0.999537

> <r_epik_Ionization_Penalty>
0.00321433

> <r_epik_Ionization_Penalty_Charging>
0.00321431

> <r_epik_Ionization_Penalty_Neutral>
2.02148e-08

> <r_epik_State_Penalty>
0.00226744

> <r_epik_Charging_Adjusted_Penalty>
0.00548175

> <i_epik_Tot_Q>
0

> <i_epik_Tot_abs_Q>
0

> <r_epik_Metal_State_Penalty>
0.364272

> <b_epik_Metal_Only>
0

> <s_lp_Force_Field>
OPLS_2005

> <r_lp_Energy>
21.4809

> <b_lp_Chiralities_Consistent>
1

> <s_lp_Variant>
AV-unprocessed.smi:487-1

> <Gold.Version>
5.8.1

> <Gold.Id.Protein>
6NUR|6NUR_protein|mol2

> <Gold.PLP.Fitness>
48.8058

> <Gold.PLP.PLP>
-44.1817

> <Gold.PLP.part.hbond>
-2.0000

> <Gold.PLP.part.metal>
0.0000

> <Gold.PLP.part.buried>
-4.0758

> <Gold.PLP.part.nonpolar>
-38.1948

> <Gold.PLP.part.repulsive>
0.2947

> <Gold.PLP.ligand.clash>
0.0000

> <Gold.PLP.ligand.torsion>
0.3442

> <Gold.PLP.Chemscore.Hbond>
1.7680

> <Gold.PLP.Chemscore.CHOScore>
0.0000

> <Gold.PLP.Chemscore.Metal>
0.0000

> <Gold.Chemscore.Hbonds>
donor molecule, donor type, donor heavy atom, donor atom, acceptor molecule, acceptor atom, score
      L1  H    12    26       P1  8028  0.66
      P1  H  7989  7998       L1     1  1.00

> <Gold.PLP.Chemscore.Internal.Correction>
0.0084

> <Gold.Rescore>
     Score         DG    S(hbond)    S(metal)    S(lipo)     H(rot)  DE(clash)    DE(int)     intcor
     15.83     -17.78       1.37        0.00     102.65       1.68       1.55       0.39       ----

> <Gold.Chemscore.Fitness>
15.8322

> <Gold.Chemscore.DG>
-17.7759

> <Gold.Chemscore.ZeroCoef>
-5.4800

> <Gold.Chemscore.Hbond>
1.3705

> <Gold.Chemscore.Metal>
0.0000

> <Gold.Chemscore.Lipo>
102.6478

> <Gold.Chemscore.Internal_Hbond>
0.0000

> <Gold.Chemscore.DEClash>
1.5508

> <Gold.Chemscore.DEInternal>
0.3929

> <Gold.Chemscore.Rot>
1.6763

> <Gold.Chemscore.Internal.Correction>
   9.000000E+99

> <Gold.Chemscore.Hbonds>
donor molecule, donor type, donor heavy atom, donor atom, acceptor molecule, acceptor atom, score
      L1  H    12    26       P1  8028  0.64
      P1  H  7989  7998       L1     1  0.35

> <Gold.Chemscore.Hbond.Weighted>
-4.5775

> <Gold.Chemscore.Metal.Weighted>
-0.0000

> <Gold.Chemscore.Lipo.Weighted>
-12.0098

> <Gold.Chemscore.Internal_Hbond.Weighted>
0.0000

> <Gold.Chemscore.DEClash.Weighted>
1.5508

> <Gold.Chemscore.DEInternal.Weighted>
0.3929

> <Gold.Chemscore.Rot.Weighted>
4.2914

> <Gold.Chemscore.Internal.Correction.Weighted>
   9.000000E+99

> <Gold.Protein.RotatedTorsions>
[ 6907 6896 6895 6894 ] final -127.06 input  -60.11 | X-H torsion
[ 7974 7965 7964 7962 ] final -116.16 input  175.53 | X-H torsion
[ 8008 7997 7996 7995 ] final  125.76 input   59.86 | X-H torsion
[ 10167 10162 10161 10158 ] final -128.40 input  -65.29 | X-H torsion
[ 10718 10713 10712 10709 ] final  -23.80 input   66.30 | X-H torsion
[ 10763 10752 10751 10750 ] final  -75.56 input  -60.55 | X-H torsion
[ 11005 11000 10999 10996 ] final  -49.88 input  -57.11 | X-H torsion

> <Gold.Protein.ActiveResidues>
 VAL166  LYS551  ARG553  GLY616  TRP617  ASP618  TYR619  PRO620  LYS621  CYS622 
 ASP623  PHE694  ASN695  SER759  ASP760  ASP761  ALA762  ILE779  LEU786  VAL792 
 PHE793  MET794  SER795  GLU796  ALA797  LYS798  CYS799  TRP800  GLU811  SER814 

> <Gold.Protein.RotatedAtoms>
  150.9034  133.7089  159.2872 H   0  0  0  0  0  0  0  0  0  0  0  0  # atno 6907 bound_to 6896
  151.4600  135.1036  159.9732 H   0  0  0  0  0  0  0  0  0  0  0  0  # atno 6908 bound_to 6896
  152.4889  133.8399  159.7202 H   0  0  0  0  0  0  0  0  0  0  0  0  # atno 6909 bound_to 6896
  145.1000  140.8546  143.3932 H   0  0  0  0  0  0  0  0  0  0  0  0  # atno 7974 bound_to 7965
  156.2844  140.2709  156.2001 H   0  0  0  0  0  0  0  0  0  0  0  0  # atno 8008 bound_to 7997
  155.0370  140.0386  157.2513 H   0  0  0  0  0  0  0  0  0  0  0  0  # atno 8009 bound_to 7997
  154.7306  140.2706  155.6465 H   0  0  0  0  0  0  0  0  0  0  0  0  # atno 8010 bound_to 7997
  139.9507  143.6059  152.2476 H   0  0  0  0  0  0  0  0  0  0  0  0  # atno 10167 bound_to 10162
  156.4862  130.4556  149.6782 H   0  0  0  0  0  0  0  0  0  0  0  0  # atno 10718 bound_to 10713
  154.4882  135.5827  153.6439 H   0  0  0  0  0  0  0  0  0  0  0  0  # atno 10763 bound_to 10752
  152.9858  135.6106  154.3159 H   0  0  0  0  0  0  0  0  0  0  0  0  # atno 10764 bound_to 10752
  154.3057  135.2846  155.2569 H   0  0  0  0  0  0  0  0  0  0  0  0  # atno 10765 bound_to 10752
  141.0785  133.6659  156.3651 H   0  0  0  0  0  0  0  0  0  0  0  0  # atno 11005 bound_to 11000
  145.0966  139.2852  143.5707 LP  0  0  0  0  0  0  0  0  0  0  0  0  # atno 17320 bound_to 7965
  146.3530  140.0520  142.8635 LP  0  0  0  0  0  0  0  0  0  0  0  0  # atno 17321 bound_to 7965
  139.6631  144.7662  151.1925 LP  0  0  0  0  0  0  0  0  0  0  0  0  # atno 17342 bound_to 10162
  140.7583  143.5980  150.8728 LP  0  0  0  0  0  0  0  0  0  0  0  0  # atno 17343 bound_to 10162
  156.3472  130.7413  151.2367 LP  0  0  0  0  0  0  0  0  0  0  0  0  # atno 17370 bound_to 10713
  157.7478  131.0387  150.4516 LP  0  0  0  0  0  0  0  0  0  0  0  0  # atno 17371 bound_to 10713
  140.5521  134.6017  157.5410 LP  0  0  0  0  0  0  0  0  0  0  0  0  # atno 17394 bound_to 11000
  139.9597  134.7473  156.0263 LP  0  0  0  0  0  0  0  0  0  0  0  0  # atno 17395 bound_to 11000

$$$$
