AV-unprocessed.smi:170|AV-procd|sdf|1407|dock7
  -GOLD-   2262019163D 1   1.00000     0.00000
 Structure written by MMmdl.
 57 61  0  0  0  0  0  0  0  0  1 V2000
  151.2796  141.2686  160.2176 O   0  0  0  0  0  0  0  0  0  0  0  0
  152.6824  141.4577  160.2073 C   0  0  1  0  0  0  0  0  0  0  0  0
  153.3578  140.4747  159.2312 C   0  0  0  0  0  0  0  0  0  0  0  0
  152.6903  139.1861  159.1967 N   0  0  0  0  0  0  0  0  0  0  0  0
  153.0555  138.0467  159.8767 C   0  0  0  0  0  0  0  0  0  0  0  0
  152.2880  137.0103  159.6757 N   0  0  0  0  0  0  0  0  0  0  0  0
  151.3230  137.4698  158.7868 C   0  0  0  0  0  0  0  0  0  0  0  0
  150.1941  136.8823  158.1472 C   0  0  0  0  0  0  0  0  0  0  0  0
  149.7971  135.5985  158.2980 N   0  0  0  0  0  0  0  0  0  0  0  0
  149.8996  134.8769  157.0351 C   0  0  0  0  0  0  0  0  0  0  0  0
  149.6307  133.3826  157.2543 C   0  0  0  0  0  0  0  0  0  0  0  0
  148.3514  133.2277  157.8533 O   0  0  0  0  0  0  0  0  0  0  0  0
  148.2810  133.8551  159.1290 C   0  0  0  0  0  0  0  0  0  0  0  0
  148.5265  135.3772  159.0006 C   0  0  1  0  0  0  0  0  0  0  0  0
  148.4865  136.0804  160.3826 C   0  0  0  0  0  0  0  0  0  0  0  0
  147.2151  135.8106  161.1845 C   0  0  0  0  0  0  0  0  0  0  0  0
  147.0817  136.3587  162.6137 C   0  0  0  0  0  0  0  0  0  0  0  0
  146.2995  135.0933  162.9753 C   0  0  0  0  0  0  0  0  0  0  0  0
  146.9744  134.4152  161.7798 C   0  0  0  0  0  0  0  0  0  0  0  0
  149.4485  137.6638  157.3282 N   0  0  0  0  0  0  0  0  0  0  0  0
  149.7894  138.9411  157.1308 C   0  0  0  0  0  0  0  0  0  0  0  0
  150.8140  139.6223  157.6488 N   0  0  0  0  0  0  0  0  0  0  0  0
  151.5596  138.8390  158.4802 C   0  0  0  0  0  0  0  0  0  0  0  0
  153.0223  142.9295  159.9007 C   0  0  2  0  0  0  0  0  0  0  0  0
  152.3743  143.9833  160.8147 C   0  0  0  0  0  0  0  0  0  0  0  0
  151.8016  145.0061  159.8450 C   0  0  0  0  0  0  0  0  0  0  0  0
  152.5112  144.6899  158.5331 C   0  0  0  0  0  0  0  0  0  0  0  0
  152.6450  143.2796  158.5744 O   0  0  0  0  0  0  0  0  0  0  0  0
  151.0891  140.4865  160.7128 H   0  0  0  0  0  0  0  0  0  0  0  0
  153.0329  141.2382  161.2167 H   0  0  0  0  0  0  0  0  0  0  0  0
  153.3753  140.8848  158.2205 H   0  0  0  0  0  0  0  0  0  0  0  0
  154.3971  140.3116  159.5196 H   0  0  0  0  0  0  0  0  0  0  0  0
  153.9159  138.0078  160.5289 H   0  0  0  0  0  0  0  0  0  0  0  0
  149.1804  135.2819  156.3215 H   0  0  0  0  0  0  0  0  0  0  0  0
  150.8930  135.0129  156.6047 H   0  0  0  0  0  0  0  0  0  0  0  0
  149.6451  132.8537  156.3013 H   0  0  0  0  0  0  0  0  0  0  0  0
  150.4008  132.9330  157.8832 H   0  0  0  0  0  0  0  0  0  0  0  0
  147.2905  133.6555  159.5364 H   0  0  0  0  0  0  0  0  0  0  0  0
  149.0029  133.3981  159.8081 H   0  0  0  0  0  0  0  0  0  0  0  0
  147.7254  135.7834  158.3832 H   0  0  0  0  0  0  0  0  0  0  0  0
  149.3579  135.7793  160.9652 H   0  0  0  0  0  0  0  0  0  0  0  0
  148.5816  137.1585  160.2534 H   0  0  0  0  0  0  0  0  0  0  0  0
  146.3263  136.0921  160.6164 H   0  0  0  0  0  0  0  0  0  0  0  0
  148.0397  136.4251  163.1329 H   0  0  0  0  0  0  0  0  0  0  0  0
  146.5157  137.2871  162.6949 H   0  0  0  0  0  0  0  0  0  0  0  0
  146.5474  134.6630  163.9460 H   0  0  0  0  0  0  0  0  0  0  0  0
  145.2224  135.2092  162.8440 H   0  0  0  0  0  0  0  0  0  0  0  0
  146.3206  133.7732  161.1885 H   0  0  0  0  0  0  0  0  0  0  0  0
  147.8985  133.9034  162.0545 H   0  0  0  0  0  0  0  0  0  0  0  0
  149.1504  139.4966  156.4602 H   0  0  0  0  0  0  0  0  0  0  0  0
  154.1055  143.0537  159.9578 H   0  0  0  0  0  0  0  0  0  0  0  0
  151.5932  143.5776  161.4583 H   0  0  0  0  0  0  0  0  0  0  0  0
  153.1276  144.4346  161.4613 H   0  0  0  0  0  0  0  0  0  0  0  0
  150.7294  144.8427  159.7298 H   0  0  0  0  0  0  0  0  0  0  0  0
  151.9535  146.0356  160.1701 H   0  0  0  0  0  0  0  0  0  0  0  0
  151.9479  145.0167  157.6589 H   0  0  0  0  0  0  0  0  0  0  0  0
  153.4995  145.1513  158.5012 H   0  0  0  0  0  0  0  0  0  0  0  0
  1  2  1  0  0  0  0
  1 29  1  0  0  0  0
  2  3  1  0  0  0  0
  2 24  1  0  0  0  0
  2 30  1  0  0  0  0
  3  4  1  0  0  0  0
  3 31  1  0  0  0  0
  3 32  1  0  0  0  0
  4 23  1  0  0  0  0
  4  5  1  0  0  0  0
  5  6  2  0  0  0  0
  5 33  1  0  0  0  0
  6  7  1  0  0  0  0
  7 23  2  0  0  0  0
  7  8  1  0  0  0  0
  8  9  1  0  0  0  0
  8 20  2  0  0  0  0
  9 14  1  0  0  0  0
  9 10  1  0  0  0  0
 10 11  1  0  0  0  0
 10 34  1  0  0  0  0
 10 35  1  0  0  0  0
 11 12  1  0  0  0  0
 11 36  1  0  0  0  0
 11 37  1  0  0  0  0
 12 13  1  0  0  0  0
 13 14  1  0  0  0  0
 13 38  1  0  0  0  0
 13 39  1  0  0  0  0
 14 15  1  0  0  0  0
 14 40  1  0  0  0  0
 15 16  1  0  0  0  0
 15 41  1  0  0  0  0
 15 42  1  0  0  0  0
 16 19  1  0  0  0  0
 16 17  1  0  0  0  0
 16 43  1  0  0  0  0
 17 18  1  0  0  0  0
 17 44  1  0  0  0  0
 17 45  1  0  0  0  0
 18 19  1  0  0  0  0
 18 46  1  0  0  0  0
 18 47  1  0  0  0  0
 19 48  1  0  0  0  0
 19 49  1  0  0  0  0
 20 21  1  0  0  0  0
 21 22  2  0  0  0  0
 21 50  1  0  0  0  0
 22 23  1  0  0  0  0
 24 28  1  0  0  0  0
 24 25  1  0  0  0  0
 24 51  1  0  0  0  0
 25 26  1  0  0  0  0
 25 52  1  0  0  0  0
 25 53  1  0  0  0  0
 26 27  1  0  0  0  0
 26 54  1  0  0  0  0
 26 55  1  0  0  0  0
 27 28  1  0  0  0  0
 27 56  1  0  0  0  0
 27 57  1  0  0  0  0
M  END
> <s_m_source_file>
AV-unprocessed.smi

> <i_m_source_file_index>
170

> <i_lp_mmshare_version>
43012

> <i_f3d_flags>
0

> <s_epik_input>
TzFbQ0gyXVtDSDJdW0NIMl1bQ0BIXTFbQ0BIXShbT0hdKVtDSDJdbihbY0hdbjIpYyhjMjMpbltjSF1uYzNONFtDSDJdW0NIMl1PW0NIMl1bQ0BIXTRbQ0gyXVtDSF01W0NIMl1bQ0gyXVtDSDJdNQ==

> <s_epik_cmdline>
J2VwaWtfcHl0aG9uJywgJy1waCcsICc3LjAnLCAnLXRuJywgJzgnLCAnLW1hJywgJzIwMCcsICctbWV0YWxfYmluZGluZycsICctaW1hZScsICc8aW5maWxlLm1hZT4nLCAnLW9tYWUnLCAnPG91dGZpbGUubWFlPic=

> <r_lp_tautomer_probability>
1

> <r_epik_Ionization_Penalty>
4.98275e-05

> <r_epik_Ionization_Penalty_Charging>
0

> <r_epik_Ionization_Penalty_Neutral>
4.98275e-05

> <r_epik_State_Penalty>
-0

> <r_epik_Charging_Adjusted_Penalty>
0

> <i_epik_Tot_Q>
0

> <i_epik_Tot_abs_Q>
0

> <r_epik_Metal_State_Penalty>
-0

> <b_epik_Metal_Only>
0

> <s_lp_Force_Field>
OPLS_2005

> <r_lp_Energy>
52.7393

> <b_lp_Chiralities_Consistent>
1

> <s_lp_Variant>
AV-unprocessed.smi:170-2

> <Gold.Version>
5.8.1

> <Gold.Id.Protein>
6NUR|6NUR_protein|mol2

> <Gold.PLP.Fitness>
49.3036

> <Gold.PLP.PLP>
-46.2193

> <Gold.PLP.part.hbond>
-3.3927

> <Gold.PLP.part.metal>
0.0000

> <Gold.PLP.part.buried>
-3.6223

> <Gold.PLP.part.nonpolar>
-41.6432

> <Gold.PLP.part.repulsive>
0.0000

> <Gold.PLP.ligand.clash>
0.0005

> <Gold.PLP.ligand.torsion>
0.6931

> <Gold.PLP.Chemscore.Hbond>
1.3828

> <Gold.PLP.Chemscore.CHOScore>
0.0000

> <Gold.PLP.Chemscore.Metal>
0.0000

> <Gold.Chemscore.Hbonds>
donor molecule, donor type, donor heavy atom, donor atom, acceptor molecule, acceptor atom, score
      P1  H  6896  6908       L1     9  0.37
      P1  H  6896  6909       L1     6  1.00

> <Gold.PLP.Chemscore.Internal.Correction>
0.3227

> <Gold.Rescore>
     Score         DG    S(hbond)    S(metal)    S(lipo)     H(rot)  DE(clash)    DE(int)     intcor
     14.05     -16.36       0.88        0.00     125.11       2.61       0.60       1.71       ----

> <Gold.Chemscore.Fitness>
14.0525

> <Gold.Chemscore.DG>
-16.3620

> <Gold.Chemscore.ZeroCoef>
-5.4800

> <Gold.Chemscore.Hbond>
0.8794

> <Gold.Chemscore.Metal>
0.0000

> <Gold.Chemscore.Lipo>
125.1081

> <Gold.Chemscore.Internal_Hbond>
0.0000

> <Gold.Chemscore.DEClash>
0.5971

> <Gold.Chemscore.DEInternal>
1.7124

> <Gold.Chemscore.Rot>
2.6144

> <Gold.Chemscore.Internal.Correction>
   9.000000E+99

> <Gold.Chemscore.Hbonds>
donor molecule, donor type, donor heavy atom, donor atom, acceptor molecule, acceptor atom, score
      P1  H  6896  6909       L1     6  0.71

> <Gold.Chemscore.Hbond.Weighted>
-2.9373

> <Gold.Chemscore.Metal.Weighted>
-0.0000

> <Gold.Chemscore.Lipo.Weighted>
-14.6377

> <Gold.Chemscore.Internal_Hbond.Weighted>
0.0000

> <Gold.Chemscore.DEClash.Weighted>
0.5971

> <Gold.Chemscore.DEInternal.Weighted>
1.7124

> <Gold.Chemscore.Rot.Weighted>
6.6929

> <Gold.Chemscore.Internal.Correction.Weighted>
   9.000000E+99

> <Gold.Protein.RotatedTorsions>
[ 6907 6896 6895 6894 ] final  150.11 input  -60.11 | X-H torsion
[ 7974 7965 7964 7962 ] final    4.14 input  175.53 | X-H torsion
[ 8008 7997 7996 7995 ] final  178.70 input   59.86 | X-H torsion
[ 10167 10162 10161 10158 ] final  -40.95 input  -65.29 | X-H torsion
[ 10718 10713 10712 10709 ] final  -43.01 input   66.30 | X-H torsion
[ 10763 10752 10751 10750 ] final  -95.14 input  -60.55 | X-H torsion
[ 11005 11000 10999 10996 ] final   92.04 input  -57.11 | X-H torsion

> <Gold.Protein.ActiveResidues>
 VAL166  LYS551  ARG553  GLY616  TRP617  ASP618  TYR619  PRO620  LYS621  CYS622 
 ASP623  PHE694  ASN695  SER759  ASP760  ASP761  ALA762  ILE779  LEU786  VAL792 
 PHE793  MET794  SER795  GLU796  ALA797  LYS798  CYS799  TRP800  GLU811  SER814 

> <Gold.Protein.RotatedAtoms>
  152.1189  133.4342  159.4666 H   0  0  0  0  0  0  0  0  0  0  0  0  # atno 6907 bound_to 6896
  150.6871  134.2558  159.4538 H   0  0  0  0  0  0  0  0  0  0  0  0  # atno 6908 bound_to 6896
  152.0433  134.9697  160.0625 H   0  0  0  0  0  0  0  0  0  0  0  0  # atno 6909 bound_to 6896
  146.2444  140.0579  142.8370 H   0  0  0  0  0  0  0  0  0  0  0  0  # atno 7974 bound_to 7965
  156.0517  140.1327  157.0042 H   0  0  0  0  0  0  0  0  0  0  0  0  # atno 8008 bound_to 7997
  154.4438  140.1009  156.6457 H   0  0  0  0  0  0  0  0  0  0  0  0  # atno 8009 bound_to 7997
  155.5513  140.3463  155.4471 H   0  0  0  0  0  0  0  0  0  0  0  0  # atno 8010 bound_to 7997
  140.7018  143.3123  151.2997 H   0  0  0  0  0  0  0  0  0  0  0  0  # atno 10167 bound_to 10162
  156.2535  130.4190  149.8623 H   0  0  0  0  0  0  0  0  0  0  0  0  # atno 10718 bound_to 10713
  154.7121  135.5131  153.8681 H   0  0  0  0  0  0  0  0  0  0  0  0  # atno 10763 bound_to 10752
  153.0789  135.6625  154.0096 H   0  0  0  0  0  0  0  0  0  0  0  0  # atno 10764 bound_to 10752
  153.9936  135.3017  155.3389 H   0  0  0  0  0  0  0  0  0  0  0  0  # atno 10765 bound_to 10752
  139.8829  134.8709  156.3515 H   0  0  0  0  0  0  0  0  0  0  0  0  # atno 11005 bound_to 11000
  145.0926  140.9294  143.4760 LP  0  0  0  0  0  0  0  0  0  0  0  0  # atno 17320 bound_to 7965
  145.0755  139.2999  143.5810 LP  0  0  0  0  0  0  0  0  0  0  0  0  # atno 17321 bound_to 7965
  139.6550  144.0293  152.2653 LP  0  0  0  0  0  0  0  0  0  0  0  0  # atno 17342 bound_to 10162
  139.9841  144.6407  150.7873 LP  0  0  0  0  0  0  0  0  0  0  0  0  # atno 17343 bound_to 10162
  156.6163  130.8608  151.3465 LP  0  0  0  0  0  0  0  0  0  0  0  0  # atno 17370 bound_to 10713
  157.7223  130.9575  150.1490 LP  0  0  0  0  0  0  0  0  0  0  0  0  # atno 17371 bound_to 10713
  140.9591  133.7400  156.0376 LP  0  0  0  0  0  0  0  0  0  0  0  0  # atno 17394 bound_to 11000
  140.8012  134.3507  157.5439 LP  0  0  0  0  0  0  0  0  0  0  0  0  # atno 17395 bound_to 11000

$$$$
