AV-unprocessed.smi:1627|AV-procd|sdf|6516|dock4
  -GOLD-   22720 7183D 1   1.00000     0.00000
 Structure written by MMmdl.
 43 44  0  0  0  0  0  0  0  0  1 V2000
  146.4202  139.2876  151.1431 C   0  0  0  0  0  0  0  0  0  0  0  0
  146.8374  138.5884  152.4453 C   0  0  2  0  0  0  0  0  0  0  0  0
  145.6856  137.9273  152.9630 O   0  0  0  0  0  0  0  0  0  0  0  0
  145.2641  136.7734  152.2424 C   0  0  0  0  0  0  0  0  0  0  0  0
  144.0530  136.1507  152.9476 C   0  0  0  0  0  0  0  0  0  0  0  0
  144.3828  135.8469  154.2025 F   0  0  0  0  0  0  0  0  0  0  0  0
  143.0387  137.0149  152.9689 F   0  0  0  0  0  0  0  0  0  0  0  0
  143.6783  135.0351  152.3221 F   0  0  0  0  0  0  0  0  0  0  0  0
  147.3804  139.5974  153.4705 C   0  0  0  0  0  0  0  0  0  0  0  0
  146.6516  140.5008  153.8798 O   0  0  0  0  0  0  0  0  0  0  0  0
  148.6577  139.4137  153.8529 N   0  0  0  0  0  0  0  0  0  0  0  0
  149.4089  140.1516  154.8067 C   0  0  0  0  0  0  0  0  0  0  0  0
  150.7057  139.7000  155.1242 C   0  0  0  0  0  0  0  0  0  0  0  0
  151.4595  140.3971  156.0871 C   0  0  0  0  0  0  0  0  0  0  0  0
  150.8858  141.5239  156.7108 C   0  0  0  0  0  0  0  0  0  0  0  0
  151.6281  142.2226  157.6734 N   0  0  0  0  0  0  0  0  0  0  0  0
  152.1069  141.3700  158.7589 C   0  0  0  0  0  0  0  0  0  0  0  0
  153.0832  142.1379  159.6669 C   0  0  0  0  0  0  0  0  0  0  0  0
  152.4460  143.4387  160.1819 C   0  0  0  0  0  0  0  0  0  0  0  0
  151.9310  144.2812  159.0038 C   0  0  0  0  0  0  0  0  0  0  0  0
  150.9843  143.4583  158.1126 C   0  0  0  0  0  0  0  0  0  0  0  0
  149.6360  141.9580  156.4237 N   0  0  0  0  0  0  0  0  0  0  0  0
  148.9183  141.2855  155.4988 C   0  0  0  0  0  0  0  0  0  0  0  0
  147.2551  139.8321  150.7004 H   0  0  0  0  0  0  0  0  0  0  0  0
  145.6076  139.9959  151.3092 H   0  0  0  0  0  0  0  0  0  0  0  0
  146.0755  138.5599  150.4083 H   0  0  0  0  0  0  0  0  0  0  0  0
  147.6034  137.8477  152.2073 H   0  0  0  0  0  0  0  0  0  0  0  0
  144.9950  137.0513  151.2224 H   0  0  0  0  0  0  0  0  0  0  0  0
  146.0649  136.0358  152.1781 H   0  0  0  0  0  0  0  0  0  0  0  0
  149.1666  138.6917  153.3638 H   0  0  0  0  0  0  0  0  0  0  0  0
  151.1222  138.8310  154.6359 H   0  0  0  0  0  0  0  0  0  0  0  0
  152.4570  140.0704  156.3428 H   0  0  0  0  0  0  0  0  0  0  0  0
  151.2580  141.0154  159.3453 H   0  0  0  0  0  0  0  0  0  0  0  0
  152.5998  140.4893  158.3450 H   0  0  0  0  0  0  0  0  0  0  0  0
  153.3856  141.5100  160.5054 H   0  0  0  0  0  0  0  0  0  0  0  0
  153.9915  142.3719  159.1102 H   0  0  0  0  0  0  0  0  0  0  0  0
  151.6187  143.2014  160.8519 H   0  0  0  0  0  0  0  0  0  0  0  0
  153.1692  144.0081  160.7662 H   0  0  0  0  0  0  0  0  0  0  0  0
  151.4182  145.1697  159.3731 H   0  0  0  0  0  0  0  0  0  0  0  0
  152.7757  144.6337  158.4106 H   0  0  0  0  0  0  0  0  0  0  0  0
  150.6865  144.0476  157.2443 H   0  0  0  0  0  0  0  0  0  0  0  0
  150.0737  143.2190  158.6639 H   0  0  0  0  0  0  0  0  0  0  0  0
  147.9207  141.6639  155.3397 H   0  0  0  0  0  0  0  0  0  0  0  0
  1  2  1  0  0  0  0
  1 24  1  0  0  0  0
  1 25  1  0  0  0  0
  1 26  1  0  0  0  0
  2  3  1  0  0  0  0
  2  9  1  0  0  0  0
  2 27  1  0  0  0  0
  3  4  1  0  0  0  0
  4  5  1  0  0  0  0
  4 28  1  0  0  0  0
  4 29  1  0  0  0  0
  5  6  1  0  0  0  0
  5  7  1  0  0  0  0
  5  8  1  0  0  0  0
  9 10  2  0  0  0  0
  9 11  1  0  0  0  0
 11 12  1  0  0  0  0
 11 30  1  0  0  0  0
 12 23  1  0  0  0  0
 12 13  2  0  0  0  0
 13 14  1  0  0  0  0
 13 31  1  0  0  0  0
 14 15  2  0  0  0  0
 14 32  1  0  0  0  0
 15 16  1  0  0  0  0
 15 22  1  0  0  0  0
 16 21  1  0  0  0  0
 16 17  1  0  0  0  0
 17 18  1  0  0  0  0
 17 33  1  0  0  0  0
 17 34  1  0  0  0  0
 18 19  1  0  0  0  0
 18 35  1  0  0  0  0
 18 36  1  0  0  0  0
 19 20  1  0  0  0  0
 19 37  1  0  0  0  0
 19 38  1  0  0  0  0
 20 21  1  0  0  0  0
 20 39  1  0  0  0  0
 20 40  1  0  0  0  0
 21 41  1  0  0  0  0
 21 42  1  0  0  0  0
 22 23  2  0  0  0  0
 23 43  1  0  0  0  0
M  END
> <s_m_source_file>
AV-unprocessed.smi

> <i_m_source_file_index>
1627

> <i_lp_mmshare_version>
43012

> <i_f3d_flags>
0

> <s_epik_input>
RkMoRikoRilbQ0gyXU9bQ0BASF0oW0NIM10pQyg9TylbTkhdYzFbY0hdW2NIXWMobltjSF0xKU4yW0NIMl1bQ0gyXVtDSDJdW0NIMl1bQ0gyXTI=

> <s_epik_cmdline>
J2VwaWtfcHl0aG9uJywgJy1waCcsICc3LjAnLCAnLXRuJywgJzgnLCAnLW1hJywgJzIwMCcsICctbWV0YWxfYmluZGluZycsICctaW1hZScsICc8aW5maWxlLm1hZT4nLCAnLW9tYWUnLCAnPG91dGZpbGUubWFlPic=

> <r_lp_tautomer_probability>
1

> <r_epik_Ionization_Penalty>
0.0254771

> <r_epik_Ionization_Penalty_Charging>
0

> <r_epik_Ionization_Penalty_Neutral>
0.0254771

> <r_epik_State_Penalty>
0.0187406

> <r_epik_Charging_Adjusted_Penalty>
0.0187406

> <i_epik_Tot_Q>
0

> <i_epik_Tot_abs_Q>
0

> <r_epik_Metal_State_Penalty>
0.017939

> <b_epik_Metal_Only>
0

> <s_lp_Force_Field>
OPLS_2005

> <r_lp_Energy>
26.2479

> <b_lp_Chiralities_Consistent>
1

> <s_lp_Variant>
AV-unprocessed.smi:1627-1

> <Gold.Version>
5.8.1

> <Gold.Id.Protein>
6NUR|6NUR_protein|mol2

> <Gold.PLP.Fitness>
42.8909

> <Gold.PLP.PLP>
-43.0337

> <Gold.PLP.part.hbond>
-1.0000

> <Gold.PLP.part.metal>
0.0000

> <Gold.PLP.part.buried>
-1.5024

> <Gold.PLP.part.nonpolar>
-43.2597

> <Gold.PLP.part.repulsive>
2.0200

> <Gold.PLP.ligand.clash>
0.0000

> <Gold.PLP.ligand.torsion>
0.1698

> <Gold.PLP.Chemscore.Hbond>
0.0000

> <Gold.PLP.Chemscore.CHOScore>
0.0000

> <Gold.PLP.Chemscore.Metal>
0.0000

> <Gold.PLP.Chemscore.Internal.Correction>
0.1969

> <Gold.Rescore>
     Score         DG    S(hbond)    S(metal)    S(lipo)     H(rot)  DE(clash)    DE(int)     intcor
     11.04     -12.79       0.00        0.00     103.31       1.87       0.24       1.51       ----

> <Gold.Chemscore.Fitness>
11.0435

> <Gold.Chemscore.DG>
-12.7890

> <Gold.Chemscore.ZeroCoef>
-5.4800

> <Gold.Chemscore.Hbond>
0.0000

> <Gold.Chemscore.Metal>
0.0000

> <Gold.Chemscore.Lipo>
103.3101

> <Gold.Chemscore.Internal_Hbond>
0.0000

> <Gold.Chemscore.DEClash>
0.2372

> <Gold.Chemscore.DEInternal>
1.5082

> <Gold.Chemscore.Rot>
1.8665

> <Gold.Chemscore.Internal.Correction>
   9.000000E+99

> <Gold.Chemscore.Hbond.Weighted>
-0.0000

> <Gold.Chemscore.Metal.Weighted>
-0.0000

> <Gold.Chemscore.Lipo.Weighted>
-12.0873

> <Gold.Chemscore.Internal_Hbond.Weighted>
0.0000

> <Gold.Chemscore.DEClash.Weighted>
0.2372

> <Gold.Chemscore.DEInternal.Weighted>
1.5082

> <Gold.Chemscore.Rot.Weighted>
4.7783

> <Gold.Chemscore.Internal.Correction.Weighted>
   9.000000E+99

> <Gold.Protein.RotatedTorsions>
[ 6907 6896 6895 6894 ] final -169.56 input  -60.11 | X-H torsion
[ 7974 7965 7964 7962 ] final  139.85 input  175.53 | X-H torsion
[ 8008 7997 7996 7995 ] final   69.45 input   59.86 | X-H torsion
[ 10167 10162 10161 10158 ] final  145.41 input  -65.29 | X-H torsion
[ 10718 10713 10712 10709 ] final   90.20 input   66.30 | X-H torsion
[ 10763 10752 10751 10750 ] final -153.74 input  -60.55 | X-H torsion
[ 11005 11000 10999 10996 ] final -143.89 input  -57.11 | X-H torsion

> <Gold.Protein.ActiveResidues>
 VAL166  LYS551  ARG553  GLY616  TRP617  ASP618  TYR619  PRO620  LYS621  CYS622 
 ASP623  PHE694  ASN695  SER759  ASP760  ASP761  ALA762  ILE779  LEU786  VAL792 
 PHE793  MET794  SER795  GLU796  ALA797  LYS798  CYS799  TRP800  GLU811  SER814 

> <Gold.Protein.RotatedAtoms>
  151.4935  133.3519  159.2857 H   0  0  0  0  0  0  0  0  0  0  0  0  # atno 6907 bound_to 6896
  150.8819  134.8213  159.7242 H   0  0  0  0  0  0  0  0  0  0  0  0  # atno 6908 bound_to 6896
  152.4768  134.4834  159.9724 H   0  0  0  0  0  0  0  0  0  0  0  0  # atno 6909 bound_to 6896
  144.9241  139.5130  143.5649 H   0  0  0  0  0  0  0  0  0  0  0  0  # atno 7974 bound_to 7965
  155.7238  140.3493  155.5028 H   0  0  0  0  0  0  0  0  0  0  0  0  # atno 8008 bound_to 7997
  155.9245  140.1073  157.1202 H   0  0  0  0  0  0  0  0  0  0  0  0  # atno 8009 bound_to 7997
  154.4075  140.1243  156.4709 H   0  0  0  0  0  0  0  0  0  0  0  0  # atno 8010 bound_to 7997
  139.4926  144.5903  151.6694 H   0  0  0  0  0  0  0  0  0  0  0  0  # atno 10167 bound_to 10162
  157.6958  131.0362  150.3542 H   0  0  0  0  0  0  0  0  0  0  0  0  # atno 10718 bound_to 10713
  154.7907  135.3206  154.7784 H   0  0  0  0  0  0  0  0  0  0  0  0  # atno 10763 bound_to 10752
  153.8474  135.6865  153.4800 H   0  0  0  0  0  0  0  0  0  0  0  0  # atno 10764 bound_to 10752
  153.1576  135.4674  154.9666 H   0  0  0  0  0  0  0  0  0  0  0  0  # atno 10765 bound_to 10752
  140.8080  134.2778  157.4952 H   0  0  0  0  0  0  0  0  0  0  0  0  # atno 11005 bound_to 11000
  146.3218  139.8142  142.8939 LP  0  0  0  0  0  0  0  0  0  0  0  0  # atno 17320 bound_to 7965
  145.3248  141.0252  143.3480 LP  0  0  0  0  0  0  0  0  0  0  0  0  # atno 17321 bound_to 7965
  140.5529  144.0396  150.6134 LP  0  0  0  0  0  0  0  0  0  0  0  0  # atno 17342 bound_to 10162
  140.3456  143.2993  152.0541 LP  0  0  0  0  0  0  0  0  0  0  0  0  # atno 17343 bound_to 10162
  156.3986  130.3911  149.6976 LP  0  0  0  0  0  0  0  0  0  0  0  0  # atno 17370 bound_to 10713
  156.4301  130.7811  151.2830 LP  0  0  0  0  0  0  0  0  0  0  0  0  # atno 17371 bound_to 10713
  139.8716  134.9467  156.3946 LP  0  0  0  0  0  0  0  0  0  0  0  0  # atno 17394 bound_to 11000
  140.9227  133.7634  155.9926 LP  0  0  0  0  0  0  0  0  0  0  0  0  # atno 17395 bound_to 11000

$$$$
