AV-unprocessed.smi:2061|AV-procd|sdf|8374|dock3
  -GOLD-   2272011 53D 1   1.00000     0.00000
 Structure written by MMmdl.
 44 45  0  0  0  0  0  0  0  0  2 V2000
  158.5408  137.1174  152.6796 C   0  0  0  0  0  0  0  0  0  0  0  0
  157.2708  137.5247  153.3455 C   0  0  0  0  0  0  0  0  0  0  0  0
  156.4676  138.6221  153.2183 C   0  0  0  0  0  0  0  0  0  0  0  0
  155.4257  138.3722  154.1530 C   0  0  0  0  0  0  0  0  0  0  0  0
  154.3715  139.1676  154.3905 N   0  5  0  0  0  0  0  0  0  0  0  0
  153.3161  138.7064  155.1006 C   0  0  0  0  0  0  0  0  0  0  0  0
  153.0456  137.5238  155.3212 O   0  0  0  0  0  0  0  0  0  0  0  0
  152.5337  139.6793  155.5910 N   0  0  0  0  0  0  0  0  0  0  0  0
  151.3252  139.5051  156.3953 C   0  0  0  0  0  0  0  0  0  0  0  0
  150.6904  140.8538  156.8394 C   0  0  2  0  0  0  0  0  0  0  0  0
  150.0483  141.5420  155.6075 C   0  0  0  0  0  0  0  0  0  0  0  0
  151.6388  141.7381  157.5590 N   0  0  0  0  0  0  0  0  0  0  0  0
  151.0390  143.0253  157.9270 C   0  0  0  0  0  0  0  0  0  0  0  0
  152.0096  143.9445  158.6927 C   0  0  1  0  0  0  0  0  0  0  0  0
  151.3422  145.2511  159.1349 C   0  0  0  0  0  0  0  0  0  0  0  0
  152.4757  143.2680  159.8532 O   0  0  0  0  0  0  0  0  0  0  0  0
  153.1390  142.0484  159.5456 C   0  0  1  0  0  0  0  0  0  0  0  0
  153.6212  141.4202  160.8576 C   0  0  0  0  0  0  0  0  0  0  0  0
  152.1727  141.1244  158.7797 C   0  0  0  0  0  0  0  0  0  0  0  0
  155.5746  137.2168  154.7792 N   0  0  0  0  0  0  0  0  0  0  0  0
  156.7587  136.6696  154.2711 O   0  0  0  0  0  0  0  0  0  0  0  0
  158.3624  136.8609  151.6354 H   0  0  0  0  0  0  0  0  0  0  0  0
  158.9820  136.2499  153.1707 H   0  0  0  0  0  0  0  0  0  0  0  0
  159.2689  137.9282  152.7099 H   0  0  0  0  0  0  0  0  0  0  0  0
  156.6039  139.4708  152.5649 H   0  0  0  0  0  0  0  0  0  0  0  0
  152.8031  140.6295  155.3828 H   0  0  0  0  0  0  0  0  0  0  0  0
  150.6525  138.9481  155.7462 H   0  0  0  0  0  0  0  0  0  0  0  0
  151.5046  138.8705  157.2648 H   0  0  0  0  0  0  0  0  0  0  0  0
  149.8765  140.6091  157.5236 H   0  0  0  0  0  0  0  0  0  0  0  0
  149.3696  140.8814  155.0705 H   0  0  0  0  0  0  0  0  0  0  0  0
  150.8091  141.8744  154.9007 H   0  0  0  0  0  0  0  0  0  0  0  0
  149.4394  142.4025  155.8801 H   0  0  0  0  0  0  0  0  0  0  0  0
  150.7240  143.5684  157.0379 H   0  0  0  0  0  0  0  0  0  0  0  0
  150.1448  142.8556  158.5288 H   0  0  0  0  0  0  0  0  0  0  0  0
  152.8621  144.1867  158.0556 H   0  0  0  0  0  0  0  0  0  0  0  0
  150.9753  145.8145  158.2767 H   0  0  0  0  0  0  0  0  0  0  0  0
  152.0472  145.8861  159.6720 H   0  0  0  0  0  0  0  0  0  0  0  0
  150.4966  145.0583  159.7959 H   0  0  0  0  0  0  0  0  0  0  0  0
  154.0083  142.2647  158.9220 H   0  0  0  0  0  0  0  0  0  0  0  0
  154.1516  140.4857  160.6730 H   0  0  0  0  0  0  0  0  0  0  0  0
  152.7844  141.2045  161.5225 H   0  0  0  0  0  0  0  0  0  0  0  0
  154.3013  142.0902  161.3842 H   0  0  0  0  0  0  0  0  0  0  0  0
  151.3502  140.8308  159.4340 H   0  0  0  0  0  0  0  0  0  0  0  0
  152.7278  140.2195  158.5417 H   0  0  0  0  0  0  0  0  0  0  0  0
  1  2  1  0  0  0  0
  1 22  1  0  0  0  0
  1 23  1  0  0  0  0
  1 24  1  0  0  0  0
  2 21  1  0  0  0  0
  2  3  2  0  0  0  0
  3  4  1  0  0  0  0
  3 25  1  0  0  0  0
  4  5  1  0  0  0  0
  4 20  2  0  0  0  0
  5  6  1  0  0  0  0
  6  7  2  0  0  0  0
  6  8  1  0  0  0  0
  8  9  1  0  0  0  0
  8 26  1  0  0  0  0
  9 10  1  0  0  0  0
  9 27  1  0  0  0  0
  9 28  1  0  0  0  0
 10 11  1  0  0  0  0
 10 12  1  0  0  0  0
 10 29  1  0  0  0  0
 11 30  1  0  0  0  0
 11 31  1  0  0  0  0
 11 32  1  0  0  0  0
 12 19  1  0  0  0  0
 12 13  1  0  0  0  0
 13 14  1  0  0  0  0
 13 33  1  0  0  0  0
 13 34  1  0  0  0  0
 14 15  1  0  0  0  0
 14 16  1  0  0  0  0
 14 35  1  0  0  0  0
 15 36  1  0  0  0  0
 15 37  1  0  0  0  0
 15 38  1  0  0  0  0
 16 17  1  0  0  0  0
 17 18  1  0  0  0  0
 17 19  1  0  0  0  0
 17 39  1  0  0  0  0
 18 40  1  0  0  0  0
 18 41  1  0  0  0  0
 18 42  1  0  0  0  0
 19 43  1  0  0  0  0
 19 44  1  0  0  0  0
 20 21  1  0  0  0  0
M  CHG  1   5  -1
M  END
> <s_m_source_file>
AV-unprocessed.smi

> <i_m_source_file_index>
2061

> <i_lp_mmshare_version>
43012

> <i_f3d_flags>
0

> <s_epik_input>
W0NIM11jMVtjSF1jKG5vMSlbTkhdQyg9TylbTkhdW0NIMl1bQ0BIXShbQ0gzXSlOMltDSDJdW0NAQEhdKFtDSDNdKU9bQ0BASF0oW0NIM10pW0NIMl0y

> <s_epik_cmdline>
J2VwaWtfcHl0aG9uJywgJy1waCcsICc3LjAnLCAnLXRuJywgJzgnLCAnLW1hJywgJzIwMCcsICctbWV0YWxfYmluZGluZycsICctaW1hZScsICc8aW5maWxlLm1hZT4nLCAnLW9tYWUnLCAnPG91dGZpbGUubWFlPic=

> <r_epik_Ionization_Penalty>
6.88367

> <r_epik_Ionization_Penalty_Charging>
6.57198

> <r_epik_Ionization_Penalty_Neutral>
0.311681

> <r_epik_State_Penalty>
6.77619

> <r_epik_Charging_Adjusted_Penalty>
13.3482

> <i_epik_Tot_Q>
-1

> <i_epik_Tot_abs_Q>
1

> <r_epik_Metal_State_Penalty>
2.70524

> <b_epik_Metal_Only>
1

> <s_lp_Force_Field>
OPLS_2005

> <r_lp_Energy>
21.032

> <b_lp_Chiralities_Consistent>
1

> <s_lp_Variant>
AV-unprocessed.smi:2061-15

> <Gold.Version>
5.8.1

> <Gold.Id.Protein>
6NUR|6NUR_protein|mol2

> <Gold.PLP.Fitness>
49.6811

> <Gold.PLP.PLP>
-42.4408

> <Gold.PLP.part.hbond>
-3.8169

> <Gold.PLP.part.metal>
0.0000

> <Gold.PLP.part.buried>
-0.6421

> <Gold.PLP.part.nonpolar>
-38.7749

> <Gold.PLP.part.repulsive>
1.0042

> <Gold.PLP.ligand.clash>
0.0000

> <Gold.PLP.ligand.torsion>
0.1651

> <Gold.PLP.Chemscore.Hbond>
2.4960

> <Gold.PLP.Chemscore.CHOScore>
0.0000

> <Gold.PLP.Chemscore.Metal>
0.0000

> <Gold.Chemscore.Hbonds>
donor molecule, donor type, donor heavy atom, donor atom, acceptor molecule, acceptor atom, score
      P1  H  7997  8010       L1     5  1.90
      P1  H 10752 10764       L1     7  0.32
      P1  H 10752 10765       L1    20  0.17

> <Gold.PLP.Chemscore.Internal.Correction>
0.0826

> <Gold.Rescore>
     Score         DG    S(hbond)    S(metal)    S(lipo)     H(rot)  DE(clash)    DE(int)     intcor
     15.04     -17.43       0.58        0.00     118.90       1.52       0.57       1.82       ----

> <Gold.Chemscore.Fitness>
15.0409

> <Gold.Chemscore.DG>
-17.4307

> <Gold.Chemscore.ZeroCoef>
-5.4800

> <Gold.Chemscore.Hbond>
0.5771

> <Gold.Chemscore.Metal>
0.0000

> <Gold.Chemscore.Lipo>
118.9048

> <Gold.Chemscore.Internal_Hbond>
0.0000

> <Gold.Chemscore.DEClash>
0.5713

> <Gold.Chemscore.DEInternal>
1.8185

> <Gold.Chemscore.Rot>
1.5190

> <Gold.Chemscore.Internal.Correction>
   9.000000E+99

> <Gold.Chemscore.Hbonds>
donor molecule, donor type, donor heavy atom, donor atom, acceptor molecule, acceptor atom, score
      P1  H  7997  8010       L1     5  0.09
      P1  H 10752 10764       L1     7  0.30
      P1  H 10752 10765       L1    20  0.01

> <Gold.Chemscore.Hbond.Weighted>
-1.9275

> <Gold.Chemscore.Metal.Weighted>
-0.0000

> <Gold.Chemscore.Lipo.Weighted>
-13.9119

> <Gold.Chemscore.Internal_Hbond.Weighted>
0.0000

> <Gold.Chemscore.DEClash.Weighted>
0.5713

> <Gold.Chemscore.DEInternal.Weighted>
1.8185

> <Gold.Chemscore.Rot.Weighted>
3.8886

> <Gold.Chemscore.Internal.Correction.Weighted>
   9.000000E+99

> <Gold.Protein.RotatedTorsions>
[ 6907 6896 6895 6894 ] final  -35.77 input  -60.11 | X-H torsion
[ 7974 7965 7964 7962 ] final  -29.67 input  175.53 | X-H torsion
[ 8008 7997 7996 7995 ] final  141.90 input   59.86 | X-H torsion
[ 10167 10162 10161 10158 ] final  168.44 input  -65.29 | X-H torsion
[ 10718 10713 10712 10709 ] final -134.44 input   66.30 | X-H torsion
[ 10763 10752 10751 10750 ] final  -45.66 input  -60.55 | X-H torsion
[ 11005 11000 10999 10996 ] final  125.76 input  -57.11 | X-H torsion

> <Gold.Protein.ActiveResidues>
 VAL166  LYS551  ARG553  GLY616  TRP617  ASP618  TYR619  PRO620  LYS621  CYS622 
 ASP623  PHE694  ASN695  SER759  ASP760  ASP761  ALA762  ILE779  LEU786  VAL792 
 PHE793  MET794  SER795  GLU796  ALA797  LYS798  CYS799  TRP800  GLU811  SER814 

> <Gold.Protein.RotatedAtoms>
  151.0356  134.9570  159.8134 H   0  0  0  0  0  0  0  0  0  0  0  0  # atno 6907 bound_to 6896
  152.5354  134.2724  159.8986 H   0  0  0  0  0  0  0  0  0  0  0  0  # atno 6908 bound_to 6896
  151.2734  133.4201  159.2656 H   0  0  0  0  0  0  0  0  0  0  0  0  # atno 6909 bound_to 6896
  146.1200  140.5442  142.8740 H   0  0  0  0  0  0  0  0  0  0  0  0  # atno 7974 bound_to 7965
  156.2958  140.2303  156.4640 H   0  0  0  0  0  0  0  0  0  0  0  0  # atno 8008 bound_to 7997
  154.7993  140.0449  157.1281 H   0  0  0  0  0  0  0  0  0  0  0  0  # atno 8009 bound_to 7997
  154.9552  140.3047  155.5060 H   0  0  0  0  0  0  0  0  0  0  0  0  # atno 8010 bound_to 7997
  139.4968  144.3814  151.9618 H   0  0  0  0  0  0  0  0  0  0  0  0  # atno 10167 bound_to 10162
  156.2555  130.7179  151.1094 H   0  0  0  0  0  0  0  0  0  0  0  0  # atno 10718 bound_to 10713
  154.0322  135.6655  153.4782 H   0  0  0  0  0  0  0  0  0  0  0  0  # atno 10763 bound_to 10752
  153.0536  135.5070  154.7922 H   0  0  0  0  0  0  0  0  0  0  0  0  # atno 10764 bound_to 10752
  154.6871  135.3055  154.9497 H   0  0  0  0  0  0  0  0  0  0  0  0  # atno 10765 bound_to 10752
  139.9422  134.9634  156.8606 H   0  0  0  0  0  0  0  0  0  0  0  0  # atno 11005 bound_to 11000
  144.7588  140.5372  143.6750 LP  0  0  0  0  0  0  0  0  0  0  0  0  # atno 17320 bound_to 7965
  145.5487  139.1476  143.3406 LP  0  0  0  0  0  0  0  0  0  0  0  0  # atno 17321 bound_to 7965
  140.3251  144.3383  150.6000 LP  0  0  0  0  0  0  0  0  0  0  0  0  # atno 17342 bound_to 10162
  140.5691  143.2183  151.7630 LP  0  0  0  0  0  0  0  0  0  0  0  0  # atno 17343 bound_to 10162
  157.7231  131.0668  150.6051 LP  0  0  0  0  0  0  0  0  0  0  0  0  # atno 17370 bound_to 10713
  156.6134  130.4386  149.5850 LP  0  0  0  0  0  0  0  0  0  0  0  0  # atno 17371 bound_to 10713
  140.5923  134.0250  155.7504 LP  0  0  0  0  0  0  0  0  0  0  0  0  # atno 17394 bound_to 11000
  141.1061  133.9692  157.2995 LP  0  0  0  0  0  0  0  0  0  0  0  0  # atno 17395 bound_to 11000

$$$$
