AV-unprocessed.smi:3030|AV-procd|sdf|11534|dock6
  -GOLD-   2272016483D 1   1.00000     0.00000
 Structure written by MMmdl.
 52 53  0  0  0  0  0  0  0  0  1 V2000
  149.7078  142.0327  157.7968 C   0  0  0  0  0  0  0  0  0  0  0  0
  150.5768  141.3335  156.7456 C   0  0  0  0  0  0  0  0  0  0  0  0
  149.7698  140.6984  155.7136 N   0  0  0  0  0  0  0  0  0  0  0  0
  148.8327  141.4218  154.9833 C   0  0  0  0  0  0  0  0  0  0  0  0
  148.0155  140.8816  154.0586 C   0  0  0  0  0  0  0  0  0  0  0  0
  148.0914  139.4327  153.7835 C   0  0  0  0  0  0  0  0  0  0  0  0
  147.3572  138.9053  152.9480 O   0  0  0  0  0  0  0  0  0  0  0  0
  149.0918  138.6588  154.5649 C   0  0  0  0  0  0  0  0  0  0  0  0
  149.1484  137.2789  154.3112 N   0  0  0  0  0  0  0  0  0  0  0  0
  149.3752  136.2676  155.1688 C   0  0  0  0  0  0  0  0  0  0  0  0
  149.6317  136.3825  156.3671 O   0  0  0  0  0  0  0  0  0  0  0  0
  149.3048  135.0850  154.5407 N   0  0  0  0  0  0  0  0  0  0  0  0
  149.5217  133.7809  155.1599 C   0  0  1  0  0  0  0  0  0  0  0  0
  148.6637  133.6208  156.4290 C   0  0  0  0  0  0  0  0  0  0  0  0
  149.0477  132.3392  157.1963 C   0  0  1  0  0  0  0  0  0  0  0  0
  148.1656  132.1399  158.4367 C   0  0  0  0  0  0  0  0  0  0  0  0
  149.0114  131.1049  156.2717 C   0  0  0  0  0  0  0  0  0  0  0  0
  149.8330  131.3269  154.9866 C   0  0  0  0  0  0  0  0  0  0  0  0
  149.3520  132.5688  154.1940 C   0  0  1  0  0  0  0  0  0  0  0  0
  147.9345  132.3760  153.5471 C   0  0  0  0  0  0  0  0  0  0  0  0
  147.6948  130.9275  153.0745 C   0  0  0  0  0  0  0  0  0  0  0  0
  147.6512  133.3159  152.3586 C   0  0  0  0  0  0  0  0  0  0  0  0
  149.8495  139.3284  155.4709 C   0  0  0  0  0  0  0  0  0  0  0  0
  150.3272  142.5008  158.5619 H   0  0  0  0  0  0  0  0  0  0  0  0
  149.0437  141.3249  158.2936 H   0  0  0  0  0  0  0  0  0  0  0  0
  149.0918  142.8106  157.3445 H   0  0  0  0  0  0  0  0  0  0  0  0
  151.2547  142.0545  156.2869 H   0  0  0  0  0  0  0  0  0  0  0  0
  151.2078  140.5845  157.2258 H   0  0  0  0  0  0  0  0  0  0  0  0
  148.8091  142.4778  155.2113 H   0  0  0  0  0  0  0  0  0  0  0  0
  147.3050  141.4844  153.5125 H   0  0  0  0  0  0  0  0  0  0  0  0
  149.0162  137.0255  153.3428 H   0  0  0  0  0  0  0  0  0  0  0  0
  149.0940  135.0859  153.5536 H   0  0  0  0  0  0  0  0  0  0  0  0
  150.5604  133.7873  155.4980 H   0  0  0  0  0  0  0  0  0  0  0  0
  148.8077  134.4844  157.0799 H   0  0  0  0  0  0  0  0  0  0  0  0
  147.6040  133.6085  156.1730 H   0  0  0  0  0  0  0  0  0  0  0  0
  150.0751  132.4584  157.5437 H   0  0  0  0  0  0  0  0  0  0  0  0
  147.1173  132.0187  158.1622 H   0  0  0  0  0  0  0  0  0  0  0  0
  148.2364  132.9942  159.1105 H   0  0  0  0  0  0  0  0  0  0  0  0
  148.4683  131.2541  158.9955 H   0  0  0  0  0  0  0  0  0  0  0  0
  149.4008  130.2367  156.8042 H   0  0  0  0  0  0  0  0  0  0  0  0
  147.9804  130.8617  156.0138 H   0  0  0  0  0  0  0  0  0  0  0  0
  150.8796  131.4646  155.2622 H   0  0  0  0  0  0  0  0  0  0  0  0
  149.8301  130.4279  154.3728 H   0  0  0  0  0  0  0  0  0  0  0  0
  150.0558  132.7031  153.3712 H   0  0  0  0  0  0  0  0  0  0  0  0
  147.1723  132.5833  154.2973 H   0  0  0  0  0  0  0  0  0  0  0  0
  148.4805  130.5965  152.3947 H   0  0  0  0  0  0  0  0  0  0  0  0
  146.7440  130.8340  152.5488 H   0  0  0  0  0  0  0  0  0  0  0  0
  147.6463  130.2268  153.9070 H   0  0  0  0  0  0  0  0  0  0  0  0
  148.4642  133.2977  151.6321 H   0  0  0  0  0  0  0  0  0  0  0  0
  147.4971  134.3443  152.6794 H   0  0  0  0  0  0  0  0  0  0  0  0
  146.7380  133.0310  151.8355 H   0  0  0  0  0  0  0  0  0  0  0  0
  150.5827  138.8427  156.0950 H   0  0  0  0  0  0  0  0  0  0  0  0
  1  2  1  0  0  0  0
  1 24  1  0  0  0  0
  1 25  1  0  0  0  0
  1 26  1  0  0  0  0
  2  3  1  0  0  0  0
  2 27  1  0  0  0  0
  2 28  1  0  0  0  0
  3 23  1  0  0  0  0
  3  4  1  0  0  0  0
  4  5  2  0  0  0  0
  4 29  1  0  0  0  0
  5  6  1  0  0  0  0
  5 30  1  0  0  0  0
  6  7  2  0  0  0  0
  6  8  1  0  0  0  0
  8  9  1  0  0  0  0
  8 23  2  0  0  0  0
  9 10  1  0  0  0  0
  9 31  1  0  0  0  0
 10 11  2  0  0  0  0
 10 12  1  0  0  0  0
 12 13  1  0  0  0  0
 12 32  1  0  0  0  0
 13 19  1  0  0  0  0
 13 14  1  0  0  0  0
 13 33  1  0  0  0  0
 14 15  1  0  0  0  0
 14 34  1  0  0  0  0
 14 35  1  0  0  0  0
 15 16  1  0  0  0  0
 15 17  1  0  0  0  0
 15 36  1  0  0  0  0
 16 37  1  0  0  0  0
 16 38  1  0  0  0  0
 16 39  1  0  0  0  0
 17 18  1  0  0  0  0
 17 40  1  0  0  0  0
 17 41  1  0  0  0  0
 18 19  1  0  0  0  0
 18 42  1  0  0  0  0
 18 43  1  0  0  0  0
 19 20  1  0  0  0  0
 19 44  1  0  0  0  0
 20 21  1  0  0  0  0
 20 22  1  0  0  0  0
 20 45  1  0  0  0  0
 21 46  1  0  0  0  0
 21 47  1  0  0  0  0
 21 48  1  0  0  0  0
 22 49  1  0  0  0  0
 22 50  1  0  0  0  0
 22 51  1  0  0  0  0
 23 52  1  0  0  0  0
M  END
> <s_m_source_file>
AV-unprocessed.smi

> <i_m_source_file_index>
3030

> <i_lp_mmshare_version>
43012

> <i_f3d_flags>
0

> <s_epik_input>
W0NIM11bQ0gyXW4xW2NIXVtjSF1jKD1PKWMoW2NIXTEpW05IXUMoPU8pW05IXVtDQEBIXTJbQ0gyXVtDQEBIXShbQ0gzXSlbQ0gyXVtDSDJdW0NASF0yW0NIXShbQ0gzXSlbQ0gzXQ==

> <s_epik_cmdline>
J2VwaWtfcHl0aG9uJywgJy1waCcsICc3LjAnLCAnLXRuJywgJzgnLCAnLW1hJywgJzIwMCcsICctbWV0YWxfYmluZGluZycsICctaW1hZScsICc8aW5maWxlLm1hZT4nLCAnLW9tYWUnLCAnPG91dGZpbGUubWFlPic=

> <r_lp_tautomer_probability>
1

> <r_epik_Ionization_Penalty>
0.00147933

> <r_epik_Ionization_Penalty_Charging>
0.00145753

> <r_epik_Ionization_Penalty_Neutral>
2.17987e-05

> <r_epik_State_Penalty>
0.00097457

> <r_epik_Charging_Adjusted_Penalty>
0.0024321

> <i_epik_Tot_Q>
0

> <i_epik_Tot_abs_Q>
0

> <r_epik_Metal_State_Penalty>
-0

> <b_epik_Metal_Only>
0

> <s_lp_Force_Field>
OPLS_2005

> <r_lp_Energy>
13.818

> <b_lp_Chiralities_Consistent>
1

> <s_lp_Variant>
AV-unprocessed.smi:3030-2

> <Gold.Version>
5.8.1

> <Gold.Id.Protein>
6NUR|6NUR_protein|mol2

> <Gold.PLP.Fitness>
44.1431

> <Gold.PLP.PLP>
-37.0750

> <Gold.PLP.part.hbond>
-2.0000

> <Gold.PLP.part.metal>
0.0000

> <Gold.PLP.part.buried>
-2.1871

> <Gold.PLP.part.nonpolar>
-33.6038

> <Gold.PLP.part.repulsive>
0.3175

> <Gold.PLP.ligand.clash>
0.0000

> <Gold.PLP.ligand.torsion>
0.7470

> <Gold.PLP.Chemscore.Hbond>
1.8320

> <Gold.PLP.Chemscore.CHOScore>
1.0000

> <Gold.PLP.Chemscore.Metal>
0.0000

> <Gold.Chemscore.Hbonds>
donor molecule, donor type, donor heavy atom, donor atom, acceptor molecule, acceptor atom, score
      L1  H     9    31       P1  7948  1.00
      L1  H    12    32       P1  7948  0.93
      L1  C     4    29       P1  8028  1.00

> <Gold.PLP.Chemscore.Internal.Correction>
0.0661

> <Gold.Rescore>
     Score         DG    S(hbond)    S(metal)    S(lipo)     H(rot)  DE(clash)    DE(int)     intcor
     14.24     -16.96       1.63        0.00      79.43       1.27       0.02       2.70       ----

> <Gold.Chemscore.Fitness>
14.2429

> <Gold.Chemscore.DG>
-16.9566

> <Gold.Chemscore.ZeroCoef>
-5.4800

> <Gold.Chemscore.Hbond>
1.6258

> <Gold.Chemscore.Metal>
0.0000

> <Gold.Chemscore.Lipo>
79.4346

> <Gold.Chemscore.Internal_Hbond>
0.0000

> <Gold.Chemscore.DEClash>
0.0169

> <Gold.Chemscore.DEInternal>
2.6968

> <Gold.Chemscore.Rot>
1.2685

> <Gold.Chemscore.Internal.Correction>
   9.000000E+99

> <Gold.Chemscore.Hbonds>
donor molecule, donor type, donor heavy atom, donor atom, acceptor molecule, acceptor atom, score
      L1  H     9    31       P1  7948  1.00
      L1  H    12    32       P1  7948  0.30

> <Gold.Chemscore.Hbond.Weighted>
-5.4302

> <Gold.Chemscore.Metal.Weighted>
-0.0000

> <Gold.Chemscore.Lipo.Weighted>
-9.2938

> <Gold.Chemscore.Internal_Hbond.Weighted>
0.0000

> <Gold.Chemscore.DEClash.Weighted>
0.0169

> <Gold.Chemscore.DEInternal.Weighted>
2.6968

> <Gold.Chemscore.Rot.Weighted>
3.2474

> <Gold.Chemscore.Internal.Correction.Weighted>
   9.000000E+99

> <Gold.Protein.RotatedTorsions>
[ 6907 6896 6895 6894 ] final -167.87 input  -60.11 | X-H torsion
[ 7974 7965 7964 7962 ] final   87.04 input  175.53 | X-H torsion
[ 8008 7997 7996 7995 ] final  -75.58 input   59.86 | X-H torsion
[ 10167 10162 10161 10158 ] final  145.20 input  -65.29 | X-H torsion
[ 10718 10713 10712 10709 ] final   40.35 input   66.30 | X-H torsion
[ 10763 10752 10751 10750 ] final  120.77 input  -60.55 | X-H torsion
[ 11005 11000 10999 10996 ] final  -41.76 input  -57.11 | X-H torsion

> <Gold.Protein.ActiveResidues>
 VAL166  LYS551  ARG553  GLY616  TRP617  ASP618  TYR619  PRO620  LYS621  CYS622 
 ASP623  PHE694  ASN695  SER759  ASP760  ASP761  ALA762  ILE779  LEU786  VAL792 
 PHE793  MET794  SER795  GLU796  ALA797  LYS798  CYS799  TRP800  GLU811  SER814 

> <Gold.Protein.RotatedAtoms>
  151.4664  133.3580  159.2816 H   0  0  0  0  0  0  0  0  0  0  0  0  # atno 6907 bound_to 6896
  150.8990  134.8403  159.7358 H   0  0  0  0  0  0  0  0  0  0  0  0  # atno 6908 bound_to 6896
  152.4868  134.4582  159.9648 H   0  0  0  0  0  0  0  0  0  0  0  0  # atno 6909 bound_to 6896
  145.5643  139.2307  143.2442 H   0  0  0  0  0  0  0  0  0  0  0  0  # atno 7974 bound_to 7965
  154.5429  140.0741  156.8541 H   0  0  0  0  0  0  0  0  0  0  0  0  # atno 8008 bound_to 7997
  155.3144  140.3392  155.4225 H   0  0  0  0  0  0  0  0  0  0  0  0  # atno 8009 bound_to 7997
  156.1891  140.1680  156.8113 H   0  0  0  0  0  0  0  0  0  0  0  0  # atno 8010 bound_to 7997
  139.4931  144.5918  151.6664 H   0  0  0  0  0  0  0  0  0  0  0  0  # atno 10167 bound_to 10162
  157.3811  130.7754  149.7194 H   0  0  0  0  0  0  0  0  0  0  0  0  # atno 10718 bound_to 10713
  153.6037  135.3443  155.2954 H   0  0  0  0  0  0  0  0  0  0  0  0  # atno 10763 bound_to 10752
  154.8631  135.4233  154.2384 H   0  0  0  0  0  0  0  0  0  0  0  0  # atno 10764 bound_to 10752
  153.3219  135.7038  153.7095 H   0  0  0  0  0  0  0  0  0  0  0  0  # atno 10765 bound_to 10752
  141.0268  133.6837  156.2501 H   0  0  0  0  0  0  0  0  0  0  0  0  # atno 11005 bound_to 11000
  146.1829  140.6468  142.9181 LP  0  0  0  0  0  0  0  0  0  0  0  0  # atno 17320 bound_to 7965
  144.7468  140.5088  143.6830 LP  0  0  0  0  0  0  0  0  0  0  0  0  # atno 17321 bound_to 7965
  140.5547  144.0367  150.6142 LP  0  0  0  0  0  0  0  0  0  0  0  0  # atno 17342 bound_to 10162
  140.3433  143.3006  152.0565 LP  0  0  0  0  0  0  0  0  0  0  0  0  # atno 17343 bound_to 10162
  155.9776  130.4061  150.3702 LP  0  0  0  0  0  0  0  0  0  0  0  0  # atno 17370 bound_to 10713
  157.1806  131.0391  151.2750 LP  0  0  0  0  0  0  0  0  0  0  0  0  # atno 17371 bound_to 10713
  140.6476  134.5100  157.5575 LP  0  0  0  0  0  0  0  0  0  0  0  0  # atno 17394 bound_to 11000
  139.9181  134.8204  156.1298 LP  0  0  0  0  0  0  0  0  0  0  0  0  # atno 17395 bound_to 11000

$$$$
