AV-unprocessed.smi:3116|AV-procd|sdf|11870|dock4
  -GOLD-   2272017253D 1   1.00000     0.00000
 Structure written by MMmdl.
 33 33  0  0  0  0  0  0  0  0  1 V2000
  146.7025  138.4894  151.6355 C   0  0  0  0  0  0  0  0  0  0  0  0
  147.0074  138.8744  153.0981 C   0  0  2  0  0  0  0  0  0  0  0  0
  148.4427  139.1238  153.3075 N   0  0  0  0  0  0  0  0  0  0  0  0
  148.7392  140.0421  154.4050 C   0  0  2  0  0  0  0  0  0  0  0  0
  148.3324  141.4574  153.9499 C   0  0  0  0  0  0  0  0  0  0  0  0
  150.2441  139.9145  154.7638 C   0  0  2  0  0  0  0  0  0  0  0  0
  150.6686  138.4541  155.0144 C   0  0  0  0  0  0  0  0  0  0  0  0
  150.6089  140.7473  155.9037 N   0  0  0  0  0  0  0  0  0  0  0  0
  150.4589  142.1117  156.0446 C   0  0  0  0  0  0  0  0  0  0  0  0
  150.9298  142.4500  157.2807 C   0  0  0  0  0  0  0  0  0  0  0  0
  151.3547  141.2090  157.8314 C   0  0  0  0  0  0  0  0  0  0  0  0
  151.1607  140.1925  157.0073 N   0  0  0  0  0  0  0  0  0  0  0  0
  146.5220  137.8022  154.0838 C   0  0  0  0  0  0  0  0  0  0  0  0
  147.0858  136.5957  153.9828 N   0  0  0  0  0  0  0  0  0  0  0  0
  145.6471  138.0431  154.9140 O   0  0  0  0  0  0  0  0  0  0  0  0
  145.6502  138.2337  151.5047 H   0  0  0  0  0  0  0  0  0  0  0  0
  147.2956  137.6323  151.3133 H   0  0  0  0  0  0  0  0  0  0  0  0
  146.9140  139.3125  150.9531 H   0  0  0  0  0  0  0  0  0  0  0  0
  146.4524  139.7835  153.3377 H   0  0  0  0  0  0  0  0  0  0  0  0
  148.8967  139.4384  152.4619 H   0  0  0  0  0  0  0  0  0  0  0  0
  148.1551  139.7906  155.2919 H   0  0  0  0  0  0  0  0  0  0  0  0
  148.4473  142.1853  154.7530 H   0  0  0  0  0  0  0  0  0  0  0  0
  147.2877  141.4928  153.6404 H   0  0  0  0  0  0  0  0  0  0  0  0
  148.9386  141.7940  153.1081 H   0  0  0  0  0  0  0  0  0  0  0  0
  150.8263  140.2837  153.9176 H   0  0  0  0  0  0  0  0  0  0  0  0
  150.5240  137.8398  154.1256 H   0  0  0  0  0  0  0  0  0  0  0  0
  150.0935  138.0027  155.8235 H   0  0  0  0  0  0  0  0  0  0  0  0
  151.7240  138.3933  155.2817 H   0  0  0  0  0  0  0  0  0  0  0  0
  150.0316  142.7216  155.2625 H   0  0  0  0  0  0  0  0  0  0  0  0
  150.9649  143.4341  157.7242 H   0  0  0  0  0  0  0  0  0  0  0  0
  151.7940  141.0175  158.7992 H   0  0  0  0  0  0  0  0  0  0  0  0
  146.8043  135.8560  154.6097 H   0  0  0  0  0  0  0  0  0  0  0  0
  147.7934  136.4295  153.2821 H   0  0  0  0  0  0  0  0  0  0  0  0
  1  2  1  0  0  0  0
  1 16  1  0  0  0  0
  1 17  1  0  0  0  0
  1 18  1  0  0  0  0
  2  3  1  0  0  0  0
  2 13  1  0  0  0  0
  2 19  1  0  0  0  0
  3  4  1  0  0  0  0
  3 20  1  0  0  0  0
  4  5  1  0  0  0  0
  4  6  1  0  0  0  0
  4 21  1  0  0  0  0
  5 22  1  0  0  0  0
  5 23  1  0  0  0  0
  5 24  1  0  0  0  0
  6  7  1  0  0  0  0
  6  8  1  0  0  0  0
  6 25  1  0  0  0  0
  7 26  1  0  0  0  0
  7 27  1  0  0  0  0
  7 28  1  0  0  0  0
  8 12  1  0  0  0  0
  8  9  1  0  0  0  0
  9 10  2  0  0  0  0
  9 29  1  0  0  0  0
 10 11  1  0  0  0  0
 10 30  1  0  0  0  0
 11 12  2  0  0  0  0
 11 31  1  0  0  0  0
 13 14  1  0  0  0  0
 13 15  2  0  0  0  0
 14 32  1  0  0  0  0
 14 33  1  0  0  0  0
M  END
> <s_m_source_file>
AV-unprocessed.smi

> <i_m_source_file_index>
3116

> <i_lp_mmshare_version>
43012

> <i_f3d_flags>
0

> <s_epik_input>
W05IMl1DKD1PKVtDQEhdKFtDSDNdKVtOSF1bQ0BIXShbQ0gzXSlbQ0BIXShbQ0gzXSluMVtjSF1bY0hdW2NIXW4x

> <s_epik_cmdline>
J2VwaWtfcHl0aG9uJywgJy1waCcsICc3LjAnLCAnLXRuJywgJzgnLCAnLW1hJywgJzIwMCcsICctbWV0YWxfYmluZGluZycsICctaW1hZScsICc8aW5maWxlLm1hZT4nLCAnLW9tYWUnLCAnPG91dGZpbGUubWFlPic=

> <r_lp_tautomer_probability>
1

> <r_epik_Ionization_Penalty>
0.865977

> <r_epik_Ionization_Penalty_Charging>
0

> <r_epik_Ionization_Penalty_Neutral>
0.865977

> <r_epik_State_Penalty>
0.901888

> <r_epik_Charging_Adjusted_Penalty>
0.901888

> <i_epik_Tot_Q>
0

> <i_epik_Tot_abs_Q>
0

> <r_epik_Metal_State_Penalty>
0.901181

> <b_epik_Metal_Only>
0

> <s_lp_Force_Field>
OPLS_2005

> <r_lp_Energy>
9.43225

> <b_lp_Chiralities_Consistent>
1

> <s_lp_Variant>
AV-unprocessed.smi:3116-9

> <Gold.Version>
5.8.1

> <Gold.Id.Protein>
6NUR|6NUR_protein|mol2

> <Gold.PLP.Fitness>
37.7248

> <Gold.PLP.PLP>
-29.4259

> <Gold.PLP.part.hbond>
-2.3599

> <Gold.PLP.part.metal>
0.0000

> <Gold.PLP.part.buried>
-2.1362

> <Gold.PLP.part.nonpolar>
-26.8263

> <Gold.PLP.part.repulsive>
0.0678

> <Gold.PLP.ligand.clash>
0.0000

> <Gold.PLP.ligand.torsion>
0.4286

> <Gold.PLP.Chemscore.Hbond>
2.0000

> <Gold.PLP.Chemscore.CHOScore>
1.0000

> <Gold.PLP.Chemscore.Metal>
0.0000

> <Gold.Chemscore.Hbonds>
donor molecule, donor type, donor heavy atom, donor atom, acceptor molecule, acceptor atom, score
      L1  H     3    20       P1  7957  1.00
      L1  H    14    33       P1  7948  1.00
      L1  C     9    29       P1  8028  0.89

> <Gold.PLP.Chemscore.Internal.Correction>
0.1562

> <Gold.Rescore>
     Score         DG    S(hbond)    S(metal)    S(lipo)     H(rot)  DE(clash)    DE(int)     intcor
     12.91     -13.50       1.98        0.00      64.27       2.38       0.01       0.58       ----

> <Gold.Chemscore.Fitness>
12.9092

> <Gold.Chemscore.DG>
-13.4989

> <Gold.Chemscore.ZeroCoef>
-5.4800

> <Gold.Chemscore.Hbond>
1.9763

> <Gold.Chemscore.Metal>
0.0000

> <Gold.Chemscore.Lipo>
64.2741

> <Gold.Chemscore.Internal_Hbond>
0.0000

> <Gold.Chemscore.DEClash>
0.0073

> <Gold.Chemscore.DEInternal>
0.5824

> <Gold.Chemscore.Rot>
2.3836

> <Gold.Chemscore.Internal.Correction>
   9.000000E+99

> <Gold.Chemscore.Hbonds>
donor molecule, donor type, donor heavy atom, donor atom, acceptor molecule, acceptor atom, score
      L1  H     3    20       P1  7957  0.98
      L1  H    14    33       P1  7948  1.00

> <Gold.Chemscore.Hbond.Weighted>
-6.6008

> <Gold.Chemscore.Metal.Weighted>
-0.0000

> <Gold.Chemscore.Lipo.Weighted>
-7.5201

> <Gold.Chemscore.Internal_Hbond.Weighted>
0.0000

> <Gold.Chemscore.DEClash.Weighted>
0.0073

> <Gold.Chemscore.DEInternal.Weighted>
0.5824

> <Gold.Chemscore.Rot.Weighted>
6.1020

> <Gold.Chemscore.Internal.Correction.Weighted>
   9.000000E+99

> <Gold.Protein.RotatedTorsions>
[ 6907 6896 6895 6894 ] final  -66.15 input  -60.11 | X-H torsion
[ 7974 7965 7964 7962 ] final  -40.61 input  175.53 | X-H torsion
[ 8008 7997 7996 7995 ] final  175.32 input   59.86 | X-H torsion
[ 10167 10162 10161 10158 ] final   92.97 input  -65.29 | X-H torsion
[ 10718 10713 10712 10709 ] final  -16.59 input   66.30 | X-H torsion
[ 10763 10752 10751 10750 ] final -121.76 input  -60.55 | X-H torsion
[ 11005 11000 10999 10996 ] final   82.00 input  -57.11 | X-H torsion

> <Gold.Protein.ActiveResidues>
 VAL166  LYS551  ARG553  GLY616  TRP617  ASP618  TYR619  PRO620  LYS621  CYS622 
 ASP623  PHE694  ASN695  SER759  ASP760  ASP761  ALA762  ILE779  LEU786  VAL792 
 PHE793  MET794  SER795  GLU796  ALA797  LYS798  CYS799  TRP800  GLU811  SER814 

> <Gold.Protein.RotatedAtoms>
  150.7482  134.6061  159.6061 H   0  0  0  0  0  0  0  0  0  0  0  0  # atno 6907 bound_to 6896
  152.3408  134.7133  160.0273 H   0  0  0  0  0  0  0  0  0  0  0  0  # atno 6908 bound_to 6896
  151.7586  133.3296  159.3448 H   0  0  0  0  0  0  0  0  0  0  0  0  # atno 6909 bound_to 6896
  146.0288  140.6758  142.9142 H   0  0  0  0  0  0  0  0  0  0  0  0  # atno 7974 bound_to 7965
  156.0883  140.1412  156.9625 H   0  0  0  0  0  0  0  0  0  0  0  0  # atno 8008 bound_to 7997
  154.4626  140.0937  156.6982 H   0  0  0  0  0  0  0  0  0  0  0  0  # atno 8009 bound_to 7997
  155.4962  140.3449  155.4365 H   0  0  0  0  0  0  0  0  0  0  0  0  # atno 8010 bound_to 7997
  139.8225  144.6724  150.9500 H   0  0  0  0  0  0  0  0  0  0  0  0  # atno 10167 bound_to 10162
  156.5855  130.4785  149.6302 H   0  0  0  0  0  0  0  0  0  0  0  0  # atno 10718 bound_to 10713
  154.8675  135.4156  154.2673 H   0  0  0  0  0  0  0  0  0  0  0  0  # atno 10763 bound_to 10752
  153.3589  135.7002  153.6733 H   0  0  0  0  0  0  0  0  0  0  0  0  # atno 10764 bound_to 10752
  153.5642  135.3604  155.2784 H   0  0  0  0  0  0  0  0  0  0  0  0  # atno 10765 bound_to 10752
  139.9078  134.8039  156.2116 H   0  0  0  0  0  0  0  0  0  0  0  0  # atno 11005 bound_to 11000
  144.7021  140.3698  143.7147 LP  0  0  0  0  0  0  0  0  0  0  0  0  # atno 17320 bound_to 7965
  145.7074  139.1676  143.2558 LP  0  0  0  0  0  0  0  0  0  0  0  0  # atno 17321 bound_to 7965
  140.7812  143.4077  151.1043 LP  0  0  0  0  0  0  0  0  0  0  0  0  # atno 17342 bound_to 10162
  139.7737  143.8457  152.3125 LP  0  0  0  0  0  0  0  0  0  0  0  0  # atno 17343 bound_to 10162
  156.2595  130.6954  151.1718 LP  0  0  0  0  0  0  0  0  0  0  0  0  # atno 17370 bound_to 10713
  157.7316  131.0606  150.5668 LP  0  0  0  0  0  0  0  0  0  0  0  0  # atno 17371 bound_to 10713
  141.0462  133.6912  156.1687 LP  0  0  0  0  0  0  0  0  0  0  0  0  # atno 17394 bound_to 11000
  140.6881  134.4695  157.5589 LP  0  0  0  0  0  0  0  0  0  0  0  0  # atno 17395 bound_to 11000

$$$$
