AV-unprocessed.smi:1728|AV-procd|sdf|6968|dock8
  -GOLD-   22720 8183D 1   1.00000     0.00000
 Structure written by MMmdl.
 47 48  0  0  0  0  0  0  0  0  2 V2000
  151.7350  138.0321  155.0533 C   0  0  0  0  0  0  0  0  0  0  0  0
  150.3776  137.9586  154.6312 O   0  0  0  0  0  0  0  0  0  0  0  0
  149.6233  139.1168  154.6298 C   0  0  0  0  0  0  0  0  0  0  0  0
  150.2324  140.2828  154.9611 N   0  0  0  0  0  0  0  0  0  0  0  0
  149.4996  141.4149  154.9552 C   0  0  0  0  0  0  0  0  0  0  0  0
  148.1349  141.4471  154.6159 C   0  0  0  0  0  0  0  0  0  0  0  0
  147.5005  140.2392  154.2716 C   0  0  0  0  0  0  0  0  0  0  0  0
  148.2530  139.0391  154.2863 C   0  0  0  0  0  0  0  0  0  0  0  0
  147.7244  137.7637  153.9422 N   0  0  0  0  0  0  0  0  0  0  0  0
  146.5037  137.2581  154.1856 C   0  0  0  0  0  0  0  0  0  0  0  0
  145.5928  137.8377  154.7762 O   0  0  0  0  0  0  0  0  0  0  0  0
  146.4005  136.0064  153.7166 N   0  0  0  0  0  0  0  0  0  0  0  0
  145.2128  135.1580  153.8057 C   0  0  0  0  0  0  0  0  0  0  0  0
  144.4554  135.0007  152.4519 C   0  0  0  0  0  0  0  0  0  0  0  0
  142.9271  135.0410  152.7011 C   0  0  0  0  0  0  0  0  0  0  0  0
  144.7665  136.1934  151.5127 C   0  0  0  0  0  0  0  0  0  0  0  0
  144.8252  133.7108  151.7645 N   0  3  0  0  0  0  0  0  0  0  0  0
  144.1479  133.4524  150.4619 C   0  0  0  0  0  0  0  0  0  0  0  0
  144.4651  132.0347  149.9584 C   0  0  0  0  0  0  0  0  0  0  0  0
  145.8707  131.8743  149.8327 O   0  0  0  0  0  0  0  0  0  0  0  0
  146.5284  132.0259  151.0824 C   0  0  0  0  0  0  0  0  0  0  0  0
  146.2853  133.4427  151.6283 C   0  0  0  0  0  0  0  0  0  0  0  0
  152.1850  137.0411  154.9940 H   0  0  0  0  0  0  0  0  0  0  0  0
  151.8143  138.3694  156.0877 H   0  0  0  0  0  0  0  0  0  0  0  0
  152.3160  138.6981  154.4137 H   0  0  0  0  0  0  0  0  0  0  0  0
  150.0195  142.3230  155.2226 H   0  0  0  0  0  0  0  0  0  0  0  0
  147.5880  142.3782  154.6147 H   0  0  0  0  0  0  0  0  0  0  0  0
  146.4593  140.2651  153.9918 H   0  0  0  0  0  0  0  0  0  0  0  0
  148.3824  137.1358  153.5041 H   0  0  0  0  0  0  0  0  0  0  0  0
  147.2045  135.6113  153.2506 H   0  0  0  0  0  0  0  0  0  0  0  0
  145.4880  134.1867  154.2174 H   0  0  0  0  0  0  0  0  0  0  0  0
  144.5677  135.6229  154.5502 H   0  0  0  0  0  0  0  0  0  0  0  0
  142.5942  136.0325  153.0101 H   0  0  0  0  0  0  0  0  0  0  0  0
  142.6173  134.3591  153.4925 H   0  0  0  0  0  0  0  0  0  0  0  0
  142.3707  134.7847  151.7988 H   0  0  0  0  0  0  0  0  0  0  0  0
  144.3231  137.1214  151.8758 H   0  0  0  0  0  0  0  0  0  0  0  0
  144.3714  136.0251  150.5101 H   0  0  0  0  0  0  0  0  0  0  0  0
  145.8358  136.3847  151.4254 H   0  0  0  0  0  0  0  0  0  0  0  0
  143.0663  133.5378  150.5471 H   0  0  0  0  0  0  0  0  0  0  0  0
  144.4711  134.1783  149.7158 H   0  0  0  0  0  0  0  0  0  0  0  0
  144.0573  131.2806  150.6336 H   0  0  0  0  0  0  0  0  0  0  0  0
  144.0045  131.8715  148.9839 H   0  0  0  0  0  0  0  0  0  0  0  0
  146.1786  131.2706  151.7879 H   0  0  0  0  0  0  0  0  0  0  0  0
  147.5960  131.8571  150.9399 H   0  0  0  0  0  0  0  0  0  0  0  0
  146.7420  134.1682  150.9547 H   0  0  0  0  0  0  0  0  0  0  0  0
  146.7988  133.5216  152.5846 H   0  0  0  0  0  0  0  0  0  0  0  0
  144.4835  132.9889  152.3830 H   0  0  0  0  0  0  0  0  0  0  0  0
  1  2  1  0  0  0  0
  1 23  1  0  0  0  0
  1 24  1  0  0  0  0
  1 25  1  0  0  0  0
  2  3  1  0  0  0  0
  3  8  1  0  0  0  0
  3  4  2  0  0  0  0
  4  5  1  0  0  0  0
  5  6  2  0  0  0  0
  5 26  1  0  0  0  0
  6  7  1  0  0  0  0
  6 27  1  0  0  0  0
  7  8  2  0  0  0  0
  7 28  1  0  0  0  0
  8  9  1  0  0  0  0
  9 10  1  0  0  0  0
  9 29  1  0  0  0  0
 10 11  2  0  0  0  0
 10 12  1  0  0  0  0
 12 13  1  0  0  0  0
 12 30  1  0  0  0  0
 13 14  1  0  0  0  0
 13 31  1  0  0  0  0
 13 32  1  0  0  0  0
 14 15  1  0  0  0  0
 14 16  1  0  0  0  0
 14 17  1  0  0  0  0
 15 33  1  0  0  0  0
 15 34  1  0  0  0  0
 15 35  1  0  0  0  0
 16 36  1  0  0  0  0
 16 37  1  0  0  0  0
 16 38  1  0  0  0  0
 17 22  1  0  0  0  0
 17 18  1  0  0  0  0
 17 47  1  0  0  0  0
 18 19  1  0  0  0  0
 18 39  1  0  0  0  0
 18 40  1  0  0  0  0
 19 20  1  0  0  0  0
 19 41  1  0  0  0  0
 19 42  1  0  0  0  0
 20 21  1  0  0  0  0
 21 22  1  0  0  0  0
 21 43  1  0  0  0  0
 21 44  1  0  0  0  0
 22 45  1  0  0  0  0
 22 46  1  0  0  0  0
M  CHG  1  17   1
M  END
> <s_m_source_file>
AV-unprocessed.smi

> <i_m_source_file_index>
1728

> <i_lp_mmshare_version>
43012

> <i_f3d_flags>
0

> <s_epik_input>
W0NIM11PYzFuW2NIXVtjSF1bY0hdYzFbTkhdQyg9TylbTkhdW0NIMl1DKFtDSDNdKShbQ0gzXSlOMltDSDJdW0NIMl1PW0NIMl1bQ0gyXTI=

> <s_epik_cmdline>
J2VwaWtfcHl0aG9uJywgJy1waCcsICc3LjAnLCAnLXRuJywgJzgnLCAnLW1hJywgJzIwMCcsICctbWV0YWxfYmluZGluZycsICctaW1hZScsICc8aW5maWxlLm1hZT4nLCAnLW9tYWUnLCAnPG91dGZpbGUubWFlPic=

> <r_lp_tautomer_probability>
1

> <r_epik_Ionization_Penalty>
0.602608

> <r_epik_Ionization_Penalty_Charging>
0.602531

> <r_epik_Ionization_Penalty_Neutral>
7.74611e-05

> <r_epik_State_Penalty>
0.617039

> <r_epik_Charging_Adjusted_Penalty>
1.21957

> <i_epik_Tot_Q>
1

> <i_epik_Tot_abs_Q>
1

> <r_epik_Metal_State_Penalty>
0.617043

> <b_epik_Metal_Only>
0

> <s_lp_Force_Field>
OPLS_2005

> <r_lp_Energy>
27.5646

> <b_lp_Chiralities_Consistent>
1

> <s_lp_Variant>
AV-unprocessed.smi:1728-2

> <Gold.Version>
5.8.1

> <Gold.Id.Protein>
6NUR|6NUR_protein|mol2

> <Gold.PLP.Fitness>
42.5505

> <Gold.PLP.PLP>
-33.3291

> <Gold.PLP.part.hbond>
-3.0000

> <Gold.PLP.part.metal>
0.0000

> <Gold.PLP.part.buried>
-1.5222

> <Gold.PLP.part.nonpolar>
-28.3769

> <Gold.PLP.part.repulsive>
0.5924

> <Gold.PLP.ligand.clash>
0.0028

> <Gold.PLP.ligand.torsion>
1.2326

> <Gold.PLP.Chemscore.Hbond>
2.9040

> <Gold.PLP.Chemscore.CHOScore>
0.9595

> <Gold.PLP.Chemscore.Metal>
0.0000

> <Gold.Chemscore.Hbonds>
donor molecule, donor type, donor heavy atom, donor atom, acceptor molecule, acceptor atom, score
      L1  H     9    29       P1  7948  0.94
      L1  H    12    30       P1  7948  0.26
      P1  H  7989  7998       L1     4  0.69
      L1  C     5    26       P1  8028  0.57

> <Gold.PLP.Chemscore.Internal.Correction>
0.0992

> <Gold.Rescore>
     Score         DG    S(hbond)    S(metal)    S(lipo)     H(rot)  DE(clash)    DE(int)     intcor
     16.35     -18.07       2.35        0.00      78.95       1.76       0.26       1.46       ----

> <Gold.Chemscore.Fitness>
16.3521

> <Gold.Chemscore.DG>
-18.0725

> <Gold.Chemscore.ZeroCoef>
-5.4800

> <Gold.Chemscore.Hbond>
2.3517

> <Gold.Chemscore.Metal>
0.0000

> <Gold.Chemscore.Lipo>
78.9538

> <Gold.Chemscore.Internal_Hbond>
0.0000

> <Gold.Chemscore.DEClash>
0.2635

> <Gold.Chemscore.DEInternal>
1.4569

> <Gold.Chemscore.Rot>
1.7577

> <Gold.Chemscore.Internal.Correction>
   9.000000E+99

> <Gold.Chemscore.Hbonds>
donor molecule, donor type, donor heavy atom, donor atom, acceptor molecule, acceptor atom, score
      L1  H     9    29       P1  7948  0.91
      L1  H    12    30       P1  7948  0.25
      P1  H  7989  7998       L1     4  0.09

> <Gold.Chemscore.Hbond.Weighted>
-7.8546

> <Gold.Chemscore.Metal.Weighted>
-0.0000

> <Gold.Chemscore.Lipo.Weighted>
-9.2376

> <Gold.Chemscore.Internal_Hbond.Weighted>
0.0000

> <Gold.Chemscore.DEClash.Weighted>
0.2635

> <Gold.Chemscore.DEInternal.Weighted>
1.4569

> <Gold.Chemscore.Rot.Weighted>
4.4997

> <Gold.Chemscore.Internal.Correction.Weighted>
   9.000000E+99

> <Gold.Protein.RotatedTorsions>
[ 6907 6896 6895 6894 ] final   -3.69 input  -60.11 | X-H torsion
[ 7974 7965 7964 7962 ] final -155.84 input  175.53 | X-H torsion
[ 8008 7997 7996 7995 ] final  126.35 input   59.86 | X-H torsion
[ 10167 10162 10161 10158 ] final  -59.29 input  -65.29 | X-H torsion
[ 10718 10713 10712 10709 ] final -154.09 input   66.30 | X-H torsion
[ 10763 10752 10751 10750 ] final -106.70 input  -60.55 | X-H torsion
[ 11005 11000 10999 10996 ] final -147.17 input  -57.11 | X-H torsion

> <Gold.Protein.ActiveResidues>
 VAL166  LYS551  ARG553  GLY616  TRP617  ASP618  TYR619  PRO620  LYS621  CYS622 
 ASP623  PHE694  ASN695  SER759  ASP760  ASP761  ALA762  ILE779  LEU786  VAL792 
 PHE793  MET794  SER795  GLU796  ALA797  LYS798  CYS799  TRP800  GLU811  SER814 

> <Gold.Protein.RotatedAtoms>
  151.5097  135.1064  159.9850 H   0  0  0  0  0  0  0  0  0  0  0  0  # atno 6907 bound_to 6896
  152.4667  133.7934  159.6924 H   0  0  0  0  0  0  0  0  0  0  0  0  # atno 6908 bound_to 6896
  150.8654  133.7519  159.3004 H   0  0  0  0  0  0  0  0  0  0  0  0  # atno 6909 bound_to 6896
  144.7621  140.4194  143.5969 H   0  0  0  0  0  0  0  0  0  0  0  0  # atno 7974 bound_to 7965
  156.2861  140.2694  156.2097 H   0  0  0  0  0  0  0  0  0  0  0  0  # atno 8008 bound_to 7997
  155.0276  140.0386  157.2480 H   0  0  0  0  0  0  0  0  0  0  0  0  # atno 8009 bound_to 7997
  154.7381  140.2720  155.6402 H   0  0  0  0  0  0  0  0  0  0  0  0  # atno 8010 bound_to 7997
  140.6144  143.2397  151.5632 H   0  0  0  0  0  0  0  0  0  0  0  0  # atno 10167 bound_to 10162
  156.4946  130.8363  151.2584 H   0  0  0  0  0  0  0  0  0  0  0  0  # atno 10718 bound_to 10713
  154.8029  135.4702  154.0319 H   0  0  0  0  0  0  0  0  0  0  0  0  # atno 10763 bound_to 10752
  153.1811  135.6840  153.8484 H   0  0  0  0  0  0  0  0  0  0  0  0  # atno 10764 bound_to 10752
  153.8034  135.3227  155.3370 H   0  0  0  0  0  0  0  0  0  0  0  0  # atno 10765 bound_to 10752
  140.7745  134.3151  157.5065 H   0  0  0  0  0  0  0  0  0  0  0  0  # atno 11005 bound_to 11000
  145.6586  139.1577  143.2821 LP  0  0  0  0  0  0  0  0  0  0  0  0  # atno 17320 bound_to 7965
  146.1694  140.6668  142.9240 LP  0  0  0  0  0  0  0  0  0  0  0  0  # atno 17321 bound_to 7965
  139.5387  144.2709  152.1305 LP  0  0  0  0  0  0  0  0  0  0  0  0  # atno 17342 bound_to 10162
  140.1915  144.4747  150.6476 LP  0  0  0  0  0  0  0  0  0  0  0  0  # atno 17343 bound_to 10162
  157.7470  131.0002  150.2917 LP  0  0  0  0  0  0  0  0  0  0  0  0  # atno 17370 bound_to 10713
  156.3392  130.3813  149.7423 LP  0  0  0  0  0  0  0  0  0  0  0  0  # atno 17371 bound_to 10713
  139.8751  134.9281  156.3441 LP  0  0  0  0  0  0  0  0  0  0  0  0  # atno 17394 bound_to 11000
  140.9542  133.7431  156.0313 LP  0  0  0  0  0  0  0  0  0  0  0  0  # atno 17395 bound_to 11000

$$$$
