AV-unprocessed.smi:2902|AV-procd|sdf|11156|dock5
  -GOLD-   2272016 43D 1   1.00000     0.00000
 Structure written by MMmdl.
 47 48  0  0  0  0  0  0  0  0  1 V2000
  148.7046  141.0020  154.2681 C   0  0  0  0  0  0  0  0  0  0  0  0
  148.9266  141.2594  155.7635 C   0  0  0  0  0  0  0  0  0  0  0  0
  150.4132  141.4407  156.1230 C   0  0  1  0  0  0  0  0  0  0  0  0
  150.4993  141.7043  157.5227 O   0  0  0  0  0  0  0  0  0  0  0  0
  151.6652  142.3921  157.9683 C   0  0  0  0  0  0  0  0  0  0  0  0
  151.7641  142.4750  159.4947 C   0  0  0  0  0  0  0  0  0  0  0  0
  152.6123  143.7215  159.7742 C   0  0  0  0  0  0  0  0  0  0  0  0
  152.5457  144.5841  158.5041 C   0  0  0  0  0  0  0  0  0  0  0  0
  151.5934  143.8591  157.5487 C   0  0  0  0  0  0  0  0  0  0  0  0
  151.2271  140.1902  155.7583 C   0  0  0  0  0  0  0  0  0  0  0  0
  151.3305  139.8385  154.5831 O   0  0  0  0  0  0  0  0  0  0  0  0
  151.8001  139.5359  156.7816 N   0  0  0  0  0  0  0  0  0  0  0  0
  152.6615  138.3574  156.6743 C   0  0  2  0  0  0  0  0  0  0  0  0
  151.9853  137.3649  155.7138 C   0  0  0  0  0  0  0  0  0  0  0  0
  152.9324  137.7583  158.0823 C   0  0  1  0  0  0  0  0  0  0  0  0
  153.7348  136.4432  158.0374 C   0  0  0  0  0  0  0  0  0  0  0  0
  153.5980  138.7226  158.9516 N   0  0  0  0  0  0  0  0  0  0  0  0
  154.0288  138.5939  160.2084 C   0  0  0  0  0  0  0  0  0  0  0  0
  154.5444  139.7040  160.7169 N   0  0  0  0  0  0  0  0  0  0  0  0
  154.3872  140.5387  159.6469 C   0  0  0  0  0  0  0  0  0  0  0  0
  153.8232  140.0022  158.5650 N   0  0  0  0  0  0  0  0  0  0  0  0
  147.6444  140.8711  154.0506 H   0  0  0  0  0  0  0  0  0  0  0  0
  149.2247  140.1011  153.9419 H   0  0  0  0  0  0  0  0  0  0  0  0
  149.0664  141.8356  153.6657 H   0  0  0  0  0  0  0  0  0  0  0  0
  148.3591  142.1415  156.0641 H   0  0  0  0  0  0  0  0  0  0  0  0
  148.5106  140.4217  156.3260 H   0  0  0  0  0  0  0  0  0  0  0  0
  150.7978  142.2979  155.5667 H   0  0  0  0  0  0  0  0  0  0  0  0
  152.5777  141.9579  157.5545 H   0  0  0  0  0  0  0  0  0  0  0  0
  150.7680  142.6130  159.9177 H   0  0  0  0  0  0  0  0  0  0  0  0
  152.1893  141.5775  159.9437 H   0  0  0  0  0  0  0  0  0  0  0  0
  152.2427  144.2588  160.6484 H   0  0  0  0  0  0  0  0  0  0  0  0
  153.6463  143.4399  159.9775 H   0  0  0  0  0  0  0  0  0  0  0  0
  152.2081  145.5996  158.7137 H   0  0  0  0  0  0  0  0  0  0  0  0
  153.5378  144.6553  158.0562 H   0  0  0  0  0  0  0  0  0  0  0  0
  151.8525  144.0088  156.5002 H   0  0  0  0  0  0  0  0  0  0  0  0
  150.5793  144.2343  157.6952 H   0  0  0  0  0  0  0  0  0  0  0  0
  151.6463  139.8984  157.7113 H   0  0  0  0  0  0  0  0  0  0  0  0
  153.6170  138.6372  156.2270 H   0  0  0  0  0  0  0  0  0  0  0  0
  152.6280  136.5120  155.4974 H   0  0  0  0  0  0  0  0  0  0  0  0
  151.7573  137.8396  154.7588 H   0  0  0  0  0  0  0  0  0  0  0  0
  151.0503  136.9853  156.1268 H   0  0  0  0  0  0  0  0  0  0  0  0
  151.9702  137.5332  158.5449 H   0  0  0  0  0  0  0  0  0  0  0  0
  153.1738  135.6470  157.5492 H   0  0  0  0  0  0  0  0  0  0  0  0
  153.9696  136.0950  159.0437 H   0  0  0  0  0  0  0  0  0  0  0  0
  154.6759  136.5658  157.5004 H   0  0  0  0  0  0  0  0  0  0  0  0
  153.9514  137.6728  160.7672 H   0  0  0  0  0  0  0  0  0  0  0  0
  154.6960  141.5735  159.6668 H   0  0  0  0  0  0  0  0  0  0  0  0
  1  2  1  0  0  0  0
  1 22  1  0  0  0  0
  1 23  1  0  0  0  0
  1 24  1  0  0  0  0
  2  3  1  0  0  0  0
  2 25  1  0  0  0  0
  2 26  1  0  0  0  0
  3  4  1  0  0  0  0
  3 10  1  0  0  0  0
  3 27  1  0  0  0  0
  4  5  1  0  0  0  0
  5  9  1  0  0  0  0
  5  6  1  0  0  0  0
  5 28  1  0  0  0  0
  6  7  1  0  0  0  0
  6 29  1  0  0  0  0
  6 30  1  0  0  0  0
  7  8  1  0  0  0  0
  7 31  1  0  0  0  0
  7 32  1  0  0  0  0
  8  9  1  0  0  0  0
  8 33  1  0  0  0  0
  8 34  1  0  0  0  0
  9 35  1  0  0  0  0
  9 36  1  0  0  0  0
 10 11  2  0  0  0  0
 10 12  1  0  0  0  0
 12 13  1  0  0  0  0
 12 37  1  0  0  0  0
 13 14  1  0  0  0  0
 13 15  1  0  0  0  0
 13 38  1  0  0  0  0
 14 39  1  0  0  0  0
 14 40  1  0  0  0  0
 14 41  1  0  0  0  0
 15 16  1  0  0  0  0
 15 17  1  0  0  0  0
 15 42  1  0  0  0  0
 16 43  1  0  0  0  0
 16 44  1  0  0  0  0
 16 45  1  0  0  0  0
 17 21  1  0  0  0  0
 17 18  1  0  0  0  0
 18 19  2  0  0  0  0
 18 46  1  0  0  0  0
 19 20  1  0  0  0  0
 20 21  2  0  0  0  0
 20 47  1  0  0  0  0
M  END
> <s_m_source_file>
AV-unprocessed.smi

> <i_m_source_file_index>
2902

> <i_lp_mmshare_version>
43012

> <i_f3d_flags>
0

> <s_epik_input>
W0NIMl0xW0NIMl1bQ0gyXVtDSDJdW0NIXTFPW0NAQEhdKFtDSDJdW0NIM10pQyg9TylbTkhdW0NASF0oW0NIM10pW0NASF0oW0NIM10pbjJbY0hdbltjSF1uMg==

> <s_epik_cmdline>
J2VwaWtfcHl0aG9uJywgJy1waCcsICc3LjAnLCAnLXRuJywgJzgnLCAnLW1hJywgJzIwMCcsICctbWV0YWxfYmluZGluZycsICctaW1hZScsICc8aW5maWxlLm1hZT4nLCAnLW9tYWUnLCAnPG91dGZpbGUubWFlPic=

> <r_lp_tautomer_probability>
1

> <r_epik_Ionization_Penalty>
6.95617e-05

> <r_epik_Ionization_Penalty_Charging>
0

> <r_epik_Ionization_Penalty_Neutral>
6.95617e-05

> <r_epik_State_Penalty>
-0

> <r_epik_Charging_Adjusted_Penalty>
0

> <i_epik_Tot_Q>
0

> <i_epik_Tot_abs_Q>
0

> <r_epik_Metal_State_Penalty>
-0

> <b_epik_Metal_Only>
0

> <s_lp_Force_Field>
OPLS_2005

> <r_lp_Energy>
29.6491

> <b_lp_Chiralities_Consistent>
1

> <s_lp_Variant>
AV-unprocessed.smi:2902-6

> <Gold.Version>
5.8.1

> <Gold.Id.Protein>
6NUR|6NUR_protein|mol2

> <Gold.PLP.Fitness>
44.2579

> <Gold.PLP.PLP>
-39.1662

> <Gold.PLP.part.hbond>
-1.9911

> <Gold.PLP.part.metal>
0.0000

> <Gold.PLP.part.buried>
-4.7767

> <Gold.PLP.part.nonpolar>
-34.0756

> <Gold.PLP.part.repulsive>
0.2528

> <Gold.PLP.ligand.clash>
0.0000

> <Gold.PLP.ligand.torsion>
0.5533

> <Gold.PLP.Chemscore.Hbond>
1.9920

> <Gold.PLP.Chemscore.CHOScore>
0.0000

> <Gold.PLP.Chemscore.Metal>
0.0000

> <Gold.Chemscore.Hbonds>
donor molecule, donor type, donor heavy atom, donor atom, acceptor molecule, acceptor atom, score
      P1  H  7989  7998       L1    11  0.98
      P1  H  7997  8009       L1    21  1.00

> <Gold.PLP.Chemscore.Internal.Correction>
0.2223

> <Gold.Rescore>
     Score         DG    S(hbond)    S(metal)    S(lipo)     H(rot)  DE(clash)    DE(int)     intcor
     12.03     -16.82       1.91        0.00     101.32       2.69       0.19       4.60       ----

> <Gold.Chemscore.Fitness>
12.0265

> <Gold.Chemscore.DG>
-16.8166

> <Gold.Chemscore.ZeroCoef>
-5.4800

> <Gold.Chemscore.Hbond>
1.9095

> <Gold.Chemscore.Metal>
0.0000

> <Gold.Chemscore.Lipo>
101.3180

> <Gold.Chemscore.Internal_Hbond>
0.0000

> <Gold.Chemscore.DEClash>
0.1881

> <Gold.Chemscore.DEInternal>
4.6020

> <Gold.Chemscore.Rot>
2.6935

> <Gold.Chemscore.Internal.Correction>
   9.000000E+99

> <Gold.Chemscore.Hbonds>
donor molecule, donor type, donor heavy atom, donor atom, acceptor molecule, acceptor atom, score
      P1  H  7989  7998       L1    11  0.90
      P1  H  7997  8009       L1    21  0.70

> <Gold.Chemscore.Hbond.Weighted>
-6.3777

> <Gold.Chemscore.Metal.Weighted>
-0.0000

> <Gold.Chemscore.Lipo.Weighted>
-11.8542

> <Gold.Chemscore.Internal_Hbond.Weighted>
0.0000

> <Gold.Chemscore.DEClash.Weighted>
0.1881

> <Gold.Chemscore.DEInternal.Weighted>
4.6020

> <Gold.Chemscore.Rot.Weighted>
6.8954

> <Gold.Chemscore.Internal.Correction.Weighted>
   9.000000E+99

> <Gold.Protein.RotatedTorsions>
[ 6907 6896 6895 6894 ] final -125.59 input  -60.11 | X-H torsion
[ 7974 7965 7964 7962 ] final  160.67 input  175.53 | X-H torsion
[ 8008 7997 7996 7995 ] final  144.14 input   59.86 | X-H torsion
[ 10167 10162 10161 10158 ] final  115.77 input  -65.29 | X-H torsion
[ 10718 10713 10712 10709 ] final  -17.03 input   66.30 | X-H torsion
[ 10763 10752 10751 10750 ] final -113.38 input  -60.55 | X-H torsion
[ 11005 11000 10999 10996 ] final  162.07 input  -57.11 | X-H torsion

> <Gold.Protein.ActiveResidues>
 VAL166  LYS551  ARG553  GLY616  TRP617  ASP618  TYR619  PRO620  LYS621  CYS622 
 ASP623  PHE694  ASN695  SER759  ASP760  ASP761  ALA762  ILE779  LEU786  VAL792 
 PHE793  MET794  SER795  GLU796  ALA797  LYS798  CYS799  TRP800  GLU811  SER814 

> <Gold.Protein.RotatedAtoms>
  150.8882  133.7278  159.2911 H   0  0  0  0  0  0  0  0  0  0  0  0  # atno 6907 bound_to 6896
  151.4837  135.1052  159.9794 H   0  0  0  0  0  0  0  0  0  0  0  0  # atno 6908 bound_to 6896
  152.4804  133.8193  159.7100 H   0  0  0  0  0  0  0  0  0  0  0  0  # atno 6909 bound_to 6896
  144.7725  139.7789  143.6291 H   0  0  0  0  0  0  0  0  0  0  0  0  # atno 7974 bound_to 7965
  156.2915  140.2243  156.5005 H   0  0  0  0  0  0  0  0  0  0  0  0  # atno 8008 bound_to 7997
  154.7694  140.0467  157.1060 H   0  0  0  0  0  0  0  0  0  0  0  0  # atno 8009 bound_to 7997
  154.9893  140.3088  155.4916 H   0  0  0  0  0  0  0  0  0  0  0  0  # atno 8010 bound_to 7997
  139.6294  144.7113  151.2465 H   0  0  0  0  0  0  0  0  0  0  0  0  # atno 10167 bound_to 10162
  156.5793  130.4770  149.6327 H   0  0  0  0  0  0  0  0  0  0  0  0  # atno 10718 bound_to 10713
  154.8393  135.4456  154.1340 H   0  0  0  0  0  0  0  0  0  0  0  0  # atno 10763 bound_to 10752
  153.2543  135.6930  153.7652 H   0  0  0  0  0  0  0  0  0  0  0  0  # atno 10764 bound_to 10752
  153.6952  135.3381  155.3187 H   0  0  0  0  0  0  0  0  0  0  0  0  # atno 10765 bound_to 10752
  140.2221  134.8188  157.3231 H   0  0  0  0  0  0  0  0  0  0  0  0  # atno 11005 bound_to 11000
  146.1882  139.5108  142.9822 LP  0  0  0  0  0  0  0  0  0  0  0  0  # atno 17320 bound_to 7965
  145.6282  141.0309  143.1878 LP  0  0  0  0  0  0  0  0  0  0  0  0  # atno 17321 bound_to 7965
  140.7430  143.6508  150.8250 LP  0  0  0  0  0  0  0  0  0  0  0  0  # atno 17342 bound_to 10162
  140.0131  143.5621  152.2831 LP  0  0  0  0  0  0  0  0  0  0  0  0  # atno 17343 bound_to 10162
  156.2645  130.6982  151.1761 LP  0  0  0  0  0  0  0  0  0  0  0  0  # atno 17370 bound_to 10713
  157.7330  131.0594  150.5598 LP  0  0  0  0  0  0  0  0  0  0  0  0  # atno 17371 bound_to 10713
  140.1839  134.4455  155.7755 LP  0  0  0  0  0  0  0  0  0  0  0  0  # atno 17394 bound_to 11000
  141.2222  133.6996  156.7914 LP  0  0  0  0  0  0  0  0  0  0  0  0  # atno 17395 bound_to 11000

$$$$
