AV-unprocessed.smi:2151|AV-procd|sdf|8758|dock5
  -GOLD-   2272011533D 1   1.00000     0.00000
 Structure written by MMmdl.
 39 40  0  0  0  0  0  0  0  0  1 V2000
  147.6298  136.5027  158.0742 C   0  0  0  0  0  0  0  0  0  0  0  0
  148.2738  137.3917  159.1528 C   0  0  2  0  0  0  0  0  0  0  0  0
  149.5661  137.8813  158.6801 N   0  0  0  0  0  0  0  0  0  0  0  0
  149.8205  139.1317  158.2658 C   0  0  0  0  0  0  0  0  0  0  0  0
  148.9624  140.0141  158.2168 O   0  0  0  0  0  0  0  0  0  0  0  0
  151.2635  139.4100  157.8213 C   0  0  0  0  0  0  0  0  0  0  0  0
  151.9788  140.3385  158.7125 N   0  0  0  0  0  0  0  0  0  0  0  0
  151.7032  141.7117  158.5614 C   0  0  0  0  0  0  0  0  0  0  0  0
  152.2923  142.6643  159.3094 C   0  0  0  0  0  0  0  0  0  0  0  0
  151.9253  144.1336  159.1701 C   0  0  0  0  0  0  0  0  0  0  0  0
  152.3658  144.6296  158.0138 F   0  0  0  0  0  0  0  0  0  0  0  0
  150.6011  144.2746  159.2039 F   0  0  0  0  0  0  0  0  0  0  0  0
  152.4456  144.8578  160.1618 F   0  0  0  0  0  0  0  0  0  0  0  0
  153.2232  142.2054  160.3215 C   0  0  0  0  0  0  0  0  0  0  0  0
  153.4872  140.8947  160.4888 C   0  0  0  0  0  0  0  0  0  0  0  0
  152.8493  139.8718  159.6571 C   0  0  0  0  0  0  0  0  0  0  0  0
  153.0820  138.6713  159.8009 O   0  0  0  0  0  0  0  0  0  0  0  0
  148.4759  136.6397  160.4822 C   0  0  2  0  0  0  0  0  0  0  0  0
  147.9837  135.1898  160.4817 C   0  0  0  0  0  0  0  0  0  0  0  0
  147.6027  134.9264  161.9317 C   0  0  0  0  0  0  0  0  0  0  0  0
  147.6738  136.3033  162.5942 C   0  0  0  0  0  0  0  0  0  0  0  0
  147.6901  137.2210  161.5119 O   0  0  0  0  0  0  0  0  0  0  0  0
  146.6454  136.1521  158.3845 H   0  0  0  0  0  0  0  0  0  0  0  0
  148.2440  135.6268  157.8633 H   0  0  0  0  0  0  0  0  0  0  0  0
  147.4968  137.0481  157.1394 H   0  0  0  0  0  0  0  0  0  0  0  0
  147.6184  138.2446  159.3401 H   0  0  0  0  0  0  0  0  0  0  0  0
  150.3303  137.2212  158.6890 H   0  0  0  0  0  0  0  0  0  0  0  0
  151.8067  138.4660  157.7452 H   0  0  0  0  0  0  0  0  0  0  0  0
  151.2358  139.8042  156.8044 H   0  0  0  0  0  0  0  0  0  0  0  0
  150.9683  141.9402  157.8030 H   0  0  0  0  0  0  0  0  0  0  0  0
  153.7198  142.9251  160.9555 H   0  0  0  0  0  0  0  0  0  0  0  0
  154.1871  140.5894  161.2529 H   0  0  0  0  0  0  0  0  0  0  0  0
  149.5252  136.6730  160.7830 H   0  0  0  0  0  0  0  0  0  0  0  0
  147.0994  135.0879  159.8510 H   0  0  0  0  0  0  0  0  0  0  0  0
  148.7389  134.4956  160.1124 H   0  0  0  0  0  0  0  0  0  0  0  0
  146.5958  134.5118  161.9909 H   0  0  0  0  0  0  0  0  0  0  0  0
  148.2840  134.2244  162.4135 H   0  0  0  0  0  0  0  0  0  0  0  0
  146.8345  136.4921  163.2637 H   0  0  0  0  0  0  0  0  0  0  0  0
  148.5969  136.4073  163.1661 H   0  0  0  0  0  0  0  0  0  0  0  0
  1  2  1  0  0  0  0
  1 23  1  0  0  0  0
  1 24  1  0  0  0  0
  1 25  1  0  0  0  0
  2  3  1  0  0  0  0
  2 18  1  0  0  0  0
  2 26  1  0  0  0  0
  3  4  1  0  0  0  0
  3 27  1  0  0  0  0
  4  5  2  0  0  0  0
  4  6  1  0  0  0  0
  6  7  1  0  0  0  0
  6 28  1  0  0  0  0
  6 29  1  0  0  0  0
  7 16  1  0  0  0  0
  7  8  1  0  0  0  0
  8  9  2  0  0  0  0
  8 30  1  0  0  0  0
  9 10  1  0  0  0  0
  9 14  1  0  0  0  0
 10 11  1  0  0  0  0
 10 12  1  0  0  0  0
 10 13  1  0  0  0  0
 14 15  2  0  0  0  0
 14 31  1  0  0  0  0
 15 16  1  0  0  0  0
 15 32  1  0  0  0  0
 16 17  2  0  0  0  0
 18 22  1  0  0  0  0
 18 19  1  0  0  0  0
 18 33  1  0  0  0  0
 19 20  1  0  0  0  0
 19 34  1  0  0  0  0
 19 35  1  0  0  0  0
 20 21  1  0  0  0  0
 20 36  1  0  0  0  0
 20 37  1  0  0  0  0
 21 22  1  0  0  0  0
 21 38  1  0  0  0  0
 21 39  1  0  0  0  0
M  END
> <s_m_source_file>
AV-unprocessed.smi

> <i_m_source_file_index>
2151

> <i_lp_mmshare_version>
43012

> <i_f3d_flags>
0

> <s_epik_input>
TzFbQ0gyXVtDSDJdW0NIMl1bQ0BIXTFbQ0BIXShbQ0gzXSlbTkhdQyg9TylbQ0gyXW4yW2NIXWMoQyhGKShGKUYpW2NIXVtjSF1jMj1P

> <s_epik_cmdline>
J2VwaWtfcHl0aG9uJywgJy1waCcsICc3LjAnLCAnLXRuJywgJzgnLCAnLW1hJywgJzIwMCcsICctbWV0YWxfYmluZGluZycsICctaW1hZScsICc8aW5maWxlLm1hZT4nLCAnLW9tYWUnLCAnPG91dGZpbGUubWFlPic=

> <r_lp_tautomer_probability>
1

> <r_epik_Ionization_Penalty>
4.20109e-08

> <r_epik_Ionization_Penalty_Charging>
1.89977e-08

> <r_epik_Ionization_Penalty_Neutral>
2.30132e-08

> <r_epik_State_Penalty>
-0

> <r_epik_Charging_Adjusted_Penalty>
1.89977e-08

> <i_epik_Tot_Q>
0

> <i_epik_Tot_abs_Q>
0

> <r_epik_Metal_State_Penalty>
-0

> <b_epik_Metal_Only>
0

> <s_lp_Force_Field>
OPLS_2005

> <r_lp_Energy>
29.9007

> <b_lp_Chiralities_Consistent>
1

> <s_lp_Variant>
AV-unprocessed.smi:2151-1

> <Gold.Version>
5.8.1

> <Gold.Id.Protein>
6NUR|6NUR_protein|mol2

> <Gold.PLP.Fitness>
48.9024

> <Gold.PLP.PLP>
-48.5693

> <Gold.PLP.part.hbond>
-2.1618

> <Gold.PLP.part.metal>
0.0000

> <Gold.PLP.part.buried>
-6.8194

> <Gold.PLP.part.nonpolar>
-39.1091

> <Gold.PLP.part.repulsive>
0.1564

> <Gold.PLP.ligand.clash>
0.0000

> <Gold.PLP.ligand.torsion>
2.2001

> <Gold.PLP.Chemscore.Hbond>
1.5406

> <Gold.PLP.Chemscore.CHOScore>
0.0000

> <Gold.PLP.Chemscore.Metal>
0.0000

> <Gold.Chemscore.Hbonds>
donor molecule, donor type, donor heavy atom, donor atom, acceptor molecule, acceptor atom, score
      P1  H  6931  6943       L1    22  0.45
      P1  H  6934  6947       L1    22  0.77

> <Gold.PLP.Chemscore.Internal.Correction>
0.1116

> <Gold.Rescore>
     Score         DG    S(hbond)    S(metal)    S(lipo)     H(rot)  DE(clash)    DE(int)     intcor
     11.66     -13.54       0.91        0.00      82.78       1.82       0.02       1.87       ----

> <Gold.Chemscore.Fitness>
11.6557

> <Gold.Chemscore.DG>
-13.5448

> <Gold.Chemscore.ZeroCoef>
-5.4800

> <Gold.Chemscore.Hbond>
0.9121

> <Gold.Chemscore.Metal>
0.0000

> <Gold.Chemscore.Lipo>
82.7778

> <Gold.Chemscore.Internal_Hbond>
0.0000

> <Gold.Chemscore.DEClash>
0.0155

> <Gold.Chemscore.DEInternal>
1.8736

> <Gold.Chemscore.Rot>
1.8228

> <Gold.Chemscore.Internal.Correction>
   9.000000E+99

> <Gold.Chemscore.Hbonds>
donor molecule, donor type, donor heavy atom, donor atom, acceptor molecule, acceptor atom, score
      P1  H  6931  6943       L1    22  0.01
      P1  H  6934  6947       L1    22  0.49

> <Gold.Chemscore.Hbond.Weighted>
-3.0463

> <Gold.Chemscore.Metal.Weighted>
-0.0000

> <Gold.Chemscore.Lipo.Weighted>
-9.6850

> <Gold.Chemscore.Internal_Hbond.Weighted>
0.0000

> <Gold.Chemscore.DEClash.Weighted>
0.0155

> <Gold.Chemscore.DEInternal.Weighted>
1.8736

> <Gold.Chemscore.Rot.Weighted>
4.6665

> <Gold.Chemscore.Internal.Correction.Weighted>
   9.000000E+99

> <Gold.Protein.RotatedTorsions>
[ 6907 6896 6895 6894 ] final  101.60 input  -60.11 | X-H torsion
[ 7974 7965 7964 7962 ] final  155.97 input  175.53 | X-H torsion
[ 8008 7997 7996 7995 ] final   17.80 input   59.86 | X-H torsion
[ 10167 10162 10161 10158 ] final  -42.68 input  -65.29 | X-H torsion
[ 10718 10713 10712 10709 ] final -127.24 input   66.30 | X-H torsion
[ 10763 10752 10751 10750 ] final  -53.23 input  -60.55 | X-H torsion
[ 11005 11000 10999 10996 ] final  109.03 input  -57.11 | X-H torsion

> <Gold.Protein.ActiveResidues>
 VAL166  LYS551  ARG553  GLY616  TRP617  ASP618  TYR619  PRO620  LYS621  CYS622 
 ASP623  PHE694  ASN695  SER759  ASP760  ASP761  ALA762  ILE779  LEU786  VAL792 
 PHE793  MET794  SER795  GLU796  ALA797  LYS798  CYS799  TRP800  GLU811  SER814 

> <Gold.Protein.RotatedAtoms>
  152.5345  134.0101  159.7934 H   0  0  0  0  0  0  0  0  0  0  0  0  # atno 6907 bound_to 6896
  151.0305  133.5787  159.2668 H   0  0  0  0  0  0  0  0  0  0  0  0  # atno 6908 bound_to 6896
  151.2793  135.0716  159.9217 H   0  0  0  0  0  0  0  0  0  0  0  0  # atno 6909 bound_to 6896
  144.7992  139.7140  143.6189 H   0  0  0  0  0  0  0  0  0  0  0  0  # atno 7974 bound_to 7965
  154.8966  140.2994  155.5341 H   0  0  0  0  0  0  0  0  0  0  0  0  # atno 8008 bound_to 7997
  156.3019  140.2414  156.3923 H   0  0  0  0  0  0  0  0  0  0  0  0  # atno 8009 bound_to 7997
  154.8564  140.0407  157.1626 H   0  0  0  0  0  0  0  0  0  0  0  0  # atno 8010 bound_to 7997
  140.6961  143.3024  151.3244 H   0  0  0  0  0  0  0  0  0  0  0  0  # atno 10167 bound_to 10162
  156.1839  130.6750  151.0340 H   0  0  0  0  0  0  0  0  0  0  0  0  # atno 10718 bound_to 10713
  154.1554  135.6483  153.4973 H   0  0  0  0  0  0  0  0  0  0  0  0  # atno 10763 bound_to 10752
  153.0125  135.5348  154.6765 H   0  0  0  0  0  0  0  0  0  0  0  0  # atno 10764 bound_to 10752
  154.6064  135.2949  155.0451 H   0  0  0  0  0  0  0  0  0  0  0  0  # atno 10765 bound_to 10752
  139.8854  134.9447  156.6062 H   0  0  0  0  0  0  0  0  0  0  0  0  # atno 11005 bound_to 11000
  146.2268  139.5738  142.9581 LP  0  0  0  0  0  0  0  0  0  0  0  0  # atno 17320 bound_to 7965
  145.5597  141.0405  143.2233 LP  0  0  0  0  0  0  0  0  0  0  0  0  # atno 17321 bound_to 7965
  139.6417  144.0526  152.2560 LP  0  0  0  0  0  0  0  0  0  0  0  0  # atno 17342 bound_to 10162
  140.0034  144.6277  150.7710 LP  0  0  0  0  0  0  0  0  0  0  0  0  # atno 17343 bound_to 10162
  157.6886  131.0817  150.7172 LP  0  0  0  0  0  0  0  0  0  0  0  0  # atno 17370 bound_to 10713
  156.7229  130.4686  149.5518 LP  0  0  0  0  0  0  0  0  0  0  0  0  # atno 17371 bound_to 10713
  140.7846  133.8632  155.8595 LP  0  0  0  0  0  0  0  0  0  0  0  0  # atno 17394 bound_to 11000
  140.9731  134.1505  157.4559 LP  0  0  0  0  0  0  0  0  0  0  0  0  # atno 17395 bound_to 11000

$$$$
