AV-unprocessed.smi:1717|AV-procd|sdf|6917|dock2
  -GOLD-   22720 8123D 1   1.00000     0.00000
 Structure written by MMmdl.
 40 41  0  0  0  0  0  0  0  0  1 V2000
  144.9929  144.3266  153.6154 C   0  0  0  0  0  0  0  0  0  0  0  0
  146.1789  143.4891  153.5299 N   0  0  0  0  0  0  0  0  0  0  0  0
  146.3659  142.3687  154.2424 C   0  0  0  0  0  0  0  0  0  0  0  0
  145.5471  141.9370  155.0536 O   0  0  0  0  0  0  0  0  0  0  0  0
  147.6838  141.6213  154.0093 C   0  0  0  0  0  0  0  0  0  0  0  0
  147.5321  140.2642  153.4351 N   0  0  0  0  0  0  0  0  0  0  0  0
  146.8883  140.2816  152.1129 C   0  0  0  0  0  0  0  0  0  0  0  0
  146.8207  138.8608  151.5253 C   0  0  0  0  0  0  0  0  0  0  0  0
  146.0674  137.9030  152.4631 C   0  0  0  0  0  0  0  0  0  0  0  0
  146.1244  136.5317  151.9652 N   0  0  0  0  0  0  0  0  0  0  0  0
  145.0593  135.7693  151.6791 C   0  0  0  0  0  0  0  0  0  0  0  0
  143.8952  136.1513  151.8022 O   0  0  0  0  0  0  0  0  0  0  0  0
  145.4317  134.5535  151.2466 N   0  0  0  0  0  0  0  0  0  0  0  0
  144.5876  133.4808  150.8633 C   0  0  0  0  0  0  0  0  0  0  0  0
  144.9988  132.3657  150.0842 C   0  0  0  0  0  0  0  0  0  0  0  0
  143.9984  131.5199  149.8836 N   0  0  0  0  0  0  0  0  0  0  0  0
  142.9520  132.0851  150.5266 N   0  0  0  0  0  0  0  0  0  0  0  0
  143.2638  133.2799  151.1371 C   0  0  0  0  0  0  0  0  0  0  0  0
  146.6959  137.9784  153.8613 C   0  0  0  0  0  0  0  0  0  0  0  0
  146.7593  139.4317  154.3628 C   0  0  0  0  0  0  0  0  0  0  0  0
  142.0414  131.6478  150.5408 H   0  0  0  0  0  0  0  0  0  0  0  0
  145.1120  145.2054  152.9820 H   0  0  0  0  0  0  0  0  0  0  0  0
  144.8264  144.6645  154.6392 H   0  0  0  0  0  0  0  0  0  0  0  0
  144.1101  143.7812  153.2800 H   0  0  0  0  0  0  0  0  0  0  0  0
  146.9010  143.7710  152.8823 H   0  0  0  0  0  0  0  0  0  0  0  0
  148.2876  142.2347  153.3387 H   0  0  0  0  0  0  0  0  0  0  0  0
  148.2315  141.5632  154.9518 H   0  0  0  0  0  0  0  0  0  0  0  0
  145.8865  140.7080  152.1880 H   0  0  0  0  0  0  0  0  0  0  0  0
  147.4448  140.9075  151.4155 H   0  0  0  0  0  0  0  0  0  0  0  0
  146.3335  138.8921  150.5500 H   0  0  0  0  0  0  0  0  0  0  0  0
  147.8335  138.4933  151.3522 H   0  0  0  0  0  0  0  0  0  0  0  0
  145.0248  138.2185  152.5365 H   0  0  0  0  0  0  0  0  0  0  0  0
  147.0429  136.1351  151.8313 H   0  0  0  0  0  0  0  0  0  0  0  0
  146.4235  134.3730  151.1924 H   0  0  0  0  0  0  0  0  0  0  0  0
  145.9707  132.1454  149.6676 H   0  0  0  0  0  0  0  0  0  0  0  0
  142.5357  133.8536  151.6911 H   0  0  0  0  0  0  0  0  0  0  0  0
  146.1209  137.3722  154.5623 H   0  0  0  0  0  0  0  0  0  0  0  0
  147.7029  137.5585  153.8423 H   0  0  0  0  0  0  0  0  0  0  0  0
  147.2283  139.4424  155.3477 H   0  0  0  0  0  0  0  0  0  0  0  0
  145.7520  139.8338  154.4871 H   0  0  0  0  0  0  0  0  0  0  0  0
  1  2  1  0  0  0  0
  1 22  1  0  0  0  0
  1 23  1  0  0  0  0
  1 24  1  0  0  0  0
  2  3  1  0  0  0  0
  2 25  1  0  0  0  0
  3  4  2  0  0  0  0
  3  5  1  0  0  0  0
  5  6  1  0  0  0  0
  5 26  1  0  0  0  0
  5 27  1  0  0  0  0
  6 20  1  0  0  0  0
  6  7  1  0  0  0  0
  7  8  1  0  0  0  0
  7 28  1  0  0  0  0
  7 29  1  0  0  0  0
  8  9  1  0  0  0  0
  8 30  1  0  0  0  0
  8 31  1  0  0  0  0
  9 10  1  0  0  0  0
  9 19  1  0  0  0  0
  9 32  1  0  0  0  0
 10 11  1  0  0  0  0
 10 33  1  0  0  0  0
 11 12  2  0  0  0  0
 11 13  1  0  0  0  0
 13 14  1  0  0  0  0
 13 34  1  0  0  0  0
 14 18  2  0  0  0  0
 14 15  1  0  0  0  0
 15 16  2  0  0  0  0
 15 35  1  0  0  0  0
 16 17  1  0  0  0  0
 17 21  1  0  0  0  0
 17 18  1  0  0  0  0
 18 36  1  0  0  0  0
 19 20  1  0  0  0  0
 19 37  1  0  0  0  0
 19 38  1  0  0  0  0
 20 39  1  0  0  0  0
 20 40  1  0  0  0  0
M  END
> <s_m_source_file>
AV-unprocessed.smi

> <i_m_source_file_index>
1717

> <i_lp_mmshare_version>
43012

> <i_f3d_flags>
0

> <s_epik_input>
W0NIM11bTkhdQyg9TylbQ0gyXU4xW0NIMl1bQ0gyXVtDSF0oW0NIMl1bQ0gyXTEpW05IXUMoPU8pW05IXWMyW2NIXW5bbkhdW2NIXTI=

> <s_epik_cmdline>
J2VwaWtfcHl0aG9uJywgJy1waCcsICc3LjAnLCAnLXRuJywgJzgnLCAnLW1hJywgJzIwMCcsICctbWV0YWxfYmluZGluZycsICctaW1hZScsICc8aW5maWxlLm1hZT4nLCAnLW9tYWUnLCAnPG91dGZpbGUubWFlPic=

> <r_lp_tautomer_probability>
0.5

> <r_epik_Ionization_Penalty>
0.164786

> <r_epik_Ionization_Penalty_Charging>
0

> <r_epik_Ionization_Penalty_Neutral>
0.164786

> <r_epik_State_Penalty>
0.154069

> <r_epik_Charging_Adjusted_Penalty>
0.154069

> <i_epik_Tot_Q>
0

> <i_epik_Tot_abs_Q>
0

> <r_epik_Metal_State_Penalty>
0.158586

> <b_epik_Metal_Only>
0

> <s_lp_Force_Field>
OPLS_2005

> <r_lp_Energy>
16.0226

> <b_lp_Chiralities_Consistent>
1

> <s_lp_Variant>
AV-unprocessed.smi:1717-1

> <Gold.Version>
5.8.1

> <Gold.Id.Protein>
6NUR|6NUR_protein|mol2

> <Gold.PLP.Fitness>
40.4128

> <Gold.PLP.PLP>
-31.5604

> <Gold.PLP.part.hbond>
-4.0000

> <Gold.PLP.part.metal>
0.0000

> <Gold.PLP.part.buried>
-0.6592

> <Gold.PLP.part.nonpolar>
-28.8711

> <Gold.PLP.part.repulsive>
1.6349

> <Gold.PLP.ligand.clash>
0.0000

> <Gold.PLP.ligand.torsion>
0.0965

> <Gold.PLP.Chemscore.Hbond>
2.7200

> <Gold.PLP.Chemscore.CHOScore>
0.2893

> <Gold.PLP.Chemscore.Metal>
0.0000

> <Gold.Chemscore.Hbonds>
donor molecule, donor type, donor heavy atom, donor atom, acceptor molecule, acceptor atom, score
      L1  H    10    33       P1  7948  1.00
      L1  H    17    21       P1 10952  0.91
      P1  H 10785 10796       L1    16  0.70
      L1  C    18    36       P1 10186  0.18

> <Gold.PLP.Chemscore.Internal.Correction>
0.0174

> <Gold.Rescore>
     Score         DG    S(hbond)    S(metal)    S(lipo)     H(rot)  DE(clash)    DE(int)     intcor
     12.00     -16.10       1.99        0.00      73.10       1.79       2.08       2.03       ----

> <Gold.Chemscore.Fitness>
12.0001

> <Gold.Chemscore.DG>
-16.1040

> <Gold.Chemscore.ZeroCoef>
-5.4800

> <Gold.Chemscore.Hbond>
1.9886

> <Gold.Chemscore.Metal>
0.0000

> <Gold.Chemscore.Lipo>
73.0985

> <Gold.Chemscore.Internal_Hbond>
0.0000

> <Gold.Chemscore.DEClash>
2.0768

> <Gold.Chemscore.DEInternal>
2.0271

> <Gold.Chemscore.Rot>
1.7854

> <Gold.Chemscore.Internal.Correction>
   9.000000E+99

> <Gold.Chemscore.Hbonds>
donor molecule, donor type, donor heavy atom, donor atom, acceptor molecule, acceptor atom, score
      L1  H    10    33       P1  7948  0.97
      L1  H    17    21       P1 10952  0.21
      P1  H 10785 10796       L1    16  0.35

> <Gold.Chemscore.Hbond.Weighted>
-6.6421

> <Gold.Chemscore.Metal.Weighted>
-0.0000

> <Gold.Chemscore.Lipo.Weighted>
-8.5525

> <Gold.Chemscore.Internal_Hbond.Weighted>
0.0000

> <Gold.Chemscore.DEClash.Weighted>
2.0768

> <Gold.Chemscore.DEInternal.Weighted>
2.0271

> <Gold.Chemscore.Rot.Weighted>
4.5706

> <Gold.Chemscore.Internal.Correction.Weighted>
   9.000000E+99

> <Gold.Protein.RotatedTorsions>
[ 6907 6896 6895 6894 ] final   11.62 input  -60.11 | X-H torsion
[ 7974 7965 7964 7962 ] final  -84.46 input  175.53 | X-H torsion
[ 8008 7997 7996 7995 ] final  -64.52 input   59.86 | X-H torsion
[ 10167 10162 10161 10158 ] final  -55.27 input  -65.29 | X-H torsion
[ 10718 10713 10712 10709 ] final   46.78 input   66.30 | X-H torsion
[ 10763 10752 10751 10750 ] final   91.42 input  -60.55 | X-H torsion
[ 11005 11000 10999 10996 ] final  134.79 input  -57.11 | X-H torsion

> <Gold.Protein.ActiveResidues>
 VAL166  LYS551  ARG553  GLY616  TRP617  ASP618  TYR619  PRO620  LYS621  CYS622 
 ASP623  PHE694  ASN695  SER759  ASP760  ASP761  ALA762  ILE779  LEU786  VAL792 
 PHE793  MET794  SER795  GLU796  ALA797  LYS798  CYS799  TRP800  GLU811  SER814 

> <Gold.Protein.RotatedAtoms>
  151.7572  135.0818  160.0339 H   0  0  0  0  0  0  0  0  0  0  0  0  # atno 6907 bound_to 6896
  152.3377  133.6026  159.5863 H   0  0  0  0  0  0  0  0  0  0  0  0  # atno 6908 bound_to 6896
  150.7460  133.9686  159.3580 H   0  0  0  0  0  0  0  0  0  0  0  0  # atno 6909 bound_to 6896
  145.5063  140.9543  143.1732 H   0  0  0  0  0  0  0  0  0  0  0  0  # atno 7974 bound_to 7965
  154.4617  140.0952  156.6910 H   0  0  0  0  0  0  0  0  0  0  0  0  # atno 8008 bound_to 7997
  155.4976  140.3472  155.4347 H   0  0  0  0  0  0  0  0  0  0  0  0  # atno 8009 bound_to 7997
  156.0882  140.1390  156.9615 H   0  0  0  0  0  0  0  0  0  0  0  0  # atno 8010 bound_to 7997
  140.6384  143.2494  151.5056 H   0  0  0  0  0  0  0  0  0  0  0  0  # atno 10167 bound_to 10162
  157.4517  130.8142  149.7795 H   0  0  0  0  0  0  0  0  0  0  0  0  # atno 10718 bound_to 10713
  153.2081  135.4398  155.0347 H   0  0  0  0  0  0  0  0  0  0  0  0  # atno 10763 bound_to 10752
  154.8185  135.3326  154.7110 H   0  0  0  0  0  0  0  0  0  0  0  0  # atno 10764 bound_to 10752
  153.7550  135.6995  153.4993 H   0  0  0  0  0  0  0  0  0  0  0  0  # atno 10765 bound_to 10752
  139.9938  134.9505  156.9916 H   0  0  0  0  0  0  0  0  0  0  0  0  # atno 11005 bound_to 11000
  144.7752  139.6646  143.7178 LP  0  0  0  0  0  0  0  0  0  0  0  0  # atno 17320 bound_to 7965
  146.2194  139.5608  142.9628 LP  0  0  0  0  0  0  0  0  0  0  0  0  # atno 17321 bound_to 7965
  139.5593  144.2195  152.1665 LP  0  0  0  0  0  0  0  0  0  0  0  0  # atno 17342 bound_to 10162
  140.1458  144.5160  150.6716 LP  0  0  0  0  0  0  0  0  0  0  0  0  # atno 17343 bound_to 10162
  155.9990  130.3891  150.2682 LP  0  0  0  0  0  0  0  0  0  0  0  0  # atno 17370 bound_to 10713
  157.0854  131.0155  151.3141 LP  0  0  0  0  0  0  0  0  0  0  0  0  # atno 17371 bound_to 10713
  140.4858  134.1243  155.7224 LP  0  0  0  0  0  0  0  0  0  0  0  0  # atno 17394 bound_to 11000
  141.1587  133.8833  157.1907 LP  0  0  0  0  0  0  0  0  0  0  0  0  # atno 17395 bound_to 11000

$$$$
