AV-unprocessed.smi:1762|AV-procd|sdf|7103|dock10
  -GOLD-   22720 8323D 1   1.00000     0.00000
 Structure written by MMmdl.
 52 53  0  0  0  0  0  0  0  0  1 V2000
  152.1820  139.2980  156.9652 C   0  0  0  0  0  0  0  0  0  0  0  0
  152.0317  139.0680  155.4509 C   0  0  1  0  0  0  0  0  0  0  0  0
  151.3430  137.7340  155.0998 C   0  0  0  0  0  0  0  0  0  0  0  0
  149.8985  137.7346  155.3634 N   0  0  0  0  0  0  0  0  0  0  0  0
  149.2478  136.4314  155.0479 C   0  0  2  0  0  0  0  0  0  0  0  0
  147.7020  136.5080  155.0347 C   0  0  0  0  0  0  0  0  0  0  0  0
  147.0805  136.7403  156.0724 O   0  0  0  0  0  0  0  0  0  0  0  0
  147.0998  136.3341  153.8475 N   0  0  0  0  0  0  0  0  0  0  0  0
  145.6595  136.4005  153.6214 C   0  0  0  0  0  0  0  0  0  0  0  0
  145.2837  136.3509  152.1272 C   0  0  0  0  0  0  0  0  0  0  0  0
  144.8935  134.9641  151.6424 C   0  0  0  0  0  0  0  0  0  0  0  0
  145.8134  134.1729  150.9217 C   0  0  0  0  0  0  0  0  0  0  0  0
  145.4015  132.9018  150.4765 C   0  0  0  0  0  0  0  0  0  0  0  0
  144.0920  132.4724  150.7665 C   0  0  0  0  0  0  0  0  0  0  0  0
  143.2492  133.3374  151.4917 C   0  0  0  0  0  0  0  0  0  0  0  0
  143.6346  134.5576  151.9224 N   0  0  0  0  0  0  0  0  0  0  0  0
  149.7330  135.2238  155.9189 C   0  0  0  0  0  0  0  0  0  0  0  0
  149.4394  133.8484  155.2858 C   0  0  0  0  0  0  0  0  0  0  0  0
  149.2279  135.2635  157.3748 C   0  0  0  0  0  0  0  0  0  0  0  0
  149.3019  138.8909  154.6757 C   0  0  0  0  0  0  0  0  0  0  0  0
  149.9658  140.2253  155.0597 C   0  0  2  0  0  0  0  0  0  0  0  0
  149.4038  141.4021  154.2540 C   0  0  0  0  0  0  0  0  0  0  0  0
  151.3659  140.1544  154.8117 O   0  0  0  0  0  0  0  0  0  0  0  0
  152.7992  138.5209  157.4165 H   0  0  0  0  0  0  0  0  0  0  0  0
  151.2215  139.2872  157.4802 H   0  0  0  0  0  0  0  0  0  0  0  0
  152.6599  140.2566  157.1673 H   0  0  0  0  0  0  0  0  0  0  0  0
  153.0390  139.0433  155.0342 H   0  0  0  0  0  0  0  0  0  0  0  0
  151.5202  137.5105  154.0465 H   0  0  0  0  0  0  0  0  0  0  0  0
  151.8477  136.9560  155.6688 H   0  0  0  0  0  0  0  0  0  0  0  0
  149.5336  136.1851  154.0229 H   0  0  0  0  0  0  0  0  0  0  0  0
  147.6820  136.1578  153.0417 H   0  0  0  0  0  0  0  0  0  0  0  0
  145.2018  135.5574  154.1395 H   0  0  0  0  0  0  0  0  0  0  0  0
  145.2492  137.3004  154.0822 H   0  0  0  0  0  0  0  0  0  0  0  0
  144.4555  137.0346  151.9378 H   0  0  0  0  0  0  0  0  0  0  0  0
  146.1164  136.7173  151.5248 H   0  0  0  0  0  0  0  0  0  0  0  0
  146.8099  134.5320  150.7109 H   0  0  0  0  0  0  0  0  0  0  0  0
  146.0772  132.2684  149.9210 H   0  0  0  0  0  0  0  0  0  0  0  0
  143.7419  131.5040  150.4408 H   0  0  0  0  0  0  0  0  0  0  0  0
  142.2380  133.0431  151.7308 H   0  0  0  0  0  0  0  0  0  0  0  0
  150.8202  135.2613  155.9603 H   0  0  0  0  0  0  0  0  0  0  0  0
  148.3737  133.6187  155.2755 H   0  0  0  0  0  0  0  0  0  0  0  0
  149.9347  133.0519  155.8419 H   0  0  0  0  0  0  0  0  0  0  0  0
  149.8030  133.8023  154.2591 H   0  0  0  0  0  0  0  0  0  0  0  0
  148.1485  135.1272  157.4353 H   0  0  0  0  0  0  0  0  0  0  0  0
  149.4722  136.2093  157.8586 H   0  0  0  0  0  0  0  0  0  0  0  0
  149.6880  134.4714  157.9661 H   0  0  0  0  0  0  0  0  0  0  0  0
  149.3663  138.7471  153.5957 H   0  0  0  0  0  0  0  0  0  0  0  0
  148.2446  138.9946  154.9158 H   0  0  0  0  0  0  0  0  0  0  0  0
  149.7926  140.4245  156.1174 H   0  0  0  0  0  0  0  0  0  0  0  0
  148.3280  141.5005  154.4010 H   0  0  0  0  0  0  0  0  0  0  0  0
  149.5857  141.2724  153.1870 H   0  0  0  0  0  0  0  0  0  0  0  0
  149.8686  142.3401  154.5586 H   0  0  0  0  0  0  0  0  0  0  0  0
  1  2  1  0  0  0  0
  1 24  1  0  0  0  0
  1 25  1  0  0  0  0
  1 26  1  0  0  0  0
  2 23  1  0  0  0  0
  2  3  1  0  0  0  0
  2 27  1  0  0  0  0
  3  4  1  0  0  0  0
  3 28  1  0  0  0  0
  3 29  1  0  0  0  0
  4  5  1  0  0  0  0
  4 20  1  0  0  0  0
  5  6  1  0  0  0  0
  5 17  1  0  0  0  0
  5 30  1  0  0  0  0
  6  7  2  0  0  0  0
  6  8  1  0  0  0  0
  8  9  1  0  0  0  0
  8 31  1  0  0  0  0
  9 10  1  0  0  0  0
  9 32  1  0  0  0  0
  9 33  1  0  0  0  0
 10 11  1  0  0  0  0
 10 34  1  0  0  0  0
 10 35  1  0  0  0  0
 11 16  1  0  0  0  0
 11 12  2  0  0  0  0
 12 13  1  0  0  0  0
 12 36  1  0  0  0  0
 13 14  2  0  0  0  0
 13 37  1  0  0  0  0
 14 15  1  0  0  0  0
 14 38  1  0  0  0  0
 15 16  2  0  0  0  0
 15 39  1  0  0  0  0
 17 18  1  0  0  0  0
 17 19  1  0  0  0  0
 17 40  1  0  0  0  0
 18 41  1  0  0  0  0
 18 42  1  0  0  0  0
 18 43  1  0  0  0  0
 19 44  1  0  0  0  0
 19 45  1  0  0  0  0
 19 46  1  0  0  0  0
 20 21  1  0  0  0  0
 20 47  1  0  0  0  0
 20 48  1  0  0  0  0
 21 22  1  0  0  0  0
 21 23  1  0  0  0  0
 21 49  1  0  0  0  0
 22 50  1  0  0  0  0
 22 51  1  0  0  0  0
 22 52  1  0  0  0  0
M  END
> <s_m_source_file>
AV-unprocessed.smi

> <i_m_source_file_index>
1762

> <i_lp_mmshare_version>
43012

> <i_f3d_flags>
0

> <s_epik_input>
W0NIM11bQ0BASF0xW0NIMl1OKFtDSDJdW0NASF0oTzEpW0NIM10pW0NAQEhdKFtDSF0oW0NIM10pW0NIM10pQyg9TylbTkhdW0NIMl1bQ0gyXWMyW2NIXVtjSF1bY0hdW2NIXW4y

> <s_epik_cmdline>
J2VwaWtfcHl0aG9uJywgJy1waCcsICc3LjAnLCAnLXRuJywgJzgnLCAnLW1hJywgJzIwMCcsICctbWV0YWxfYmluZGluZycsICctaW1hZScsICc8aW5maWxlLm1hZT4nLCAnLW9tYWUnLCAnPG91dGZpbGUubWFlPic=

> <r_epik_Ionization_Penalty>
0.0399736

> <r_epik_Ionization_Penalty_Charging>
0

> <r_epik_Ionization_Penalty_Neutral>
0.0399736

> <r_epik_State_Penalty>
0.0317634

> <r_epik_Charging_Adjusted_Penalty>
0.0317634

> <i_epik_Tot_Q>
0

> <i_epik_Tot_abs_Q>
0

> <r_epik_Metal_State_Penalty>
0.0307795

> <b_epik_Metal_Only>
0

> <s_lp_Force_Field>
OPLS_2005

> <r_lp_Energy>
29.7417

> <b_lp_Chiralities_Consistent>
1

> <s_lp_Variant>
AV-unprocessed.smi:1762-5

> <Gold.Version>
5.8.1

> <Gold.Id.Protein>
6NUR|6NUR_protein|mol2

> <Gold.PLP.Fitness>
42.0234

> <Gold.PLP.PLP>
-37.5455

> <Gold.PLP.part.hbond>
-1.9275

> <Gold.PLP.part.metal>
0.0000

> <Gold.PLP.part.buried>
-4.2126

> <Gold.PLP.part.nonpolar>
-31.4476

> <Gold.PLP.part.repulsive>
0.3162

> <Gold.PLP.ligand.clash>
0.0000

> <Gold.PLP.ligand.torsion>
0.9021

> <Gold.PLP.Chemscore.Hbond>
2.0000

> <Gold.PLP.Chemscore.CHOScore>
0.0000

> <Gold.PLP.Chemscore.Metal>
0.0000

> <Gold.Chemscore.Hbonds>
donor molecule, donor type, donor heavy atom, donor atom, acceptor molecule, acceptor atom, score
      L1  H     8    31       P1  7948  1.00
      P1  H  7989  7998       L1    23  0.96
      L1  C    15    39       P1 10186  0.08

> <Gold.PLP.Chemscore.Internal.Correction>
0.2821

> <Gold.Rescore>
     Score         DG    S(hbond)    S(metal)    S(lipo)     H(rot)  DE(clash)    DE(int)     intcor
     17.15     -19.22       1.89        0.00      98.42       1.60       0.01       2.06       ----

> <Gold.Chemscore.Fitness>
17.1543

> <Gold.Chemscore.DG>
-19.2249

> <Gold.Chemscore.ZeroCoef>
-5.4800

> <Gold.Chemscore.Hbond>
1.8934

> <Gold.Chemscore.Metal>
0.0000

> <Gold.Chemscore.Lipo>
98.4185

> <Gold.Chemscore.Internal_Hbond>
0.0000

> <Gold.Chemscore.DEClash>
0.0149

> <Gold.Chemscore.DEInternal>
2.0558

> <Gold.Chemscore.Rot>
1.5993

> <Gold.Chemscore.Internal.Correction>
   9.000000E+99

> <Gold.Chemscore.Hbonds>
donor molecule, donor type, donor heavy atom, donor atom, acceptor molecule, acceptor atom, score
      L1  H     8    31       P1  7948  1.00
      P1  H  7989  7998       L1    23  0.59

> <Gold.Chemscore.Hbond.Weighted>
-6.3240

> <Gold.Chemscore.Metal.Weighted>
-0.0000

> <Gold.Chemscore.Lipo.Weighted>
-11.5150

> <Gold.Chemscore.Internal_Hbond.Weighted>
0.0000

> <Gold.Chemscore.DEClash.Weighted>
0.0149

> <Gold.Chemscore.DEInternal.Weighted>
2.0558

> <Gold.Chemscore.Rot.Weighted>
4.0941

> <Gold.Chemscore.Internal.Correction.Weighted>
   9.000000E+99

> <Gold.Protein.RotatedTorsions>
[ 6907 6896 6895 6894 ] final  -73.31 input  -60.11 | X-H torsion
[ 7974 7965 7964 7962 ] final   26.86 input  175.53 | X-H torsion
[ 8008 7997 7996 7995 ] final -169.02 input   59.86 | X-H torsion
[ 10167 10162 10161 10158 ] final   84.92 input  -65.29 | X-H torsion
[ 10718 10713 10712 10709 ] final  104.73 input   66.30 | X-H torsion
[ 10763 10752 10751 10750 ] final  -82.28 input  -60.55 | X-H torsion
[ 11005 11000 10999 10996 ] final   55.80 input  -57.11 | X-H torsion

> <Gold.Protein.ActiveResidues>
 VAL166  LYS551  ARG553  GLY616  TRP617  ASP618  TYR619  PRO620  LYS621  CYS622 
 ASP623  PHE694  ASN695  SER759  ASP760  ASP761  ALA762  ILE779  LEU786  VAL792 
 PHE793  MET794  SER795  GLU796  ALA797  LYS798  CYS799  TRP800  GLU811  SER814 

> <Gold.Protein.RotatedAtoms>
  150.7135  134.5035  159.5572 H   0  0  0  0  0  0  0  0  0  0  0  0  # atno 6907 bound_to 6896
  152.2627  134.8014  160.0437 H   0  0  0  0  0  0  0  0  0  0  0  0  # atno 6908 bound_to 6896
  151.8722  133.3443  159.3775 H   0  0  0  0  0  0  0  0  0  0  0  0  # atno 6909 bound_to 6896
  146.1815  139.7271  142.8897 H   0  0  0  0  0  0  0  0  0  0  0  0  # atno 7974 bound_to 7965
  155.8993  140.1038  157.1362 H   0  0  0  0  0  0  0  0  0  0  0  0  # atno 8008 bound_to 7997
  154.4024  140.1295  156.4479 H   0  0  0  0  0  0  0  0  0  0  0  0  # atno 8009 bound_to 7997
  155.7442  140.3466  155.5121 H   0  0  0  0  0  0  0  0  0  0  0  0  # atno 8010 bound_to 7997
  139.9031  144.6317  150.8616 H   0  0  0  0  0  0  0  0  0  0  0  0  # atno 10167 bound_to 10162
  157.6730  131.0811  150.5750 H   0  0  0  0  0  0  0  0  0  0  0  0  # atno 10718 bound_to 10713
  154.5738  135.5597  153.7120 H   0  0  0  0  0  0  0  0  0  0  0  0  # atno 10763 bound_to 10752
  153.0057  135.6303  154.2077 H   0  0  0  0  0  0  0  0  0  0  0  0  # atno 10764 bound_to 10752
  154.2017  135.2877  155.2968 H   0  0  0  0  0  0  0  0  0  0  0  0  # atno 10765 bound_to 10752
  140.0579  134.5644  155.9186 H   0  0  0  0  0  0  0  0  0  0  0  0  # atno 11005 bound_to 11000
  145.4062  141.0391  143.3043 LP  0  0  0  0  0  0  0  0  0  0  0  0  # atno 17320 bound_to 7965
  144.8324  139.5607  143.6938 LP  0  0  0  0  0  0  0  0  0  0  0  0  # atno 17321 bound_to 7965
  140.7702  143.3422  151.2185 LP  0  0  0  0  0  0  0  0  0  0  0  0  # atno 17342 bound_to 10162
  139.7008  143.9537  152.2904 LP  0  0  0  0  0  0  0  0  0  0  0  0  # atno 17343 bound_to 10162
  156.6051  130.4365  149.5881 LP  0  0  0  0  0  0  0  0  0  0  0  0  # atno 17370 bound_to 10713
  156.2475  130.6887  151.1614 LP  0  0  0  0  0  0  0  0  0  0  0  0  # atno 17371 bound_to 10713
  141.1960  133.6589  156.5671 LP  0  0  0  0  0  0  0  0  0  0  0  0  # atno 17394 bound_to 11000
  140.3816  134.7519  157.4664 LP  0  0  0  0  0  0  0  0  0  0  0  0  # atno 17395 bound_to 11000

$$$$
