AV-unprocessed.smi:601|AV-procd|sdf|3033|dock8
  -GOLD-   2262023553D 1   1.00000     0.00000
 Structure written by MMmdl.
 49 50  0  0  0  0  0  0  0  0  2 V2000
  149.8766  134.6743  155.0781 C   0  0  0  0  0  0  0  0  0  0  0  0
  148.3914  134.8810  155.4040 C   0  0  0  0  0  0  0  0  0  0  0  0
  148.1419  135.8866  156.5392 C   0  0  0  0  0  0  0  0  0  0  0  0
  148.6757  135.4195  157.9075 C   0  0  0  0  0  0  0  0  0  0  0  0
  148.6675  136.5053  158.8997 N   0  0  0  0  0  0  0  0  0  0  0  0
  148.0731  136.3393  160.1112 C   0  0  0  0  0  0  0  0  0  0  0  0
  148.1355  137.2054  160.9870 O   0  0  0  0  0  0  0  0  0  0  0  0
  147.2574  135.0496  160.3912 C   0  0  2  0  0  0  0  0  0  0  0  0
  145.8270  135.2901  160.8925 C   0  0  0  0  0  0  0  0  0  0  0  0
  145.9684  135.4286  162.4037 C   0  0  0  0  0  0  0  0  0  0  0  0
  147.3771  134.9073  162.7019 C   0  0  0  0  0  0  0  0  0  0  0  0
  147.8242  134.3310  161.4804 O   0  0  0  0  0  0  0  0  0  0  0  0
  149.3543  137.6836  158.5543 C   0  0  0  0  0  0  0  0  0  0  0  0
  148.7366  138.7167  157.9228 C   0  0  0  0  0  0  0  0  0  0  0  0
  147.3973  138.6339  157.5687 N   0  0  0  0  0  0  0  0  0  0  0  0
  149.4639  139.8979  157.6162 N   0  0  0  0  0  0  0  0  0  0  0  0
  148.7829  140.9958  156.8975 C   0  0  0  0  0  0  0  0  0  0  0  0
  149.5585  141.4080  155.6343 C   0  0  0  0  0  0  0  0  0  0  0  0
  149.2163  140.5312  154.4253 C   0  0  0  0  0  0  0  0  0  0  0  0
  150.7712  140.0328  157.9983 C   0  0  0  0  0  0  0  0  0  0  0  0
  151.3652  141.0844  157.7553 O   0  0  0  0  0  0  0  0  0  0  0  0
  151.3833  138.9986  158.6432 N   0  5  0  0  0  0  0  0  0  0  0  0
  150.7607  137.8292  158.9476 C   0  0  0  0  0  0  0  0  0  0  0  0
  151.3363  136.9157  159.5395 O   0  0  0  0  0  0  0  0  0  0  0  0
  150.0004  133.9028  154.3179 H   0  0  0  0  0  0  0  0  0  0  0  0
  150.4337  134.3611  155.9615 H   0  0  0  0  0  0  0  0  0  0  0  0
  150.3358  135.5860  154.6967 H   0  0  0  0  0  0  0  0  0  0  0  0
  147.8550  135.1927  154.5071 H   0  0  0  0  0  0  0  0  0  0  0  0
  147.9651  133.9195  155.6917 H   0  0  0  0  0  0  0  0  0  0  0  0
  148.6275  136.8270  156.2769 H   0  0  0  0  0  0  0  0  0  0  0  0
  147.0756  136.1067  156.6007 H   0  0  0  0  0  0  0  0  0  0  0  0
  148.0962  134.5747  158.2818 H   0  0  0  0  0  0  0  0  0  0  0  0
  149.6917  135.0413  157.7822 H   0  0  0  0  0  0  0  0  0  0  0  0
  147.2341  134.4264  159.4969 H   0  0  0  0  0  0  0  0  0  0  0  0
  145.3402  136.1518  160.4339 H   0  0  0  0  0  0  0  0  0  0  0  0
  145.2150  134.4171  160.6629 H   0  0  0  0  0  0  0  0  0  0  0  0
  145.8708  136.4679  162.7193 H   0  0  0  0  0  0  0  0  0  0  0  0
  145.2045  134.8478  162.9211 H   0  0  0  0  0  0  0  0  0  0  0  0
  148.0415  135.7255  162.9836 H   0  0  0  0  0  0  0  0  0  0  0  0
  147.3891  134.1711  163.5053 H   0  0  0  0  0  0  0  0  0  0  0  0
  146.8444  137.8125  157.7667 H   0  0  0  0  0  0  0  0  0  0  0  0
  146.9030  139.4242  157.1805 H   0  0  0  0  0  0  0  0  0  0  0  0
  147.7650  140.7141  156.6231 H   0  0  0  0  0  0  0  0  0  0  0  0
  148.6386  141.8587  157.5477 H   0  0  0  0  0  0  0  0  0  0  0  0
  149.3458  142.4498  155.3924 H   0  0  0  0  0  0  0  0  0  0  0  0
  150.6304  141.3502  155.8271 H   0  0  0  0  0  0  0  0  0  0  0  0
  149.7873  140.8372  153.5485 H   0  0  0  0  0  0  0  0  0  0  0  0
  148.1574  140.6032  154.1756 H   0  0  0  0  0  0  0  0  0  0  0  0
  149.4448  139.4835  154.6222 H   0  0  0  0  0  0  0  0  0  0  0  0
  1  2  1  0  0  0  0
  1 25  1  0  0  0  0
  1 26  1  0  0  0  0
  1 27  1  0  0  0  0
  2  3  1  0  0  0  0
  2 28  1  0  0  0  0
  2 29  1  0  0  0  0
  3  4  1  0  0  0  0
  3 30  1  0  0  0  0
  3 31  1  0  0  0  0
  4  5  1  0  0  0  0
  4 32  1  0  0  0  0
  4 33  1  0  0  0  0
  5  6  1  0  0  0  0
  5 13  1  0  0  0  0
  6  7  2  0  0  0  0
  6  8  1  0  0  0  0
  8 12  1  0  0  0  0
  8  9  1  0  0  0  0
  8 34  1  0  0  0  0
  9 10  1  0  0  0  0
  9 35  1  0  0  0  0
  9 36  1  0  0  0  0
 10 11  1  0  0  0  0
 10 37  1  0  0  0  0
 10 38  1  0  0  0  0
 11 12  1  0  0  0  0
 11 39  1  0  0  0  0
 11 40  1  0  0  0  0
 13 23  1  0  0  0  0
 13 14  2  0  0  0  0
 14 15  1  0  0  0  0
 14 16  1  0  0  0  0
 15 41  1  0  0  0  0
 15 42  1  0  0  0  0
 16 17  1  0  0  0  0
 16 20  1  0  0  0  0
 17 18  1  0  0  0  0
 17 43  1  0  0  0  0
 17 44  1  0  0  0  0
 18 19  1  0  0  0  0
 18 45  1  0  0  0  0
 18 46  1  0  0  0  0
 19 47  1  0  0  0  0
 19 48  1  0  0  0  0
 19 49  1  0  0  0  0
 20 21  2  0  0  0  0
 20 22  1  0  0  0  0
 22 23  1  0  0  0  0
 23 24  2  0  0  0  0
M  CHG  1  22  -1
M  END
> <s_m_source_file>
AV-unprocessed.smi

> <i_m_source_file_index>
601

> <i_lp_mmshare_version>
43012

> <i_f3d_flags>
0

> <s_epik_input>
TzFbQ0gyXVtDSDJdW0NIMl1bQ0BIXTFDKD1PKU4oW0NIMl1bQ0gyXVtDSDJdW0NIM10pYzJjKFtOSDJdKW4oW0NIMl1bQ0gyXVtDSDNdKWMoPU8pW25IXWMyPU8=

> <s_epik_cmdline>
J2VwaWtfcHl0aG9uJywgJy1waCcsICc3LjAnLCAnLXRuJywgJzgnLCAnLW1hJywgJzIwMCcsICctbWV0YWxfYmluZGluZycsICctaW1hZScsICc8aW5maWxlLm1hZT4nLCAnLW9tYWUnLCAnPG91dGZpbGUubWFlPic=

> <r_lp_tautomer_probability>
1

> <r_epik_Ionization_Penalty>
5.90608

> <r_epik_Ionization_Penalty_Charging>
4.55687e-07

> <r_epik_Ionization_Penalty_Neutral>
5.90608

> <r_epik_State_Penalty>
5.90604

> <r_epik_Charging_Adjusted_Penalty>
5.90604

> <i_epik_Tot_Q>
-1

> <i_epik_Tot_abs_Q>
1

> <r_epik_Metal_State_Penalty>
1.84043

> <b_epik_Metal_Only>
1

> <s_lp_Force_Field>
OPLS_2005

> <r_lp_Energy>
51.8523

> <b_lp_Chiralities_Consistent>
1

> <s_lp_Variant>
AV-unprocessed.smi:601-3

> <Gold.Version>
5.8.1

> <Gold.Id.Protein>
6NUR|6NUR_protein|mol2

> <Gold.PLP.Fitness>
38.2348

> <Gold.PLP.PLP>
-31.7462

> <Gold.PLP.part.hbond>
-3.0000

> <Gold.PLP.part.metal>
0.0000

> <Gold.PLP.part.buried>
-5.5074

> <Gold.PLP.part.nonpolar>
-23.5699

> <Gold.PLP.part.repulsive>
0.0735

> <Gold.PLP.ligand.clash>
0.0000

> <Gold.PLP.ligand.torsion>
1.8173

> <Gold.PLP.Chemscore.Hbond>
2.5992

> <Gold.PLP.Chemscore.CHOScore>
0.0000

> <Gold.PLP.Chemscore.Metal>
0.0000

> <Gold.Chemscore.Hbonds>
donor molecule, donor type, donor heavy atom, donor atom, acceptor molecule, acceptor atom, score
      P1  H  6896  6908       L1    24  1.00
      P1  H  6931  6943       L1     7  0.94
      P1  H  6934  6947       L1     7  0.64

> <Gold.PLP.Chemscore.Internal.Correction>
2.3255

> <Gold.Rescore>
     Score         DG    S(hbond)    S(metal)    S(lipo)     H(rot)  DE(clash)    DE(int)     intcor
     12.17     -16.01       2.70        0.00      54.79       1.92       0.01       3.84       ----

> <Gold.Chemscore.Fitness>
12.1665

> <Gold.Chemscore.DG>
-16.0101

> <Gold.Chemscore.ZeroCoef>
-5.4800

> <Gold.Chemscore.Hbond>
2.7050

> <Gold.Chemscore.Metal>
0.0000

> <Gold.Chemscore.Lipo>
54.7943

> <Gold.Chemscore.Internal_Hbond>
0.0000

> <Gold.Chemscore.DEClash>
0.0082

> <Gold.Chemscore.DEInternal>
3.8354

> <Gold.Chemscore.Rot>
1.9201

> <Gold.Chemscore.Internal.Correction>
   9.000000E+99

> <Gold.Chemscore.Hbonds>
donor molecule, donor type, donor heavy atom, donor atom, acceptor molecule, acceptor atom, score
      P1  H  6896  6908       L1    24  0.97
      P1  H  6931  6943       L1     7  0.91
      P1  H  6934  6947       L1     7  0.60

> <Gold.Chemscore.Hbond.Weighted>
-9.0346

> <Gold.Chemscore.Metal.Weighted>
-0.0000

> <Gold.Chemscore.Lipo.Weighted>
-6.4109

> <Gold.Chemscore.Internal_Hbond.Weighted>
0.0000

> <Gold.Chemscore.DEClash.Weighted>
0.0082

> <Gold.Chemscore.DEInternal.Weighted>
3.8354

> <Gold.Chemscore.Rot.Weighted>
4.9154

> <Gold.Chemscore.Internal.Correction.Weighted>
   9.000000E+99

> <Gold.Protein.RotatedTorsions>
[ 6907 6896 6895 6894 ] final -146.12 input  -60.11 | X-H torsion
[ 7974 7965 7964 7962 ] final  -23.25 input  175.53 | X-H torsion
[ 8008 7997 7996 7995 ] final   68.40 input   59.86 | X-H torsion
[ 10167 10162 10161 10158 ] final  178.98 input  -65.29 | X-H torsion
[ 10718 10713 10712 10709 ] final  -83.67 input   66.30 | X-H torsion
[ 10763 10752 10751 10750 ] final  121.05 input  -60.55 | X-H torsion
[ 11005 11000 10999 10996 ] final  -27.76 input  -57.11 | X-H torsion

> <Gold.Protein.ActiveResidues>
 VAL166  LYS551  ARG553  GLY616  TRP617  ASP618  TYR619  PRO620  LYS621  CYS622 
 ASP623  PHE694  ASN695  SER759  ASP760  ASP761  ALA762  ILE779  LEU786  VAL792 
 PHE793  MET794  SER795  GLU796  ALA797  LYS798  CYS799  TRP800  GLU811  SER814 

> <Gold.Protein.RotatedAtoms>
  151.1372  133.4996  159.2597 H   0  0  0  0  0  0  0  0  0  0  0  0  # atno 6907 bound_to 6896
  151.1694  135.0310  159.8755 H   0  0  0  0  0  0  0  0  0  0  0  0  # atno 6908 bound_to 6896
  152.5461  134.1237  159.8463 H   0  0  0  0  0  0  0  0  0  0  0  0  # atno 6909 bound_to 6896
  146.1627  140.4590  142.8564 H   0  0  0  0  0  0  0  0  0  0  0  0  # atno 7974 bound_to 7965
  155.7077  140.3494  155.4960 H   0  0  0  0  0  0  0  0  0  0  0  0  # atno 8008 bound_to 7997
  155.9384  140.1097  157.1098 H   0  0  0  0  0  0  0  0  0  0  0  0  # atno 8009 bound_to 7997
  154.4098  140.1217  156.4880 H   0  0  0  0  0  0  0  0  0  0  0  0  # atno 8010 bound_to 7997
  139.5317  144.2615  152.0703 H   0  0  0  0  0  0  0  0  0  0  0  0  # atno 10167 bound_to 10162
  156.0015  130.4673  150.4293 H   0  0  0  0  0  0  0  0  0  0  0  0  # atno 10718 bound_to 10713
  153.6081  135.3435  155.2969 H   0  0  0  0  0  0  0  0  0  0  0  0  # atno 10763 bound_to 10752
  154.8624  135.4243  154.2340 H   0  0  0  0  0  0  0  0  0  0  0  0  # atno 10764 bound_to 10752
  153.3184  135.7036  153.7124 H   0  0  0  0  0  0  0  0  0  0  0  0  # atno 10765 bound_to 10752
  140.9148  133.7437  156.0720 H   0  0  0  0  0  0  0  0  0  0  0  0  # atno 11005 bound_to 11000
  144.8049  140.6282  143.6453 LP  0  0  0  0  0  0  0  0  0  0  0  0  # atno 17320 bound_to 7965
  145.4546  139.1519  143.3899 LP  0  0  0  0  0  0  0  0  0  0  0  0  # atno 17321 bound_to 7965
  140.2080  144.4592  150.6399 LP  0  0  0  0  0  0  0  0  0  0  0  0  # atno 17342 bound_to 10162
  140.6499  143.2222  151.6101 LP  0  0  0  0  0  0  0  0  0  0  0  0  # atno 17343 bound_to 10162
  157.2343  131.0511  151.2474 LP  0  0  0  0  0  0  0  0  0  0  0  0  # atno 17370 bound_to 10713
  157.3681  130.7166  149.6546 LP  0  0  0  0  0  0  0  0  0  0  0  0  # atno 17371 bound_to 10713
  140.8064  134.3450  157.5425 LP  0  0  0  0  0  0  0  0  0  0  0  0  # atno 17394 bound_to 11000
  139.8764  134.9228  156.3309 LP  0  0  0  0  0  0  0  0  0  0  0  0  # atno 17395 bound_to 11000

$$$$
