AV-unprocessed.smi:1203|AV-procd|sdf|5035|dock4
  -GOLD-   22720 4 63D 1   1.00000     0.00000
 Structure written by MMmdl.
 40 41  0  0  0  0  0  0  0  0  2 V2000
  149.1701  137.6574  158.6502 C   0  0  0  0  0  0  0  0  0  0  0  0
  148.0184  138.5544  157.5315 S   0  0  0  0  0  0  0  0  0  0  0  0
  147.5874  137.6312  156.4706 O   0  0  0  0  0  0  0  0  0  0  0  0
  147.0140  139.2596  158.3417 O   0  0  0  0  0  0  0  0  0  0  0  0
  149.0380  139.7449  156.7995 N   0  0  0  0  0  0  0  0  0  0  0  0
  148.4209  140.7813  155.9613 C   0  0  0  0  0  0  0  0  0  0  0  0
  149.5283  141.2720  155.0334 C   0  0  0  0  0  0  0  0  0  0  0  0
  150.3864  140.0302  154.8400 C   0  0  0  0  0  0  0  0  0  0  0  0
  150.3045  139.3009  156.1926 C   0  0  1  0  0  0  0  0  0  0  0  0
  151.5178  139.5590  157.0953 C   0  0  0  0  0  0  0  0  0  0  0  0
  152.6591  139.3250  156.6966 O   0  0  0  0  0  0  0  0  0  0  0  0
  151.2532  140.0649  158.3090 N   0  0  0  0  0  0  0  0  0  0  0  0
  152.2502  140.3991  159.3212 C   0  0  0  0  0  0  0  0  0  0  0  0
  153.1263  141.6071  158.9325 C   0  0  0  0  0  0  0  0  0  0  0  0
  152.3703  142.9244  158.8892 C   0  0  0  0  0  0  0  0  0  0  0  0
  152.6506  143.9463  159.8230 C   0  0  0  0  0  0  0  0  0  0  0  0
  151.9280  145.1559  159.7626 C   0  0  0  0  0  0  0  0  0  0  0  0
  150.9437  145.3184  158.7665 C   0  0  0  0  0  0  0  0  0  0  0  0
  150.7052  144.3199  157.8881 N   0  3  0  0  0  0  0  0  0  0  0  0
  151.3716  143.1451  157.9158 C   0  0  0  0  0  0  0  0  0  0  0  0
  148.6470  136.8206  159.1125 H   0  0  0  0  0  0  0  0  0  0  0  0
  149.5228  138.3332  159.4292 H   0  0  0  0  0  0  0  0  0  0  0  0
  150.0214  137.2879  158.0806 H   0  0  0  0  0  0  0  0  0  0  0  0
  147.6114  140.3412  155.3775 H   0  0  0  0  0  0  0  0  0  0  0  0
  148.0057  141.5819  156.5737 H   0  0  0  0  0  0  0  0  0  0  0  0
  149.1468  141.6743  154.0946 H   0  0  0  0  0  0  0  0  0  0  0  0
  150.1078  142.0543  155.5254 H   0  0  0  0  0  0  0  0  0  0  0  0
  149.9552  139.4020  154.0591 H   0  0  0  0  0  0  0  0  0  0  0  0
  151.4036  140.2761  154.5314 H   0  0  0  0  0  0  0  0  0  0  0  0
  150.2488  138.2287  155.9943 H   0  0  0  0  0  0  0  0  0  0  0  0
  150.2866  140.2343  158.5481 H   0  0  0  0  0  0  0  0  0  0  0  0
  151.7093  140.6254  160.2403 H   0  0  0  0  0  0  0  0  0  0  0  0
  152.8735  139.5303  159.5384 H   0  0  0  0  0  0  0  0  0  0  0  0
  153.9542  141.7006  159.6359 H   0  0  0  0  0  0  0  0  0  0  0  0
  153.5820  141.4288  157.9576 H   0  0  0  0  0  0  0  0  0  0  0  0
  153.4082  143.8043  160.5801 H   0  0  0  0  0  0  0  0  0  0  0  0
  152.1257  145.9475  160.4705 H   0  0  0  0  0  0  0  0  0  0  0  0
  150.3438  146.2088  158.6475 H   0  0  0  0  0  0  0  0  0  0  0  0
  151.0841  142.4215  157.1667 H   0  0  0  0  0  0  0  0  0  0  0  0
  149.9889  144.4578  157.1751 H   0  0  0  0  0  0  0  0  0  0  0  0
  1  2  1  0  0  0  0
  1 21  1  0  0  0  0
  1 22  1  0  0  0  0
  1 23  1  0  0  0  0
  2  3  2  0  0  0  0
  2  4  2  0  0  0  0
  2  5  1  0  0  0  0
  5  9  1  0  0  0  0
  5  6  1  0  0  0  0
  6  7  1  0  0  0  0
  6 24  1  0  0  0  0
  6 25  1  0  0  0  0
  7  8  1  0  0  0  0
  7 26  1  0  0  0  0
  7 27  1  0  0  0  0
  8  9  1  0  0  0  0
  8 28  1  0  0  0  0
  8 29  1  0  0  0  0
  9 10  1  0  0  0  0
  9 30  1  0  0  0  0
 10 11  2  0  0  0  0
 10 12  1  0  0  0  0
 12 13  1  0  0  0  0
 12 31  1  0  0  0  0
 13 14  1  0  0  0  0
 13 32  1  0  0  0  0
 13 33  1  0  0  0  0
 14 15  1  0  0  0  0
 14 34  1  0  0  0  0
 14 35  1  0  0  0  0
 15 20  1  0  0  0  0
 15 16  2  0  0  0  0
 16 17  1  0  0  0  0
 16 36  1  0  0  0  0
 17 18  2  0  0  0  0
 17 37  1  0  0  0  0
 18 19  1  0  0  0  0
 18 38  1  0  0  0  0
 19 20  2  0  0  0  0
 19 40  1  0  0  0  0
 20 39  1  0  0  0  0
M  CHG  1  19   1
M  END
> <s_m_source_file>
AV-unprocessed.smi

> <i_m_source_file_index>
1203

> <i_lp_mmshare_version>
43012

> <i_f3d_flags>
0

> <s_epik_input>
W0NIM11TKD1PKSg9TylOMVtDSDJdW0NIMl1bQ0gyXVtDQEhdMUMoPU8pW05IXVtDSDJdW0NIMl1jMltjSF1bY0hdW2NIXW5bY0hdMg==

> <s_epik_cmdline>
J2VwaWtfcHl0aG9uJywgJy1waCcsICc3LjAnLCAnLXRuJywgJzgnLCAnLW1hJywgJzIwMCcsICctbWV0YWxfYmluZGluZycsICctaW1hZScsICc8aW5maWxlLm1hZT4nLCAnLW9tYWUnLCAnPG91dGZpbGUubWFlPic=

> <r_epik_Ionization_Penalty>
2.2835

> <r_epik_Ionization_Penalty_Charging>
2.2835

> <r_epik_Ionization_Penalty_Neutral>
1.4017e-07

> <r_epik_State_Penalty>
2.43297

> <r_epik_Charging_Adjusted_Penalty>
4.71647

> <i_epik_Tot_Q>
1

> <i_epik_Tot_abs_Q>
1

> <r_epik_Metal_State_Penalty>
2.44558

> <b_epik_Metal_Only>
0

> <s_lp_Force_Field>
OPLS_2005

> <r_lp_Energy>
11.8017

> <b_lp_Chiralities_Consistent>
1

> <s_lp_Variant>
AV-unprocessed.smi:1203-3

> <Gold.Version>
5.8.1

> <Gold.Id.Protein>
6NUR|6NUR_protein|mol2

> <Gold.PLP.Fitness>
43.1245

> <Gold.PLP.PLP>
-34.3750

> <Gold.PLP.part.hbond>
-3.1384

> <Gold.PLP.part.metal>
0.0000

> <Gold.PLP.part.buried>
-3.3991

> <Gold.PLP.part.nonpolar>
-27.9398

> <Gold.PLP.part.repulsive>
0.1924

> <Gold.PLP.ligand.clash>
0.0000

> <Gold.PLP.ligand.torsion>
0.3780

> <Gold.PLP.Chemscore.Hbond>
3.0000

> <Gold.PLP.Chemscore.CHOScore>
0.0000

> <Gold.PLP.Chemscore.Metal>
0.0000

> <Gold.Chemscore.Hbonds>
donor molecule, donor type, donor heavy atom, donor atom, acceptor molecule, acceptor atom, score
      L1  H    19    40       P1  8028  2.00
      P1  H  7997  8008       L1    11  1.00

> <Gold.PLP.Chemscore.Internal.Correction>
0.5056

> <Gold.Rescore>
     Score         DG    S(hbond)    S(metal)    S(lipo)     H(rot)  DE(clash)    DE(int)     intcor
     17.74     -18.60       1.97        0.00      99.65       2.00       0.33       0.53       ----

> <Gold.Chemscore.Fitness>
17.7414

> <Gold.Chemscore.DG>
-18.5975

> <Gold.Chemscore.ZeroCoef>
-5.4800

> <Gold.Chemscore.Hbond>
1.9729

> <Gold.Chemscore.Metal>
0.0000

> <Gold.Chemscore.Lipo>
99.6487

> <Gold.Chemscore.Internal_Hbond>
0.0000

> <Gold.Chemscore.DEClash>
0.3283

> <Gold.Chemscore.DEInternal>
0.5278

> <Gold.Chemscore.Rot>
2.0043

> <Gold.Chemscore.Internal.Correction>
   9.000000E+99

> <Gold.Chemscore.Hbonds>
donor molecule, donor type, donor heavy atom, donor atom, acceptor molecule, acceptor atom, score
      L1  H    19    40       P1  8028  0.45
      P1  H  7997  8008       L1    11  1.00

> <Gold.Chemscore.Hbond.Weighted>
-6.5895

> <Gold.Chemscore.Metal.Weighted>
-0.0000

> <Gold.Chemscore.Lipo.Weighted>
-11.6589

> <Gold.Chemscore.Internal_Hbond.Weighted>
0.0000

> <Gold.Chemscore.DEClash.Weighted>
0.3283

> <Gold.Chemscore.DEInternal.Weighted>
0.5278

> <Gold.Chemscore.Rot.Weighted>
5.1309

> <Gold.Chemscore.Internal.Correction.Weighted>
   9.000000E+99

> <Gold.Protein.RotatedTorsions>
[ 6907 6896 6895 6894 ] final  -79.63 input  -60.11 | X-H torsion
[ 7974 7965 7964 7962 ] final  -70.45 input  175.53 | X-H torsion
[ 8008 7997 7996 7995 ] final  -58.55 input   59.86 | X-H torsion
[ 10167 10162 10161 10158 ] final  -29.91 input  -65.29 | X-H torsion
[ 10718 10713 10712 10709 ] final  153.12 input   66.30 | X-H torsion
[ 10763 10752 10751 10750 ] final  -71.54 input  -60.55 | X-H torsion
[ 11005 11000 10999 10996 ] final  -26.20 input  -57.11 | X-H torsion

> <Gold.Protein.ActiveResidues>
 VAL166  LYS551  ARG553  GLY616  TRP617  ASP618  TYR619  PRO620  LYS621  CYS622 
 ASP623  PHE694  ASN695  SER759  ASP760  ASP761  ALA762  ILE779  LEU786  VAL792 
 PHE793  MET794  SER795  GLU796  ALA797  LYS798  CYS799  TRP800  GLU811  SER814 

> <Gold.Protein.RotatedAtoms>
  150.6946  134.4092  159.5153 H   0  0  0  0  0  0  0  0  0  0  0  0  # atno 6907 bound_to 6896
  152.1854  134.8716  160.0532 H   0  0  0  0  0  0  0  0  0  0  0  0  # atno 6908 bound_to 6896
  151.9691  133.3685  159.4101 H   0  0  0  0  0  0  0  0  0  0  0  0  # atno 6909 bound_to 6896
  145.6908  140.9154  143.0783 H   0  0  0  0  0  0  0  0  0  0  0  0  # atno 7974 bound_to 7965
  154.4313  140.1081  156.5974 H   0  0  0  0  0  0  0  0  0  0  0  0  # atno 8008 bound_to 7997
  155.5947  140.3492  155.4558 H   0  0  0  0  0  0  0  0  0  0  0  0  # atno 8009 bound_to 7997
  156.0219  140.1241  157.0337 H   0  0  0  0  0  0  0  0  0  0  0  0  # atno 8010 bound_to 7997
  140.7255  143.3891  151.1462 H   0  0  0  0  0  0  0  0  0  0  0  0  # atno 10167 bound_to 10162
  157.2489  131.0775  151.1743 H   0  0  0  0  0  0  0  0  0  0  0  0  # atno 10718 bound_to 10713
  154.4332  135.5959  153.6082 H   0  0  0  0  0  0  0  0  0  0  0  0  # atno 10763 bound_to 10752
  152.9800  135.5980  154.3813 H   0  0  0  0  0  0  0  0  0  0  0  0  # atno 10764 bound_to 10752
  154.3654  135.2841  155.2275 H   0  0  0  0  0  0  0  0  0  0  0  0  # atno 10765 bound_to 10752
  140.9007  133.7526  156.0541 H   0  0  0  0  0  0  0  0  0  0  0  0  # atno 11005 bound_to 11000
  144.6997  139.8818  143.7447 LP  0  0  0  0  0  0  0  0  0  0  0  0  # atno 17320 bound_to 7965
  146.0884  139.3873  143.0421 LP  0  0  0  0  0  0  0  0  0  0  0  0  # atno 17321 bound_to 7965
  139.7493  143.8803  152.3072 LP  0  0  0  0  0  0  0  0  0  0  0  0  # atno 17342 bound_to 10162
  139.8651  144.7097  150.9053 LP  0  0  0  0  0  0  0  0  0  0  0  0  # atno 17343 bound_to 10162
  157.3299  130.6979  149.6318 LP  0  0  0  0  0  0  0  0  0  0  0  0  # atno 17370 bound_to 10713
  155.9667  130.4310  150.4903 LP  0  0  0  0  0  0  0  0  0  0  0  0  # atno 17371 bound_to 10713
  140.8233  134.3264  157.5374 LP  0  0  0  0  0  0  0  0  0  0  0  0  # atno 17394 bound_to 11000
  139.8742  134.9321  156.3546 LP  0  0  0  0  0  0  0  0  0  0  0  0  # atno 17395 bound_to 11000

$$$$
