AV-unprocessed.smi:198|AV-procd|sdf|1556|dock7
  -GOLD-   2262019423D 1   1.00000     0.00000
 Structure written by MMmdl.
 59 63  0  0  0  0  0  0  0  0  2 V2000
  150.6324  144.3868  158.3641 C   0  0  0  0  0  0  0  0  0  0  0  0
  150.1822  143.3297  157.4332 N   0  3  1  0  0  0  0  0  0  0  0  0
  151.2620  142.3647  157.1121 C   0  0  0  0  0  0  0  0  0  0  0  0
  150.8069  141.3706  156.0337 C   0  0  0  0  0  0  0  0  0  0  0  0
  149.5270  140.6280  156.4745 C   0  0  1  0  0  0  0  0  0  0  0  0
  148.4206  141.6319  156.8758 C   0  0  2  0  0  0  0  0  0  0  0  0
  147.7813  142.3051  155.6434 C   0  0  0  0  0  0  0  0  0  0  0  0
  147.2870  141.2427  154.6517 C   0  0  0  0  0  0  0  0  0  0  0  0
  148.4177  140.2777  154.2638 C   0  0  0  0  0  0  0  0  0  0  0  0
  149.0358  139.6909  155.4560 N   0  0  0  0  0  0  0  0  0  0  0  0
  149.7806  138.5668  155.2875 C   0  0  0  0  0  0  0  0  0  0  0  0
  151.1293  138.6681  155.1439 N   0  0  0  0  0  0  0  0  0  0  0  0
  151.8784  137.5712  155.0009 C   0  0  0  0  0  0  0  0  0  0  0  0
  151.4915  136.2950  154.9766 N   0  0  0  0  0  0  0  0  0  0  0  0
  150.1390  136.1837  155.1131 C   0  0  0  0  0  0  0  0  0  0  0  0
  149.2177  137.2586  155.2676 C   0  0  0  0  0  0  0  0  0  0  0  0
  147.9232  136.7604  155.3546 N   0  0  0  0  0  0  0  0  0  0  0  0
  148.0714  135.4671  155.2639 C   0  0  0  0  0  0  0  0  0  0  0  0
  149.3714  135.0313  155.1347 N   0  0  0  0  0  0  0  0  0  0  0  0
  149.8183  133.6727  155.0029 C   0  0  0  0  0  0  0  0  0  0  0  0
  149.3658  132.8168  153.8194 C   0  0  0  0  0  0  0  0  0  0  0  0
  149.2979  131.5700  154.7307 C   0  0  0  0  0  0  0  0  0  0  0  0
  148.0157  130.7347  154.5944 C   0  0  0  0  0  0  0  0  0  0  0  0
  147.9501  130.0920  153.3374 O   0  0  0  0  0  0  0  0  0  0  0  0
  150.4890  130.5870  154.6739 C   0  0  0  0  0  0  0  0  0  0  0  0
  150.5088  129.6722  155.7506 O   0  0  0  0  0  0  0  0  0  0  0  0
  149.2908  132.5615  155.9168 C   0  0  0  0  0  0  0  0  0  0  0  0
  148.9482  142.6521  157.9056 C   0  0  0  0  0  0  0  0  0  0  0  0
  150.9127  143.9640  159.3300 H   0  0  0  0  0  0  0  0  0  0  0  0
  149.8409  145.1189  158.5276 H   0  0  0  0  0  0  0  0  0  0  0  0
  151.4954  144.9161  157.9588 H   0  0  0  0  0  0  0  0  0  0  0  0
  152.1418  142.9039  156.7589 H   0  0  0  0  0  0  0  0  0  0  0  0
  151.5583  141.8303  158.0162 H   0  0  0  0  0  0  0  0  0  0  0  0
  150.6427  141.9043  155.0976 H   0  0  0  0  0  0  0  0  0  0  0  0
  151.6080  140.6563  155.8405 H   0  0  0  0  0  0  0  0  0  0  0  0
  149.7766  140.0690  157.3751 H   0  0  0  0  0  0  0  0  0  0  0  0
  147.6285  141.0642  157.3669 H   0  0  0  0  0  0  0  0  0  0  0  0
  146.9472  142.9370  155.9505 H   0  0  0  0  0  0  0  0  0  0  0  0
  148.4982  142.9609  155.1487 H   0  0  0  0  0  0  0  0  0  0  0  0
  146.4677  140.6791  155.1002 H   0  0  0  0  0  0  0  0  0  0  0  0
  146.8818  141.7207  153.7595 H   0  0  0  0  0  0  0  0  0  0  0  0
  148.0096  139.4894  153.6297 H   0  0  0  0  0  0  0  0  0  0  0  0
  149.1728  140.7998  153.6752 H   0  0  0  0  0  0  0  0  0  0  0  0
  152.9397  137.7403  154.8937 H   0  0  0  0  0  0  0  0  0  0  0  0
  147.2271  134.7938  155.2882 H   0  0  0  0  0  0  0  0  0  0  0  0
  150.9073  133.6994  155.0509 H   0  0  0  0  0  0  0  0  0  0  0  0
  148.3880  133.1188  153.4401 H   0  0  0  0  0  0  0  0  0  0  0  0
  150.0934  132.7525  153.0096 H   0  0  0  0  0  0  0  0  0  0  0  0
  147.9480  129.9821  155.3808 H   0  0  0  0  0  0  0  0  0  0  0  0
  147.1296  131.3626  154.6918 H   0  0  0  0  0  0  0  0  0  0  0  0
  148.8055  130.1276  152.9370 H   0  0  0  0  0  0  0  0  0  0  0  0
  150.4666  130.0080  153.7502 H   0  0  0  0  0  0  0  0  0  0  0  0
  151.4396  131.1207  154.6839 H   0  0  0  0  0  0  0  0  0  0  0  0
  150.7370  128.8185  155.4157 H   0  0  0  0  0  0  0  0  0  0  0  0
  149.9639  132.3003  156.7341 H   0  0  0  0  0  0  0  0  0  0  0  0
  148.2879  132.7592  156.2963 H   0  0  0  0  0  0  0  0  0  0  0  0
  149.1616  142.1451  158.8481 H   0  0  0  0  0  0  0  0  0  0  0  0
  148.1778  143.3942  158.1188 H   0  0  0  0  0  0  0  0  0  0  0  0
  149.9431  143.7930  156.5679 H   0  0  0  0  0  0  0  0  0  0  0  0
  1  2  1  0  0  0  0
  1 29  1  0  0  0  0
  1 30  1  0  0  0  0
  1 31  1  0  0  0  0
  2 28  1  0  0  0  0
  2  3  1  0  0  0  0
  2 59  1  0  0  0  0
  3  4  1  0  0  0  0
  3 32  1  0  0  0  0
  3 33  1  0  0  0  0
  4  5  1  0  0  0  0
  4 34  1  0  0  0  0
  4 35  1  0  0  0  0
  5 10  1  0  0  0  0
  5  6  1  0  0  0  0
  5 36  1  0  0  0  0
  6  7  1  0  0  0  0
  6 28  1  0  0  0  0
  6 37  1  0  0  0  0
  7  8  1  0  0  0  0
  7 38  1  0  0  0  0
  7 39  1  0  0  0  0
  8  9  1  0  0  0  0
  8 40  1  0  0  0  0
  8 41  1  0  0  0  0
  9 10  1  0  0  0  0
  9 42  1  0  0  0  0
  9 43  1  0  0  0  0
 10 11  1  0  0  0  0
 11 16  1  0  0  0  0
 11 12  2  0  0  0  0
 12 13  1  0  0  0  0
 13 14  2  0  0  0  0
 13 44  1  0  0  0  0
 14 15  1  0  0  0  0
 15 19  1  0  0  0  0
 15 16  2  0  0  0  0
 16 17  1  0  0  0  0
 17 18  2  0  0  0  0
 18 19  1  0  0  0  0
 18 45  1  0  0  0  0
 19 20  1  0  0  0  0
 20 27  1  0  0  0  0
 20 21  1  0  0  0  0
 20 46  1  0  0  0  0
 21 22  1  0  0  0  0
 21 47  1  0  0  0  0
 21 48  1  0  0  0  0
 22 23  1  0  0  0  0
 22 25  1  0  0  0  0
 22 27  1  0  0  0  0
 23 24  1  0  0  0  0
 23 49  1  0  0  0  0
 23 50  1  0  0  0  0
 24 51  1  0  0  0  0
 25 26  1  0  0  0  0
 25 52  1  0  0  0  0
 25 53  1  0  0  0  0
 26 54  1  0  0  0  0
 27 55  1  0  0  0  0
 27 56  1  0  0  0  0
 28 57  1  0  0  0  0
 28 58  1  0  0  0  0
M  CHG  1   2   1
M  END
> <s_m_source_file>
AV-unprocessed.smi

> <i_m_source_file_index>
198

> <i_lp_mmshare_version>
43012

> <i_f3d_flags>
0

> <s_epik_input>
W0NIMl0xW0NIMl1OKFtDSDNdKVtDSDJdW0NAQEhdKFtDQEhdMTIpW0NIMl1bQ0gyXVtDSDJdTjJjKG5bY0hdbjMpYyhjMzQpbltjSF1uNFtDSF0oW0NIMl01KVtDSDJdQzUoW0NIMl1bT0hdKVtDSDJdW09IXQ==

> <s_epik_cmdline>
J2VwaWtfcHl0aG9uJywgJy1waCcsICc3LjAnLCAnLXRuJywgJzgnLCAnLW1hJywgJzIwMCcsICctbWV0YWxfYmluZGluZycsICctaW1hZScsICc8aW5maWxlLm1hZT4nLCAnLW9tYWUnLCAnPG91dGZpbGUubWFlPic=

> <r_lp_tautomer_probability>
1

> <r_epik_Ionization_Penalty>
0.00239938

> <r_epik_Ionization_Penalty_Charging>
0.00138697

> <r_epik_Ionization_Penalty_Neutral>
0.00101241

> <r_epik_State_Penalty>
-0

> <r_epik_Charging_Adjusted_Penalty>
0.00138697

> <i_epik_Tot_Q>
1

> <i_epik_Tot_abs_Q>
1

> <r_epik_Metal_State_Penalty>
-0

> <b_epik_Metal_Only>
0

> <s_lp_Force_Field>
OPLS_2005

> <r_lp_Energy>
58.4616

> <b_lp_Chiralities_Consistent>
1

> <s_lp_Variant>
AV-unprocessed.smi:198-5

> <Gold.Version>
5.8.1

> <Gold.Id.Protein>
6NUR|6NUR_protein|mol2

> <Gold.PLP.Fitness>
43.4846

> <Gold.PLP.PLP>
-34.8904

> <Gold.PLP.part.hbond>
-3.0000

> <Gold.PLP.part.metal>
0.0000

> <Gold.PLP.part.buried>
-2.0089

> <Gold.PLP.part.nonpolar>
-29.9658

> <Gold.PLP.part.repulsive>
0.3232

> <Gold.PLP.ligand.clash>
0.0000

> <Gold.PLP.ligand.torsion>
0.7777

> <Gold.PLP.Chemscore.Hbond>
3.0798

> <Gold.PLP.Chemscore.CHOScore>
0.0000

> <Gold.PLP.Chemscore.Metal>
0.0000

> <Gold.Chemscore.Hbonds>
donor molecule, donor type, donor heavy atom, donor atom, acceptor molecule, acceptor atom, score
      L1  H     2    59       P1  8028  2.00
      P1  H 10752 10765       L1    14  0.95

> <Gold.PLP.Chemscore.Internal.Correction>
0.9103

> <Gold.Rescore>
     Score         DG    S(hbond)    S(metal)    S(lipo)     H(rot)  DE(clash)    DE(int)     intcor
      8.98     -13.05       1.67        0.00      84.27       3.08       1.99       2.08       ----

> <Gold.Chemscore.Fitness>
8.9821

> <Gold.Chemscore.DG>
-13.0507

> <Gold.Chemscore.ZeroCoef>
-5.4800

> <Gold.Chemscore.Hbond>
1.6741

> <Gold.Chemscore.Metal>
0.0000

> <Gold.Chemscore.Lipo>
84.2661

> <Gold.Chemscore.Internal_Hbond>
0.0000

> <Gold.Chemscore.DEClash>
1.9862

> <Gold.Chemscore.DEInternal>
2.0824

> <Gold.Chemscore.Rot>
3.0781

> <Gold.Chemscore.Internal.Correction>
   9.000000E+99

> <Gold.Chemscore.Hbonds>
donor molecule, donor type, donor heavy atom, donor atom, acceptor molecule, acceptor atom, score
      L1  H     2    59       P1  8028  0.94
      P1  H 10752 10765       L1    14  0.21

> <Gold.Chemscore.Hbond.Weighted>
-5.5916

> <Gold.Chemscore.Metal.Weighted>
-0.0000

> <Gold.Chemscore.Lipo.Weighted>
-9.8591

> <Gold.Chemscore.Internal_Hbond.Weighted>
0.0000

> <Gold.Chemscore.DEClash.Weighted>
1.9862

> <Gold.Chemscore.DEInternal.Weighted>
2.0824

> <Gold.Chemscore.Rot.Weighted>
7.8800

> <Gold.Chemscore.Internal.Correction.Weighted>
   9.000000E+99

> <Gold.Protein.RotatedTorsions>
[ 6907 6896 6895 6894 ] final  154.08 input  -60.11 | X-H torsion
[ 7974 7965 7964 7962 ] final  115.51 input  175.53 | X-H torsion
[ 8008 7997 7996 7995 ] final  -31.98 input   59.86 | X-H torsion
[ 10167 10162 10161 10158 ] final   36.37 input  -65.29 | X-H torsion
[ 10718 10713 10712 10709 ] final  -13.47 input   66.30 | X-H torsion
[ 10763 10752 10751 10750 ] final -177.26 input  -60.55 | X-H torsion
[ 11005 11000 10999 10996 ] final   23.95 input  -57.11 | X-H torsion

> <Gold.Protein.ActiveResidues>
 VAL166  LYS551  ARG553  GLY616  TRP617  ASP618  TYR619  PRO620  LYS621  CYS622 
 ASP623  PHE694  ASN695  SER759  ASP760  ASP761  ALA762  ILE779  LEU786  VAL792 
 PHE793  MET794  SER795  GLU796  ALA797  LYS798  CYS799  TRP800  GLU811  SER814 

> <Gold.Protein.RotatedAtoms>
  152.0636  133.4073  159.4428 H   0  0  0  0  0  0  0  0  0  0  0  0  # atno 6907 bound_to 6896
  150.6865  134.3172  159.4780 H   0  0  0  0  0  0  0  0  0  0  0  0  # atno 6908 bound_to 6896
  152.0996  134.9350  160.0620 H   0  0  0  0  0  0  0  0  0  0  0  0  # atno 6909 bound_to 6896
  145.1911  139.3000  143.4368 H   0  0  0  0  0  0  0  0  0  0  0  0  # atno 7974 bound_to 7965
  154.4195  140.1750  156.1653 H   0  0  0  0  0  0  0  0  0  0  0  0  # atno 8008 bound_to 7997
  155.9804  140.3378  155.6634 H   0  0  0  0  0  0  0  0  0  0  0  0  # atno 8009 bound_to 7997
  155.6507  140.0690  157.2578 H   0  0  0  0  0  0  0  0  0  0  0  0  # atno 8010 bound_to 7997
  140.4134  144.1561  150.6141 H   0  0  0  0  0  0  0  0  0  0  0  0  # atno 10167 bound_to 10162
  156.6298  130.4898  149.6133 H   0  0  0  0  0  0  0  0  0  0  0  0  # atno 10718 bound_to 10713
  154.5623  135.2821  155.0907 H   0  0  0  0  0  0  0  0  0  0  0  0  # atno 10763 bound_to 10752
  154.2311  135.6374  153.5179 H   0  0  0  0  0  0  0  0  0  0  0  0  # atno 10764 bound_to 10752
  153.0033  135.5537  154.6221 H   0  0  0  0  0  0  0  0  0  0  0  0  # atno 10765 bound_to 10752
  140.3640  134.2095  155.7670 H   0  0  0  0  0  0  0  0  0  0  0  0  # atno 11005 bound_to 11000
  146.3436  140.2123  142.8590 LP  0  0  0  0  0  0  0  0  0  0  0  0  # atno 17320 bound_to 7965
  145.0041  140.8657  143.5264 LP  0  0  0  0  0  0  0  0  0  0  0  0  # atno 17321 bound_to 7965
  140.4613  143.2448  151.9215 LP  0  0  0  0  0  0  0  0  0  0  0  0  # atno 17342 bound_to 10162
  139.4782  144.5464  151.8452 LP  0  0  0  0  0  0  0  0  0  0  0  0  # atno 17343 bound_to 10162
  156.2244  130.6756  151.1401 LP  0  0  0  0  0  0  0  0  0  0  0  0  # atno 17370 bound_to 10713
  157.7203  131.0685  150.6162 LP  0  0  0  0  0  0  0  0  0  0  0  0  # atno 17371 bound_to 10713
  141.1975  133.8057  157.0623 LP  0  0  0  0  0  0  0  0  0  0  0  0  # atno 17394 bound_to 11000
  140.0604  134.9758  157.1295 LP  0  0  0  0  0  0  0  0  0  0  0  0  # atno 17395 bound_to 11000

$$$$
