AV-unprocessed.smi:1920|AV-procd|sdf|7778|dock4
  -GOLD-   22720 9523D 1   1.00000     0.00000
 Structure written by MMmdl.
 37 38  0  0  0  0  0  0  0  0  2 V2000
  149.0624  138.8910  156.6968 C   0  0  0  0  0  0  0  0  0  0  0  0
  150.1412  139.6451  155.9076 C   0  0  1  0  0  0  0  0  0  0  0  0
  149.7937  139.7072  154.4049 C   0  0  0  0  0  0  0  0  0  0  0  0
  148.4712  140.2873  154.1473 N   0  0  0  0  0  0  0  0  0  0  0  0
  148.0634  141.5709  154.4068 C   0  0  0  0  0  0  0  0  0  0  0  0
  146.7530  141.6518  154.0120 C   0  0  0  0  0  0  0  0  0  0  0  0
  146.4186  140.4177  153.5225 N   0  3  0  0  0  0  0  0  0  0  0  0
  147.4661  139.5905  153.6012 C   0  0  0  0  0  0  0  0  0  0  0  0
  150.2879  140.9856  156.4737 N   0  0  0  0  0  0  0  0  0  0  0  0
  151.3514  141.4376  157.1574 C   0  0  0  0  0  0  0  0  0  0  0  0
  152.3647  140.7667  157.3540 O   0  0  0  0  0  0  0  0  0  0  0  0
  151.2613  142.8717  157.6899 C   0  0  0  0  0  0  0  0  0  0  0  0
  152.3583  143.2207  158.7195 C   0  0  2  0  0  0  0  0  0  0  0  0
  152.6074  142.1315  159.7352 C   0  0  0  0  0  0  0  0  0  0  0  0
  152.5380  142.5725  160.9891 C   0  0  0  0  0  0  0  0  0  0  0  0
  152.2286  144.0417  161.0662 C   0  0  0  0  0  0  0  0  0  0  0  0
  152.0056  144.4517  159.5933 C   0  0  0  0  0  0  0  0  0  0  0  0
  148.9479  137.8708  156.3294 H   0  0  0  0  0  0  0  0  0  0  0  0
  148.0928  139.3838  156.6169 H   0  0  0  0  0  0  0  0  0  0  0  0
  149.3195  138.8306  157.7549 H   0  0  0  0  0  0  0  0  0  0  0  0
  151.0735  139.0906  156.0315 H   0  0  0  0  0  0  0  0  0  0  0  0
  150.5190  140.3266  153.8758 H   0  0  0  0  0  0  0  0  0  0  0  0
  149.8376  138.7149  153.9524 H   0  0  0  0  0  0  0  0  0  0  0  0
  148.7164  142.3090  154.8495 H   0  0  0  0  0  0  0  0  0  0  0  0
  146.0519  142.4733  154.0429 H   0  0  0  0  0  0  0  0  0  0  0  0
  147.4906  138.5604  153.2932 H   0  0  0  0  0  0  0  0  0  0  0  0
  149.5028  141.6111  156.3628 H   0  0  0  0  0  0  0  0  0  0  0  0
  151.3305  143.5496  156.8386 H   0  0  0  0  0  0  0  0  0  0  0  0
  150.2774  143.0342  158.1334 H   0  0  0  0  0  0  0  0  0  0  0  0
  153.3023  143.4069  158.2047 H   0  0  0  0  0  0  0  0  0  0  0  0
  152.8344  141.1146  159.4499 H   0  0  0  0  0  0  0  0  0  0  0  0
  152.6965  141.9697  161.8711 H   0  0  0  0  0  0  0  0  0  0  0  0
  151.3420  144.2186  161.6758 H   0  0  0  0  0  0  0  0  0  0  0  0
  153.0704  144.5738  161.5099 H   0  0  0  0  0  0  0  0  0  0  0  0
  152.6150  145.3151  159.3250 H   0  0  0  0  0  0  0  0  0  0  0  0
  150.9640  144.7429  159.4514 H   0  0  0  0  0  0  0  0  0  0  0  0
  145.5099  140.1646  153.1549 H   0  0  0  0  0  0  0  0  0  0  0  0
  1  2  1  0  0  0  0
  1 18  1  0  0  0  0
  1 19  1  0  0  0  0
  1 20  1  0  0  0  0
  2  3  1  0  0  0  0
  2  9  1  0  0  0  0
  2 21  1  0  0  0  0
  3  4  1  0  0  0  0
  3 22  1  0  0  0  0
  3 23  1  0  0  0  0
  4  8  1  0  0  0  0
  4  5  1  0  0  0  0
  5  6  2  0  0  0  0
  5 24  1  0  0  0  0
  6  7  1  0  0  0  0
  6 25  1  0  0  0  0
  7  8  2  0  0  0  0
  7 37  1  0  0  0  0
  8 26  1  0  0  0  0
  9 10  1  0  0  0  0
  9 27  1  0  0  0  0
 10 11  2  0  0  0  0
 10 12  1  0  0  0  0
 12 13  1  0  0  0  0
 12 28  1  0  0  0  0
 12 29  1  0  0  0  0
 13 17  1  0  0  0  0
 13 14  1  0  0  0  0
 13 30  1  0  0  0  0
 14 15  2  0  0  0  0
 14 31  1  0  0  0  0
 15 16  1  0  0  0  0
 15 32  1  0  0  0  0
 16 17  1  0  0  0  0
 16 33  1  0  0  0  0
 16 34  1  0  0  0  0
 17 35  1  0  0  0  0
 17 36  1  0  0  0  0
M  CHG  1   7   1
M  END
> <s_m_source_file>
AV-unprocessed.smi

> <i_m_source_file_index>
1920

> <i_lp_mmshare_version>
43012

> <i_f3d_flags>
0

> <s_epik_input>
W2NIXTFuW2NIXVtjSF1uMVtDSDJdW0NAQEhdKFtDSDNdKVtOSF1DKD1PKVtDSDJdW0NAQEhdMltDSF09W0NIXVtDSDJdW0NIMl0y

> <s_epik_cmdline>
J2VwaWtfcHl0aG9uJywgJy1waCcsICc3LjAnLCAnLXRuJywgJzgnLCAnLW1hJywgJzIwMCcsICctbWV0YWxfYmluZGluZycsICctaW1hZScsICc8aW5maWxlLm1hZT4nLCAnLW9tYWUnLCAnPG91dGZpbGUubWFlPic=

> <r_lp_tautomer_probability>
1

> <r_epik_Ionization_Penalty>
0.24816

> <r_epik_Ionization_Penalty_Charging>
0

> <r_epik_Ionization_Penalty_Neutral>
0.24816

> <r_epik_State_Penalty>
0.2394

> <r_epik_Charging_Adjusted_Penalty>
0.2394

> <i_epik_Tot_Q>
1

> <i_epik_Tot_abs_Q>
1

> <r_epik_Metal_State_Penalty>
0.531457

> <b_epik_Metal_Only>
0

> <s_lp_Force_Field>
OPLS_2005

> <r_lp_Energy>
20.1539

> <b_lp_Chiralities_Consistent>
1

> <s_lp_Variant>
AV-unprocessed.smi:1920-2

> <Gold.Version>
5.8.1

> <Gold.Id.Protein>
6NUR|6NUR_protein|mol2

> <Gold.PLP.Fitness>
48.7406

> <Gold.PLP.PLP>
-39.4890

> <Gold.PLP.part.hbond>
-1.7941

> <Gold.PLP.part.metal>
0.0000

> <Gold.PLP.part.buried>
-1.0079

> <Gold.PLP.part.nonpolar>
-35.3797

> <Gold.PLP.part.repulsive>
0.0670

> <Gold.PLP.ligand.clash>
0.0000

> <Gold.PLP.ligand.torsion>
0.4059

> <Gold.PLP.Chemscore.Hbond>
2.3440

> <Gold.PLP.Chemscore.CHOScore>
1.0000

> <Gold.PLP.Chemscore.Metal>
0.0000

> <Gold.Chemscore.Hbonds>
donor molecule, donor type, donor heavy atom, donor atom, acceptor molecule, acceptor atom, score
      L1  H     7    37       P1 10175  2.00
      P1  H  7997  8009       L1    11  0.40
      L1  C     5    24       P1  8028  0.99

> <Gold.PLP.Chemscore.Internal.Correction>
0.0315

> <Gold.Rescore>
     Score         DG    S(hbond)    S(metal)    S(lipo)     H(rot)  DE(clash)    DE(int)     intcor
     15.02     -17.12       1.65        0.00      96.57       2.01       0.18       1.92       ----

> <Gold.Chemscore.Fitness>
15.0238

> <Gold.Chemscore.DG>
-17.1235

> <Gold.Chemscore.ZeroCoef>
-5.4800

> <Gold.Chemscore.Hbond>
1.6463

> <Gold.Chemscore.Metal>
0.0000

> <Gold.Chemscore.Lipo>
96.5661

> <Gold.Chemscore.Internal_Hbond>
0.0000

> <Gold.Chemscore.DEClash>
0.1753

> <Gold.Chemscore.DEInternal>
1.9245

> <Gold.Chemscore.Rot>
2.0130

> <Gold.Chemscore.Internal.Correction>
   9.000000E+99

> <Gold.Chemscore.Hbonds>
donor molecule, donor type, donor heavy atom, donor atom, acceptor molecule, acceptor atom, score
      L1  H     7    37       P1 10175  0.96
      P1  H  7997  8009       L1    11  0.39

> <Gold.Chemscore.Hbond.Weighted>
-5.4985

> <Gold.Chemscore.Metal.Weighted>
-0.0000

> <Gold.Chemscore.Lipo.Weighted>
-11.2982

> <Gold.Chemscore.Internal_Hbond.Weighted>
0.0000

> <Gold.Chemscore.DEClash.Weighted>
0.1753

> <Gold.Chemscore.DEInternal.Weighted>
1.9245

> <Gold.Chemscore.Rot.Weighted>
5.1533

> <Gold.Chemscore.Internal.Correction.Weighted>
   9.000000E+99

> <Gold.Protein.RotatedTorsions>
[ 6907 6896 6895 6894 ] final    7.19 input  -60.11 | X-H torsion
[ 7974 7965 7964 7962 ] final  -89.19 input  175.53 | X-H torsion
[ 8008 7997 7996 7995 ] final  179.05 input   59.86 | X-H torsion
[ 10167 10162 10161 10158 ] final   91.40 input  -65.29 | X-H torsion
[ 10718 10713 10712 10709 ] final -129.44 input   66.30 | X-H torsion
[ 10763 10752 10751 10750 ] final  -74.55 input  -60.55 | X-H torsion
[ 11005 11000 10999 10996 ] final  160.90 input  -57.11 | X-H torsion

> <Gold.Protein.ActiveResidues>
 VAL166  LYS551  ARG553  GLY616  TRP617  ASP618  TYR619  PRO620  LYS621  CYS622 
 ASP623  PHE694  ASN695  SER759  ASP760  ASP761  ALA762  ILE779  LEU786  VAL792 
 PHE793  MET794  SER795  GLU796  ALA797  LYS798  CYS799  TRP800  GLU811  SER814 

> <Gold.Protein.RotatedAtoms>
  151.6859  135.0954  160.0224 H   0  0  0  0  0  0  0  0  0  0  0  0  # atno 6907 bound_to 6896
  152.3807  133.6538  159.6168 H   0  0  0  0  0  0  0  0  0  0  0  0  # atno 6908 bound_to 6896
  150.7745  133.9034  159.3389 H   0  0  0  0  0  0  0  0  0  0  0  0  # atno 6909 bound_to 6896
  145.4431  140.9559  143.2064 H   0  0  0  0  0  0  0  0  0  0  0  0  # atno 7974 bound_to 7965
  156.0478  140.1318  157.0084 H   0  0  0  0  0  0  0  0  0  0  0  0  # atno 8008 bound_to 7997
  154.4420  140.1017  156.6402 H   0  0  0  0  0  0  0  0  0  0  0  0  # atno 8009 bound_to 7997
  155.5570  140.3464  155.4484 H   0  0  0  0  0  0  0  0  0  0  0  0  # atno 8010 bound_to 7997
  139.8379  144.6656  150.9320 H   0  0  0  0  0  0  0  0  0  0  0  0  # atno 10167 bound_to 10162
  156.2047  130.6880  151.0580 H   0  0  0  0  0  0  0  0  0  0  0  0  # atno 10718 bound_to 10713
  154.4746  135.5860  153.6346 H   0  0  0  0  0  0  0  0  0  0  0  0  # atno 10763 bound_to 10752
  152.9839  135.6075  154.3323 H   0  0  0  0  0  0  0  0  0  0  0  0  # atno 10764 bound_to 10752
  154.3208  135.2843  155.2499 H   0  0  0  0  0  0  0  0  0  0  0  0  # atno 10765 bound_to 10752
  140.2105  134.8271  157.3115 H   0  0  0  0  0  0  0  0  0  0  0  0  # atno 11005 bound_to 11000
  144.8109  139.5964  143.7030 LP  0  0  0  0  0  0  0  0  0  0  0  0  # atno 17320 bound_to 7965
  146.2545  139.6273  142.9404 LP  0  0  0  0  0  0  0  0  0  0  0  0  # atno 17321 bound_to 7965
  140.7801  143.3940  151.1261 LP  0  0  0  0  0  0  0  0  0  0  0  0  # atno 17342 bound_to 10162
  139.7589  143.8666  152.3095 LP  0  0  0  0  0  0  0  0  0  0  0  0  # atno 17343 bound_to 10162
  157.7005  131.0777  150.6834 LP  0  0  0  0  0  0  0  0  0  0  0  0  # atno 17370 bound_to 10713
  156.6892  130.4590  149.5605 LP  0  0  0  0  0  0  0  0  0  0  0  0  # atno 17371 bound_to 10713
  140.1956  134.4317  155.7691 LP  0  0  0  0  0  0  0  0  0  0  0  0  # atno 17394 bound_to 11000
  141.2226  133.7048  156.8099 LP  0  0  0  0  0  0  0  0  0  0  0  0  # atno 17395 bound_to 11000

$$$$
