AV-unprocessed.smi:2533|AV-procd|sdf|9973|dock8
  -GOLD-   2272014 23D 1   1.00000     0.00000
 Structure written by MMmdl.
 35 36  0  0  0  0  0  0  0  0  1 V2000
  146.7539  138.6590  151.9078 C   0  0  0  0  0  0  0  0  0  0  0  0
  146.5846  139.9036  152.5699 O   0  0  0  0  0  0  0  0  0  0  0  0
  147.5454  140.2918  153.4794 C   0  0  0  0  0  0  0  0  0  0  0  0
  148.6922  139.5227  153.8003 C   0  0  0  0  0  0  0  0  0  0  0  0
  149.6303  139.9965  154.7375 C   0  0  0  0  0  0  0  0  0  0  0  0
  149.4399  141.2423  155.3708 C   0  0  0  0  0  0  0  0  0  0  0  0
  150.4760  141.7822  156.3488 C   0  0  1  0  0  0  0  0  0  0  0  0
  150.0744  143.0046  156.9321 O   0  0  0  0  0  0  0  0  0  0  0  0
  150.8061  140.7827  157.4826 C   0  0  0  0  0  0  0  0  0  0  0  0
  151.7674  141.3234  158.4539 N   0  0  0  0  0  0  0  0  0  0  0  0
  151.3994  142.5408  159.0021 N   0  0  0  0  0  0  0  0  0  0  0  0
  152.1113  143.1074  159.9217 C   0  0  0  0  0  0  0  0  0  0  0  0
  151.6094  144.4162  160.4786 C   0  0  0  0  0  0  0  0  0  0  0  0
  150.2844  144.3986  160.6263 F   0  0  0  0  0  0  0  0  0  0  0  0
  152.1652  144.6518  161.6675 F   0  0  0  0  0  0  0  0  0  0  0  0
  151.9308  145.4157  159.6561 F   0  0  0  0  0  0  0  0  0  0  0  0
  153.3351  142.4607  160.3649 C   0  0  0  0  0  0  0  0  0  0  0  0
  153.7001  141.2817  159.8174 C   0  0  0  0  0  0  0  0  0  0  0  0
  152.8917  140.6280  158.7912 C   0  0  0  0  0  0  0  0  0  0  0  0
  153.1868  139.5451  158.2865 O   0  0  0  0  0  0  0  0  0  0  0  0
  148.2982  142.0076  155.0577 C   0  0  0  0  0  0  0  0  0  0  0  0
  147.3611  141.5355  154.1192 C   0  0  0  0  0  0  0  0  0  0  0  0
  146.2751  142.2899  153.8263 F   0  0  0  0  0  0  0  0  0  0  0  0
  145.9206  138.4999  151.2234 H   0  0  0  0  0  0  0  0  0  0  0  0
  146.7626  137.8291  152.6155 H   0  0  0  0  0  0  0  0  0  0  0  0
  147.6720  138.6424  151.3189 H   0  0  0  0  0  0  0  0  0  0  0  0
  148.8792  138.5663  153.3368 H   0  0  0  0  0  0  0  0  0  0  0  0
  150.5056  139.4038  154.9597 H   0  0  0  0  0  0  0  0  0  0  0  0
  151.3896  141.9934  155.7917 H   0  0  0  0  0  0  0  0  0  0  0  0
  149.8983  143.6231  156.2393 H   0  0  0  0  0  0  0  0  0  0  0  0
  149.8911  140.4714  157.9899 H   0  0  0  0  0  0  0  0  0  0  0  0
  151.2170  139.8691  157.0475 H   0  0  0  0  0  0  0  0  0  0  0  0
  153.9467  142.9235  161.1252 H   0  0  0  0  0  0  0  0  0  0  0  0
  154.6110  140.8052  160.1489 H   0  0  0  0  0  0  0  0  0  0  0  0
  148.1439  142.9689  155.5254 H   0  0  0  0  0  0  0  0  0  0  0  0
  1  2  1  0  0  0  0
  1 24  1  0  0  0  0
  1 25  1  0  0  0  0
  1 26  1  0  0  0  0
  2  3  1  0  0  0  0
  3 22  1  0  0  0  0
  3  4  2  0  0  0  0
  4  5  1  0  0  0  0
  4 27  1  0  0  0  0
  5  6  2  0  0  0  0
  5 28  1  0  0  0  0
  6  7  1  0  0  0  0
  6 21  1  0  0  0  0
  7  8  1  0  0  0  0
  7  9  1  0  0  0  0
  7 29  1  0  0  0  0
  8 30  1  0  0  0  0
  9 10  1  0  0  0  0
  9 31  1  0  0  0  0
  9 32  1  0  0  0  0
 10 19  1  0  0  0  0
 10 11  1  0  0  0  0
 11 12  2  0  0  0  0
 12 13  1  0  0  0  0
 12 17  1  0  0  0  0
 13 14  1  0  0  0  0
 13 15  1  0  0  0  0
 13 16  1  0  0  0  0
 17 18  2  0  0  0  0
 17 33  1  0  0  0  0
 18 19  1  0  0  0  0
 18 34  1  0  0  0  0
 19 20  2  0  0  0  0
 21 22  2  0  0  0  0
 21 35  1  0  0  0  0
 22 23  1  0  0  0  0
M  END
> <s_m_source_file>
AV-unprocessed.smi

> <i_m_source_file_index>
2533

> <i_lp_mmshare_version>
43012

> <i_f3d_flags>
0

> <s_epik_input>
W0NIM11PYzFbY0hdW2NIXWMoW2NIXWMxRilbQ0BIXShbT0hdKVtDSDJdbjJuYyhDKEYpKEYpRilbY0hdW2NIXWMyPU8=

> <s_epik_cmdline>
J2VwaWtfcHl0aG9uJywgJy1waCcsICc3LjAnLCAnLXRuJywgJzgnLCAnLW1hJywgJzIwMCcsICctbWV0YWxfYmluZGluZycsICctaW1hZScsICc8aW5maWxlLm1hZT4nLCAnLW9tYWUnLCAnPG91dGZpbGUubWFlPic=

> <r_lp_tautomer_probability>
1

> <r_epik_Ionization_Penalty>
5.00966e-08

> <r_epik_Ionization_Penalty_Charging>
3.92872e-09

> <r_epik_Ionization_Penalty_Neutral>
4.61679e-08

> <r_epik_State_Penalty>
-0

> <r_epik_Charging_Adjusted_Penalty>
3.92872e-09

> <i_epik_Tot_Q>
0

> <i_epik_Tot_abs_Q>
0

> <r_epik_Metal_State_Penalty>
-0

> <b_epik_Metal_Only>
0

> <s_lp_Force_Field>
OPLS_2005

> <r_lp_Energy>
30.5098

> <b_lp_Chiralities_Consistent>
1

> <s_lp_Variant>
AV-unprocessed.smi:2533-2

> <Gold.Version>
5.8.1

> <Gold.Id.Protein>
6NUR|6NUR_protein|mol2

> <Gold.PLP.Fitness>
53.1981

> <Gold.PLP.PLP>
-49.4114

> <Gold.PLP.part.hbond>
-1.7190

> <Gold.PLP.part.metal>
0.0000

> <Gold.PLP.part.buried>
2.1817

> <Gold.PLP.part.nonpolar>
-52.0402

> <Gold.PLP.part.repulsive>
1.1958

> <Gold.PLP.ligand.clash>
0.0000

> <Gold.PLP.ligand.torsion>
0.9986

> <Gold.PLP.Chemscore.Hbond>
1.9120

> <Gold.PLP.Chemscore.CHOScore>
0.0000

> <Gold.PLP.Chemscore.Metal>
0.0000

> <Gold.Chemscore.Hbonds>
donor molecule, donor type, donor heavy atom, donor atom, acceptor molecule, acceptor atom, score
      L1  H     8    30       P1  8028  0.93
      P1  H  7997  8008       L1    20  1.00

> <Gold.PLP.Chemscore.Internal.Correction>
0.0478

> <Gold.Rescore>
     Score         DG    S(hbond)    S(metal)    S(lipo)     H(rot)  DE(clash)    DE(int)     intcor
     10.91     -15.57       1.31        0.00     103.44       2.50       2.22       2.43       ----

> <Gold.Chemscore.Fitness>
10.9125

> <Gold.Chemscore.DG>
-15.5650

> <Gold.Chemscore.ZeroCoef>
-5.4800

> <Gold.Chemscore.Hbond>
1.3143

> <Gold.Chemscore.Metal>
0.0000

> <Gold.Chemscore.Lipo>
103.4446

> <Gold.Chemscore.Internal_Hbond>
0.0000

> <Gold.Chemscore.DEClash>
2.2210

> <Gold.Chemscore.DEInternal>
2.4315

> <Gold.Chemscore.Rot>
2.5031

> <Gold.Chemscore.Internal.Correction>
   9.000000E+99

> <Gold.Chemscore.Hbonds>
donor molecule, donor type, donor heavy atom, donor atom, acceptor molecule, acceptor atom, score
      L1  H     8    30       P1  8028  0.89
      P1  H  7997  8008       L1    20  0.31

> <Gold.Chemscore.Hbond.Weighted>
-4.3899

> <Gold.Chemscore.Metal.Weighted>
-0.0000

> <Gold.Chemscore.Lipo.Weighted>
-12.1030

> <Gold.Chemscore.Internal_Hbond.Weighted>
0.0000

> <Gold.Chemscore.DEClash.Weighted>
2.2210

> <Gold.Chemscore.DEInternal.Weighted>
2.4315

> <Gold.Chemscore.Rot.Weighted>
6.4079

> <Gold.Chemscore.Internal.Correction.Weighted>
   9.000000E+99

> <Gold.Protein.RotatedTorsions>
[ 6907 6896 6895 6894 ] final -114.77 input  -60.11 | X-H torsion
[ 7974 7965 7964 7962 ] final  -54.18 input  175.53 | X-H torsion
[ 8008 7997 7996 7995 ] final -104.53 input   59.86 | X-H torsion
[ 10167 10162 10161 10158 ] final  -60.69 input  -65.29 | X-H torsion
[ 10718 10713 10712 10709 ] final   18.86 input   66.30 | X-H torsion
[ 10763 10752 10751 10750 ] final   40.48 input  -60.55 | X-H torsion
[ 11005 11000 10999 10996 ] final  148.00 input  -57.11 | X-H torsion

> <Gold.Protein.ActiveResidues>
 VAL166  LYS551  ARG553  GLY616  TRP617  ASP618  TYR619  PRO620  LYS621  CYS622 
 ASP623  PHE694  ASN695  SER759  ASP760  ASP761  ALA762  ILE779  LEU786  VAL792 
 PHE793  MET794  SER795  GLU796  ALA797  LYS798  CYS799  TRP800  GLU811  SER814 

> <Gold.Protein.RotatedAtoms>
  150.7927  133.8754  159.3270 H   0  0  0  0  0  0  0  0  0  0  0  0  # atno 6907 bound_to 6896
  151.6588  135.0990  160.0185 H   0  0  0  0  0  0  0  0  0  0  0  0  # atno 6908 bound_to 6896
  152.4003  133.6769  159.6346 H   0  0  0  0  0  0  0  0  0  0  0  0  # atno 6909 bound_to 6896
  145.8885  140.8089  142.9803 H   0  0  0  0  0  0  0  0  0  0  0  0  # atno 7974 bound_to 7965
  154.8866  140.0417  157.1814 H   0  0  0  0  0  0  0  0  0  0  0  0  # atno 8008 bound_to 7997
  154.8584  140.2940  155.5533 H   0  0  0  0  0  0  0  0  0  0  0  0  # atno 8009 bound_to 7997
  156.2998  140.2451  156.3554 H   0  0  0  0  0  0  0  0  0  0  0  0  # atno 8010 bound_to 7997
  140.6055  143.2372  151.5831 H   0  0  0  0  0  0  0  0  0  0  0  0  # atno 10167 bound_to 10162
  157.1023  130.6473  149.5876 H   0  0  0  0  0  0  0  0  0  0  0  0  # atno 10718 bound_to 10713
  152.9935  135.6190  154.2633 H   0  0  0  0  0  0  0  0  0  0  0  0  # atno 10763 bound_to 10752
  154.2369  135.2790  155.2870 H   0  0  0  0  0  0  0  0  0  0  0  0  # atno 10764 bound_to 10752
  154.5402  135.5763  153.6891 H   0  0  0  0  0  0  0  0  0  0  0  0  # atno 10765 bound_to 10752
  140.0923  134.9033  157.1670 H   0  0  0  0  0  0  0  0  0  0  0  0  # atno 11005 bound_to 11000
  144.6729  140.1493  143.7431 LP  0  0  0  0  0  0  0  0  0  0  0  0  # atno 17320 bound_to 7965
  145.8937  139.2390  143.1534 LP  0  0  0  0  0  0  0  0  0  0  0  0  # atno 17321 bound_to 7965
  139.5322  144.2884  152.1172 LP  0  0  0  0  0  0  0  0  0  0  0  0  # atno 17342 bound_to 10162
  140.2073  144.4598  150.6402 LP  0  0  0  0  0  0  0  0  0  0  0  0  # atno 17343 bound_to 10162
  155.9870  130.4908  150.7107 LP  0  0  0  0  0  0  0  0  0  0  0  0  # atno 17370 bound_to 10713
  157.4630  131.0885  151.0725 LP  0  0  0  0  0  0  0  0  0  0  0  0  # atno 17371 bound_to 10713
  140.3335  134.2783  155.7224 LP  0  0  0  0  0  0  0  0  0  0  0  0  # atno 17394 bound_to 11000
  141.2081  133.7785  157.0076 LP  0  0  0  0  0  0  0  0  0  0  0  0  # atno 17395 bound_to 11000

$$$$
