AV-unprocessed.smi:3018|AV-procd|sdf|11480|dock2
  -GOLD-   2272016413D 1   1.00000     0.00000
 Structure written by MMmdl.
 45 46  0  0  0  0  0  0  0  0  1 V2000
  148.2941  141.5236  154.4579 C   0  0  0  0  0  0  0  0  0  0  0  0
  149.3555  140.6551  155.1543 C   0  0  0  0  0  0  0  0  0  0  0  0
  149.6078  140.9700  156.6447 C   0  0  1  0  0  0  0  0  0  0  0  0
  150.0992  142.3096  156.7378 O   0  0  0  0  0  0  0  0  0  0  0  0
  150.6282  142.7479  157.9908 C   0  0  0  0  0  0  0  0  0  0  0  0
  150.8486  144.2662  157.8744 C   0  0  0  0  0  0  0  0  0  0  0  0
  151.4839  144.8470  159.1477 C   0  0  0  0  0  0  0  0  0  0  0  0
  152.7969  144.1276  159.4921 C   0  0  0  0  0  0  0  0  0  0  0  0
  152.5849  142.6103  159.6093 C   0  0  0  0  0  0  0  0  0  0  0  0
  151.9517  142.0325  158.3332 C   0  0  0  0  0  0  0  0  0  0  0  0
  148.3580  140.7808  157.5230 C   0  0  0  0  0  0  0  0  0  0  0  0
  148.2874  139.8412  158.3153 O   0  0  0  0  0  0  0  0  0  0  0  0
  147.3547  141.6481  157.3170 N   0  0  0  0  0  0  0  0  0  0  0  0
  146.0275  141.5728  157.9228 C   0  0  0  0  0  0  0  0  0  0  0  0
  144.9301  141.3374  156.8627 C   0  0  0  0  0  0  0  0  0  0  0  0
  143.7246  142.2646  156.9510 C   0  0  0  0  0  0  0  0  0  0  0  0
  143.4783  143.1572  157.8445 N   0  0  0  0  0  0  0  0  0  0  0  0
  142.3030  143.6638  157.3961 N   0  0  0  0  0  0  0  0  0  0  0  0
  141.8558  143.1040  156.2658 C   0  0  0  0  0  0  0  0  0  0  0  0
  140.8368  143.3835  155.6394 O   0  0  0  0  0  0  0  0  0  0  0  0
  142.7664  142.1854  155.9706 N   0  0  0  0  0  0  0  0  0  0  0  0
  141.8588  144.4098  157.9117 H   0  0  0  0  0  0  0  0  0  0  0  0
  142.7776  141.5668  155.1726 H   0  0  0  0  0  0  0  0  0  0  0  0
  148.2533  141.2960  153.3926 H   0  0  0  0  0  0  0  0  0  0  0  0
  148.5201  142.5855  154.5589 H   0  0  0  0  0  0  0  0  0  0  0  0
  147.2973  141.3500  154.8619 H   0  0  0  0  0  0  0  0  0  0  0  0
  149.0787  139.6053  155.0485 H   0  0  0  0  0  0  0  0  0  0  0  0
  150.2975  140.7663  154.6166 H   0  0  0  0  0  0  0  0  0  0  0  0
  150.3837  140.2851  156.9872 H   0  0  0  0  0  0  0  0  0  0  0  0
  149.9141  142.5808  158.7955 H   0  0  0  0  0  0  0  0  0  0  0  0
  151.4907  144.4795  157.0188 H   0  0  0  0  0  0  0  0  0  0  0  0
  149.8979  144.7633  157.6789 H   0  0  0  0  0  0  0  0  0  0  0  0
  151.6675  145.9137  159.0178 H   0  0  0  0  0  0  0  0  0  0  0  0
  150.7865  144.7544  159.9803 H   0  0  0  0  0  0  0  0  0  0  0  0
  153.5394  144.3340  158.7202 H   0  0  0  0  0  0  0  0  0  0  0  0
  153.2023  144.5203  160.4250 H   0  0  0  0  0  0  0  0  0  0  0  0
  153.5361  142.1162  159.8081 H   0  0  0  0  0  0  0  0  0  0  0  0
  151.9423  142.3969  160.4641 H   0  0  0  0  0  0  0  0  0  0  0  0
  151.7874  140.9651  158.4764 H   0  0  0  0  0  0  0  0  0  0  0  0
  152.6491  142.1323  157.5007 H   0  0  0  0  0  0  0  0  0  0  0  0
  147.5036  142.3851  156.6425 H   0  0  0  0  0  0  0  0  0  0  0  0
  145.9783  140.8170  158.7083 H   0  0  0  0  0  0  0  0  0  0  0  0
  145.8427  142.5259  158.4187 H   0  0  0  0  0  0  0  0  0  0  0  0
  145.3616  141.4362  155.8663 H   0  0  0  0  0  0  0  0  0  0  0  0
  144.5802  140.3068  156.9367 H   0  0  0  0  0  0  0  0  0  0  0  0
  1  2  1  0  0  0  0
  1 24  1  0  0  0  0
  1 25  1  0  0  0  0
  1 26  1  0  0  0  0
  2  3  1  0  0  0  0
  2 27  1  0  0  0  0
  2 28  1  0  0  0  0
  3  4  1  0  0  0  0
  3 11  1  0  0  0  0
  3 29  1  0  0  0  0
  4  5  1  0  0  0  0
  5 10  1  0  0  0  0
  5  6  1  0  0  0  0
  5 30  1  0  0  0  0
  6  7  1  0  0  0  0
  6 31  1  0  0  0  0
  6 32  1  0  0  0  0
  7  8  1  0  0  0  0
  7 33  1  0  0  0  0
  7 34  1  0  0  0  0
  8  9  1  0  0  0  0
  8 35  1  0  0  0  0
  8 36  1  0  0  0  0
  9 10  1  0  0  0  0
  9 37  1  0  0  0  0
  9 38  1  0  0  0  0
 10 39  1  0  0  0  0
 10 40  1  0  0  0  0
 11 12  2  0  0  0  0
 11 13  1  0  0  0  0
 13 14  1  0  0  0  0
 13 41  1  0  0  0  0
 14 15  1  0  0  0  0
 14 42  1  0  0  0  0
 14 43  1  0  0  0  0
 15 16  1  0  0  0  0
 15 44  1  0  0  0  0
 15 45  1  0  0  0  0
 16 21  1  0  0  0  0
 16 17  2  0  0  0  0
 17 18  1  0  0  0  0
 18 22  1  0  0  0  0
 18 19  1  0  0  0  0
 19 20  2  0  0  0  0
 19 21  1  0  0  0  0
 21 23  1  0  0  0  0
M  END
> <s_m_source_file>
AV-unprocessed.smi

> <i_m_source_file_index>
3018

> <i_lp_mmshare_version>
43012

> <i_f3d_flags>
0

> <s_epik_input>
W0NIMl0xW0NIMl1bQ0gyXVtDSDJdW0NIMl1bQ0hdMU9bQ0BASF0oW0NIMl1bQ0gzXSlDKD1PKVtOSF1bQ0gyXVtDSDJdYzJuW25IXWMoPU8pW25IXTI=

> <s_epik_cmdline>
J2VwaWtfcHl0aG9uJywgJy1waCcsICc3LjAnLCAnLXRuJywgJzgnLCAnLW1hJywgJzIwMCcsICctbWV0YWxfYmluZGluZycsICctaW1hZScsICc8aW5maWxlLm1hZT4nLCAnLW9tYWUnLCAnPG91dGZpbGUubWFlPic=

> <r_lp_tautomer_probability>
1

> <r_epik_Ionization_Penalty>
0.000773817

> <r_epik_Ionization_Penalty_Charging>
0.000773741

> <r_epik_Ionization_Penalty_Neutral>
7.58514e-08

> <r_epik_State_Penalty>
-0

> <r_epik_Charging_Adjusted_Penalty>
0.000773741

> <i_epik_Tot_Q>
0

> <i_epik_Tot_abs_Q>
0

> <r_epik_Metal_State_Penalty>
0.495152

> <b_epik_Metal_Only>
0

> <s_lp_Force_Field>
OPLS_2005

> <r_lp_Energy>
29.5576

> <b_lp_Chiralities_Consistent>
1

> <s_lp_Variant>
AV-unprocessed.smi:3018-2

> <Gold.Version>
5.8.1

> <Gold.Id.Protein>
6NUR|6NUR_protein|mol2

> <Gold.PLP.Fitness>
43.5277

> <Gold.PLP.PLP>
-38.4931

> <Gold.PLP.part.hbond>
-4.0000

> <Gold.PLP.part.metal>
0.0000

> <Gold.PLP.part.buried>
-4.1593

> <Gold.PLP.part.nonpolar>
-31.0890

> <Gold.PLP.part.repulsive>
0.3919

> <Gold.PLP.ligand.clash>
0.0000

> <Gold.PLP.ligand.torsion>
0.6104

> <Gold.PLP.Chemscore.Hbond>
1.8480

> <Gold.PLP.Chemscore.CHOScore>
0.0000

> <Gold.PLP.Chemscore.Metal>
0.0000

> <Gold.PLP.Chemscore.Internal.Correction>
0.7115

> <Gold.Rescore>
     Score         DG    S(hbond)    S(metal)    S(lipo)     H(rot)  DE(clash)    DE(int)     intcor
      9.13     -10.30       0.81        0.00      84.47       3.04       0.11       1.05       ----

> <Gold.Chemscore.Fitness>
9.1348

> <Gold.Chemscore.DG>
-10.3000

> <Gold.Chemscore.ZeroCoef>
-5.4800

> <Gold.Chemscore.Hbond>
0.8117

> <Gold.Chemscore.Metal>
0.0000

> <Gold.Chemscore.Lipo>
84.4700

> <Gold.Chemscore.Internal_Hbond>
0.0000

> <Gold.Chemscore.DEClash>
0.1132

> <Gold.Chemscore.DEInternal>
1.0521

> <Gold.Chemscore.Rot>
3.0367

> <Gold.Chemscore.Internal.Correction>
   9.000000E+99

> <Gold.Chemscore.Hbond.Weighted>
-2.7109

> <Gold.Chemscore.Metal.Weighted>
-0.0000

> <Gold.Chemscore.Lipo.Weighted>
-9.8830

> <Gold.Chemscore.Internal_Hbond.Weighted>
0.0000

> <Gold.Chemscore.DEClash.Weighted>
0.1132

> <Gold.Chemscore.DEInternal.Weighted>
1.0521

> <Gold.Chemscore.Rot.Weighted>
7.7739

> <Gold.Chemscore.Internal.Correction.Weighted>
   9.000000E+99

> <Gold.Protein.RotatedTorsions>
[ 6907 6896 6895 6894 ] final -171.82 input  -60.11 | X-H torsion
[ 7974 7965 7964 7962 ] final  142.90 input  175.53 | X-H torsion
[ 8008 7997 7996 7995 ] final   -2.23 input   59.86 | X-H torsion
[ 10167 10162 10161 10158 ] final   68.13 input  -65.29 | X-H torsion
[ 10718 10713 10712 10709 ] final  -44.01 input   66.30 | X-H torsion
[ 10763 10752 10751 10750 ] final  134.19 input  -60.55 | X-H torsion
[ 11005 11000 10999 10996 ] final    2.48 input  -57.11 | X-H torsion

> <Gold.Protein.ActiveResidues>
 VAL166  LYS551  ARG553  GLY616  TRP617  ASP618  TYR619  PRO620  LYS621  CYS622 
 ASP623  PHE694  ASN695  SER759  ASP760  ASP761  ALA762  ILE779  LEU786  VAL792 
 PHE793  MET794  SER795  GLU796  ALA797  LYS798  CYS799  TRP800  GLU811  SER814 

> <Gold.Protein.RotatedAtoms>
  151.5301  133.3451  159.2916 H   0  0  0  0  0  0  0  0  0  0  0  0  # atno 6907 bound_to 6896
  150.8599  134.7950  159.7086 H   0  0  0  0  0  0  0  0  0  0  0  0  # atno 6908 bound_to 6896
  152.4622  134.5168  159.9822 H   0  0  0  0  0  0  0  0  0  0  0  0  # atno 6909 bound_to 6896
  144.8967  139.5480  143.5773 H   0  0  0  0  0  0  0  0  0  0  0  0  # atno 7974 bound_to 7965
  154.6380  140.2539  155.7355 H   0  0  0  0  0  0  0  0  0  0  0  0  # atno 8008 bound_to 7997
  156.2514  140.2893  156.0682 H   0  0  0  0  0  0  0  0  0  0  0  0  # atno 8009 bound_to 7997
  155.1640  140.0385  157.2839 H   0  0  0  0  0  0  0  0  0  0  0  0  # atno 8010 bound_to 7997
  140.0820  144.5063  150.7156 H   0  0  0  0  0  0  0  0  0  0  0  0  # atno 10167 bound_to 10162
  156.2430  130.4181  149.8738 H   0  0  0  0  0  0  0  0  0  0  0  0  # atno 10718 bound_to 10713
  153.8196  135.3118  155.3409 H   0  0  0  0  0  0  0  0  0  0  0  0  # atno 10763 bound_to 10752
  154.8018  135.4722  154.0298 H   0  0  0  0  0  0  0  0  0  0  0  0  # atno 10764 bound_to 10752
  153.1702  135.6876  153.8708 H   0  0  0  0  0  0  0  0  0  0  0  0  # atno 10765 bound_to 10752
  140.6038  133.9811  155.8144 H   0  0  0  0  0  0  0  0  0  0  0  0  # atno 11005 bound_to 11000
  146.3085  139.7664  142.9037 LP  0  0  0  0  0  0  0  0  0  0  0  0  # atno 17320 bound_to 7965
  145.3687  141.0339  143.3243 LP  0  0  0  0  0  0  0  0  0  0  0  0  # atno 17321 bound_to 7965
  140.7073  143.2477  151.4688 LP  0  0  0  0  0  0  0  0  0  0  0  0  # atno 17342 bound_to 10162
  139.5774  144.1787  152.1922 LP  0  0  0  0  0  0  0  0  0  0  0  0  # atno 17343 bound_to 10162
  156.6313  130.8667  151.3496 LP  0  0  0  0  0  0  0  0  0  0  0  0  # atno 17370 bound_to 10713
  157.7183  130.9525  150.1339 LP  0  0  0  0  0  0  0  0  0  0  0  0  # atno 17371 bound_to 10713
  141.0854  133.9998  157.3321 LP  0  0  0  0  0  0  0  0  0  0  0  0  # atno 17394 bound_to 11000
  139.9221  135.0201  156.8102 LP  0  0  0  0  0  0  0  0  0  0  0  0  # atno 17395 bound_to 11000

$$$$
