AV-unprocessed.smi:3254|AV-procd|sdf|12456|dock6
  -GOLD-   2272018353D 1   1.00000     0.00000
 Structure written by MMmdl.
 36 37  0  0  0  0  0  0  0  0  1 V2000
  151.3721  142.4472  157.8220 C   0  0  0  0  0  0  0  0  0  0  0  0
  152.0525  141.0767  157.7006 C   0  0  0  0  0  0  0  0  0  0  0  0
  151.6990  140.4059  156.4520 N   0  0  0  0  0  0  0  0  0  0  0  0
  150.6315  140.9199  155.6104 C   0  0  0  0  0  0  0  0  0  0  0  0
  150.4160  139.8559  154.5119 C   0  0  2  0  0  0  0  0  0  0  0  0
  149.0739  139.1234  154.6660 C   0  0  0  0  0  0  0  0  0  0  0  0
  148.8330  138.4780  155.6870 O   0  0  0  0  0  0  0  0  0  0  0  0
  148.2081  139.2368  153.6472 N   0  0  0  0  0  0  0  0  0  0  0  0
  146.8852  138.6257  153.6040 C   0  0  0  0  0  0  0  0  0  0  0  0
  146.4704  138.2745  152.1656 C   0  0  0  0  0  0  0  0  0  0  0  0
  145.4991  137.2002  152.1412 N   0  0  0  0  0  0  0  0  0  0  0  0
  145.6252  135.9729  151.5040 C   0  0  0  0  0  0  0  0  0  0  0  0
  144.4607  135.2811  151.7510 C   0  0  0  0  0  0  0  0  0  0  0  0
  143.6095  136.0594  152.5320 N   0  0  0  0  0  0  0  0  0  0  0  0
  144.2923  137.1809  152.7232 C   0  0  0  0  0  0  0  0  0  0  0  0
  151.6089  138.8888  154.6499 C   0  0  0  0  0  0  0  0  0  0  0  0
  152.2718  139.3055  155.9521 C   0  0  0  0  0  0  0  0  0  0  0  0
  153.2040  138.6801  156.4550 O   0  0  0  0  0  0  0  0  0  0  0  0
  151.6270  142.9223  158.7694 H   0  0  0  0  0  0  0  0  0  0  0  0
  150.2867  142.3525  157.7791 H   0  0  0  0  0  0  0  0  0  0  0  0
  151.6827  143.1197  157.0220 H   0  0  0  0  0  0  0  0  0  0  0  0
  153.1360  141.1905  157.7576 H   0  0  0  0  0  0  0  0  0  0  0  0
  151.7654  140.4497  158.5454 H   0  0  0  0  0  0  0  0  0  0  0  0
  149.7338  141.1099  156.2018 H   0  0  0  0  0  0  0  0  0  0  0  0
  150.9437  141.8693  155.1738 H   0  0  0  0  0  0  0  0  0  0  0  0
  150.4476  140.3360  153.5323 H   0  0  0  0  0  0  0  0  0  0  0  0
  148.4851  139.7849  152.8456 H   0  0  0  0  0  0  0  0  0  0  0  0
  146.9099  137.7231  154.2152 H   0  0  0  0  0  0  0  0  0  0  0  0
  146.1527  139.2919  154.0634 H   0  0  0  0  0  0  0  0  0  0  0  0
  146.0343  139.1399  151.6651 H   0  0  0  0  0  0  0  0  0  0  0  0
  147.3399  137.9737  151.5796 H   0  0  0  0  0  0  0  0  0  0  0  0
  146.5073  135.7018  150.9424 H   0  0  0  0  0  0  0  0  0  0  0  0
  144.1722  134.2914  151.4284 H   0  0  0  0  0  0  0  0  0  0  0  0
  143.9044  138.0084  153.2989 H   0  0  0  0  0  0  0  0  0  0  0  0
  151.3215  137.8367  154.6875 H   0  0  0  0  0  0  0  0  0  0  0  0
  152.3137  139.0154  153.8277 H   0  0  0  0  0  0  0  0  0  0  0  0
  1  2  1  0  0  0  0
  1 19  1  0  0  0  0
  1 20  1  0  0  0  0
  1 21  1  0  0  0  0
  2  3  1  0  0  0  0
  2 22  1  0  0  0  0
  2 23  1  0  0  0  0
  3 17  1  0  0  0  0
  3  4  1  0  0  0  0
  4  5  1  0  0  0  0
  4 24  1  0  0  0  0
  4 25  1  0  0  0  0
  5  6  1  0  0  0  0
  5 16  1  0  0  0  0
  5 26  1  0  0  0  0
  6  7  2  0  0  0  0
  6  8  1  0  0  0  0
  8  9  1  0  0  0  0
  8 27  1  0  0  0  0
  9 10  1  0  0  0  0
  9 28  1  0  0  0  0
  9 29  1  0  0  0  0
 10 11  1  0  0  0  0
 10 30  1  0  0  0  0
 10 31  1  0  0  0  0
 11 15  1  0  0  0  0
 11 12  1  0  0  0  0
 12 13  2  0  0  0  0
 12 32  1  0  0  0  0
 13 14  1  0  0  0  0
 13 33  1  0  0  0  0
 14 15  2  0  0  0  0
 15 34  1  0  0  0  0
 16 17  1  0  0  0  0
 16 35  1  0  0  0  0
 16 36  1  0  0  0  0
 17 18  2  0  0  0  0
M  END
> <s_m_source_file>
AV-unprocessed.smi

> <i_m_source_file_index>
3254

> <i_lp_mmshare_version>
43012

> <i_f3d_flags>
0

> <s_epik_input>
W0NIM11bQ0gyXU4xW0NIMl1bQ0BIXShbQ0gyXUMxPU8pQyg9TylbTkhdW0NIMl1bQ0gyXW4yW2NIXVtjSF1uW2NIXTI=

> <s_epik_cmdline>
J2VwaWtfcHl0aG9uJywgJy1waCcsICc3LjAnLCAnLXRuJywgJzgnLCAnLW1hJywgJzIwMCcsICctbWV0YWxfYmluZGluZycsICctaW1hZScsICc8aW5maWxlLm1hZT4nLCAnLW9tYWUnLCAnPG91dGZpbGUubWFlPic=

> <r_lp_tautomer_probability>
1

> <r_epik_Ionization_Penalty>
0.587394

> <r_epik_Ionization_Penalty_Charging>
0.587394

> <r_epik_Ionization_Penalty_Neutral>
3.11583e-08

> <r_epik_State_Penalty>
0.600671

> <r_epik_Charging_Adjusted_Penalty>
1.18807

> <i_epik_Tot_Q>
0

> <i_epik_Tot_abs_Q>
0

> <r_epik_Metal_State_Penalty>
0.297665

> <b_epik_Metal_Only>
0

> <s_lp_Force_Field>
OPLS_2005

> <r_lp_Energy>
13.3235

> <b_lp_Chiralities_Consistent>
1

> <s_lp_Variant>
AV-unprocessed.smi:3254-4

> <Gold.Version>
5.8.1

> <Gold.Id.Protein>
6NUR|6NUR_protein|mol2

> <Gold.PLP.Fitness>
43.3729

> <Gold.PLP.PLP>
-32.6965

> <Gold.PLP.part.hbond>
-2.0000

> <Gold.PLP.part.metal>
0.0000

> <Gold.PLP.part.buried>
2.9633

> <Gold.PLP.part.nonpolar>
-32.5616

> <Gold.PLP.part.repulsive>
0.2413

> <Gold.PLP.ligand.clash>
0.0000

> <Gold.PLP.ligand.torsion>
0.4443

> <Gold.PLP.Chemscore.Hbond>
1.9920

> <Gold.PLP.Chemscore.CHOScore>
1.8580

> <Gold.PLP.Chemscore.Metal>
0.0000

> <Gold.Chemscore.Hbonds>
donor molecule, donor type, donor heavy atom, donor atom, acceptor molecule, acceptor atom, score
      L1  H     8    27       P1  7957  0.99
      P1  H  7997  8008       L1    18  0.70
      L1  C    12    32       P1  7948  0.67
      L1  C    15    34       P1 10175  0.80

> <Gold.PLP.Chemscore.Internal.Correction>
0.0149

> <Gold.Rescore>
     Score         DG    S(hbond)    S(metal)    S(lipo)     H(rot)  DE(clash)    DE(int)     intcor
     10.91     -13.03       1.86        0.00      59.41       2.20       1.53       0.59       ----

> <Gold.Chemscore.Fitness>
10.9115

> <Gold.Chemscore.DG>
-13.0310

> <Gold.Chemscore.ZeroCoef>
-5.4800

> <Gold.Chemscore.Hbond>
1.8621

> <Gold.Chemscore.Metal>
0.0000

> <Gold.Chemscore.Lipo>
59.4126

> <Gold.Chemscore.Internal_Hbond>
0.0000

> <Gold.Chemscore.DEClash>
1.5337

> <Gold.Chemscore.DEInternal>
0.5858

> <Gold.Chemscore.Rot>
2.1952

> <Gold.Chemscore.Internal.Correction>
   9.000000E+99

> <Gold.Chemscore.Hbonds>
donor molecule, donor type, donor heavy atom, donor atom, acceptor molecule, acceptor atom, score
      L1  H     8    27       P1  7957  0.88
      P1  H  7997  8008       L1    18  0.07

> <Gold.Chemscore.Hbond.Weighted>
-6.2194

> <Gold.Chemscore.Metal.Weighted>
-0.0000

> <Gold.Chemscore.Lipo.Weighted>
-6.9513

> <Gold.Chemscore.Internal_Hbond.Weighted>
0.0000

> <Gold.Chemscore.DEClash.Weighted>
1.5337

> <Gold.Chemscore.DEInternal.Weighted>
0.5858

> <Gold.Chemscore.Rot.Weighted>
5.6197

> <Gold.Chemscore.Internal.Correction.Weighted>
   9.000000E+99

> <Gold.Protein.RotatedTorsions>
[ 6907 6896 6895 6894 ] final -169.25 input  -60.11 | X-H torsion
[ 7974 7965 7964 7962 ] final   46.68 input  175.53 | X-H torsion
[ 8008 7997 7996 7995 ] final  -43.63 input   59.86 | X-H torsion
[ 10167 10162 10161 10158 ] final  -10.49 input  -65.29 | X-H torsion
[ 10718 10713 10712 10709 ] final  151.03 input   66.30 | X-H torsion
[ 10763 10752 10751 10750 ] final  115.96 input  -60.55 | X-H torsion
[ 11005 11000 10999 10996 ] final  -88.73 input  -57.11 | X-H torsion

> <Gold.Protein.ActiveResidues>
 VAL166  LYS551  ARG553  GLY616  TRP617  ASP618  TYR619  PRO620  LYS621  CYS622 
 ASP623  PHE694  ASN695  SER759  ASP760  ASP761  ALA762  ILE779  LEU786  VAL792 
 PHE793  MET794  SER795  GLU796  ALA797  LYS798  CYS799  TRP800  GLU811  SER814 

> <Gold.Protein.RotatedAtoms>
  151.4886  133.3530  159.2849 H   0  0  0  0  0  0  0  0  0  0  0  0  # atno 6907 bound_to 6896
  150.8850  134.8248  159.7263 H   0  0  0  0  0  0  0  0  0  0  0  0  # atno 6908 bound_to 6896
  152.4787  134.4788  159.9711 H   0  0  0  0  0  0  0  0  0  0  0  0  # atno 6909 bound_to 6896
  146.0367  139.4829  142.9804 H   0  0  0  0  0  0  0  0  0  0  0  0  # atno 7974 bound_to 7965
  154.3997  140.1443  156.3550 H   0  0  0  0  0  0  0  0  0  0  0  0  # atno 8008 bound_to 7997
  155.8234  140.3468  155.5507 H   0  0  0  0  0  0  0  0  0  0  0  0  # atno 8009 bound_to 7997
  155.8264  140.0905  157.1809 H   0  0  0  0  0  0  0  0  0  0  0  0  # atno 8010 bound_to 7997
  140.7115  143.5742  150.9060 H   0  0  0  0  0  0  0  0  0  0  0  0  # atno 10167 bound_to 10162
  157.2759  131.0826  151.1566 H   0  0  0  0  0  0  0  0  0  0  0  0  # atno 10718 bound_to 10713
  153.5300  135.3580  155.2671 H   0  0  0  0  0  0  0  0  0  0  0  0  # atno 10763 bound_to 10752
  154.8728  135.4066  154.3163 H   0  0  0  0  0  0  0  0  0  0  0  0  # atno 10764 bound_to 10752
  153.3849  135.7069  153.6605 H   0  0  0  0  0  0  0  0  0  0  0  0  # atno 10765 bound_to 10752
  141.1597  133.7587  156.9493 H   0  0  0  0  0  0  0  0  0  0  0  0  # atno 11005 bound_to 11000
  145.6952  141.0152  143.1534 LP  0  0  0  0  0  0  0  0  0  0  0  0  # atno 17320 bound_to 7965
  144.7055  139.8579  143.7431 LP  0  0  0  0  0  0  0  0  0  0  0  0  # atno 17321 bound_to 7965
  139.9468  143.6318  152.3039 LP  0  0  0  0  0  0  0  0  0  0  0  0  # atno 17342 bound_to 10162
  139.6822  144.7654  151.1588 LP  0  0  0  0  0  0  0  0  0  0  0  0  # atno 17343 bound_to 10162
  157.3020  130.6847  149.6169 LP  0  0  0  0  0  0  0  0  0  0  0  0  # atno 17370 bound_to 10713
  155.9663  130.4389  150.5237 LP  0  0  0  0  0  0  0  0  0  0  0  0  # atno 17371 bound_to 10713
  140.1268  134.9382  157.2281 LP  0  0  0  0  0  0  0  0  0  0  0  0  # atno 17394 bound_to 11000
  140.3003  134.3139  155.7291 LP  0  0  0  0  0  0  0  0  0  0  0  0  # atno 17395 bound_to 11000

$$$$
