AV-unprocessed.smi:290|AV-procd|sdf|2243|dock4
  -GOLD-   2262022123D 1   1.00000     0.00000
 Structure written by MMmdl.
 59 62  0  0  0  0  0  0  0  0  2 V2000
  153.0680  142.2948  161.6977 C   0  0  0  0  0  0  0  0  0  0  0  0
  152.8240  143.4516  160.7160 C   0  0  2  0  0  0  0  0  0  0  0  0
  152.0803  144.4546  161.4028 O   0  0  0  0  0  0  0  0  0  0  0  0
  151.2828  145.1532  160.4637 C   0  0  0  0  0  0  0  0  0  0  0  0
  150.7836  144.0320  159.5657 C   0  0  0  0  0  0  0  0  0  0  0  0
  152.0051  143.1252  159.4344 C   0  0  1  0  0  0  0  0  0  0  0  0
  152.7541  143.5736  158.3168 O   0  0  0  0  0  0  0  0  0  0  0  0
  151.6453  141.6330  159.2082 C   0  0  0  0  0  0  0  0  0  0  0  0
  150.6917  141.4265  158.1290 N   0  0  0  0  0  0  0  0  0  0  0  0
  149.3743  141.8241  158.1033 C   0  0  0  0  0  0  0  0  0  0  0  0
  148.7247  141.5257  157.0117 N   0  0  0  0  0  0  0  0  0  0  0  0
  149.6637  140.8693  156.2236 C   0  0  0  0  0  0  0  0  0  0  0  0
  149.6356  140.2859  154.9236 C   0  0  0  0  0  0  0  0  0  0  0  0
  148.5302  140.3047  154.1308 N   0  0  0  0  0  0  0  0  0  0  0  0
  148.4208  139.2507  153.1227 C   0  0  0  0  0  0  0  0  0  0  0  0
  146.9722  138.7484  153.1734 C   0  0  0  0  0  0  0  0  0  0  0  0
  146.4752  139.2387  154.5404 C   0  0  2  0  0  0  0  0  0  0  0  0
  144.9942  139.2993  154.7029 N   0  3  2  0  0  0  0  0  0  0  0  0
  144.5679  140.1609  155.8340 C   0  0  0  0  0  0  0  0  0  0  0  0
  144.3010  137.9782  154.6926 C   0  0  0  0  0  0  0  0  0  0  0  0
  144.4071  137.1830  153.3719 C   0  0  0  0  0  0  0  0  0  0  0  0
  143.6382  137.7706  152.3448 O   0  0  0  0  0  0  0  0  0  0  0  0
  147.1985  140.5934  154.6626 C   0  0  2  0  0  0  0  0  0  0  0  0
  146.5558  141.7399  153.8532 C   0  0  0  0  0  0  0  0  0  0  0  0
  150.7799  139.6973  154.4845 N   0  0  0  0  0  0  0  0  0  0  0  0
  151.8762  139.6873  155.2482 C   0  0  0  0  0  0  0  0  0  0  0  0
  152.0472  140.1999  156.4672 N   0  0  0  0  0  0  0  0  0  0  0  0
  150.9030  140.7870  156.9201 C   0  0  0  0  0  0  0  0  0  0  0  0
  146.8773  138.5757  155.3088 H   0  0  0  0  0  0  0  0  0  0  0  0
  147.2162  140.9004  155.7075 H   0  0  0  0  0  0  0  0  0  0  0  0
  153.6483  141.4957  161.2365 H   0  0  0  0  0  0  0  0  0  0  0  0
  152.1309  141.8725  162.0609 H   0  0  0  0  0  0  0  0  0  0  0  0
  153.6267  142.6413  162.5674 H   0  0  0  0  0  0  0  0  0  0  0  0
  153.7898  143.8851  160.4494 H   0  0  0  0  0  0  0  0  0  0  0  0
  150.4738  145.7000  160.9483 H   0  0  0  0  0  0  0  0  0  0  0  0
  151.8986  145.8617  159.9072 H   0  0  0  0  0  0  0  0  0  0  0  0
  149.9785  143.5053  160.0801 H   0  0  0  0  0  0  0  0  0  0  0  0
  150.3911  144.3874  158.6118 H   0  0  0  0  0  0  0  0  0  0  0  0
  153.5924  143.8859  158.6218 H   0  0  0  0  0  0  0  0  0  0  0  0
  152.5420  141.0534  158.9852 H   0  0  0  0  0  0  0  0  0  0  0  0
  151.2157  141.2021  160.1130 H   0  0  0  0  0  0  0  0  0  0  0  0
  148.9075  142.3505  158.9230 H   0  0  0  0  0  0  0  0  0  0  0  0
  148.6776  139.6310  152.1336 H   0  0  0  0  0  0  0  0  0  0  0  0
  149.0984  138.4267  153.3520 H   0  0  0  0  0  0  0  0  0  0  0  0
  146.3939  139.2018  152.3676 H   0  0  0  0  0  0  0  0  0  0  0  0
  146.9137  137.6668  153.0541 H   0  0  0  0  0  0  0  0  0  0  0  0
  145.0099  139.8327  156.7751 H   0  0  0  0  0  0  0  0  0  0  0  0
  143.4829  140.1528  155.9431 H   0  0  0  0  0  0  0  0  0  0  0  0
  144.8649  141.1971  155.6765 H   0  0  0  0  0  0  0  0  0  0  0  0
  144.7536  137.3797  155.4842 H   0  0  0  0  0  0  0  0  0  0  0  0
  143.2575  138.0874  154.9886 H   0  0  0  0  0  0  0  0  0  0  0  0
  145.4368  137.0561  153.0404 H   0  0  0  0  0  0  0  0  0  0  0  0
  144.0120  136.1792  153.5296 H   0  0  0  0  0  0  0  0  0  0  0  0
  143.9067  138.6714  152.2421 H   0  0  0  0  0  0  0  0  0  0  0  0
  145.5507  141.9726  154.2035 H   0  0  0  0  0  0  0  0  0  0  0  0
  146.4896  141.5102  152.7897 H   0  0  0  0  0  0  0  0  0  0  0  0
  147.1464  142.6513  153.9500 H   0  0  0  0  0  0  0  0  0  0  0  0
  152.7408  139.2016  154.8200 H   0  0  0  0  0  0  0  0  0  0  0  0
  144.6607  139.7663  153.8717 H   0  0  0  0  0  0  0  0  0  0  0  0
  1  2  1  0  0  0  0
  1 31  1  0  0  0  0
  1 32  1  0  0  0  0
  1 33  1  0  0  0  0
  2  6  1  0  0  0  0
  2  3  1  0  0  0  0
  2 34  1  0  0  0  0
  3  4  1  0  0  0  0
  4  5  1  0  0  0  0
  4 35  1  0  0  0  0
  4 36  1  0  0  0  0
  5  6  1  0  0  0  0
  5 37  1  0  0  0  0
  5 38  1  0  0  0  0
  6  7  1  0  0  0  0
  6  8  1  0  0  0  0
  7 39  1  0  0  0  0
  8  9  1  0  0  0  0
  8 40  1  0  0  0  0
  8 41  1  0  0  0  0
  9 28  1  0  0  0  0
  9 10  1  0  0  0  0
 10 11  2  0  0  0  0
 10 42  1  0  0  0  0
 11 12  1  0  0  0  0
 12 28  2  0  0  0  0
 12 13  1  0  0  0  0
 13 14  1  0  0  0  0
 13 25  2  0  0  0  0
 14 23  1  0  0  0  0
 14 15  1  0  0  0  0
 15 16  1  0  0  0  0
 15 43  1  0  0  0  0
 15 44  1  0  0  0  0
 16 17  1  0  0  0  0
 16 45  1  0  0  0  0
 16 46  1  0  0  0  0
 17 29  1  0  0  0  0
 17 18  1  0  0  0  0
 17 23  1  0  0  0  0
 18 19  1  0  0  0  0
 18 20  1  0  0  0  0
 18 59  1  0  0  0  0
 19 47  1  0  0  0  0
 19 48  1  0  0  0  0
 19 49  1  0  0  0  0
 20 21  1  0  0  0  0
 20 50  1  0  0  0  0
 20 51  1  0  0  0  0
 21 22  1  0  0  0  0
 21 52  1  0  0  0  0
 21 53  1  0  0  0  0
 22 54  1  0  0  0  0
 23 30  1  0  0  0  0
 23 24  1  0  0  0  0
 24 55  1  0  0  0  0
 24 56  1  0  0  0  0
 24 57  1  0  0  0  0
 25 26  1  0  0  0  0
 26 27  2  0  0  0  0
 26 58  1  0  0  0  0
 27 28  1  0  0  0  0
M  CHG  1  18   1
M  END
> <s_m_source_file>
AV-unprocessed.smi

> <i_m_source_file_index>
290

> <i_lp_mmshare_version>
43012

> <i_f3d_flags>
0

> <s_epik_input>
W0NIMl0xW0NIMl1PW0NAQEhdKFtDSDNdKVtDQEBdMShbT0hdKVtDSDJdbihbY0hdbjIpYyhjMjMpbltjSF1uYzNONFtDSDJdW0NIMl1bQ0BIXShbQ0BIXTRbQ0gzXSlOKFtDSDNdKVtDSDJdW0NIMl1bT0hd

> <s_epik_cmdline>
J2VwaWtfcHl0aG9uJywgJy1waCcsICc3LjAnLCAnLXRuJywgJzgnLCAnLW1hJywgJzIwMCcsICctbWV0YWxfYmluZGluZycsICctaW1hZScsICc8aW5maWxlLm1hZT4nLCAnLW9tYWUnLCAnPG91dGZpbGUubWFlPic=

> <r_lp_tautomer_probability>
1

> <r_epik_Ionization_Penalty>
0.0036983

> <r_epik_Ionization_Penalty_Charging>
0.0032725

> <r_epik_Ionization_Penalty_Neutral>
0.000425798

> <r_epik_State_Penalty>
-0

> <r_epik_Charging_Adjusted_Penalty>
0.0032725

> <i_epik_Tot_Q>
1

> <i_epik_Tot_abs_Q>
1

> <r_epik_Metal_State_Penalty>
-0

> <b_epik_Metal_Only>
0

> <s_lp_Force_Field>
OPLS_2005

> <r_lp_Energy>
63.2975

> <b_lp_Chiralities_Consistent>
1

> <s_lp_Variant>
AV-unprocessed.smi:290-29

> <Gold.Version>
5.8.1

> <Gold.Id.Protein>
6NUR|6NUR_protein|mol2

> <Gold.PLP.Fitness>
50.8748

> <Gold.PLP.PLP>
-41.9573

> <Gold.PLP.part.hbond>
-3.8679

> <Gold.PLP.part.metal>
0.0000

> <Gold.PLP.part.buried>
-0.7960

> <Gold.PLP.part.nonpolar>
-37.8325

> <Gold.PLP.part.repulsive>
0.5308

> <Gold.PLP.ligand.clash>
0.0036

> <Gold.PLP.ligand.torsion>
0.9260

> <Gold.PLP.Chemscore.Hbond>
3.4000

> <Gold.PLP.Chemscore.CHOScore>
0.0000

> <Gold.PLP.Chemscore.Metal>
0.0000

> <Gold.Chemscore.Hbonds>
donor molecule, donor type, donor heavy atom, donor atom, acceptor molecule, acceptor atom, score
      L1  H    18    59       P1 10175  2.00
      L1  H    22    54       P1 10175  1.00
      P1  H  7989  7998       L1    25  0.30

> <Gold.PLP.Chemscore.Internal.Correction>
0.5731

> <Gold.Rescore>
     Score         DG    S(hbond)    S(metal)    S(lipo)     H(rot)  DE(clash)    DE(int)     intcor
      9.26     -13.90       1.97        0.00      95.98       3.67       1.54       3.10       ----

> <Gold.Chemscore.Fitness>
9.2595

> <Gold.Chemscore.DG>
-13.9048

> <Gold.Chemscore.ZeroCoef>
-5.4800

> <Gold.Chemscore.Hbond>
1.9700

> <Gold.Chemscore.Metal>
0.0000

> <Gold.Chemscore.Lipo>
95.9786

> <Gold.Chemscore.Internal_Hbond>
0.0000

> <Gold.Chemscore.DEClash>
1.5447

> <Gold.Chemscore.DEInternal>
3.1006

> <Gold.Chemscore.Rot>
3.6658

> <Gold.Chemscore.Internal.Correction>
   9.000000E+99

> <Gold.Chemscore.Hbonds>
donor molecule, donor type, donor heavy atom, donor atom, acceptor molecule, acceptor atom, score
      L1  H    18    59       P1 10175  1.00
      L1  H    22    54       P1 10175  0.96

> <Gold.Chemscore.Hbond.Weighted>
-6.5797

> <Gold.Chemscore.Metal.Weighted>
-0.0000

> <Gold.Chemscore.Lipo.Weighted>
-11.2295

> <Gold.Chemscore.Internal_Hbond.Weighted>
0.0000

> <Gold.Chemscore.DEClash.Weighted>
1.5447

> <Gold.Chemscore.DEInternal.Weighted>
3.1006

> <Gold.Chemscore.Rot.Weighted>
9.3844

> <Gold.Chemscore.Internal.Correction.Weighted>
   9.000000E+99

> <Gold.Protein.RotatedTorsions>
[ 6907 6896 6895 6894 ] final  171.53 input  -60.11 | X-H torsion
[ 7974 7965 7964 7962 ] final  144.81 input  175.53 | X-H torsion
[ 8008 7997 7996 7995 ] final   -8.90 input   59.86 | X-H torsion
[ 10167 10162 10161 10158 ] final  -73.75 input  -65.29 | X-H torsion
[ 10718 10713 10712 10709 ] final -137.30 input   66.30 | X-H torsion
[ 10763 10752 10751 10750 ] final -112.74 input  -60.55 | X-H torsion
[ 11005 11000 10999 10996 ] final    9.41 input  -57.11 | X-H torsion

> <Gold.Protein.ActiveResidues>
 VAL166  LYS551  ARG553  GLY616  TRP617  ASP618  TYR619  PRO620  LYS621  CYS622 
 ASP623  PHE694  ASN695  SER759  ASP760  ASP761  ALA762  ILE779  LEU786  VAL792 
 PHE793  MET794  SER795  GLU796  ALA797  LYS798  CYS799  TRP800  GLU811  SER814 

> <Gold.Protein.RotatedAtoms>
  151.7988  133.3367  159.3520 H   0  0  0  0  0  0  0  0  0  0  0  0  # atno 6907 bound_to 6896
  150.7366  134.5773  159.5930 H   0  0  0  0  0  0  0  0  0  0  0  0  # atno 6908 bound_to 6896
  152.3158  134.7443  160.0377 H   0  0  0  0  0  0  0  0  0  0  0  0  # atno 6909 bound_to 6896
  144.8804  139.5708  143.5845 H   0  0  0  0  0  0  0  0  0  0  0  0  # atno 7974 bound_to 7965
  154.5697  140.2369  155.8210 H   0  0  0  0  0  0  0  0  0  0  0  0  # atno 8008 bound_to 7997
  156.2097  140.3029  155.9662 H   0  0  0  0  0  0  0  0  0  0  0  0  # atno 8009 bound_to 7997
  155.2735  140.0419  157.2999 H   0  0  0  0  0  0  0  0  0  0  0  0  # atno 8010 bound_to 7997
  140.5084  143.2349  151.7635 H   0  0  0  0  0  0  0  0  0  0  0  0  # atno 10167 bound_to 10162
  156.2865  130.7351  151.1364 H   0  0  0  0  0  0  0  0  0  0  0  0  # atno 10718 bound_to 10713
  154.8364  135.4479  154.1241 H   0  0  0  0  0  0  0  0  0  0  0  0  # atno 10763 bound_to 10752
  153.2469  135.6922  153.7728 H   0  0  0  0  0  0  0  0  0  0  0  0  # atno 10764 bound_to 10752
  153.7055  135.3365  155.3210 H   0  0  0  0  0  0  0  0  0  0  0  0  # atno 10765 bound_to 10752
  140.5261  134.0512  155.7859 H   0  0  0  0  0  0  0  0  0  0  0  0  # atno 11005 bound_to 11000
  146.2991  139.7369  142.9105 LP  0  0  0  0  0  0  0  0  0  0  0  0  # atno 17320 bound_to 7965
  145.3965  141.0379  143.3095 LP  0  0  0  0  0  0  0  0  0  0  0  0  # atno 17321 bound_to 7965
  139.4889  144.4425  151.9748 LP  0  0  0  0  0  0  0  0  0  0  0  0  # atno 17342 bound_to 10162
  140.3516  144.3082  150.5948 LP  0  0  0  0  0  0  0  0  0  0  0  0  # atno 17343 bound_to 10162
  157.7330  131.0595  150.5599 LP  0  0  0  0  0  0  0  0  0  0  0  0  # atno 17370 bound_to 10713
  156.5710  130.4280  149.6019 LP  0  0  0  0  0  0  0  0  0  0  0  0  # atno 17371 bound_to 10713
  141.1307  133.9306  157.2540 LP  0  0  0  0  0  0  0  0  0  0  0  0  # atno 17394 bound_to 11000
  139.9579  135.0161  156.9181 LP  0  0  0  0  0  0  0  0  0  0  0  0  # atno 17395 bound_to 11000

$$$$
