AV-unprocessed.smi:2822|AV-procd|sdf|10878|dock9
  -GOLD-   2272015323D 1   1.00000     0.00000
 Structure written by MMmdl.
 40 42  0  0  0  0  0  0  0  0  2 V2000
  148.7293  137.8526  154.7428 Cl  0  0  0  0  0  0  0  0  0  0  0  0
  147.9991  139.3531  154.2896 C   0  0  0  0  0  0  0  0  0  0  0  0
  146.7387  139.3421  153.6572 C   0  0  0  0  0  0  0  0  0  0  0  0
  146.1535  140.5036  153.2961 N   0  3  0  0  0  0  0  0  0  0  0  0
  146.7251  141.7065  153.5151 C   0  0  0  0  0  0  0  0  0  0  0  0
  147.9842  141.7826  154.1439 C   0  0  0  0  0  0  0  0  0  0  0  0
  148.6415  140.5908  154.5398 C   0  0  0  0  0  0  0  0  0  0  0  0
  149.8958  140.5999  155.1685 N   0  0  0  0  0  0  0  0  0  0  0  0
  150.3253  141.7345  155.9715 C   0  0  0  0  0  0  0  0  0  0  0  0
  149.6999  141.6967  157.3785 C   0  0  2  0  0  0  0  0  0  0  0  0
  150.4484  142.5854  158.3897 C   0  0  0  0  0  0  0  0  0  0  0  0
  151.7471  142.0405  158.7667 N   0  0  0  0  0  0  0  0  0  0  0  0
  152.4140  142.9027  159.7424 C   0  0  0  0  0  0  0  0  0  0  0  0
  153.7992  142.3747  160.1467 C   0  0  0  0  0  0  0  0  0  0  0  0
  153.6854  140.9441  160.6910 C   0  0  0  0  0  0  0  0  0  0  0  0
  152.9429  140.0556  159.6817 C   0  0  0  0  0  0  0  0  0  0  0  0
  151.5879  140.6796  159.2874 C   0  0  2  0  0  0  0  0  0  0  0  0
  150.8573  139.7804  158.2707 C   0  0  0  0  0  0  0  0  0  0  0  0
  149.6142  140.3649  157.8893 O   0  0  0  0  0  0  0  0  0  0  0  0
  146.1842  138.4432  153.4307 H   0  0  0  0  0  0  0  0  0  0  0  0
  146.1620  142.5670  153.1839 H   0  0  0  0  0  0  0  0  0  0  0  0
  148.4242  142.7540  154.3139 H   0  0  0  0  0  0  0  0  0  0  0  0
  150.5921  139.9226  154.8892 H   0  0  0  0  0  0  0  0  0  0  0  0
  151.4133  141.7608  156.0311 H   0  0  0  0  0  0  0  0  0  0  0  0
  150.0146  142.6492  155.4651 H   0  0  0  0  0  0  0  0  0  0  0  0
  148.6794  142.0735  157.2991 H   0  0  0  0  0  0  0  0  0  0  0  0
  150.5712  143.5871  157.9762 H   0  0  0  0  0  0  0  0  0  0  0  0
  149.8301  142.6964  159.2820 H   0  0  0  0  0  0  0  0  0  0  0  0
  152.5241  143.9059  159.3287 H   0  0  0  0  0  0  0  0  0  0  0  0
  151.7920  143.0037  160.6332 H   0  0  0  0  0  0  0  0  0  0  0  0
  154.4643  142.3893  159.2824 H   0  0  0  0  0  0  0  0  0  0  0  0
  154.2465  143.0277  160.8966 H   0  0  0  0  0  0  0  0  0  0  0  0
  154.6750  140.5373  160.9001 H   0  0  0  0  0  0  0  0  0  0  0  0
  153.1436  140.9538  161.6374 H   0  0  0  0  0  0  0  0  0  0  0  0
  153.5612  139.9231  158.7927 H   0  0  0  0  0  0  0  0  0  0  0  0
  152.7928  139.0622  160.1060 H   0  0  0  0  0  0  0  0  0  0  0  0
  150.9701  140.7252  160.1861 H   0  0  0  0  0  0  0  0  0  0  0  0
  151.4751  139.6022  157.3903 H   0  0  0  0  0  0  0  0  0  0  0  0
  150.6555  138.8030  158.7093 H   0  0  0  0  0  0  0  0  0  0  0  0
  145.2414  140.4705  152.8395 H   0  0  0  0  0  0  0  0  0  0  0  0
  1  2  1  0  0  0  0
  2  7  1  0  0  0  0
  2  3  2  0  0  0  0
  3  4  1  0  0  0  0
  3 20  1  0  0  0  0
  4  5  2  0  0  0  0
  4 40  1  0  0  0  0
  5  6  1  0  0  0  0
  5 21  1  0  0  0  0
  6  7  2  0  0  0  0
  6 22  1  0  0  0  0
  7  8  1  0  0  0  0
  8  9  1  0  0  0  0
  8 23  1  0  0  0  0
  9 10  1  0  0  0  0
  9 24  1  0  0  0  0
  9 25  1  0  0  0  0
 10 19  1  0  0  0  0
 10 11  1  0  0  0  0
 10 26  1  0  0  0  0
 11 12  1  0  0  0  0
 11 27  1  0  0  0  0
 11 28  1  0  0  0  0
 12 17  1  0  0  0  0
 12 13  1  0  0  0  0
 13 14  1  0  0  0  0
 13 29  1  0  0  0  0
 13 30  1  0  0  0  0
 14 15  1  0  0  0  0
 14 31  1  0  0  0  0
 14 32  1  0  0  0  0
 15 16  1  0  0  0  0
 15 33  1  0  0  0  0
 15 34  1  0  0  0  0
 16 17  1  0  0  0  0
 16 35  1  0  0  0  0
 16 36  1  0  0  0  0
 17 18  1  0  0  0  0
 17 37  1  0  0  0  0
 18 19  1  0  0  0  0
 18 38  1  0  0  0  0
 18 39  1  0  0  0  0
M  CHG  1   4   1
M  END
> <s_m_source_file>
AV-unprocessed.smi

> <i_m_source_file_index>
2822

> <i_lp_mmshare_version>
43012

> <i_f3d_flags>
0

> <s_epik_input>
Q2xjMVtjSF1uW2NIXVtjSF1jMVtOSF1bQ0gyXVtDQEhdKFtDSDJdMilPW0NIMl1bQ0BASF0oTjIzKVtDSDJdW0NIMl1bQ0gyXVtDSDJdMw==

> <s_epik_cmdline>
J2VwaWtfcHl0aG9uJywgJy1waCcsICc3LjAnLCAnLXRuJywgJzgnLCAnLW1hJywgJzIwMCcsICctbWV0YWxfYmluZGluZycsICctaW1hZScsICc8aW5maWxlLm1hZT4nLCAnLW9tYWUnLCAnPG91dGZpbGUubWFlPic=

> <r_epik_Ionization_Penalty>
1.37653

> <r_epik_Ionization_Penalty_Charging>
0.152973

> <r_epik_Ionization_Penalty_Neutral>
1.22356

> <r_epik_State_Penalty>
1.42693

> <r_epik_Charging_Adjusted_Penalty>
1.5799

> <i_epik_Tot_Q>
1

> <i_epik_Tot_abs_Q>
1

> <r_epik_Metal_State_Penalty>
4.59822

> <b_epik_Metal_Only>
0

> <s_lp_Force_Field>
OPLS_2005

> <r_lp_Energy>
45.685

> <b_lp_Chiralities_Consistent>
1

> <s_lp_Variant>
AV-unprocessed.smi:2822-19

> <Gold.Version>
5.8.1

> <Gold.Id.Protein>
6NUR|6NUR_protein|mol2

> <Gold.PLP.Fitness>
39.4432

> <Gold.PLP.PLP>
-34.4331

> <Gold.PLP.part.hbond>
-1.0000

> <Gold.PLP.part.metal>
0.0000

> <Gold.PLP.part.buried>
-6.1705

> <Gold.PLP.part.nonpolar>
-28.6740

> <Gold.PLP.part.repulsive>
0.1386

> <Gold.PLP.ligand.clash>
0.0000

> <Gold.PLP.ligand.torsion>
0.4972

> <Gold.PLP.Chemscore.Hbond>
2.0000

> <Gold.PLP.Chemscore.CHOScore>
0.0000

> <Gold.PLP.Chemscore.Metal>
0.0000

> <Gold.Chemscore.Hbonds>
donor molecule, donor type, donor heavy atom, donor atom, acceptor molecule, acceptor atom, score
      L1  H     4    40       P1 10175  2.00

> <Gold.PLP.Chemscore.Internal.Correction>
0.0045

> <Gold.Rescore>
     Score         DG    S(hbond)    S(metal)    S(lipo)     H(rot)  DE(clash)    DE(int)     intcor
     17.42     -17.96       0.97        0.00     104.66       1.18       0.07       0.47       ----

> <Gold.Chemscore.Fitness>
17.4212

> <Gold.Chemscore.DG>
-17.9608

> <Gold.Chemscore.ZeroCoef>
-5.4800

> <Gold.Chemscore.Hbond>
0.9740

> <Gold.Chemscore.Metal>
0.0000

> <Gold.Chemscore.Lipo>
104.6597

> <Gold.Chemscore.Internal_Hbond>
0.0000

> <Gold.Chemscore.DEClash>
0.0668

> <Gold.Chemscore.DEInternal>
0.4728

> <Gold.Chemscore.Rot>
1.1788

> <Gold.Chemscore.Internal.Correction>
   9.000000E+99

> <Gold.Chemscore.Hbonds>
donor molecule, donor type, donor heavy atom, donor atom, acceptor molecule, acceptor atom, score
      L1  H     4    40       P1 10175  0.84

> <Gold.Chemscore.Hbond.Weighted>
-3.2533

> <Gold.Chemscore.Metal.Weighted>
-0.0000

> <Gold.Chemscore.Lipo.Weighted>
-12.2452

> <Gold.Chemscore.Internal_Hbond.Weighted>
0.0000

> <Gold.Chemscore.DEClash.Weighted>
0.0668

> <Gold.Chemscore.DEInternal.Weighted>
0.4728

> <Gold.Chemscore.Rot.Weighted>
3.0177

> <Gold.Chemscore.Internal.Correction.Weighted>
   9.000000E+99

> <Gold.Protein.RotatedTorsions>
[ 6907 6896 6895 6894 ] final  -46.36 input  -60.11 | X-H torsion
[ 7974 7965 7964 7962 ] final  178.49 input  175.53 | X-H torsion
[ 8008 7997 7996 7995 ] final  174.76 input   59.86 | X-H torsion
[ 10167 10162 10161 10158 ] final  -64.51 input  -65.29 | X-H torsion
[ 10718 10713 10712 10709 ] final   15.17 input   66.30 | X-H torsion
[ 10763 10752 10751 10750 ] final   11.14 input  -60.55 | X-H torsion
[ 11005 11000 10999 10996 ] final -177.45 input  -57.11 | X-H torsion

> <Gold.Protein.ActiveResidues>
 VAL166  LYS551  ARG553  GLY616  TRP617  ASP618  TYR619  PRO620  LYS621  CYS622 
 ASP623  PHE694  ASN695  SER759  ASP760  ASP761  ALA762  ILE779  LEU786  VAL792 
 PHE793  MET794  SER795  GLU796  ALA797  LYS798  CYS799  TRP800  GLU811  SER814 

> <Gold.Protein.RotatedAtoms>
  150.9120  134.8537  159.7431 H   0  0  0  0  0  0  0  0  0  0  0  0  # atno 6907 bound_to 6896
  152.4949  134.4344  159.9533 H   0  0  0  0  0  0  0  0  0  0  0  0  # atno 6908 bound_to 6896
  151.4386  133.3610  159.2814 H   0  0  0  0  0  0  0  0  0  0  0  0  # atno 6909 bound_to 6896
  144.7156  140.0405  143.6437 H   0  0  0  0  0  0  0  0  0  0  0  0  # atno 7974 bound_to 7965
  156.0941  140.1426  156.9554 H   0  0  0  0  0  0  0  0  0  0  0  0  # atno 8008 bound_to 7997
  154.4660  140.0926  156.7067 H   0  0  0  0  0  0  0  0  0  0  0  0  # atno 8009 bound_to 7997
  155.4871  140.3447  155.4351 H   0  0  0  0  0  0  0  0  0  0  0  0  # atno 8010 bound_to 7997
  140.5796  143.2326  151.6370 H   0  0  0  0  0  0  0  0  0  0  0  0  # atno 10167 bound_to 10162
  157.0497  130.6265  149.5765 H   0  0  0  0  0  0  0  0  0  0  0  0  # atno 10718 bound_to 10713
  153.1958  135.6849  153.8294 H   0  0  0  0  0  0  0  0  0  0  0  0  # atno 10763 bound_to 10752
  153.7578  135.3214  155.3333 H   0  0  0  0  0  0  0  0  0  0  0  0  # atno 10764 bound_to 10752
  154.8143  135.4696  154.0701 H   0  0  0  0  0  0  0  0  0  0  0  0  # atno 10765 bound_to 10752
  140.4408  134.6433  157.4756 H   0  0  0  0  0  0  0  0  0  0  0  0  # atno 11005 bound_to 11000
  146.0027  139.3105  143.0917 LP  0  0  0  0  0  0  0  0  0  0  0  0  # atno 17320 bound_to 7965
  145.8774  140.9383  143.0619 LP  0  0  0  0  0  0  0  0  0  0  0  0  # atno 17321 bound_to 7965
  139.5162  144.3354  152.0789 LP  0  0  0  0  0  0  0  0  0  0  0  0  # atno 17342 bound_to 10162
  140.2502  144.4177  150.6225 LP  0  0  0  0  0  0  0  0  0  0  0  0  # atno 17343 bound_to 10162
  156.0011  130.5091  150.7667 LP  0  0  0  0  0  0  0  0  0  0  0  0  # atno 17370 bound_to 10713
  157.5040  131.0920  151.0280 LP  0  0  0  0  0  0  0  0  0  0  0  0  # atno 17371 bound_to 10713
  140.0071  134.6747  155.9438 LP  0  0  0  0  0  0  0  0  0  0  0  0  # atno 17394 bound_to 11000
  141.1706  133.6537  156.4639 LP  0  0  0  0  0  0  0  0  0  0  0  0  # atno 17395 bound_to 11000

$$$$
