AV-unprocessed.smi:2772|AV-procd|sdf|10668|dock3
  -GOLD-   2272015113D 1   1.00000     0.00000
 Structure written by MMmdl.
 54 56  0  0  0  0  0  0  0  0  2 V2000
  144.9465  132.0162  149.8920 C   0  0  0  0  0  0  0  0  0  0  0  0
  145.1047  133.3896  150.5104 C   0  0  0  0  0  0  0  0  0  0  0  0
  145.9466  133.5907  151.6235 C   0  0  0  0  0  0  0  0  0  0  0  0
  146.0539  134.8879  152.1608 C   0  0  0  0  0  0  0  0  0  0  0  0
  145.3084  135.9364  151.5704 C   0  0  0  0  0  0  0  0  0  0  0  0
  145.3469  137.2867  152.0104 N   0  0  0  0  0  0  0  0  0  0  0  0
  146.0776  137.8174  153.0056 C   0  0  0  0  0  0  0  0  0  0  0  0
  146.8405  137.1907  153.7409 O   0  0  0  0  0  0  0  0  0  0  0  0
  145.8577  139.1350  153.1182 N   0  0  0  0  0  0  0  0  0  0  0  0
  146.4763  140.0088  154.1107 C   0  0  0  0  0  0  0  0  0  0  0  0
  147.8875  140.3950  153.6622 C   0  0  0  0  0  0  0  0  0  0  0  0
  148.6073  141.2226  154.7410 C   0  0  0  0  0  0  0  0  0  0  0  0
  148.7184  140.4905  156.0150 N   0  0  0  0  0  0  0  0  0  0  0  0
  149.4726  141.2646  157.0278 C   0  0  2  0  0  0  0  0  0  0  0  0
  148.5820  142.3381  157.7122 C   0  0  0  0  0  0  0  0  0  0  0  0
  149.3693  143.2503  158.6662 C   0  0  0  0  0  0  0  0  0  0  0  0
  150.4918  143.9115  157.9659 N   0  3  1  0  0  0  0  0  0  0  0  0
  151.1837  144.9029  158.8175 C   0  0  0  0  0  0  0  0  0  0  0  0
  151.4190  142.9141  157.3883 C   0  0  0  0  0  0  0  0  0  0  0  0
  150.6916  141.9923  156.3962 C   0  0  0  0  0  0  0  0  0  0  0  0
  147.3549  140.1823  156.4806 C   0  0  0  0  0  0  0  0  0  0  0  0
  146.5837  139.3128  155.4728 C   0  0  0  0  0  0  0  0  0  0  0  0
  144.5107  135.6258  150.4490 C   0  0  0  0  0  0  0  0  0  0  0  0
  144.4016  134.3850  149.9283 N   0  0  0  0  0  0  0  0  0  0  0  0
  145.5131  131.2657  150.4443 H   0  0  0  0  0  0  0  0  0  0  0  0
  145.3026  132.0210  148.8616 H   0  0  0  0  0  0  0  0  0  0  0  0
  143.8978  131.7175  149.8928 H   0  0  0  0  0  0  0  0  0  0  0  0
  146.5029  132.7726  152.0569 H   0  0  0  0  0  0  0  0  0  0  0  0
  146.7119  135.0540  152.9997 H   0  0  0  0  0  0  0  0  0  0  0  0
  144.6986  137.9104  151.5523 H   0  0  0  0  0  0  0  0  0  0  0  0
  145.2108  139.5653  152.4738 H   0  0  0  0  0  0  0  0  0  0  0  0
  145.8815  140.9187  154.2132 H   0  0  0  0  0  0  0  0  0  0  0  0
  148.4714  139.4990  153.4452 H   0  0  0  0  0  0  0  0  0  0  0  0
  147.8396  140.9651  152.7336 H   0  0  0  0  0  0  0  0  0  0  0  0
  149.5890  141.4523  154.3342 H   0  0  0  0  0  0  0  0  0  0  0  0
  148.0929  142.1720  154.8982 H   0  0  0  0  0  0  0  0  0  0  0  0
  149.8348  140.5758  157.7929 H   0  0  0  0  0  0  0  0  0  0  0  0
  148.0878  142.9477  156.9539 H   0  0  0  0  0  0  0  0  0  0  0  0
  147.7956  141.8800  158.3097 H   0  0  0  0  0  0  0  0  0  0  0  0
  148.6999  144.0068  159.0781 H   0  0  0  0  0  0  0  0  0  0  0  0
  149.7516  142.6724  159.5094 H   0  0  0  0  0  0  0  0  0  0  0  0
  151.6436  144.4238  159.6830 H   0  0  0  0  0  0  0  0  0  0  0  0
  150.4827  145.6573  159.1765 H   0  0  0  0  0  0  0  0  0  0  0  0
  151.9640  145.4166  158.2553 H   0  0  0  0  0  0  0  0  0  0  0  0
  152.2331  143.4273  156.8749 H   0  0  0  0  0  0  0  0  0  0  0  0
  151.8707  142.3249  158.1881 H   0  0  0  0  0  0  0  0  0  0  0  0
  151.4362  141.2850  156.0355 H   0  0  0  0  0  0  0  0  0  0  0  0
  150.3673  142.5747  155.5322 H   0  0  0  0  0  0  0  0  0  0  0  0
  147.3740  139.6178  157.4096 H   0  0  0  0  0  0  0  0  0  0  0  0
  146.8098  141.1067  156.6777 H   0  0  0  0  0  0  0  0  0  0  0  0
  145.5885  139.0993  155.8648 H   0  0  0  0  0  0  0  0  0  0  0  0
  147.0862  138.3501  155.3646 H   0  0  0  0  0  0  0  0  0  0  0  0
  143.9359  136.3955  149.9550 H   0  0  0  0  0  0  0  0  0  0  0  0
  150.0932  144.4236  157.1915 H   0  0  0  0  0  0  0  0  0  0  0  0
  1  2  1  0  0  0  0
  1 25  1  0  0  0  0
  1 26  1  0  0  0  0
  1 27  1  0  0  0  0
  2 24  1  0  0  0  0
  2  3  2  0  0  0  0
  3  4  1  0  0  0  0
  3 28  1  0  0  0  0
  4  5  2  0  0  0  0
  4 29  1  0  0  0  0
  5  6  1  0  0  0  0
  5 23  1  0  0  0  0
  6  7  1  0  0  0  0
  6 30  1  0  0  0  0
  7  8  2  0  0  0  0
  7  9  1  0  0  0  0
  9 10  1  0  0  0  0
  9 31  1  0  0  0  0
 10 22  1  0  0  0  0
 10 11  1  0  0  0  0
 10 32  1  0  0  0  0
 11 12  1  0  0  0  0
 11 33  1  0  0  0  0
 11 34  1  0  0  0  0
 12 13  1  0  0  0  0
 12 35  1  0  0  0  0
 12 36  1  0  0  0  0
 13 14  1  0  0  0  0
 13 21  1  0  0  0  0
 14 20  1  0  0  0  0
 14 15  1  0  0  0  0
 14 37  1  0  0  0  0
 15 16  1  0  0  0  0
 15 38  1  0  0  0  0
 15 39  1  0  0  0  0
 16 17  1  0  0  0  0
 16 40  1  0  0  0  0
 16 41  1  0  0  0  0
 17 18  1  0  0  0  0
 17 19  1  0  0  0  0
 17 54  1  0  0  0  0
 18 42  1  0  0  0  0
 18 43  1  0  0  0  0
 18 44  1  0  0  0  0
 19 20  1  0  0  0  0
 19 45  1  0  0  0  0
 19 46  1  0  0  0  0
 20 47  1  0  0  0  0
 20 48  1  0  0  0  0
 21 22  1  0  0  0  0
 21 49  1  0  0  0  0
 21 50  1  0  0  0  0
 22 51  1  0  0  0  0
 22 52  1  0  0  0  0
 23 24  2  0  0  0  0
 23 53  1  0  0  0  0
M  CHG  1  17   1
M  END
> <s_m_source_file>
AV-unprocessed.smi

> <i_m_source_file_index>
2772

> <i_lp_mmshare_version>
43012

> <i_f3d_flags>
0

> <s_epik_input>
W0NIM11jMVtjSF1bY0hdYyhbY0hdbjEpW05IXUMoPU8pW05IXVtDSF0yW0NIMl1bQ0gyXU4oW0NIMl1bQ0gyXTIpW0NIXTNbQ0gyXVtDSDJdTihbQ0gzXSlbQ0gyXVtDSDJdMw==

> <s_epik_cmdline>
J2VwaWtfcHl0aG9uJywgJy1waCcsICc3LjAnLCAnLXRuJywgJzgnLCAnLW1hJywgJzIwMCcsICctbWV0YWxfYmluZGluZycsICctaW1hZScsICc8aW5maWxlLm1hZT4nLCAnLW9tYWUnLCAnPG91dGZpbGUubWFlPic=

> <r_epik_Ionization_Penalty>
1.02952

> <r_epik_Ionization_Penalty_Charging>
0.000974969

> <r_epik_Ionization_Penalty_Neutral>
1.02854

> <r_epik_State_Penalty>
1.11259

> <r_epik_Charging_Adjusted_Penalty>
1.11356

> <i_epik_Tot_Q>
1

> <i_epik_Tot_abs_Q>
1

> <r_epik_Metal_State_Penalty>
1.1091

> <b_epik_Metal_Only>
0

> <s_lp_Force_Field>
OPLS_2005

> <r_lp_Energy>
33.5329

> <b_lp_Chiralities_Consistent>
1

> <s_lp_Variant>
AV-unprocessed.smi:2772-5

> <Gold.Version>
5.8.1

> <Gold.Id.Protein>
6NUR|6NUR_protein|mol2

> <Gold.PLP.Fitness>
49.2433

> <Gold.PLP.PLP>
-36.1863

> <Gold.PLP.part.hbond>
-3.0000

> <Gold.PLP.part.metal>
0.0000

> <Gold.PLP.part.buried>
-3.9874

> <Gold.PLP.part.nonpolar>
-30.5906

> <Gold.PLP.part.repulsive>
2.1688

> <Gold.PLP.ligand.clash>
0.0000

> <Gold.PLP.ligand.torsion>
0.6613

> <Gold.PLP.Chemscore.Hbond>
3.7920

> <Gold.PLP.Chemscore.CHOScore>
1.0000

> <Gold.PLP.Chemscore.Metal>
0.0000

> <Gold.Chemscore.Hbonds>
donor molecule, donor type, donor heavy atom, donor atom, acceptor molecule, acceptor atom, score
      L1  H     6    30       P1 10171  0.95
      L1  H     9    31       P1 10175  0.83
      L1  H    17    54       P1  8028  2.00
      L1  C    23    53       P1 10171  1.00

> <Gold.PLP.Chemscore.Internal.Correction>
0.0036

> <Gold.Rescore>
     Score         DG    S(hbond)    S(metal)    S(lipo)     H(rot)  DE(clash)    DE(int)     intcor
     17.83     -21.79       2.34        0.00      98.81       1.20       0.62       3.33       ----

> <Gold.Chemscore.Fitness>
17.8346

> <Gold.Chemscore.DG>
-21.7870

> <Gold.Chemscore.ZeroCoef>
-5.4800

> <Gold.Chemscore.Hbond>
2.3387

> <Gold.Chemscore.Metal>
0.0000

> <Gold.Chemscore.Lipo>
98.8106

> <Gold.Chemscore.Internal_Hbond>
0.0000

> <Gold.Chemscore.DEClash>
0.6182

> <Gold.Chemscore.DEInternal>
3.3342

> <Gold.Chemscore.Rot>
1.1974

> <Gold.Chemscore.Internal.Correction>
   9.000000E+99

> <Gold.Chemscore.Hbonds>
donor molecule, donor type, donor heavy atom, donor atom, acceptor molecule, acceptor atom, score
      L1  H     6    30       P1 10171  0.85
      L1  H     9    31       P1 10175  0.81
      L1  H    17    54       P1  8028  0.54

> <Gold.Chemscore.Hbond.Weighted>
-7.8114

> <Gold.Chemscore.Metal.Weighted>
-0.0000

> <Gold.Chemscore.Lipo.Weighted>
-11.5608

> <Gold.Chemscore.Internal_Hbond.Weighted>
0.0000

> <Gold.Chemscore.DEClash.Weighted>
0.6182

> <Gold.Chemscore.DEInternal.Weighted>
3.3342

> <Gold.Chemscore.Rot.Weighted>
3.0652

> <Gold.Chemscore.Internal.Correction.Weighted>
   9.000000E+99

> <Gold.Protein.RotatedTorsions>
[ 6907 6896 6895 6894 ] final   -3.45 input  -60.11 | X-H torsion
[ 7974 7965 7964 7962 ] final  142.75 input  175.53 | X-H torsion
[ 8008 7997 7996 7995 ] final -147.66 input   59.86 | X-H torsion
[ 10167 10162 10161 10158 ] final -126.65 input  -65.29 | X-H torsion
[ 10718 10713 10712 10709 ] final  136.12 input   66.30 | X-H torsion
[ 10763 10752 10751 10750 ] final   83.93 input  -60.55 | X-H torsion
[ 11005 11000 10999 10996 ] final   -5.18 input  -57.11 | X-H torsion

> <Gold.Protein.ActiveResidues>
 VAL166  LYS551  ARG553  GLY616  TRP617  ASP618  TYR619  PRO620  LYS621  CYS622 
 ASP623  PHE694  ASN695  SER759  ASP760  ASP761  ALA762  ILE779  LEU786  VAL792 
 PHE793  MET794  SER795  GLU796  ALA797  LYS798  CYS799  TRP800  GLU811  SER814 

> <Gold.Protein.RotatedAtoms>
  151.5135  135.1065  159.9859 H   0  0  0  0  0  0  0  0  0  0  0  0  # atno 6907 bound_to 6896
  152.4651  133.7902  159.6908 H   0  0  0  0  0  0  0  0  0  0  0  0  # atno 6908 bound_to 6896
  150.8631  133.7550  159.3011 H   0  0  0  0  0  0  0  0  0  0  0  0  # atno 6909 bound_to 6896
  144.8980  139.5463  143.5767 H   0  0  0  0  0  0  0  0  0  0  0  0  # atno 7974 bound_to 7965
  155.5790  140.0641  157.2788 H   0  0  0  0  0  0  0  0  0  0  0  0  # atno 8008 bound_to 7997
  154.4338  140.1855  156.1004 H   0  0  0  0  0  0  0  0  0  0  0  0  # atno 8009 bound_to 7997
  156.0319  140.3305  155.7152 H   0  0  0  0  0  0  0  0  0  0  0  0  # atno 8010 bound_to 7997
  139.9692  143.5864  152.2418 H   0  0  0  0  0  0  0  0  0  0  0  0  # atno 10167 bound_to 10162
  157.4499  131.1065  151.0045 H   0  0  0  0  0  0  0  0  0  0  0  0  # atno 10718 bound_to 10713
  153.1336  135.4673  154.9387 H   0  0  0  0  0  0  0  0  0  0  0  0  # atno 10763 bound_to 10752
  154.7686  135.3152  154.8239 H   0  0  0  0  0  0  0  0  0  0  0  0  # atno 10764 bound_to 10752
  153.8776  135.6897  153.4823 H   0  0  0  0  0  0  0  0  0  0  0  0  # atno 10765 bound_to 10752
  140.6883  133.9093  155.8601 H   0  0  0  0  0  0  0  0  0  0  0  0  # atno 11005 bound_to 11000
  146.3092  139.7687  142.9032 LP  0  0  0  0  0  0  0  0  0  0  0  0  # atno 17320 bound_to 7965
  145.3666  141.0335  143.3255 LP  0  0  0  0  0  0  0  0  0  0  0  0  # atno 17321 bound_to 7965
  139.6494  144.7660  151.2179 LP  0  0  0  0  0  0  0  0  0  0  0  0  # atno 17342 bound_to 10162
  140.7527  143.6186  150.8535 LP  0  0  0  0  0  0  0  0  0  0  0  0  # atno 17343 bound_to 10162
  157.0878  130.5930  149.5433 LP  0  0  0  0  0  0  0  0  0  0  0  0  # atno 17370 bound_to 10713
  155.9983  130.5056  150.7565 LP  0  0  0  0  0  0  0  0  0  0  0  0  # atno 17371 bound_to 10713
  141.0262  134.0820  157.4066 LP  0  0  0  0  0  0  0  0  0  0  0  0  # atno 17394 bound_to 11000
  139.8931  135.0128  156.6880 LP  0  0  0  0  0  0  0  0  0  0  0  0  # atno 17395 bound_to 11000

$$$$
