AV-unprocessed.smi:671|AV-procd|sdf|3273|dock6
  -GOLD-   22720 0233D 1   1.00000     0.00000
 Structure written by MMmdl.
 49 50  0  0  0  0  0  0  0  0  1 V2000
  148.5158  133.4259  153.4840 C   0  0  0  0  0  0  0  0  0  0  0  0
  147.4965  132.5091  152.8691 C   0  0  0  0  0  0  0  0  0  0  0  0
  147.5005  131.2273  153.1941 N   0  0  0  0  0  0  0  0  0  0  0  0
  146.4937  130.6873  152.4784 N   0  0  0  0  0  0  0  0  0  0  0  0
  146.2178  129.2689  152.5996 C   0  0  0  0  0  0  0  0  0  0  0  0
  145.8492  131.6310  151.7020 C   0  0  0  0  0  0  0  0  0  0  0  0
  144.6961  131.2814  150.8174 C   0  0  0  0  0  0  0  0  0  0  0  0
  146.4735  132.8287  151.9282 C   0  0  0  0  0  0  0  0  0  0  0  0
  146.1758  134.1809  151.3331 C   0  0  0  0  0  0  0  0  0  0  0  0
  145.6309  135.1777  152.3806 C   0  0  2  0  0  0  0  0  0  0  0  0
  144.3827  135.9264  151.8876 C   0  0  0  0  0  0  0  0  0  0  0  0
  146.6577  136.1592  152.7400 N   0  0  0  0  0  0  0  0  0  0  0  0
  146.5855  137.1392  153.6599 C   0  0  0  0  0  0  0  0  0  0  0  0
  145.5707  137.3296  154.3273 O   0  0  0  0  0  0  0  0  0  0  0  0
  147.6958  137.8879  153.7670 N   0  0  0  0  0  0  0  0  0  0  0  0
  147.8796  139.0145  154.6764 C   0  0  2  0  0  0  0  0  0  0  0  0
  146.7860  140.0719  154.4359 C   0  0  0  0  0  0  0  0  0  0  0  0
  147.4834  141.2552  153.7660 C   0  0  0  0  0  0  0  0  0  0  0  0
  148.8968  141.2173  154.3366 C   0  0  0  0  0  0  0  0  0  0  0  0
  149.2298  139.7237  154.4217 C   0  0  1  0  0  0  0  0  0  0  0  0
  150.3070  139.3994  155.4663 C   0  0  0  0  0  0  0  0  0  0  0  0
  148.0770  134.3896  153.7402 H   0  0  0  0  0  0  0  0  0  0  0  0
  149.3384  133.6100  152.7935 H   0  0  0  0  0  0  0  0  0  0  0  0
  148.9368  133.0061  154.3980 H   0  0  0  0  0  0  0  0  0  0  0  0
  145.2866  129.1233  153.1475 H   0  0  0  0  0  0  0  0  0  0  0  0
  147.0254  128.7641  153.1314 H   0  0  0  0  0  0  0  0  0  0  0  0
  146.1221  128.8258  151.6080 H   0  0  0  0  0  0  0  0  0  0  0  0
  144.1824  132.1750  150.4643 H   0  0  0  0  0  0  0  0  0  0  0  0
  143.9665  130.6705  151.3493 H   0  0  0  0  0  0  0  0  0  0  0  0
  145.0353  130.7226  149.9451 H   0  0  0  0  0  0  0  0  0  0  0  0
  147.0842  134.5813  150.8826 H   0  0  0  0  0  0  0  0  0  0  0  0
  145.4675  134.0991  150.5083 H   0  0  0  0  0  0  0  0  0  0  0  0
  145.3437  134.6322  153.2808 H   0  0  0  0  0  0  0  0  0  0  0  0
  143.5636  135.2391  151.6757 H   0  0  0  0  0  0  0  0  0  0  0  0
  144.5900  136.4880  150.9761 H   0  0  0  0  0  0  0  0  0  0  0  0
  144.0264  136.6316  152.6391 H   0  0  0  0  0  0  0  0  0  0  0  0
  147.5062  136.1218  152.1936 H   0  0  0  0  0  0  0  0  0  0  0  0
  148.4769  137.6569  153.1710 H   0  0  0  0  0  0  0  0  0  0  0  0
  147.8059  138.6750  155.7115 H   0  0  0  0  0  0  0  0  0  0  0  0
  145.9454  139.7030  153.8467 H   0  0  0  0  0  0  0  0  0  0  0  0
  146.3826  140.3936  155.3970 H   0  0  0  0  0  0  0  0  0  0  0  0
  147.5178  141.1026  152.6866 H   0  0  0  0  0  0  0  0  0  0  0  0
  146.9780  142.2027  153.9547 H   0  0  0  0  0  0  0  0  0  0  0  0
  149.6095  141.7715  153.7251 H   0  0  0  0  0  0  0  0  0  0  0  0
  148.8970  141.6621  155.3329 H   0  0  0  0  0  0  0  0  0  0  0  0
  149.6074  139.4256  153.4416 H   0  0  0  0  0  0  0  0  0  0  0  0
  149.9873  139.6850  156.4690 H   0  0  0  0  0  0  0  0  0  0  0  0
  151.2349  139.9286  155.2478 H   0  0  0  0  0  0  0  0  0  0  0  0
  150.5297  138.3322  155.4788 H   0  0  0  0  0  0  0  0  0  0  0  0
  1  2  1  0  0  0  0
  1 22  1  0  0  0  0
  1 23  1  0  0  0  0
  1 24  1  0  0  0  0
  2  8  1  0  0  0  0
  2  3  2  0  0  0  0
  3  4  1  0  0  0  0
  4  5  1  0  0  0  0
  4  6  1  0  0  0  0
  5 25  1  0  0  0  0
  5 26  1  0  0  0  0
  5 27  1  0  0  0  0
  6  7  1  0  0  0  0
  6  8  2  0  0  0  0
  7 28  1  0  0  0  0
  7 29  1  0  0  0  0
  7 30  1  0  0  0  0
  8  9  1  0  0  0  0
  9 10  1  0  0  0  0
  9 31  1  0  0  0  0
  9 32  1  0  0  0  0
 10 11  1  0  0  0  0
 10 12  1  0  0  0  0
 10 33  1  0  0  0  0
 11 34  1  0  0  0  0
 11 35  1  0  0  0  0
 11 36  1  0  0  0  0
 12 13  1  0  0  0  0
 12 37  1  0  0  0  0
 13 14  2  0  0  0  0
 13 15  1  0  0  0  0
 15 16  1  0  0  0  0
 15 38  1  0  0  0  0
 16 20  1  0  0  0  0
 16 17  1  0  0  0  0
 16 39  1  0  0  0  0
 17 18  1  0  0  0  0
 17 40  1  0  0  0  0
 17 41  1  0  0  0  0
 18 19  1  0  0  0  0
 18 42  1  0  0  0  0
 18 43  1  0  0  0  0
 19 20  1  0  0  0  0
 19 44  1  0  0  0  0
 19 45  1  0  0  0  0
 20 21  1  0  0  0  0
 20 46  1  0  0  0  0
 21 47  1  0  0  0  0
 21 48  1  0  0  0  0
 21 49  1  0  0  0  0
M  END
> <s_m_source_file>
AV-unprocessed.smi

> <i_m_source_file_index>
671

> <i_lp_mmshare_version>
43012

> <i_f3d_flags>
0

> <s_epik_input>
W0NIM11jMW5uKFtDSDNdKWMoW0NIM10pYzFbQ0gyXVtDQEhdKFtDSDNdKVtOSF1DKD1PKVtOSF1bQ0BASF0yW0NIMl1bQ0gyXVtDSDJdW0NASF0yW0NIM10=

> <s_epik_cmdline>
J2VwaWtfcHl0aG9uJywgJy1waCcsICc3LjAnLCAnLXRuJywgJzgnLCAnLW1hJywgJzIwMCcsICctbWV0YWxfYmluZGluZycsICctaW1hZScsICc8aW5maWxlLm1hZT4nLCAnLW9tYWUnLCAnPG91dGZpbGUubWFlPic=

> <r_lp_tautomer_probability>
1

> <r_epik_Ionization_Penalty>
0.0126855

> <r_epik_Ionization_Penalty_Charging>
0

> <r_epik_Ionization_Penalty_Neutral>
0.0126855

> <r_epik_State_Penalty>
0.00977547

> <r_epik_Charging_Adjusted_Penalty>
0.00977547

> <i_epik_Tot_Q>
0

> <i_epik_Tot_abs_Q>
0

> <r_epik_Metal_State_Penalty>
0.00957132

> <b_epik_Metal_Only>
0

> <s_lp_Force_Field>
OPLS_2005

> <r_lp_Energy>
21.9144

> <b_lp_Chiralities_Consistent>
1

> <s_lp_Variant>
AV-unprocessed.smi:671-1

> <Gold.Version>
5.8.1

> <Gold.Id.Protein>
6NUR|6NUR_protein|mol2

> <Gold.PLP.Fitness>
40.0989

> <Gold.PLP.PLP>
-36.1638

> <Gold.PLP.part.hbond>
-1.8909

> <Gold.PLP.part.metal>
0.0000

> <Gold.PLP.part.buried>
-4.3448

> <Gold.PLP.part.nonpolar>
-31.3748

> <Gold.PLP.part.repulsive>
0.2104

> <Gold.PLP.ligand.clash>
0.0000

> <Gold.PLP.ligand.torsion>
0.7432

> <Gold.PLP.Chemscore.Hbond>
1.8000

> <Gold.PLP.Chemscore.CHOScore>
0.0000

> <Gold.PLP.Chemscore.Metal>
0.0000

> <Gold.Chemscore.Hbonds>
donor molecule, donor type, donor heavy atom, donor atom, acceptor molecule, acceptor atom, score
      L1  H    12    37       P1  7948  0.86
      L1  H    15    38       P1  7948  0.77

> <Gold.PLP.Chemscore.Internal.Correction>
0.0216

> <Gold.Rescore>
     Score         DG    S(hbond)    S(metal)    S(lipo)     H(rot)  DE(clash)    DE(int)     intcor
     17.75     -18.50       1.84        0.00      90.47       1.45       0.05       0.70       ----

> <Gold.Chemscore.Fitness>
17.7507

> <Gold.Chemscore.DG>
-18.5004

> <Gold.Chemscore.ZeroCoef>
-5.4800

> <Gold.Chemscore.Hbond>
1.8404

> <Gold.Chemscore.Metal>
0.0000

> <Gold.Chemscore.Lipo>
90.4735

> <Gold.Chemscore.Internal_Hbond>
0.0000

> <Gold.Chemscore.DEClash>
0.0530

> <Gold.Chemscore.DEInternal>
0.6967

> <Gold.Chemscore.Rot>
1.4499

> <Gold.Chemscore.Internal.Correction>
   9.000000E+99

> <Gold.Chemscore.Hbonds>
donor molecule, donor type, donor heavy atom, donor atom, acceptor molecule, acceptor atom, score
      L1  H    12    37       P1  7948  0.84
      L1  H    15    38       P1  7948  0.76

> <Gold.Chemscore.Hbond.Weighted>
-6.1469

> <Gold.Chemscore.Metal.Weighted>
-0.0000

> <Gold.Chemscore.Lipo.Weighted>
-10.5854

> <Gold.Chemscore.Internal_Hbond.Weighted>
0.0000

> <Gold.Chemscore.DEClash.Weighted>
0.0530

> <Gold.Chemscore.DEInternal.Weighted>
0.6967

> <Gold.Chemscore.Rot.Weighted>
3.7118

> <Gold.Chemscore.Internal.Correction.Weighted>
   9.000000E+99

> <Gold.Protein.RotatedTorsions>
[ 6907 6896 6895 6894 ] final  -42.03 input  -60.11 | X-H torsion
[ 7974 7965 7964 7962 ] final  167.63 input  175.53 | X-H torsion
[ 8008 7997 7996 7995 ] final   41.63 input   59.86 | X-H torsion
[ 10167 10162 10161 10158 ] final -107.52 input  -65.29 | X-H torsion
[ 10718 10713 10712 10709 ] final  166.71 input   66.30 | X-H torsion
[ 10763 10752 10751 10750 ] final   13.83 input  -60.55 | X-H torsion
[ 11005 11000 10999 10996 ] final -137.34 input  -57.11 | X-H torsion

> <Gold.Protein.ActiveResidues>
 VAL166  LYS551  ARG553  GLY616  TRP617  ASP618  TYR619  PRO620  LYS621  CYS622 
 ASP623  PHE694  ASN695  SER759  ASP760  ASP761  ALA762  ILE779  LEU786  VAL792 
 PHE793  MET794  SER795  GLU796  ALA797  LYS798  CYS799  TRP800  GLU811  SER814 

> <Gold.Protein.RotatedAtoms>
  150.9599  134.8988  159.7723 H   0  0  0  0  0  0  0  0  0  0  0  0  # atno 6907 bound_to 6896
  152.5152  134.3687  159.9320 H   0  0  0  0  0  0  0  0  0  0  0  0  # atno 6908 bound_to 6896
  151.3700  133.3818  159.2733 H   0  0  0  0  0  0  0  0  0  0  0  0  # atno 6909 bound_to 6896
  144.7417  139.8789  143.6395 H   0  0  0  0  0  0  0  0  0  0  0  0  # atno 7974 bound_to 7965
  155.2728  140.3367  155.4264 H   0  0  0  0  0  0  0  0  0  0  0  0  # atno 8008 bound_to 7997
  156.2125  140.1775  156.7704 H   0  0  0  0  0  0  0  0  0  0  0  0  # atno 8009 bound_to 7997
  154.5706  140.0670  156.8943 H   0  0  0  0  0  0  0  0  0  0  0  0  # atno 8010 bound_to 7997
  140.1761  143.4004  152.1317 H   0  0  0  0  0  0  0  0  0  0  0  0  # atno 10167 bound_to 10162
  157.0619  131.0342  151.2644 H   0  0  0  0  0  0  0  0  0  0  0  0  # atno 10718 bound_to 10713
  153.1682  135.6808  153.8645 H   0  0  0  0  0  0  0  0  0  0  0  0  # atno 10763 bound_to 10752
  153.8018  135.3155  155.3392 H   0  0  0  0  0  0  0  0  0  0  0  0  # atno 10764 bound_to 10752
  154.7980  135.4795  154.0298 H   0  0  0  0  0  0  0  0  0  0  0  0  # atno 10765 bound_to 10752
  140.8720  134.2038  157.4645 H   0  0  0  0  0  0  0  0  0  0  0  0  # atno 11005 bound_to 11000
  146.1226  139.4246  143.0219 LP  0  0  0  0  0  0  0  0  0  0  0  0  # atno 17320 bound_to 7965
  145.7282  141.0051  143.1366 LP  0  0  0  0  0  0  0  0  0  0  0  0  # atno 17321 bound_to 7965
  139.5316  144.7165  151.5035 LP  0  0  0  0  0  0  0  0  0  0  0  0  # atno 17342 bound_to 10162
  140.6550  143.8617  150.6826 LP  0  0  0  0  0  0  0  0  0  0  0  0  # atno 17343 bound_to 10162
  157.4948  130.7844  149.7544 LP  0  0  0  0  0  0  0  0  0  0  0  0  # atno 17370 bound_to 10713
  155.9976  130.3899  150.2735 LP  0  0  0  0  0  0  0  0  0  0  0  0  # atno 17371 bound_to 10713
  139.8713  134.9779  156.4975 LP  0  0  0  0  0  0  0  0  0  0  0  0  # atno 17394 bound_to 11000
  140.8561  133.8095  155.9218 LP  0  0  0  0  0  0  0  0  0  0  0  0  # atno 17395 bound_to 11000

$$$$
