AV-unprocessed.smi:93|AV-procd|sdf|849|dock3
  -GOLD-   2262017293D 1   1.00000     0.00000
 Structure written by MMmdl.
 50 52  0  0  0  0  0  0  0  0  1 V2000
  148.8902  137.6905  155.7326 C   0  0  0  0  0  0  0  0  0  0  0  0
  147.6082  137.7569  155.0393 N   0  0  0  0  0  0  0  0  0  0  0  0
  146.8559  139.0182  155.0327 C   0  0  0  0  0  0  0  0  0  0  0  0
  147.3693  140.0910  154.0246 C   0  0  0  0  0  0  0  0  0  0  0  0
  148.9133  140.1716  154.0398 C   0  0  0  0  0  0  0  0  0  0  0  0
  146.8851  139.6879  152.6058 C   0  0  0  0  0  0  0  0  0  0  0  0
  147.6099  138.5958  152.0737 O   0  0  0  0  0  0  0  0  0  0  0  0
  146.7730  141.4786  154.3830 C   0  0  0  0  0  0  0  0  0  0  0  0
  145.3594  141.4728  154.4299 O   0  0  0  0  0  0  0  0  0  0  0  0
  147.1071  136.6317  154.4572 C   0  0  0  0  0  0  0  0  0  0  0  0
  147.7480  135.4501  154.6607 N   0  0  0  0  0  0  0  0  0  0  0  0
  147.2896  134.3201  154.1171 C   0  0  0  0  0  0  0  0  0  0  0  0
  146.2157  134.1422  153.3478 N   0  0  0  0  0  0  0  0  0  0  0  0
  145.5581  135.3181  153.1399 C   0  0  0  0  0  0  0  0  0  0  0  0
  145.9327  136.5975  153.6451 C   0  0  0  0  0  0  0  0  0  0  0  0
  145.0109  137.5494  153.2205 N   0  0  0  0  0  0  0  0  0  0  0  0
  144.1516  136.8765  152.5065 C   0  0  0  0  0  0  0  0  0  0  0  0
  144.3961  135.5258  152.4167 N   0  0  0  0  0  0  0  0  0  0  0  0
  143.5970  134.5422  151.7011 C   0  0  0  0  0  0  0  0  0  0  0  0
  144.3065  133.9606  150.4553 C   0  0  1  0  0  0  0  0  0  0  0  0
  144.6616  135.0261  149.5900 O   0  0  0  0  0  0  0  0  0  0  0  0
  145.5703  133.1828  150.7985 C   0  0  0  0  0  0  0  0  0  0  0  0
  145.6681  132.1830  149.6542 C   0  0  0  0  0  0  0  0  0  0  0  0
  144.3183  131.8031  149.4463 O   0  0  0  0  0  0  0  0  0  0  0  0
  143.4778  132.9350  149.6534 C   0  0  0  0  0  0  0  0  0  0  0  0
  148.9615  136.7803  156.3291 H   0  0  0  0  0  0  0  0  0  0  0  0
  149.0172  138.5366  156.4078 H   0  0  0  0  0  0  0  0  0  0  0  0
  149.7165  137.7056  155.0223 H   0  0  0  0  0  0  0  0  0  0  0  0
  145.7958  138.8243  154.8706 H   0  0  0  0  0  0  0  0  0  0  0  0
  146.9013  139.4366  156.0386 H   0  0  0  0  0  0  0  0  0  0  0  0
  149.2871  140.8257  153.2517 H   0  0  0  0  0  0  0  0  0  0  0  0
  149.3676  139.1919  153.8890 H   0  0  0  0  0  0  0  0  0  0  0  0
  149.2871  140.5638  154.9855 H   0  0  0  0  0  0  0  0  0  0  0  0
  145.8283  139.4201  152.6256 H   0  0  0  0  0  0  0  0  0  0  0  0
  146.9835  140.5190  151.9067 H   0  0  0  0  0  0  0  0  0  0  0  0
  148.2743  138.9317  151.4916 H   0  0  0  0  0  0  0  0  0  0  0  0
  147.1482  141.8199  155.3484 H   0  0  0  0  0  0  0  0  0  0  0  0
  147.0644  142.2272  153.6465 H   0  0  0  0  0  0  0  0  0  0  0  0
  145.0338  141.1017  153.6241 H   0  0  0  0  0  0  0  0  0  0  0  0
  147.8649  133.4315  154.3314 H   0  0  0  0  0  0  0  0  0  0  0  0
  143.3038  137.3486  152.0312 H   0  0  0  0  0  0  0  0  0  0  0  0
  143.3362  133.7426  152.3959 H   0  0  0  0  0  0  0  0  0  0  0  0
  142.6562  135.0118  151.4115 H   0  0  0  0  0  0  0  0  0  0  0  0
  145.1957  134.6791  148.8920 H   0  0  0  0  0  0  0  0  0  0  0  0
  146.4584  133.8079  150.9008 H   0  0  0  0  0  0  0  0  0  0  0  0
  145.4372  132.6387  151.7345 H   0  0  0  0  0  0  0  0  0  0  0  0
  146.0588  132.6562  148.7520 H   0  0  0  0  0  0  0  0  0  0  0  0
  146.2954  131.3245  149.8941 H   0  0  0  0  0  0  0  0  0  0  0  0
  142.5977  132.5981  150.1997 H   0  0  0  0  0  0  0  0  0  0  0  0
  143.1353  133.3339  148.6974 H   0  0  0  0  0  0  0  0  0  0  0  0
  1  2  1  0  0  0  0
  1 26  1  0  0  0  0
  1 27  1  0  0  0  0
  1 28  1  0  0  0  0
  2  3  1  0  0  0  0
  2 10  1  0  0  0  0
  3  4  1  0  0  0  0
  3 29  1  0  0  0  0
  3 30  1  0  0  0  0
  4  5  1  0  0  0  0
  4  6  1  0  0  0  0
  4  8  1  0  0  0  0
  5 31  1  0  0  0  0
  5 32  1  0  0  0  0
  5 33  1  0  0  0  0
  6  7  1  0  0  0  0
  6 34  1  0  0  0  0
  6 35  1  0  0  0  0
  7 36  1  0  0  0  0
  8  9  1  0  0  0  0
  8 37  1  0  0  0  0
  8 38  1  0  0  0  0
  9 39  1  0  0  0  0
 10 15  1  0  0  0  0
 10 11  2  0  0  0  0
 11 12  1  0  0  0  0
 12 13  2  0  0  0  0
 12 40  1  0  0  0  0
 13 14  1  0  0  0  0
 14 18  1  0  0  0  0
 14 15  2  0  0  0  0
 15 16  1  0  0  0  0
 16 17  2  0  0  0  0
 17 18  1  0  0  0  0
 17 41  1  0  0  0  0
 18 19  1  0  0  0  0
 19 20  1  0  0  0  0
 19 42  1  0  0  0  0
 19 43  1  0  0  0  0
 20 25  1  0  0  0  0
 20 21  1  0  0  0  0
 20 22  1  0  0  0  0
 21 44  1  0  0  0  0
 22 23  1  0  0  0  0
 22 45  1  0  0  0  0
 22 46  1  0  0  0  0
 23 24  1  0  0  0  0
 23 47  1  0  0  0  0
 23 48  1  0  0  0  0
 24 25  1  0  0  0  0
 25 49  1  0  0  0  0
 25 50  1  0  0  0  0
M  END
> <s_m_source_file>
AV-unprocessed.smi

> <i_m_source_file_index>
93

> <i_lp_mmshare_version>
43012

> <i_f3d_flags>
0

> <s_epik_input>
W09IXVtDSDJdQyhbQ0gzXSkoW0NIMl1bT0hdKVtDSDJdTihbQ0gzXSljKG5bY0hdbjEpYyhjMTIpbltjSF1uMltDSDJdW0NAQF0zKFtPSF0pW0NIMl1bQ0gyXU9bQ0gyXTM=

> <s_epik_cmdline>
J2VwaWtfcHl0aG9uJywgJy1waCcsICc3LjAnLCAnLXRuJywgJzgnLCAnLW1hJywgJzIwMCcsICctbWV0YWxfYmluZGluZycsICctaW1hZScsICc8aW5maWxlLm1hZT4nLCAnLW9tYWUnLCAnPG91dGZpbGUubWFlPic=

> <r_lp_tautomer_probability>
1

> <r_epik_Ionization_Penalty>
0.00325397

> <r_epik_Ionization_Penalty_Charging>
0

> <r_epik_Ionization_Penalty_Neutral>
0.00325397

> <r_epik_State_Penalty>
0.00225047

> <r_epik_Charging_Adjusted_Penalty>
0.00225047

> <i_epik_Tot_Q>
0

> <i_epik_Tot_abs_Q>
0

> <r_epik_Metal_State_Penalty>
-0

> <b_epik_Metal_Only>
0

> <s_lp_Force_Field>
OPLS_2005

> <r_lp_Energy>
39.2325

> <b_lp_Chiralities_Consistent>
1

> <s_lp_Variant>
AV-unprocessed.smi:93-1

> <Gold.Version>
5.8.1

> <Gold.Id.Protein>
6NUR|6NUR_protein|mol2

> <Gold.PLP.Fitness>
43.3924

> <Gold.PLP.PLP>
-31.6873

> <Gold.PLP.part.hbond>
-4.8602

> <Gold.PLP.part.metal>
0.0000

> <Gold.PLP.part.buried>
-1.0962

> <Gold.PLP.part.nonpolar>
-26.6221

> <Gold.PLP.part.repulsive>
0.5565

> <Gold.PLP.ligand.clash>
0.0000

> <Gold.PLP.ligand.torsion>
0.6781

> <Gold.PLP.Chemscore.Hbond>
3.4095

> <Gold.PLP.Chemscore.CHOScore>
0.7598

> <Gold.PLP.Chemscore.Metal>
0.0000

> <Gold.Chemscore.Hbonds>
donor molecule, donor type, donor heavy atom, donor atom, acceptor molecule, acceptor atom, score
      L1  H     7    36       P1  7957  1.00
      L1  H     9    39       P1 10175  1.00
      L1  H    21    44       P1  7921  1.00
      P1  H 10785 10796       L1    24  0.45
      L1  C    17    41       P1 10171  0.60

> <Gold.PLP.Chemscore.Internal.Correction>
0.5532

> <Gold.Rescore>
     Score         DG    S(hbond)    S(metal)    S(lipo)     H(rot)  DE(clash)    DE(int)     intcor
      7.60     -12.19       3.27        0.00      64.78       4.60       0.29       4.29       ----

> <Gold.Chemscore.Fitness>
7.6022

> <Gold.Chemscore.DG>
-12.1879

> <Gold.Chemscore.ZeroCoef>
-5.4800

> <Gold.Chemscore.Hbond>
3.2657

> <Gold.Chemscore.Metal>
0.0000

> <Gold.Chemscore.Lipo>
64.7801

> <Gold.Chemscore.Internal_Hbond>
0.0000

> <Gold.Chemscore.DEClash>
0.2946

> <Gold.Chemscore.DEInternal>
4.2911

> <Gold.Chemscore.Rot>
4.6010

> <Gold.Chemscore.Internal.Correction>
   9.000000E+99

> <Gold.Chemscore.Hbonds>
donor molecule, donor type, donor heavy atom, donor atom, acceptor molecule, acceptor atom, score
      L1  H     7    36       P1  7957  0.63
      L1  H     9    39       P1 10175  0.58
      L1  H    21    44       P1  7921  0.94
      P1  H 10785 10796       L1    24  0.36

> <Gold.Chemscore.Hbond.Weighted>
-10.9073

> <Gold.Chemscore.Metal.Weighted>
-0.0000

> <Gold.Chemscore.Lipo.Weighted>
-7.5793

> <Gold.Chemscore.Internal_Hbond.Weighted>
0.0000

> <Gold.Chemscore.DEClash.Weighted>
0.2946

> <Gold.Chemscore.DEInternal.Weighted>
4.2911

> <Gold.Chemscore.Rot.Weighted>
11.7787

> <Gold.Chemscore.Internal.Correction.Weighted>
   9.000000E+99

> <Gold.Protein.RotatedTorsions>
[ 6907 6896 6895 6894 ] final  -30.70 input  -60.11 | X-H torsion
[ 7974 7965 7964 7962 ] final   48.42 input  175.53 | X-H torsion
[ 8008 7997 7996 7995 ] final -117.05 input   59.86 | X-H torsion
[ 10167 10162 10161 10158 ] final   48.11 input  -65.29 | X-H torsion
[ 10718 10713 10712 10709 ] final   93.49 input   66.30 | X-H torsion
[ 10763 10752 10751 10750 ] final  -28.13 input  -60.55 | X-H torsion
[ 11005 11000 10999 10996 ] final -155.71 input  -57.11 | X-H torsion

> <Gold.Protein.ActiveResidues>
 VAL166  LYS551  ARG553  GLY616  TRP617  ASP618  TYR619  PRO620  LYS621  CYS622 
 ASP623  PHE694  ASN695  SER759  ASP760  ASP761  ALA762  ILE779  LEU786  VAL792 
 PHE793  MET794  SER795  GLU796  ALA797  LYS798  CYS799  TRP800  GLU811  SER814 

> <Gold.Protein.RotatedAtoms>
  151.1020  134.9978  159.8453 H   0  0  0  0  0  0  0  0  0  0  0  0  # atno 6907 bound_to 6896
  152.5437  134.1938  159.8695 H   0  0  0  0  0  0  0  0  0  0  0  0  # atno 6908 bound_to 6896
  151.1982  133.4582  159.2629 H   0  0  0  0  0  0  0  0  0  0  0  0  # atno 6909 bound_to 6896
  146.0205  139.4646  142.9900 H   0  0  0  0  0  0  0  0  0  0  0  0  # atno 7974 bound_to 7965
  155.0775  140.0394  157.2628 H   0  0  0  0  0  0  0  0  0  0  0  0  # atno 8008 bound_to 7997
  154.6933  140.2658  155.6766 H   0  0  0  0  0  0  0  0  0  0  0  0  # atno 8009 bound_to 7997
  156.2736  140.2755  156.1519 H   0  0  0  0  0  0  0  0  0  0  0  0  # atno 8010 bound_to 7997
  140.2967  144.2983  150.6228 H   0  0  0  0  0  0  0  0  0  0  0  0  # atno 10167 bound_to 10162
  157.6954  131.0480  150.4042 H   0  0  0  0  0  0  0  0  0  0  0  0  # atno 10718 bound_to 10713
  153.7434  135.6931  153.4962 H   0  0  0  0  0  0  0  0  0  0  0  0  # atno 10763 bound_to 10752
  153.2053  135.4422  155.0315 H   0  0  0  0  0  0  0  0  0  0  0  0  # atno 10764 bound_to 10752
  154.8213  135.3423  154.6958 H   0  0  0  0  0  0  0  0  0  0  0  0  # atno 10765 bound_to 10752
  140.6835  134.4119  157.5225 H   0  0  0  0  0  0  0  0  0  0  0  0  # atno 11005 bound_to 11000
  145.7200  141.0078  143.1407 LP  0  0  0  0  0  0  0  0  0  0  0  0  # atno 17320 bound_to 7965
  144.6988  139.8859  143.7450 LP  0  0  0  0  0  0  0  0  0  0  0  0  # atno 17321 bound_to 7965
  140.5686  143.2183  151.7639 LP  0  0  0  0  0  0  0  0  0  0  0  0  # atno 17342 bound_to 10162
  139.4925  144.4248  151.9938 LP  0  0  0  0  0  0  0  0  0  0  0  0  # atno 17343 bound_to 10162
  156.4432  130.3996  149.6683 LP  0  0  0  0  0  0  0  0  0  0  0  0  # atno 17370 bound_to 10713
  156.3859  130.7603  151.2600 LP  0  0  0  0  0  0  0  0  0  0  0  0  # atno 17371 bound_to 10713
  139.8944  134.8706  156.2176 LP  0  0  0  0  0  0  0  0  0  0  0  0  # atno 17394 bound_to 11000
  141.0299  133.6994  156.1411 LP  0  0  0  0  0  0  0  0  0  0  0  0  # atno 17395 bound_to 11000

$$$$
