AV-unprocessed.smi:1103|AV-procd|sdf|4774|dock3
  -GOLD-   22720 3313D 1   1.00000     0.00000
 Structure written by MMmdl.
 44 45  0  0  0  0  0  0  0  0  2 V2000
  146.0473  137.0357  153.6336 C   0  0  0  0  0  0  0  0  0  0  0  0
  146.4882  135.6232  154.0446 C   0  0  0  0  0  0  0  0  0  0  0  0
  147.9567  135.5115  154.2360 N   0  3  2  0  0  0  0  0  0  0  0  0
  148.3886  134.1015  154.4119 C   0  0  0  0  0  0  0  0  0  0  0  0
  149.9198  133.9960  154.4646 C   0  0  0  0  0  0  0  0  0  0  0  0
  150.4893  134.8778  155.5821 C   0  0  0  0  0  0  0  0  0  0  0  0
  150.0198  136.3334  155.4138 C   0  0  2  0  0  0  0  0  0  0  0  0
  150.5900  137.2219  156.5408 C   0  0  0  0  0  0  0  0  0  0  0  0
  150.3386  138.6395  156.3007 N   0  0  0  0  0  0  0  0  0  0  0  0
  151.2740  139.6016  156.2717 C   0  0  0  0  0  0  0  0  0  0  0  0
  152.4806  139.3829  156.3765 O   0  0  0  0  0  0  0  0  0  0  0  0
  150.7652  141.0376  156.1571 C   0  0  0  0  0  0  0  0  0  0  0  0
  151.1988  141.8165  157.3027 N   0  0  0  0  0  0  0  0  0  0  0  0
  150.9830  143.1539  157.5589 C   0  0  0  0  0  0  0  0  0  0  0  0
  151.6000  143.4507  158.7409 C   0  0  0  0  0  0  0  0  0  0  0  0
  151.6721  144.7696  159.4538 C   0  0  0  0  0  0  0  0  0  0  0  0
  152.1704  142.2082  159.1383 C   0  0  0  0  0  0  0  0  0  0  0  0
  151.9350  141.2347  158.2742 N   0  0  0  0  0  0  0  0  0  0  0  0
  148.4758  136.3825  155.3247 C   0  0  0  0  0  0  0  0  0  0  0  0
  144.9834  137.0507  153.3964 H   0  0  0  0  0  0  0  0  0  0  0  0
  146.5868  137.3791  152.7505 H   0  0  0  0  0  0  0  0  0  0  0  0
  146.2062  137.7606  154.4303 H   0  0  0  0  0  0  0  0  0  0  0  0
  145.9677  135.3067  154.9494 H   0  0  0  0  0  0  0  0  0  0  0  0
  146.1783  134.9373  153.2548 H   0  0  0  0  0  0  0  0  0  0  0  0
  147.9500  133.6965  155.3255 H   0  0  0  0  0  0  0  0  0  0  0  0
  148.0179  133.4942  153.5853 H   0  0  0  0  0  0  0  0  0  0  0  0
  150.2163  132.9585  154.6222 H   0  0  0  0  0  0  0  0  0  0  0  0
  150.3427  134.2970  153.5053 H   0  0  0  0  0  0  0  0  0  0  0  0
  150.1686  134.4927  156.5513 H   0  0  0  0  0  0  0  0  0  0  0  0
  151.5789  134.8276  155.5722 H   0  0  0  0  0  0  0  0  0  0  0  0
  150.4192  136.7042  154.4682 H   0  0  0  0  0  0  0  0  0  0  0  0
  150.1929  136.9102  157.5085 H   0  0  0  0  0  0  0  0  0  0  0  0
  151.6705  137.0887  156.6014 H   0  0  0  0  0  0  0  0  0  0  0  0
  149.3732  138.9203  156.2034 H   0  0  0  0  0  0  0  0  0  0  0  0
  151.1528  141.4996  155.2483 H   0  0  0  0  0  0  0  0  0  0  0  0
  149.6760  141.0577  156.0912 H   0  0  0  0  0  0  0  0  0  0  0  0
  150.4195  143.7785  156.8812 H   0  0  0  0  0  0  0  0  0  0  0  0
  152.3085  144.7186  160.3374 H   0  0  0  0  0  0  0  0  0  0  0  0
  150.6879  145.1023  159.7840 H   0  0  0  0  0  0  0  0  0  0  0  0
  152.0781  145.5508  158.8108 H   0  0  0  0  0  0  0  0  0  0  0  0
  152.7516  141.9879  160.0214 H   0  0  0  0  0  0  0  0  0  0  0  0
  148.1597  137.4073  155.1378 H   0  0  0  0  0  0  0  0  0  0  0  0
  148.0331  136.0836  156.2764 H   0  0  0  0  0  0  0  0  0  0  0  0
  148.3818  135.8309  153.3773 H   0  0  0  0  0  0  0  0  0  0  0  0
  1  2  1  0  0  0  0
  1 20  1  0  0  0  0
  1 21  1  0  0  0  0
  1 22  1  0  0  0  0
  2  3  1  0  0  0  0
  2 23  1  0  0  0  0
  2 24  1  0  0  0  0
  3 19  1  0  0  0  0
  3  4  1  0  0  0  0
  3 44  1  0  0  0  0
  4  5  1  0  0  0  0
  4 25  1  0  0  0  0
  4 26  1  0  0  0  0
  5  6  1  0  0  0  0
  5 27  1  0  0  0  0
  5 28  1  0  0  0  0
  6  7  1  0  0  0  0
  6 29  1  0  0  0  0
  6 30  1  0  0  0  0
  7  8  1  0  0  0  0
  7 19  1  0  0  0  0
  7 31  1  0  0  0  0
  8  9  1  0  0  0  0
  8 32  1  0  0  0  0
  8 33  1  0  0  0  0
  9 10  1  0  0  0  0
  9 34  1  0  0  0  0
 10 11  2  0  0  0  0
 10 12  1  0  0  0  0
 12 13  1  0  0  0  0
 12 35  1  0  0  0  0
 12 36  1  0  0  0  0
 13 18  1  0  0  0  0
 13 14  1  0  0  0  0
 14 15  2  0  0  0  0
 14 37  1  0  0  0  0
 15 16  1  0  0  0  0
 15 17  1  0  0  0  0
 16 38  1  0  0  0  0
 16 39  1  0  0  0  0
 16 40  1  0  0  0  0
 17 18  2  0  0  0  0
 17 41  1  0  0  0  0
 19 42  1  0  0  0  0
 19 43  1  0  0  0  0
M  CHG  1   3   1
M  END
> <s_m_source_file>
AV-unprocessed.smi

> <i_m_source_file_index>
1103

> <i_lp_mmshare_version>
43012

> <i_f3d_flags>
0

> <s_epik_input>
W0NIM11bQ0gyXU4xW0NIMl1bQ0gyXVtDSDJdW0NASF0oW0NIMl0xKVtDSDJdW05IXUMoPU8pW0NIMl1uMltjSF1jKFtDSDNdKVtjSF1uMg==

> <s_epik_cmdline>
J2VwaWtfcHl0aG9uJywgJy1waCcsICc3LjAnLCAnLXRuJywgJzgnLCAnLW1hJywgJzIwMCcsICctbWV0YWxfYmluZGluZycsICctaW1hZScsICc8aW5maWxlLm1hZT4nLCAnLW9tYWUnLCAnPG91dGZpbGUubWFlPic=

> <r_lp_tautomer_probability>
1

> <r_epik_Ionization_Penalty>
0.000672456

> <r_epik_Ionization_Penalty_Charging>
0.000647327

> <r_epik_Ionization_Penalty_Neutral>
2.51297e-05

> <r_epik_State_Penalty>
0.000409793

> <r_epik_Charging_Adjusted_Penalty>
0.00105712

> <i_epik_Tot_Q>
1

> <i_epik_Tot_abs_Q>
1

> <r_epik_Metal_State_Penalty>
-0

> <b_epik_Metal_Only>
0

> <s_lp_Force_Field>
OPLS_2005

> <r_lp_Energy>
16.1771

> <b_lp_Chiralities_Consistent>
1

> <s_lp_Variant>
AV-unprocessed.smi:1103-4

> <Gold.Version>
5.8.1

> <Gold.Id.Protein>
6NUR|6NUR_protein|mol2

> <Gold.PLP.Fitness>
43.6702

> <Gold.PLP.PLP>
-31.7772

> <Gold.PLP.part.hbond>
-2.0000

> <Gold.PLP.part.metal>
0.0000

> <Gold.PLP.part.buried>
-4.4327

> <Gold.PLP.part.nonpolar>
-25.1761

> <Gold.PLP.part.repulsive>
0.0152

> <Gold.PLP.ligand.clash>
0.0000

> <Gold.PLP.ligand.torsion>
0.0697

> <Gold.PLP.Chemscore.Hbond>
3.0000

> <Gold.PLP.Chemscore.CHOScore>
1.0000

> <Gold.PLP.Chemscore.Metal>
0.0000

> <Gold.Chemscore.Hbonds>
donor molecule, donor type, donor heavy atom, donor atom, acceptor molecule, acceptor atom, score
      L1  H     3    44       P1  7948  2.00
      P1  H  7997  8008       L1    11  1.00
      L1  C    14    37       P1  8028  1.00

> <Gold.PLP.Chemscore.Internal.Correction>
0.0324

> <Gold.Rescore>
     Score         DG    S(hbond)    S(metal)    S(lipo)     H(rot)  DE(clash)    DE(int)     intcor
     15.75     -17.56       2.00        0.00      82.99       1.68       0.10       1.71       ----

> <Gold.Chemscore.Fitness>
15.7509

> <Gold.Chemscore.DG>
-17.5610

> <Gold.Chemscore.ZeroCoef>
-5.4800

> <Gold.Chemscore.Hbond>
1.9992

> <Gold.Chemscore.Metal>
0.0000

> <Gold.Chemscore.Lipo>
82.9950

> <Gold.Chemscore.Internal_Hbond>
0.0000

> <Gold.Chemscore.DEClash>
0.1000

> <Gold.Chemscore.DEInternal>
1.7101

> <Gold.Chemscore.Rot>
1.6823

> <Gold.Chemscore.Internal.Correction>
   9.000000E+99

> <Gold.Chemscore.Hbonds>
donor molecule, donor type, donor heavy atom, donor atom, acceptor molecule, acceptor atom, score
      L1  H     3    44       P1  7948  1.00
      P1  H  7997  8008       L1    11  0.96

> <Gold.Chemscore.Hbond.Weighted>
-6.6772

> <Gold.Chemscore.Metal.Weighted>
-0.0000

> <Gold.Chemscore.Lipo.Weighted>
-9.7104

> <Gold.Chemscore.Internal_Hbond.Weighted>
0.0000

> <Gold.Chemscore.DEClash.Weighted>
0.1000

> <Gold.Chemscore.DEInternal.Weighted>
1.7101

> <Gold.Chemscore.Rot.Weighted>
4.3066

> <Gold.Chemscore.Internal.Correction.Weighted>
   9.000000E+99

> <Gold.Protein.RotatedTorsions>
[ 6907 6896 6895 6894 ] final  -53.81 input  -60.11 | X-H torsion
[ 7974 7965 7964 7962 ] final  178.20 input  175.53 | X-H torsion
[ 8008 7997 7996 7995 ] final  -53.78 input   59.86 | X-H torsion
[ 10167 10162 10161 10158 ] final  147.16 input  -65.29 | X-H torsion
[ 10718 10713 10712 10709 ] final -125.26 input   66.30 | X-H torsion
[ 10763 10752 10751 10750 ] final -141.01 input  -60.55 | X-H torsion
[ 11005 11000 10999 10996 ] final   93.82 input  -57.11 | X-H torsion

> <Gold.Protein.ActiveResidues>
 VAL166  LYS551  ARG553  GLY616  TRP617  ASP618  TYR619  PRO620  LYS621  CYS622 
 ASP623  PHE694  ASN695  SER759  ASP760  ASP761  ALA762  ILE779  LEU786  VAL792 
 PHE793  MET794  SER795  GLU796  ALA797  LYS798  CYS799  TRP800  GLU811  SER814 

> <Gold.Protein.RotatedAtoms>
  150.8394  134.7680  159.6919 H   0  0  0  0  0  0  0  0  0  0  0  0  # atno 6907 bound_to 6896
  152.4484  134.5442  159.9858 H   0  0  0  0  0  0  0  0  0  0  0  0  # atno 6908 bound_to 6896
  151.5585  133.3369  159.3002 H   0  0  0  0  0  0  0  0  0  0  0  0  # atno 6909 bound_to 6896
  144.7159  140.0361  143.6438 H   0  0  0  0  0  0  0  0  0  0  0  0  # atno 7974 bound_to 7965
  154.4143  140.1192  156.5210 H   0  0  0  0  0  0  0  0  0  0  0  0  # atno 8008 bound_to 7997
  155.6703  140.3496  155.4796 H   0  0  0  0  0  0  0  0  0  0  0  0  # atno 8009 bound_to 7997
  155.9638  140.1128  157.0862 H   0  0  0  0  0  0  0  0  0  0  0  0  # atno 8010 bound_to 7997
  139.4894  144.5776  151.6935 H   0  0  0  0  0  0  0  0  0  0  0  0  # atno 10167 bound_to 10162
  156.1660  130.6634  151.0115 H   0  0  0  0  0  0  0  0  0  0  0  0  # atno 10718 bound_to 10713
  154.8560  135.3536  154.5799 H   0  0  0  0  0  0  0  0  0  0  0  0  # atno 10763 bound_to 10752
  153.6410  135.6998  153.5246 H   0  0  0  0  0  0  0  0  0  0  0  0  # atno 10764 bound_to 10752
  153.2971  135.4217  155.1178 H   0  0  0  0  0  0  0  0  0  0  0  0  # atno 10765 bound_to 10752
  139.8805  134.8811  156.3774 H   0  0  0  0  0  0  0  0  0  0  0  0  # atno 11005 bound_to 11000
  146.0062  139.3132  143.0898 LP  0  0  0  0  0  0  0  0  0  0  0  0  # atno 17320 bound_to 7965
  145.8735  140.9405  143.0638 LP  0  0  0  0  0  0  0  0  0  0  0  0  # atno 17321 bound_to 7965
  140.5375  144.0632  150.6076 LP  0  0  0  0  0  0  0  0  0  0  0  0  # atno 17342 bound_to 10162
  140.3643  143.2890  152.0349 LP  0  0  0  0  0  0  0  0  0  0  0  0  # atno 17343 bound_to 10162
  157.6768  131.0848  150.7474 LP  0  0  0  0  0  0  0  0  0  0  0  0  # atno 17370 bound_to 10713
  156.7535  130.4776  149.5451 LP  0  0  0  0  0  0  0  0  0  0  0  0  # atno 17371 bound_to 10713
  140.9422  133.7507  156.0162 LP  0  0  0  0  0  0  0  0  0  0  0  0  # atno 17394 bound_to 11000
  140.8205  134.3294  157.5383 LP  0  0  0  0  0  0  0  0  0  0  0  0  # atno 17395 bound_to 11000

$$$$
