AV-unprocessed.smi:1381|AV-procd|sdf|5615|dock6
  -GOLD-   22720 5223D 1   1.00000     0.00000
 Structure written by MMmdl.
 42 43  0  0  0  0  0  0  0  0  3 V2000
  137.5329  137.2177  154.9231 C   0  0  0  0  0  0  0  0  0  0  0  0
  138.9657  137.1569  154.5170 C   0  0  0  0  0  0  0  0  0  0  0  0
  139.6405  137.6200  153.4233 C   0  0  0  0  0  0  0  0  0  0  0  0
  140.9804  137.2148  153.6729 C   0  0  0  0  0  0  0  0  0  0  0  0
  142.0366  137.4503  152.8791 N   0  5  0  0  0  0  0  0  0  0  0  0
  143.2429  136.9161  153.1756 C   0  0  0  0  0  0  0  0  0  0  0  0
  143.5415  136.3078  154.2061 O   0  0  0  0  0  0  0  0  0  0  0  0
  144.1611  137.0895  152.2140 N   0  0  0  0  0  0  0  0  0  0  0  0
  145.5350  136.6025  152.2522 C   0  0  0  0  0  0  0  0  0  0  0  0
  145.6004  135.1574  152.7806 C   0  0  0  0  0  0  0  0  0  0  0  0
  146.7345  134.3944  152.1964 N   0  3  1  0  0  0  0  0  0  0  0  0
  147.2034  133.2792  153.0543 C   0  0  0  0  0  0  0  0  0  0  0  0
  146.2523  132.0686  152.9659 C   0  0  2  0  0  0  0  0  0  0  0  0
  146.7601  130.8753  153.7827 C   0  0  0  0  0  0  0  0  0  0  0  0
  146.1518  131.6628  151.6050 O   0  0  0  0  0  0  0  0  0  0  0  0
  145.6056  132.6738  150.7642 C   0  0  2  0  0  0  0  0  0  0  0  0
  145.4854  132.0975  149.3492 C   0  0  0  0  0  0  0  0  0  0  0  0
  146.5165  133.9203  150.8058 C   0  0  0  0  0  0  0  0  0  0  0  0
  141.1097  136.5769  154.8240 N   0  0  0  0  0  0  0  0  0  0  0  0
  139.8211  136.5305  155.3692 O   0  0  0  0  0  0  0  0  0  0  0  0
  137.2940  138.1939  155.3451 H   0  0  0  0  0  0  0  0  0  0  0  0
  137.3050  136.4596  155.6726 H   0  0  0  0  0  0  0  0  0  0  0  0
  136.8806  137.0503  154.0659 H   0  0  0  0  0  0  0  0  0  0  0  0
  139.2402  138.1594  152.5782 H   0  0  0  0  0  0  0  0  0  0  0  0
  143.8762  137.5977  151.3894 H   0  0  0  0  0  0  0  0  0  0  0  0
  145.9268  136.6644  151.2379 H   0  0  0  0  0  0  0  0  0  0  0  0
  146.1497  137.2648  152.8642 H   0  0  0  0  0  0  0  0  0  0  0  0
  145.7273  135.1953  153.8632 H   0  0  0  0  0  0  0  0  0  0  0  0
  144.6552  134.6438  152.6062 H   0  0  0  0  0  0  0  0  0  0  0  0
  148.1989  132.9858  152.7180 H   0  0  0  0  0  0  0  0  0  0  0  0
  147.3173  133.6124  154.0867 H   0  0  0  0  0  0  0  0  0  0  0  0
  145.2624  132.3408  153.3362 H   0  0  0  0  0  0  0  0  0  0  0  0
  146.8518  131.1330  154.8384 H   0  0  0  0  0  0  0  0  0  0  0  0
  147.7377  130.5426  153.4324 H   0  0  0  0  0  0  0  0  0  0  0  0
  146.0745  130.0310  153.7060 H   0  0  0  0  0  0  0  0  0  0  0  0
  144.6034  132.9255  151.1131 H   0  0  0  0  0  0  0  0  0  0  0  0
  145.0575  132.8287  148.6629 H   0  0  0  0  0  0  0  0  0  0  0  0
  144.8411  131.2180  149.3404 H   0  0  0  0  0  0  0  0  0  0  0  0
  146.4591  131.8006  148.9585 H   0  0  0  0  0  0  0  0  0  0  0  0
  146.1120  134.7145  150.1797 H   0  0  0  0  0  0  0  0  0  0  0  0
  147.4903  133.6698  150.3824 H   0  0  0  0  0  0  0  0  0  0  0  0
  147.4993  135.0536  152.1617 H   0  0  0  0  0  0  0  0  0  0  0  0
  1  2  1  0  0  0  0
  1 21  1  0  0  0  0
  1 22  1  0  0  0  0
  1 23  1  0  0  0  0
  2 20  1  0  0  0  0
  2  3  2  0  0  0  0
  3  4  1  0  0  0  0
  3 24  1  0  0  0  0
  4  5  1  0  0  0  0
  4 19  2  0  0  0  0
  5  6  1  0  0  0  0
  6  7  2  0  0  0  0
  6  8  1  0  0  0  0
  8  9  1  0  0  0  0
  8 25  1  0  0  0  0
  9 10  1  0  0  0  0
  9 26  1  0  0  0  0
  9 27  1  0  0  0  0
 10 11  1  0  0  0  0
 10 28  1  0  0  0  0
 10 29  1  0  0  0  0
 11 18  1  0  0  0  0
 11 12  1  0  0  0  0
 11 42  1  0  0  0  0
 12 13  1  0  0  0  0
 12 30  1  0  0  0  0
 12 31  1  0  0  0  0
 13 14  1  0  0  0  0
 13 15  1  0  0  0  0
 13 32  1  0  0  0  0
 14 33  1  0  0  0  0
 14 34  1  0  0  0  0
 14 35  1  0  0  0  0
 15 16  1  0  0  0  0
 16 17  1  0  0  0  0
 16 18  1  0  0  0  0
 16 36  1  0  0  0  0
 17 37  1  0  0  0  0
 17 38  1  0  0  0  0
 17 39  1  0  0  0  0
 18 40  1  0  0  0  0
 18 41  1  0  0  0  0
 19 20  1  0  0  0  0
M  CHG  1   5  -1
M  CHG  1  11   1
M  END
> <s_m_source_file>
AV-unprocessed.smi

> <i_m_source_file_index>
1381

> <i_lp_mmshare_version>
43012

> <i_f3d_flags>
0

> <s_epik_input>
W0NIM11jMVtjSF1jKG5vMSlbTkhdQyg9TylbTkhdW0NIMl1bQ0gyXU4yW0NIMl1bQ0BASF0oW0NIM10pT1tDQEBIXShbQ0gzXSlbQ0gyXTI=

> <s_epik_cmdline>
J2VwaWtfcHl0aG9uJywgJy1waCcsICc3LjAnLCAnLXRuJywgJzgnLCAnLW1hJywgJzIwMCcsICctbWV0YWxfYmluZGluZycsICctaW1hZScsICc8aW5maWxlLm1hZT4nLCAnLW9tYWUnLCAnPG91dGZpbGUubWFlPic=

> <r_epik_Ionization_Penalty>
6.73511

> <r_epik_Ionization_Penalty_Charging>
6.73502

> <r_epik_Ionization_Penalty_Neutral>
9.26583e-05

> <r_epik_State_Penalty>
6.93549

> <r_epik_Charging_Adjusted_Penalty>
13.6705

> <i_epik_Tot_Q>
0

> <i_epik_Tot_abs_Q>
2

> <r_epik_Metal_State_Penalty>
2.87211

> <b_epik_Metal_Only>
1

> <s_lp_Force_Field>
OPLS_2005

> <r_lp_Energy>
4.17006

> <b_lp_Chiralities_Consistent>
1

> <s_lp_Variant>
AV-unprocessed.smi:1381-14

> <Gold.Version>
5.8.1

> <Gold.Id.Protein>
6NUR|6NUR_protein|mol2

> <Gold.PLP.Fitness>
42.4342

> <Gold.PLP.PLP>
-31.3668

> <Gold.PLP.part.hbond>
-3.6381

> <Gold.PLP.part.metal>
0.0000

> <Gold.PLP.part.buried>
-5.9851

> <Gold.PLP.part.nonpolar>
-21.0703

> <Gold.PLP.part.repulsive>
0.5418

> <Gold.PLP.ligand.clash>
0.0000

> <Gold.PLP.ligand.torsion>
0.5385

> <Gold.PLP.Chemscore.Hbond>
4.0000

> <Gold.PLP.Chemscore.CHOScore>
0.0000

> <Gold.PLP.Chemscore.Metal>
0.0000

> <Gold.Chemscore.Hbonds>
donor molecule, donor type, donor heavy atom, donor atom, acceptor molecule, acceptor atom, score
      L1  H     8    25       P1 10171  1.00
      L1  H    11    42       P1  7948  2.00
      P1  H 11000 11005       L1    20  1.00

> <Gold.PLP.Chemscore.Internal.Correction>
0.1444

> <Gold.Rescore>
     Score         DG    S(hbond)    S(metal)    S(lipo)     H(rot)  DE(clash)    DE(int)     intcor
     14.76     -18.55       2.56        0.00      73.19       1.58       0.11       3.68       ----

> <Gold.Chemscore.Fitness>
14.7600

> <Gold.Chemscore.DG>
-18.5522

> <Gold.Chemscore.ZeroCoef>
-5.4800

> <Gold.Chemscore.Hbond>
2.5604

> <Gold.Chemscore.Metal>
0.0000

> <Gold.Chemscore.Lipo>
73.1906

> <Gold.Chemscore.Internal_Hbond>
0.0000

> <Gold.Chemscore.DEClash>
0.1146

> <Gold.Chemscore.DEInternal>
3.6776

> <Gold.Chemscore.Rot>
1.5792

> <Gold.Chemscore.Internal.Correction>
   9.000000E+99

> <Gold.Chemscore.Hbonds>
donor molecule, donor type, donor heavy atom, donor atom, acceptor molecule, acceptor atom, score
      L1  H     8    25       P1 10171  1.00
      L1  H    11    42       P1  7948  0.96
      P1  H 11000 11005       L1    20  0.25

> <Gold.Chemscore.Hbond.Weighted>
-8.5517

> <Gold.Chemscore.Metal.Weighted>
-0.0000

> <Gold.Chemscore.Lipo.Weighted>
-8.5633

> <Gold.Chemscore.Internal_Hbond.Weighted>
0.0000

> <Gold.Chemscore.DEClash.Weighted>
0.1146

> <Gold.Chemscore.DEInternal.Weighted>
3.6776

> <Gold.Chemscore.Rot.Weighted>
4.0428

> <Gold.Chemscore.Internal.Correction.Weighted>
   9.000000E+99

> <Gold.Protein.RotatedTorsions>
[ 6907 6896 6895 6894 ] final  -86.56 input  -60.11 | X-H torsion
[ 7974 7965 7964 7962 ] final  -18.68 input  175.53 | X-H torsion
[ 8008 7997 7996 7995 ] final  106.24 input   59.86 | X-H torsion
[ 10167 10162 10161 10158 ] final   99.01 input  -65.29 | X-H torsion
[ 10718 10713 10712 10709 ] final  -65.92 input   66.30 | X-H torsion
[ 10763 10752 10751 10750 ] final -160.66 input  -60.55 | X-H torsion
[ 11005 11000 10999 10996 ] final   87.60 input  -57.11 | X-H torsion

> <Gold.Protein.ActiveResidues>
 VAL166  LYS551  ARG553  GLY616  TRP617  ASP618  TYR619  PRO620  LYS621  CYS622 
 ASP623  PHE694  ASN695  SER759  ASP760  ASP761  ALA762  ILE779  LEU786  VAL792 
 PHE793  MET794  SER795  GLU796  ALA797  LYS798  CYS799  TRP800  GLU811  SER814 

> <Gold.Protein.RotatedAtoms>
  150.6867  134.3032  159.4714 H   0  0  0  0  0  0  0  0  0  0  0  0  # atno 6907 bound_to 6896
  152.0926  134.9394  160.0581 H   0  0  0  0  0  0  0  0  0  0  0  0  # atno 6908 bound_to 6896
  152.0704  133.4069  159.4494 H   0  0  0  0  0  0  0  0  0  0  0  0  # atno 6909 bound_to 6896
  146.1880  140.3955  142.8469 H   0  0  0  0  0  0  0  0  0  0  0  0  # atno 7974 bound_to 7965
  156.1726  140.3116  155.9001 H   0  0  0  0  0  0  0  0  0  0  0  0  # atno 8008 bound_to 7997
  155.3555  140.0473  157.3063 H   0  0  0  0  0  0  0  0  0  0  0  0  # atno 8009 bound_to 7997
  154.5257  140.2213  155.8905 H   0  0  0  0  0  0  0  0  0  0  0  0  # atno 8010 bound_to 7997
  139.7656  144.6940  151.0229 H   0  0  0  0  0  0  0  0  0  0  0  0  # atno 10167 bound_to 10162
  156.0642  130.4254  150.1633 H   0  0  0  0  0  0  0  0  0  0  0  0  # atno 10718 bound_to 10713
  154.7371  135.3060  154.8792 H   0  0  0  0  0  0  0  0  0  0  0  0  # atno 10763 bound_to 10752
  153.9618  135.6752  153.4749 H   0  0  0  0  0  0  0  0  0  0  0  0  # atno 10764 bound_to 10752
  153.0973  135.4929  154.8725 H   0  0  0  0  0  0  0  0  0  0  0  0  # atno 10765 bound_to 10752
  139.8916  134.8433  156.2882 H   0  0  0  0  0  0  0  0  0  0  0  0  # atno 11005 bound_to 11000
  144.8433  140.6890  143.6215 LP  0  0  0  0  0  0  0  0  0  0  0  0  # atno 17320 bound_to 7965
  145.3880  139.1622  143.4244 LP  0  0  0  0  0  0  0  0  0  0  0  0  # atno 17321 bound_to 7965
  140.7810  143.4646  151.0230 LP  0  0  0  0  0  0  0  0  0  0  0  0  # atno 17342 bound_to 10162
  139.8331  143.7664  152.3180 LP  0  0  0  0  0  0  0  0  0  0  0  0  # atno 17343 bound_to 10162
  156.9696  130.9830  151.3461 LP  0  0  0  0  0  0  0  0  0  0  0  0  # atno 17370 bound_to 10713
  157.5672  130.8286  149.8343 LP  0  0  0  0  0  0  0  0  0  0  0  0  # atno 17371 bound_to 10713
  140.9993  133.7161  156.0936 LP  0  0  0  0  0  0  0  0  0  0  0  0  # atno 17394 bound_to 11000
  140.7519  134.4035  157.5540 LP  0  0  0  0  0  0  0  0  0  0  0  0  # atno 17395 bound_to 11000

$$$$
