AV-unprocessed.smi:1066|AV-procd|sdf|4671|dock8
  -GOLD-   22720 3183D 1   1.00000     0.00000
 Structure written by MMmdl.
 38 40  0  0  0  0  0  0  0  0  2 V2000
  150.0788  135.2155  156.8366 C   0  0  0  0  0  0  0  0  0  0  0  0
  150.0816  133.7316  156.6066 C   0  0  0  0  0  0  0  0  0  0  0  0
  150.2561  132.9121  157.6354 N   0  0  0  0  0  0  0  0  0  0  0  0
  150.2129  131.6127  157.1168 O   0  0  0  0  0  0  0  0  0  0  0  0
  150.0088  131.7251  155.7845 C   0  0  0  0  0  0  0  0  0  0  0  0
  149.9033  130.3544  154.7518 Cl  0  0  0  0  0  0  0  0  0  0  0  0
  149.9150  133.0256  155.3792 C   0  0  0  0  0  0  0  0  0  0  0  0
  149.6974  133.5889  153.9980 C   0  0  0  0  0  0  0  0  0  0  0  0
  148.2913  133.2333  153.5168 C   0  0  0  0  0  0  0  0  0  0  0  0
  147.7713  132.1720  153.8594 O   0  0  0  0  0  0  0  0  0  0  0  0
  147.6827  134.1345  152.7314 N   0  0  0  0  0  0  0  0  0  0  0  0
  146.3299  134.0038  152.2046 C   0  0  1  0  0  0  0  0  0  0  0  0
  145.5026  135.2849  152.2540 C   0  0  0  0  0  0  0  0  0  0  0  0
  144.4151  135.0196  151.2072 C   0  0  0  0  0  0  0  0  0  0  0  0
  144.9982  134.0843  150.2130 N   0  3  2  0  0  0  0  0  0  0  0  0
  144.1177  132.9403  149.8892 C   0  0  0  0  0  0  0  0  0  0  0  0
  144.7449  131.9454  148.9420 C   0  0  0  0  0  0  0  0  0  0  0  0
  143.6837  132.9022  148.4434 C   0  0  0  0  0  0  0  0  0  0  0  0
  146.3321  133.6817  150.7109 C   0  0  0  0  0  0  0  0  0  0  0  0
  150.5255  135.7451  155.9948 H   0  0  0  0  0  0  0  0  0  0  0  0
  150.6436  135.4841  157.7301 H   0  0  0  0  0  0  0  0  0  0  0  0
  149.0619  135.5879  156.9608 H   0  0  0  0  0  0  0  0  0  0  0  0
  149.8197  134.6727  153.9822 H   0  0  0  0  0  0  0  0  0  0  0  0
  150.4270  133.1940  153.2898 H   0  0  0  0  0  0  0  0  0  0  0  0
  148.1884  134.9777  152.5001 H   0  0  0  0  0  0  0  0  0  0  0  0
  145.8038  133.2093  152.7383 H   0  0  0  0  0  0  0  0  0  0  0  0
  145.0939  135.4920  153.2436 H   0  0  0  0  0  0  0  0  0  0  0  0
  146.1097  136.1403  151.9529 H   0  0  0  0  0  0  0  0  0  0  0  0
  143.5502  134.5630  151.6916 H   0  0  0  0  0  0  0  0  0  0  0  0
  144.0751  135.9381  150.7284 H   0  0  0  0  0  0  0  0  0  0  0  0
  143.4460  132.6058  150.6782 H   0  0  0  0  0  0  0  0  0  0  0  0
  145.7699  132.1177  148.6180 H   0  0  0  0  0  0  0  0  0  0  0  0
  144.4617  130.9003  149.0512 H   0  0  0  0  0  0  0  0  0  0  0  0
  142.7020  132.4867  148.2246 H   0  0  0  0  0  0  0  0  0  0  0  0
  144.0032  133.7102  147.7875 H   0  0  0  0  0  0  0  0  0  0  0  0
  147.0778  134.2867  150.1926 H   0  0  0  0  0  0  0  0  0  0  0  0
  146.5624  132.6343  150.5101 H   0  0  0  0  0  0  0  0  0  0  0  0
  145.1461  134.5974  149.3555 H   0  0  0  0  0  0  0  0  0  0  0  0
  1  2  1  0  0  0  0
  1 20  1  0  0  0  0
  1 21  1  0  0  0  0
  1 22  1  0  0  0  0
  2  7  1  0  0  0  0
  2  3  2  0  0  0  0
  3  4  1  0  0  0  0
  4  5  1  0  0  0  0
  5  6  1  0  0  0  0
  5  7  2  0  0  0  0
  7  8  1  0  0  0  0
  8  9  1  0  0  0  0
  8 23  1  0  0  0  0
  8 24  1  0  0  0  0
  9 10  2  0  0  0  0
  9 11  1  0  0  0  0
 11 12  1  0  0  0  0
 11 25  1  0  0  0  0
 12 19  1  0  0  0  0
 12 13  1  0  0  0  0
 12 26  1  0  0  0  0
 13 14  1  0  0  0  0
 13 27  1  0  0  0  0
 13 28  1  0  0  0  0
 14 15  1  0  0  0  0
 14 29  1  0  0  0  0
 14 30  1  0  0  0  0
 15 16  1  0  0  0  0
 15 19  1  0  0  0  0
 15 38  1  0  0  0  0
 16 18  1  0  0  0  0
 16 17  1  0  0  0  0
 16 31  1  0  0  0  0
 17 18  1  0  0  0  0
 17 32  1  0  0  0  0
 17 33  1  0  0  0  0
 18 34  1  0  0  0  0
 18 35  1  0  0  0  0
 19 36  1  0  0  0  0
 19 37  1  0  0  0  0
M  CHG  1  15   1
M  END
> <s_m_source_file>
AV-unprocessed.smi

> <i_m_source_file_index>
1066

> <i_lp_mmshare_version>
43012

> <i_f3d_flags>
0

> <s_epik_input>
W0NIM11jMW5vYyhDbCljMVtDSDJdQyg9TylbTkhdW0NAQEhdMltDSDJdW0NIMl1OKFtDSDJdMilbQ0hdM1tDSDJdW0NIMl0z

> <s_epik_cmdline>
J2VwaWtfcHl0aG9uJywgJy1waCcsICc3LjAnLCAnLXRuJywgJzgnLCAnLW1hJywgJzIwMCcsICctbWV0YWxfYmluZGluZycsICctaW1hZScsICc8aW5maWxlLm1hZT4nLCAnLW9tYWUnLCAnPG91dGZpbGUubWFlPic=

> <r_epik_Ionization_Penalty>
0.00108138

> <r_epik_Ionization_Penalty_Charging>
0.00108128

> <r_epik_Ionization_Penalty_Neutral>
9.66632e-08

> <r_epik_State_Penalty>
0.000708577

> <r_epik_Charging_Adjusted_Penalty>
0.00178986

> <i_epik_Tot_Q>
1

> <i_epik_Tot_abs_Q>
1

> <r_epik_Metal_State_Penalty>
-0

> <b_epik_Metal_Only>
0

> <s_lp_Force_Field>
OPLS_2005

> <r_lp_Energy>
31.8821

> <b_lp_Chiralities_Consistent>
1

> <s_lp_Variant>
AV-unprocessed.smi:1066-4

> <Gold.Version>
5.8.1

> <Gold.Id.Protein>
6NUR|6NUR_protein|mol2

> <Gold.PLP.Fitness>
39.7550

> <Gold.PLP.PLP>
-32.4590

> <Gold.PLP.part.hbond>
-3.0000

> <Gold.PLP.part.metal>
0.0000

> <Gold.PLP.part.buried>
-0.9954

> <Gold.PLP.part.nonpolar>
-28.3607

> <Gold.PLP.part.repulsive>
0.1459

> <Gold.PLP.ligand.clash>
0.0000

> <Gold.PLP.ligand.torsion>
1.3772

> <Gold.PLP.Chemscore.Hbond>
2.9280

> <Gold.PLP.Chemscore.CHOScore>
0.0000

> <Gold.PLP.Chemscore.Metal>
0.0000

> <Gold.Chemscore.Hbonds>
donor molecule, donor type, donor heavy atom, donor atom, acceptor molecule, acceptor atom, score
      L1  H    11    25       P1  7948  1.00
      L1  H    15    38       P1  7921  0.99
      P1  H  6896  6909       L1     3  1.00

> <Gold.PLP.Chemscore.Internal.Correction>
1.2664

> <Gold.Rescore>
     Score         DG    S(hbond)    S(metal)    S(lipo)     H(rot)  DE(clash)    DE(int)     intcor
     18.33     -20.36       2.66        0.00      85.51       1.57       0.46       1.57       ----

> <Gold.Chemscore.Fitness>
18.3279

> <Gold.Chemscore.DG>
-20.3572

> <Gold.Chemscore.ZeroCoef>
-5.4800

> <Gold.Chemscore.Hbond>
2.6632

> <Gold.Chemscore.Metal>
0.0000

> <Gold.Chemscore.Lipo>
85.5061

> <Gold.Chemscore.Internal_Hbond>
0.0000

> <Gold.Chemscore.DEClash>
0.4614

> <Gold.Chemscore.DEInternal>
1.5679

> <Gold.Chemscore.Rot>
1.5711

> <Gold.Chemscore.Internal.Correction>
   9.000000E+99

> <Gold.Chemscore.Hbonds>
donor molecule, donor type, donor heavy atom, donor atom, acceptor molecule, acceptor atom, score
      L1  H    11    25       P1  7948  0.67
      L1  H    15    38       P1  7921  0.90
      P1  H  6896  6909       L1     3  0.94

> <Gold.Chemscore.Hbond.Weighted>
-8.8950

> <Gold.Chemscore.Metal.Weighted>
-0.0000

> <Gold.Chemscore.Lipo.Weighted>
-10.0042

> <Gold.Chemscore.Internal_Hbond.Weighted>
0.0000

> <Gold.Chemscore.DEClash.Weighted>
0.4614

> <Gold.Chemscore.DEInternal.Weighted>
1.5679

> <Gold.Chemscore.Rot.Weighted>
4.0221

> <Gold.Chemscore.Internal.Correction.Weighted>
   9.000000E+99

> <Gold.Protein.RotatedTorsions>
[ 6907 6896 6895 6894 ] final  -35.96 input  -60.11 | X-H torsion
[ 7974 7965 7964 7962 ] final  142.54 input  175.53 | X-H torsion
[ 8008 7997 7996 7995 ] final  -23.74 input   59.86 | X-H torsion
[ 10167 10162 10161 10158 ] final   64.21 input  -65.29 | X-H torsion
[ 10718 10713 10712 10709 ] final   53.00 input   66.30 | X-H torsion
[ 10763 10752 10751 10750 ] final  126.92 input  -60.55 | X-H torsion
[ 11005 11000 10999 10996 ] final  -89.54 input  -57.11 | X-H torsion

> <Gold.Protein.ActiveResidues>
 VAL166  LYS551  ARG553  GLY616  TRP617  ASP618  TYR619  PRO620  LYS621  CYS622 
 ASP623  PHE694  ASN695  SER759  ASP760  ASP761  ALA762  ILE779  LEU786  VAL792 
 PHE793  MET794  SER795  GLU796  ALA797  LYS798  CYS799  TRP800  GLU811  SER814 

> <Gold.Protein.RotatedAtoms>
  151.0332  134.9554  159.8121 H   0  0  0  0  0  0  0  0  0  0  0  0  # atno 6907 bound_to 6896
  152.5349  134.2754  159.8997 H   0  0  0  0  0  0  0  0  0  0  0  0  # atno 6908 bound_to 6896
  151.2764  133.4188  159.2658 H   0  0  0  0  0  0  0  0  0  0  0  0  # atno 6909 bound_to 6896
  144.8999  139.5438  143.5759 H   0  0  0  0  0  0  0  0  0  0  0  0  # atno 7974 bound_to 7965
  154.4568  140.1972  156.0357 H   0  0  0  0  0  0  0  0  0  0  0  0  # atno 8008 bound_to 7997
  156.0761  140.3278  155.7608 H   0  0  0  0  0  0  0  0  0  0  0  0  # atno 8009 bound_to 7997
  155.5185  140.0568  157.2901 H   0  0  0  0  0  0  0  0  0  0  0  0  # atno 8010 bound_to 7997
  140.1246  144.4700  150.6900 H   0  0  0  0  0  0  0  0  0  0  0  0  # atno 10167 bound_to 10162
  157.5127  130.8511  149.8455 H   0  0  0  0  0  0  0  0  0  0  0  0  # atno 10718 bound_to 10713
  153.7011  135.3283  155.3225 H   0  0  0  0  0  0  0  0  0  0  0  0  # atno 10763 bound_to 10752
  154.8412  135.4454  154.1410 H   0  0  0  0  0  0  0  0  0  0  0  0  # atno 10764 bound_to 10752
  153.2478  135.6978  153.7791 H   0  0  0  0  0  0  0  0  0  0  0  0  # atno 10765 bound_to 10752
  141.1583  133.7636  156.9609 H   0  0  0  0  0  0  0  0  0  0  0  0  # atno 11005 bound_to 11000
  146.3102  139.7720  142.9025 LP  0  0  0  0  0  0  0  0  0  0  0  0  # atno 17320 bound_to 7965
  145.3635  141.0330  143.3271 LP  0  0  0  0  0  0  0  0  0  0  0  0  # atno 17321 bound_to 7965
  140.6852  143.2346  151.5279 LP  0  0  0  0  0  0  0  0  0  0  0  0  # atno 17342 bound_to 10162
  139.5551  144.2297  152.1598 LP  0  0  0  0  0  0  0  0  0  0  0  0  # atno 17343 bound_to 10162
  156.0300  130.3767  150.1715 LP  0  0  0  0  0  0  0  0  0  0  0  0  # atno 17370 bound_to 10713
  156.9905  130.9892  151.3416 LP  0  0  0  0  0  0  0  0  0  0  0  0  # atno 17371 bound_to 10713
  140.1194  134.9427  157.2181 LP  0  0  0  0  0  0  0  0  0  0  0  0  # atno 17394 bound_to 11000
  140.3092  134.3043  155.7271 LP  0  0  0  0  0  0  0  0  0  0  0  0  # atno 17395 bound_to 11000

$$$$
