AV-unprocessed.smi:1446|AV-procd|sdf|5889|dock1
  -GOLD-   22720 5573D 1   1.00000     0.00000
 Structure written by MMmdl.
 47 48  0  0  0  0  0  0  0  0  1 V2000
  146.0994  137.3572  152.7828 C   0  0  0  0  0  0  0  0  0  0  0  0
  146.6337  136.8240  154.1073 C   0  0  0  0  0  0  0  0  0  0  0  0
  146.0082  137.0161  155.1494 O   0  0  0  0  0  0  0  0  0  0  0  0
  147.7947  136.1526  154.0513 N   0  0  0  0  0  0  0  0  0  0  0  0
  148.4885  135.5580  155.1961 C   0  0  2  0  0  0  0  0  0  0  0  0
  148.8805  136.6802  156.1778 C   0  0  0  0  0  0  0  0  0  0  0  0
  148.4878  136.6401  157.3453 O   0  0  0  0  0  0  0  0  0  0  0  0
  149.6373  137.6667  155.6608 N   0  0  0  0  0  0  0  0  0  0  0  0
  150.1338  138.8282  156.3094 C   0  0  0  0  0  0  0  0  0  0  0  0
  150.8316  139.7277  155.4765 C   0  0  0  0  0  0  0  0  0  0  0  0
  151.3601  140.9131  156.0227 C   0  0  0  0  0  0  0  0  0  0  0  0
  151.1872  141.1842  157.4010 C   0  0  0  0  0  0  0  0  0  0  0  0
  151.6830  142.3534  158.0181 N   0  0  0  0  0  0  0  0  0  0  0  0
  150.6848  143.3512  158.3955 C   0  0  0  0  0  0  0  0  0  0  0  0
  151.3662  144.6883  158.7363 C   0  0  0  0  0  0  0  0  0  0  0  0
  152.3558  144.4842  159.7394 O   0  0  0  0  0  0  0  0  0  0  0  0
  153.3783  143.5963  159.3000 C   0  0  0  0  0  0  0  0  0  0  0  0
  152.7691  142.2193  158.9847 C   0  0  0  0  0  0  0  0  0  0  0  0
  150.4718  140.2214  158.1500 C   0  0  0  0  0  0  0  0  0  0  0  0
  149.9628  139.0862  157.6279 N   0  0  0  0  0  0  0  0  0  0  0  0
  149.7654  134.8250  154.6875 C   0  0  0  0  0  0  0  0  0  0  0  0
  149.4314  133.7322  153.6525 C   0  0  0  0  0  0  0  0  0  0  0  0
  150.5938  134.2004  155.8295 C   0  0  0  0  0  0  0  0  0  0  0  0
  146.7918  138.0847  152.3590 H   0  0  0  0  0  0  0  0  0  0  0  0
  145.1337  137.8445  152.9218 H   0  0  0  0  0  0  0  0  0  0  0  0
  145.9712  136.5435  152.0686 H   0  0  0  0  0  0  0  0  0  0  0  0
  148.2398  136.0518  153.1506 H   0  0  0  0  0  0  0  0  0  0  0  0
  147.8306  134.8392  155.6896 H   0  0  0  0  0  0  0  0  0  0  0  0
  149.8872  137.5719  154.6874 H   0  0  0  0  0  0  0  0  0  0  0  0
  150.9648  139.5159  154.4255 H   0  0  0  0  0  0  0  0  0  0  0  0
  151.8964  141.5876  155.3727 H   0  0  0  0  0  0  0  0  0  0  0  0
  149.9567  143.5166  157.6024 H   0  0  0  0  0  0  0  0  0  0  0  0
  150.1320  142.9847  159.2614 H   0  0  0  0  0  0  0  0  0  0  0  0
  151.8197  145.1309  157.8479 H   0  0  0  0  0  0  0  0  0  0  0  0
  150.6286  145.4011  159.1049 H   0  0  0  0  0  0  0  0  0  0  0  0
  153.8816  144.0086  158.4239 H   0  0  0  0  0  0  0  0  0  0  0  0
  154.1296  143.5034  160.0842 H   0  0  0  0  0  0  0  0  0  0  0  0
  152.3856  141.7644  159.8990 H   0  0  0  0  0  0  0  0  0  0  0  0
  153.5469  141.5644  158.5905 H   0  0  0  0  0  0  0  0  0  0  0  0
  150.2769  140.3659  159.2021 H   0  0  0  0  0  0  0  0  0  0  0  0
  150.4059  135.5522  154.1850 H   0  0  0  0  0  0  0  0  0  0  0  0
  148.7587  132.9836  154.0720 H   0  0  0  0  0  0  0  0  0  0  0  0
  150.3333  133.2171  153.3204 H   0  0  0  0  0  0  0  0  0  0  0  0
  148.9578  134.1433  152.7611 H   0  0  0  0  0  0  0  0  0  0  0  0
  149.9957  133.4994  156.4127 H   0  0  0  0  0  0  0  0  0  0  0  0
  150.9866  134.9533  156.5130 H   0  0  0  0  0  0  0  0  0  0  0  0
  151.4524  133.6546  155.4376 H   0  0  0  0  0  0  0  0  0  0  0  0
  1  2  1  0  0  0  0
  1 24  1  0  0  0  0
  1 25  1  0  0  0  0
  1 26  1  0  0  0  0
  2  3  2  0  0  0  0
  2  4  1  0  0  0  0
  4  5  1  0  0  0  0
  4 27  1  0  0  0  0
  5  6  1  0  0  0  0
  5 21  1  0  0  0  0
  5 28  1  0  0  0  0
  6  7  2  0  0  0  0
  6  8  1  0  0  0  0
  8  9  1  0  0  0  0
  8 29  1  0  0  0  0
  9 20  1  0  0  0  0
  9 10  2  0  0  0  0
 10 11  1  0  0  0  0
 10 30  1  0  0  0  0
 11 12  2  0  0  0  0
 11 31  1  0  0  0  0
 12 13  1  0  0  0  0
 12 19  1  0  0  0  0
 13 18  1  0  0  0  0
 13 14  1  0  0  0  0
 14 15  1  0  0  0  0
 14 32  1  0  0  0  0
 14 33  1  0  0  0  0
 15 16  1  0  0  0  0
 15 34  1  0  0  0  0
 15 35  1  0  0  0  0
 16 17  1  0  0  0  0
 17 18  1  0  0  0  0
 17 36  1  0  0  0  0
 17 37  1  0  0  0  0
 18 38  1  0  0  0  0
 18 39  1  0  0  0  0
 19 20  2  0  0  0  0
 19 40  1  0  0  0  0
 21 22  1  0  0  0  0
 21 23  1  0  0  0  0
 21 41  1  0  0  0  0
 22 42  1  0  0  0  0
 22 43  1  0  0  0  0
 22 44  1  0  0  0  0
 23 45  1  0  0  0  0
 23 46  1  0  0  0  0
 23 47  1  0  0  0  0
M  END
> <s_m_source_file>
AV-unprocessed.smi

> <i_m_source_file_index>
1446

> <i_lp_mmshare_version>
43012

> <i_f3d_flags>
0

> <s_epik_input>
W0NIM11DKD1PKVtOSF1bQ0BASF0oW0NIXShbQ0gzXSlbQ0gzXSlDKD1PKVtOSF1jMVtjSF1bY0hdYyhbY0hdbjEpTjJbQ0gyXVtDSDJdT1tDSDJdW0NIMl0y

> <s_epik_cmdline>
J2VwaWtfcHl0aG9uJywgJy1waCcsICc3LjAnLCAnLXRuJywgJzgnLCAnLW1hJywgJzIwMCcsICctbWV0YWxfYmluZGluZycsICctaW1hZScsICc8aW5maWxlLm1hZT4nLCAnLW9tYWUnLCAnPG91dGZpbGUubWFlPic=

> <r_lp_tautomer_probability>
1

> <r_epik_Ionization_Penalty>
0.00298315

> <r_epik_Ionization_Penalty_Charging>
0

> <r_epik_Ionization_Penalty_Neutral>
0.00298315

> <r_epik_State_Penalty>
0.0038483

> <r_epik_Charging_Adjusted_Penalty>
0.0038483

> <i_epik_Tot_Q>
0

> <i_epik_Tot_abs_Q>
0

> <r_epik_Metal_State_Penalty>
-0

> <b_epik_Metal_Only>
0

> <s_lp_Force_Field>
OPLS_2005

> <r_lp_Energy>
27.9322

> <b_lp_Chiralities_Consistent>
1

> <s_lp_Variant>
AV-unprocessed.smi:1446-1

> <Gold.Version>
5.8.1

> <Gold.Id.Protein>
6NUR|6NUR_protein|mol2

> <Gold.PLP.Fitness>
35.2874

> <Gold.PLP.PLP>
-32.3370

> <Gold.PLP.part.hbond>
-1.0000

> <Gold.PLP.part.metal>
0.0000

> <Gold.PLP.part.buried>
-4.3484

> <Gold.PLP.part.nonpolar>
-26.2983

> <Gold.PLP.part.repulsive>
0.0711

> <Gold.PLP.ligand.clash>
0.0000

> <Gold.PLP.ligand.torsion>
0.2225

> <Gold.PLP.Chemscore.Hbond>
1.0000

> <Gold.PLP.Chemscore.CHOScore>
0.0000

> <Gold.PLP.Chemscore.Metal>
0.0000

> <Gold.Chemscore.Hbonds>
donor molecule, donor type, donor heavy atom, donor atom, acceptor molecule, acceptor atom, score
      L1  H     4    27       P1  7948  0.88

> <Gold.PLP.Chemscore.Internal.Correction>
0.3954

> <Gold.Rescore>
     Score         DG    S(hbond)    S(metal)    S(lipo)     H(rot)  DE(clash)    DE(int)     intcor
     13.29     -14.88       0.99        0.00      90.10       1.74       0.00       1.59       ----

> <Gold.Chemscore.Fitness>
13.2937

> <Gold.Chemscore.DG>
-14.8837

> <Gold.Chemscore.ZeroCoef>
-5.4800

> <Gold.Chemscore.Hbond>
0.9923

> <Gold.Chemscore.Metal>
0.0000

> <Gold.Chemscore.Lipo>
90.1037

> <Gold.Chemscore.Internal_Hbond>
0.0000

> <Gold.Chemscore.DEClash>
0.0044

> <Gold.Chemscore.DEInternal>
1.5856

> <Gold.Chemscore.Rot>
1.7394

> <Gold.Chemscore.Internal.Correction>
   9.000000E+99

> <Gold.Chemscore.Hbonds>
donor molecule, donor type, donor heavy atom, donor atom, acceptor molecule, acceptor atom, score
      L1  H     4    27       P1  7948  0.86

> <Gold.Chemscore.Hbond.Weighted>
-3.3143

> <Gold.Chemscore.Metal.Weighted>
-0.0000

> <Gold.Chemscore.Lipo.Weighted>
-10.5421

> <Gold.Chemscore.Internal_Hbond.Weighted>
0.0000

> <Gold.Chemscore.DEClash.Weighted>
0.0044

> <Gold.Chemscore.DEInternal.Weighted>
1.5856

> <Gold.Chemscore.Rot.Weighted>
4.4528

> <Gold.Chemscore.Internal.Correction.Weighted>
   9.000000E+99

> <Gold.Protein.RotatedTorsions>
[ 6907 6896 6895 6894 ] final  -28.95 input  -60.11 | X-H torsion
[ 7974 7965 7964 7962 ] final   39.78 input  175.53 | X-H torsion
[ 8008 7997 7996 7995 ] final  -80.40 input   59.86 | X-H torsion
[ 10167 10162 10161 10158 ] final  154.26 input  -65.29 | X-H torsion
[ 10718 10713 10712 10709 ] final -104.34 input   66.30 | X-H torsion
[ 10763 10752 10751 10750 ] final   24.09 input  -60.55 | X-H torsion
[ 11005 11000 10999 10996 ] final   15.23 input  -57.11 | X-H torsion

> <Gold.Protein.ActiveResidues>
 VAL166  LYS551  ARG553  GLY616  TRP617  ASP618  TYR619  PRO620  LYS621  CYS622 
 ASP623  PHE694  ASN695  SER759  ASP760  ASP761  ALA762  ILE779  LEU786  VAL792 
 PHE793  MET794  SER795  GLU796  ALA797  LYS798  CYS799  TRP800  GLU811  SER814 

> <Gold.Protein.RotatedAtoms>
  151.1259  135.0104  159.8559 H   0  0  0  0  0  0  0  0  0  0  0  0  # atno 6907 bound_to 6896
  152.5449  134.1667  159.8590 H   0  0  0  0  0  0  0  0  0  0  0  0  # atno 6908 bound_to 6896
  151.1730  133.4727  159.2627 H   0  0  0  0  0  0  0  0  0  0  0  0  # atno 6909 bound_to 6896
  146.0957  139.5611  142.9447 H   0  0  0  0  0  0  0  0  0  0  0  0  # atno 7974 bound_to 7965
  154.5880  140.0663  156.9198 H   0  0  0  0  0  0  0  0  0  0  0  0  # atno 8008 bound_to 7997
  155.2346  140.3340  155.4281 H   0  0  0  0  0  0  0  0  0  0  0  0  # atno 8009 bound_to 7997
  156.2236  140.1809  156.7402 H   0  0  0  0  0  0  0  0  0  0  0  0  # atno 8010 bound_to 7997
  139.4824  144.5202  151.7888 H   0  0  0  0  0  0  0  0  0  0  0  0  # atno 10167 bound_to 10162
  156.0300  130.5510  150.7382 H   0  0  0  0  0  0  0  0  0  0  0  0  # atno 10718 bound_to 10713
  153.0789  135.6613  154.0087 H   0  0  0  0  0  0  0  0  0  0  0  0  # atno 10763 bound_to 10752
  153.9713  135.2964  155.3428 H   0  0  0  0  0  0  0  0  0  0  0  0  # atno 10764 bound_to 10752
  154.7184  135.5175  153.8845 H   0  0  0  0  0  0  0  0  0  0  0  0  # atno 10765 bound_to 10752
  140.4606  134.1131  155.7716 H   0  0  0  0  0  0  0  0  0  0  0  0  # atno 11005 bound_to 11000
  145.5952  141.0363  143.2048 LP  0  0  0  0  0  0  0  0  0  0  0  0  # atno 17320 bound_to 7965
  144.7394  139.7493  143.7317 LP  0  0  0  0  0  0  0  0  0  0  0  0  # atno 17321 bound_to 7965
  140.4715  144.1580  150.5918 LP  0  0  0  0  0  0  0  0  0  0  0  0  # atno 17342 bound_to 10162
  140.4377  143.2540  151.9514 LP  0  0  0  0  0  0  0  0  0  0  0  0  # atno 17343 bound_to 10162
  157.4957  131.0914  151.0374 LP  0  0  0  0  0  0  0  0  0  0  0  0  # atno 17370 bound_to 10713
  157.0769  130.5887  149.5413 LP  0  0  0  0  0  0  0  0  0  0  0  0  # atno 17371 bound_to 10713
  141.1623  133.8770  157.1814 LP  0  0  0  0  0  0  0  0  0  0  0  0  # atno 17394 bound_to 11000
  139.9947  135.0051  157.0056 LP  0  0  0  0  0  0  0  0  0  0  0  0  # atno 17395 bound_to 11000

$$$$
