AV-unprocessed.smi:1383|AV-procd|sdf|5624|dock6
  -GOLD-   22720 5243D 1   1.00000     0.00000
 Structure written by MMmdl.
 30 30  0  0  0  0  0  0  0  0  2 V2000
  152.8770  142.9084  160.9374 C   0  0  0  0  0  0  0  0  0  0  0  0
  152.8976  141.6197  160.1003 C   0  0  0  0  0  0  0  0  0  0  0  0
  152.1978  141.7430  158.7280 C   0  0  2  0  0  0  0  0  0  0  0  0
  150.8971  142.5570  158.8384 C   0  0  0  0  0  0  0  0  0  0  0  0
  151.9039  140.3642  158.1058 C   0  0  0  0  0  0  0  0  0  0  0  0
  151.2841  139.5259  158.7633 O   0  0  0  0  0  0  0  0  0  0  0  0
  152.3975  140.2547  156.8484 N   0  5  0  0  0  0  0  0  0  0  0  0
  151.6321  139.7286  155.8801 C   0  0  0  0  0  0  0  0  0  0  0  0
  150.4482  140.2422  155.5291 N   0  0  0  0  0  0  0  0  0  0  0  0
  149.8097  139.5327  154.5074 C   0  0  0  0  0  0  0  0  0  0  0  0
  148.4713  139.9883  154.0012 C   0  0  0  0  0  0  0  0  0  0  0  0
  148.0243  141.2618  154.7232 C   0  0  0  0  0  0  0  0  0  0  0  0
  148.8615  142.3030  154.7045 N   0  0  0  0  0  0  0  0  0  0  0  0
  146.9299  141.3101  155.2814 O   0  0  0  0  0  0  0  0  0  0  0  0
  150.5331  138.4517  154.0727 C   0  0  0  0  0  0  0  0  0  0  0  0
  152.0319  138.2881  154.9422 S   0  0  0  0  0  0  0  0  0  0  0  0
  153.3321  142.7416  161.9138 H   0  0  0  0  0  0  0  0  0  0  0  0
  151.8558  143.2535  161.1009 H   0  0  0  0  0  0  0  0  0  0  0  0
  153.4289  143.7136  160.4520 H   0  0  0  0  0  0  0  0  0  0  0  0
  153.9300  141.2934  159.9662 H   0  0  0  0  0  0  0  0  0  0  0  0
  152.4101  140.8319  160.6752 H   0  0  0  0  0  0  0  0  0  0  0  0
  152.8665  142.3055  158.0724 H   0  0  0  0  0  0  0  0  0  0  0  0
  150.3973  142.6378  157.8723 H   0  0  0  0  0  0  0  0  0  0  0  0
  151.0999  143.5705  159.1854 H   0  0  0  0  0  0  0  0  0  0  0  0
  150.1970  142.1014  159.5396 H   0  0  0  0  0  0  0  0  0  0  0  0
  148.5049  140.1814  152.9282 H   0  0  0  0  0  0  0  0  0  0  0  0
  147.7235  139.2083  154.1492 H   0  0  0  0  0  0  0  0  0  0  0  0
  148.5945  143.1683  155.1524 H   0  0  0  0  0  0  0  0  0  0  0  0
  149.7475  142.2283  154.2267 H   0  0  0  0  0  0  0  0  0  0  0  0
  150.2744  137.7420  153.3015 H   0  0  0  0  0  0  0  0  0  0  0  0
  1  2  1  0  0  0  0
  1 17  1  0  0  0  0
  1 18  1  0  0  0  0
  1 19  1  0  0  0  0
  2  3  1  0  0  0  0
  2 20  1  0  0  0  0
  2 21  1  0  0  0  0
  3  4  1  0  0  0  0
  3  5  1  0  0  0  0
  3 22  1  0  0  0  0
  4 23  1  0  0  0  0
  4 24  1  0  0  0  0
  4 25  1  0  0  0  0
  5  6  2  0  0  0  0
  5  7  1  0  0  0  0
  7  8  1  0  0  0  0
  8 16  1  0  0  0  0
  8  9  2  0  0  0  0
  9 10  1  0  0  0  0
 10 11  1  0  0  0  0
 10 15  2  0  0  0  0
 11 12  1  0  0  0  0
 11 26  1  0  0  0  0
 11 27  1  0  0  0  0
 12 13  1  0  0  0  0
 12 14  2  0  0  0  0
 13 28  1  0  0  0  0
 13 29  1  0  0  0  0
 15 16  1  0  0  0  0
 15 30  1  0  0  0  0
M  CHG  1   7  -1
M  END
> <s_m_source_file>
AV-unprocessed.smi

> <i_m_source_file_index>
1383

> <i_lp_mmshare_version>
43012

> <i_f3d_flags>
0

> <s_epik_input>
W0NIM11bQ0gyXVtDQEhdKFtDSDNdKUMoPU8pW05IXWMxbmMoW2NIXXMxKVtDSDJdQyg9TylbTkgyXQ==

> <s_epik_cmdline>
J2VwaWtfcHl0aG9uJywgJy1waCcsICc3LjAnLCAnLXRuJywgJzgnLCAnLW1hJywgJzIwMCcsICctbWV0YWxfYmluZGluZycsICctaW1hZScsICc8aW5maWxlLm1hZT4nLCAnLW9tYWUnLCAnPG91dGZpbGUubWFlPic=

> <r_lp_tautomer_probability>
1

> <r_epik_Ionization_Penalty>
5.3563

> <r_epik_Ionization_Penalty_Charging>
4.90463

> <r_epik_Ionization_Penalty_Neutral>
0.451677

> <r_epik_State_Penalty>
4.90447

> <r_epik_Charging_Adjusted_Penalty>
9.8091

> <i_epik_Tot_Q>
-1

> <i_epik_Tot_abs_Q>
1

> <r_epik_Metal_State_Penalty>
1.05508

> <b_epik_Metal_Only>
1

> <s_lp_Force_Field>
OPLS_2005

> <r_lp_Energy>
-0.655456

> <b_lp_Chiralities_Consistent>
1

> <s_lp_Variant>
AV-unprocessed.smi:1383-3

> <Gold.Version>
5.8.1

> <Gold.Id.Protein>
6NUR|6NUR_protein|mol2

> <Gold.PLP.Fitness>
41.4054

> <Gold.PLP.PLP>
-31.5141

> <Gold.PLP.part.hbond>
-1.9858

> <Gold.PLP.part.metal>
0.0000

> <Gold.PLP.part.buried>
-3.2804

> <Gold.PLP.part.nonpolar>
-26.2407

> <Gold.PLP.part.repulsive>
0.6885

> <Gold.PLP.ligand.clash>
0.0000

> <Gold.PLP.ligand.torsion>
1.2640

> <Gold.PLP.Chemscore.Hbond>
3.0000

> <Gold.PLP.Chemscore.CHOScore>
1.0996

> <Gold.PLP.Chemscore.Metal>
0.0000

> <Gold.Chemscore.Hbonds>
donor molecule, donor type, donor heavy atom, donor atom, acceptor molecule, acceptor atom, score
      L1  H    13    28       P1  8028  1.00
      P1  H  7997  8008       L1     7  2.00
      L1  C    15    30       P1  7948  0.89
      L1  C    15    30       P1  7949  0.20

> <Gold.PLP.Chemscore.Internal.Correction>
0.1206

> <Gold.Rescore>
     Score         DG    S(hbond)    S(metal)    S(lipo)     H(rot)  DE(clash)    DE(int)     intcor
     13.12     -14.27       1.90        0.00      67.93       2.15       0.08       1.07       ----

> <Gold.Chemscore.Fitness>
13.1166

> <Gold.Chemscore.DG>
-14.2675

> <Gold.Chemscore.ZeroCoef>
-5.4800

> <Gold.Chemscore.Hbond>
1.9017

> <Gold.Chemscore.Metal>
0.0000

> <Gold.Chemscore.Lipo>
67.9339

> <Gold.Chemscore.Internal_Hbond>
0.0000

> <Gold.Chemscore.DEClash>
0.0816

> <Gold.Chemscore.DEInternal>
1.0693

> <Gold.Chemscore.Rot>
2.1532

> <Gold.Chemscore.Internal.Correction>
   9.000000E+99

> <Gold.Chemscore.Hbonds>
donor molecule, donor type, donor heavy atom, donor atom, acceptor molecule, acceptor atom, score
      L1  H    13    28       P1  8028  0.97
      P1  H  7997  8008       L1     7  0.84

> <Gold.Chemscore.Hbond.Weighted>
-6.3515

> <Gold.Chemscore.Metal.Weighted>
-0.0000

> <Gold.Chemscore.Lipo.Weighted>
-7.9483

> <Gold.Chemscore.Internal_Hbond.Weighted>
0.0000

> <Gold.Chemscore.DEClash.Weighted>
0.0816

> <Gold.Chemscore.DEInternal.Weighted>
1.0693

> <Gold.Chemscore.Rot.Weighted>
5.5123

> <Gold.Chemscore.Internal.Correction.Weighted>
   9.000000E+99

> <Gold.Protein.RotatedTorsions>
[ 6907 6896 6895 6894 ] final  -81.43 input  -60.11 | X-H torsion
[ 7974 7965 7964 7962 ] final    8.12 input  175.53 | X-H torsion
[ 8008 7997 7996 7995 ] final  -53.59 input   59.86 | X-H torsion
[ 10167 10162 10161 10158 ] final   26.65 input  -65.29 | X-H torsion
[ 10718 10713 10712 10709 ] final -136.73 input   66.30 | X-H torsion
[ 10763 10752 10751 10750 ] final -138.48 input  -60.55 | X-H torsion
[ 11005 11000 10999 10996 ] final -144.54 input  -57.11 | X-H torsion

> <Gold.Protein.ActiveResidues>
 VAL166  LYS551  ARG553  GLY616  TRP617  ASP618  TYR619  PRO620  LYS621  CYS622 
 ASP623  PHE694  ASN695  SER759  ASP760  ASP761  ALA762  ILE779  LEU786  VAL792 
 PHE793  MET794  SER795  GLU796  ALA797  LYS798  CYS799  TRP800  GLU811  SER814 

> <Gold.Protein.RotatedAtoms>
  150.6912  134.3818  159.5037 H   0  0  0  0  0  0  0  0  0  0  0  0  # atno 6907 bound_to 6896
  152.1619  134.8902  160.0550 H   0  0  0  0  0  0  0  0  0  0  0  0  # atno 6908 bound_to 6896
  151.9961  133.3773  159.4200 H   0  0  0  0  0  0  0  0  0  0  0  0  # atno 6909 bound_to 6896
  146.2420  139.9981  142.8419 H   0  0  0  0  0  0  0  0  0  0  0  0  # atno 7974 bound_to 7965
  154.4138  140.1196  156.5179 H   0  0  0  0  0  0  0  0  0  0  0  0  # atno 8008 bound_to 7997
  155.6733  140.3496  155.4807 H   0  0  0  0  0  0  0  0  0  0  0  0  # atno 8009 bound_to 7997
  155.9614  140.1124  157.0882 H   0  0  0  0  0  0  0  0  0  0  0  0  # atno 8010 bound_to 7997
  140.5004  144.0323  150.6331 H   0  0  0  0  0  0  0  0  0  0  0  0  # atno 10167 bound_to 10162
  156.2803  130.7317  151.1312 H   0  0  0  0  0  0  0  0  0  0  0  0  # atno 10718 bound_to 10713
  154.8635  135.3611  154.5392 H   0  0  0  0  0  0  0  0  0  0  0  0  # atno 10763 bound_to 10752
  153.6014  135.7012  153.5387 H   0  0  0  0  0  0  0  0  0  0  0  0  # atno 10764 bound_to 10752
  153.3287  135.4130  155.1439 H   0  0  0  0  0  0  0  0  0  0  0  0  # atno 10765 bound_to 10752
  140.8014  134.2852  157.4977 H   0  0  0  0  0  0  0  0  0  0  0  0  # atno 11005 bound_to 11000
  145.1441  140.9587  143.4471 LP  0  0  0  0  0  0  0  0  0  0  0  0  # atno 17320 bound_to 7965
  145.0268  139.3376  143.6045 LP  0  0  0  0  0  0  0  0  0  0  0  0  # atno 17321 bound_to 7965
  140.3618  143.2904  152.0375 LP  0  0  0  0  0  0  0  0  0  0  0  0  # atno 17342 bound_to 10162
  139.4871  144.6297  151.7094 LP  0  0  0  0  0  0  0  0  0  0  0  0  # atno 17343 bound_to 10162
  157.7312  131.0610  150.5688 LP  0  0  0  0  0  0  0  0  0  0  0  0  # atno 17370 bound_to 10713
  156.5793  130.4300  149.5984 LP  0  0  0  0  0  0  0  0  0  0  0  0  # atno 17371 bound_to 10713
  139.8721  134.9431  156.3845 LP  0  0  0  0  0  0  0  0  0  0  0  0  # atno 17394 bound_to 11000
  140.9291  133.7592  156.0002 LP  0  0  0  0  0  0  0  0  0  0  0  0  # atno 17395 bound_to 11000

$$$$
