AV-unprocessed.smi:2693|AV-procd|sdf|10397|dock6
  -GOLD-   2272014433D 1   1.00000     0.00000
 Structure written by MMmdl.
 45 47  0  0  0  0  0  0  0  0  1 V2000
  150.9010  142.6076  156.5989 C   0  0  0  0  0  0  0  0  0  0  0  0
  150.8349  141.2283  157.0722 N   0  0  0  0  0  0  0  0  0  0  0  0
  151.5146  140.9114  158.3250 C   0  0  0  0  0  0  0  0  0  0  0  0
  150.1504  140.2460  156.3504 C   0  0  0  0  0  0  0  0  0  0  0  0
  150.4002  140.1586  155.0372 N   0  0  0  0  0  0  0  0  0  0  0  0
  149.7432  139.2103  154.3371 C   0  0  0  0  0  0  0  0  0  0  0  0
  148.8179  138.3390  154.9457 C   0  0  0  0  0  0  0  0  0  0  0  0
  148.1759  137.3515  154.1520 N   0  0  0  0  0  0  0  0  0  0  0  0
  147.0545  136.6637  154.4240 C   0  0  0  0  0  0  0  0  0  0  0  0
  146.3510  136.8132  155.4224 O   0  0  0  0  0  0  0  0  0  0  0  0
  146.7710  135.7949  153.4451 N   0  0  0  0  0  0  0  0  0  0  0  0
  145.5978  134.9145  153.4286 C   0  0  2  0  0  0  0  0  0  0  0  0
  145.7219  133.7871  152.4010 C   0  0  2  0  0  0  0  0  0  0  0  0
  146.8322  133.1547  151.6425 C   0  0  0  0  0  0  0  0  0  0  0  0
  146.0923  133.0349  150.2824 C   0  0  0  0  0  0  0  0  0  0  0  0
  144.8696  133.8034  150.4231 O   0  0  0  0  0  0  0  0  0  0  0  0
  145.1923  134.7832  151.3900 C   0  0  1  0  0  0  0  0  0  0  0  0
  144.3857  135.4152  152.5465 C   0  0  0  0  0  0  0  0  0  0  0  0
  143.0001  134.8157  152.8473 C   0  0  0  0  0  0  0  0  0  0  0  0
  144.1721  136.9300  152.4497 C   0  0  0  0  0  0  0  0  0  0  0  0
  148.6350  138.5117  156.3384 C   0  0  0  0  0  0  0  0  0  0  0  0
  149.3004  139.4630  157.0276 N   0  0  0  0  0  0  0  0  0  0  0  0
  151.4678  142.6616  155.6693 H   0  0  0  0  0  0  0  0  0  0  0  0
  151.3823  143.2638  157.3238 H   0  0  0  0  0  0  0  0  0  0  0  0
  149.8995  142.9979  156.4157 H   0  0  0  0  0  0  0  0  0  0  0  0
  152.2097  140.0830  158.1848 H   0  0  0  0  0  0  0  0  0  0  0  0
  150.7894  140.6273  159.0878 H   0  0  0  0  0  0  0  0  0  0  0  0
  152.0859  141.7592  158.7033 H   0  0  0  0  0  0  0  0  0  0  0  0
  149.9587  139.1497  153.2805 H   0  0  0  0  0  0  0  0  0  0  0  0
  148.5996  137.1753  153.2526 H   0  0  0  0  0  0  0  0  0  0  0  0
  147.3981  135.7383  152.6563 H   0  0  0  0  0  0  0  0  0  0  0  0
  145.2975  134.5557  154.4146 H   0  0  0  0  0  0  0  0  0  0  0  0
  144.9929  133.0136  152.6545 H   0  0  0  0  0  0  0  0  0  0  0  0
  147.7090  133.7999  151.5768 H   0  0  0  0  0  0  0  0  0  0  0  0
  147.1271  132.1864  152.0478 H   0  0  0  0  0  0  0  0  0  0  0  0
  146.7025  133.4364  149.4723 H   0  0  0  0  0  0  0  0  0  0  0  0
  145.8475  132.0002  150.0413 H   0  0  0  0  0  0  0  0  0  0  0  0
  145.9514  135.4678  150.9973 H   0  0  0  0  0  0  0  0  0  0  0  0
  142.3017  135.0089  152.0325 H   0  0  0  0  0  0  0  0  0  0  0  0
  142.5710  135.2482  153.7518 H   0  0  0  0  0  0  0  0  0  0  0  0
  143.0144  133.7376  152.9966 H   0  0  0  0  0  0  0  0  0  0  0  0
  143.3848  137.1799  151.7377 H   0  0  0  0  0  0  0  0  0  0  0  0
  145.0705  137.4503  152.1172 H   0  0  0  0  0  0  0  0  0  0  0  0
  143.8921  137.3544  153.4142 H   0  0  0  0  0  0  0  0  0  0  0  0
  147.9788  137.8879  156.9246 H   0  0  0  0  0  0  0  0  0  0  0  0
  1  2  1  0  0  0  0
  1 23  1  0  0  0  0
  1 24  1  0  0  0  0
  1 25  1  0  0  0  0
  2  3  1  0  0  0  0
  2  4  1  0  0  0  0
  3 26  1  0  0  0  0
  3 27  1  0  0  0  0
  3 28  1  0  0  0  0
  4 22  1  0  0  0  0
  4  5  2  0  0  0  0
  5  6  1  0  0  0  0
  6  7  2  0  0  0  0
  6 29  1  0  0  0  0
  7  8  1  0  0  0  0
  7 21  1  0  0  0  0
  8  9  1  0  0  0  0
  8 30  1  0  0  0  0
  9 10  2  0  0  0  0
  9 11  1  0  0  0  0
 11 12  1  0  0  0  0
 11 31  1  0  0  0  0
 12 18  1  0  0  0  0
 12 13  1  0  0  0  0
 12 32  1  0  0  0  0
 13 17  1  0  0  0  0
 13 14  1  0  0  0  0
 13 33  1  0  0  0  0
 14 15  1  0  0  0  0
 14 34  1  0  0  0  0
 14 35  1  0  0  0  0
 15 16  1  0  0  0  0
 15 36  1  0  0  0  0
 15 37  1  0  0  0  0
 16 17  1  0  0  0  0
 17 18  1  0  0  0  0
 17 38  1  0  0  0  0
 18 19  1  0  0  0  0
 18 20  1  0  0  0  0
 19 39  1  0  0  0  0
 19 40  1  0  0  0  0
 19 41  1  0  0  0  0
 20 42  1  0  0  0  0
 20 43  1  0  0  0  0
 20 44  1  0  0  0  0
 21 22  2  0  0  0  0
 21 45  1  0  0  0  0
M  END
> <s_m_source_file>
AV-unprocessed.smi

> <i_m_source_file_index>
2693

> <i_lp_mmshare_version>
43012

> <i_f3d_flags>
0

> <s_epik_input>
W0NIM11OKFtDSDNdKWMxbltjSF1jKFtjSF1uMSlbTkhdQyg9TylbTkhdW0NASF0yQyhbQ0gzXSkoW0NIM10pW0NAQEhdKFtDQEhdMjMpT1tDSDJdW0NIMl0z

> <s_epik_cmdline>
J2VwaWtfcHl0aG9uJywgJy1waCcsICc3LjAnLCAnLXRuJywgJzgnLCAnLW1hJywgJzIwMCcsICctbWV0YWxfYmluZGluZycsICctaW1hZScsICc8aW5maWxlLm1hZT4nLCAnLW9tYWUnLCAnPG91dGZpbGUubWFlPic=

> <r_lp_tautomer_probability>
1

> <r_epik_Ionization_Penalty>
0.00031779

> <r_epik_Ionization_Penalty_Charging>
0

> <r_epik_Ionization_Penalty_Neutral>
0.00031779

> <r_epik_State_Penalty>
-0

> <r_epik_Charging_Adjusted_Penalty>
0

> <i_epik_Tot_Q>
0

> <i_epik_Tot_abs_Q>
0

> <r_epik_Metal_State_Penalty>
-0

> <b_epik_Metal_Only>
0

> <s_lp_Force_Field>
OPLS_2005

> <r_lp_Energy>
57.3168

> <b_lp_Chiralities_Consistent>
1

> <s_lp_Variant>
AV-unprocessed.smi:2693-1

> <Gold.Version>
5.8.1

> <Gold.Id.Protein>
6NUR|6NUR_protein|mol2

> <Gold.PLP.Fitness>
38.5204

> <Gold.PLP.PLP>
-28.6083

> <Gold.PLP.part.hbond>
-3.0000

> <Gold.PLP.part.metal>
0.0000

> <Gold.PLP.part.buried>
-2.7761

> <Gold.PLP.part.nonpolar>
-22.5056

> <Gold.PLP.part.repulsive>
0.2308

> <Gold.PLP.ligand.clash>
0.0000

> <Gold.PLP.ligand.torsion>
1.1636

> <Gold.PLP.Chemscore.Hbond>
2.9920

> <Gold.PLP.Chemscore.CHOScore>
1.0000

> <Gold.PLP.Chemscore.Metal>
0.0000

> <Gold.Chemscore.Hbonds>
donor molecule, donor type, donor heavy atom, donor atom, acceptor molecule, acceptor atom, score
      L1  H     8    30       P1  7948  1.00
      L1  H    11    31       P1  7948  1.00
      P1  H  7989  7998       L1     5  0.76
      L1  C     6    29       P1  7957  1.00

> <Gold.PLP.Chemscore.Internal.Correction>
0.2633

> <Gold.Rescore>
     Score         DG    S(hbond)    S(metal)    S(lipo)     H(rot)  DE(clash)    DE(int)     intcor
     15.85     -18.27       2.35        0.00      64.08       1.00       0.28       2.13       ----

> <Gold.Chemscore.Fitness>
15.8541

> <Gold.Chemscore.DG>
-18.2709

> <Gold.Chemscore.ZeroCoef>
-5.4800

> <Gold.Chemscore.Hbond>
2.3514

> <Gold.Chemscore.Metal>
0.0000

> <Gold.Chemscore.Lipo>
64.0779

> <Gold.Chemscore.Internal_Hbond>
0.0000

> <Gold.Chemscore.DEClash>
0.2829

> <Gold.Chemscore.DEInternal>
2.1339

> <Gold.Chemscore.Rot>
1.0000

> <Gold.Chemscore.Internal.Correction>
   9.000000E+99

> <Gold.Chemscore.Hbonds>
donor molecule, donor type, donor heavy atom, donor atom, acceptor molecule, acceptor atom, score
      L1  H     8    30       P1  7948  0.98
      L1  H    11    31       P1  7948  0.95
      P1  H  7989  7998       L1     5  0.15

> <Gold.Chemscore.Hbond.Weighted>
-7.8538

> <Gold.Chemscore.Metal.Weighted>
-0.0000

> <Gold.Chemscore.Lipo.Weighted>
-7.4971

> <Gold.Chemscore.Internal_Hbond.Weighted>
0.0000

> <Gold.Chemscore.DEClash.Weighted>
0.2829

> <Gold.Chemscore.DEInternal.Weighted>
2.1339

> <Gold.Chemscore.Rot.Weighted>
2.5600

> <Gold.Chemscore.Internal.Correction.Weighted>
   9.000000E+99

> <Gold.Protein.RotatedTorsions>
[ 6907 6896 6895 6894 ] final  -80.10 input  -60.11 | X-H torsion
[ 7974 7965 7964 7962 ] final   49.77 input  175.53 | X-H torsion
[ 8008 7997 7996 7995 ] final  101.68 input   59.86 | X-H torsion
[ 10167 10162 10161 10158 ] final  143.43 input  -65.29 | X-H torsion
[ 10718 10713 10712 10709 ] final -119.57 input   66.30 | X-H torsion
[ 10763 10752 10751 10750 ] final  137.02 input  -60.55 | X-H torsion
[ 11005 11000 10999 10996 ] final   70.40 input  -57.11 | X-H torsion

> <Gold.Protein.ActiveResidues>
 VAL166  LYS551  ARG553  GLY616  TRP617  ASP618  TYR619  PRO620  LYS621  CYS622 
 ASP623  PHE694  ASN695  SER759  ASP760  ASP761  ALA762  ILE779  LEU786  VAL792 
 PHE793  MET794  SER795  GLU796  ALA797  LYS798  CYS799  TRP800  GLU811  SER814 

> <Gold.Protein.RotatedAtoms>
  150.6936  134.4021  159.5123 H   0  0  0  0  0  0  0  0  0  0  0  0  # atno 6907 bound_to 6896
  152.1793  134.8765  160.0537 H   0  0  0  0  0  0  0  0  0  0  0  0  # atno 6908 bound_to 6896
  151.9762  133.3707  159.4127 H   0  0  0  0  0  0  0  0  0  0  0  0  # atno 6909 bound_to 6896
  146.0077  139.4509  142.9975 H   0  0  0  0  0  0  0  0  0  0  0  0  # atno 7974 bound_to 7965
  156.1322  140.3193  155.8366 H   0  0  0  0  0  0  0  0  0  0  0  0  # atno 8008 bound_to 7997
  155.4311  140.0519  157.3035 H   0  0  0  0  0  0  0  0  0  0  0  0  # atno 8009 bound_to 7997
  154.4908  140.2091  155.9566 H   0  0  0  0  0  0  0  0  0  0  0  0  # atno 8010 bound_to 7997
  139.4970  144.6041  151.6417 H   0  0  0  0  0  0  0  0  0  0  0  0  # atno 10167 bound_to 10162
  156.1191  130.6309  150.9433 H   0  0  0  0  0  0  0  0  0  0  0  0  # atno 10718 bound_to 10713
  153.8661  135.3061  155.3440 H   0  0  0  0  0  0  0  0  0  0  0  0  # atno 10763 bound_to 10752
  154.7827  135.4827  153.9882 H   0  0  0  0  0  0  0  0  0  0  0  0  # atno 10764 bound_to 10752
  153.1433  135.6828  153.9088 H   0  0  0  0  0  0  0  0  0  0  0  0  # atno 10765 bound_to 10752
  139.9600  134.7077  156.0667 H   0  0  0  0  0  0  0  0  0  0  0  0  # atno 11005 bound_to 11000
  145.7390  141.0015  143.1311 LP  0  0  0  0  0  0  0  0  0  0  0  0  # atno 17320 bound_to 7965
  144.6941  139.9076  143.7462 LP  0  0  0  0  0  0  0  0  0  0  0  0  # atno 17321 bound_to 7965
  140.5698  144.0128  150.6211 LP  0  0  0  0  0  0  0  0  0  0  0  0  # atno 17342 bound_to 10162
  140.3242  143.3118  152.0753 LP  0  0  0  0  0  0  0  0  0  0  0  0  # atno 17343 bound_to 10162
  157.6374  131.0914  150.8320 LP  0  0  0  0  0  0  0  0  0  0  0  0  # atno 17370 bound_to 10713
  156.8419  130.5051  149.5320 LP  0  0  0  0  0  0  0  0  0  0  0  0  # atno 17371 bound_to 10713
  141.1276  133.6595  156.3378 LP  0  0  0  0  0  0  0  0  0  0  0  0  # atno 17394 bound_to 11000
  140.5522  134.6017  157.5411 LP  0  0  0  0  0  0  0  0  0  0  0  0  # atno 17395 bound_to 11000

$$$$
