AV-unprocessed.smi:786|AV-procd|sdf|3723|dock6
  -GOLD-   22720 1153D 1   1.00000     0.00000
 Structure written by MMmdl.
 38 39  0  0  0  0  0  0  0  0  2 V2000
  150.7234  137.8271  159.4610 O   0  0  0  0  0  0  0  0  0  0  0  0
  152.1641  137.7461  159.1664 S   0  0  0  0  0  0  0  0  0  0  0  0
  152.9113  136.6680  159.8303 O   0  0  0  0  0  0  0  0  0  0  0  0
  152.2922  137.4210  157.3401 C   0  0  0  0  0  0  0  0  0  0  0  0
  151.3038  138.2469  156.4866 C   0  0  0  0  0  0  0  0  0  0  0  0
  151.3617  137.8179  155.0110 C   0  0  0  0  0  0  0  0  0  0  0  0
  150.4212  138.6751  154.1482 C   0  0  0  0  0  0  0  0  0  0  0  0
  150.7525  140.0517  154.2867 O   0  0  0  0  0  0  0  0  0  0  0  0
  150.5960  140.5224  155.6208 C   0  0  0  0  0  0  0  0  0  0  0  0
  151.5482  139.7664  156.5620 C   0  0  0  0  0  0  0  0  0  0  0  0
  152.9380  139.1682  159.3293 N   0  5  0  0  0  0  0  0  0  0  0  0
  152.2088  140.4270  159.4143 C   0  0  0  0  0  0  0  0  0  0  0  0
  153.0047  141.4692  160.2333 C   0  0  0  0  0  0  0  0  0  0  0  0
  152.5504  142.9180  160.0658 C   0  0  0  0  0  0  0  0  0  0  0  0
  152.1009  143.6664  161.1781 C   0  0  0  0  0  0  0  0  0  0  0  0
  151.7069  145.0035  160.9780 C   0  0  0  0  0  0  0  0  0  0  0  0
  151.7821  145.5460  159.6811 C   0  0  0  0  0  0  0  0  0  0  0  0
  152.2493  144.7230  158.6376 C   0  0  0  0  0  0  0  0  0  0  0  0
  152.6279  143.4404  158.8180 N   0  0  0  0  0  0  0  0  0  0  0  0
  153.3176  137.6326  157.0373 H   0  0  0  0  0  0  0  0  0  0  0  0
  152.1450  136.3532  157.1820 H   0  0  0  0  0  0  0  0  0  0  0  0
  150.2920  138.0445  156.8398 H   0  0  0  0  0  0  0  0  0  0  0  0
  152.3823  137.9143  154.6379 H   0  0  0  0  0  0  0  0  0  0  0  0
  151.0937  136.7657  154.9146 H   0  0  0  0  0  0  0  0  0  0  0  0
  150.5146  138.3930  153.0995 H   0  0  0  0  0  0  0  0  0  0  0  0
  149.3793  138.5152  154.4278 H   0  0  0  0  0  0  0  0  0  0  0  0
  150.8159  141.5898  155.6447 H   0  0  0  0  0  0  0  0  0  0  0  0
  149.5596  140.4041  155.9407 H   0  0  0  0  0  0  0  0  0  0  0  0
  151.4141  140.1380  157.5758 H   0  0  0  0  0  0  0  0  0  0  0  0
  152.5793  139.9896  156.2852 H   0  0  0  0  0  0  0  0  0  0  0  0
  151.9934  140.8484  158.4320 H   0  0  0  0  0  0  0  0  0  0  0  0
  151.2377  140.2796  159.8873 H   0  0  0  0  0  0  0  0  0  0  0  0
  152.9280  141.2163  161.2913 H   0  0  0  0  0  0  0  0  0  0  0  0
  154.0665  141.3958  159.9922 H   0  0  0  0  0  0  0  0  0  0  0  0
  152.0550  143.2229  162.1620 H   0  0  0  0  0  0  0  0  0  0  0  0
  151.3528  145.6017  161.8043 H   0  0  0  0  0  0  0  0  0  0  0  0
  151.4861  146.5666  159.4894 H   0  0  0  0  0  0  0  0  0  0  0  0
  152.3175  145.1043  157.6296 H   0  0  0  0  0  0  0  0  0  0  0  0
  1  2  2  0  0  0  0
  2  3  2  0  0  0  0
  2  4  1  0  0  0  0
  2 11  1  0  0  0  0
  4  5  1  0  0  0  0
  4 20  1  0  0  0  0
  4 21  1  0  0  0  0
  5 10  1  0  0  0  0
  5  6  1  0  0  0  0
  5 22  1  0  0  0  0
  6  7  1  0  0  0  0
  6 23  1  0  0  0  0
  6 24  1  0  0  0  0
  7  8  1  0  0  0  0
  7 25  1  0  0  0  0
  7 26  1  0  0  0  0
  8  9  1  0  0  0  0
  9 10  1  0  0  0  0
  9 27  1  0  0  0  0
  9 28  1  0  0  0  0
 10 29  1  0  0  0  0
 10 30  1  0  0  0  0
 11 12  1  0  0  0  0
 12 13  1  0  0  0  0
 12 31  1  0  0  0  0
 12 32  1  0  0  0  0
 13 14  1  0  0  0  0
 13 33  1  0  0  0  0
 13 34  1  0  0  0  0
 14 19  1  0  0  0  0
 14 15  2  0  0  0  0
 15 16  1  0  0  0  0
 15 35  1  0  0  0  0
 16 17  2  0  0  0  0
 16 36  1  0  0  0  0
 17 18  1  0  0  0  0
 17 37  1  0  0  0  0
 18 19  2  0  0  0  0
 18 38  1  0  0  0  0
M  CHG  1  11  -1
M  END
> <s_m_source_file>
AV-unprocessed.smi

> <i_m_source_file_index>
786

> <i_lp_mmshare_version>
43012

> <i_f3d_flags>
0

> <s_epik_input>
W0NIMl0xW0NIMl1PW0NIMl1bQ0gyXVtDSF0xW0NIMl1TKD1PKSg9TylbTkhdW0NIMl1bQ0gyXWMyW2NIXVtjSF1bY0hdW2NIXW4y

> <s_epik_cmdline>
J2VwaWtfcHl0aG9uJywgJy1waCcsICc3LjAnLCAnLXRuJywgJzgnLCAnLW1hJywgJzIwMCcsICctbWV0YWxfYmluZGluZycsICctaW1hZScsICc8aW5maWxlLm1hZT4nLCAnLW9tYWUnLCAnPG91dGZpbGUubWFlPic=

> <r_epik_Ionization_Penalty>
6.60618

> <r_epik_Ionization_Penalty_Charging>
6.53386

> <r_epik_Ionization_Penalty_Neutral>
0.0723214

> <r_epik_State_Penalty>
6.55045

> <r_epik_Charging_Adjusted_Penalty>
13.0843

> <i_epik_Tot_Q>
-1

> <i_epik_Tot_abs_Q>
1

> <r_epik_Metal_State_Penalty>
2.49618

> <b_epik_Metal_Only>
1

> <s_lp_Force_Field>
OPLS_2005

> <r_lp_Energy>
5.55421

> <b_lp_Chiralities_Consistent>
1

> <s_lp_Variant>
AV-unprocessed.smi:786-3

> <Gold.Version>
5.8.1

> <Gold.Id.Protein>
6NUR|6NUR_protein|mol2

> <Gold.PLP.Fitness>
48.4012

> <Gold.PLP.PLP>
-43.4706

> <Gold.PLP.part.hbond>
-2.3615

> <Gold.PLP.part.metal>
0.0000

> <Gold.PLP.part.buried>
-4.9599

> <Gold.PLP.part.nonpolar>
-35.9429

> <Gold.PLP.part.repulsive>
0.1369

> <Gold.PLP.ligand.clash>
0.0000

> <Gold.PLP.ligand.torsion>
1.0832

> <Gold.PLP.Chemscore.Hbond>
2.0000

> <Gold.PLP.Chemscore.CHOScore>
0.0000

> <Gold.PLP.Chemscore.Metal>
0.0000

> <Gold.Chemscore.Hbonds>
donor molecule, donor type, donor heavy atom, donor atom, acceptor molecule, acceptor atom, score
      P1  H  6896  6909       L1     3  1.00
      P1  H  7989  7998       L1     8  0.76

> <Gold.PLP.Chemscore.Internal.Correction>
1.0970

> <Gold.Rescore>
     Score         DG    S(hbond)    S(metal)    S(lipo)     H(rot)  DE(clash)    DE(int)     intcor
     19.14     -20.48       1.70        0.00     114.05       1.57       0.21       1.14       ----

> <Gold.Chemscore.Fitness>
19.1368

> <Gold.Chemscore.DG>
-20.4820

> <Gold.Chemscore.ZeroCoef>
-5.4800

> <Gold.Chemscore.Hbond>
1.7030

> <Gold.Chemscore.Metal>
0.0000

> <Gold.Chemscore.Lipo>
114.0462

> <Gold.Chemscore.Internal_Hbond>
0.0000

> <Gold.Chemscore.DEClash>
0.2077

> <Gold.Chemscore.DEInternal>
1.1375

> <Gold.Chemscore.Rot>
1.5740

> <Gold.Chemscore.Internal.Correction>
   9.000000E+99

> <Gold.Chemscore.Hbonds>
donor molecule, donor type, donor heavy atom, donor atom, acceptor molecule, acceptor atom, score
      P1  H  6896  6909       L1     3  0.97
      P1  H  7989  7998       L1     8  0.66

> <Gold.Chemscore.Hbond.Weighted>
-5.6879

> <Gold.Chemscore.Metal.Weighted>
-0.0000

> <Gold.Chemscore.Lipo.Weighted>
-13.3434

> <Gold.Chemscore.Internal_Hbond.Weighted>
0.0000

> <Gold.Chemscore.DEClash.Weighted>
0.2077

> <Gold.Chemscore.DEInternal.Weighted>
1.1375

> <Gold.Chemscore.Rot.Weighted>
4.0293

> <Gold.Chemscore.Internal.Correction.Weighted>
   9.000000E+99

> <Gold.Protein.RotatedTorsions>
[ 6907 6896 6895 6894 ] final  152.42 input  -60.11 | X-H torsion
[ 7974 7965 7964 7962 ] final   -4.32 input  175.53 | X-H torsion
[ 8008 7997 7996 7995 ] final   -8.97 input   59.86 | X-H torsion
[ 10167 10162 10161 10158 ] final -147.93 input  -65.29 | X-H torsion
[ 10718 10713 10712 10709 ] final  108.01 input   66.30 | X-H torsion
[ 10763 10752 10751 10750 ] final  141.97 input  -60.55 | X-H torsion
[ 11005 11000 10999 10996 ] final  172.56 input  -57.11 | X-H torsion

> <Gold.Protein.ActiveResidues>
 VAL166  LYS551  ARG553  GLY616  TRP617  ASP618  TYR619  PRO620  LYS621  CYS622 
 ASP623  PHE694  ASN695  SER759  ASP760  ASP761  ALA762  ILE779  LEU786  VAL792 
 PHE793  MET794  SER795  GLU796  ALA797  LYS798  CYS799  TRP800  GLU811  SER814 

> <Gold.Protein.RotatedAtoms>
  152.0870  133.4181  159.4526 H   0  0  0  0  0  0  0  0  0  0  0  0  # atno 6907 bound_to 6896
  150.6862  134.2916  159.4678 H   0  0  0  0  0  0  0  0  0  0  0  0  # atno 6908 bound_to 6896
  152.0763  134.9500  160.0624 H   0  0  0  0  0  0  0  0  0  0  0  0  # atno 6909 bound_to 6896
  146.2374  140.1854  142.8332 H   0  0  0  0  0  0  0  0  0  0  0  0  # atno 7974 bound_to 7965
  154.5691  140.2367  155.8219 H   0  0  0  0  0  0  0  0  0  0  0  0  # atno 8008 bound_to 7997
  156.2092  140.3031  155.9653 H   0  0  0  0  0  0  0  0  0  0  0  0  # atno 8009 bound_to 7997
  155.2746  140.0420  157.3000 H   0  0  0  0  0  0  0  0  0  0  0  0  # atno 8010 bound_to 7997
  139.7578  143.8422  152.2601 H   0  0  0  0  0  0  0  0  0  0  0  0  # atno 10167 bound_to 10162
  157.6604  131.0885  150.6242 H   0  0  0  0  0  0  0  0  0  0  0  0  # atno 10718 bound_to 10713
  153.9480  135.2973  155.3440 H   0  0  0  0  0  0  0  0  0  0  0  0  # atno 10763 bound_to 10752
  154.7441  135.5011  153.9177 H   0  0  0  0  0  0  0  0  0  0  0  0  # atno 10764 bound_to 10752
  153.1008  135.6734  153.9784 H   0  0  0  0  0  0  0  0  0  0  0  0  # atno 10765 bound_to 10752
  140.3310  134.7357  157.4134 H   0  0  0  0  0  0  0  0  0  0  0  0  # atno 11005 bound_to 11000
  144.9901  140.8539  143.5345 LP  0  0  0  0  0  0  0  0  0  0  0  0  # atno 17320 bound_to 7965
  145.1859  139.2327  143.5268 LP  0  0  0  0  0  0  0  0  0  0  0  0  # atno 17321 bound_to 7965
  139.8419  144.7206  150.9320 LP  0  0  0  0  0  0  0  0  0  0  0  0  # atno 17342 bound_to 10162
  140.7804  143.3975  151.1204 LP  0  0  0  0  0  0  0  0  0  0  0  0  # atno 17343 bound_to 10162
  156.6545  130.4494  149.5708 LP  0  0  0  0  0  0  0  0  0  0  0  0  # atno 17370 bound_to 10713
  156.2113  130.6680  151.1272 LP  0  0  0  0  0  0  0  0  0  0  0  0  # atno 17371 bound_to 10713
  140.0861  134.5665  155.8491 LP  0  0  0  0  0  0  0  0  0  0  0  0  # atno 17394 bound_to 11000
  141.2063  133.6654  156.6235 LP  0  0  0  0  0  0  0  0  0  0  0  0  # atno 17395 bound_to 11000

$$$$
