AV-unprocessed.smi:629|AV-procd|sdf|3115|dock5
  -GOLD-   22720 0 43D 1   1.00000     0.00000
 Structure written by MMmdl.
 31 32  0  0  0  0  0  0  0  0  1 V2000
  146.7534  138.6661  152.3936 C   0  0  0  0  0  0  0  0  0  0  0  0
  147.5373  139.8333  152.7667 N   0  0  0  0  0  0  0  0  0  0  0  0
  147.6020  140.3337  154.0097 C   0  0  0  0  0  0  0  0  0  0  0  0
  147.0069  139.8410  154.9678 O   0  0  0  0  0  0  0  0  0  0  0  0
  148.4772  141.5735  154.2072 C   0  0  0  0  0  0  0  0  0  0  0  0
  149.6599  141.2581  155.0670 C   0  0  0  0  0  0  0  0  0  0  0  0
  150.6009  140.4124  154.6623 N   0  0  0  0  0  0  0  0  0  0  0  0
  151.5043  140.3946  155.7343 O   0  0  0  0  0  0  0  0  0  0  0  0
  150.9988  141.2471  156.6578 C   0  0  0  0  0  0  0  0  0  0  0  0
  151.7176  141.4153  157.9555 C   0  0  0  0  0  0  0  0  0  0  0  0
  151.2547  142.6566  158.7400 C   0  0  2  0  0  0  0  0  0  0  0  0
  151.3526  143.9277  157.9350 C   0  0  0  0  0  0  0  0  0  0  0  0
  152.0328  144.8855  158.5609 C   0  0  0  0  0  0  0  0  0  0  0  0
  152.5303  144.4478  159.9097 C   0  0  0  0  0  0  0  0  0  0  0  0
  152.1369  142.9558  159.9804 C   0  0  0  0  0  0  0  0  0  0  0  0
  149.8398  141.7972  156.3050 N   0  0  0  0  0  0  0  0  0  0  0  0
  146.8608  138.4721  151.3264 H   0  0  0  0  0  0  0  0  0  0  0  0
  145.6954  138.8246  152.6064 H   0  0  0  0  0  0  0  0  0  0  0  0
  147.0899  137.7823  152.9369 H   0  0  0  0  0  0  0  0  0  0  0  0
  148.0541  140.2968  152.0331 H   0  0  0  0  0  0  0  0  0  0  0  0
  148.8189  141.9423  153.2392 H   0  0  0  0  0  0  0  0  0  0  0  0
  147.8889  142.3728  154.6601 H   0  0  0  0  0  0  0  0  0  0  0  0
  151.5302  140.5180  158.5468 H   0  0  0  0  0  0  0  0  0  0  0  0
  152.7931  141.4451  157.7759 H   0  0  0  0  0  0  0  0  0  0  0  0
  150.2211  142.5302  159.0661 H   0  0  0  0  0  0  0  0  0  0  0  0
  150.8938  144.0277  156.9621 H   0  0  0  0  0  0  0  0  0  0  0  0
  152.2108  145.8784  158.1746 H   0  0  0  0  0  0  0  0  0  0  0  0
  153.6088  144.5882  159.9898 H   0  0  0  0  0  0  0  0  0  0  0  0
  152.0422  145.0315  160.6908 H   0  0  0  0  0  0  0  0  0  0  0  0
  151.6118  142.7249  160.9080 H   0  0  0  0  0  0  0  0  0  0  0  0
  153.0413  142.3457  159.9673 H   0  0  0  0  0  0  0  0  0  0  0  0
  1  2  1  0  0  0  0
  1 17  1  0  0  0  0
  1 18  1  0  0  0  0
  1 19  1  0  0  0  0
  2  3  1  0  0  0  0
  2 20  1  0  0  0  0
  3  4  2  0  0  0  0
  3  5  1  0  0  0  0
  5  6  1  0  0  0  0
  5 21  1  0  0  0  0
  5 22  1  0  0  0  0
  6 16  1  0  0  0  0
  6  7  2  0  0  0  0
  7  8  1  0  0  0  0
  8  9  1  0  0  0  0
  9 10  1  0  0  0  0
  9 16  2  0  0  0  0
 10 11  1  0  0  0  0
 10 23  1  0  0  0  0
 10 24  1  0  0  0  0
 11 15  1  0  0  0  0
 11 12  1  0  0  0  0
 11 25  1  0  0  0  0
 12 13  2  0  0  0  0
 12 26  1  0  0  0  0
 13 14  1  0  0  0  0
 13 27  1  0  0  0  0
 14 15  1  0  0  0  0
 14 28  1  0  0  0  0
 14 29  1  0  0  0  0
 15 30  1  0  0  0  0
 15 31  1  0  0  0  0
M  END
> <s_m_source_file>
AV-unprocessed.smi

> <i_m_source_file_index>
629

> <i_lp_mmshare_version>
43012

> <i_f3d_flags>
0

> <s_epik_input>
W0NIM11bTkhdQyg9TylbQ0gyXWMxbm9jKG4xKVtDSDJdW0NAQEhdMltDSF09W0NIXVtDSDJdW0NIMl0y

> <s_epik_cmdline>
J2VwaWtfcHl0aG9uJywgJy1waCcsICc3LjAnLCAnLXRuJywgJzgnLCAnLW1hJywgJzIwMCcsICctbWV0YWxfYmluZGluZycsICctaW1hZScsICc8aW5maWxlLm1hZT4nLCAnLW9tYWUnLCAnPG91dGZpbGUubWFlPic=

> <r_lp_tautomer_probability>
1

> <r_epik_Ionization_Penalty>
1.02915e-07

> <r_epik_Ionization_Penalty_Charging>
0

> <r_epik_Ionization_Penalty_Neutral>
1.02915e-07

> <r_epik_State_Penalty>
-0

> <r_epik_Charging_Adjusted_Penalty>
0

> <i_epik_Tot_Q>
0

> <i_epik_Tot_abs_Q>
0

> <r_epik_Metal_State_Penalty>
-0

> <b_epik_Metal_Only>
0

> <s_lp_Force_Field>
OPLS_2005

> <r_lp_Energy>
15.6926

> <b_lp_Chiralities_Consistent>
1

> <s_lp_Variant>
AV-unprocessed.smi:629-1

> <Gold.Version>
5.8.1

> <Gold.Id.Protein>
6NUR|6NUR_protein|mol2

> <Gold.PLP.Fitness>
41.0805

> <Gold.PLP.PLP>
-36.5939

> <Gold.PLP.part.hbond>
-2.6730

> <Gold.PLP.part.metal>
0.0000

> <Gold.PLP.part.buried>
-3.9691

> <Gold.PLP.part.nonpolar>
-30.2417

> <Gold.PLP.part.repulsive>
0.4057

> <Gold.PLP.ligand.clash>
0.0000

> <Gold.PLP.ligand.torsion>
0.3231

> <Gold.PLP.Chemscore.Hbond>
1.7040

> <Gold.PLP.Chemscore.CHOScore>
0.0000

> <Gold.PLP.Chemscore.Metal>
0.0000

> <Gold.Chemscore.Hbonds>
donor molecule, donor type, donor heavy atom, donor atom, acceptor molecule, acceptor atom, score
      L1  H     2    20       P1  7957  0.75
      P1  H  7989  7998       L1     7  0.95

> <Gold.PLP.Chemscore.Internal.Correction>
0.0209

> <Gold.Rescore>
     Score         DG    S(hbond)    S(metal)    S(lipo)     H(rot)  DE(clash)    DE(int)     intcor
     13.97     -14.78       1.32        0.00      83.20       1.89       0.48       0.33       ----

> <Gold.Chemscore.Fitness>
13.9709

> <Gold.Chemscore.DG>
-14.7837

> <Gold.Chemscore.ZeroCoef>
-5.4800

> <Gold.Chemscore.Hbond>
1.3178

> <Gold.Chemscore.Metal>
0.0000

> <Gold.Chemscore.Lipo>
83.2023

> <Gold.Chemscore.Internal_Hbond>
0.0000

> <Gold.Chemscore.DEClash>
0.4833

> <Gold.Chemscore.DEInternal>
0.3295

> <Gold.Chemscore.Rot>
1.8877

> <Gold.Chemscore.Internal.Correction>
   9.000000E+99

> <Gold.Chemscore.Hbonds>
donor molecule, donor type, donor heavy atom, donor atom, acceptor molecule, acceptor atom, score
      L1  H     2    20       P1  7957  0.76
      P1  H  7989  7998       L1     7  0.20

> <Gold.Chemscore.Hbond.Weighted>
-4.4016

> <Gold.Chemscore.Metal.Weighted>
-0.0000

> <Gold.Chemscore.Lipo.Weighted>
-9.7347

> <Gold.Chemscore.Internal_Hbond.Weighted>
0.0000

> <Gold.Chemscore.DEClash.Weighted>
0.4833

> <Gold.Chemscore.DEInternal.Weighted>
0.3295

> <Gold.Chemscore.Rot.Weighted>
4.8325

> <Gold.Chemscore.Internal.Correction.Weighted>
   9.000000E+99

> <Gold.Protein.RotatedTorsions>
[ 6907 6896 6895 6894 ] final -138.00 input  -60.11 | X-H torsion
[ 7974 7965 7964 7962 ] final    6.44 input  175.53 | X-H torsion
[ 8008 7997 7996 7995 ] final  154.50 input   59.86 | X-H torsion
[ 10167 10162 10161 10158 ] final   64.22 input  -65.29 | X-H torsion
[ 10718 10713 10712 10709 ] final -135.62 input   66.30 | X-H torsion
[ 10763 10752 10751 10750 ] final -151.52 input  -60.55 | X-H torsion
[ 11005 11000 10999 10996 ] final  158.19 input  -57.11 | X-H torsion

> <Gold.Protein.ActiveResidues>
 VAL166  LYS551  ARG553  GLY616  TRP617  ASP618  TYR619  PRO620  LYS621  CYS622 
 ASP623  PHE694  ASN695  SER759  ASP760  ASP761  ALA762  ILE779  LEU786  VAL792 
 PHE793  MET794  SER795  GLU796  ALA797  LYS798  CYS799  TRP800  GLU811  SER814 

> <Gold.Protein.RotatedAtoms>
  151.0295  133.5803  159.2662 H   0  0  0  0  0  0  0  0  0  0  0  0  # atno 6907 bound_to 6896
  151.2890  135.0735  159.9207 H   0  0  0  0  0  0  0  0  0  0  0  0  # atno 6908 bound_to 6896
  152.5341  133.9997  159.7943 H   0  0  0  0  0  0  0  0  0  0  0  0  # atno 6909 bound_to 6896
  146.2434  140.0233  142.8396 H   0  0  0  0  0  0  0  0  0  0  0  0  # atno 7974 bound_to 7965
  156.2528  140.1965  156.6656 H   0  0  0  0  0  0  0  0  0  0  0  0  # atno 8008 bound_to 7997
  154.6431  140.0581  156.9895 H   0  0  0  0  0  0  0  0  0  0  0  0  # atno 8009 bound_to 7997
  155.1532  140.3253  155.4429 H   0  0  0  0  0  0  0  0  0  0  0  0  # atno 8010 bound_to 7997
  140.1245  144.4700  150.6901 H   0  0  0  0  0  0  0  0  0  0  0  0  # atno 10167 bound_to 10162
  156.2682  130.7250  151.1207 H   0  0  0  0  0  0  0  0  0  0  0  0  # atno 10718 bound_to 10713
  154.8052  135.3258  154.7449 H   0  0  0  0  0  0  0  0  0  0  0  0  # atno 10763 bound_to 10752
  153.8109  135.6896  153.4845 H   0  0  0  0  0  0  0  0  0  0  0  0  # atno 10764 bound_to 10752
  153.1793  135.4593  154.9951 H   0  0  0  0  0  0  0  0  0  0  0  0  # atno 10765 bound_to 10752
  140.1841  134.8454  157.2837 H   0  0  0  0  0  0  0  0  0  0  0  0  # atno 11005 bound_to 11000
  145.1221  140.9469  143.4594 LP  0  0  0  0  0  0  0  0  0  0  0  0  # atno 17320 bound_to 7965
  145.0470  139.3212  143.5947 LP  0  0  0  0  0  0  0  0  0  0  0  0  # atno 17321 bound_to 7965
  140.6853  143.2347  151.5277 LP  0  0  0  0  0  0  0  0  0  0  0  0  # atno 17342 bound_to 10162
  139.5551  144.2296  152.1598 LP  0  0  0  0  0  0  0  0  0  0  0  0  # atno 17343 bound_to 10162
  157.7274  131.0639  150.5864 LP  0  0  0  0  0  0  0  0  0  0  0  0  # atno 17370 bound_to 10713
  156.5958  130.4341  149.5917 LP  0  0  0  0  0  0  0  0  0  0  0  0  # atno 17371 bound_to 10713
  140.2234  134.3996  155.7555 LP  0  0  0  0  0  0  0  0  0  0  0  0  # atno 17394 bound_to 11000
  141.2224  133.7177  156.8526 LP  0  0  0  0  0  0  0  0  0  0  0  0  # atno 17395 bound_to 11000

$$$$
