AV-unprocessed.smi:1495|AV-procd|sdf|6053|dock7
  -GOLD-   22720 6173D 1   1.00000     0.00000
 Structure written by MMmdl.
 40 41  0  0  0  0  0  0  0  0  1 V2000
  151.9785  145.2854  159.9491 C   0  0  0  0  0  0  0  0  0  0  0  0
  152.4049  144.9694  158.5103 C   0  0  0  0  0  0  0  0  0  0  0  0
  152.1922  143.4955  158.1322 C   0  0  2  0  0  0  0  0  0  0  0  0
  150.6998  143.1042  158.1412 C   0  0  0  0  0  0  0  0  0  0  0  0
  150.5957  141.6772  157.8034 N   0  0  0  0  0  0  0  0  0  0  0  0
  150.1384  141.1509  156.6400 C   0  0  0  0  0  0  0  0  0  0  0  0
  150.2120  139.9522  156.3657 O   0  0  0  0  0  0  0  0  0  0  0  0
  149.5623  142.0368  155.8122 N   0  0  0  0  0  0  0  0  0  0  0  0
  148.9903  141.7085  154.5142 C   0  0  0  0  0  0  0  0  0  0  0  0
  147.5805  141.1246  154.6788 C   0  0  0  0  0  0  0  0  0  0  0  0
  146.5526  142.1876  154.9203 C   0  0  0  0  0  0  0  0  0  0  0  0
  145.8133  142.3737  156.0618 C   0  0  0  0  0  0  0  0  0  0  0  0
  144.7362  143.7360  155.9231 S   0  0  0  0  0  0  0  0  0  0  0  0
  145.3411  144.0085  154.2932 C   0  0  0  0  0  0  0  0  0  0  0  0
  144.8597  145.1104  153.4131 C   0  0  0  0  0  0  0  0  0  0  0  0
  146.2723  143.1262  153.9225 N   0  0  0  0  0  0  0  0  0  0  0  0
  151.2901  140.8725  158.8113 C   0  0  0  0  0  0  0  0  0  0  0  0
  152.7735  141.2814  158.8135 C   0  0  0  0  0  0  0  0  0  0  0  0
  152.8839  142.6785  159.0774 O   0  0  0  0  0  0  0  0  0  0  0  0
  152.1603  146.3338  160.1857 H   0  0  0  0  0  0  0  0  0  0  0  0
  152.5343  144.6813  160.6667 H   0  0  0  0  0  0  0  0  0  0  0  0
  150.9162  145.0913  160.0988 H   0  0  0  0  0  0  0  0  0  0  0  0
  151.8582  145.6107  157.8179 H   0  0  0  0  0  0  0  0  0  0  0  0
  153.4592  145.2233  158.3959 H   0  0  0  0  0  0  0  0  0  0  0  0
  152.6057  143.3225  157.1367 H   0  0  0  0  0  0  0  0  0  0  0  0
  150.2732  143.2694  159.1317 H   0  0  0  0  0  0  0  0  0  0  0  0
  150.1417  143.7576  157.4708 H   0  0  0  0  0  0  0  0  0  0  0  0
  149.5197  143.0026  156.1030 H   0  0  0  0  0  0  0  0  0  0  0  0
  148.9517  142.6071  153.8957 H   0  0  0  0  0  0  0  0  0  0  0  0
  149.6393  140.9932  154.0061 H   0  0  0  0  0  0  0  0  0  0  0  0
  147.3170  140.5516  153.7886 H   0  0  0  0  0  0  0  0  0  0  0  0
  147.5768  140.4118  155.5046 H   0  0  0  0  0  0  0  0  0  0  0  0
  145.8384  141.7951  156.9733 H   0  0  0  0  0  0  0  0  0  0  0  0
  145.7032  145.5986  152.9242 H   0  0  0  0  0  0  0  0  0  0  0  0
  144.3182  145.8538  153.9982 H   0  0  0  0  0  0  0  0  0  0  0  0
  144.1923  144.7120  152.6488 H   0  0  0  0  0  0  0  0  0  0  0  0
  150.8473  141.0551  159.7914 H   0  0  0  0  0  0  0  0  0  0  0  0
  151.1983  139.7999  158.6352 H   0  0  0  0  0  0  0  0  0  0  0  0
  153.3162  140.7324  159.5831 H   0  0  0  0  0  0  0  0  0  0  0  0
  153.2442  141.0441  157.8581 H   0  0  0  0  0  0  0  0  0  0  0  0
  1  2  1  0  0  0  0
  1 20  1  0  0  0  0
  1 21  1  0  0  0  0
  1 22  1  0  0  0  0
  2  3  1  0  0  0  0
  2 23  1  0  0  0  0
  2 24  1  0  0  0  0
  3 19  1  0  0  0  0
  3  4  1  0  0  0  0
  3 25  1  0  0  0  0
  4  5  1  0  0  0  0
  4 26  1  0  0  0  0
  4 27  1  0  0  0  0
  5  6  1  0  0  0  0
  5 17  1  0  0  0  0
  6  7  2  0  0  0  0
  6  8  1  0  0  0  0
  8  9  1  0  0  0  0
  8 28  1  0  0  0  0
  9 10  1  0  0  0  0
  9 29  1  0  0  0  0
  9 30  1  0  0  0  0
 10 11  1  0  0  0  0
 10 31  1  0  0  0  0
 10 32  1  0  0  0  0
 11 16  1  0  0  0  0
 11 12  2  0  0  0  0
 12 13  1  0  0  0  0
 12 33  1  0  0  0  0
 13 14  1  0  0  0  0
 14 15  1  0  0  0  0
 14 16  2  0  0  0  0
 15 34  1  0  0  0  0
 15 35  1  0  0  0  0
 15 36  1  0  0  0  0
 17 18  1  0  0  0  0
 17 37  1  0  0  0  0
 17 38  1  0  0  0  0
 18 19  1  0  0  0  0
 18 39  1  0  0  0  0
 18 40  1  0  0  0  0
M  END
> <s_m_source_file>
AV-unprocessed.smi

> <i_m_source_file_index>
1495

> <i_lp_mmshare_version>
43012

> <i_f3d_flags>
0

> <s_epik_input>
W0NIM11bQ0gyXVtDQEBIXTFbQ0gyXU4oW0NIMl1bQ0gyXU8xKUMoPU8pW05IXVtDSDJdW0NIMl1jMltjSF1zYyhuMilbQ0gzXQ==

> <s_epik_cmdline>
J2VwaWtfcHl0aG9uJywgJy1waCcsICc3LjAnLCAnLXRuJywgJzgnLCAnLW1hJywgJzIwMCcsICctbWV0YWxfYmluZGluZycsICctaW1hZScsICc8aW5maWxlLm1hZT4nLCAnLW9tYWUnLCAnPG91dGZpbGUubWFlPic=

> <r_epik_Ionization_Penalty>
0.00206013

> <r_epik_Ionization_Penalty_Charging>
0

> <r_epik_Ionization_Penalty_Neutral>
0.00206013

> <r_epik_State_Penalty>
0.00138662

> <r_epik_Charging_Adjusted_Penalty>
0.00138662

> <i_epik_Tot_Q>
0

> <i_epik_Tot_abs_Q>
0

> <r_epik_Metal_State_Penalty>
-0

> <b_epik_Metal_Only>
0

> <s_lp_Force_Field>
OPLS_2005

> <r_lp_Energy>
21.6891

> <b_lp_Chiralities_Consistent>
1

> <s_lp_Variant>
AV-unprocessed.smi:1495-1

> <Gold.Version>
5.8.1

> <Gold.Id.Protein>
6NUR|6NUR_protein|mol2

> <Gold.PLP.Fitness>
44.8859

> <Gold.PLP.PLP>
-42.4845

> <Gold.PLP.part.hbond>
-1.1224

> <Gold.PLP.part.metal>
0.0000

> <Gold.PLP.part.buried>
-4.8928

> <Gold.PLP.part.nonpolar>
-36.1215

> <Gold.PLP.part.repulsive>
0.3346

> <Gold.PLP.ligand.clash>
0.0000

> <Gold.PLP.ligand.torsion>
0.2899

> <Gold.PLP.Chemscore.Hbond>
0.9760

> <Gold.PLP.Chemscore.CHOScore>
0.0000

> <Gold.PLP.Chemscore.Metal>
0.0000

> <Gold.Chemscore.Hbonds>
donor molecule, donor type, donor heavy atom, donor atom, acceptor molecule, acceptor atom, score
      L1  H     8    28       P1  8028  0.90

> <Gold.PLP.Chemscore.Internal.Correction>
0.0533

> <Gold.Rescore>
     Score         DG    S(hbond)    S(metal)    S(lipo)     H(rot)  DE(clash)    DE(int)     intcor
     16.32     -16.83       0.98        0.00     100.05       1.42       0.03       0.49       ----

> <Gold.Chemscore.Fitness>
16.3160

> <Gold.Chemscore.DG>
-16.8330

> <Gold.Chemscore.ZeroCoef>
-5.4800

> <Gold.Chemscore.Hbond>
0.9840

> <Gold.Chemscore.Metal>
0.0000

> <Gold.Chemscore.Lipo>
100.0460

> <Gold.Chemscore.Internal_Hbond>
0.0000

> <Gold.Chemscore.DEClash>
0.0306

> <Gold.Chemscore.DEInternal>
0.4865

> <Gold.Chemscore.Rot>
1.4214

> <Gold.Chemscore.Internal.Correction>
   9.000000E+99

> <Gold.Chemscore.Hbonds>
donor molecule, donor type, donor heavy atom, donor atom, acceptor molecule, acceptor atom, score
      L1  H     8    28       P1  8028  0.88

> <Gold.Chemscore.Hbond.Weighted>
-3.2865

> <Gold.Chemscore.Metal.Weighted>
-0.0000

> <Gold.Chemscore.Lipo.Weighted>
-11.7054

> <Gold.Chemscore.Internal_Hbond.Weighted>
0.0000

> <Gold.Chemscore.DEClash.Weighted>
0.0306

> <Gold.Chemscore.DEInternal.Weighted>
0.4865

> <Gold.Chemscore.Rot.Weighted>
3.6388

> <Gold.Chemscore.Internal.Correction.Weighted>
   9.000000E+99

> <Gold.Protein.RotatedTorsions>
[ 6907 6896 6895 6894 ] final   87.23 input  -60.11 | X-H torsion
[ 7974 7965 7964 7962 ] final  173.01 input  175.53 | X-H torsion
[ 8008 7997 7996 7995 ] final   72.11 input   59.86 | X-H torsion
[ 10167 10162 10161 10158 ] final    1.46 input  -65.29 | X-H torsion
[ 10718 10713 10712 10709 ] final  -90.69 input   66.30 | X-H torsion
[ 10763 10752 10751 10750 ] final  -96.68 input  -60.55 | X-H torsion
[ 11005 11000 10999 10996 ] final  -22.20 input  -57.11 | X-H torsion

> <Gold.Protein.ActiveResidues>
 VAL166  LYS551  ARG553  GLY616  TRP617  ASP618  TYR619  PRO620  LYS621  CYS622 
 ASP623  PHE694  ASN695  SER759  ASP760  ASP761  ALA762  ILE779  LEU786  VAL792 
 PHE793  MET794  SER795  GLU796  ALA797  LYS798  CYS799  TRP800  GLU811  SER814 

> <Gold.Protein.RotatedAtoms>
  152.5408  134.2309  159.8824 H   0  0  0  0  0  0  0  0  0  0  0  0  # atno 6907 bound_to 6896
  151.2281  133.4458  159.2610 H   0  0  0  0  0  0  0  0  0  0  0  0  # atno 6908 bound_to 6896
  151.0741  134.9830  159.8379 H   0  0  0  0  0  0  0  0  0  0  0  0  # atno 6909 bound_to 6896
  144.7254  139.9584  143.6434 H   0  0  0  0  0  0  0  0  0  0  0  0  # atno 7974 bound_to 7965
  155.7640  140.3486  155.5212 H   0  0  0  0  0  0  0  0  0  0  0  0  # atno 8008 bound_to 7997
  155.8887  140.1014  157.1455 H   0  0  0  0  0  0  0  0  0  0  0  0  # atno 8009 bound_to 7997
  154.4031  140.1308  156.4275 H   0  0  0  0  0  0  0  0  0  0  0  0  # atno 8010 bound_to 7997
  140.6681  143.7123  150.7868 H   0  0  0  0  0  0  0  0  0  0  0  0  # atno 10167 bound_to 10162
  155.9989  130.4919  150.5362 H   0  0  0  0  0  0  0  0  0  0  0  0  # atno 10718 bound_to 10713
  154.7261  135.5075  153.8888 H   0  0  0  0  0  0  0  0  0  0  0  0  # atno 10763 bound_to 10752
  153.0906  135.6658  153.9871 H   0  0  0  0  0  0  0  0  0  0  0  0  # atno 10764 bound_to 10752
  153.9683  135.3041  155.3408 H   0  0  0  0  0  0  0  0  0  0  0  0  # atno 10765 bound_to 10752
  140.8634  133.7772  156.0101 H   0  0  0  0  0  0  0  0  0  0  0  0  # atno 11005 bound_to 11000
  146.0657  139.3648  143.0554 LP  0  0  0  0  0  0  0  0  0  0  0  0  # atno 17320 bound_to 7965
  145.8034  140.9760  143.0986 LP  0  0  0  0  0  0  0  0  0  0  0  0  # atno 17321 bound_to 7965
  140.0804  143.4974  152.2533 LP  0  0  0  0  0  0  0  0  0  0  0  0  # atno 17342 bound_to 10162
  139.5938  144.7560  151.3335 LP  0  0  0  0  0  0  0  0  0  0  0  0  # atno 17343 bound_to 10162
  157.3304  131.0698  151.1865 LP  0  0  0  0  0  0  0  0  0  0  0  0  # atno 17370 bound_to 10713
  157.2748  130.6721  149.6037 LP  0  0  0  0  0  0  0  0  0  0  0  0  # atno 17371 bound_to 10713
  140.8657  134.2787  157.5214 LP  0  0  0  0  0  0  0  0  0  0  0  0  # atno 17394 bound_to 11000
  139.8708  134.9541  156.4166 LP  0  0  0  0  0  0  0  0  0  0  0  0  # atno 17395 bound_to 11000

$$$$
