AV-unprocessed.smi:3132|AV-procd|sdf|11933|dock8
  -GOLD-   2272017323D 1   1.00000     0.00000
 Structure written by MMmdl.
 33 34  0  0  0  0  0  0  0  0  1 V2000
  150.5236  139.9308  156.6911 C   0  0  0  0  0  0  0  0  0  0  0  0
  150.0394  141.3669  156.4504 C   0  0  2  0  0  0  0  0  0  0  0  0
  149.8414  141.6501  154.9463 C   0  0  0  0  0  0  0  0  0  0  0  0
  148.4767  141.4183  154.5087 N   0  0  0  0  0  0  0  0  0  0  0  0
  148.0442  140.5042  153.5563 C   0  0  0  0  0  0  0  0  0  0  0  0
  146.6786  140.6499  153.4639 C   0  0  0  0  0  0  0  0  0  0  0  0
  146.2513  141.6364  154.3495 N   0  0  0  0  0  0  0  0  0  0  0  0
  147.3708  142.0448  154.9326 C   0  0  0  0  0  0  0  0  0  0  0  0
  151.0083  142.2987  157.0255 N   0  0  0  0  0  0  0  0  0  0  0  0
  151.3915  142.3382  158.3115 C   0  0  0  0  0  0  0  0  0  0  0  0
  150.9916  141.5433  159.1629 O   0  0  0  0  0  0  0  0  0  0  0  0
  152.3421  143.4777  158.6943 C   0  0  2  0  0  0  0  0  0  0  0  0
  152.7305  143.5073  160.1842 C   0  0  0  0  0  0  0  0  0  0  0  0
  151.9519  144.6869  160.7304 C   0  0  0  0  0  0  0  0  0  0  0  0
  151.8936  145.6045  159.5178 C   0  0  0  0  0  0  0  0  0  0  0  0
  151.6693  144.7101  158.4387 O   0  0  0  0  0  0  0  0  0  0  0  0
  149.8131  139.2059  156.2926 H   0  0  0  0  0  0  0  0  0  0  0  0
  150.6358  139.7279  157.7568 H   0  0  0  0  0  0  0  0  0  0  0  0
  151.4868  139.7496  156.2133 H   0  0  0  0  0  0  0  0  0  0  0  0
  149.0769  141.4703  156.9551 H   0  0  0  0  0  0  0  0  0  0  0  0
  150.1162  142.6789  154.7091 H   0  0  0  0  0  0  0  0  0  0  0  0
  150.4953  141.0086  154.3544 H   0  0  0  0  0  0  0  0  0  0  0  0
  148.7255  139.8513  153.0310 H   0  0  0  0  0  0  0  0  0  0  0  0
  145.9767  140.1252  152.8328 H   0  0  0  0  0  0  0  0  0  0  0  0
  147.3880  142.8226  155.6820 H   0  0  0  0  0  0  0  0  0  0  0  0
  151.3862  142.9988  156.4038 H   0  0  0  0  0  0  0  0  0  0  0  0
  153.2443  143.4289  158.0821 H   0  0  0  0  0  0  0  0  0  0  0  0
  152.5140  142.5842  160.7236 H   0  0  0  0  0  0  0  0  0  0  0  0
  153.8010  143.6941  160.2789 H   0  0  0  0  0  0  0  0  0  0  0  0
  150.9456  144.3757  161.0141 H   0  0  0  0  0  0  0  0  0  0  0  0
  152.4265  145.1506  161.5954 H   0  0  0  0  0  0  0  0  0  0  0  0
  151.1040  146.3523  159.5905 H   0  0  0  0  0  0  0  0  0  0  0  0
  152.8452  146.1177  159.3726 H   0  0  0  0  0  0  0  0  0  0  0  0
  1  2  1  0  0  0  0
  1 17  1  0  0  0  0
  1 18  1  0  0  0  0
  1 19  1  0  0  0  0
  2  3  1  0  0  0  0
  2  9  1  0  0  0  0
  2 20  1  0  0  0  0
  3  4  1  0  0  0  0
  3 21  1  0  0  0  0
  3 22  1  0  0  0  0
  4  8  1  0  0  0  0
  4  5  1  0  0  0  0
  5  6  2  0  0  0  0
  5 23  1  0  0  0  0
  6  7  1  0  0  0  0
  6 24  1  0  0  0  0
  7  8  2  0  0  0  0
  8 25  1  0  0  0  0
  9 10  1  0  0  0  0
  9 26  1  0  0  0  0
 10 11  2  0  0  0  0
 10 12  1  0  0  0  0
 12 16  1  0  0  0  0
 12 13  1  0  0  0  0
 12 27  1  0  0  0  0
 13 14  1  0  0  0  0
 13 28  1  0  0  0  0
 13 29  1  0  0  0  0
 14 15  1  0  0  0  0
 14 30  1  0  0  0  0
 14 31  1  0  0  0  0
 15 16  1  0  0  0  0
 15 32  1  0  0  0  0
 15 33  1  0  0  0  0
M  END
> <s_m_source_file>
AV-unprocessed.smi

> <i_m_source_file_index>
3132

> <i_lp_mmshare_version>
43012

> <i_f3d_flags>
0

> <s_epik_input>
W2NIXTFuW2NIXVtjSF1uMVtDSDJdW0NAQEhdKFtDSDNdKVtOSF1DKD1PKVtDQEBIXTJbQ0gyXVtDSDJdW0NIMl1PMg==

> <s_epik_cmdline>
J2VwaWtfcHl0aG9uJywgJy1waCcsICc3LjAnLCAnLXRuJywgJzgnLCAnLW1hJywgJzIwMCcsICctbWV0YWxfYmluZGluZycsICctaW1hZScsICc8aW5maWxlLm1hZT4nLCAnLW9tYWUnLCAnPG91dGZpbGUubWFlPic=

> <r_lp_tautomer_probability>
1

> <r_epik_Ionization_Penalty>
0.630322

> <r_epik_Ionization_Penalty_Charging>
0.630322

> <r_epik_Ionization_Penalty_Neutral>
3.82652e-08

> <r_epik_State_Penalty>
0.647117

> <r_epik_Charging_Adjusted_Penalty>
1.27744

> <i_epik_Tot_Q>
0

> <i_epik_Tot_abs_Q>
0

> <r_epik_Metal_State_Penalty>
0.309095

> <b_epik_Metal_Only>
0

> <s_lp_Force_Field>
OPLS_2005

> <r_lp_Energy>
19.5701

> <b_lp_Chiralities_Consistent>
1

> <s_lp_Variant>
AV-unprocessed.smi:3132-5

> <Gold.Version>
5.8.1

> <Gold.Id.Protein>
6NUR|6NUR_protein|mol2

> <Gold.PLP.Fitness>
40.3671

> <Gold.PLP.PLP>
-32.5853

> <Gold.PLP.part.hbond>
-0.5236

> <Gold.PLP.part.metal>
0.0000

> <Gold.PLP.part.buried>
0.0801

> <Gold.PLP.part.nonpolar>
-31.4866

> <Gold.PLP.part.repulsive>
0.3163

> <Gold.PLP.ligand.clash>
0.0000

> <Gold.PLP.ligand.torsion>
0.4675

> <Gold.PLP.Chemscore.Hbond>
0.0000

> <Gold.PLP.Chemscore.CHOScore>
2.8962

> <Gold.PLP.Chemscore.Metal>
0.0000

> <Gold.Chemscore.Hbonds>
donor molecule, donor type, donor heavy atom, donor atom, acceptor molecule, acceptor atom, score
      L1  C     5    23       P1  7957  1.00
      L1  C     6    24       P1 10175  1.00
      L1  C     8    25       P1  8028  0.89

> <Gold.PLP.Chemscore.Internal.Correction>
0.0282

> <Gold.Rescore>
     Score         DG    S(hbond)    S(metal)    S(lipo)     H(rot)  DE(clash)    DE(int)     intcor
      9.79     -10.38       0.00        0.00      82.64       1.86       0.06       0.53       ----

> <Gold.Chemscore.Fitness>
9.7902

> <Gold.Chemscore.DG>
-10.3780

> <Gold.Chemscore.ZeroCoef>
-5.4800

> <Gold.Chemscore.Hbond>
0.0000

> <Gold.Chemscore.Metal>
0.0000

> <Gold.Chemscore.Lipo>
82.6403

> <Gold.Chemscore.Internal_Hbond>
0.0000

> <Gold.Chemscore.DEClash>
0.0628

> <Gold.Chemscore.DEInternal>
0.5250

> <Gold.Chemscore.Rot>
1.8636

> <Gold.Chemscore.Internal.Correction>
   9.000000E+99

> <Gold.Chemscore.Hbond.Weighted>
-0.0000

> <Gold.Chemscore.Metal.Weighted>
-0.0000

> <Gold.Chemscore.Lipo.Weighted>
-9.6689

> <Gold.Chemscore.Internal_Hbond.Weighted>
0.0000

> <Gold.Chemscore.DEClash.Weighted>
0.0628

> <Gold.Chemscore.DEInternal.Weighted>
0.5250

> <Gold.Chemscore.Rot.Weighted>
4.7709

> <Gold.Chemscore.Internal.Correction.Weighted>
   9.000000E+99

> <Gold.Protein.RotatedTorsions>
[ 6907 6896 6895 6894 ] final   47.34 input  -60.11 | X-H torsion
[ 7974 7965 7964 7962 ] final   17.34 input  175.53 | X-H torsion
[ 8008 7997 7996 7995 ] final  169.45 input   59.86 | X-H torsion
[ 10167 10162 10161 10158 ] final   51.76 input  -65.29 | X-H torsion
[ 10718 10713 10712 10709 ] final -130.87 input   66.30 | X-H torsion
[ 10763 10752 10751 10750 ] final -137.68 input  -60.55 | X-H torsion
[ 11005 11000 10999 10996 ] final -118.15 input  -57.11 | X-H torsion

> <Gold.Protein.ActiveResidues>
 VAL166  LYS551  ARG553  GLY616  TRP617  ASP618  TYR619  PRO620  LYS621  CYS622 
 ASP623  PHE694  ASN695  SER759  ASP760  ASP761  ALA762  ILE779  LEU786  VAL792 
 PHE793  MET794  SER795  GLU796  ALA797  LYS798  CYS799  TRP800  GLU811  SER814 

> <Gold.Protein.RotatedAtoms>
  152.2669  134.7974  160.0420 H   0  0  0  0  0  0  0  0  0  0  0  0  # atno 6907 bound_to 6896
  151.8600  133.3450  159.3709 H   0  0  0  0  0  0  0  0  0  0  0  0  # atno 6908 bound_to 6896
  150.7137  134.5143  159.5666 H   0  0  0  0  0  0  0  0  0  0  0  0  # atno 6909 bound_to 6896
  146.2221  139.8616  142.8604 H   0  0  0  0  0  0  0  0  0  0  0  0  # atno 7974 bound_to 7965
  156.1456  140.1564  156.8852 H   0  0  0  0  0  0  0  0  0  0  0  0  # atno 8008 bound_to 7997
  154.5025  140.0821  156.7865 H   0  0  0  0  0  0  0  0  0  0  0  0  # atno 8009 bound_to 7997
  155.3995  140.3414  155.4258 H   0  0  0  0  0  0  0  0  0  0  0  0  # atno 8010 bound_to 7997
  140.2585  144.3400  150.6325 H   0  0  0  0  0  0  0  0  0  0  0  0  # atno 10167 bound_to 10162
  156.2188  130.6965  151.0732 H   0  0  0  0  0  0  0  0  0  0  0  0  # atno 10718 bound_to 10713
  154.8656  135.3635  154.5263 H   0  0  0  0  0  0  0  0  0  0  0  0  # atno 10763 bound_to 10752
  153.5890  135.7016  153.5436 H   0  0  0  0  0  0  0  0  0  0  0  0  # atno 10764 bound_to 10752
  153.3390  135.4103  155.1518 H   0  0  0  0  0  0  0  0  0  0  0  0  # atno 10765 bound_to 10752
  141.0306  133.9987  157.3149 H   0  0  0  0  0  0  0  0  0  0  0  0  # atno 11005 bound_to 11000
  145.2699  141.0105  143.3778 LP  0  0  0  0  0  0  0  0  0  0  0  0  # atno 17320 bound_to 7965
  144.9232  139.4387  143.6531 LP  0  0  0  0  0  0  0  0  0  0  0  0  # atno 17321 bound_to 7965
  140.5985  143.2167  151.7118 LP  0  0  0  0  0  0  0  0  0  0  0  0  # atno 17342 bound_to 10162
  139.5024  144.3830  152.0356 LP  0  0  0  0  0  0  0  0  0  0  0  0  # atno 17343 bound_to 10162
  157.7077  131.0749  150.6611 LP  0  0  0  0  0  0  0  0  0  0  0  0  # atno 17370 bound_to 10713
  156.6673  130.4529  149.5668 LP  0  0  0  0  0  0  0  0  0  0  0  0  # atno 17371 bound_to 10713
  139.9205  135.0200  156.8046 LP  0  0  0  0  0  0  0  0  0  0  0  0  # atno 17394 bound_to 11000
  140.6413  133.9815  155.7709 LP  0  0  0  0  0  0  0  0  0  0  0  0  # atno 17395 bound_to 11000

$$$$
