AV-unprocessed.smi:3211|AV-procd|sdf|12276|dock6
  -GOLD-   2272018113D 1   1.00000     0.00000
 Structure written by MMmdl.
 34 35  0  0  0  0  0  0  0  0  1 V2000
  153.2910  142.8524  162.7159 C   0  0  0  0  0  0  0  0  0  0  0  0
  153.5423  142.2928  161.3114 C   0  0  0  0  0  0  0  0  0  0  0  0
  152.7803  143.0241  160.2575 C   0  0  0  0  0  0  0  0  0  0  0  0
  152.5436  142.5275  159.0401 N   0  0  0  0  0  0  0  0  0  0  0  0
  151.7867  143.3924  158.2431 C   0  0  0  0  0  0  0  0  0  0  0  0
  151.4419  143.0071  156.8365 C   0  0  0  0  0  0  0  0  0  0  0  0
  150.4845  141.8054  156.7843 C   0  0  0  0  0  0  0  0  0  0  0  0
  149.4008  142.0217  155.8323 N   0  0  0  0  0  0  0  0  0  0  0  0
  149.1962  141.2989  154.7204 C   0  0  0  0  0  0  0  0  0  0  0  0
  149.9256  140.3624  154.3922 O   0  0  0  0  0  0  0  0  0  0  0  0
  147.9992  141.7324  153.9316 C   0  0  2  0  0  0  0  0  0  0  0  0
  146.6322  141.5534  154.5625 C   0  0  0  0  0  0  0  0  0  0  0  0
  147.0245  140.6987  153.3812 C   0  0  2  0  0  0  0  0  0  0  0  0
  147.1896  139.1965  153.5316 C   0  0  0  0  0  0  0  0  0  0  0  0
  151.4370  144.5535  158.8862 C   0  0  0  0  0  0  0  0  0  0  0  0
  152.0468  144.6026  160.5172 S   0  0  0  0  0  0  0  0  0  0  0  0
  153.8575  142.2961  163.4630 H   0  0  0  0  0  0  0  0  0  0  0  0
  152.2355  142.7878  162.9817 H   0  0  0  0  0  0  0  0  0  0  0  0
  153.5898  143.8991  162.7815 H   0  0  0  0  0  0  0  0  0  0  0  0
  154.6053  142.3472  161.0741 H   0  0  0  0  0  0  0  0  0  0  0  0
  153.2687  141.2376  161.2768 H   0  0  0  0  0  0  0  0  0  0  0  0
  150.9901  143.8547  156.3195 H   0  0  0  0  0  0  0  0  0  0  0  0
  152.3540  142.7738  156.2855 H   0  0  0  0  0  0  0  0  0  0  0  0
  151.0298  140.8943  156.5321 H   0  0  0  0  0  0  0  0  0  0  0  0
  150.0426  141.6387  157.7671 H   0  0  0  0  0  0  0  0  0  0  0  0
  148.7569  142.7723  156.0365 H   0  0  0  0  0  0  0  0  0  0  0  0
  148.1395  142.6179  153.3132 H   0  0  0  0  0  0  0  0  0  0  0  0
  146.5670  141.0709  155.5363 H   0  0  0  0  0  0  0  0  0  0  0  0
  145.9052  142.3461  154.3978 H   0  0  0  0  0  0  0  0  0  0  0  0
  146.5894  140.9698  152.4211 H   0  0  0  0  0  0  0  0  0  0  0  0
  147.4102  138.9164  154.5610 H   0  0  0  0  0  0  0  0  0  0  0  0
  147.9953  138.8415  152.8889 H   0  0  0  0  0  0  0  0  0  0  0  0
  146.2678  138.6932  153.2401 H   0  0  0  0  0  0  0  0  0  0  0  0
  150.8585  145.3799  158.5005 H   0  0  0  0  0  0  0  0  0  0  0  0
  1  2  1  0  0  0  0
  1 17  1  0  0  0  0
  1 18  1  0  0  0  0
  1 19  1  0  0  0  0
  2  3  1  0  0  0  0
  2 20  1  0  0  0  0
  2 21  1  0  0  0  0
  3 16  1  0  0  0  0
  3  4  2  0  0  0  0
  4  5  1  0  0  0  0
  5  6  1  0  0  0  0
  5 15  2  0  0  0  0
  6  7  1  0  0  0  0
  6 22  1  0  0  0  0
  6 23  1  0  0  0  0
  7  8  1  0  0  0  0
  7 24  1  0  0  0  0
  7 25  1  0  0  0  0
  8  9  1  0  0  0  0
  8 26  1  0  0  0  0
  9 10  2  0  0  0  0
  9 11  1  0  0  0  0
 11 13  1  0  0  0  0
 11 12  1  0  0  0  0
 11 27  1  0  0  0  0
 12 13  1  0  0  0  0
 12 28  1  0  0  0  0
 12 29  1  0  0  0  0
 13 14  1  0  0  0  0
 13 30  1  0  0  0  0
 14 31  1  0  0  0  0
 14 32  1  0  0  0  0
 14 33  1  0  0  0  0
 15 16  1  0  0  0  0
 15 34  1  0  0  0  0
M  END
> <s_m_source_file>
AV-unprocessed.smi

> <i_m_source_file_index>
3211

> <i_lp_mmshare_version>
43012

> <i_f3d_flags>
0

> <s_epik_input>
W0NIM11bQ0gyXWMxbmMoW2NIXXMxKVtDSDJdW0NIMl1bTkhdQyg9TylbQ0BASF0yW0NIMl1bQ0BIXTJbQ0gzXQ==

> <s_epik_cmdline>
J2VwaWtfcHl0aG9uJywgJy1waCcsICc3LjAnLCAnLXRuJywgJzgnLCAnLW1hJywgJzIwMCcsICctbWV0YWxfYmluZGluZycsICctaW1hZScsICc8aW5maWxlLm1hZT4nLCAnLW9tYWUnLCAnPG91dGZpbGUubWFlPic=

> <r_epik_Ionization_Penalty>
0.00109667

> <r_epik_Ionization_Penalty_Charging>
0

> <r_epik_Ionization_Penalty_Neutral>
0.00109667

> <r_epik_State_Penalty>
0.000719322

> <r_epik_Charging_Adjusted_Penalty>
0.000719322

> <i_epik_Tot_Q>
0

> <i_epik_Tot_abs_Q>
0

> <r_epik_Metal_State_Penalty>
-0

> <b_epik_Metal_Only>
0

> <s_lp_Force_Field>
OPLS_2005

> <r_lp_Energy>
-0.716075

> <b_lp_Chiralities_Consistent>
1

> <s_lp_Variant>
AV-unprocessed.smi:3211-3

> <Gold.Version>
5.8.1

> <Gold.Id.Protein>
6NUR|6NUR_protein|mol2

> <Gold.PLP.Fitness>
47.0450

> <Gold.PLP.PLP>
-43.6298

> <Gold.PLP.part.hbond>
-2.0000

> <Gold.PLP.part.metal>
0.0000

> <Gold.PLP.part.buried>
-6.1953

> <Gold.PLP.part.nonpolar>
-35.8031

> <Gold.PLP.part.repulsive>
0.2398

> <Gold.PLP.ligand.clash>
0.0000

> <Gold.PLP.ligand.torsion>
0.8402

> <Gold.PLP.Chemscore.Hbond>
1.6640

> <Gold.PLP.Chemscore.CHOScore>
0.0000

> <Gold.PLP.Chemscore.Metal>
0.0000

> <Gold.Chemscore.Hbonds>
donor molecule, donor type, donor heavy atom, donor atom, acceptor molecule, acceptor atom, score
      L1  H     8    26       P1  8028  0.62
      P1  H  7989  7998       L1    10  0.88

> <Gold.PLP.Chemscore.Internal.Correction>
0.1035

> <Gold.Rescore>
     Score         DG    S(hbond)    S(metal)    S(lipo)     H(rot)  DE(clash)    DE(int)     intcor
     17.42     -19.94       1.31        0.00     119.10       1.51       1.78       0.74       ----

> <Gold.Chemscore.Fitness>
17.4181

> <Gold.Chemscore.DG>
-19.9397

> <Gold.Chemscore.ZeroCoef>
-5.4800

> <Gold.Chemscore.Hbond>
1.3144

> <Gold.Chemscore.Metal>
0.0000

> <Gold.Chemscore.Lipo>
119.0952

> <Gold.Chemscore.Internal_Hbond>
0.0000

> <Gold.Chemscore.DEClash>
1.7775

> <Gold.Chemscore.DEInternal>
0.7441

> <Gold.Chemscore.Rot>
1.5096

> <Gold.Chemscore.Internal.Correction>
   9.000000E+99

> <Gold.Chemscore.Hbonds>
donor molecule, donor type, donor heavy atom, donor atom, acceptor molecule, acceptor atom, score
      L1  H     8    26       P1  8028  0.60
      P1  H  7989  7998       L1    10  0.76

> <Gold.Chemscore.Hbond.Weighted>
-4.3902

> <Gold.Chemscore.Metal.Weighted>
-0.0000

> <Gold.Chemscore.Lipo.Weighted>
-13.9341

> <Gold.Chemscore.Internal_Hbond.Weighted>
0.0000

> <Gold.Chemscore.DEClash.Weighted>
1.7775

> <Gold.Chemscore.DEInternal.Weighted>
0.7441

> <Gold.Chemscore.Rot.Weighted>
3.8646

> <Gold.Chemscore.Internal.Correction.Weighted>
   9.000000E+99

> <Gold.Protein.RotatedTorsions>
[ 6907 6896 6895 6894 ] final  -69.81 input  -60.11 | X-H torsion
[ 7974 7965 7964 7962 ] final  -55.67 input  175.53 | X-H torsion
[ 8008 7997 7996 7995 ] final -170.80 input   59.86 | X-H torsion
[ 10167 10162 10161 10158 ] final   35.81 input  -65.29 | X-H torsion
[ 10718 10713 10712 10709 ] final -144.58 input   66.30 | X-H torsion
[ 10763 10752 10751 10750 ] final  128.38 input  -60.55 | X-H torsion
[ 11005 11000 10999 10996 ] final   83.17 input  -57.11 | X-H torsion

> <Gold.Protein.ActiveResidues>
 VAL166  LYS551  ARG553  GLY616  TRP617  ASP618  TYR619  PRO620  LYS621  CYS622 
 ASP623  PHE694  ASN695  SER759  ASP760  ASP761  ALA762  ILE779  LEU786  VAL792 
 PHE793  MET794  SER795  GLU796  ALA797  LYS798  CYS799  TRP800  GLU811  SER814 

> <Gold.Protein.RotatedAtoms>
  150.7287  134.5543  159.5810 H   0  0  0  0  0  0  0  0  0  0  0  0  # atno 6907 bound_to 6896
  152.3023  134.7594  160.0364 H   0  0  0  0  0  0  0  0  0  0  0  0  # atno 6908 bound_to 6896
  151.8170  133.3354  159.3609 H   0  0  0  0  0  0  0  0  0  0  0  0  # atno 6909 bound_to 6896
  145.8715  140.8212  142.9886 H   0  0  0  0  0  0  0  0  0  0  0  0  # atno 7974 bound_to 7965
  155.9231  140.1078  157.1191 H   0  0  0  0  0  0  0  0  0  0  0  0  # atno 8008 bound_to 7997
  154.4057  140.1252  156.4771 H   0  0  0  0  0  0  0  0  0  0  0  0  # atno 8009 bound_to 7997
  155.7171  140.3470  155.5002 H   0  0  0  0  0  0  0  0  0  0  0  0  # atno 8010 bound_to 7997
  140.4186  144.1491  150.6145 H   0  0  0  0  0  0  0  0  0  0  0  0  # atno 10167 bound_to 10162
  156.3719  130.7792  151.1974 H   0  0  0  0  0  0  0  0  0  0  0  0  # atno 10718 bound_to 10713
  153.7246  135.3248  155.3273 H   0  0  0  0  0  0  0  0  0  0  0  0  # atno 10763 bound_to 10752
  154.8345  135.4507  154.1183 H   0  0  0  0  0  0  0  0  0  0  0  0  # atno 10764 bound_to 10752
  153.2313  135.6960  153.7967 H   0  0  0  0  0  0  0  0  0  0  0  0  # atno 10765 bound_to 10752
  139.9040  134.8125  156.2273 H   0  0  0  0  0  0  0  0  0  0  0  0  # atno 11005 bound_to 11000
  144.6726  140.1246  143.7447 LP  0  0  0  0  0  0  0  0  0  0  0  0  # atno 17320 bound_to 7965
  145.9131  139.2499  143.1426 LP  0  0  0  0  0  0  0  0  0  0  0  0  # atno 17321 bound_to 7965
  140.4558  143.2468  151.9286 LP  0  0  0  0  0  0  0  0  0  0  0  0  # atno 17342 bound_to 10162
  139.4782  144.5516  151.8376 LP  0  0  0  0  0  0  0  0  0  0  0  0  # atno 17343 bound_to 10162
  157.7484  131.0370  150.4434 LP  0  0  0  0  0  0  0  0  0  0  0  0  # atno 17370 bound_to 10713
  156.4662  130.4043  149.6545 LP  0  0  0  0  0  0  0  0  0  0  0  0  # atno 17371 bound_to 10713
  141.0368  133.6959  156.1526 LP  0  0  0  0  0  0  0  0  0  0  0  0  # atno 17394 bound_to 11000
  140.7015  134.4558  157.5586 LP  0  0  0  0  0  0  0  0  0  0  0  0  # atno 17395 bound_to 11000

$$$$
