AV-unprocessed.smi:2541|AV-procd|sdf|9990|dock8
  -GOLD-   2272014 43D 1   1.00000     0.00000
 Structure written by MMmdl.
 38 39  0  0  0  0  0  0  0  0  1 V2000
  140.7112  135.3494  154.2051 O   0  0  0  0  0  0  0  0  0  0  0  0
  141.2615  136.4046  153.8900 C   0  0  0  0  0  0  0  0  0  0  0  0
  140.5805  137.7417  154.1868 C   0  0  0  0  0  0  0  0  0  0  0  0
  139.2681  137.5141  154.8897 C   0  0  0  0  0  0  0  0  0  0  0  0
  137.9519  137.7542  154.4051 C   0  0  0  0  0  0  0  0  0  0  0  0
  137.1546  137.3832  155.4492 C   0  0  0  0  0  0  0  0  0  0  0  0
  137.9073  136.9467  156.4902 O   0  0  0  0  0  0  0  0  0  0  0  0
  139.2550  137.0313  156.1232 N   0  0  0  0  0  0  0  0  0  0  0  0
  142.4555  136.4614  153.2789 N   0  0  0  0  0  0  0  0  0  0  0  0
  143.2421  135.3088  152.8539 C   0  0  0  0  0  0  0  0  0  0  0  0
  143.8882  135.5375  151.4703 C   0  0  1  0  0  0  0  0  0  0  0  0
  144.7330  136.6706  151.5470 O   0  0  0  0  0  0  0  0  0  0  0  0
  144.6987  134.3167  150.9675 C   0  0  0  0  0  0  0  0  0  0  0  0
  143.8647  133.0190  150.8438 C   0  0  0  0  0  0  0  0  0  0  0  0
  144.7085  131.8493  150.3116 C   0  0  0  0  0  0  0  0  0  0  0  0
  145.9535  131.6171  151.1807 C   0  0  0  0  0  0  0  0  0  0  0  0
  146.7948  132.8974  151.2898 C   0  0  0  0  0  0  0  0  0  0  0  0
  145.9579  134.0692  151.8277 C   0  0  0  0  0  0  0  0  0  0  0  0
  141.2371  138.3542  154.8056 H   0  0  0  0  0  0  0  0  0  0  0  0
  140.4384  138.2871  153.2525 H   0  0  0  0  0  0  0  0  0  0  0  0
  137.6435  138.1419  153.4457 H   0  0  0  0  0  0  0  0  0  0  0  0
  136.0852  137.3710  155.5988 H   0  0  0  0  0  0  0  0  0  0  0  0
  142.8292  137.3723  153.0541 H   0  0  0  0  0  0  0  0  0  0  0  0
  144.0008  135.1045  153.6099 H   0  0  0  0  0  0  0  0  0  0  0  0
  142.5935  134.4315  152.8277 H   0  0  0  0  0  0  0  0  0  0  0  0
  143.1069  135.7482  150.7388 H   0  0  0  0  0  0  0  0  0  0  0  0
  144.4586  137.2933  150.8914 H   0  0  0  0  0  0  0  0  0  0  0  0
  145.0517  134.5677  149.9659 H   0  0  0  0  0  0  0  0  0  0  0  0
  143.4489  132.7460  151.8144 H   0  0  0  0  0  0  0  0  0  0  0  0
  143.0162  133.1740  150.1777 H   0  0  0  0  0  0  0  0  0  0  0  0
  144.1049  130.9420  150.2777 H   0  0  0  0  0  0  0  0  0  0  0  0
  145.0127  132.0556  149.2848 H   0  0  0  0  0  0  0  0  0  0  0  0
  145.6496  131.2919  152.1766 H   0  0  0  0  0  0  0  0  0  0  0  0
  146.5552  130.8104  150.7612 H   0  0  0  0  0  0  0  0  0  0  0  0
  147.6523  132.7239  151.9405 H   0  0  0  0  0  0  0  0  0  0  0  0
  147.1981  133.1549  150.3096 H   0  0  0  0  0  0  0  0  0  0  0  0
  146.5728  134.9693  151.8570 H   0  0  0  0  0  0  0  0  0  0  0  0
  145.6712  133.8592  152.8588 H   0  0  0  0  0  0  0  0  0  0  0  0
  1  2  2  0  0  0  0
  2  3  1  0  0  0  0
  2  9  1  0  0  0  0
  3  4  1  0  0  0  0
  3 19  1  0  0  0  0
  3 20  1  0  0  0  0
  4  8  2  0  0  0  0
  4  5  1  0  0  0  0
  5  6  2  0  0  0  0
  5 21  1  0  0  0  0
  6  7  1  0  0  0  0
  6 22  1  0  0  0  0
  7  8  1  0  0  0  0
  9 10  1  0  0  0  0
  9 23  1  0  0  0  0
 10 11  1  0  0  0  0
 10 24  1  0  0  0  0
 10 25  1  0  0  0  0
 11 12  1  0  0  0  0
 11 13  1  0  0  0  0
 11 26  1  0  0  0  0
 12 27  1  0  0  0  0
 13 18  1  0  0  0  0
 13 14  1  0  0  0  0
 13 28  1  0  0  0  0
 14 15  1  0  0  0  0
 14 29  1  0  0  0  0
 14 30  1  0  0  0  0
 15 16  1  0  0  0  0
 15 31  1  0  0  0  0
 15 32  1  0  0  0  0
 16 17  1  0  0  0  0
 16 33  1  0  0  0  0
 16 34  1  0  0  0  0
 17 18  1  0  0  0  0
 17 35  1  0  0  0  0
 17 36  1  0  0  0  0
 18 37  1  0  0  0  0
 18 38  1  0  0  0  0
M  END
> <s_m_source_file>
AV-unprocessed.smi

> <i_m_source_file_index>
2541

> <i_lp_mmshare_version>
43012

> <i_f3d_flags>
0

> <s_epik_input>
bjFvW2NIXVtjSF1jMVtDSDJdQyg9TylbTkhdW0NIMl1bQ0BIXShbT0hdKVtDSF0yW0NIMl1bQ0gyXVtDSDJdW0NIMl1bQ0gyXTI=

> <s_epik_cmdline>
J2VwaWtfcHl0aG9uJywgJy1waCcsICc3LjAnLCAnLXRuJywgJzgnLCAnLW1hJywgJzIwMCcsICctbWV0YWxfYmluZGluZycsICctaW1hZScsICc8aW5maWxlLm1hZT4nLCAnLW9tYWUnLCAnPG91dGZpbGUubWFlPic=

> <r_lp_tautomer_probability>
1

> <r_epik_Ionization_Penalty>
2.3322e-07

> <r_epik_Ionization_Penalty_Charging>
0

> <r_epik_Ionization_Penalty_Neutral>
2.3322e-07

> <r_epik_State_Penalty>
-0

> <r_epik_Charging_Adjusted_Penalty>
0

> <i_epik_Tot_Q>
0

> <i_epik_Tot_abs_Q>
0

> <r_epik_Metal_State_Penalty>
-0

> <b_epik_Metal_Only>
0

> <s_lp_Force_Field>
OPLS_2005

> <r_lp_Energy>
13.2063

> <b_lp_Chiralities_Consistent>
1

> <s_lp_Variant>
AV-unprocessed.smi:2541-2

> <Gold.Version>
5.8.1

> <Gold.Id.Protein>
6NUR|6NUR_protein|mol2

> <Gold.PLP.Fitness>
42.0809

> <Gold.PLP.PLP>
-36.4742

> <Gold.PLP.part.hbond>
-3.6192

> <Gold.PLP.part.metal>
0.0000

> <Gold.PLP.part.buried>
-7.1347

> <Gold.PLP.part.nonpolar>
-26.0522

> <Gold.PLP.part.repulsive>
0.3145

> <Gold.PLP.ligand.clash>
0.0000

> <Gold.PLP.ligand.torsion>
0.2166

> <Gold.PLP.Chemscore.Hbond>
2.0000

> <Gold.PLP.Chemscore.CHOScore>
0.0000

> <Gold.PLP.Chemscore.Metal>
0.0000

> <Gold.Chemscore.Hbonds>
donor molecule, donor type, donor heavy atom, donor atom, acceptor molecule, acceptor atom, score
      L1  H    12    27       P1 10171  1.00
      P1  H 11000 11005       L1     1  0.91

> <Gold.PLP.Chemscore.Internal.Correction>
0.0400

> <Gold.Rescore>
     Score         DG    S(hbond)    S(metal)    S(lipo)     H(rot)  DE(clash)    DE(int)     intcor
     15.30     -15.82       1.96        0.00      85.21       2.42       0.05       0.48       ----

> <Gold.Chemscore.Fitness>
15.2976

> <Gold.Chemscore.DG>
-15.8240

> <Gold.Chemscore.ZeroCoef>
-5.4800

> <Gold.Chemscore.Hbond>
1.9648

> <Gold.Chemscore.Metal>
0.0000

> <Gold.Chemscore.Lipo>
85.2106

> <Gold.Chemscore.Internal_Hbond>
0.0000

> <Gold.Chemscore.DEClash>
0.0468

> <Gold.Chemscore.DEInternal>
0.4796

> <Gold.Chemscore.Rot>
2.4172

> <Gold.Chemscore.Internal.Correction>
   9.000000E+99

> <Gold.Chemscore.Hbonds>
donor molecule, donor type, donor heavy atom, donor atom, acceptor molecule, acceptor atom, score
      L1  H    12    27       P1 10171  1.00
      P1  H 11000 11005       L1     1  0.88

> <Gold.Chemscore.Hbond.Weighted>
-6.5624

> <Gold.Chemscore.Metal.Weighted>
-0.0000

> <Gold.Chemscore.Lipo.Weighted>
-9.9696

> <Gold.Chemscore.Internal_Hbond.Weighted>
0.0000

> <Gold.Chemscore.DEClash.Weighted>
0.0468

> <Gold.Chemscore.DEInternal.Weighted>
0.4796

> <Gold.Chemscore.Rot.Weighted>
6.1880

> <Gold.Chemscore.Internal.Correction.Weighted>
   9.000000E+99

> <Gold.Protein.RotatedTorsions>
[ 6907 6896 6895 6894 ] final  139.13 input  -60.11 | X-H torsion
[ 7974 7965 7964 7962 ] final  147.31 input  175.53 | X-H torsion
[ 8008 7997 7996 7995 ] final  117.88 input   59.86 | X-H torsion
[ 10167 10162 10161 10158 ] final -141.19 input  -65.29 | X-H torsion
[ 10718 10713 10712 10709 ] final  116.14 input   66.30 | X-H torsion
[ 10763 10752 10751 10750 ] final -162.35 input  -60.55 | X-H torsion
[ 11005 11000 10999 10996 ] final   55.35 input  -57.11 | X-H torsion

> <Gold.Protein.ActiveResidues>
 VAL166  LYS551  ARG553  GLY616  TRP617  ASP618  TYR619  PRO620  LYS621  CYS622 
 ASP623  PHE694  ASN695  SER759  ASP760  ASP761  ALA762  ILE779  LEU786  VAL792 
 PHE793  MET794  SER795  GLU796  ALA797  LYS798  CYS799  TRP800  GLU811  SER814 

> <Gold.Protein.RotatedAtoms>
  152.2585  133.5276  159.5367 H   0  0  0  0  0  0  0  0  0  0  0  0  # atno 6907 bound_to 6896
  150.7117  134.0862  159.3924 H   0  0  0  0  0  0  0  0  0  0  0  0  # atno 6908 bound_to 6896
  151.8780  135.0464  160.0537 H   0  0  0  0  0  0  0  0  0  0  0  0  # atno 6909 bound_to 6896
  144.8601  139.6013  143.5934 H   0  0  0  0  0  0  0  0  0  0  0  0  # atno 7974 bound_to 7965
  156.2517  140.2887  156.0747 H   0  0  0  0  0  0  0  0  0  0  0  0  # atno 8008 bound_to 7997
  155.1632  140.0400  157.2864 H   0  0  0  0  0  0  0  0  0  0  0  0  # atno 8009 bound_to 7997
  154.6378  140.2515  155.7364 H   0  0  0  0  0  0  0  0  0  0  0  0  # atno 8010 bound_to 7997
  139.8209  143.7576  152.2666 H   0  0  0  0  0  0  0  0  0  0  0  0  # atno 10167 bound_to 10162
  157.6178  131.1021  150.7431 H   0  0  0  0  0  0  0  0  0  0  0  0  # atno 10718 bound_to 10713
  154.7222  135.3028  154.9029 H   0  0  0  0  0  0  0  0  0  0  0  0  # atno 10763 bound_to 10752
  153.9898  135.6720  153.4757 H   0  0  0  0  0  0  0  0  0  0  0  0  # atno 10764 bound_to 10752
  153.0843  135.4992  154.8484 H   0  0  0  0  0  0  0  0  0  0  0  0  # atno 10765 bound_to 10752
  140.0614  134.5597  155.9148 H   0  0  0  0  0  0  0  0  0  0  0  0  # atno 11005 bound_to 11000
  146.2854  139.6990  142.9199 LP  0  0  0  0  0  0  0  0  0  0  0  0  # atno 17320 bound_to 7965
  145.4328  141.0416  143.2901 LP  0  0  0  0  0  0  0  0  0  0  0  0  # atno 17321 bound_to 7965
  139.7753  144.7463  151.0165 LP  0  0  0  0  0  0  0  0  0  0  0  0  # atno 17342 bound_to 10162
  140.7813  143.4600  151.0291 LP  0  0  0  0  0  0  0  0  0  0  0  0  # atno 17343 bound_to 10162
  156.7794  130.4854  149.5403 LP  0  0  0  0  0  0  0  0  0  0  0  0  # atno 17370 bound_to 10713
  156.1309  130.6177  151.0332 LP  0  0  0  0  0  0  0  0  0  0  0  0  # atno 17371 bound_to 10713
  141.1974  133.6596  156.5742 LP  0  0  0  0  0  0  0  0  0  0  0  0  # atno 17394 bound_to 11000
  140.3765  134.7560  157.4633 LP  0  0  0  0  0  0  0  0  0  0  0  0  # atno 17395 bound_to 11000

$$$$
