AV-unprocessed.smi:1639|AV-procd|sdf|6551|dock3
  -GOLD-   22720 7233D 1   1.00000     0.00000
 Structure written by MMmdl.
 38 39  0  0  0  0  0  0  0  0  2 V2000
  151.4279  144.7061  159.2975 C   0  0  0  0  0  0  0  0  0  0  0  0
  152.7348  143.9514  159.0186 C   0  0  0  0  0  0  0  0  0  0  0  0
  152.9245  142.8773  159.9301 O   0  0  0  0  0  0  0  0  0  0  0  0
  153.3115  141.6437  159.3376 C   0  0  1  0  0  0  0  0  0  0  0  0
  153.2347  140.5328  160.3995 C   0  0  0  0  0  0  0  0  0  0  0  0
  153.4895  139.1625  159.7519 C   0  0  0  0  0  0  0  0  0  0  0  0
  152.5284  138.9261  158.5738 C   0  0  0  0  0  0  0  0  0  0  0  0
  152.6069  140.0225  157.6118 N   0  0  0  0  0  0  0  0  0  0  0  0
  151.8739  139.7769  156.4449 C   0  0  0  0  0  0  0  0  0  0  0  0
  150.8468  140.6286  155.9845 C   0  0  0  0  0  0  0  0  0  0  0  0
  150.2003  140.2544  154.7936 C   0  0  0  0  0  0  0  0  0  0  0  0
  149.0849  141.0878  154.1987 C   0  0  0  0  0  0  0  0  0  0  0  0
  150.5453  139.1348  154.1257 N   0  0  0  0  0  0  0  0  0  0  0  0
  151.5271  138.3695  154.6152 C   0  0  0  0  0  0  0  0  0  0  0  0
  151.8710  137.2313  153.9261 N   0  0  0  0  0  0  0  0  0  0  0  0
  152.1902  138.6605  155.7439 N   0  3  0  0  0  0  0  0  0  0  0  0
  152.3478  141.3447  158.1760 C   0  0  0  0  0  0  0  0  0  0  0  0
  151.2658  145.4846  158.5518 H   0  0  0  0  0  0  0  0  0  0  0  0
  151.4384  145.1858  160.2761 H   0  0  0  0  0  0  0  0  0  0  0  0
  150.5729  144.0304  159.2646 H   0  0  0  0  0  0  0  0  0  0  0  0
  152.6926  143.5290  158.0145 H   0  0  0  0  0  0  0  0  0  0  0  0
  153.5921  144.6262  159.0333 H   0  0  0  0  0  0  0  0  0  0  0  0
  154.3281  141.6871  158.9412 H   0  0  0  0  0  0  0  0  0  0  0  0
  153.9584  140.7145  161.1944 H   0  0  0  0  0  0  0  0  0  0  0  0
  152.2494  140.5376  160.8674 H   0  0  0  0  0  0  0  0  0  0  0  0
  154.5203  139.1115  159.3987 H   0  0  0  0  0  0  0  0  0  0  0  0
  153.3756  138.3707  160.4926 H   0  0  0  0  0  0  0  0  0  0  0  0
  152.7725  137.9846  158.0801 H   0  0  0  0  0  0  0  0  0  0  0  0
  151.5060  138.8375  158.9441 H   0  0  0  0  0  0  0  0  0  0  0  0
  150.5705  141.5255  156.5199 H   0  0  0  0  0  0  0  0  0  0  0  0
  148.8848  141.9704  154.8071 H   0  0  0  0  0  0  0  0  0  0  0  0
  148.1664  140.5037  154.1343 H   0  0  0  0  0  0  0  0  0  0  0  0
  149.3520  141.4201  153.1952 H   0  0  0  0  0  0  0  0  0  0  0  0
  151.3896  136.9865  153.0727 H   0  0  0  0  0  0  0  0  0  0  0  0
  152.6112  136.6312  154.2601 H   0  0  0  0  0  0  0  0  0  0  0  0
  151.3172  141.3940  158.5300 H   0  0  0  0  0  0  0  0  0  0  0  0
  152.4566  142.1037  157.4000 H   0  0  0  0  0  0  0  0  0  0  0  0
  152.9350  138.0534  156.0862 H   0  0  0  0  0  0  0  0  0  0  0  0
  1  2  1  0  0  0  0
  1 18  1  0  0  0  0
  1 19  1  0  0  0  0
  1 20  1  0  0  0  0
  2  3  1  0  0  0  0
  2 21  1  0  0  0  0
  2 22  1  0  0  0  0
  3  4  1  0  0  0  0
  4 17  1  0  0  0  0
  4  5  1  0  0  0  0
  4 23  1  0  0  0  0
  5  6  1  0  0  0  0
  5 24  1  0  0  0  0
  5 25  1  0  0  0  0
  6  7  1  0  0  0  0
  6 26  1  0  0  0  0
  6 27  1  0  0  0  0
  7  8  1  0  0  0  0
  7 28  1  0  0  0  0
  7 29  1  0  0  0  0
  8  9  1  0  0  0  0
  8 17  1  0  0  0  0
  9 16  1  0  0  0  0
  9 10  2  0  0  0  0
 10 11  1  0  0  0  0
 10 30  1  0  0  0  0
 11 12  1  0  0  0  0
 11 13  2  0  0  0  0
 12 31  1  0  0  0  0
 12 32  1  0  0  0  0
 12 33  1  0  0  0  0
 13 14  1  0  0  0  0
 14 15  1  0  0  0  0
 14 16  2  0  0  0  0
 15 34  1  0  0  0  0
 15 35  1  0  0  0  0
 16 38  1  0  0  0  0
 17 36  1  0  0  0  0
 17 37  1  0  0  0  0
M  CHG  1  16   1
M  END
> <s_m_source_file>
AV-unprocessed.smi

> <i_m_source_file_index>
1639

> <i_lp_mmshare_version>
43012

> <i_f3d_flags>
0

> <s_epik_input>
W0NIM11bQ0gyXU9bQ0BASF0xW0NIMl1bQ0gyXVtDSDJdTihbQ0gyXTEpYzJbY0hdYyhbQ0gzXSluYyhuMilbTkgyXQ==

> <s_epik_cmdline>
J2VwaWtfcHl0aG9uJywgJy1waCcsICc3LjAnLCAnLXRuJywgJzgnLCAnLW1hJywgJzIwMCcsICctbWV0YWxfYmluZGluZycsICctaW1hZScsICc8aW5maWxlLm1hZT4nLCAnLW9tYWUnLCAnPG91dGZpbGUubWFlPic=

> <r_lp_tautomer_probability>
0.424989

> <r_epik_Ionization_Penalty>
0.443088

> <r_epik_Ionization_Penalty_Charging>
0.443085

> <r_epik_Ionization_Penalty_Neutral>
3.21819e-06

> <r_epik_State_Penalty>
1.26241

> <r_epik_Charging_Adjusted_Penalty>
1.70549

> <i_epik_Tot_Q>
1

> <i_epik_Tot_abs_Q>
1

> <r_epik_Metal_State_Penalty>
1.59997

> <b_epik_Metal_Only>
0

> <s_lp_Force_Field>
OPLS_2005

> <r_lp_Energy>
15.005

> <b_lp_Chiralities_Consistent>
1

> <s_lp_Variant>
AV-unprocessed.smi:1639-4

> <Gold.Version>
5.8.1

> <Gold.Id.Protein>
6NUR|6NUR_protein|mol2

> <Gold.PLP.Fitness>
42.5557

> <Gold.PLP.PLP>
-34.4753

> <Gold.PLP.part.hbond>
-2.9171

> <Gold.PLP.part.metal>
0.0000

> <Gold.PLP.part.buried>
-4.8310

> <Gold.PLP.part.nonpolar>
-28.1887

> <Gold.PLP.part.repulsive>
1.4787

> <Gold.PLP.ligand.clash>
0.0000

> <Gold.PLP.ligand.torsion>
0.4699

> <Gold.PLP.Chemscore.Hbond>
2.9600

> <Gold.PLP.Chemscore.CHOScore>
0.0000

> <Gold.PLP.Chemscore.Metal>
0.0000

> <Gold.Chemscore.Hbonds>
donor molecule, donor type, donor heavy atom, donor atom, acceptor molecule, acceptor atom, score
      L1  H    15    34       P1  7949  2.00
      P1  H  7997  8009       L1     8  1.00

> <Gold.PLP.Chemscore.Internal.Correction>
0.1402

> <Gold.Rescore>
     Score         DG    S(hbond)    S(metal)    S(lipo)     H(rot)  DE(clash)    DE(int)     intcor
     13.36     -15.05       1.06        0.00      83.29       1.46       1.21       0.47       ----

> <Gold.Chemscore.Fitness>
13.3636

> <Gold.Chemscore.DG>
-15.0470

> <Gold.Chemscore.ZeroCoef>
-5.4800

> <Gold.Chemscore.Hbond>
1.0626

> <Gold.Chemscore.Metal>
0.0000

> <Gold.Chemscore.Lipo>
83.2924

> <Gold.Chemscore.Internal_Hbond>
0.0000

> <Gold.Chemscore.DEClash>
1.2134

> <Gold.Chemscore.DEInternal>
0.4700

> <Gold.Chemscore.Rot>
1.4560

> <Gold.Chemscore.Internal.Correction>
   9.000000E+99

> <Gold.Chemscore.Hbonds>
donor molecule, donor type, donor heavy atom, donor atom, acceptor molecule, acceptor atom, score
      L1  H    15    34       P1  7949  0.80
      P1  H  7997  8009       L1     8  0.11

> <Gold.Chemscore.Hbond.Weighted>
-3.5491

> <Gold.Chemscore.Metal.Weighted>
-0.0000

> <Gold.Chemscore.Lipo.Weighted>
-9.7452

> <Gold.Chemscore.Internal_Hbond.Weighted>
0.0000

> <Gold.Chemscore.DEClash.Weighted>
1.2134

> <Gold.Chemscore.DEInternal.Weighted>
0.4700

> <Gold.Chemscore.Rot.Weighted>
3.7272

> <Gold.Chemscore.Internal.Correction.Weighted>
   9.000000E+99

> <Gold.Protein.RotatedTorsions>
[ 6907 6896 6895 6894 ] final -152.84 input  -60.11 | X-H torsion
[ 7974 7965 7964 7962 ] final   18.49 input  175.53 | X-H torsion
[ 8008 7997 7996 7995 ] final  159.94 input   59.86 | X-H torsion
[ 10167 10162 10161 10158 ] final  147.26 input  -65.29 | X-H torsion
[ 10718 10713 10712 10709 ] final   70.96 input   66.30 | X-H torsion
[ 10763 10752 10751 10750 ] final -117.58 input  -60.55 | X-H torsion
[ 11005 11000 10999 10996 ] final  -37.48 input  -57.11 | X-H torsion

> <Gold.Protein.ActiveResidues>
 VAL166  LYS551  ARG553  GLY616  TRP617  ASP618  TYR619  PRO620  LYS621  CYS622 
 ASP623  PHE694  ASN695  SER759  ASP760  ASP761  ALA762  ILE779  LEU786  VAL792 
 PHE793  MET794  SER795  GLU796  ALA797  LYS798  CYS799  TRP800  GLU811  SER814 

> <Gold.Protein.RotatedAtoms>
  151.2337  133.4436  159.2604 H   0  0  0  0  0  0  0  0  0  0  0  0  # atno 6907 bound_to 6896
  151.0770  134.9835  159.8347 H   0  0  0  0  0  0  0  0  0  0  0  0  # atno 6908 bound_to 6896
  152.5419  134.2279  159.8866 H   0  0  0  0  0  0  0  0  0  0  0  0  # atno 6909 bound_to 6896
  146.2183  139.8449  142.8634 H   0  0  0  0  0  0  0  0  0  0  0  0  # atno 7974 bound_to 7965
  156.2206  140.1817  156.7487 H   0  0  0  0  0  0  0  0  0  0  0  0  # atno 8008 bound_to 7997
  154.5859  140.0658  156.9199 H   0  0  0  0  0  0  0  0  0  0  0  0  # atno 8009 bound_to 7997
  155.2421  140.3322  155.4293 H   0  0  0  0  0  0  0  0  0  0  0  0  # atno 8010 bound_to 7997
  139.4893  144.5769  151.6948 H   0  0  0  0  0  0  0  0  0  0  0  0  # atno 10167 bound_to 10162
  157.6427  130.9504  150.0722 H   0  0  0  0  0  0  0  0  0  0  0  0  # atno 10718 bound_to 10713
  154.8559  135.4304  154.2002 H   0  0  0  0  0  0  0  0  0  0  0  0  # atno 10763 bound_to 10752
  153.3050  135.6971  153.7173 H   0  0  0  0  0  0  0  0  0  0  0  0  # atno 10764 bound_to 10752
  153.6288  135.3488  155.3009 H   0  0  0  0  0  0  0  0  0  0  0  0  # atno 10765 bound_to 10752
  140.9955  133.6982  156.1927 H   0  0  0  0  0  0  0  0  0  0  0  0  # atno 11005 bound_to 11000
  145.2861  141.0153  143.3690 LP  0  0  0  0  0  0  0  0  0  0  0  0  # atno 17320 bound_to 7965
  144.9113  139.4525  143.6585 LP  0  0  0  0  0  0  0  0  0  0  0  0  # atno 17321 bound_to 7965
  140.5367  144.0645  150.6073 LP  0  0  0  0  0  0  0  0  0  0  0  0  # atno 17342 bound_to 10162
  140.3653  143.2885  152.0338 LP  0  0  0  0  0  0  0  0  0  0  0  0  # atno 17343 bound_to 10162
  156.1723  130.3647  149.9148 LP  0  0  0  0  0  0  0  0  0  0  0  0  # atno 17370 bound_to 10713
  156.7121  130.8974  151.3610 LP  0  0  0  0  0  0  0  0  0  0  0  0  # atno 17371 bound_to 10713
  140.6972  134.4602  157.5587 LP  0  0  0  0  0  0  0  0  0  0  0  0  # atno 17394 bound_to 11000
  139.9013  134.8550  156.1886 LP  0  0  0  0  0  0  0  0  0  0  0  0  # atno 17395 bound_to 11000

$$$$
