AV-unprocessed.smi:2062|AV-procd|sdf|8397|dock9
  -GOLD-   2272011 83D 1   1.00000     0.00000
 Structure written by MMmdl.
 43 44  0  0  0  0  0  0  0  0  2 V2000
  150.9531  142.7481  157.2431 C   0  0  0  0  0  0  0  0  0  0  0  0
  150.4765  141.3623  156.7835 C   0  0  0  0  0  0  0  0  0  0  0  0
  151.6028  140.3274  156.9429 C   0  0  0  0  0  0  0  0  0  0  0  0
  149.9502  141.4230  155.3329 C   0  0  0  0  0  0  0  0  0  0  0  0
  148.4993  141.7464  155.2499 N   0  3  2  0  0  0  0  0  0  0  0  0
  147.7121  141.2369  156.3990 C   0  0  0  0  0  0  0  0  0  0  0  0
  147.4334  139.7298  156.2572 C   0  0  0  0  0  0  0  0  0  0  0  0
  146.7653  139.4881  155.0253 O   0  0  0  0  0  0  0  0  0  0  0  0
  147.5520  139.8584  153.8968 C   0  0  1  0  0  0  0  0  0  0  0  0
  146.7756  139.4861  152.6208 C   0  0  0  0  0  0  0  0  0  0  0  0
  146.9339  138.0769  152.2772 N   0  0  0  0  0  0  0  0  0  0  0  0
  145.9237  137.2155  152.0907 C   0  0  0  0  0  0  0  0  0  0  0  0
  144.7382  137.5314  152.1971 O   0  0  0  0  0  0  0  0  0  0  0  0
  146.3780  135.9902  151.7754 N   0  0  0  0  0  0  0  0  0  0  0  0
  145.6234  134.8266  151.4713 C   0  0  0  0  0  0  0  0  0  0  0  0
  144.2878  134.7922  151.3956 N   0  0  0  0  0  0  0  0  0  0  0  0
  143.8137  133.5176  151.0748 C   0  0  0  0  0  0  0  0  0  0  0  0
  144.8095  132.5878  150.9068 C   0  0  0  0  0  0  0  0  0  0  0  0
  146.3918  133.2797  151.1460 S   0  0  0  0  0  0  0  0  0  0  0  0
  147.8447  141.3731  153.9690 C   0  0  0  0  0  0  0  0  0  0  0  0
  151.7803  143.1081  156.6302 H   0  0  0  0  0  0  0  0  0  0  0  0
  151.2931  142.7237  158.2789 H   0  0  0  0  0  0  0  0  0  0  0  0
  150.1486  143.4813  157.1810 H   0  0  0  0  0  0  0  0  0  0  0  0
  149.6634  141.0775  157.4501 H   0  0  0  0  0  0  0  0  0  0  0  0
  152.4516  140.5625  156.2998 H   0  0  0  0  0  0  0  0  0  0  0  0
  151.2617  139.3232  156.6914 H   0  0  0  0  0  0  0  0  0  0  0  0
  151.9650  140.2978  157.9709 H   0  0  0  0  0  0  0  0  0  0  0  0
  150.5277  142.1398  154.7494 H   0  0  0  0  0  0  0  0  0  0  0  0
  150.1291  140.4515  154.8697 H   0  0  0  0  0  0  0  0  0  0  0  0
  148.2167  141.4533  157.3412 H   0  0  0  0  0  0  0  0  0  0  0  0
  146.7641  141.7756  156.4308 H   0  0  0  0  0  0  0  0  0  0  0  0
  148.3547  139.1480  156.3101 H   0  0  0  0  0  0  0  0  0  0  0  0
  146.7968  139.3890  157.0735 H   0  0  0  0  0  0  0  0  0  0  0  0
  148.4901  139.3025  153.9138 H   0  0  0  0  0  0  0  0  0  0  0  0
  145.7129  139.6909  152.7542 H   0  0  0  0  0  0  0  0  0  0  0  0
  147.1064  140.1014  151.7824 H   0  0  0  0  0  0  0  0  0  0  0  0
  147.8786  137.7369  152.1700 H   0  0  0  0  0  0  0  0  0  0  0  0
  147.3802  135.8771  151.7405 H   0  0  0  0  0  0  0  0  0  0  0  0
  142.7490  133.3608  150.9853 H   0  0  0  0  0  0  0  0  0  0  0  0
  144.7084  131.5420  150.6575 H   0  0  0  0  0  0  0  0  0  0  0  0
  146.9065  141.9251  153.8995 H   0  0  0  0  0  0  0  0  0  0  0  0
  148.4421  141.6892  153.1151 H   0  0  0  0  0  0  0  0  0  0  0  0
  148.4550  142.7536  155.3133 H   0  0  0  0  0  0  0  0  0  0  0  0
  1  2  1  0  0  0  0
  1 21  1  0  0  0  0
  1 22  1  0  0  0  0
  1 23  1  0  0  0  0
  2  3  1  0  0  0  0
  2  4  1  0  0  0  0
  2 24  1  0  0  0  0
  3 25  1  0  0  0  0
  3 26  1  0  0  0  0
  3 27  1  0  0  0  0
  4  5  1  0  0  0  0
  4 28  1  0  0  0  0
  4 29  1  0  0  0  0
  5 20  1  0  0  0  0
  5  6  1  0  0  0  0
  5 43  1  0  0  0  0
  6  7  1  0  0  0  0
  6 30  1  0  0  0  0
  6 31  1  0  0  0  0
  7  8  1  0  0  0  0
  7 32  1  0  0  0  0
  7 33  1  0  0  0  0
  8  9  1  0  0  0  0
  9 10  1  0  0  0  0
  9 20  1  0  0  0  0
  9 34  1  0  0  0  0
 10 11  1  0  0  0  0
 10 35  1  0  0  0  0
 10 36  1  0  0  0  0
 11 12  1  0  0  0  0
 11 37  1  0  0  0  0
 12 13  2  0  0  0  0
 12 14  1  0  0  0  0
 14 15  1  0  0  0  0
 14 38  1  0  0  0  0
 15 19  1  0  0  0  0
 15 16  2  0  0  0  0
 16 17  1  0  0  0  0
 17 18  2  0  0  0  0
 17 39  1  0  0  0  0
 18 19  1  0  0  0  0
 18 40  1  0  0  0  0
 20 41  1  0  0  0  0
 20 42  1  0  0  0  0
M  CHG  1   5   1
M  END
> <s_m_source_file>
AV-unprocessed.smi

> <i_m_source_file_index>
2062

> <i_lp_mmshare_version>
43012

> <i_f3d_flags>
0

> <s_epik_input>
W0NIM11bQ0hdKFtDSDNdKVtDSDJdTjFbQ0gyXVtDSDJdT1tDQEhdKFtDSDJdMSlbQ0gyXVtOSF1DKD1PKVtOSF1jMm5bY0hdW2NIXXMy

> <s_epik_cmdline>
J2VwaWtfcHl0aG9uJywgJy1waCcsICc3LjAnLCAnLXRuJywgJzgnLCAnLW1hJywgJzIwMCcsICctbWV0YWxfYmluZGluZycsICctaW1hZScsICc8aW5maWxlLm1hZT4nLCAnLW9tYWUnLCAnPG91dGZpbGUubWFlPic=

> <r_lp_tautomer_probability>
0.999

> <r_epik_Ionization_Penalty>
0.0985527

> <r_epik_Ionization_Penalty_Charging>
0.098413

> <r_epik_Ionization_Penalty_Neutral>
0.000139681

> <r_epik_State_Penalty>
0.0884988

> <r_epik_Charging_Adjusted_Penalty>
0.186912

> <i_epik_Tot_Q>
1

> <i_epik_Tot_abs_Q>
1

> <r_epik_Metal_State_Penalty>
0.141792

> <b_epik_Metal_Only>
0

> <s_lp_Force_Field>
OPLS_2005

> <r_lp_Energy>
17.4544

> <b_lp_Chiralities_Consistent>
1

> <s_lp_Variant>
AV-unprocessed.smi:2062-2

> <Gold.Version>
5.8.1

> <Gold.Id.Protein>
6NUR|6NUR_protein|mol2

> <Gold.PLP.Fitness>
44.1723

> <Gold.PLP.PLP>
-31.0836

> <Gold.PLP.part.hbond>
-3.0000

> <Gold.PLP.part.metal>
0.0000

> <Gold.PLP.part.buried>
-4.7402

> <Gold.PLP.part.nonpolar>
-26.4961

> <Gold.PLP.part.repulsive>
2.9371

> <Gold.PLP.ligand.clash>
0.0000

> <Gold.PLP.ligand.torsion>
0.8920

> <Gold.PLP.Chemscore.Hbond>
3.9280

> <Gold.PLP.Chemscore.CHOScore>
0.9992

> <Gold.PLP.Chemscore.Metal>
0.0000

> <Gold.Chemscore.Hbonds>
donor molecule, donor type, donor heavy atom, donor atom, acceptor molecule, acceptor atom, score
      L1  H     5    43       P1  8028  2.00
      L1  H    11    37       P1  7948  0.93
      L1  H    14    38       P1  7948  1.00
      L1  C    17    39       P1 10186  1.00

> <Gold.PLP.Chemscore.Internal.Correction>
0.0911

> <Gold.Rescore>
     Score         DG    S(hbond)    S(metal)    S(lipo)     H(rot)  DE(clash)    DE(int)     intcor
     16.69     -19.20       2.89        0.00      73.32       1.76       0.50       2.01       ----

> <Gold.Chemscore.Fitness>
16.6896

> <Gold.Chemscore.DG>
-19.1981

> <Gold.Chemscore.ZeroCoef>
-5.4800

> <Gold.Chemscore.Hbond>
2.8879

> <Gold.Chemscore.Metal>
0.0000

> <Gold.Chemscore.Lipo>
73.3168

> <Gold.Chemscore.Internal_Hbond>
0.0000

> <Gold.Chemscore.DEClash>
0.5017

> <Gold.Chemscore.DEInternal>
2.0068

> <Gold.Chemscore.Rot>
1.7599

> <Gold.Chemscore.Internal.Correction>
   9.000000E+99

> <Gold.Chemscore.Hbonds>
donor molecule, donor type, donor heavy atom, donor atom, acceptor molecule, acceptor atom, score
      L1  H     5    43       P1  8028  0.93
      L1  H    11    37       P1  7948  0.90
      L1  H    14    38       P1  7948  0.98

> <Gold.Chemscore.Hbond.Weighted>
-9.6455

> <Gold.Chemscore.Metal.Weighted>
-0.0000

> <Gold.Chemscore.Lipo.Weighted>
-8.5781

> <Gold.Chemscore.Internal_Hbond.Weighted>
0.0000

> <Gold.Chemscore.DEClash.Weighted>
0.5017

> <Gold.Chemscore.DEInternal.Weighted>
2.0068

> <Gold.Chemscore.Rot.Weighted>
4.5054

> <Gold.Chemscore.Internal.Correction.Weighted>
   9.000000E+99

> <Gold.Protein.RotatedTorsions>
[ 6907 6896 6895 6894 ] final   40.80 input  -60.11 | X-H torsion
[ 7974 7965 7964 7962 ] final   94.34 input  175.53 | X-H torsion
[ 8008 7997 7996 7995 ] final -159.27 input   59.86 | X-H torsion
[ 10167 10162 10161 10158 ] final  159.44 input  -65.29 | X-H torsion
[ 10718 10713 10712 10709 ] final  -74.61 input   66.30 | X-H torsion
[ 10763 10752 10751 10750 ] final  144.66 input  -60.55 | X-H torsion
[ 11005 11000 10999 10996 ] final   92.51 input  -57.11 | X-H torsion

> <Gold.Protein.ActiveResidues>
 VAL166  LYS551  ARG553  GLY616  TRP617  ASP618  TYR619  PRO620  LYS621  CYS622 
 ASP623  PHE694  ASN695  SER759  ASP760  ASP761  ALA762  ILE779  LEU786  VAL792 
 PHE793  MET794  SER795  GLU796  ALA797  LYS798  CYS799  TRP800  GLU811  SER814 

> <Gold.Protein.RotatedAtoms>
  152.1872  134.8704  160.0520 H   0  0  0  0  0  0  0  0  0  0  0  0  # atno 6907 bound_to 6896
  151.9606  133.3689  159.4042 H   0  0  0  0  0  0  0  0  0  0  0  0  # atno 6908 bound_to 6896
  150.6928  134.4168  159.5230 H   0  0  0  0  0  0  0  0  0  0  0  0  # atno 6909 bound_to 6896
  145.4669  139.2284  143.2956 H   0  0  0  0  0  0  0  0  0  0  0  0  # atno 7974 bound_to 7965
  155.7600  140.0838  157.2160 H   0  0  0  0  0  0  0  0  0  0  0  0  # atno 8008 bound_to 7997
  154.4004  140.1544  156.2878 H   0  0  0  0  0  0  0  0  0  0  0  0  # atno 8009 bound_to 7997
  155.8848  140.3418  155.5916 H   0  0  0  0  0  0  0  0  0  0  0  0  # atno 8010 bound_to 7997
  139.4832  144.4729  151.8551 H   0  0  0  0  0  0  0  0  0  0  0  0  # atno 10167 bound_to 10162
  156.0236  130.4421  150.2918 H   0  0  0  0  0  0  0  0  0  0  0  0  # atno 10718 bound_to 10713
  153.9925  135.2931  155.3410 H   0  0  0  0  0  0  0  0  0  0  0  0  # atno 10763 bound_to 10752
  154.7206  135.5110  153.8810 H   0  0  0  0  0  0  0  0  0  0  0  0  # atno 10764 bound_to 10752
  153.0803  135.6677  154.0175 H   0  0  0  0  0  0  0  0  0  0  0  0  # atno 10765 bound_to 10752
  139.8822  134.8737  156.3583 H   0  0  0  0  0  0  0  0  0  0  0  0  # atno 11005 bound_to 11000
  146.2419  140.5443  142.8930 LP  0  0  0  0  0  0  0  0  0  0  0  0  # atno 17320 bound_to 7965
  144.7969  140.6139  143.6504 LP  0  0  0  0  0  0  0  0  0  0  0  0  # atno 17321 bound_to 7965
  140.4199  144.2257  150.5887 LP  0  0  0  0  0  0  0  0  0  0  0  0  # atno 17342 bound_to 10162
  140.4884  143.2355  151.8855 LP  0  0  0  0  0  0  0  0  0  0  0  0  # atno 17343 bound_to 10162
  157.1022  131.0198  151.3081 LP  0  0  0  0  0  0  0  0  0  0  0  0  # atno 17370 bound_to 10713
  157.4771  130.7743  149.7378 LP  0  0  0  0  0  0  0  0  0  0  0  0  # atno 17371 bound_to 10713
  140.9547  133.7428  156.0319 LP  0  0  0  0  0  0  0  0  0  0  0  0  # atno 17394 bound_to 11000
  140.8063  134.3451  157.5425 LP  0  0  0  0  0  0  0  0  0  0  0  0  # atno 17395 bound_to 11000

$$$$
