AV-unprocessed.smi:1965|AV-procd|sdf|7935|dock7
  -GOLD-   2272010103D 1   1.00000     0.00000
 Structure written by MMmdl.
 37 39  0  0  0  0  0  0  0  0  2 V2000
  145.3575  138.0694  153.3026 O   0  0  0  0  0  0  0  0  0  0  0  0
  146.3840  137.4778  152.9738 C   0  0  0  0  0  0  0  0  0  0  0  0
  147.6017  138.0175  153.1922 N   0  0  0  0  0  0  0  0  0  0  0  0
  147.9879  139.2558  153.7828 C   0  0  0  0  0  0  0  0  0  0  0  0
  149.2279  139.5639  154.1855 N   0  0  0  0  0  0  0  0  0  0  0  0
  149.2977  140.8406  154.7488 C   0  0  0  0  0  0  0  0  0  0  0  0
  148.0913  141.4941  154.7767 C   0  0  0  0  0  0  0  0  0  0  0  0
  146.8126  140.5260  154.0936 S   0  0  0  0  0  0  0  0  0  0  0  0
  146.3697  136.2704  152.3844 N   0  0  0  0  0  0  0  0  0  0  0  0
  145.1792  135.4778  152.0864 C   0  0  1  0  0  0  0  0  0  0  0  0
  144.7750  135.5434  150.6006 C   0  0  0  0  0  0  0  0  0  0  0  0
  144.3890  134.1058  150.2384 C   0  0  0  0  0  0  0  0  0  0  0  0
  145.2844  133.3041  151.0802 N   0  3  2  0  0  0  0  0  0  0  0  0
  145.0398  131.8515  151.1880 C   0  0  0  0  0  0  0  0  0  0  0  0
  146.2107  131.2160  151.9683 C   0  0  0  0  0  0  0  0  0  0  0  0
  146.4653  131.9228  153.3192 C   0  0  0  0  0  0  0  0  0  0  0  0
  146.5830  133.4532  153.1526 C   0  0  0  0  0  0  0  0  0  0  0  0
  145.3487  133.9710  152.3918 C   0  0  1  0  0  0  0  0  0  0  0  0
  148.3702  137.4810  152.8162 H   0  0  0  0  0  0  0  0  0  0  0  0
  150.2488  141.2054  155.1078 H   0  0  0  0  0  0  0  0  0  0  0  0
  147.8774  142.4816  155.1586 H   0  0  0  0  0  0  0  0  0  0  0  0
  147.2618  135.8612  152.1442 H   0  0  0  0  0  0  0  0  0  0  0  0
  144.3419  135.8551  152.6770 H   0  0  0  0  0  0  0  0  0  0  0  0
  143.9661  136.2509  150.4156 H   0  0  0  0  0  0  0  0  0  0  0  0
  145.6255  135.8507  149.9897 H   0  0  0  0  0  0  0  0  0  0  0  0
  143.3509  133.9065  150.5092 H   0  0  0  0  0  0  0  0  0  0  0  0
  144.5203  133.8880  149.1780 H   0  0  0  0  0  0  0  0  0  0  0  0
  144.0900  131.6663  151.6918 H   0  0  0  0  0  0  0  0  0  0  0  0
  144.9696  131.4140  150.1916 H   0  0  0  0  0  0  0  0  0  0  0  0
  146.0192  130.1549  152.1312 H   0  0  0  0  0  0  0  0  0  0  0  0
  147.1161  131.2737  151.3622 H   0  0  0  0  0  0  0  0  0  0  0  0
  145.6441  131.6979  154.0011 H   0  0  0  0  0  0  0  0  0  0  0  0
  147.3676  131.5263  153.7857 H   0  0  0  0  0  0  0  0  0  0  0  0
  146.6560  133.9263  154.1322 H   0  0  0  0  0  0  0  0  0  0  0  0
  147.4964  133.7006  152.6096 H   0  0  0  0  0  0  0  0  0  0  0  0
  144.4609  133.6727  152.9540 H   0  0  0  0  0  0  0  0  0  0  0  0
  146.2015  133.4096  150.6705 H   0  0  0  0  0  0  0  0  0  0  0  0
  1  2  2  0  0  0  0
  2  3  1  0  0  0  0
  2  9  1  0  0  0  0
  3  4  1  0  0  0  0
  3 19  1  0  0  0  0
  4  8  1  0  0  0  0
  4  5  2  0  0  0  0
  5  6  1  0  0  0  0
  6  7  2  0  0  0  0
  6 20  1  0  0  0  0
  7  8  1  0  0  0  0
  7 21  1  0  0  0  0
  9 10  1  0  0  0  0
  9 22  1  0  0  0  0
 10 18  1  0  0  0  0
 10 11  1  0  0  0  0
 10 23  1  0  0  0  0
 11 12  1  0  0  0  0
 11 24  1  0  0  0  0
 11 25  1  0  0  0  0
 12 13  1  0  0  0  0
 12 26  1  0  0  0  0
 12 27  1  0  0  0  0
 13 18  1  0  0  0  0
 13 14  1  0  0  0  0
 13 37  1  0  0  0  0
 14 15  1  0  0  0  0
 14 28  1  0  0  0  0
 14 29  1  0  0  0  0
 15 16  1  0  0  0  0
 15 30  1  0  0  0  0
 15 31  1  0  0  0  0
 16 17  1  0  0  0  0
 16 32  1  0  0  0  0
 16 33  1  0  0  0  0
 17 18  1  0  0  0  0
 17 34  1  0  0  0  0
 17 35  1  0  0  0  0
 18 36  1  0  0  0  0
M  CHG  1  13   1
M  END
> <s_m_source_file>
AV-unprocessed.smi

> <i_m_source_file_index>
1965

> <i_lp_mmshare_version>
43012

> <i_f3d_flags>
0

> <s_epik_input>
czFbY0hdW2NIXW5jMVtOSF1DKD1PKVtOSF1bQ0BIXShbQ0gyXVtDSDJdMilbQ0BASF0oTjIzKVtDSDJdW0NIMl1bQ0gyXVtDSDJdMw==

> <s_epik_cmdline>
J2VwaWtfcHl0aG9uJywgJy1waCcsICc3LjAnLCAnLXRuJywgJzgnLCAnLW1hJywgJzIwMCcsICctbWV0YWxfYmluZGluZycsICctaW1hZScsICc8aW5maWxlLm1hZT4nLCAnLW9tYWUnLCAnPG91dGZpbGUubWFlPic=

> <r_lp_tautomer_probability>
1

> <r_epik_Ionization_Penalty>
0.00125962

> <r_epik_Ionization_Penalty_Charging>
0.00107044

> <r_epik_Ionization_Penalty_Neutral>
0.000189176

> <r_epik_State_Penalty>
-0

> <r_epik_Charging_Adjusted_Penalty>
0.00107044

> <i_epik_Tot_Q>
1

> <i_epik_Tot_abs_Q>
1

> <r_epik_Metal_State_Penalty>
0.0179285

> <b_epik_Metal_Only>
0

> <s_lp_Force_Field>
OPLS_2005

> <r_lp_Energy>
42.2865

> <b_lp_Chiralities_Consistent>
1

> <s_lp_Variant>
AV-unprocessed.smi:1965-4

> <Gold.Version>
5.8.1

> <Gold.Id.Protein>
6NUR|6NUR_protein|mol2

> <Gold.PLP.Fitness>
34.4915

> <Gold.PLP.PLP>
-26.3649

> <Gold.PLP.part.hbond>
-2.0000

> <Gold.PLP.part.metal>
0.0000

> <Gold.PLP.part.buried>
-2.8651

> <Gold.PLP.part.nonpolar>
-22.6085

> <Gold.PLP.part.repulsive>
1.8612

> <Gold.PLP.ligand.clash>
0.0000

> <Gold.PLP.ligand.torsion>
0.2811

> <Gold.PLP.Chemscore.Hbond>
1.8960

> <Gold.PLP.Chemscore.CHOScore>
1.0000

> <Gold.PLP.Chemscore.Metal>
0.0000

> <Gold.Chemscore.Hbonds>
donor molecule, donor type, donor heavy atom, donor atom, acceptor molecule, acceptor atom, score
      L1  H     3    19       P1  7948  1.00
      L1  H     9    22       P1  7948  0.90
      L1  C     7    21       P1  8028  1.00

> <Gold.PLP.Chemscore.Internal.Correction>
0.0007

> <Gold.Rescore>
     Score         DG    S(hbond)    S(metal)    S(lipo)     H(rot)  DE(clash)    DE(int)     intcor
     15.18     -16.59       1.91        0.00      62.17       1.00       0.05       1.36       ----

> <Gold.Chemscore.Fitness>
15.1795

> <Gold.Chemscore.DG>
-16.5852

> <Gold.Chemscore.ZeroCoef>
-5.4800

> <Gold.Chemscore.Hbond>
1.9136

> <Gold.Chemscore.Metal>
0.0000

> <Gold.Chemscore.Lipo>
62.1694

> <Gold.Chemscore.Internal_Hbond>
0.0000

> <Gold.Chemscore.DEClash>
0.0466

> <Gold.Chemscore.DEInternal>
1.3590

> <Gold.Chemscore.Rot>
1.0000

> <Gold.Chemscore.Internal.Correction>
   9.000000E+99

> <Gold.Chemscore.Hbonds>
donor molecule, donor type, donor heavy atom, donor atom, acceptor molecule, acceptor atom, score
      L1  H     3    19       P1  7948  0.95
      L1  H     9    22       P1  7948  0.88

> <Gold.Chemscore.Hbond.Weighted>
-6.3913

> <Gold.Chemscore.Metal.Weighted>
-0.0000

> <Gold.Chemscore.Lipo.Weighted>
-7.2738

> <Gold.Chemscore.Internal_Hbond.Weighted>
0.0000

> <Gold.Chemscore.DEClash.Weighted>
0.0466

> <Gold.Chemscore.DEInternal.Weighted>
1.3590

> <Gold.Chemscore.Rot.Weighted>
2.5600

> <Gold.Chemscore.Internal.Correction.Weighted>
   9.000000E+99

> <Gold.Protein.RotatedTorsions>
[ 6907 6896 6895 6894 ] final -112.93 input  -60.11 | X-H torsion
[ 7974 7965 7964 7962 ] final  156.69 input  175.53 | X-H torsion
[ 8008 7997 7996 7995 ] final  -69.08 input   59.86 | X-H torsion
[ 10167 10162 10161 10158 ] final    0.20 input  -65.29 | X-H torsion
[ 10718 10713 10712 10709 ] final -168.44 input   66.30 | X-H torsion
[ 10763 10752 10751 10750 ] final -126.57 input  -60.55 | X-H torsion
[ 11005 11000 10999 10996 ] final   29.81 input  -57.11 | X-H torsion

> <Gold.Protein.ActiveResidues>
 VAL166  LYS551  ARG553  GLY616  TRP617  ASP618  TYR619  PRO620  LYS621  CYS622 
 ASP623  PHE694  ASN695  SER759  ASP760  ASP761  ALA762  ILE779  LEU786  VAL792 
 PHE793  MET794  SER795  GLU796  ALA797  LYS798  CYS799  TRP800  GLU811  SER814 

> <Gold.Protein.RotatedAtoms>
  150.7793  133.9018  159.3343 H   0  0  0  0  0  0  0  0  0  0  0  0  # atno 6907 bound_to 6896
  151.6885  135.0948  160.0239 H   0  0  0  0  0  0  0  0  0  0  0  0  # atno 6908 bound_to 6896
  152.3839  133.6546  159.6218 H   0  0  0  0  0  0  0  0  0  0  0  0  # atno 6909 bound_to 6896
  144.7948  139.7238  143.6206 H   0  0  0  0  0  0  0  0  0  0  0  0  # atno 7974 bound_to 7965
  154.4913  140.0860  156.7600 H   0  0  0  0  0  0  0  0  0  0  0  0  # atno 8008 bound_to 7997
  155.4224  140.3446  155.4254 H   0  0  0  0  0  0  0  0  0  0  0  0  # atno 8009 bound_to 7997
  156.1333  140.1508  156.9020 H   0  0  0  0  0  0  0  0  0  0  0  0  # atno 8010 bound_to 7997
  140.6739  143.6971  150.7981 H   0  0  0  0  0  0  0  0  0  0  0  0  # atno 10167 bound_to 10162
  156.6970  130.9181  151.3075 H   0  0  0  0  0  0  0  0  0  0  0  0  # atno 10718 bound_to 10713
  154.8746  135.3991  154.3452 H   0  0  0  0  0  0  0  0  0  0  0  0  # atno 10763 bound_to 10752
  153.4246  135.7024  153.6276 H   0  0  0  0  0  0  0  0  0  0  0  0  # atno 10764 bound_to 10752
  153.4924  135.3745  155.2468 H   0  0  0  0  0  0  0  0  0  0  0  0  # atno 10765 bound_to 10752
  140.3010  134.2756  155.7754 H   0  0  0  0  0  0  0  0  0  0  0  0  # atno 11005 bound_to 11000
  146.2212  139.5640  142.9617 LP  0  0  0  0  0  0  0  0  0  0  0  0  # atno 17320 bound_to 7965
  145.5702  141.0395  143.2178 LP  0  0  0  0  0  0  0  0  0  0  0  0  # atno 17321 bound_to 7965
  140.0661  143.5107  152.2603 LP  0  0  0  0  0  0  0  0  0  0  0  0  # atno 17342 bound_to 10162
  139.6021  144.7585  151.3147 LP  0  0  0  0  0  0  0  0  0  0  0  0  # atno 17343 bound_to 10162
  157.6987  130.9310  150.0721 LP  0  0  0  0  0  0  0  0  0  0  0  0  # atno 17370 bound_to 10713
  156.1756  130.3648  149.9105 LP  0  0  0  0  0  0  0  0  0  0  0  0  # atno 17371 bound_to 10713
  141.2128  133.7646  156.9767 LP  0  0  0  0  0  0  0  0  0  0  0  0  # atno 17394 bound_to 11000
  140.1109  134.9477  157.2064 LP  0  0  0  0  0  0  0  0  0  0  0  0  # atno 17395 bound_to 11000

$$$$
