AV-unprocessed.smi:3330|AV-procd|sdf|12815|dock9
  -GOLD-   2272019183D 1   1.00000     0.00000
 Structure written by MMmdl.
 37 38  0  0  0  0  0  0  0  0  2 V2000
  149.0968  139.3397  155.2876 C   0  0  0  0  0  0  0  0  0  0  0  0
  149.1541  140.7907  154.7754 C   0  0  2  0  0  0  0  0  0  0  0  0
  148.9312  141.6550  155.9293 N   0  0  0  0  0  0  0  0  0  0  0  0
  149.8508  141.3433  157.0121 C   0  0  0  0  0  0  0  0  0  0  0  0
  150.8762  142.4763  157.1612 C   0  0  0  0  0  0  0  0  0  0  0  0
  151.6585  142.3128  158.3893 N   0  0  0  0  0  0  0  0  0  0  0  0
  151.7407  143.2332  159.3548 C   0  0  0  0  0  0  0  0  0  0  0  0
  151.1889  144.3331  159.4010 O   0  0  0  0  0  0  0  0  0  0  0  0
  152.6676  142.6943  160.4195 C   0  0  0  0  0  0  0  0  0  0  0  0
  153.0478  141.4099  159.8764 N   0  5  0  0  0  0  0  0  0  0  0  0
  152.4278  141.2474  158.6841 C   0  0  0  0  0  0  0  0  0  0  0  0
  152.5258  140.2795  157.9303 O   0  0  0  0  0  0  0  0  0  0  0  0
  148.1009  141.1012  153.6775 C   0  0  1  0  0  0  0  0  0  0  0  0
  147.6077  139.8443  152.9375 C   0  0  0  0  0  0  0  0  0  0  0  0
  146.9584  141.8249  154.2205 N   0  0  0  0  0  0  0  0  0  0  0  0
  146.4088  143.0166  153.7906 C   0  0  0  0  0  0  0  0  0  0  0  0
  145.3547  143.3003  154.6107 C   0  0  0  0  0  0  0  0  0  0  0  0
  145.3373  142.2116  155.5261 C   0  0  0  0  0  0  0  0  0  0  0  0
  146.2978  141.3325  155.2919 N   0  0  0  0  0  0  0  0  0  0  0  0
  149.3404  138.6240  154.5026 H   0  0  0  0  0  0  0  0  0  0  0  0
  148.1051  139.0912  155.6674 H   0  0  0  0  0  0  0  0  0  0  0  0
  149.8118  139.1805  156.0957 H   0  0  0  0  0  0  0  0  0  0  0  0
  150.1538  140.9531  154.3686 H   0  0  0  0  0  0  0  0  0  0  0  0
  149.0386  142.6213  155.6553 H   0  0  0  0  0  0  0  0  0  0  0  0
  149.2917  141.2132  157.9395 H   0  0  0  0  0  0  0  0  0  0  0  0
  150.3644  140.4038  156.8061 H   0  0  0  0  0  0  0  0  0  0  0  0
  151.5439  142.4937  156.2977 H   0  0  0  0  0  0  0  0  0  0  0  0
  150.3713  143.4440  157.1640 H   0  0  0  0  0  0  0  0  0  0  0  0
  153.5110  143.3723  160.5539 H   0  0  0  0  0  0  0  0  0  0  0  0
  152.1389  142.6211  161.3703 H   0  0  0  0  0  0  0  0  0  0  0  0
  148.5712  141.7509  152.9360 H   0  0  0  0  0  0  0  0  0  0  0  0
  148.4180  139.3547  152.3972 H   0  0  0  0  0  0  0  0  0  0  0  0
  146.8418  140.0980  152.2041 H   0  0  0  0  0  0  0  0  0  0  0  0
  147.1800  139.1161  153.6273 H   0  0  0  0  0  0  0  0  0  0  0  0
  146.8091  143.5560  152.9447 H   0  0  0  0  0  0  0  0  0  0  0  0
  144.6963  144.1550  154.5646 H   0  0  0  0  0  0  0  0  0  0  0  0
  144.6604  142.0353  156.3489 H   0  0  0  0  0  0  0  0  0  0  0  0
  1  2  1  0  0  0  0
  1 20  1  0  0  0  0
  1 21  1  0  0  0  0
  1 22  1  0  0  0  0
  2  3  1  0  0  0  0
  2 13  1  0  0  0  0
  2 23  1  0  0  0  0
  3  4  1  0  0  0  0
  3 24  1  0  0  0  0
  4  5  1  0  0  0  0
  4 25  1  0  0  0  0
  4 26  1  0  0  0  0
  5  6  1  0  0  0  0
  5 27  1  0  0  0  0
  5 28  1  0  0  0  0
  6 11  1  0  0  0  0
  6  7  1  0  0  0  0
  7  8  2  0  0  0  0
  7  9  1  0  0  0  0
  9 10  1  0  0  0  0
  9 29  1  0  0  0  0
  9 30  1  0  0  0  0
 10 11  1  0  0  0  0
 11 12  2  0  0  0  0
 13 14  1  0  0  0  0
 13 15  1  0  0  0  0
 13 31  1  0  0  0  0
 14 32  1  0  0  0  0
 14 33  1  0  0  0  0
 14 34  1  0  0  0  0
 15 19  1  0  0  0  0
 15 16  1  0  0  0  0
 16 17  2  0  0  0  0
 16 35  1  0  0  0  0
 17 18  1  0  0  0  0
 17 36  1  0  0  0  0
 18 19  2  0  0  0  0
 18 37  1  0  0  0  0
M  CHG  1  10  -1
M  END
> <s_m_source_file>
AV-unprocessed.smi

> <i_m_source_file_index>
3330

> <i_lp_mmshare_version>
43012

> <i_f3d_flags>
0

> <s_epik_input>
bjFbY0hdW2NIXVtjSF1uMVtDQEBIXShbQ0gzXSlbQ0BIXShbQ0gzXSlbTkhdW0NIMl1bQ0gyXU4yQyg9TylbQ0gyXVtOSF1DMj1P

> <s_epik_cmdline>
J2VwaWtfcHl0aG9uJywgJy1waCcsICc3LjAnLCAnLXRuJywgJzgnLCAnLW1hJywgJzIwMCcsICctbWV0YWxfYmluZGluZycsICctaW1hZScsICc8aW5maWxlLm1hZT4nLCAnLW9tYWUnLCAnPG91dGZpbGUubWFlPic=

> <r_lp_tautomer_probability>
1

> <r_epik_Ionization_Penalty>
8.77477

> <r_epik_Ionization_Penalty_Charging>
6.28461

> <r_epik_Ionization_Penalty_Neutral>
2.49016

> <r_epik_State_Penalty>
8.73376

> <r_epik_Charging_Adjusted_Penalty>
15.0184

> <i_epik_Tot_Q>
-1

> <i_epik_Tot_abs_Q>
1

> <r_epik_Metal_State_Penalty>
4.73175

> <b_epik_Metal_Only>
1

> <s_lp_Force_Field>
OPLS_2005

> <r_lp_Energy>
21.2445

> <b_lp_Chiralities_Consistent>
1

> <s_lp_Variant>
AV-unprocessed.smi:3330-15

> <Gold.Version>
5.8.1

> <Gold.Id.Protein>
6NUR|6NUR_protein|mol2

> <Gold.PLP.Fitness>
38.9782

> <Gold.PLP.PLP>
-36.4938

> <Gold.PLP.part.hbond>
-2.0000

> <Gold.PLP.part.metal>
0.0000

> <Gold.PLP.part.buried>
-3.4563

> <Gold.PLP.part.nonpolar>
-29.9779

> <Gold.PLP.part.repulsive>
0.1838

> <Gold.PLP.ligand.clash>
0.0385

> <Gold.PLP.ligand.torsion>
1.6932

> <Gold.PLP.Chemscore.Hbond>
1.9263

> <Gold.PLP.Chemscore.CHOScore>
0.0000

> <Gold.PLP.Chemscore.Metal>
0.0000

> <Gold.Chemscore.Hbonds>
donor molecule, donor type, donor heavy atom, donor atom, acceptor molecule, acceptor atom, score
      L1  H     3    24       P1  8028  0.83
      P1  H  7997  8009       L1    12  0.51

> <Gold.PLP.Chemscore.Internal.Correction>
0.1304

> <Gold.Rescore>
     Score         DG    S(hbond)    S(metal)    S(lipo)     H(rot)  DE(clash)    DE(int)     intcor
      9.75     -13.06       1.83        0.00      67.49       2.52       0.02       3.29       ----

> <Gold.Chemscore.Fitness>
9.7451

> <Gold.Chemscore.DG>
-13.0597

> <Gold.Chemscore.ZeroCoef>
-5.4800

> <Gold.Chemscore.Hbond>
1.8335

> <Gold.Chemscore.Metal>
0.0000

> <Gold.Chemscore.Lipo>
67.4934

> <Gold.Chemscore.Internal_Hbond>
0.0000

> <Gold.Chemscore.DEClash>
0.0217

> <Gold.Chemscore.DEInternal>
3.2929

> <Gold.Chemscore.Rot>
2.5160

> <Gold.Chemscore.Internal.Correction>
   9.000000E+99

> <Gold.Chemscore.Hbonds>
donor molecule, donor type, donor heavy atom, donor atom, acceptor molecule, acceptor atom, score
      L1  H     3    24       P1  8028  0.80
      P1  H  7997  8009       L1    12  0.45

> <Gold.Chemscore.Hbond.Weighted>
-6.1240

> <Gold.Chemscore.Metal.Weighted>
-0.0000

> <Gold.Chemscore.Lipo.Weighted>
-7.8967

> <Gold.Chemscore.Internal_Hbond.Weighted>
0.0000

> <Gold.Chemscore.DEClash.Weighted>
0.0217

> <Gold.Chemscore.DEInternal.Weighted>
3.2929

> <Gold.Chemscore.Rot.Weighted>
6.4410

> <Gold.Chemscore.Internal.Correction.Weighted>
   9.000000E+99

> <Gold.Protein.RotatedTorsions>
[ 6907 6896 6895 6894 ] final  -97.75 input  -60.11 | X-H torsion
[ 7974 7965 7964 7962 ] final   -8.23 input  175.53 | X-H torsion
[ 8008 7997 7996 7995 ] final  167.77 input   59.86 | X-H torsion
[ 10167 10162 10161 10158 ] final -141.78 input  -65.29 | X-H torsion
[ 10718 10713 10712 10709 ] final  136.56 input   66.30 | X-H torsion
[ 10763 10752 10751 10750 ] final  -39.37 input  -60.55 | X-H torsion
[ 11005 11000 10999 10996 ] final   76.83 input  -57.11 | X-H torsion

> <Gold.Protein.ActiveResidues>
 VAL166  LYS551  ARG553  GLY616  TRP617  ASP618  TYR619  PRO620  LYS621  CYS622 
 ASP623  PHE694  ASN695  SER759  ASP760  ASP761  ALA762  ILE779  LEU786  VAL792 
 PHE793  MET794  SER795  GLU796  ALA797  LYS798  CYS799  TRP800  GLU811  SER814 

> <Gold.Protein.RotatedAtoms>
  150.7026  134.1300  159.4065 H   0  0  0  0  0  0  0  0  0  0  0  0  # atno 6907 bound_to 6896
  151.9286  135.0264  160.0537 H   0  0  0  0  0  0  0  0  0  0  0  0  # atno 6908 bound_to 6896
  152.2195  133.4937  159.5191 H   0  0  0  0  0  0  0  0  0  0  0  0  # atno 6909 bound_to 6896
  146.2286  140.2438  142.8344 H   0  0  0  0  0  0  0  0  0  0  0  0  # atno 7974 bound_to 7965
  156.1605  140.1608  156.8619 H   0  0  0  0  0  0  0  0  0  0  0  0  # atno 8008 bound_to 7997
  154.5156  140.0790  156.8111 H   0  0  0  0  0  0  0  0  0  0  0  0  # atno 8009 bound_to 7997
  155.3716  140.3400  155.4246 H   0  0  0  0  0  0  0  0  0  0  0  0  # atno 8010 bound_to 7997
  139.8151  143.7649  152.2665 H   0  0  0  0  0  0  0  0  0  0  0  0  # atno 10167 bound_to 10162
  157.4454  131.1061  151.0096 H   0  0  0  0  0  0  0  0  0  0  0  0  # atno 10718 bound_to 10713
  153.9282  135.6775  153.4746 H   0  0  0  0  0  0  0  0  0  0  0  0  # atno 10763 bound_to 10752
  153.0993  135.4836  154.8834 H   0  0  0  0  0  0  0  0  0  0  0  0  # atno 10764 bound_to 10752
  154.7442  135.3168  154.8632 H   0  0  0  0  0  0  0  0  0  0  0  0  # atno 10765 bound_to 10752
  139.9281  134.7633  156.1445 H   0  0  0  0  0  0  0  0  0  0  0  0  # atno 11005 bound_to 11000
  144.9464  140.8133  143.5599 LP  0  0  0  0  0  0  0  0  0  0  0  0  # atno 17320 bound_to 7965
  145.2394  139.2079  143.5000 LP  0  0  0  0  0  0  0  0  0  0  0  0  # atno 17321 bound_to 7965
  139.7810  144.7444  151.0088 LP  0  0  0  0  0  0  0  0  0  0  0  0  # atno 17342 bound_to 10162
  140.7816  143.4542  151.0370 LP  0  0  0  0  0  0  0  0  0  0  0  0  # atno 17343 bound_to 10162
  157.0944  130.5956  149.5446 LP  0  0  0  0  0  0  0  0  0  0  0  0  # atno 17370 bound_to 10713
  155.9965  130.5034  150.7499 LP  0  0  0  0  0  0  0  0  0  0  0  0  # atno 17371 bound_to 10713
  141.0852  133.6737  156.2420 LP  0  0  0  0  0  0  0  0  0  0  0  0  # atno 17394 bound_to 11000
  140.6279  134.5294  157.5556 LP  0  0  0  0  0  0  0  0  0  0  0  0  # atno 17395 bound_to 11000

$$$$
