AV-unprocessed.smi:278|AV-procd|sdf|2088|dock4
  -GOLD-   2262021363D 1   1.00000     0.00000
 Structure written by MMmdl.
 50 54  0  0  0  0  0  0  0  0  1 V2000
  146.1772  137.5506  162.1015 O   0  0  0  0  0  0  0  0  0  0  0  0
  147.1244  136.5097  161.6730 S   0  0  0  0  0  0  0  0  0  0  0  0
  148.3432  136.8630  160.9295 O   0  0  0  0  0  0  0  0  0  0  0  0
  147.5870  135.4875  163.1251 C   0  0  0  0  0  0  0  0  0  0  0  0
  147.2489  134.0369  162.7554 C   0  0  0  0  0  0  0  0  0  0  0  0
  146.0758  134.0299  161.7580 C   0  0  1  0  0  0  0  0  0  0  0  0
  144.7155  134.3274  162.3980 C   0  0  0  0  0  0  0  0  0  0  0  0
  143.9318  134.9783  161.3563 N   0  0  0  0  0  0  0  0  0  0  0  0
  142.7411  135.5668  161.6451 C   0  0  0  0  0  0  0  0  0  0  0  0
  142.3201  136.6086  160.8786 N   0  0  0  0  0  0  0  0  0  0  0  0
  141.1485  137.2028  161.1211 C   0  0  0  0  0  0  0  0  0  0  0  0
  140.2537  136.9249  162.0700 N   0  0  0  0  0  0  0  0  0  0  0  0
  140.6750  135.8946  162.8566 C   0  0  0  0  0  0  0  0  0  0  0  0
  141.8935  135.1686  162.7215 C   0  0  0  0  0  0  0  0  0  0  0  0
  141.9727  134.2030  163.7204 N   0  0  0  0  0  0  0  0  0  0  0  0
  140.8632  134.3397  164.3932 C   0  0  0  0  0  0  0  0  0  0  0  0
  140.0225  135.3277  163.9363 N   0  0  0  0  0  0  0  0  0  0  0  0
  138.7255  135.6900  164.4795 C   0  0  0  0  0  0  0  0  0  0  0  0
  138.6052  137.2044  164.7428 C   0  0  1  0  0  0  0  0  0  0  0  0
  137.3338  137.6495  164.3092 O   0  0  0  0  0  0  0  0  0  0  0  0
  138.7779  137.5565  166.2317 C   0  0  2  0  0  0  0  0  0  0  0  0
  137.6850  136.9945  167.1443 C   0  0  0  0  0  0  0  0  0  0  0  0
  137.7359  137.9534  168.3108 C   0  0  0  0  0  0  0  0  0  0  0  0
  137.9781  139.2825  167.6037 C   0  0  0  0  0  0  0  0  0  0  0  0
  138.7094  138.9691  166.4210 O   0  0  0  0  0  0  0  0  0  0  0  0
  144.8132  135.5642  160.3538 C   0  0  0  0  0  0  0  0  0  0  0  0
  146.2414  135.1748  160.7583 C   0  0  1  0  0  0  0  0  0  0  0  0
  146.0185  133.0778  161.2283 H   0  0  0  0  0  0  0  0  0  0  0  0
  146.8543  134.8899  159.9028 H   0  0  0  0  0  0  0  0  0  0  0  0
  148.6403  135.6311  163.3671 H   0  0  0  0  0  0  0  0  0  0  0  0
  146.9893  135.8208  163.9737 H   0  0  0  0  0  0  0  0  0  0  0  0
  148.1173  133.5903  162.2699 H   0  0  0  0  0  0  0  0  0  0  0  0
  147.0373  133.4339  163.6390 H   0  0  0  0  0  0  0  0  0  0  0  0
  144.2311  133.4153  162.7485 H   0  0  0  0  0  0  0  0  0  0  0  0
  144.8227  135.0035  163.2474 H   0  0  0  0  0  0  0  0  0  0  0  0
  140.8900  138.0151  160.4577 H   0  0  0  0  0  0  0  0  0  0  0  0
  140.6230  133.7150  165.2414 H   0  0  0  0  0  0  0  0  0  0  0  0
  137.9507  135.3591  163.7865 H   0  0  0  0  0  0  0  0  0  0  0  0
  138.5776  135.1300  165.4036 H   0  0  0  0  0  0  0  0  0  0  0  0
  139.3618  137.7326  164.1609 H   0  0  0  0  0  0  0  0  0  0  0  0
  137.3008  137.5846  163.3669 H   0  0  0  0  0  0  0  0  0  0  0  0
  139.7521  137.2209  166.5913 H   0  0  0  0  0  0  0  0  0  0  0  0
  136.7093  137.0505  166.6589 H   0  0  0  0  0  0  0  0  0  0  0  0
  137.8635  135.9588  167.4345 H   0  0  0  0  0  0  0  0  0  0  0  0
  136.8272  137.9484  168.9133 H   0  0  0  0  0  0  0  0  0  0  0  0
  138.5794  137.7106  168.9584 H   0  0  0  0  0  0  0  0  0  0  0  0
  137.0303  139.7369  167.3125 H   0  0  0  0  0  0  0  0  0  0  0  0
  138.5171  139.9946  168.2291 H   0  0  0  0  0  0  0  0  0  0  0  0
  144.5669  135.1295  159.3848 H   0  0  0  0  0  0  0  0  0  0  0  0
  144.6964  136.6448  160.2716 H   0  0  0  0  0  0  0  0  0  0  0  0
  1  2  2  0  0  0  0
  2 27  1  0  0  0  0
  2  3  2  0  0  0  0
  2  4  1  0  0  0  0
  4  5  1  0  0  0  0
  4 30  1  0  0  0  0
  4 31  1  0  0  0  0
  5  6  1  0  0  0  0
  5 32  1  0  0  0  0
  5 33  1  0  0  0  0
  6 28  1  0  0  0  0
  6 27  1  0  0  0  0
  6  7  1  0  0  0  0
  7  8  1  0  0  0  0
  7 34  1  0  0  0  0
  7 35  1  0  0  0  0
  8  9  1  0  0  0  0
  8 26  1  0  0  0  0
  9 14  1  0  0  0  0
  9 10  2  0  0  0  0
 10 11  1  0  0  0  0
 11 12  2  0  0  0  0
 11 36  1  0  0  0  0
 12 13  1  0  0  0  0
 13 17  1  0  0  0  0
 13 14  2  0  0  0  0
 14 15  1  0  0  0  0
 15 16  2  0  0  0  0
 16 17  1  0  0  0  0
 16 37  1  0  0  0  0
 17 18  1  0  0  0  0
 18 19  1  0  0  0  0
 18 38  1  0  0  0  0
 18 39  1  0  0  0  0
 19 20  1  0  0  0  0
 19 21  1  0  0  0  0
 19 40  1  0  0  0  0
 20 41  1  0  0  0  0
 21 25  1  0  0  0  0
 21 22  1  0  0  0  0
 21 42  1  0  0  0  0
 22 23  1  0  0  0  0
 22 43  1  0  0  0  0
 22 44  1  0  0  0  0
 23 24  1  0  0  0  0
 23 45  1  0  0  0  0
 23 46  1  0  0  0  0
 24 25  1  0  0  0  0
 24 47  1  0  0  0  0
 24 48  1  0  0  0  0
 26 27  1  0  0  0  0
 26 49  1  0  0  0  0
 26 50  1  0  0  0  0
 27 29  1  0  0  0  0
M  END
> <s_m_source_file>
AV-unprocessed.smi

> <i_m_source_file_index>
278

> <i_lp_mmshare_version>
43012

> <i_f3d_flags>
0

> <s_epik_input>
W0NIMl0xW0NIMl1TKD1PKSg9TylbQ0BASF0oW0NAQEhdMTIpW0NIMl1OKFtDSDJdMiljKG5bY0hdbjMpYyhjMzQpbltjSF1uNFtDSDJdW0NASF0oW09IXSlbQ0BASF01W0NIMl1bQ0gyXVtDSDJdTzU=

> <s_epik_cmdline>
J2VwaWtfcHl0aG9uJywgJy1waCcsICc3LjAnLCAnLXRuJywgJzgnLCAnLW1hJywgJzIwMCcsICctbWV0YWxfYmluZGluZycsICctaW1hZScsICc8aW5maWxlLm1hZT4nLCAnLW9tYWUnLCAnPG91dGZpbGUubWFlPic=

> <r_lp_tautomer_probability>
1

> <r_epik_Ionization_Penalty>
0.000636766

> <r_epik_Ionization_Penalty_Charging>
0

> <r_epik_Ionization_Penalty_Neutral>
0.000636766

> <r_epik_State_Penalty>
0.000329976

> <r_epik_Charging_Adjusted_Penalty>
0.000329976

> <i_epik_Tot_Q>
0

> <i_epik_Tot_abs_Q>
0

> <r_epik_Metal_State_Penalty>
-0

> <b_epik_Metal_Only>
0

> <s_lp_Force_Field>
OPLS_2005

> <r_lp_Energy>
48.1975

> <b_lp_Chiralities_Consistent>
1

> <s_lp_Variant>
AV-unprocessed.smi:278-2

> <Gold.Version>
5.8.1

> <Gold.Id.Protein>
6NUR|6NUR_protein|mol2

> <Gold.PLP.Fitness>
45.9266

> <Gold.PLP.PLP>
-42.7122

> <Gold.PLP.part.hbond>
-2.4377

> <Gold.PLP.part.metal>
0.0000

> <Gold.PLP.part.buried>
-3.2714

> <Gold.PLP.part.nonpolar>
-39.0022

> <Gold.PLP.part.repulsive>
0.2330

> <Gold.PLP.ligand.clash>
0.0000

> <Gold.PLP.ligand.torsion>
0.8685

> <Gold.PLP.Chemscore.Hbond>
1.5520

> <Gold.PLP.Chemscore.CHOScore>
0.0000

> <Gold.PLP.Chemscore.Metal>
0.0000

> <Gold.Chemscore.Hbonds>
donor molecule, donor type, donor heavy atom, donor atom, acceptor molecule, acceptor atom, score
      P1  H  6931  6943       L1     3  1.00
      P1  H  6934  6947       L1     1  0.39

> <Gold.PLP.Chemscore.Internal.Correction>
0.2955

> <Gold.Rescore>
     Score         DG    S(hbond)    S(metal)    S(lipo)     H(rot)  DE(clash)    DE(int)     intcor
     12.25     -14.10       0.98        0.00      92.56       2.13       0.00       1.85       ----

> <Gold.Chemscore.Fitness>
12.2492

> <Gold.Chemscore.DG>
-14.1047

> <Gold.Chemscore.ZeroCoef>
-5.4800

> <Gold.Chemscore.Hbond>
0.9760

> <Gold.Chemscore.Metal>
0.0000

> <Gold.Chemscore.Lipo>
92.5588

> <Gold.Chemscore.Internal_Hbond>
0.0000

> <Gold.Chemscore.DEClash>
0.0029

> <Gold.Chemscore.DEInternal>
1.8526

> <Gold.Chemscore.Rot>
2.1346

> <Gold.Chemscore.Internal.Correction>
   9.000000E+99

> <Gold.Chemscore.Hbonds>
donor molecule, donor type, donor heavy atom, donor atom, acceptor molecule, acceptor atom, score
      P1  H  6931  6943       L1     3  0.43
      P1  H  6934  6947       L1     1  0.03

> <Gold.Chemscore.Hbond.Weighted>
-3.2599

> <Gold.Chemscore.Metal.Weighted>
-0.0000

> <Gold.Chemscore.Lipo.Weighted>
-10.8294

> <Gold.Chemscore.Internal_Hbond.Weighted>
0.0000

> <Gold.Chemscore.DEClash.Weighted>
0.0029

> <Gold.Chemscore.DEInternal.Weighted>
1.8526

> <Gold.Chemscore.Rot.Weighted>
5.4646

> <Gold.Chemscore.Internal.Correction.Weighted>
   9.000000E+99

> <Gold.Protein.RotatedTorsions>
[ 6907 6896 6895 6894 ] final -141.90 input  -60.11 | X-H torsion
[ 7974 7965 7964 7962 ] final  100.30 input  175.53 | X-H torsion
[ 8008 7997 7996 7995 ] final  179.40 input   59.86 | X-H torsion
[ 10167 10162 10161 10158 ] final  125.44 input  -65.29 | X-H torsion
[ 10718 10713 10712 10709 ] final    0.42 input   66.30 | X-H torsion
[ 10763 10752 10751 10750 ] final    9.91 input  -60.55 | X-H torsion
[ 11005 11000 10999 10996 ] final   30.32 input  -57.11 | X-H torsion

> <Gold.Protein.ActiveResidues>
 VAL166  LYS551  ARG553  GLY616  TRP617  ASP618  TYR619  PRO620  LYS621  CYS622 
 ASP623  PHE694  ASN695  SER759  ASP760  ASP761  ALA762  ILE779  LEU786  VAL792 
 PHE793  MET794  SER795  GLU796  ALA797  LYS798  CYS799  TRP800  GLU811  SER814 

> <Gold.Protein.RotatedAtoms>
  151.0799  133.5398  159.2621 H   0  0  0  0  0  0  0  0  0  0  0  0  # atno 6907 bound_to 6896
  151.2305  135.0552  159.8996 H   0  0  0  0  0  0  0  0  0  0  0  0  # atno 6908 bound_to 6896
  152.5422  134.0589  159.8197 H   0  0  0  0  0  0  0  0  0  0  0  0  # atno 6909 bound_to 6896
  145.3874  139.2369  143.3370 H   0  0  0  0  0  0  0  0  0  0  0  0  # atno 7974 bound_to 7965
  156.0438  140.1309  157.0127 H   0  0  0  0  0  0  0  0  0  0  0  0  # atno 8008 bound_to 7997
  154.4403  140.1025  156.6346 H   0  0  0  0  0  0  0  0  0  0  0  0  # atno 8009 bound_to 7997
  155.5627  140.3465  155.4497 H   0  0  0  0  0  0  0  0  0  0  0  0  # atno 8010 bound_to 7997
  139.5685  144.6925  151.3842 H   0  0  0  0  0  0  0  0  0  0  0  0  # atno 10167 bound_to 10162
  156.8331  130.5495  149.5685 H   0  0  0  0  0  0  0  0  0  0  0  0  # atno 10718 bound_to 10713
  153.2088  135.6866  153.8139 H   0  0  0  0  0  0  0  0  0  0  0  0  # atno 10763 bound_to 10752
  153.7379  135.3242  155.3299 H   0  0  0  0  0  0  0  0  0  0  0  0  # atno 10764 bound_to 10752
  154.8211  135.4651  154.0887 H   0  0  0  0  0  0  0  0  0  0  0  0  # atno 10765 bound_to 10752
  140.2957  134.2814  155.7765 H   0  0  0  0  0  0  0  0  0  0  0  0  # atno 11005 bound_to 11000
  146.2813  140.4552  142.8775 LP  0  0  0  0  0  0  0  0  0  0  0  0  # atno 17320 bound_to 7965
  144.8464  140.6936  143.6196 LP  0  0  0  0  0  0  0  0  0  0  0  0  # atno 17321 bound_to 7965
  140.6970  143.7726  150.7342 LP  0  0  0  0  0  0  0  0  0  0  0  0  # atno 17342 bound_to 10162
  140.1225  143.4599  152.2304 LP  0  0  0  0  0  0  0  0  0  0  0  0  # atno 17343 bound_to 10162
  156.0923  130.5905  150.9754 LP  0  0  0  0  0  0  0  0  0  0  0  0  # atno 17370 bound_to 10713
  157.6396  131.0912  150.8278 LP  0  0  0  0  0  0  0  0  0  0  0  0  # atno 17371 bound_to 10713
  141.2138  133.7613  156.9691 LP  0  0  0  0  0  0  0  0  0  0  0  0  # atno 17394 bound_to 11000
  140.1155  134.9450  157.2128 LP  0  0  0  0  0  0  0  0  0  0  0  0  # atno 17395 bound_to 11000

$$$$
