AV-unprocessed.smi:3148|AV-procd|sdf|11993|dock4
  -GOLD-   2272017403D 1   1.00000     0.00000
 Structure written by MMmdl.
 34 36  0  0  0  0  0  0  0  0  1 V2000
  152.9137  138.4156  154.7539 C   0  0  0  0  0  0  0  0  0  0  0  0
  152.7404  139.3634  155.8015 O   0  0  0  0  0  0  0  0  0  0  0  0
  151.6002  140.1395  155.7931 C   0  0  0  0  0  0  0  0  0  0  0  0
  150.5700  139.8497  154.8756 C   0  0  0  0  0  0  0  0  0  0  0  0
  149.4347  140.6855  154.9221 C   0  0  0  0  0  0  0  0  0  0  0  0
  148.2639  140.4833  153.9841 C   0  0  0  0  0  0  0  0  0  0  0  0
  149.3388  141.7094  155.7987 N   0  0  0  0  0  0  0  0  0  0  0  0
  150.3708  141.8991  156.6235 C   0  0  0  0  0  0  0  0  0  0  0  0
  150.2436  142.9595  157.5015 N   0  0  0  0  0  0  0  0  0  0  0  0
  150.8369  142.9978  158.8333 C   0  0  2  0  0  0  0  0  0  0  0  0
  150.3203  144.1556  159.6900 C   0  0  0  0  0  0  0  0  0  0  0  0
  151.6280  144.8344  160.1221 C   0  0  2  0  0  0  0  0  0  0  0  0
  152.2560  145.6310  158.9710 C   0  0  0  0  0  0  0  0  0  0  0  0
  152.7803  144.5141  158.0706 C   0  0  0  0  0  0  0  0  0  0  0  0
  152.3570  143.2548  158.8462 C   0  0  1  0  0  0  0  0  0  0  0  0
  152.5066  143.7226  160.1760 O   0  0  0  0  0  0  0  0  0  0  0  0
  151.4918  141.1705  156.6677 N   0  0  0  0  0  0  0  0  0  0  0  0
  153.8512  137.8803  154.9035 H   0  0  0  0  0  0  0  0  0  0  0  0
  152.9627  138.9025  153.7788 H   0  0  0  0  0  0  0  0  0  0  0  0
  152.1090  137.6789  154.7454 H   0  0  0  0  0  0  0  0  0  0  0  0
  150.6510  139.0316  154.1752 H   0  0  0  0  0  0  0  0  0  0  0  0
  148.3655  139.5538  153.4232 H   0  0  0  0  0  0  0  0  0  0  0  0
  148.2043  141.3071  153.2726 H   0  0  0  0  0  0  0  0  0  0  0  0
  147.3285  140.4428  154.5432 H   0  0  0  0  0  0  0  0  0  0  0  0
  149.8740  143.8204  157.1254 H   0  0  0  0  0  0  0  0  0  0  0  0
  150.6228  142.0590  159.3461 H   0  0  0  0  0  0  0  0  0  0  0  0
  149.6626  144.8418  159.1546 H   0  0  0  0  0  0  0  0  0  0  0  0
  149.7765  143.7717  160.5537 H   0  0  0  0  0  0  0  0  0  0  0  0
  151.5499  145.3930  161.0551 H   0  0  0  0  0  0  0  0  0  0  0  0
  151.5344  146.2769  158.4694 H   0  0  0  0  0  0  0  0  0  0  0  0
  153.0786  146.2508  159.3295 H   0  0  0  0  0  0  0  0  0  0  0  0
  152.3720  144.5535  157.0605 H   0  0  0  0  0  0  0  0  0  0  0  0
  153.8666  144.5686  157.9946 H   0  0  0  0  0  0  0  0  0  0  0  0
  152.9569  142.3739  158.6160 H   0  0  0  0  0  0  0  0  0  0  0  0
  1  2  1  0  0  0  0
  1 18  1  0  0  0  0
  1 19  1  0  0  0  0
  1 20  1  0  0  0  0
  2  3  1  0  0  0  0
  3 17  1  0  0  0  0
  3  4  2  0  0  0  0
  4  5  1  0  0  0  0
  4 21  1  0  0  0  0
  5  6  1  0  0  0  0
  5  7  2  0  0  0  0
  6 22  1  0  0  0  0
  6 23  1  0  0  0  0
  6 24  1  0  0  0  0
  7  8  1  0  0  0  0
  8  9  1  0  0  0  0
  8 17  2  0  0  0  0
  9 10  1  0  0  0  0
  9 25  1  0  0  0  0
 10 15  1  0  0  0  0
 10 11  1  0  0  0  0
 10 26  1  0  0  0  0
 11 12  1  0  0  0  0
 11 27  1  0  0  0  0
 11 28  1  0  0  0  0
 12 16  1  0  0  0  0
 12 13  1  0  0  0  0
 12 29  1  0  0  0  0
 13 14  1  0  0  0  0
 13 30  1  0  0  0  0
 13 31  1  0  0  0  0
 14 15  1  0  0  0  0
 14 32  1  0  0  0  0
 14 33  1  0  0  0  0
 15 16  1  0  0  0  0
 15 34  1  0  0  0  0
M  END
> <s_m_source_file>
AV-unprocessed.smi

> <i_m_source_file_index>
3148

> <i_lp_mmshare_version>
43012

> <i_f3d_flags>
0

> <s_epik_input>
W0NIM11PYzFbY0hdYyhbQ0gzXSluYyhuMSlbTkhdW0NASF0oW0NIMl1bQ0BASF0yMylbQ0BASF0oTzMpW0NIMl1bQ0gyXTI=

> <s_epik_cmdline>
J2VwaWtfcHl0aG9uJywgJy1waCcsICc3LjAnLCAnLXRuJywgJzgnLCAnLW1hJywgJzIwMCcsICctbWV0YWxfYmluZGluZycsICctaW1hZScsICc8aW5maWxlLm1hZT4nLCAnLW9tYWUnLCAnPG91dGZpbGUubWFlPic=

> <r_lp_tautomer_probability>
1

> <r_epik_Ionization_Penalty>
0.101645

> <r_epik_Ionization_Penalty_Charging>
0

> <r_epik_Ionization_Penalty_Neutral>
0.101645

> <r_epik_State_Penalty>
0.0916212

> <r_epik_Charging_Adjusted_Penalty>
0.0916212

> <i_epik_Tot_Q>
0

> <i_epik_Tot_abs_Q>
0

> <r_epik_Metal_State_Penalty>
0.0781

> <b_epik_Metal_Only>
0

> <s_lp_Force_Field>
OPLS_2005

> <r_lp_Energy>
31.5885

> <b_lp_Chiralities_Consistent>
1

> <s_lp_Variant>
AV-unprocessed.smi:3148-3

> <Gold.Version>
5.8.1

> <Gold.Id.Protein>
6NUR|6NUR_protein|mol2

> <Gold.PLP.Fitness>
43.2923

> <Gold.PLP.PLP>
-38.2121

> <Gold.PLP.part.hbond>
-2.0000

> <Gold.PLP.part.metal>
0.0000

> <Gold.PLP.part.buried>
-2.5570

> <Gold.PLP.part.nonpolar>
-33.7982

> <Gold.PLP.part.repulsive>
0.6645

> <Gold.PLP.ligand.clash>
0.0000

> <Gold.PLP.ligand.torsion>
0.4289

> <Gold.PLP.Chemscore.Hbond>
1.9760

> <Gold.PLP.Chemscore.CHOScore>
0.0000

> <Gold.PLP.Chemscore.Metal>
0.0000

> <Gold.Chemscore.Hbonds>
donor molecule, donor type, donor heavy atom, donor atom, acceptor molecule, acceptor atom, score
      L1  H     9    25       P1  8028  0.98
      P1  H  7997  8009       L1     2  1.00

> <Gold.PLP.Chemscore.Internal.Correction>
0.0100

> <Gold.Rescore>
     Score         DG    S(hbond)    S(metal)    S(lipo)     H(rot)  DE(clash)    DE(int)     intcor
     19.15     -19.98       1.82        0.00      98.86       1.22       0.51       0.32       ----

> <Gold.Chemscore.Fitness>
19.1472

> <Gold.Chemscore.DG>
-19.9846

> <Gold.Chemscore.ZeroCoef>
-5.4800

> <Gold.Chemscore.Hbond>
1.8171

> <Gold.Chemscore.Metal>
0.0000

> <Gold.Chemscore.Lipo>
98.8615

> <Gold.Chemscore.Internal_Hbond>
0.0000

> <Gold.Chemscore.DEClash>
0.5124

> <Gold.Chemscore.DEInternal>
0.3250

> <Gold.Chemscore.Rot>
1.2232

> <Gold.Chemscore.Internal.Correction>
   9.000000E+99

> <Gold.Chemscore.Hbonds>
donor molecule, donor type, donor heavy atom, donor atom, acceptor molecule, acceptor atom, score
      L1  H     9    25       P1  8028  0.83
      P1  H  7997  8009       L1     2  0.72

> <Gold.Chemscore.Hbond.Weighted>
-6.0692

> <Gold.Chemscore.Metal.Weighted>
-0.0000

> <Gold.Chemscore.Lipo.Weighted>
-11.5668

> <Gold.Chemscore.Internal_Hbond.Weighted>
0.0000

> <Gold.Chemscore.DEClash.Weighted>
0.5124

> <Gold.Chemscore.DEInternal.Weighted>
0.3250

> <Gold.Chemscore.Rot.Weighted>
3.1314

> <Gold.Chemscore.Internal.Correction.Weighted>
   9.000000E+99

> <Gold.Protein.RotatedTorsions>
[ 6907 6896 6895 6894 ] final -117.11 input  -60.11 | X-H torsion
[ 7974 7965 7964 7962 ] final  -91.15 input  175.53 | X-H torsion
[ 8008 7997 7996 7995 ] final -155.51 input   59.86 | X-H torsion
[ 10167 10162 10161 10158 ] final  -76.17 input  -65.29 | X-H torsion
[ 10718 10713 10712 10709 ] final  105.86 input   66.30 | X-H torsion
[ 10763 10752 10751 10750 ] final -134.30 input  -60.55 | X-H torsion
[ 11005 11000 10999 10996 ] final   15.26 input  -57.11 | X-H torsion

> <Gold.Protein.ActiveResidues>
 VAL166  LYS551  ARG553  GLY616  TRP617  ASP618  TYR619  PRO620  LYS621  CYS622 
 ASP623  PHE694  ASN695  SER759  ASP760  ASP761  ALA762  ILE779  LEU786  VAL792 
 PHE793  MET794  SER795  GLU796  ALA797  LYS798  CYS799  TRP800  GLU811  SER814 

> <Gold.Protein.RotatedAtoms>
  150.8110  133.8422  159.3182 H   0  0  0  0  0  0  0  0  0  0  0  0  # atno 6907 bound_to 6896
  151.6208  135.1030  160.0111 H   0  0  0  0  0  0  0  0  0  0  0  0  # atno 6908 bound_to 6896
  152.4201  133.7063  159.6509 H   0  0  0  0  0  0  0  0  0  0  0  0  # atno 6909 bound_to 6896
  145.4170  140.9549  143.2202 H   0  0  0  0  0  0  0  0  0  0  0  0  # atno 7974 bound_to 7965
  155.7030  140.0769  157.2402 H   0  0  0  0  0  0  0  0  0  0  0  0  # atno 8008 bound_to 7997
  154.4070  140.1644  156.2265 H   0  0  0  0  0  0  0  0  0  0  0  0  # atno 8009 bound_to 7997
  155.9351  140.3388  155.6283 H   0  0  0  0  0  0  0  0  0  0  0  0  # atno 8010 bound_to 7997
  140.4880  143.2387  151.7953 H   0  0  0  0  0  0  0  0  0  0  0  0  # atno 10167 bound_to 10162
  157.6690  131.0837  150.5921 H   0  0  0  0  0  0  0  0  0  0  0  0  # atno 10718 bound_to 10713
  154.8721  135.3739  154.4714 H   0  0  0  0  0  0  0  0  0  0  0  0  # atno 10763 bound_to 10752
  153.5374  135.7027  153.5658 H   0  0  0  0  0  0  0  0  0  0  0  0  # atno 10764 bound_to 10752
  153.3836  135.3990  155.1838 H   0  0  0  0  0  0  0  0  0  0  0  0  # atno 10765 bound_to 10752
  140.4603  134.1134  155.7715 H   0  0  0  0  0  0  0  0  0  0  0  0  # atno 11005 bound_to 11000
  144.8270  139.5692  143.6961 LP  0  0  0  0  0  0  0  0  0  0  0  0  # atno 17320 bound_to 7965
  146.2676  139.6557  142.9319 LP  0  0  0  0  0  0  0  0  0  0  0  0  # atno 17321 bound_to 7965
  139.4845  144.4687  151.9452 LP  0  0  0  0  0  0  0  0  0  0  0  0  # atno 17342 bound_to 10162
  140.3773  144.2780  150.5912 LP  0  0  0  0  0  0  0  0  0  0  0  0  # atno 17343 bound_to 10162
  156.6221  130.4408  149.5818 LP  0  0  0  0  0  0  0  0  0  0  0  0  # atno 17370 bound_to 10713
  156.2347  130.6816  151.1498 LP  0  0  0  0  0  0  0  0  0  0  0  0  # atno 17371 bound_to 10713
  141.1624  133.8767  157.1810 LP  0  0  0  0  0  0  0  0  0  0  0  0  # atno 17394 bound_to 11000
  139.9950  135.0050  157.0061 LP  0  0  0  0  0  0  0  0  0  0  0  0  # atno 17395 bound_to 11000

$$$$
