AV-unprocessed.smi:2083|AV-procd|sdf|8504|dock1
  -GOLD-   2272011213D 1   1.00000     0.00000
 Structure written by MMmdl.
 44 45  0  0  0  0  0  0  0  0  3 V2000
  146.5284  135.6298  162.4780 C   0  0  0  0  0  0  0  0  0  0  0  0
  147.3995  135.8024  161.2807 C   0  0  0  0  0  0  0  0  0  0  0  0
  148.0807  134.9177  160.4938 C   0  0  0  0  0  0  0  0  0  0  0  0
  148.7008  135.7543  159.5259 C   0  0  0  0  0  0  0  0  0  0  0  0
  149.5035  135.3499  158.5294 N   0  5  0  0  0  0  0  0  0  0  0  0
  149.1933  135.6356  157.2445 C   0  0  0  0  0  0  0  0  0  0  0  0
  149.1198  136.7575  156.7384 O   0  0  0  0  0  0  0  0  0  0  0  0
  148.9531  134.5505  156.4974 N   0  0  0  0  0  0  0  0  0  0  0  0
  148.6066  134.5606  155.0812 C   0  0  0  0  0  0  0  0  0  0  0  0
  147.3539  135.4238  154.7997 C   0  0  2  0  0  0  0  0  0  0  0  0
  146.2402  135.0993  155.8260 C   0  0  0  0  0  0  0  0  0  0  0  0
  146.9365  135.2571  153.3684 N   0  3  2  0  0  0  0  0  0  0  0  0
  145.7947  136.1492  153.0177 C   0  0  0  0  0  0  0  0  0  0  0  0
  145.5029  136.1315  151.5104 C   0  0  0  0  0  0  0  0  0  0  0  0
  145.2106  134.7067  151.0323 C   0  0  0  0  0  0  0  0  0  0  0  0
  146.3768  133.7804  151.4069 C   0  0  2  0  0  0  0  0  0  0  0  0
  146.1091  132.3362  150.9593 C   0  0  0  0  0  0  0  0  0  0  0  0
  146.6691  133.8579  152.9204 C   0  0  0  0  0  0  0  0  0  0  0  0
  148.4331  137.0348  159.7184 N   0  0  0  0  0  0  0  0  0  0  0  0
  147.5935  137.0739  160.8380 O   0  0  0  0  0  0  0  0  0  0  0  0
  147.0698  135.1268  163.2792 H   0  0  0  0  0  0  0  0  0  0  0  0
  145.6521  135.0300  162.2328 H   0  0  0  0  0  0  0  0  0  0  0  0
  146.1835  136.5924  162.8564 H   0  0  0  0  0  0  0  0  0  0  0  0
  148.1261  133.8434  160.5922 H   0  0  0  0  0  0  0  0  0  0  0  0
  149.0220  133.6507  156.9504 H   0  0  0  0  0  0  0  0  0  0  0  0
  149.4774  134.9215  154.5351 H   0  0  0  0  0  0  0  0  0  0  0  0
  148.4276  133.5384  154.7425 H   0  0  0  0  0  0  0  0  0  0  0  0
  147.6144  136.4733  154.9493 H   0  0  0  0  0  0  0  0  0  0  0  0
  146.5879  135.2272  156.8512 H   0  0  0  0  0  0  0  0  0  0  0  0
  145.8950  134.0695  155.7291 H   0  0  0  0  0  0  0  0  0  0  0  0
  145.3811  135.7621  155.7224 H   0  0  0  0  0  0  0  0  0  0  0  0
  144.9073  135.8351  153.5699 H   0  0  0  0  0  0  0  0  0  0  0  0
  145.9954  137.1764  153.3175 H   0  0  0  0  0  0  0  0  0  0  0  0
  144.6533  136.7783  151.2889 H   0  0  0  0  0  0  0  0  0  0  0  0
  146.3544  136.5396  150.9645 H   0  0  0  0  0  0  0  0  0  0  0  0
  144.2857  134.3475  151.4860 H   0  0  0  0  0  0  0  0  0  0  0  0
  145.0524  134.7020  149.9534 H   0  0  0  0  0  0  0  0  0  0  0  0
  147.2646  134.1276  150.8757 H   0  0  0  0  0  0  0  0  0  0  0  0
  145.2339  131.9207  151.4601 H   0  0  0  0  0  0  0  0  0  0  0  0
  146.9586  131.6907  151.1837 H   0  0  0  0  0  0  0  0  0  0  0  0
  145.9331  132.2847  149.8844 H   0  0  0  0  0  0  0  0  0  0  0  0
  147.5359  133.2251  153.1077 H   0  0  0  0  0  0  0  0  0  0  0  0
  145.8355  133.4460  153.4918 H   0  0  0  0  0  0  0  0  0  0  0  0
  147.7259  135.5663  152.8191 H   0  0  0  0  0  0  0  0  0  0  0  0
  1  2  1  0  0  0  0
  1 21  1  0  0  0  0
  1 22  1  0  0  0  0
  1 23  1  0  0  0  0
  2 20  1  0  0  0  0
  2  3  2  0  0  0  0
  3  4  1  0  0  0  0
  3 24  1  0  0  0  0
  4  5  1  0  0  0  0
  4 19  2  0  0  0  0
  5  6  1  0  0  0  0
  6  7  2  0  0  0  0
  6  8  1  0  0  0  0
  8  9  1  0  0  0  0
  8 25  1  0  0  0  0
  9 10  1  0  0  0  0
  9 26  1  0  0  0  0
  9 27  1  0  0  0  0
 10 11  1  0  0  0  0
 10 12  1  0  0  0  0
 10 28  1  0  0  0  0
 11 29  1  0  0  0  0
 11 30  1  0  0  0  0
 11 31  1  0  0  0  0
 12 18  1  0  0  0  0
 12 13  1  0  0  0  0
 12 44  1  0  0  0  0
 13 14  1  0  0  0  0
 13 32  1  0  0  0  0
 13 33  1  0  0  0  0
 14 15  1  0  0  0  0
 14 34  1  0  0  0  0
 14 35  1  0  0  0  0
 15 16  1  0  0  0  0
 15 36  1  0  0  0  0
 15 37  1  0  0  0  0
 16 17  1  0  0  0  0
 16 18  1  0  0  0  0
 16 38  1  0  0  0  0
 17 39  1  0  0  0  0
 17 40  1  0  0  0  0
 17 41  1  0  0  0  0
 18 42  1  0  0  0  0
 18 43  1  0  0  0  0
 19 20  1  0  0  0  0
M  CHG  1   5  -1
M  CHG  1  12   1
M  END
> <s_m_source_file>
AV-unprocessed.smi

> <i_m_source_file_index>
2083

> <i_lp_mmshare_version>
43012

> <i_f3d_flags>
0

> <s_epik_input>
W0NIM11jMVtjSF1jKG5vMSlbTkhdQyg9TylbTkhdW0NIMl1bQ0BIXShbQ0gzXSlOMltDSDJdW0NIMl1bQ0gyXVtDQEBIXShbQ0gzXSlbQ0gyXTI=

> <s_epik_cmdline>
J2VwaWtfcHl0aG9uJywgJy1waCcsICc3LjAnLCAnLXRuJywgJzgnLCAnLW1hJywgJzIwMCcsICctbWV0YWxfYmluZGluZycsICctaW1hZScsICc8aW5maWxlLm1hZT4nLCAnLW9tYWUnLCAnPG91dGZpbGUubWFlPic=

> <r_epik_Ionization_Penalty>
6.22434

> <r_epik_Ionization_Penalty_Charging>
6.22425

> <r_epik_Ionization_Penalty_Neutral>
9.62407e-05

> <r_epik_State_Penalty>
6.22423

> <r_epik_Charging_Adjusted_Penalty>
12.4485

> <i_epik_Tot_Q>
0

> <i_epik_Tot_abs_Q>
2

> <r_epik_Metal_State_Penalty>
2.16764

> <b_epik_Metal_Only>
1

> <s_lp_Force_Field>
OPLS_2005

> <r_lp_Energy>
11.4066

> <b_lp_Chiralities_Consistent>
1

> <s_lp_Variant>
AV-unprocessed.smi:2083-15

> <Gold.Version>
5.8.1

> <Gold.Id.Protein>
6NUR|6NUR_protein|mol2

> <Gold.PLP.Fitness>
42.1108

> <Gold.PLP.PLP>
-27.7276

> <Gold.PLP.part.hbond>
-4.2671

> <Gold.PLP.part.metal>
0.0000

> <Gold.PLP.part.buried>
-3.9623

> <Gold.PLP.part.nonpolar>
-19.8205

> <Gold.PLP.part.repulsive>
0.0383

> <Gold.PLP.ligand.clash>
0.0000

> <Gold.PLP.ligand.torsion>
1.2434

> <Gold.PLP.Chemscore.Hbond>
5.5520

> <Gold.PLP.Chemscore.CHOScore>
0.0000

> <Gold.PLP.Chemscore.Metal>
0.0000

> <Gold.Chemscore.Hbonds>
donor molecule, donor type, donor heavy atom, donor atom, acceptor molecule, acceptor atom, score
      L1  H    12    44       P1  7948  2.00
      P1  H  6896  6908       L1     5  2.00
      P1  H  6931  6943       L1    20  0.32
      P1  H  6934  6947       L1    20  0.98

> <Gold.PLP.Chemscore.Internal.Correction>
0.2140

> <Gold.Rescore>
     Score         DG    S(hbond)    S(metal)    S(lipo)     H(rot)  DE(clash)    DE(int)     intcor
     15.81     -17.90       2.84        0.00      58.34       1.52       0.07       2.02       ----

> <Gold.Chemscore.Fitness>
15.8112

> <Gold.Chemscore.DG>
-17.8957

> <Gold.Chemscore.ZeroCoef>
-5.4800

> <Gold.Chemscore.Hbond>
2.8378

> <Gold.Chemscore.Metal>
0.0000

> <Gold.Chemscore.Lipo>
58.3428

> <Gold.Chemscore.Internal_Hbond>
0.0000

> <Gold.Chemscore.DEClash>
0.0663

> <Gold.Chemscore.DEInternal>
2.0182

> <Gold.Chemscore.Rot>
1.5190

> <Gold.Chemscore.Internal.Correction>
   9.000000E+99

> <Gold.Chemscore.Hbonds>
donor molecule, donor type, donor heavy atom, donor atom, acceptor molecule, acceptor atom, score
      L1  H    12    44       P1  7948  1.00
      P1  H  6896  6908       L1     5  0.29
      P1  H  6931  6943       L1    20  0.01
      P1  H  6934  6947       L1    20  0.27

> <Gold.Chemscore.Hbond.Weighted>
-9.4783

> <Gold.Chemscore.Metal.Weighted>
-0.0000

> <Gold.Chemscore.Lipo.Weighted>
-6.8261

> <Gold.Chemscore.Internal_Hbond.Weighted>
0.0000

> <Gold.Chemscore.DEClash.Weighted>
0.0663

> <Gold.Chemscore.DEInternal.Weighted>
2.0182

> <Gold.Chemscore.Rot.Weighted>
3.8886

> <Gold.Chemscore.Internal.Correction.Weighted>
   9.000000E+99

> <Gold.Protein.RotatedTorsions>
[ 6907 6896 6895 6894 ] final  149.53 input  -60.11 | X-H torsion
[ 7974 7965 7964 7962 ] final  152.04 input  175.53 | X-H torsion
[ 8008 7997 7996 7995 ] final -170.79 input   59.86 | X-H torsion
[ 10167 10162 10161 10158 ] final   19.86 input  -65.29 | X-H torsion
[ 10718 10713 10712 10709 ] final -160.28 input   66.30 | X-H torsion
[ 10763 10752 10751 10750 ] final  148.14 input  -60.55 | X-H torsion
[ 11005 11000 10999 10996 ] final  112.86 input  -57.11 | X-H torsion

> <Gold.Protein.ActiveResidues>
 VAL166  LYS551  ARG553  GLY616  TRP617  ASP618  TYR619  PRO620  LYS621  CYS622 
 ASP623  PHE694  ASN695  SER759  ASP760  ASP761  ALA762  ILE779  LEU786  VAL792 
 PHE793  MET794  SER795  GLU796  ALA797  LYS798  CYS799  TRP800  GLU811  SER814 

> <Gold.Protein.RotatedAtoms>
  152.1267  133.4384  159.4700 H   0  0  0  0  0  0  0  0  0  0  0  0  # atno 6907 bound_to 6896
  150.6875  134.2470  159.4504 H   0  0  0  0  0  0  0  0  0  0  0  0  # atno 6908 bound_to 6896
  152.0351  134.9744  160.0624 H   0  0  0  0  0  0  0  0  0  0  0  0  # atno 6909 bound_to 6896
  144.8250  139.6616  143.6084 H   0  0  0  0  0  0  0  0  0  0  0  0  # atno 7974 bound_to 7965
  155.9231  140.1077  157.1191 H   0  0  0  0  0  0  0  0  0  0  0  0  # atno 8008 bound_to 7997
  154.4057  140.1252  156.4770 H   0  0  0  0  0  0  0  0  0  0  0  0  # atno 8009 bound_to 7997
  155.7172  140.3470  155.5002 H   0  0  0  0  0  0  0  0  0  0  0  0  # atno 8010 bound_to 7997
  140.5547  143.9446  150.6601 H   0  0  0  0  0  0  0  0  0  0  0  0  # atno 10167 bound_to 10162
  156.5799  130.8725  151.2861 H   0  0  0  0  0  0  0  0  0  0  0  0  # atno 10718 bound_to 10713
  154.0499  135.2882  155.3342 H   0  0  0  0  0  0  0  0  0  0  0  0  # atno 10763 bound_to 10752
  154.6876  135.5239  153.8351 H   0  0  0  0  0  0  0  0  0  0  0  0  # atno 10764 bound_to 10752
  153.0565  135.6597  154.0696 H   0  0  0  0  0  0  0  0  0  0  0  0  # atno 10765 bound_to 10752
  139.8938  134.9538  156.6651 H   0  0  0  0  0  0  0  0  0  0  0  0  # atno 11005 bound_to 11000
  146.2556  139.6294  142.9397 LP  0  0  0  0  0  0  0  0  0  0  0  0  # atno 17320 bound_to 7965
  145.5020  141.0437  143.2535 LP  0  0  0  0  0  0  0  0  0  0  0  0  # atno 17321 bound_to 7965
  140.2881  143.3343  152.1088 LP  0  0  0  0  0  0  0  0  0  0  0  0  # atno 17342 bound_to 10162
  139.5043  144.6772  151.6099 LP  0  0  0  0  0  0  0  0  0  0  0  0  # atno 17343 bound_to 10162
  157.7329  130.9722  150.1950 LP  0  0  0  0  0  0  0  0  0  0  0  0  # atno 17370 bound_to 10713
  156.2641  130.3714  149.8100 LP  0  0  0  0  0  0  0  0  0  0  0  0  # atno 17371 bound_to 10713
  140.7417  133.8972  155.8282 LP  0  0  0  0  0  0  0  0  0  0  0  0  # atno 17394 bound_to 11000
  141.0072  134.1069  157.4258 LP  0  0  0  0  0  0  0  0  0  0  0  0  # atno 17395 bound_to 11000

$$$$
