AV-unprocessed.smi:102|AV-procd|sdf|956|dock2
  -GOLD-   2262017493D 1   1.00000     0.00000
 Structure written by MMmdl.
 44 45  0  0  0  0  0  0  0  0  1 V2000
  147.2316  134.1162  161.6938 C   0  0  0  0  0  0  0  0  0  0  0  0
  147.8480  133.1654  160.6764 C   0  0  0  0  0  0  0  0  0  0  0  0
  148.1305  132.0038  160.9719 O   0  0  0  0  0  0  0  0  0  0  0  0
  148.0277  133.7452  159.4755 O   0  0  0  0  0  0  0  0  0  0  0  0
  148.6009  133.0124  158.4013 C   0  0  0  0  0  0  0  0  0  0  0  0
  148.5126  133.8013  157.0808 C   0  0  1  0  0  0  0  0  0  0  0  0
  149.2239  135.0268  157.1927 O   0  0  0  0  0  0  0  0  0  0  0  0
  150.5478  134.8128  156.8302 C   0  0  2  0  0  0  0  0  0  0  0  0
  151.1355  136.1071  156.3310 N   0  0  0  0  0  0  0  0  0  0  0  0
  150.5580  136.7943  155.2722 C   0  0  0  0  0  0  0  0  0  0  0  0
  151.0642  137.9513  154.7840 C   0  0  0  0  0  0  0  0  0  0  0  0
  150.4519  138.5617  153.7553 F   0  0  0  0  0  0  0  0  0  0  0  0
  152.2736  138.5354  155.3575 C   0  0  0  0  0  0  0  0  0  0  0  0
  152.8047  139.5807  154.9878 O   0  0  0  0  0  0  0  0  0  0  0  0
  152.8316  137.7960  156.4052 N   0  0  0  0  0  0  0  0  0  0  0  0
  152.3228  136.5997  156.9146 C   0  0  0  0  0  0  0  0  0  0  0  0
  152.9106  136.0189  157.8260 O   0  0  0  0  0  0  0  0  0  0  0  0
  150.5407  133.7627  155.7212 C   0  0  1  0  0  0  0  0  0  0  0  0
  151.6340  132.8700  155.8832 O   0  0  0  0  0  0  0  0  0  0  0  0
  151.7866  132.1961  157.0342 C   0  0  0  0  0  0  0  0  0  0  0  0
  152.6805  130.9738  156.8755 C   0  0  0  0  0  0  0  0  0  0  0  0
  151.2875  132.4931  158.1197 O   0  0  0  0  0  0  0  0  0  0  0  0
  149.2010  133.0585  155.9223 C   0  0  2  0  0  0  0  0  0  0  0  0
  148.4451  133.1464  154.7210 O   0  0  0  0  0  0  0  0  0  0  0  0
  148.8666  132.5226  153.6070 C   0  0  0  0  0  0  0  0  0  0  0  0
  147.9706  132.8069  152.4091 C   0  0  0  0  0  0  0  0  0  0  0  0
  149.8515  131.7898  153.5149 O   0  0  0  0  0  0  0  0  0  0  0  0
  153.6773  138.1552  156.8242 H   0  0  0  0  0  0  0  0  0  0  0  0
  146.1913  134.3186  161.4393 H   0  0  0  0  0  0  0  0  0  0  0  0
  147.7753  135.0610  161.7104 H   0  0  0  0  0  0  0  0  0  0  0  0
  147.2651  133.6815  162.6931 H   0  0  0  0  0  0  0  0  0  0  0  0
  149.6246  132.7058  158.6210 H   0  0  0  0  0  0  0  0  0  0  0  0
  148.0222  132.0938  158.3029 H   0  0  0  0  0  0  0  0  0  0  0  0
  147.4651  134.0042  156.8544 H   0  0  0  0  0  0  0  0  0  0  0  0
  151.0999  134.5146  157.7244 H   0  0  0  0  0  0  0  0  0  0  0  0
  149.6700  136.3948  154.8036 H   0  0  0  0  0  0  0  0  0  0  0  0
  150.5703  134.2740  154.7569 H   0  0  0  0  0  0  0  0  0  0  0  0
  152.2932  130.3196  156.0941 H   0  0  0  0  0  0  0  0  0  0  0  0
  152.7270  130.4095  157.8070 H   0  0  0  0  0  0  0  0  0  0  0  0
  153.6917  131.2776  156.6047 H   0  0  0  0  0  0  0  0  0  0  0  0
  149.3653  132.0114  156.1830 H   0  0  0  0  0  0  0  0  0  0  0  0
  147.8971  133.8806  152.2359 H   0  0  0  0  0  0  0  0  0  0  0  0
  146.9690  132.4143  152.5851 H   0  0  0  0  0  0  0  0  0  0  0  0
  148.3724  132.3384  151.5104 H   0  0  0  0  0  0  0  0  0  0  0  0
  1  2  1  0  0  0  0
  1 29  1  0  0  0  0
  1 30  1  0  0  0  0
  1 31  1  0  0  0  0
  2  3  2  0  0  0  0
  2  4  1  0  0  0  0
  4  5  1  0  0  0  0
  5  6  1  0  0  0  0
  5 32  1  0  0  0  0
  5 33  1  0  0  0  0
  6 23  1  0  0  0  0
  6  7  1  0  0  0  0
  6 34  1  0  0  0  0
  7  8  1  0  0  0  0
  8  9  1  0  0  0  0
  8 18  1  0  0  0  0
  8 35  1  0  0  0  0
  9 16  1  0  0  0  0
  9 10  1  0  0  0  0
 10 11  2  0  0  0  0
 10 36  1  0  0  0  0
 11 12  1  0  0  0  0
 11 13  1  0  0  0  0
 13 14  2  0  0  0  0
 13 15  1  0  0  0  0
 15 28  1  0  0  0  0
 15 16  1  0  0  0  0
 16 17  2  0  0  0  0
 18 19  1  0  0  0  0
 18 23  1  0  0  0  0
 18 37  1  0  0  0  0
 19 20  1  0  0  0  0
 20 21  1  0  0  0  0
 20 22  2  0  0  0  0
 21 38  1  0  0  0  0
 21 39  1  0  0  0  0
 21 40  1  0  0  0  0
 23 24  1  0  0  0  0
 23 41  1  0  0  0  0
 24 25  1  0  0  0  0
 25 26  1  0  0  0  0
 25 27  2  0  0  0  0
 26 42  1  0  0  0  0
 26 43  1  0  0  0  0
 26 44  1  0  0  0  0
M  END
> <s_m_source_file>
AV-unprocessed.smi

> <i_m_source_file_index>
102

> <i_lp_mmshare_version>
43012

> <i_f3d_flags>
0

> <s_epik_input>
W0NIM11DKD1PKU9bQ0gyXVtDQEBIXTFPW0NASF0oW0NAQEhdKE9DKD1PKVtDSDNdKVtDQEhdMU9DKD1PKVtDSDNdKW4yW2NIXWMoRiljKD1PKVtuSF1jMj1P

> <s_epik_cmdline>
J2VwaWtfcHl0aG9uJywgJy1waCcsICc3LjAnLCAnLXRuJywgJzgnLCAnLW1hJywgJzIwMCcsICctbWV0YWxfYmluZGluZycsICctaW1hZScsICc8aW5maWxlLm1hZT4nLCAnLW9tYWUnLCAnPG91dGZpbGUubWFlPic=

> <r_lp_tautomer_probability>
0.999537

> <r_epik_Ionization_Penalty>
0.058267

> <r_epik_Ionization_Penalty_Charging>
0.058267

> <r_epik_Ionization_Penalty_Neutral>
6.57791e-16

> <r_epik_State_Penalty>
0.0503774

> <r_epik_Charging_Adjusted_Penalty>
0.108644

> <i_epik_Tot_Q>
0

> <i_epik_Tot_abs_Q>
0

> <r_epik_Metal_State_Penalty>
2.6644

> <b_epik_Metal_Only>
0

> <s_epik_Chemistry_Notes>
This compound has an ester and may undergo hydrolysis at high or low pH. This compound contains an acetal/aminal-like group ( X-CH(R)-Y where X, Y are N, S, or O) that may be acid/base labile, releasing an aldehyde.

> <s_lp_Force_Field>
OPLS_2005

> <r_lp_Energy>
12.7651

> <b_lp_Chiralities_Consistent>
1

> <s_lp_Variant>
AV-unprocessed.smi:102-12

> <Gold.Version>
5.8.1

> <Gold.Id.Protein>
6NUR|6NUR_protein|mol2

> <Gold.PLP.Fitness>
38.8602

> <Gold.PLP.PLP>
-32.6303

> <Gold.PLP.part.hbond>
-3.6414

> <Gold.PLP.part.metal>
0.0000

> <Gold.PLP.part.buried>
-3.9820

> <Gold.PLP.part.nonpolar>
-24.5477

> <Gold.PLP.part.repulsive>
0.3532

> <Gold.PLP.ligand.clash>
0.0000

> <Gold.PLP.ligand.torsion>
0.3522

> <Gold.PLP.Chemscore.Hbond>
2.2660

> <Gold.PLP.Chemscore.CHOScore>
0.0000

> <Gold.PLP.Chemscore.Metal>
0.0000

> <Gold.Chemscore.Hbonds>
donor molecule, donor type, donor heavy atom, donor atom, acceptor molecule, acceptor atom, score
      P1  H  6896  6908       L1    22  0.67
      P1  H  7989  7998       L1    14  0.22
      P1  H  7997  8010       L1    14  1.00

> <Gold.PLP.Chemscore.Internal.Correction>
0.1363

> <Gold.Rescore>
     Score         DG    S(hbond)    S(metal)    S(lipo)     H(rot)  DE(clash)    DE(int)     intcor
      3.78      -7.35       2.22        0.00      41.36       4.05       0.16       3.41       ----

> <Gold.Chemscore.Fitness>
3.7804

> <Gold.Chemscore.DG>
-7.3481

> <Gold.Chemscore.ZeroCoef>
-5.4800

> <Gold.Chemscore.Hbond>
2.2162

> <Gold.Chemscore.Metal>
0.0000

> <Gold.Chemscore.Lipo>
41.3609

> <Gold.Chemscore.Internal_Hbond>
0.0000

> <Gold.Chemscore.DEClash>
0.1602

> <Gold.Chemscore.DEInternal>
3.4075

> <Gold.Chemscore.Rot>
4.0520

> <Gold.Chemscore.Internal.Correction>
   9.000000E+99

> <Gold.Chemscore.Hbonds>
donor molecule, donor type, donor heavy atom, donor atom, acceptor molecule, acceptor atom, score
      P1  H  6896  6908       L1    22  0.67
      P1  H  7989  7998       L1    14  0.22
      P1  H  7997  8010       L1    14  0.94

> <Gold.Chemscore.Hbond.Weighted>
-7.4020

> <Gold.Chemscore.Metal.Weighted>
-0.0000

> <Gold.Chemscore.Lipo.Weighted>
-4.8392

> <Gold.Chemscore.Internal_Hbond.Weighted>
0.0000

> <Gold.Chemscore.DEClash.Weighted>
0.1602

> <Gold.Chemscore.DEInternal.Weighted>
3.4075

> <Gold.Chemscore.Rot.Weighted>
10.3732

> <Gold.Chemscore.Internal.Correction.Weighted>
   9.000000E+99

> <Gold.Protein.RotatedTorsions>
[ 6907 6896 6895 6894 ] final   68.23 input  -60.11 | X-H torsion
[ 7974 7965 7964 7962 ] final  159.50 input  175.53 | X-H torsion
[ 8008 7997 7996 7995 ] final  101.49 input   59.86 | X-H torsion
[ 10167 10162 10161 10158 ] final -177.66 input  -65.29 | X-H torsion
[ 10718 10713 10712 10709 ] final   17.11 input   66.30 | X-H torsion
[ 10763 10752 10751 10750 ] final  -54.36 input  -60.55 | X-H torsion
[ 11005 11000 10999 10996 ] final -124.36 input  -57.11 | X-H torsion

> <Gold.Protein.ActiveResidues>
 VAL166  LYS551  ARG553  GLY616  TRP617  ASP618  TYR619  PRO620  LYS621  CYS622 
 ASP623  PHE694  ASN695  SER759  ASP760  ASP761  ALA762  ILE779  LEU786  VAL792 
 PHE793  MET794  SER795  GLU796  ALA797  LYS798  CYS799  TRP800  GLU811  SER814 

> <Gold.Protein.RotatedAtoms>
  152.4606  134.5192  159.9777 H   0  0  0  0  0  0  0  0  0  0  0  0  # atno 6907 bound_to 6896
  151.5242  133.3455  159.2914 H   0  0  0  0  0  0  0  0  0  0  0  0  # atno 6908 bound_to 6896
  150.8568  134.7939  159.7114 H   0  0  0  0  0  0  0  0  0  0  0  0  # atno 6909 bound_to 6896
  144.7787  139.7626  143.6268 H   0  0  0  0  0  0  0  0  0  0  0  0  # atno 7974 bound_to 7965
  156.1304  140.3196  155.8340 H   0  0  0  0  0  0  0  0  0  0  0  0  # atno 8008 bound_to 7997
  155.4343  140.0521  157.3033 H   0  0  0  0  0  0  0  0  0  0  0  0  # atno 8009 bound_to 7997
  154.4895  140.2086  155.9594 H   0  0  0  0  0  0  0  0  0  0  0  0  # atno 8010 bound_to 7997
  139.5469  144.2211  152.1005 H   0  0  0  0  0  0  0  0  0  0  0  0  # atno 10167 bound_to 10162
  157.0774  130.6373  149.5819 H   0  0  0  0  0  0  0  0  0  0  0  0  # atno 10718 bound_to 10713
  154.1736  135.6455  153.5016 H   0  0  0  0  0  0  0  0  0  0  0  0  # atno 10763 bound_to 10752
  153.0078  135.5389  154.6587 H   0  0  0  0  0  0  0  0  0  0  0  0  # atno 10764 bound_to 10752
  154.5933  135.2936  155.0585 H   0  0  0  0  0  0  0  0  0  0  0  0  # atno 10765 bound_to 10752
  140.9847  134.0623  157.3724 H   0  0  0  0  0  0  0  0  0  0  0  0  # atno 11005 bound_to 11000
  146.1982  139.5261  142.9760 LP  0  0  0  0  0  0  0  0  0  0  0  0  # atno 17320 bound_to 7965
  145.6112  141.0339  143.1965 LP  0  0  0  0  0  0  0  0  0  0  0  0  # atno 17321 bound_to 7965
  140.1699  144.4945  150.6585 LP  0  0  0  0  0  0  0  0  0  0  0  0  # atno 17342 bound_to 10162
  140.6720  143.2290  151.5601 LP  0  0  0  0  0  0  0  0  0  0  0  0  # atno 17343 bound_to 10162
  155.9933  130.4994  150.7375 LP  0  0  0  0  0  0  0  0  0  0  0  0  # atno 17370 bound_to 10713
  157.4828  131.0904  151.0516 LP  0  0  0  0  0  0  0  0  0  0  0  0  # atno 17371 bound_to 10713
  139.8965  135.0146  156.7057 LP  0  0  0  0  0  0  0  0  0  0  0  0  # atno 17394 bound_to 11000
  140.7132  133.9205  155.8098 LP  0  0  0  0  0  0  0  0  0  0  0  0  # atno 17395 bound_to 11000

$$$$
