AV-unprocessed.smi:1230|AV-procd|sdf|5152|dock8
  -GOLD-   22720 4223D 1   1.00000     0.00000
 Structure written by MMmdl.
 38 39  0  0  0  0  0  0  0  0  2 V2000
  150.9808  144.9090  159.7937 C   0  0  0  0  0  0  0  0  0  0  0  0
  151.6030  143.5674  160.2138 C   0  0  2  0  0  0  0  0  0  0  0  0
  152.2714  143.6879  161.5983 C   0  0  0  0  0  0  0  0  0  0  0  0
  152.9089  142.3623  162.0415 C   0  0  0  0  0  0  0  0  0  0  0  0
  153.9174  141.8606  160.9990 C   0  0  0  0  0  0  0  0  0  0  0  0
  153.2587  141.7256  159.6188 C   0  0  0  0  0  0  0  0  0  0  0  0
  152.6128  143.0519  159.1638 C   0  0  1  0  0  0  0  0  0  0  0  0
  151.9093  142.8211  157.9517 O   0  0  0  0  0  0  0  0  0  0  0  0
  151.0638  141.6803  157.9723 C   0  0  0  0  0  0  0  0  0  0  0  0
  150.8486  141.2008  156.5295 C   0  0  0  0  0  0  0  0  0  0  0  0
  151.0398  139.7477  156.4225 N   0  0  0  0  0  0  0  0  0  0  0  0
  150.3005  138.9307  157.2946 C   0  0  0  0  0  0  0  0  0  0  0  0
  150.4327  137.5910  157.2901 C   0  0  0  0  0  0  0  0  0  0  0  0
  149.7026  136.7411  158.1721 C   0  0  0  0  0  0  0  0  0  0  0  0
  149.1347  136.0315  158.8895 N   0  0  0  0  0  0  0  0  0  0  0  0
  151.3694  136.9832  156.3481 C   0  0  0  0  0  0  0  0  0  0  0  0
  151.5055  135.7608  156.3170 O   0  0  0  0  0  0  0  0  0  0  0  0
  152.0663  137.8245  155.5286 N   0  5  0  0  0  0  0  0  0  0  0  0
  151.9293  139.1873  155.5488 C   0  0  0  0  0  0  0  0  0  0  0  0
  152.5823  139.9247  154.8101 O   0  0  0  0  0  0  0  0  0  0  0  0
  151.7421  145.6818  159.6841 H   0  0  0  0  0  0  0  0  0  0  0  0
  150.2593  145.2556  160.5338 H   0  0  0  0  0  0  0  0  0  0  0  0
  150.4554  144.8226  158.8423 H   0  0  0  0  0  0  0  0  0  0  0  0
  150.7959  142.8374  160.2944 H   0  0  0  0  0  0  0  0  0  0  0  0
  153.0362  144.4654  161.5717 H   0  0  0  0  0  0  0  0  0  0  0  0
  151.5374  144.0037  162.3405 H   0  0  0  0  0  0  0  0  0  0  0  0
  153.4027  142.4899  163.0051 H   0  0  0  0  0  0  0  0  0  0  0  0
  152.1307  141.6124  162.1886 H   0  0  0  0  0  0  0  0  0  0  0  0
  154.7585  142.5524  160.9379 H   0  0  0  0  0  0  0  0  0  0  0  0
  154.3275  140.8994  161.3103 H   0  0  0  0  0  0  0  0  0  0  0  0
  154.0023  141.3911  158.8957 H   0  0  0  0  0  0  0  0  0  0  0  0
  152.4980  140.9447  159.6556 H   0  0  0  0  0  0  0  0  0  0  0  0
  153.3839  143.8114  159.0178 H   0  0  0  0  0  0  0  0  0  0  0  0
  151.5390  140.8974  158.5644 H   0  0  0  0  0  0  0  0  0  0  0  0
  150.1032  141.8965  158.4408 H   0  0  0  0  0  0  0  0  0  0  0  0
  149.8507  141.4823  156.1902 H   0  0  0  0  0  0  0  0  0  0  0  0
  151.5344  141.7229  155.8608 H   0  0  0  0  0  0  0  0  0  0  0  0
  149.6377  139.4567  157.9663 H   0  0  0  0  0  0  0  0  0  0  0  0
  1  2  1  0  0  0  0
  1 21  1  0  0  0  0
  1 22  1  0  0  0  0
  1 23  1  0  0  0  0
  2  7  1  0  0  0  0
  2  3  1  0  0  0  0
  2 24  1  0  0  0  0
  3  4  1  0  0  0  0
  3 25  1  0  0  0  0
  3 26  1  0  0  0  0
  4  5  1  0  0  0  0
  4 27  1  0  0  0  0
  4 28  1  0  0  0  0
  5  6  1  0  0  0  0
  5 29  1  0  0  0  0
  5 30  1  0  0  0  0
  6  7  1  0  0  0  0
  6 31  1  0  0  0  0
  6 32  1  0  0  0  0
  7  8  1  0  0  0  0
  7 33  1  0  0  0  0
  8  9  1  0  0  0  0
  9 10  1  0  0  0  0
  9 34  1  0  0  0  0
  9 35  1  0  0  0  0
 10 11  1  0  0  0  0
 10 36  1  0  0  0  0
 10 37  1  0  0  0  0
 11 19  1  0  0  0  0
 11 12  1  0  0  0  0
 12 13  2  0  0  0  0
 12 38  1  0  0  0  0
 13 14  1  0  0  0  0
 13 16  1  0  0  0  0
 14 15  3  0  0  0  0
 16 17  2  0  0  0  0
 16 18  1  0  0  0  0
 18 19  1  0  0  0  0
 19 20  2  0  0  0  0
M  CHG  1  18  -1
M  END
> <s_m_source_file>
AV-unprocessed.smi

> <i_m_source_file_index>
1230

> <i_lp_mmshare_version>
43012

> <i_f3d_flags>
0

> <s_epik_input>
W0NIM11bQ0BASF0xW0NIMl1bQ0gyXVtDSDJdW0NIMl1bQ0BIXTFPW0NIMl1bQ0gyXW4yW2NIXWMoQyNOKWMoPU8pW25IXWMyPU8=

> <s_epik_cmdline>
J2VwaWtfcHl0aG9uJywgJy1waCcsICc3LjAnLCAnLXRuJywgJzgnLCAnLW1hJywgJzIwMCcsICctbWV0YWxfYmluZGluZycsICctaW1hZScsICc8aW5maWxlLm1hZT4nLCAnLW9tYWUnLCAnPG91dGZpbGUubWFlPic=

> <r_epik_Ionization_Penalty>
0.400014

> <r_epik_Ionization_Penalty_Charging>
4.81474e-10

> <r_epik_Ionization_Penalty_Neutral>
0.400014

> <r_epik_State_Penalty>
0.399305

> <r_epik_Charging_Adjusted_Penalty>
0.399305

> <i_epik_Tot_Q>
-1

> <i_epik_Tot_abs_Q>
1

> <r_epik_Metal_State_Penalty>
0.00056968

> <b_epik_Metal_Only>
0

> <s_lp_Force_Field>
OPLS_2005

> <r_lp_Energy>
24.1099

> <b_lp_Chiralities_Consistent>
1

> <s_lp_Variant>
AV-unprocessed.smi:1230-1

> <Gold.Version>
5.8.1

> <Gold.Id.Protein>
6NUR|6NUR_protein|mol2

> <Gold.PLP.Fitness>
50.1758

> <Gold.PLP.PLP>
-41.1685

> <Gold.PLP.part.hbond>
-4.3370

> <Gold.PLP.part.metal>
0.0000

> <Gold.PLP.part.buried>
-3.1836

> <Gold.PLP.part.nonpolar>
-33.1819

> <Gold.PLP.part.repulsive>
0.0783

> <Gold.PLP.ligand.clash>
0.2126

> <Gold.PLP.ligand.torsion>
0.5665

> <Gold.PLP.Chemscore.Hbond>
3.4480

> <Gold.PLP.Chemscore.CHOScore>
0.0000

> <Gold.PLP.Chemscore.Metal>
0.0000

> <Gold.Chemscore.Hbonds>
donor molecule, donor type, donor heavy atom, donor atom, acceptor molecule, acceptor atom, score
      P1  H  6896  6907       L1    15  0.60
      P1  H  7989  7998       L1    20  0.53
      P1  H  7997  8008       L1    20  0.65
      P1  H 10752 10763       L1    17  0.88

> <Gold.PLP.Chemscore.Internal.Correction>
0.0088

> <Gold.Rescore>
     Score         DG    S(hbond)    S(metal)    S(lipo)     H(rot)  DE(clash)    DE(int)     intcor
     19.01     -19.63       2.37        0.00      94.78       1.90       0.03       0.58       ----

> <Gold.Chemscore.Fitness>
19.0145

> <Gold.Chemscore.DG>
-19.6310

> <Gold.Chemscore.ZeroCoef>
-5.4800

> <Gold.Chemscore.Hbond>
2.3717

> <Gold.Chemscore.Metal>
0.0000

> <Gold.Chemscore.Lipo>
94.7809

> <Gold.Chemscore.Internal_Hbond>
0.0000

> <Gold.Chemscore.DEClash>
0.0333

> <Gold.Chemscore.DEInternal>
0.5832

> <Gold.Chemscore.Rot>
1.8984

> <Gold.Chemscore.Internal.Correction>
   9.000000E+99

> <Gold.Chemscore.Hbonds>
donor molecule, donor type, donor heavy atom, donor atom, acceptor molecule, acceptor atom, score
      P1  H  6896  6907       L1    15  0.21
      P1  H  7989  7998       L1    20  0.50
      P1  H  7997  8008       L1    20  0.26
      P1  H 10752 10763       L1    17  0.38

> <Gold.Chemscore.Hbond.Weighted>
-7.9215

> <Gold.Chemscore.Metal.Weighted>
-0.0000

> <Gold.Chemscore.Lipo.Weighted>
-11.0894

> <Gold.Chemscore.Internal_Hbond.Weighted>
0.0000

> <Gold.Chemscore.DEClash.Weighted>
0.0333

> <Gold.Chemscore.DEInternal.Weighted>
0.5832

> <Gold.Chemscore.Rot.Weighted>
4.8598

> <Gold.Chemscore.Internal.Correction.Weighted>
   9.000000E+99

> <Gold.Protein.RotatedTorsions>
[ 6907 6896 6895 6894 ] final  -60.67 input  -60.11 | X-H torsion
[ 7974 7965 7964 7962 ] final   -9.40 input  175.53 | X-H torsion
[ 8008 7997 7996 7995 ] final  -16.92 input   59.86 | X-H torsion
[ 10167 10162 10161 10158 ] final  -72.91 input  -65.29 | X-H torsion
[ 10718 10713 10712 10709 ] final -100.18 input   66.30 | X-H torsion
[ 10763 10752 10751 10750 ] final   85.99 input  -60.55 | X-H torsion
[ 11005 11000 10999 10996 ] final  139.14 input  -57.11 | X-H torsion

> <Gold.Protein.ActiveResidues>
 VAL166  LYS551  ARG553  GLY616  TRP617  ASP618  TYR619  PRO620  LYS621  CYS622 
 ASP623  PHE694  ASN695  SER759  ASP760  ASP761  ALA762  ILE779  LEU786  VAL792 
 PHE793  MET794  SER795  GLU796  ALA797  LYS798  CYS799  TRP800  GLU811  SER814 

> <Gold.Protein.RotatedAtoms>
  150.7839  134.6806  159.6441 H   0  0  0  0  0  0  0  0  0  0  0  0  # atno 6907 bound_to 6896
  152.3930  134.6407  160.0109 H   0  0  0  0  0  0  0  0  0  0  0  0  # atno 6908 bound_to 6896
  151.6701  133.3277  159.3231 H   0  0  0  0  0  0  0  0  0  0  0  0  # atno 6909 bound_to 6896
  146.2252  140.2611  142.8352 H   0  0  0  0  0  0  0  0  0  0  0  0  # atno 7974 bound_to 7965
  154.5017  140.2156  155.9334 H   0  0  0  0  0  0  0  0  0  0  0  0  # atno 8008 bound_to 7997
  156.1442  140.3174  155.8511 H   0  0  0  0  0  0  0  0  0  0  0  0  # atno 8009 bound_to 7997
  155.4063  140.0487  157.3025 H   0  0  0  0  0  0  0  0  0  0  0  0  # atno 8010 bound_to 7997
  140.5154  143.2339  151.7522 H   0  0  0  0  0  0  0  0  0  0  0  0  # atno 10167 bound_to 10162
  156.0155  130.5316  150.6779 H   0  0  0  0  0  0  0  0  0  0  0  0  # atno 10718 bound_to 10713
  153.1527  135.4597  154.9660 H   0  0  0  0  0  0  0  0  0  0  0  0  # atno 10763 bound_to 10752
  154.7837  135.3197  154.7935 H   0  0  0  0  0  0  0  0  0  0  0  0  # atno 10764 bound_to 10752
  153.8438  135.6927  153.4854 H   0  0  0  0  0  0  0  0  0  0  0  0  # atno 10765 bound_to 10752
  140.0234  134.9386  157.0519 H   0  0  0  0  0  0  0  0  0  0  0  0  # atno 11005 bound_to 11000
  144.9339  140.8005  143.5672 LP  0  0  0  0  0  0  0  0  0  0  0  0  # atno 17320 bound_to 7965
  145.2557  139.2013  143.4919 LP  0  0  0  0  0  0  0  0  0  0  0  0  # atno 17321 bound_to 7965
  139.4908  144.4331  151.9849 LP  0  0  0  0  0  0  0  0  0  0  0  0  # atno 17342 bound_to 10162
  140.3425  144.3186  150.5964 LP  0  0  0  0  0  0  0  0  0  0  0  0  # atno 17343 bound_to 10162
  157.4488  131.0870  151.0868 LP  0  0  0  0  0  0  0  0  0  0  0  0  # atno 17370 bound_to 10713
  157.1389  130.6134  149.5550 LP  0  0  0  0  0  0  0  0  0  0  0  0  # atno 17371 bound_to 10713
  140.4349  134.1742  155.7170 LP  0  0  0  0  0  0  0  0  0  0  0  0  # atno 17394 bound_to 11000
  141.1788  133.8459  157.1331 LP  0  0  0  0  0  0  0  0  0  0  0  0  # atno 17395 bound_to 11000

$$$$
