AV-unprocessed.smi:1007|AV-procd|sdf|4409|dock2
  -GOLD-   22720 2353D 1   1.00000     0.00000
 Structure written by MMmdl.
 57 59  0  0  0  0  0  0  0  0  3 V2000
  142.6619  139.2982  156.7002 C   0  0  0  0  0  0  0  0  0  0  0  0
  142.4539  140.2666  157.7137 O   0  0  0  0  0  0  0  0  0  0  0  0
  143.5866  141.0954  157.9143 C   0  0  0  0  0  0  0  0  0  0  0  0
  143.9059  141.8228  156.5993 C   0  0  0  0  0  0  0  0  0  0  0  0
  144.9532  142.8653  156.7704 N   0  3  2  0  0  0  0  0  0  0  0  0
  145.2463  143.6603  155.5487 C   0  0  0  0  0  0  0  0  0  0  0  0
  146.1132  142.8812  154.5375 C   0  0  0  0  0  0  0  0  0  0  0  0
  147.3544  142.3617  155.1699 N   0  3  2  0  0  0  0  0  0  0  0  0
  148.2483  141.6478  154.2211 C   0  0  0  0  0  0  0  0  0  0  0  0
  149.4120  140.9297  154.9321 C   0  0  1  0  0  0  0  0  0  0  0  0
  150.1077  140.1441  153.9826 O   0  0  0  0  0  0  0  0  0  0  0  0
  150.3859  141.9272  155.5889 C   0  0  0  0  0  0  0  0  0  0  0  0
  151.2732  141.2901  156.5456 N   0  0  0  0  0  0  0  0  0  0  0  0
  151.8904  140.1008  156.4098 C   0  0  0  0  0  0  0  0  0  0  0  0
  152.6680  139.7001  157.4110 N   0  0  0  0  0  0  0  0  0  0  0  0
  152.5377  140.7504  158.3031 C   0  0  0  0  0  0  0  0  0  0  0  0
  153.1132  140.9474  159.5775 C   0  0  0  0  0  0  0  0  0  0  0  0
  152.8370  142.1143  160.3249 C   0  0  0  0  0  0  0  0  0  0  0  0
  153.4778  142.2854  161.6909 C   0  0  0  0  0  0  0  0  0  0  0  0
  151.9722  143.1073  159.7985 C   0  0  0  0  0  0  0  0  0  0  0  0
  151.6598  144.3683  160.5850 C   0  0  0  0  0  0  0  0  0  0  0  0
  151.3892  142.9268  158.5267 C   0  0  0  0  0  0  0  0  0  0  0  0
  151.6714  141.7612  157.7925 C   0  0  0  0  0  0  0  0  0  0  0  0
  147.0474  141.5512  156.3747 C   0  0  0  0  0  0  0  0  0  0  0  0
  146.2038  142.3532  157.3834 C   0  0  0  0  0  0  0  0  0  0  0  0
  141.7652  138.6894  156.5855 H   0  0  0  0  0  0  0  0  0  0  0  0
  143.4887  138.6337  156.9538 H   0  0  0  0  0  0  0  0  0  0  0  0
  142.8732  139.7701  155.7398 H   0  0  0  0  0  0  0  0  0  0  0  0
  143.3651  141.8319  158.6885 H   0  0  0  0  0  0  0  0  0  0  0  0
  144.4360  140.5089  158.2652 H   0  0  0  0  0  0  0  0  0  0  0  0
  144.2440  141.0766  155.8789 H   0  0  0  0  0  0  0  0  0  0  0  0
  142.9992  142.2571  156.1790 H   0  0  0  0  0  0  0  0  0  0  0  0
  144.3267  144.0029  155.0756 H   0  0  0  0  0  0  0  0  0  0  0  0
  145.7788  144.5621  155.8542 H   0  0  0  0  0  0  0  0  0  0  0  0
  145.5466  142.0526  154.1108 H   0  0  0  0  0  0  0  0  0  0  0  0
  146.3613  143.5422  153.7081 H   0  0  0  0  0  0  0  0  0  0  0  0
  147.6771  140.9058  153.6603 H   0  0  0  0  0  0  0  0  0  0  0  0
  148.6279  142.3561  153.4831 H   0  0  0  0  0  0  0  0  0  0  0  0
  149.0302  140.2638  155.7053 H   0  0  0  0  0  0  0  0  0  0  0  0
  149.6249  140.1498  153.1695 H   0  0  0  0  0  0  0  0  0  0  0  0
  150.9891  142.4314  154.8327 H   0  0  0  0  0  0  0  0  0  0  0  0
  149.8294  142.7068  156.1109 H   0  0  0  0  0  0  0  0  0  0  0  0
  151.7636  139.4954  155.5241 H   0  0  0  0  0  0  0  0  0  0  0  0
  153.7722  140.1908  159.9777 H   0  0  0  0  0  0  0  0  0  0  0  0
  152.7137  142.3937  162.4607 H   0  0  0  0  0  0  0  0  0  0  0  0
  154.1144  143.1704  161.7065 H   0  0  0  0  0  0  0  0  0  0  0  0
  154.0950  141.4253  161.9517 H   0  0  0  0  0  0  0  0  0  0  0  0
  150.9896  145.0268  160.0315 H   0  0  0  0  0  0  0  0  0  0  0  0
  152.5737  144.9232  160.7979 H   0  0  0  0  0  0  0  0  0  0  0  0
  151.1772  144.1190  161.5302 H   0  0  0  0  0  0  0  0  0  0  0  0
  150.7297  143.6761  158.1153 H   0  0  0  0  0  0  0  0  0  0  0  0
  146.5255  140.6393  156.0805 H   0  0  0  0  0  0  0  0  0  0  0  0
  147.9768  141.2418  156.8545 H   0  0  0  0  0  0  0  0  0  0  0  0
  146.7829  143.2050  157.7429 H   0  0  0  0  0  0  0  0  0  0  0  0
  145.9780  141.7497  158.2633 H   0  0  0  0  0  0  0  0  0  0  0  0
  147.8779  143.1623  155.4963 H   0  0  0  0  0  0  0  0  0  0  0  0
  144.5641  143.5089  157.4459 H   0  0  0  0  0  0  0  0  0  0  0  0
  1  2  1  0  0  0  0
  1 26  1  0  0  0  0
  1 27  1  0  0  0  0
  1 28  1  0  0  0  0
  2  3  1  0  0  0  0
  3  4  1  0  0  0  0
  3 29  1  0  0  0  0
  3 30  1  0  0  0  0
  4  5  1  0  0  0  0
  4 31  1  0  0  0  0
  4 32  1  0  0  0  0
  5 25  1  0  0  0  0
  5  6  1  0  0  0  0
  5 57  1  0  0  0  0
  6  7  1  0  0  0  0
  6 33  1  0  0  0  0
  6 34  1  0  0  0  0
  7  8  1  0  0  0  0
  7 35  1  0  0  0  0
  7 36  1  0  0  0  0
  8  9  1  0  0  0  0
  8 24  1  0  0  0  0
  8 56  1  0  0  0  0
  9 10  1  0  0  0  0
  9 37  1  0  0  0  0
  9 38  1  0  0  0  0
 10 11  1  0  0  0  0
 10 12  1  0  0  0  0
 10 39  1  0  0  0  0
 11 40  1  0  0  0  0
 12 13  1  0  0  0  0
 12 41  1  0  0  0  0
 12 42  1  0  0  0  0
 13 23  1  0  0  0  0
 13 14  1  0  0  0  0
 14 15  2  0  0  0  0
 14 43  1  0  0  0  0
 15 16  1  0  0  0  0
 16 23  2  0  0  0  0
 16 17  1  0  0  0  0
 17 18  2  0  0  0  0
 17 44  1  0  0  0  0
 18 19  1  0  0  0  0
 18 20  1  0  0  0  0
 19 45  1  0  0  0  0
 19 46  1  0  0  0  0
 19 47  1  0  0  0  0
 20 21  1  0  0  0  0
 20 22  2  0  0  0  0
 21 48  1  0  0  0  0
 21 49  1  0  0  0  0
 21 50  1  0  0  0  0
 22 23  1  0  0  0  0
 22 51  1  0  0  0  0
 24 25  1  0  0  0  0
 24 52  1  0  0  0  0
 24 53  1  0  0  0  0
 25 54  1  0  0  0  0
 25 55  1  0  0  0  0
M  CHG  1   5   1
M  CHG  1   8   1
M  END
> <s_m_source_file>
AV-unprocessed.smi

> <i_m_source_file_index>
1007

> <i_lp_mmshare_version>
43012

> <i_f3d_flags>
0

> <s_epik_input>
W0NIM11PW0NIMl1bQ0gyXU4xW0NIMl1bQ0gyXU4oW0NIMl1bQ0gyXTEpW0NIMl1bQ0BIXShbT0hdKVtDSDJdbihbY0hdbjIpYyhjMjMpW2NIXWMoW0NIM10pYyhbY0hdMylbQ0gzXQ==

> <s_epik_cmdline>
J2VwaWtfcHl0aG9uJywgJy1waCcsICc3LjAnLCAnLXRuJywgJzgnLCAnLW1hJywgJzIwMCcsICctbWV0YWxfYmluZGluZycsICctaW1hZScsICc8aW5maWxlLm1hZT4nLCAnLW9tYWUnLCAnPG91dGZpbGUubWFlPic=

> <r_epik_Ionization_Penalty>
3.88944

> <r_epik_Ionization_Penalty_Charging>
3.80608

> <r_epik_Ionization_Penalty_Neutral>
0.0833653

> <r_epik_State_Penalty>
2.70739

> <r_epik_Charging_Adjusted_Penalty>
6.51347

> <i_epik_Tot_Q>
2

> <i_epik_Tot_abs_Q>
2

> <r_epik_Metal_State_Penalty>
2.62239

> <b_epik_Metal_Only>
0

> <s_lp_Force_Field>
OPLS_2005

> <r_lp_Energy>
30.9183

> <b_lp_Chiralities_Consistent>
1

> <s_lp_Variant>
AV-unprocessed.smi:1007-12

> <Gold.Version>
5.8.1

> <Gold.Id.Protein>
6NUR|6NUR_protein|mol2

> <Gold.PLP.Fitness>
61.1455

> <Gold.PLP.PLP>
-47.1899

> <Gold.PLP.part.hbond>
-4.0000

> <Gold.PLP.part.metal>
0.0000

> <Gold.PLP.part.buried>
-5.9856

> <Gold.PLP.part.nonpolar>
-36.0296

> <Gold.PLP.part.repulsive>
0.0941

> <Gold.PLP.ligand.clash>
0.0000

> <Gold.PLP.ligand.torsion>
0.5077

> <Gold.PLP.Chemscore.Hbond>
4.8960

> <Gold.PLP.Chemscore.CHOScore>
0.0000

> <Gold.PLP.Chemscore.Metal>
0.0000

> <Gold.Chemscore.Hbonds>
donor molecule, donor type, donor heavy atom, donor atom, acceptor molecule, acceptor atom, score
      L1  H     8    56       P1  8028  2.00
      L1  H    11    40       P1  7957  0.98
      P1  H  7989  7998       L1    11  0.88
      P1  H  7997  8010       L1    15  1.00

> <Gold.PLP.Chemscore.Internal.Correction>
0.2829

> <Gold.Rescore>
     Score         DG    S(hbond)    S(metal)    S(lipo)     H(rot)  DE(clash)    DE(int)     intcor
     17.08     -19.26       2.06        0.00     116.57       2.63       0.50       1.68       ----

> <Gold.Chemscore.Fitness>
17.0838

> <Gold.Chemscore.DG>
-19.2640

> <Gold.Chemscore.ZeroCoef>
-5.4800

> <Gold.Chemscore.Hbond>
2.0630

> <Gold.Chemscore.Metal>
0.0000

> <Gold.Chemscore.Lipo>
116.5678

> <Gold.Chemscore.Internal_Hbond>
0.0000

> <Gold.Chemscore.DEClash>
0.5038

> <Gold.Chemscore.DEInternal>
1.6764

> <Gold.Chemscore.Rot>
2.6347

> <Gold.Chemscore.Internal.Correction>
   9.000000E+99

> <Gold.Chemscore.Hbonds>
donor molecule, donor type, donor heavy atom, donor atom, acceptor molecule, acceptor atom, score
      L1  H     8    56       P1  8028  0.60
      L1  H    11    40       P1  7957  0.89
      P1  H  7989  7998       L1    11  0.19
      P1  H  7997  8010       L1    15  0.07

> <Gold.Chemscore.Hbond.Weighted>
-6.8903

> <Gold.Chemscore.Metal.Weighted>
-0.0000

> <Gold.Chemscore.Lipo.Weighted>
-13.6384

> <Gold.Chemscore.Internal_Hbond.Weighted>
0.0000

> <Gold.Chemscore.DEClash.Weighted>
0.5038

> <Gold.Chemscore.DEInternal.Weighted>
1.6764

> <Gold.Chemscore.Rot.Weighted>
6.7448

> <Gold.Chemscore.Internal.Correction.Weighted>
   9.000000E+99

> <Gold.Protein.RotatedTorsions>
[ 6907 6896 6895 6894 ] final  -74.52 input  -60.11 | X-H torsion
[ 7974 7965 7964 7962 ] final -161.62 input  175.53 | X-H torsion
[ 8008 7997 7996 7995 ] final   58.32 input   59.86 | X-H torsion
[ 10167 10162 10161 10158 ] final   -5.81 input  -65.29 | X-H torsion
[ 10718 10713 10712 10709 ] final  169.97 input   66.30 | X-H torsion
[ 10763 10752 10751 10750 ] final -123.04 input  -60.55 | X-H torsion
[ 11005 11000 10999 10996 ] final   47.30 input  -57.11 | X-H torsion

> <Gold.Protein.ActiveResidues>
 VAL166  LYS551  ARG553  GLY616  TRP617  ASP618  TYR619  PRO620  LYS621  CYS622 
 ASP623  PHE694  ASN695  SER759  ASP760  ASP761  ALA762  ILE779  LEU786  VAL792 
 PHE793  MET794  SER795  GLU796  ALA797  LYS798  CYS799  TRP800  GLU811  SER814 

> <Gold.Protein.RotatedAtoms>
  150.7090  134.4857  159.5491 H   0  0  0  0  0  0  0  0  0  0  0  0  # atno 6907 bound_to 6896
  152.2485  134.8154  160.0459 H   0  0  0  0  0  0  0  0  0  0  0  0  # atno 6908 bound_to 6896
  151.8910  133.3481  159.3835 H   0  0  0  0  0  0  0  0  0  0  0  0  # atno 6909 bound_to 6896
  144.7385  140.3370  143.6142 H   0  0  0  0  0  0  0  0  0  0  0  0  # atno 7974 bound_to 7965
  155.5480  140.3486  155.4462 H   0  0  0  0  0  0  0  0  0  0  0  0  # atno 8008 bound_to 7997
  156.0603  140.1338  156.9974 H   0  0  0  0  0  0  0  0  0  0  0  0  # atno 8009 bound_to 7997
  154.4476  140.0986  156.6492 H   0  0  0  0  0  0  0  0  0  0  0  0  # atno 8010 bound_to 7997
  140.6976  143.6266  150.8562 H   0  0  0  0  0  0  0  0  0  0  0  0  # atno 10167 bound_to 10162
  157.0149  131.0215  151.2792 H   0  0  0  0  0  0  0  0  0  0  0  0  # atno 10718 bound_to 10713
  154.8700  135.4112  154.2878 H   0  0  0  0  0  0  0  0  0  0  0  0  # atno 10763 bound_to 10752
  153.3759  135.7009  153.6607 H   0  0  0  0  0  0  0  0  0  0  0  0  # atno 10764 bound_to 10752
  153.5449  135.3640  155.2706 H   0  0  0  0  0  0  0  0  0  0  0  0  # atno 10765 bound_to 10752
  140.1292  134.4728  155.8535 H   0  0  0  0  0  0  0  0  0  0  0  0  # atno 11005 bound_to 11000
  145.7413  139.1765  143.2374 LP  0  0  0  0  0  0  0  0  0  0  0  0  # atno 17320 bound_to 7965
  146.1132  140.7402  142.9493 LP  0  0  0  0  0  0  0  0  0  0  0  0  # atno 17321 bound_to 7965
  139.9985  143.5770  152.2884 LP  0  0  0  0  0  0  0  0  0  0  0  0  # atno 17342 bound_to 10162
  139.6450  144.7657  151.2261 LP  0  0  0  0  0  0  0  0  0  0  0  0  # atno 17343 bound_to 10162
  157.5293  130.8048  149.7898 LP  0  0  0  0  0  0  0  0  0  0  0  0  # atno 17370 bound_to 10713
  156.0123  130.3828  150.2225 LP  0  0  0  0  0  0  0  0  0  0  0  0  # atno 17371 bound_to 10713
  141.2167  133.6789  156.7036 LP  0  0  0  0  0  0  0  0  0  0  0  0  # atno 17394 bound_to 11000
  140.2864  134.8275  157.3979 LP  0  0  0  0  0  0  0  0  0  0  0  0  # atno 17395 bound_to 11000

$$$$
