AV-unprocessed.smi:102|AV-procd|sdf|962|dock7
  -GOLD-   2262017503D 1   1.00000     0.00000
 Structure written by MMmdl.
 43 44  0  0  0  0  0  0  0  0  2 V2000
  152.9446  143.3639  158.9852 C   0  0  0  0  0  0  0  0  0  0  0  0
  151.8569  142.9508  158.0027 C   0  0  0  0  0  0  0  0  0  0  0  0
  151.3349  143.7657  157.2416 O   0  0  0  0  0  0  0  0  0  0  0  0
  151.5696  141.6394  158.0776 O   0  0  0  0  0  0  0  0  0  0  0  0
  150.6004  141.0612  157.2134 C   0  0  0  0  0  0  0  0  0  0  0  0
  151.2530  140.5764  155.8996 C   0  0  1  0  0  0  0  0  0  0  0  0
  152.5042  139.9558  156.1929 O   0  0  0  0  0  0  0  0  0  0  0  0
  152.3878  138.5586  156.2363 C   0  0  1  0  0  0  0  0  0  0  0  0
  152.8166  138.0498  157.5992 N   0  0  0  0  0  0  0  0  0  0  0  0
  153.2022  138.9146  158.6107 C   0  0  0  0  0  0  0  0  0  0  0  0
  153.5784  138.4520  159.8202 C   0  0  0  0  0  0  0  0  0  0  0  0
  153.9456  139.3162  160.7820 F   0  0  0  0  0  0  0  0  0  0  0  0
  153.5857  137.0128  160.0744 C   0  0  0  0  0  0  0  0  0  0  0  0
  153.9231  136.5979  161.1819 O   0  0  0  0  0  0  0  0  0  0  0  0
  153.2138  136.1836  159.0566 N   0  5  0  0  0  0  0  0  0  0  0  0
  152.8338  136.6473  157.8303 C   0  0  0  0  0  0  0  0  0  0  0  0
  152.4960  135.9088  156.9048 O   0  0  0  0  0  0  0  0  0  0  0  0
  150.9265  138.2025  155.8863 C   0  0  1  0  0  0  0  0  0  0  0  0
  150.1607  137.9568  157.0670 O   0  0  0  0  0  0  0  0  0  0  0  0
  148.8917  137.5216  156.9877 C   0  0  0  0  0  0  0  0  0  0  0  0
  148.2777  137.2826  158.3601 C   0  0  0  0  0  0  0  0  0  0  0  0
  148.2511  137.3291  155.9546 O   0  0  0  0  0  0  0  0  0  0  0  0
  150.4838  139.4722  155.1724 C   0  0  1  0  0  0  0  0  0  0  0  0
  149.0748  139.6777  155.1550 O   0  0  0  0  0  0  0  0  0  0  0  0
  148.5449  140.6886  154.4452 C   0  0  0  0  0  0  0  0  0  0  0  0
  147.0253  140.7242  154.5336 C   0  0  0  0  0  0  0  0  0  0  0  0
  149.1699  141.5107  153.7753 O   0  0  0  0  0  0  0  0  0  0  0  0
  152.7753  142.9024  159.9583 H   0  0  0  0  0  0  0  0  0  0  0  0
  152.9538  144.4464  159.1138 H   0  0  0  0  0  0  0  0  0  0  0  0
  153.9218  143.0505  158.6179 H   0  0  0  0  0  0  0  0  0  0  0  0
  150.1223  140.2346  157.7369 H   0  0  0  0  0  0  0  0  0  0  0  0
  149.8124  141.7870  157.0081 H   0  0  0  0  0  0  0  0  0  0  0  0
  151.4042  141.4212  155.2273 H   0  0  0  0  0  0  0  0  0  0  0  0
  153.1085  138.1407  155.5315 H   0  0  0  0  0  0  0  0  0  0  0  0
  153.2102  139.9810  158.4479 H   0  0  0  0  0  0  0  0  0  0  0  0
  150.9225  137.3394  155.2191 H   0  0  0  0  0  0  0  0  0  0  0  0
  148.5201  138.1041  159.0344 H   0  0  0  0  0  0  0  0  0  0  0  0
  148.6629  136.3569  158.7878 H   0  0  0  0  0  0  0  0  0  0  0  0
  147.1929  137.2055  158.2856 H   0  0  0  0  0  0  0  0  0  0  0  0
  150.8655  139.4393  154.1503 H   0  0  0  0  0  0  0  0  0  0  0  0
  146.7017  140.6416  155.5713 H   0  0  0  0  0  0  0  0  0  0  0  0
  146.5964  139.8964  153.9686 H   0  0  0  0  0  0  0  0  0  0  0  0
  146.6398  141.6585  154.1250 H   0  0  0  0  0  0  0  0  0  0  0  0
  1  2  1  0  0  0  0
  1 28  1  0  0  0  0
  1 29  1  0  0  0  0
  1 30  1  0  0  0  0
  2  3  2  0  0  0  0
  2  4  1  0  0  0  0
  4  5  1  0  0  0  0
  5  6  1  0  0  0  0
  5 31  1  0  0  0  0
  5 32  1  0  0  0  0
  6 23  1  0  0  0  0
  6  7  1  0  0  0  0
  6 33  1  0  0  0  0
  7  8  1  0  0  0  0
  8  9  1  0  0  0  0
  8 18  1  0  0  0  0
  8 34  1  0  0  0  0
  9 16  1  0  0  0  0
  9 10  1  0  0  0  0
 10 11  2  0  0  0  0
 10 35  1  0  0  0  0
 11 12  1  0  0  0  0
 11 13  1  0  0  0  0
 13 14  2  0  0  0  0
 13 15  1  0  0  0  0
 15 16  1  0  0  0  0
 16 17  2  0  0  0  0
 18 19  1  0  0  0  0
 18 23  1  0  0  0  0
 18 36  1  0  0  0  0
 19 20  1  0  0  0  0
 20 21  1  0  0  0  0
 20 22  2  0  0  0  0
 21 37  1  0  0  0  0
 21 38  1  0  0  0  0
 21 39  1  0  0  0  0
 23 24  1  0  0  0  0
 23 40  1  0  0  0  0
 24 25  1  0  0  0  0
 25 26  1  0  0  0  0
 25 27  2  0  0  0  0
 26 41  1  0  0  0  0
 26 42  1  0  0  0  0
 26 43  1  0  0  0  0
M  CHG  1  15  -1
M  END
> <s_m_source_file>
AV-unprocessed.smi

> <i_m_source_file_index>
102

> <i_lp_mmshare_version>
43012

> <i_f3d_flags>
0

> <s_epik_input>
W0NIM11DKD1PKU9bQ0gyXVtDQEBIXTFPW0NASF0oW0NAQEhdKE9DKD1PKVtDSDNdKVtDQEhdMU9DKD1PKVtDSDNdKW4yW2NIXWMoRiljKD1PKVtuSF1jMj1P

> <s_epik_cmdline>
J2VwaWtfcHl0aG9uJywgJy1waCcsICc3LjAnLCAnLXRuJywgJzgnLCAnLW1hJywgJzIwMCcsICctbWV0YWxfYmluZGluZycsICctaW1hZScsICc8aW5maWxlLm1hZT4nLCAnLW9tYWUnLCAnPG91dGZpbGUubWFlPic=

> <r_epik_Ionization_Penalty>
1.40304

> <r_epik_Ionization_Penalty_Charging>
1.43915e-08

> <r_epik_Ionization_Penalty_Neutral>
1.40304

> <r_epik_State_Penalty>
1.48536

> <r_epik_Charging_Adjusted_Penalty>
1.48536

> <i_epik_Tot_Q>
-1

> <i_epik_Tot_abs_Q>
1

> <r_epik_Metal_State_Penalty>
0.00663881

> <b_epik_Metal_Only>
0

> <s_epik_Chemistry_Notes>
This compound has an ester and may undergo hydrolysis at high or low pH. This compound contains an acetal/aminal-like group ( X-CH(R)-Y where X, Y are N, S, or O) that may be acid/base labile, releasing an aldehyde.

> <s_lp_Force_Field>
OPLS_2005

> <r_lp_Energy>
25.6088

> <b_lp_Chiralities_Consistent>
1

> <s_lp_Variant>
AV-unprocessed.smi:102-18

> <Gold.Version>
5.8.1

> <Gold.Id.Protein>
6NUR|6NUR_protein|mol2

> <Gold.PLP.Fitness>
45.4199

> <Gold.PLP.PLP>
-32.6107

> <Gold.PLP.part.hbond>
-5.0000

> <Gold.PLP.part.metal>
0.0000

> <Gold.PLP.part.buried>
-5.6680

> <Gold.PLP.part.nonpolar>
-23.4629

> <Gold.PLP.part.repulsive>
1.5889

> <Gold.PLP.ligand.clash>
0.0000

> <Gold.PLP.ligand.torsion>
0.4913

> <Gold.PLP.Chemscore.Hbond>
4.5260

> <Gold.PLP.Chemscore.CHOScore>
0.0000

> <Gold.PLP.Chemscore.Metal>
0.0000

> <Gold.Chemscore.Hbonds>
donor molecule, donor type, donor heavy atom, donor atom, acceptor molecule, acceptor atom, score
      P1  H  6896  6909       L1    15  1.76
      P1  H  7997  8008       L1     7  1.00
      P1  H  8011  8017       L1    27  0.75
      P1  H 10752 10764       L1    17  1.00

> <Gold.PLP.Chemscore.Internal.Correction>
0.2136

> <Gold.Rescore>
     Score         DG    S(hbond)    S(metal)    S(lipo)     H(rot)  DE(clash)    DE(int)     intcor
      8.97     -11.21       2.87        0.00      54.38       4.00       1.24       1.00       ----

> <Gold.Chemscore.Fitness>
8.9682

> <Gold.Chemscore.DG>
-11.2131

> <Gold.Chemscore.ZeroCoef>
-5.4800

> <Gold.Chemscore.Hbond>
2.8736

> <Gold.Chemscore.Metal>
0.0000

> <Gold.Chemscore.Lipo>
54.3823

> <Gold.Chemscore.Internal_Hbond>
0.0000

> <Gold.Chemscore.DEClash>
1.2417

> <Gold.Chemscore.DEInternal>
1.0033

> <Gold.Chemscore.Rot>
3.9951

> <Gold.Chemscore.Internal.Correction>
   9.000000E+99

> <Gold.Chemscore.Hbonds>
donor molecule, donor type, donor heavy atom, donor atom, acceptor molecule, acceptor atom, score
      P1  H  6896  6909       L1    15  0.22
      P1  H  7997  8008       L1     7  0.30
      P1  H  8011  8017       L1    27  0.74
      P1  H 10752 10764       L1    17  0.99

> <Gold.Chemscore.Hbond.Weighted>
-9.5978

> <Gold.Chemscore.Metal.Weighted>
-0.0000

> <Gold.Chemscore.Lipo.Weighted>
-6.3627

> <Gold.Chemscore.Internal_Hbond.Weighted>
0.0000

> <Gold.Chemscore.DEClash.Weighted>
1.2417

> <Gold.Chemscore.DEInternal.Weighted>
1.0033

> <Gold.Chemscore.Rot.Weighted>
10.2274

> <Gold.Chemscore.Internal.Correction.Weighted>
   9.000000E+99

> <Gold.Protein.RotatedTorsions>
[ 6907 6896 6895 6894 ] final  161.19 input  -60.11 | X-H torsion
[ 7974 7965 7964 7962 ] final  128.92 input  175.53 | X-H torsion
[ 8008 7997 7996 7995 ] final  -30.69 input   59.86 | X-H torsion
[ 10167 10162 10161 10158 ] final  -56.75 input  -65.29 | X-H torsion
[ 10718 10713 10712 10709 ] final  145.26 input   66.30 | X-H torsion
[ 10763 10752 10751 10750 ] final   -5.73 input  -60.55 | X-H torsion
[ 11005 11000 10999 10996 ] final  -79.76 input  -57.11 | X-H torsion

> <Gold.Protein.ActiveResidues>
 VAL166  LYS551  ARG553  GLY616  TRP617  ASP618  TYR619  PRO620  LYS621  CYS622 
 ASP623  PHE694  ASN695  SER759  ASP760  ASP761  ALA762  ILE779  LEU786  VAL792 
 PHE793  MET794  SER795  GLU796  ALA797  LYS798  CYS799  TRP800  GLU811  SER814 

> <Gold.Protein.RotatedAtoms>
  151.9593  133.3690  159.4028 H   0  0  0  0  0  0  0  0  0  0  0  0  # atno 6907 bound_to 6896
  150.6967  134.4257  159.5235 H   0  0  0  0  0  0  0  0  0  0  0  0  # atno 6908 bound_to 6896
  152.1943  134.8644  160.0565 H   0  0  0  0  0  0  0  0  0  0  0  0  # atno 6909 bound_to 6896
  145.0343  139.4018  143.5134 H   0  0  0  0  0  0  0  0  0  0  0  0  # atno 7974 bound_to 7965
  154.4241  140.1784  156.1446 H   0  0  0  0  0  0  0  0  0  0  0  0  # atno 8008 bound_to 7997
  155.9964  140.3364  155.6778 H   0  0  0  0  0  0  0  0  0  0  0  0  # atno 8009 bound_to 7997
  155.6303  140.0669  157.2641 H   0  0  0  0  0  0  0  0  0  0  0  0  # atno 8010 bound_to 7997
  140.6299  143.2454  151.5268 H   0  0  0  0  0  0  0  0  0  0  0  0  # atno 10167 bound_to 10162
  157.3473  131.0945  151.1030 H   0  0  0  0  0  0  0  0  0  0  0  0  # atno 10718 bound_to 10713
  153.4026  135.7005  153.6415 H   0  0  0  0  0  0  0  0  0  0  0  0  # atno 10763 bound_to 10752
  153.4943  135.3666  155.2508 H   0  0  0  0  0  0  0  0  0  0  0  0  # atno 10764 bound_to 10752
  154.8711  135.4096  154.3363 H   0  0  0  0  0  0  0  0  0  0  0  0  # atno 10765 bound_to 10752
  141.1667  133.7120  156.8172 H   0  0  0  0  0  0  0  0  0  0  0  0  # atno 11005 bound_to 11000
  146.3502  139.9910  142.8686 LP  0  0  0  0  0  0  0  0  0  0  0  0  # atno 17320 bound_to 7965
  145.1730  140.9730  143.4311 LP  0  0  0  0  0  0  0  0  0  0  0  0  # atno 17321 bound_to 7965
  139.5514  144.2385  152.1537 LP  0  0  0  0  0  0  0  0  0  0  0  0  # atno 17342 bound_to 10162
  140.1626  144.5011  150.6624 LP  0  0  0  0  0  0  0  0  0  0  0  0  # atno 17343 bound_to 10162
  157.2219  130.6485  149.5815 LP  0  0  0  0  0  0  0  0  0  0  0  0  # atno 17370 bound_to 10713
  155.9716  130.4626  150.6152 LP  0  0  0  0  0  0  0  0  0  0  0  0  # atno 17371 bound_to 10713
  140.2145  134.8803  157.3311 LP  0  0  0  0  0  0  0  0  0  0  0  0  # atno 17394 bound_to 11000
  140.2052  134.4206  155.7641 LP  0  0  0  0  0  0  0  0  0  0  0  0  # atno 17395 bound_to 11000

$$$$
