AV-unprocessed.smi:3270|AV-procd|sdf|12513|dock10
  -GOLD-   2272018423D 1   1.00000     0.00000
 Structure written by MMmdl.
 38 39  0  0  0  0  0  0  0  0  1 V2000
  152.7462  138.3523  155.2315 C   0  0  0  0  0  0  0  0  0  0  0  0
  151.3960  137.8848  154.6508 C   0  0  1  0  0  0  0  0  0  0  0  0
  150.8400  136.6303  155.3542 C   0  0  0  0  0  0  0  0  0  0  0  0
  151.3595  136.2074  156.3877 O   0  0  0  0  0  0  0  0  0  0  0  0
  149.7895  136.0282  154.7739 N   0  0  0  0  0  0  0  0  0  0  0  0
  149.1228  134.8428  155.2931 C   0  0  0  0  0  0  0  0  0  0  0  0
  148.5490  134.0060  154.1384 C   0  0  0  0  0  0  0  0  0  0  0  0
  148.2313  132.6209  154.4809 N   0  0  0  0  0  0  0  0  0  0  0  0
  149.3829  131.8939  155.0119 C   0  0  0  0  0  0  0  0  0  0  0  0
  149.0371  130.4306  155.3399 C   0  0  0  0  0  0  0  0  0  0  0  0
  148.5189  129.7879  154.1798 O   0  0  0  0  0  0  0  0  0  0  0  0
  147.3650  130.4410  153.6609 C   0  0  0  0  0  0  0  0  0  0  0  0
  147.7103  131.9017  153.3231 C   0  0  0  0  0  0  0  0  0  0  0  0
  150.4205  138.9711  154.6398 N   0  0  0  0  0  0  0  0  0  0  0  0
  149.1028  138.9250  154.2312 C   0  0  0  0  0  0  0  0  0  0  0  0
  148.5714  140.1689  154.4179 C   0  0  0  0  0  0  0  0  0  0  0  0
  149.6520  140.9205  154.9571 C   0  0  0  0  0  0  0  0  0  0  0  0
  150.7547  140.2026  155.0916 N   0  0  0  0  0  0  0  0  0  0  0  0
  153.5081  137.5775  155.1385 H   0  0  0  0  0  0  0  0  0  0  0  0
  152.6650  138.6133  156.2875 H   0  0  0  0  0  0  0  0  0  0  0  0
  153.1129  139.2320  154.7017 H   0  0  0  0  0  0  0  0  0  0  0  0
  151.5700  137.6011  153.6118 H   0  0  0  0  0  0  0  0  0  0  0  0
  149.4174  136.4307  153.9260 H   0  0  0  0  0  0  0  0  0  0  0  0
  149.8466  134.2707  155.8735 H   0  0  0  0  0  0  0  0  0  0  0  0
  148.3183  135.1347  155.9705 H   0  0  0  0  0  0  0  0  0  0  0  0
  147.6373  134.4984  153.7963 H   0  0  0  0  0  0  0  0  0  0  0  0
  149.2370  134.0276  153.2919 H   0  0  0  0  0  0  0  0  0  0  0  0
  150.2010  131.9178  154.2901 H   0  0  0  0  0  0  0  0  0  0  0  0
  149.7503  132.3744  155.9180 H   0  0  0  0  0  0  0  0  0  0  0  0
  149.9262  129.8968  155.6761 H   0  0  0  0  0  0  0  0  0  0  0  0
  148.3067  130.3787  156.1489 H   0  0  0  0  0  0  0  0  0  0  0  0
  147.0280  129.9141  152.7682 H   0  0  0  0  0  0  0  0  0  0  0  0
  146.5527  130.3933  154.3877 H   0  0  0  0  0  0  0  0  0  0  0  0
  146.8183  132.4032  152.9462 H   0  0  0  0  0  0  0  0  0  0  0  0
  148.4436  131.9205  152.5151 H   0  0  0  0  0  0  0  0  0  0  0  0
  148.6573  138.0199  153.8448 H   0  0  0  0  0  0  0  0  0  0  0  0
  147.5638  140.4924  154.2030 H   0  0  0  0  0  0  0  0  0  0  0  0
  149.6670  141.9589  155.2541 H   0  0  0  0  0  0  0  0  0  0  0  0
  1  2  1  0  0  0  0
  1 19  1  0  0  0  0
  1 20  1  0  0  0  0
  1 21  1  0  0  0  0
  2  3  1  0  0  0  0
  2 14  1  0  0  0  0
  2 22  1  0  0  0  0
  3  4  2  0  0  0  0
  3  5  1  0  0  0  0
  5  6  1  0  0  0  0
  5 23  1  0  0  0  0
  6  7  1  0  0  0  0
  6 24  1  0  0  0  0
  6 25  1  0  0  0  0
  7  8  1  0  0  0  0
  7 26  1  0  0  0  0
  7 27  1  0  0  0  0
  8 13  1  0  0  0  0
  8  9  1  0  0  0  0
  9 10  1  0  0  0  0
  9 28  1  0  0  0  0
  9 29  1  0  0  0  0
 10 11  1  0  0  0  0
 10 30  1  0  0  0  0
 10 31  1  0  0  0  0
 11 12  1  0  0  0  0
 12 13  1  0  0  0  0
 12 32  1  0  0  0  0
 12 33  1  0  0  0  0
 13 34  1  0  0  0  0
 13 35  1  0  0  0  0
 14 18  1  0  0  0  0
 14 15  1  0  0  0  0
 15 16  2  0  0  0  0
 15 36  1  0  0  0  0
 16 17  1  0  0  0  0
 16 37  1  0  0  0  0
 17 18  2  0  0  0  0
 17 38  1  0  0  0  0
M  END
> <s_m_source_file>
AV-unprocessed.smi

> <i_m_source_file_index>
3270

> <i_lp_mmshare_version>
43012

> <i_f3d_flags>
0

> <s_epik_input>
bjFbY0hdW2NIXVtjSF1uMVtDQEhdKFtDSDNdKUMoPU8pW05IXVtDSDJdW0NIMl1OMltDSDJdW0NIMl1PW0NIMl1bQ0gyXTI=

> <s_epik_cmdline>
J2VwaWtfcHl0aG9uJywgJy1waCcsICc3LjAnLCAnLXRuJywgJzgnLCAnLW1hJywgJzIwMCcsICctbWV0YWxfYmluZGluZycsICctaW1hZScsICc8aW5maWxlLm1hZT4nLCAnLW9tYWUnLCAnPG91dGZpbGUubWFlPic=

> <r_lp_tautomer_probability>
1

> <r_epik_Ionization_Penalty>
0.203323

> <r_epik_Ionization_Penalty_Charging>
0

> <r_epik_Ionization_Penalty_Neutral>
0.203323

> <r_epik_State_Penalty>
0.193192

> <r_epik_Charging_Adjusted_Penalty>
0.193192

> <i_epik_Tot_Q>
0

> <i_epik_Tot_abs_Q>
0

> <r_epik_Metal_State_Penalty>
0.193187

> <b_epik_Metal_Only>
0

> <s_lp_Force_Field>
OPLS_2005

> <r_lp_Energy>
25.3567

> <b_lp_Chiralities_Consistent>
1

> <s_lp_Variant>
AV-unprocessed.smi:3270-2

> <Gold.Version>
5.8.1

> <Gold.Id.Protein>
6NUR|6NUR_protein|mol2

> <Gold.PLP.Fitness>
46.0216

> <Gold.PLP.PLP>
-34.2407

> <Gold.PLP.part.hbond>
-3.2389

> <Gold.PLP.part.metal>
0.0000

> <Gold.PLP.part.buried>
-2.3259

> <Gold.PLP.part.nonpolar>
-28.8202

> <Gold.PLP.part.repulsive>
0.3031

> <Gold.PLP.ligand.clash>
0.0000

> <Gold.PLP.ligand.torsion>
0.4530

> <Gold.PLP.Chemscore.Hbond>
3.0000

> <Gold.PLP.Chemscore.CHOScore>
1.1935

> <Gold.PLP.Chemscore.Metal>
0.0000

> <Gold.Chemscore.Hbonds>
donor molecule, donor type, donor heavy atom, donor atom, acceptor molecule, acceptor atom, score
      L1  H     5    23       P1  7948  0.81
      P1  H  7989  7998       L1    18  0.76
      P1  H 10752 10764       L1     4  0.07
      L1  C    15    36       P1  7948  0.65
      L1  C    17    38       P1  8028  0.09

> <Gold.PLP.Chemscore.Internal.Correction>
0.1065

> <Gold.Rescore>
     Score         DG    S(hbond)    S(metal)    S(lipo)     H(rot)  DE(clash)    DE(int)     intcor
     13.87     -15.57       2.02        0.00      68.49       1.83       1.25       0.45       ----

> <Gold.Chemscore.Fitness>
13.8686

> <Gold.Chemscore.DG>
-15.5730

> <Gold.Chemscore.ZeroCoef>
-5.4800

> <Gold.Chemscore.Hbond>
2.0246

> <Gold.Chemscore.Metal>
0.0000

> <Gold.Chemscore.Lipo>
68.4878

> <Gold.Chemscore.Internal_Hbond>
0.0000

> <Gold.Chemscore.DEClash>
1.2511

> <Gold.Chemscore.DEInternal>
0.4533

> <Gold.Chemscore.Rot>
1.8290

> <Gold.Chemscore.Internal.Correction>
   9.000000E+99

> <Gold.Chemscore.Hbonds>
donor molecule, donor type, donor heavy atom, donor atom, acceptor molecule, acceptor atom, score
      L1  H     5    23       P1  7948  0.63
      P1  H  7989  7998       L1    18  0.03

> <Gold.Chemscore.Hbond.Weighted>
-6.7621

> <Gold.Chemscore.Metal.Weighted>
-0.0000

> <Gold.Chemscore.Lipo.Weighted>
-8.0131

> <Gold.Chemscore.Internal_Hbond.Weighted>
0.0000

> <Gold.Chemscore.DEClash.Weighted>
1.2511

> <Gold.Chemscore.DEInternal.Weighted>
0.4533

> <Gold.Chemscore.Rot.Weighted>
4.6821

> <Gold.Chemscore.Internal.Correction.Weighted>
   9.000000E+99

> <Gold.Protein.RotatedTorsions>
[ 6907 6896 6895 6894 ] final -132.37 input  -60.11 | X-H torsion
[ 7974 7965 7964 7962 ] final  -53.85 input  175.53 | X-H torsion
[ 8008 7997 7996 7995 ] final   19.36 input   59.86 | X-H torsion
[ 10167 10162 10161 10158 ] final -133.75 input  -65.29 | X-H torsion
[ 10718 10713 10712 10709 ] final -122.20 input   66.30 | X-H torsion
[ 10763 10752 10751 10750 ] final  -20.99 input  -60.55 | X-H torsion
[ 11005 11000 10999 10996 ] final -169.61 input  -57.11 | X-H torsion

> <Gold.Protein.ActiveResidues>
 VAL166  LYS551  ARG553  GLY616  TRP617  ASP618  TYR619  PRO620  LYS621  CYS622 
 ASP623  PHE694  ASN695  SER759  ASP760  ASP761  ALA762  ILE779  LEU786  VAL792 
 PHE793  MET794  SER795  GLU796  ALA797  LYS798  CYS799  TRP800  GLU811  SER814 

> <Gold.Protein.RotatedAtoms>
  150.9616  133.6439  159.2753 H   0  0  0  0  0  0  0  0  0  0  0  0  # atno 6907 bound_to 6896
  151.3760  135.0930  159.9490 H   0  0  0  0  0  0  0  0  0  0  0  0  # atno 6908 bound_to 6896
  152.5150  133.9160  159.7566 H   0  0  0  0  0  0  0  0  0  0  0  0  # atno 6909 bound_to 6896
  145.8922  140.8061  142.9786 H   0  0  0  0  0  0  0  0  0  0  0  0  # atno 7974 bound_to 7965
  154.9195  140.3025  155.5223 H   0  0  0  0  0  0  0  0  0  0  0  0  # atno 8008 bound_to 7997
  156.3010  140.2374  156.4180 H   0  0  0  0  0  0  0  0  0  0  0  0  # atno 8009 bound_to 7997
  154.8344  140.0417  157.1488 H   0  0  0  0  0  0  0  0  0  0  0  0  # atno 8010 bound_to 7997
  139.8951  143.6676  152.2605 H   0  0  0  0  0  0  0  0  0  0  0  0  # atno 10167 bound_to 10162
  156.1399  130.6458  150.9754 H   0  0  0  0  0  0  0  0  0  0  0  0  # atno 10718 bound_to 10713
  153.6290  135.6990  153.5282 H   0  0  0  0  0  0  0  0  0  0  0  0  # atno 10763 bound_to 10752
  153.2875  135.4167  155.1135 H   0  0  0  0  0  0  0  0  0  0  0  0  # atno 10764 bound_to 10752
  154.8526  135.3617  154.5833 H   0  0  0  0  0  0  0  0  0  0  0  0  # atno 10765 bound_to 10752
  140.5288  134.5636  157.5069 H   0  0  0  0  0  0  0  0  0  0  0  0  # atno 11005 bound_to 11000
  144.6731  140.1547  143.7427 LP  0  0  0  0  0  0  0  0  0  0  0  0  # atno 17320 bound_to 7965
  145.8894  139.2367  143.1558 LP  0  0  0  0  0  0  0  0  0  0  0  0  # atno 17321 bound_to 7965
  139.7075  144.7625  151.1168 LP  0  0  0  0  0  0  0  0  0  0  0  0  # atno 17342 bound_to 10162
  140.7719  143.5375  150.9352 LP  0  0  0  0  0  0  0  0  0  0  0  0  # atno 17343 bound_to 10162
  157.6566  131.0888  150.7933 LP  0  0  0  0  0  0  0  0  0  0  0  0  # atno 17370 bound_to 10713
  156.8010  130.4921  149.5370 LP  0  0  0  0  0  0  0  0  0  0  0  0  # atno 17371 bound_to 10713
  139.9565  134.7525  156.0330 LP  0  0  0  0  0  0  0  0  0  0  0  0  # atno 17394 bound_to 11000
  141.1293  133.6591  156.3421 LP  0  0  0  0  0  0  0  0  0  0  0  0  # atno 17395 bound_to 11000

$$$$
