AV-unprocessed.smi:236|AV-procd|sdf|1816|dock9
  -GOLD-   2262020403D 1   1.00000     0.00000
 Structure written by MMmdl.
 58 62  0  0  0  0  0  0  0  0  1 V2000
  141.7892  135.6597  160.4900 C   0  0  0  0  0  0  0  0  0  0  0  0
  142.3463  136.9801  161.0418 C   0  0  1  0  0  0  0  0  0  0  0  0
  143.1291  136.7493  162.2101 O   0  0  0  0  0  0  0  0  0  0  0  0
  144.1965  137.6906  162.2800 C   0  0  0  0  0  0  0  0  0  0  0  0
  143.9656  138.6650  161.1284 C   0  0  0  0  0  0  0  0  0  0  0  0
  143.2458  137.8021  160.0993 C   0  0  2  0  0  0  0  0  0  0  0  0
  142.4580  138.6384  159.2732 O   0  0  0  0  0  0  0  0  0  0  0  0
  144.1989  136.9438  159.2218 C   0  0  0  0  0  0  0  0  0  0  0  0
  145.1572  137.7235  158.4542 N   0  0  0  0  0  0  0  0  0  0  0  0
  146.5294  137.6759  158.5543 C   0  0  0  0  0  0  0  0  0  0  0  0
  147.1735  138.4851  157.7585 N   0  0  0  0  0  0  0  0  0  0  0  0
  146.1713  139.1250  157.0379 C   0  0  0  0  0  0  0  0  0  0  0  0
  146.1616  140.1190  156.0176 C   0  0  0  0  0  0  0  0  0  0  0  0
  147.2964  140.6654  155.5095 N   0  0  0  0  0  0  0  0  0  0  0  0
  147.5241  140.5556  154.0705 C   0  0  0  0  0  0  0  0  0  0  0  0
  148.6969  141.4544  153.6498 C   0  0  0  0  0  0  0  0  0  0  0  0
  149.8457  141.1235  154.4223 O   0  0  0  0  0  0  0  0  0  0  0  0
  149.6435  141.3521  155.8150 C   0  0  2  0  0  0  0  0  0  0  0  0
  150.9594  141.0589  156.5463 C   0  0  0  0  0  0  0  0  0  0  0  0
  150.8637  141.5399  157.8768 O   0  0  0  0  0  0  0  0  0  0  0  0
  152.1063  141.5198  158.5570 C   0  0  0  0  0  0  0  0  0  0  0  0
  152.0455  142.4840  159.7224 C   0  0  0  0  0  0  0  0  0  0  0  0
  153.3019  143.1560  160.2277 C   0  0  0  0  0  0  0  0  0  0  0  0
  152.6217  142.1049  161.0677 C   0  0  0  0  0  0  0  0  0  0  0  0
  148.5021  140.4372  156.3005 C   0  0  0  0  0  0  0  0  0  0  0  0
  144.9480  140.5229  155.5536 N   0  0  0  0  0  0  0  0  0  0  0  0
  143.8244  139.9878  156.0398 C   0  0  0  0  0  0  0  0  0  0  0  0
  143.6849  139.0547  156.9826 N   0  0  0  0  0  0  0  0  0  0  0  0
  144.8964  138.6538  157.4631 C   0  0  0  0  0  0  0  0  0  0  0  0
  141.2190  135.8269  159.5758 H   0  0  0  0  0  0  0  0  0  0  0  0
  141.1228  135.1914  161.2146 H   0  0  0  0  0  0  0  0  0  0  0  0
  142.5832  134.9460  160.2698 H   0  0  0  0  0  0  0  0  0  0  0  0
  141.5078  137.6035  161.3586 H   0  0  0  0  0  0  0  0  0  0  0  0
  144.2205  138.1932  163.2471 H   0  0  0  0  0  0  0  0  0  0  0  0
  145.1399  137.1590  162.1513 H   0  0  0  0  0  0  0  0  0  0  0  0
  143.3089  139.4656  161.4736 H   0  0  0  0  0  0  0  0  0  0  0  0
  144.8812  139.1350  160.7722 H   0  0  0  0  0  0  0  0  0  0  0  0
  141.5707  138.3130  159.2748 H   0  0  0  0  0  0  0  0  0  0  0  0
  144.7560  136.2398  159.8411 H   0  0  0  0  0  0  0  0  0  0  0  0
  143.6256  136.3388  158.5183 H   0  0  0  0  0  0  0  0  0  0  0  0
  147.0407  137.0267  159.2503 H   0  0  0  0  0  0  0  0  0  0  0  0
  147.7424  139.5179  153.8136 H   0  0  0  0  0  0  0  0  0  0  0  0
  146.6262  140.8465  153.5235 H   0  0  0  0  0  0  0  0  0  0  0  0
  148.9230  141.3072  152.5938 H   0  0  0  0  0  0  0  0  0  0  0  0
  148.4476  142.5088  153.7787 H   0  0  0  0  0  0  0  0  0  0  0  0
  149.3693  142.3955  155.9830 H   0  0  0  0  0  0  0  0  0  0  0  0
  151.1389  139.9826  156.5673 H   0  0  0  0  0  0  0  0  0  0  0  0
  151.7987  141.5219  156.0246 H   0  0  0  0  0  0  0  0  0  0  0  0
  152.3276  140.5140  158.9180 H   0  0  0  0  0  0  0  0  0  0  0  0
  152.9137  141.8236  157.8892 H   0  0  0  0  0  0  0  0  0  0  0  0
  151.1416  143.0900  159.7435 H   0  0  0  0  0  0  0  0  0  0  0  0
  154.2466  142.8876  159.7589 H   0  0  0  0  0  0  0  0  0  0  0  0
  153.2209  144.1912  160.5536 H   0  0  0  0  0  0  0  0  0  0  0  0
  152.0861  142.4376  161.9545 H   0  0  0  0  0  0  0  0  0  0  0  0
  153.1107  141.1366  161.1547 H   0  0  0  0  0  0  0  0  0  0  0  0
  148.3226  140.6166  157.3597 H   0  0  0  0  0  0  0  0  0  0  0  0
  148.7931  139.3902  156.2028 H   0  0  0  0  0  0  0  0  0  0  0  0
  142.9059  140.3628  155.6127 H   0  0  0  0  0  0  0  0  0  0  0  0
  1  2  1  0  0  0  0
  1 30  1  0  0  0  0
  1 31  1  0  0  0  0
  1 32  1  0  0  0  0
  2  6  1  0  0  0  0
  2  3  1  0  0  0  0
  2 33  1  0  0  0  0
  3  4  1  0  0  0  0
  4  5  1  0  0  0  0
  4 34  1  0  0  0  0
  4 35  1  0  0  0  0
  5  6  1  0  0  0  0
  5 36  1  0  0  0  0
  5 37  1  0  0  0  0
  6  7  1  0  0  0  0
  6  8  1  0  0  0  0
  7 38  1  0  0  0  0
  8  9  1  0  0  0  0
  8 39  1  0  0  0  0
  8 40  1  0  0  0  0
  9 29  1  0  0  0  0
  9 10  1  0  0  0  0
 10 11  2  0  0  0  0
 10 41  1  0  0  0  0
 11 12  1  0  0  0  0
 12 29  2  0  0  0  0
 12 13  1  0  0  0  0
 13 14  1  0  0  0  0
 13 26  2  0  0  0  0
 14 25  1  0  0  0  0
 14 15  1  0  0  0  0
 15 16  1  0  0  0  0
 15 42  1  0  0  0  0
 15 43  1  0  0  0  0
 16 17  1  0  0  0  0
 16 44  1  0  0  0  0
 16 45  1  0  0  0  0
 17 18  1  0  0  0  0
 18 19  1  0  0  0  0
 18 25  1  0  0  0  0
 18 46  1  0  0  0  0
 19 20  1  0  0  0  0
 19 47  1  0  0  0  0
 19 48  1  0  0  0  0
 20 21  1  0  0  0  0
 21 22  1  0  0  0  0
 21 49  1  0  0  0  0
 21 50  1  0  0  0  0
 22 24  1  0  0  0  0
 22 23  1  0  0  0  0
 22 51  1  0  0  0  0
 23 24  1  0  0  0  0
 23 52  1  0  0  0  0
 23 53  1  0  0  0  0
 24 54  1  0  0  0  0
 24 55  1  0  0  0  0
 25 56  1  0  0  0  0
 25 57  1  0  0  0  0
 26 27  1  0  0  0  0
 27 28  2  0  0  0  0
 27 58  1  0  0  0  0
 28 29  1  0  0  0  0
M  END
> <s_m_source_file>
AV-unprocessed.smi

> <i_m_source_file_index>
236

> <i_lp_mmshare_version>
43012

> <i_f3d_flags>
0

> <s_epik_input>
W0NIMl0xW0NIMl1PW0NAQEhdKFtDSDNdKVtDQEBdMShbT0hdKVtDSDJdbihbY0hdbjIpYyhjMjMpbltjSF1uYzNONFtDSDJdW0NIMl1PW0NASF0oW0NIMl00KVtDSDJdT1tDSDJdW0NIXTVbQ0gyXVtDSDJdNQ==

> <s_epik_cmdline>
J2VwaWtfcHl0aG9uJywgJy1waCcsICc3LjAnLCAnLXRuJywgJzgnLCAnLW1hJywgJzIwMCcsICctbWV0YWxfYmluZGluZycsICctaW1hZScsICc8aW5maWxlLm1hZT4nLCAnLW9tYWUnLCAnPG91dGZpbGUubWFlPic=

> <r_lp_tautomer_probability>
1

> <r_epik_Ionization_Penalty>
7.21838e-05

> <r_epik_Ionization_Penalty_Charging>
0

> <r_epik_Ionization_Penalty_Neutral>
7.21838e-05

> <r_epik_State_Penalty>
-0

> <r_epik_Charging_Adjusted_Penalty>
0

> <i_epik_Tot_Q>
0

> <i_epik_Tot_abs_Q>
0

> <r_epik_Metal_State_Penalty>
-0

> <b_epik_Metal_Only>
0

> <s_lp_Force_Field>
OPLS_2005

> <r_lp_Energy>
48.2383

> <b_lp_Chiralities_Consistent>
1

> <s_lp_Variant>
AV-unprocessed.smi:236-8

> <Gold.Version>
5.8.1

> <Gold.Id.Protein>
6NUR|6NUR_protein|mol2

> <Gold.PLP.Fitness>
47.7336

> <Gold.PLP.PLP>
-47.0498

> <Gold.PLP.part.hbond>
-2.4752

> <Gold.PLP.part.metal>
0.0000

> <Gold.PLP.part.buried>
-4.4180

> <Gold.PLP.part.nonpolar>
-40.8112

> <Gold.PLP.part.repulsive>
0.2935

> <Gold.PLP.ligand.clash>
0.0000

> <Gold.PLP.ligand.torsion>
0.8936

> <Gold.PLP.Chemscore.Hbond>
0.4960

> <Gold.PLP.Chemscore.CHOScore>
0.0000

> <Gold.PLP.Chemscore.Metal>
0.0000

> <Gold.Chemscore.Hbonds>
donor molecule, donor type, donor heavy atom, donor atom, acceptor molecule, acceptor atom, score
      P1  H  7989  7998       L1    17  0.51

> <Gold.PLP.Chemscore.Internal.Correction>
0.9831

> <Gold.Rescore>
     Score         DG    S(hbond)    S(metal)    S(lipo)     H(rot)  DE(clash)    DE(int)     intcor
      9.71     -14.05       0.44        0.00     123.51       2.87       0.21       4.12       ----

> <Gold.Chemscore.Fitness>
9.7127

> <Gold.Chemscore.DG>
-14.0510

> <Gold.Chemscore.ZeroCoef>
-5.4800

> <Gold.Chemscore.Hbond>
0.4358

> <Gold.Chemscore.Metal>
0.0000

> <Gold.Chemscore.Lipo>
123.5131

> <Gold.Chemscore.Internal_Hbond>
0.0000

> <Gold.Chemscore.DEClash>
0.2149

> <Gold.Chemscore.DEInternal>
4.1234

> <Gold.Chemscore.Rot>
2.8655

> <Gold.Chemscore.Internal.Correction>
   9.000000E+99

> <Gold.Chemscore.Hbonds>
donor molecule, donor type, donor heavy atom, donor atom, acceptor molecule, acceptor atom, score
      P1  H  7989  7998       L1    17  0.48

> <Gold.Chemscore.Hbond.Weighted>
-1.4557

> <Gold.Chemscore.Metal.Weighted>
-0.0000

> <Gold.Chemscore.Lipo.Weighted>
-14.4510

> <Gold.Chemscore.Internal_Hbond.Weighted>
0.0000

> <Gold.Chemscore.DEClash.Weighted>
0.2149

> <Gold.Chemscore.DEInternal.Weighted>
4.1234

> <Gold.Chemscore.Rot.Weighted>
7.3358

> <Gold.Chemscore.Internal.Correction.Weighted>
   9.000000E+99

> <Gold.Protein.RotatedTorsions>
[ 6907 6896 6895 6894 ] final    7.02 input  -60.11 | X-H torsion
[ 7974 7965 7964 7962 ] final  118.97 input  175.53 | X-H torsion
[ 8008 7997 7996 7995 ] final  -44.54 input   59.86 | X-H torsion
[ 10167 10162 10161 10158 ] final -112.11 input  -65.29 | X-H torsion
[ 10718 10713 10712 10709 ] final -137.22 input   66.30 | X-H torsion
[ 10763 10752 10751 10750 ] final  155.87 input  -60.55 | X-H torsion
[ 11005 11000 10999 10996 ] final  -39.48 input  -57.11 | X-H torsion

> <Gold.Protein.ActiveResidues>
 VAL166  LYS551  ARG553  GLY616  TRP617  ASP618  TYR619  PRO620  LYS621  CYS622 
 ASP623  PHE694  ASN695  SER759  ASP760  ASP761  ALA762  ILE779  LEU786  VAL792 
 PHE793  MET794  SER795  GLU796  ALA797  LYS798  CYS799  TRP800  GLU811  SER814 

> <Gold.Protein.RotatedAtoms>
  151.6832  135.0958  160.0219 H   0  0  0  0  0  0  0  0  0  0  0  0  # atno 6907 bound_to 6896
  152.3823  133.6559  159.6179 H   0  0  0  0  0  0  0  0  0  0  0  0  # atno 6908 bound_to 6896
  150.7757  133.9010  159.3382 H   0  0  0  0  0  0  0  0  0  0  0  0  # atno 6909 bound_to 6896
  145.1487  139.3223  143.4578 H   0  0  0  0  0  0  0  0  0  0  0  0  # atno 7974 bound_to 7965
  154.3998  140.1419  156.3700 H   0  0  0  0  0  0  0  0  0  0  0  0  # atno 8008 bound_to 7997
  155.8102  140.3473  155.5432 H   0  0  0  0  0  0  0  0  0  0  0  0  # atno 8009 bound_to 7997
  155.8394  140.0924  157.1734 H   0  0  0  0  0  0  0  0  0  0  0  0  # atno 8010 bound_to 7997
  140.1263  143.4399  152.1657 H   0  0  0  0  0  0  0  0  0  0  0  0  # atno 10167 bound_to 10162
  156.2857  130.7346  151.1357 H   0  0  0  0  0  0  0  0  0  0  0  0  # atno 10718 bound_to 10713
  154.1752  135.2802  155.3069 H   0  0  0  0  0  0  0  0  0  0  0  0  # atno 10763 bound_to 10752
  154.6045  135.5519  153.7411 H   0  0  0  0  0  0  0  0  0  0  0  0  # atno 10764 bound_to 10752
  153.0153  135.6400  154.1892 H   0  0  0  0  0  0  0  0  0  0  0  0  # atno 10765 bound_to 10752
  141.0105  133.6910  156.2192 H   0  0  0  0  0  0  0  0  0  0  0  0  # atno 11005 bound_to 11000
  146.3497  140.1553  142.8591 LP  0  0  0  0  0  0  0  0  0  0  0  0  # atno 17320 bound_to 7965
  145.0454  140.8977  143.5027 LP  0  0  0  0  0  0  0  0  0  0  0  0  # atno 17321 bound_to 7965
  139.5542  144.7361  151.4342 LP  0  0  0  0  0  0  0  0  0  0  0  0  # atno 17342 bound_to 10162
  140.6843  143.8010  150.7164 LP  0  0  0  0  0  0  0  0  0  0  0  0  # atno 17343 bound_to 10162
  157.7328  131.0597  150.5611 LP  0  0  0  0  0  0  0  0  0  0  0  0  # atno 17370 bound_to 10713
  156.5721  130.4282  149.6014 LP  0  0  0  0  0  0  0  0  0  0  0  0  # atno 17371 bound_to 10713
  140.6742  134.4836  157.5588 LP  0  0  0  0  0  0  0  0  0  0  0  0  # atno 17394 bound_to 11000
  139.9087  134.8392  156.1609 LP  0  0  0  0  0  0  0  0  0  0  0  0  # atno 17395 bound_to 11000

$$$$
