AV-unprocessed.smi:2786|AV-procd|sdf|10749|dock1
  -GOLD-   2272015183D 1   1.00000     0.00000
 Structure written by MMmdl.
 27 28  0  0  0  0  0  0  0  0  2 V2000
  152.4745  144.7213  158.1721 C   0  0  0  0  0  0  0  0  0  0  0  0
  152.3653  143.5448  159.0127 N   0  0  0  0  0  0  0  0  0  0  0  0
  153.2041  143.2221  160.0714 C   0  0  0  0  0  0  0  0  0  0  0  0
  152.7527  142.0300  160.5832 C   0  0  0  0  0  0  0  0  0  0  0  0
  151.6448  141.6073  159.8570 N   0  0  0  0  0  0  0  0  0  0  0  0
  151.4548  142.5538  158.9404 C   0  0  0  0  0  0  0  0  0  0  0  0
  150.3643  142.5154  157.9088 C   0  0  1  0  0  0  0  0  0  0  0  0
  150.9410  142.3294  156.4877 C   0  0  0  0  0  0  0  0  0  0  0  0
  149.8551  142.3381  155.4855 N   0  3  0  0  0  0  0  0  0  0  0  0
  148.8277  141.3258  155.8022 C   0  0  0  0  0  0  0  0  0  0  0  0
  148.3000  141.5431  157.2322 C   0  0  0  0  0  0  0  0  0  0  0  0
  149.4042  141.4453  158.1818 N   0  0  0  0  0  0  0  0  0  0  0  0
  153.3733  145.2836  158.4274 H   0  0  0  0  0  0  0  0  0  0  0  0
  151.6047  145.3617  158.3196 H   0  0  0  0  0  0  0  0  0  0  0  0
  152.5318  144.4248  157.1244 H   0  0  0  0  0  0  0  0  0  0  0  0
  154.0327  143.8499  160.3651 H   0  0  0  0  0  0  0  0  0  0  0  0
  153.1360  141.4487  161.4089 H   0  0  0  0  0  0  0  0  0  0  0  0
  149.8220  143.4605  157.9545 H   0  0  0  0  0  0  0  0  0  0  0  0
  151.6391  143.1333  156.2523 H   0  0  0  0  0  0  0  0  0  0  0  0
  151.4962  141.3927  156.4140 H   0  0  0  0  0  0  0  0  0  0  0  0
  149.4208  143.2498  155.4883 H   0  0  0  0  0  0  0  0  0  0  0  0
  148.0144  141.4052  155.0807 H   0  0  0  0  0  0  0  0  0  0  0  0
  149.2540  140.3270  155.6964 H   0  0  0  0  0  0  0  0  0  0  0  0
  147.8055  142.5111  157.3276 H   0  0  0  0  0  0  0  0  0  0  0  0
  147.5597  140.7807  157.4757 H   0  0  0  0  0  0  0  0  0  0  0  0
  149.8658  140.5579  158.0385 H   0  0  0  0  0  0  0  0  0  0  0  0
  150.2386  142.1563  154.5691 H   0  0  0  0  0  0  0  0  0  0  0  0
  1  2  1  0  0  0  0
  1 13  1  0  0  0  0
  1 14  1  0  0  0  0
  1 15  1  0  0  0  0
  2  6  1  0  0  0  0
  2  3  1  0  0  0  0
  3  4  2  0  0  0  0
  3 16  1  0  0  0  0
  4  5  1  0  0  0  0
  4 17  1  0  0  0  0
  5  6  2  0  0  0  0
  6  7  1  0  0  0  0
  7 12  1  0  0  0  0
  7  8  1  0  0  0  0
  7 18  1  0  0  0  0
  8  9  1  0  0  0  0
  8 19  1  0  0  0  0
  8 20  1  0  0  0  0
  9 10  1  0  0  0  0
  9 21  1  0  0  0  0
  9 27  1  0  0  0  0
 10 11  1  0  0  0  0
 10 22  1  0  0  0  0
 10 23  1  0  0  0  0
 11 12  1  0  0  0  0
 11 24  1  0  0  0  0
 11 25  1  0  0  0  0
 12 26  1  0  0  0  0
M  CHG  1   9   1
M  END
> <s_m_source_file>
AV-unprocessed.smi

> <i_m_source_file_index>
2786

> <i_lp_mmshare_version>
43012

> <i_f3d_flags>
0

> <s_epik_input>
W0NIM11uMVtjSF1bY0hdbmMxW0NAQEhdMltDSDJdW05IXVtDSDJdW0NIMl1bTkhdMg==

> <s_epik_cmdline>
J2VwaWtfcHl0aG9uJywgJy1waCcsICc3LjAnLCAnLXRuJywgJzgnLCAnLW1hJywgJzIwMCcsICctbWV0YWxfYmluZGluZycsICctaW1hZScsICc8aW5maWxlLm1hZT4nLCAnLW9tYWUnLCAnPG91dGZpbGUubWFlPic=

> <r_lp_tautomer_probability>
1

> <r_epik_Ionization_Penalty>
0.130484

> <r_epik_Ionization_Penalty_Charging>
0.130409

> <r_epik_Ionization_Penalty_Neutral>
7.57914e-05

> <r_epik_State_Penalty>
0.270147

> <r_epik_Charging_Adjusted_Penalty>
0.400555

> <i_epik_Tot_Q>
1

> <i_epik_Tot_abs_Q>
1

> <r_epik_Metal_State_Penalty>
0.136376

> <b_epik_Metal_Only>
0

> <s_lp_Force_Field>
OPLS_2005

> <r_lp_Energy>
9.37099

> <b_lp_Chiralities_Consistent>
1

> <s_lp_Variant>
AV-unprocessed.smi:2786-2

> <Gold.Version>
5.8.1

> <Gold.Id.Protein>
6NUR|6NUR_protein|mol2

> <Gold.PLP.Fitness>
33.9139

> <Gold.PLP.PLP>
-28.1737

> <Gold.PLP.part.hbond>
-1.6374

> <Gold.PLP.part.metal>
0.0000

> <Gold.PLP.part.buried>
-3.2834

> <Gold.PLP.part.nonpolar>
-23.0146

> <Gold.PLP.part.repulsive>
0.1889

> <Gold.PLP.ligand.clash>
0.0000

> <Gold.PLP.ligand.torsion>
0.1337

> <Gold.PLP.Chemscore.Hbond>
2.0000

> <Gold.PLP.Chemscore.CHOScore>
0.0000

> <Gold.PLP.Chemscore.Metal>
0.0000

> <Gold.Chemscore.Hbonds>
donor molecule, donor type, donor heavy atom, donor atom, acceptor molecule, acceptor atom, score
      L1  H     9    21       P1  8028  2.00

> <Gold.PLP.Chemscore.Internal.Correction>
0.0076

> <Gold.Rescore>
     Score         DG    S(hbond)    S(metal)    S(lipo)     H(rot)  DE(clash)    DE(int)     intcor
     13.33     -13.39       1.00        0.00      60.91       1.00       0.01       0.04       ----

> <Gold.Chemscore.Fitness>
13.3345

> <Gold.Chemscore.DG>
-13.3853

> <Gold.Chemscore.ZeroCoef>
-5.4800

> <Gold.Chemscore.Hbond>
0.9997

> <Gold.Chemscore.Metal>
0.0000

> <Gold.Chemscore.Lipo>
60.9080

> <Gold.Chemscore.Internal_Hbond>
0.0000

> <Gold.Chemscore.DEClash>
0.0126

> <Gold.Chemscore.DEInternal>
0.0381

> <Gold.Chemscore.Rot>
1.0000

> <Gold.Chemscore.Internal.Correction>
   9.000000E+99

> <Gold.Chemscore.Hbonds>
donor molecule, donor type, donor heavy atom, donor atom, acceptor molecule, acceptor atom, score
      L1  H     9    21       P1  8028  0.97

> <Gold.Chemscore.Hbond.Weighted>
-3.3391

> <Gold.Chemscore.Metal.Weighted>
-0.0000

> <Gold.Chemscore.Lipo.Weighted>
-7.1262

> <Gold.Chemscore.Internal_Hbond.Weighted>
0.0000

> <Gold.Chemscore.DEClash.Weighted>
0.0126

> <Gold.Chemscore.DEInternal.Weighted>
0.0381

> <Gold.Chemscore.Rot.Weighted>
2.5600

> <Gold.Chemscore.Internal.Correction.Weighted>
   9.000000E+99

> <Gold.Protein.RotatedTorsions>
[ 6907 6896 6895 6894 ] final   10.60 input  -60.11 | X-H torsion
[ 7974 7965 7964 7962 ] final  118.63 input  175.53 | X-H torsion
[ 8008 7997 7996 7995 ] final  -78.26 input   59.86 | X-H torsion
[ 10167 10162 10161 10158 ] final  -45.05 input  -65.29 | X-H torsion
[ 10718 10713 10712 10709 ] final  -57.54 input   66.30 | X-H torsion
[ 10763 10752 10751 10750 ] final  129.52 input  -60.55 | X-H torsion
[ 11005 11000 10999 10996 ] final  111.97 input  -57.11 | X-H torsion

> <Gold.Protein.ActiveResidues>
 VAL166  LYS551  ARG553  GLY616  TRP617  ASP618  TYR619  PRO620  LYS621  CYS622 
 ASP623  PHE694  ASN695  SER759  ASP760  ASP761  ALA762  ILE779  LEU786  VAL792 
 PHE793  MET794  SER795  GLU796  ALA797  LYS798  CYS799  TRP800  GLU811  SER814 

> <Gold.Protein.RotatedAtoms>
  151.7408  135.0854  160.0315 H   0  0  0  0  0  0  0  0  0  0  0  0  # atno 6907 bound_to 6896
  152.3480  133.6141  159.5933 H   0  0  0  0  0  0  0  0  0  0  0  0  # atno 6908 bound_to 6896
  150.7521  133.9534  159.3534 H   0  0  0  0  0  0  0  0  0  0  0  0  # atno 6909 bound_to 6896
  145.1528  139.3200  143.4557 H   0  0  0  0  0  0  0  0  0  0  0  0  # atno 7974 bound_to 7965
  154.5672  140.0697  156.8910 H   0  0  0  0  0  0  0  0  0  0  0  0  # atno 8008 bound_to 7997
  155.2700  140.3364  155.4248 H   0  0  0  0  0  0  0  0  0  0  0  0  # atno 8009 bound_to 7997
  156.2090  140.1751  156.7722 H   0  0  0  0  0  0  0  0  0  0  0  0  # atno 8010 bound_to 7997
  140.6873  143.2899  151.3583 H   0  0  0  0  0  0  0  0  0  0  0  0  # atno 10167 bound_to 10162
  156.1203  130.4167  150.0454 H   0  0  0  0  0  0  0  0  0  0  0  0  # atno 10718 bound_to 10713
  153.7432  135.3221  155.3308 H   0  0  0  0  0  0  0  0  0  0  0  0  # atno 10763 bound_to 10752
  154.8288  135.4549  154.1006 H   0  0  0  0  0  0  0  0  0  0  0  0  # atno 10764 bound_to 10752
  153.2187  135.6945  153.8108 H   0  0  0  0  0  0  0  0  0  0  0  0  # atno 10765 bound_to 10752
  139.8916  134.9520  156.6514 H   0  0  0  0  0  0  0  0  0  0  0  0  # atno 11005 bound_to 11000
  146.3492  140.1609  142.8591 LP  0  0  0  0  0  0  0  0  0  0  0  0  # atno 17320 bound_to 7965
  145.0412  140.8947  143.5051 LP  0  0  0  0  0  0  0  0  0  0  0  0  # atno 17321 bound_to 7965
  139.6243  144.0845  152.2420 LP  0  0  0  0  0  0  0  0  0  0  0  0  # atno 17342 bound_to 10162
  140.0299  144.6089  150.7496 LP  0  0  0  0  0  0  0  0  0  0  0  0  # atno 17343 bound_to 10162
  156.8394  130.9420  151.3633 LP  0  0  0  0  0  0  0  0  0  0  0  0  # atno 17370 bound_to 10713
  157.6386  130.8787  149.9406 LP  0  0  0  0  0  0  0  0  0  0  0  0  # atno 17371 bound_to 10713
  140.7518  133.8891  155.8352 LP  0  0  0  0  0  0  0  0  0  0  0  0  # atno 17394 bound_to 11000
  140.9994  134.1170  157.4331 LP  0  0  0  0  0  0  0  0  0  0  0  0  # atno 17395 bound_to 11000

$$$$
