AV-unprocessed.smi:522|AV-procd|sdf|2802|dock5
  -GOLD-   2262023273D 1   1.00000     0.00000
 Structure written by MMmdl.
 41 42  0  0  0  0  0  0  0  0  1 V2000
  147.6660  142.0288  154.1105 C   0  0  0  0  0  0  0  0  0  0  0  0
  147.9168  140.9999  155.0509 O   0  0  0  0  0  0  0  0  0  0  0  0
  148.7917  141.4117  156.0884 C   0  0  0  0  0  0  0  0  0  0  0  0
  150.2393  141.4183  155.5783 C   0  0  0  0  0  0  0  0  0  0  0  0
  151.1931  141.1297  156.6392 N   0  0  0  0  0  0  0  0  0  0  0  0
  151.9425  140.0133  156.8147 C   0  0  0  0  0  0  0  0  0  0  0  0
  151.8648  138.6454  155.7017 S   0  0  0  0  0  0  0  0  0  0  0  0
  150.8642  137.5229  156.7294 C   0  0  0  0  0  0  0  0  0  0  0  0
  150.9475  136.0588  156.2740 C   0  0  0  0  0  0  0  0  0  0  0  0
  151.9891  135.4321  156.4738 O   0  0  0  0  0  0  0  0  0  0  0  0
  149.7539  135.5082  155.5815 C   0  0  0  0  0  0  0  0  0  0  0  0
  148.6672  136.3613  155.2150 C   0  0  0  0  0  0  0  0  0  0  0  0
  147.7922  137.0638  154.9301 N   0  0  0  0  0  0  0  0  0  0  0  0
  149.6363  134.1877  155.2776 C   0  0  0  0  0  0  0  0  0  0  0  0
  150.6529  133.0968  155.5923 C   0  0  0  0  0  0  0  0  0  0  0  0
  148.5205  133.6864  154.6301 N   0  0  0  0  0  0  0  0  0  0  0  0
  152.7463  140.0189  157.8790 N   0  0  0  0  0  0  0  0  0  0  0  0
  152.4907  141.2505  158.4485 C   0  0  0  0  0  0  0  0  0  0  0  0
  153.0277  141.8565  159.6069 C   0  0  0  0  0  0  0  0  0  0  0  0
  152.6069  143.1443  159.9988 C   0  0  0  0  0  0  0  0  0  0  0  0
  151.6461  143.8432  159.2397 C   0  0  0  0  0  0  0  0  0  0  0  0
  151.0985  143.2576  158.0821 C   0  0  0  0  0  0  0  0  0  0  0  0
  151.5218  141.9718  157.6958 C   0  0  0  0  0  0  0  0  0  0  0  0
  146.9960  141.6599  153.3339 H   0  0  0  0  0  0  0  0  0  0  0  0
  148.5887  142.3583  153.6310 H   0  0  0  0  0  0  0  0  0  0  0  0
  147.1904  142.8883  154.5847 H   0  0  0  0  0  0  0  0  0  0  0  0
  148.5177  142.4096  156.4332 H   0  0  0  0  0  0  0  0  0  0  0  0
  148.7023  140.7366  156.9411 H   0  0  0  0  0  0  0  0  0  0  0  0
  150.3617  140.6997  154.7683 H   0  0  0  0  0  0  0  0  0  0  0  0
  150.4798  142.3936  155.1543 H   0  0  0  0  0  0  0  0  0  0  0  0
  151.1850  137.6100  157.7676 H   0  0  0  0  0  0  0  0  0  0  0  0
  149.8235  137.8436  156.6855 H   0  0  0  0  0  0  0  0  0  0  0  0
  150.8693  133.0689  156.6609 H   0  0  0  0  0  0  0  0  0  0  0  0
  151.5825  133.2685  155.0492 H   0  0  0  0  0  0  0  0  0  0  0  0
  150.2886  132.1084  155.3084 H   0  0  0  0  0  0  0  0  0  0  0  0
  147.7509  134.2820  154.3586 H   0  0  0  0  0  0  0  0  0  0  0  0
  148.4269  132.7063  154.4031 H   0  0  0  0  0  0  0  0  0  0  0  0
  153.7637  141.3290  160.1955 H   0  0  0  0  0  0  0  0  0  0  0  0
  153.0231  143.5979  160.8865 H   0  0  0  0  0  0  0  0  0  0  0  0
  151.3296  144.8294  159.5466 H   0  0  0  0  0  0  0  0  0  0  0  0
  150.3617  143.7897  157.4987 H   0  0  0  0  0  0  0  0  0  0  0  0
  1  2  1  0  0  0  0
  1 24  1  0  0  0  0
  1 25  1  0  0  0  0
  1 26  1  0  0  0  0
  2  3  1  0  0  0  0
  3  4  1  0  0  0  0
  3 27  1  0  0  0  0
  3 28  1  0  0  0  0
  4  5  1  0  0  0  0
  4 29  1  0  0  0  0
  4 30  1  0  0  0  0
  5 23  1  0  0  0  0
  5  6  1  0  0  0  0
  6  7  1  0  0  0  0
  6 17  2  0  0  0  0
  7  8  1  0  0  0  0
  8  9  1  0  0  0  0
  8 31  1  0  0  0  0
  8 32  1  0  0  0  0
  9 10  2  0  0  0  0
  9 11  1  0  0  0  0
 11 12  1  0  0  0  0
 11 14  2  0  0  0  0
 12 13  3  0  0  0  0
 14 15  1  0  0  0  0
 14 16  1  0  0  0  0
 15 33  1  0  0  0  0
 15 34  1  0  0  0  0
 15 35  1  0  0  0  0
 16 36  1  0  0  0  0
 16 37  1  0  0  0  0
 17 18  1  0  0  0  0
 18 23  2  0  0  0  0
 18 19  1  0  0  0  0
 19 20  2  0  0  0  0
 19 38  1  0  0  0  0
 20 21  1  0  0  0  0
 20 39  1  0  0  0  0
 21 22  2  0  0  0  0
 21 40  1  0  0  0  0
 22 23  1  0  0  0  0
 22 41  1  0  0  0  0
M  END
> <s_m_source_file>
AV-unprocessed.smi

> <i_m_source_file_index>
522

> <i_lp_mmshare_version>
43012

> <i_f3d_flags>
0

> <s_epik_input>
W2NIXTFbY0hdW2NIXVtjSF1jKGMxMiluKFtDSDJdW0NIMl1PW0NIM10pYyhuMilTW0NIMl1DKD1PKS9DKEMjTik9QygvW0NIM10pW05IMl0=

> <s_epik_cmdline>
J2VwaWtfcHl0aG9uJywgJy1waCcsICc3LjAnLCAnLXRuJywgJzgnLCAnLW1hJywgJzIwMCcsICctbWV0YWxfYmluZGluZycsICctaW1hZScsICc8aW5maWxlLm1hZT4nLCAnLW9tYWUnLCAnPG91dGZpbGUubWFlPic=

> <r_lp_tautomer_probability>
0.5

> <r_epik_Ionization_Penalty>
0.0129021

> <r_epik_Ionization_Penalty_Charging>
0

> <r_epik_Ionization_Penalty_Neutral>
0.0129021

> <r_epik_State_Penalty>
0.42069

> <r_epik_Charging_Adjusted_Penalty>
0.42069

> <i_epik_Tot_Q>
0

> <i_epik_Tot_abs_Q>
0

> <r_epik_Metal_State_Penalty>
0.41068

> <b_epik_Metal_Only>
0

> <s_lp_Force_Field>
OPLS_2005

> <r_lp_Energy>
16.5573

> <b_lp_Chiralities_Consistent>
1

> <s_lp_Variant>
AV-unprocessed.smi:522-2

> <Gold.Version>
5.8.1

> <Gold.Id.Protein>
6NUR|6NUR_protein|mol2

> <Gold.PLP.Fitness>
44.3273

> <Gold.PLP.PLP>
-39.8986

> <Gold.PLP.part.hbond>
-2.0000

> <Gold.PLP.part.metal>
0.0000

> <Gold.PLP.part.buried>
-6.1241

> <Gold.PLP.part.nonpolar>
-32.3124

> <Gold.PLP.part.repulsive>
0.1786

> <Gold.PLP.ligand.clash>
0.0000

> <Gold.PLP.ligand.torsion>
0.8403

> <Gold.PLP.Chemscore.Hbond>
2.0000

> <Gold.PLP.Chemscore.CHOScore>
0.0000

> <Gold.PLP.Chemscore.Metal>
0.0000

> <Gold.Chemscore.Hbonds>
donor molecule, donor type, donor heavy atom, donor atom, acceptor molecule, acceptor atom, score
      P1  H  7997  8009       L1    17  1.00
      P1  H 10752 10764       L1    10  1.00

> <Gold.PLP.Chemscore.Internal.Correction>
0.1094

> <Gold.Rescore>
     Score         DG    S(hbond)    S(metal)    S(lipo)     H(rot)  DE(clash)    DE(int)     intcor
     15.04     -17.15       1.58        0.00     105.48       2.33       0.06       2.05       ----

> <Gold.Chemscore.Fitness>
15.0406

> <Gold.Chemscore.DG>
-17.1544

> <Gold.Chemscore.ZeroCoef>
-5.4800

> <Gold.Chemscore.Hbond>
1.5846

> <Gold.Chemscore.Metal>
0.0000

> <Gold.Chemscore.Lipo>
105.4839

> <Gold.Chemscore.Internal_Hbond>
0.0000

> <Gold.Chemscore.DEClash>
0.0601

> <Gold.Chemscore.DEInternal>
2.0537

> <Gold.Chemscore.Rot>
2.3280

> <Gold.Chemscore.Internal.Correction>
   9.000000E+99

> <Gold.Chemscore.Hbonds>
donor molecule, donor type, donor heavy atom, donor atom, acceptor molecule, acceptor atom, score
      P1  H  7997  8009       L1    17  0.19
      P1  H 10752 10764       L1    10  0.98

> <Gold.Chemscore.Hbond.Weighted>
-5.2925

> <Gold.Chemscore.Metal.Weighted>
-0.0000

> <Gold.Chemscore.Lipo.Weighted>
-12.3416

> <Gold.Chemscore.Internal_Hbond.Weighted>
0.0000

> <Gold.Chemscore.DEClash.Weighted>
0.0601

> <Gold.Chemscore.DEInternal.Weighted>
2.0537

> <Gold.Chemscore.Rot.Weighted>
5.9598

> <Gold.Chemscore.Internal.Correction.Weighted>
   9.000000E+99

> <Gold.Protein.RotatedTorsions>
[ 6907 6896 6895 6894 ] final  -38.19 input  -60.11 | X-H torsion
[ 7974 7965 7964 7962 ] final  108.33 input  175.53 | X-H torsion
[ 8008 7997 7996 7995 ] final  155.58 input   59.86 | X-H torsion
[ 10167 10162 10161 10158 ] final  -85.95 input  -65.29 | X-H torsion
[ 10718 10713 10712 10709 ] final  -47.57 input   66.30 | X-H torsion
[ 10763 10752 10751 10750 ] final  -15.70 input  -60.55 | X-H torsion
[ 11005 11000 10999 10996 ] final  -33.43 input  -57.11 | X-H torsion

> <Gold.Protein.ActiveResidues>
 VAL166  LYS551  ARG553  GLY616  TRP617  ASP618  TYR619  PRO620  LYS621  CYS622 
 ASP623  PHE694  ASN695  SER759  ASP760  ASP761  ALA762  ILE779  LEU786  VAL792 
 PHE793  MET794  SER795  GLU796  ALA797  LYS798  CYS799  TRP800  GLU811  SER814 

> <Gold.Protein.RotatedAtoms>
  151.0055  134.9356  159.7977 H   0  0  0  0  0  0  0  0  0  0  0  0  # atno 6907 bound_to 6896
  152.5289  134.3097  159.9119 H   0  0  0  0  0  0  0  0  0  0  0  0  # atno 6908 bound_to 6896
  151.3103  133.4042  159.2680 H   0  0  0  0  0  0  0  0  0  0  0  0  # atno 6909 bound_to 6896
  145.2821  139.2629  143.3910 H   0  0  0  0  0  0  0  0  0  0  0  0  # atno 7974 bound_to 7965
  156.2470  140.1935  156.6824 H   0  0  0  0  0  0  0  0  0  0  0  0  # atno 8008 bound_to 7997
  154.6312  140.0595  156.9761 H   0  0  0  0  0  0  0  0  0  0  0  0  # atno 8009 bound_to 7997
  155.1707  140.3268  155.4396 H   0  0  0  0  0  0  0  0  0  0  0  0  # atno 8010 bound_to 7997
  140.3988  143.2672  151.9169 H   0  0  0  0  0  0  0  0  0  0  0  0  # atno 10167 bound_to 10162
  156.2072  130.4159  149.9163 H   0  0  0  0  0  0  0  0  0  0  0  0  # atno 10718 bound_to 10713
  153.5473  135.7012  153.5608 H   0  0  0  0  0  0  0  0  0  0  0  0  # atno 10763 bound_to 10752
  153.3547  135.3986  155.1673 H   0  0  0  0  0  0  0  0  0  0  0  0  # atno 10764 bound_to 10752
  154.8666  135.3774  154.4982 H   0  0  0  0  0  0  0  0  0  0  0  0  # atno 10765 bound_to 10752
  140.9634  133.7151  156.1406 H   0  0  0  0  0  0  0  0  0  0  0  0  # atno 11005 bound_to 11000
  146.3213  140.3290  142.8639 LP  0  0  0  0  0  0  0  0  0  0  0  0  # atno 17320 bound_to 7965
  144.9245  140.7905  143.5728 LP  0  0  0  0  0  0  0  0  0  0  0  0  # atno 17321 bound_to 7965
  139.4785  144.5654  151.8173 LP  0  0  0  0  0  0  0  0  0  0  0  0  # atno 17342 bound_to 10162
  140.4762  144.1516  150.5925 LP  0  0  0  0  0  0  0  0  0  0  0  0  # atno 17343 bound_to 10162
  156.6853  130.8874  151.3581 LP  0  0  0  0  0  0  0  0  0  0  0  0  # atno 17370 bound_to 10713
  157.7018  130.9342  150.0810 LP  0  0  0  0  0  0  0  0  0  0  0  0  # atno 17371 bound_to 10713
  140.7435  134.4124  157.5551 LP  0  0  0  0  0  0  0  0  0  0  0  0  # atno 17394 bound_to 11000
  139.8886  134.8852  156.2466 LP  0  0  0  0  0  0  0  0  0  0  0  0  # atno 17395 bound_to 11000

$$$$
