AV-unprocessed.smi:2165|AV-procd|sdf|8812|dock9
  -GOLD-   2272012 03D 1   1.00000     0.00000
 Structure written by MMmdl.
 36 37  0  0  0  0  0  0  0  0  1 V2000
  154.1538  140.9501  161.4469 C   0  0  0  0  0  0  0  0  0  0  0  0
  153.3268  142.0840  161.0905 N   0  0  0  0  0  0  0  0  0  0  0  0
  152.9545  143.0116  162.0936 C   0  0  0  0  0  0  0  0  0  0  0  0
  153.3041  142.8964  163.2688 O   0  0  0  0  0  0  0  0  0  0  0  0
  152.1197  144.1091  161.6192 C   0  0  0  0  0  0  0  0  0  0  0  0
  151.7523  144.1924  160.3216 C   0  0  0  0  0  0  0  0  0  0  0  0
  152.1264  143.2687  159.3626 N   0  0  0  0  0  0  0  0  0  0  0  0
  151.6890  143.4413  157.9715 C   0  0  0  0  0  0  0  0  0  0  0  0
  150.9600  142.2066  157.4262 C   0  0  0  0  0  0  0  0  0  0  0  0
  150.9235  141.1632  158.0798 O   0  0  0  0  0  0  0  0  0  0  0  0
  150.3941  142.3387  156.2174 N   0  0  0  0  0  0  0  0  0  0  0  0
  149.6179  141.3086  155.5377 C   0  0  0  0  0  0  0  0  0  0  0  0
  150.5134  140.4192  154.6588 C   0  0  2  0  0  0  0  0  0  0  0  0
  149.8972  139.0658  154.3109 C   0  0  0  0  0  0  0  0  0  0  0  0
  151.1067  138.1771  154.0594 C   0  0  0  0  0  0  0  0  0  0  0  0
  152.2848  138.9781  154.6219 C   0  0  0  0  0  0  0  0  0  0  0  0
  151.6918  140.0418  155.3525 O   0  0  0  0  0  0  0  0  0  0  0  0
  152.9348  142.1737  159.7371 C   0  0  0  0  0  0  0  0  0  0  0  0
  153.2794  141.3307  158.9045 O   0  0  0  0  0  0  0  0  0  0  0  0
  154.4788  141.0060  162.4852 H   0  0  0  0  0  0  0  0  0  0  0  0
  155.0281  140.9650  160.7936 H   0  0  0  0  0  0  0  0  0  0  0  0
  153.5529  140.0532  161.2873 H   0  0  0  0  0  0  0  0  0  0  0  0
  151.7916  144.8658  162.3167 H   0  0  0  0  0  0  0  0  0  0  0  0
  151.1358  145.0270  160.0206 H   0  0  0  0  0  0  0  0  0  0  0  0
  151.0497  144.3227  157.8911 H   0  0  0  0  0  0  0  0  0  0  0  0
  152.5478  143.6400  157.3291 H   0  0  0  0  0  0  0  0  0  0  0  0
  150.4751  143.2300  155.7498 H   0  0  0  0  0  0  0  0  0  0  0  0
  149.1125  140.7053  156.2925 H   0  0  0  0  0  0  0  0  0  0  0  0
  148.8360  141.7725  154.9345 H   0  0  0  0  0  0  0  0  0  0  0  0
  150.7933  140.9385  153.7400 H   0  0  0  0  0  0  0  0  0  0  0  0
  149.3312  138.6783  155.1592 H   0  0  0  0  0  0  0  0  0  0  0  0
  149.2238  139.1201  153.4552 H   0  0  0  0  0  0  0  0  0  0  0  0
  150.9944  137.2175  154.5652 H   0  0  0  0  0  0  0  0  0  0  0  0
  151.2473  137.9818  152.9956 H   0  0  0  0  0  0  0  0  0  0  0  0
  152.9367  138.3783  155.2569 H   0  0  0  0  0  0  0  0  0  0  0  0
  152.8868  139.3933  153.8123 H   0  0  0  0  0  0  0  0  0  0  0  0
  1  2  1  0  0  0  0
  1 20  1  0  0  0  0
  1 21  1  0  0  0  0
  1 22  1  0  0  0  0
  2 18  1  0  0  0  0
  2  3  1  0  0  0  0
  3  4  2  0  0  0  0
  3  5  1  0  0  0  0
  5  6  2  0  0  0  0
  5 23  1  0  0  0  0
  6  7  1  0  0  0  0
  6 24  1  0  0  0  0
  7  8  1  0  0  0  0
  7 18  1  0  0  0  0
  8  9  1  0  0  0  0
  8 25  1  0  0  0  0
  8 26  1  0  0  0  0
  9 10  2  0  0  0  0
  9 11  1  0  0  0  0
 11 12  1  0  0  0  0
 11 27  1  0  0  0  0
 12 13  1  0  0  0  0
 12 28  1  0  0  0  0
 12 29  1  0  0  0  0
 13 17  1  0  0  0  0
 13 14  1  0  0  0  0
 13 30  1  0  0  0  0
 14 15  1  0  0  0  0
 14 31  1  0  0  0  0
 14 32  1  0  0  0  0
 15 16  1  0  0  0  0
 15 33  1  0  0  0  0
 15 34  1  0  0  0  0
 16 17  1  0  0  0  0
 16 35  1  0  0  0  0
 16 36  1  0  0  0  0
 18 19  2  0  0  0  0
M  END
> <s_m_source_file>
AV-unprocessed.smi

> <i_m_source_file_index>
2165

> <i_lp_mmshare_version>
43012

> <i_f3d_flags>
0

> <s_epik_input>
W0NIM11uMWMoPU8pW2NIXVtjSF1uKGMxPU8pW0NIMl1DKD1PKVtOSF1bQ0gyXVtDQEBIXTJbQ0gyXVtDSDJdW0NIMl1PMg==

> <s_epik_cmdline>
J2VwaWtfcHl0aG9uJywgJy1waCcsICc3LjAnLCAnLXRuJywgJzgnLCAnLW1hJywgJzIwMCcsICctbWV0YWxfYmluZGluZycsICctaW1hZScsICc8aW5maWxlLm1hZT4nLCAnLW9tYWUnLCAnPG91dGZpbGUubWFlPic=

> <r_lp_tautomer_probability>
1

> <r_epik_Ionization_Penalty>
3.89869e-08

> <r_epik_Ionization_Penalty_Charging>
1.21279e-08

> <r_epik_Ionization_Penalty_Neutral>
2.6859e-08

> <r_epik_State_Penalty>
-0

> <r_epik_Charging_Adjusted_Penalty>
1.21279e-08

> <i_epik_Tot_Q>
0

> <i_epik_Tot_abs_Q>
0

> <r_epik_Metal_State_Penalty>
-0

> <b_epik_Metal_Only>
0

> <s_lp_Force_Field>
OPLS_2005

> <r_lp_Energy>
24.9398

> <b_lp_Chiralities_Consistent>
1

> <s_lp_Variant>
AV-unprocessed.smi:2165-1

> <Gold.Version>
5.8.1

> <Gold.Id.Protein>
6NUR|6NUR_protein|mol2

> <Gold.PLP.Fitness>
47.9728

> <Gold.PLP.PLP>
-47.7954

> <Gold.PLP.part.hbond>
-1.9560

> <Gold.PLP.part.metal>
0.0000

> <Gold.PLP.part.buried>
-3.4427

> <Gold.PLP.part.nonpolar>
-41.9225

> <Gold.PLP.part.repulsive>
0.2361

> <Gold.PLP.ligand.clash>
0.0000

> <Gold.PLP.ligand.torsion>
0.4200

> <Gold.PLP.Chemscore.Hbond>
0.3349

> <Gold.PLP.Chemscore.CHOScore>
0.0000

> <Gold.PLP.Chemscore.Metal>
0.0000

> <Gold.Chemscore.Hbonds>
donor molecule, donor type, donor heavy atom, donor atom, acceptor molecule, acceptor atom, score
      L1  H    11    27       P1  8028  0.32

> <Gold.PLP.Chemscore.Internal.Correction>
0.0128

> <Gold.Rescore>
     Score         DG    S(hbond)    S(metal)    S(lipo)     H(rot)  DE(clash)    DE(int)     intcor
      7.30     -11.92       0.58        0.00      79.34       1.87       0.15       4.47       ----

> <Gold.Chemscore.Fitness>
7.2975

> <Gold.Chemscore.DG>
-11.9226

> <Gold.Chemscore.ZeroCoef>
-5.4800

> <Gold.Chemscore.Hbond>
0.5815

> <Gold.Chemscore.Metal>
0.0000

> <Gold.Chemscore.Lipo>
79.3372

> <Gold.Chemscore.Internal_Hbond>
0.0000

> <Gold.Chemscore.DEClash>
0.1527

> <Gold.Chemscore.DEInternal>
4.4724

> <Gold.Chemscore.Rot>
1.8681

> <Gold.Chemscore.Internal.Correction>
   9.000000E+99

> <Gold.Chemscore.Hbonds>
donor molecule, donor type, donor heavy atom, donor atom, acceptor molecule, acceptor atom, score
      L1  H    11    27       P1  8028  0.32

> <Gold.Chemscore.Hbond.Weighted>
-1.9423

> <Gold.Chemscore.Metal.Weighted>
-0.0000

> <Gold.Chemscore.Lipo.Weighted>
-9.2825

> <Gold.Chemscore.Internal_Hbond.Weighted>
0.0000

> <Gold.Chemscore.DEClash.Weighted>
0.1527

> <Gold.Chemscore.DEInternal.Weighted>
4.4724

> <Gold.Chemscore.Rot.Weighted>
4.7822

> <Gold.Chemscore.Internal.Correction.Weighted>
   9.000000E+99

> <Gold.Protein.RotatedTorsions>
[ 6907 6896 6895 6894 ] final  123.09 input  -60.11 | X-H torsion
[ 7974 7965 7964 7962 ] final   -6.71 input  175.53 | X-H torsion
[ 8008 7997 7996 7995 ] final  -17.33 input   59.86 | X-H torsion
[ 10167 10162 10161 10158 ] final  171.64 input  -65.29 | X-H torsion
[ 10718 10713 10712 10709 ] final   94.86 input   66.30 | X-H torsion
[ 10763 10752 10751 10750 ] final -172.28 input  -60.55 | X-H torsion
[ 11005 11000 10999 10996 ] final -108.13 input  -57.11 | X-H torsion

> <Gold.Protein.ActiveResidues>
 VAL166  LYS551  ARG553  GLY616  TRP617  ASP618  TYR619  PRO620  LYS621  CYS622 
 ASP623  PHE694  ASN695  SER759  ASP760  ASP761  ALA762  ILE779  LEU786  VAL792 
 PHE793  MET794  SER795  GLU796  ALA797  LYS798  CYS799  TRP800  GLU811  SER814 

> <Gold.Protein.RotatedAtoms>
  152.4190  133.7085  159.6464 H   0  0  0  0  0  0  0  0  0  0  0  0  # atno 6907 bound_to 6896
  150.8066  133.8487  159.3208 H   0  0  0  0  0  0  0  0  0  0  0  0  # atno 6908 bound_to 6896
  151.6209  135.1034  160.0153 H   0  0  0  0  0  0  0  0  0  0  0  0  # atno 6909 bound_to 6896
  146.2324  140.2211  142.8337 H   0  0  0  0  0  0  0  0  0  0  0  0  # atno 7974 bound_to 7965
  154.4986  140.2145  155.9394 H   0  0  0  0  0  0  0  0  0  0  0  0  # atno 8008 bound_to 7997
  156.1404  140.3181  155.8453 H   0  0  0  0  0  0  0  0  0  0  0  0  # atno 8009 bound_to 7997
  155.4132  140.0492  157.3021 H   0  0  0  0  0  0  0  0  0  0  0  0  # atno 8010 bound_to 7997
  139.5052  144.3463  151.9967 H   0  0  0  0  0  0  0  0  0  0  0  0  # atno 10167 bound_to 10162
  157.6944  131.0526  150.4251 H   0  0  0  0  0  0  0  0  0  0  0  0  # atno 10718 bound_to 10713
  154.6211  135.2875  155.0325 H   0  0  0  0  0  0  0  0  0  0  0  0  # atno 10763 bound_to 10752
  154.1520  135.6502  153.4969 H   0  0  0  0  0  0  0  0  0  0  0  0  # atno 10764 bound_to 10752
  153.0236  135.5358  154.7001 H   0  0  0  0  0  0  0  0  0  0  0  0  # atno 10765 bound_to 10752
  141.0918  133.9042  157.2058 H   0  0  0  0  0  0  0  0  0  0  0  0  # atno 11005 bound_to 11000
  144.9631  140.8295  143.5501 LP  0  0  0  0  0  0  0  0  0  0  0  0  # atno 17320 bound_to 7965
  145.2184  139.2171  143.5106 LP  0  0  0  0  0  0  0  0  0  0  0  0  # atno 17321 bound_to 7965
  140.2901  144.3764  150.6091 LP  0  0  0  0  0  0  0  0  0  0  0  0  # atno 17342 bound_to 10162
  140.5953  143.2167  151.7176 LP  0  0  0  0  0  0  0  0  0  0  0  0  # atno 17343 bound_to 10162
  156.4623  130.4034  149.6569 LP  0  0  0  0  0  0  0  0  0  0  0  0  # atno 17370 bound_to 10713
  156.3679  130.7515  151.2495 LP  0  0  0  0  0  0  0  0  0  0  0  0  # atno 17371 bound_to 10713
  139.9745  135.0118  156.9597 LP  0  0  0  0  0  0  0  0  0  0  0  0  # atno 17394 bound_to 11000
  140.5234  134.0884  155.7297 LP  0  0  0  0  0  0  0  0  0  0  0  0  # atno 17395 bound_to 11000

$$$$
