AV-unprocessed.smi:2855|AV-procd|sdf|10986|dock1
  -GOLD-   2272015443D 1   1.00000     0.00000
 Structure written by MMmdl.
 46 47  0  0  0  0  0  0  0  0  2 V2000
  147.2068  142.0069  154.0211 C   0  0  0  0  0  0  0  0  0  0  0  0
  147.8250  141.1590  155.1419 C   0  0  1  0  0  0  0  0  0  0  0  0
  147.9366  139.6765  154.7329 C   0  0  0  0  0  0  0  0  0  0  0  0
  148.6185  138.8337  155.8270 C   0  0  0  0  0  0  0  0  0  0  0  0
  150.0331  139.3636  156.1733 C   0  0  1  0  0  0  0  0  0  0  0  0
  151.0744  139.1535  155.0173 C   0  0  0  0  0  0  0  0  0  0  0  0
  151.0257  137.7302  154.4243 C   0  0  0  0  0  0  0  0  0  0  0  0
  152.5311  139.4390  155.4322 C   0  0  0  0  0  0  0  0  0  0  0  0
  149.8303  140.8282  156.6717 C   0  0  1  0  0  0  0  0  0  0  0  0
  151.0277  141.4579  157.2201 N   0  0  0  0  0  0  0  0  0  0  0  0
  151.0619  142.2919  158.2710 C   0  0  0  0  0  0  0  0  0  0  0  0
  150.0564  142.6361  158.8936 O   0  0  0  0  0  0  0  0  0  0  0  0
  152.4447  142.8369  158.6528 C   0  0  0  0  0  0  0  0  0  0  0  0
  152.6619  142.8786  160.1077 N   0  0  0  0  0  0  0  0  0  0  0  0
  153.4020  141.8337  160.6889 C   0  0  0  0  0  0  0  0  0  0  0  0
  153.6553  141.7917  162.0109 C   0  0  0  0  0  0  0  0  0  0  0  0
  153.1404  142.8692  162.8466 C   0  0  0  0  0  0  0  0  0  0  0  0
  153.3602  142.8466  164.0560 O   0  0  0  0  0  0  0  0  0  0  0  0
  152.4298  143.8620  162.2356 N   0  5  0  0  0  0  0  0  0  0  0  0
  152.1794  143.8911  160.8897 C   0  0  0  0  0  0  0  0  0  0  0  0
  151.5322  144.7949  160.3603 O   0  0  0  0  0  0  0  0  0  0  0  0
  149.1926  141.7171  155.5859 C   0  0  0  0  0  0  0  0  0  0  0  0
  147.8309  141.9983  153.1270 H   0  0  0  0  0  0  0  0  0  0  0  0
  147.0875  143.0445  154.3341 H   0  0  0  0  0  0  0  0  0  0  0  0
  146.2217  141.6313  153.7428 H   0  0  0  0  0  0  0  0  0  0  0  0
  147.1528  141.2128  155.9996 H   0  0  0  0  0  0  0  0  0  0  0  0
  146.9426  139.2743  154.5341 H   0  0  0  0  0  0  0  0  0  0  0  0
  148.4902  139.5877  153.7979 H   0  0  0  0  0  0  0  0  0  0  0  0
  147.9983  138.8609  156.7242 H   0  0  0  0  0  0  0  0  0  0  0  0
  148.6382  137.7828  155.5432 H   0  0  0  0  0  0  0  0  0  0  0  0
  150.3832  138.7719  157.0204 H   0  0  0  0  0  0  0  0  0  0  0  0
  150.8385  139.8330  154.1996 H   0  0  0  0  0  0  0  0  0  0  0  0
  151.1487  136.9727  155.1989 H   0  0  0  0  0  0  0  0  0  0  0  0
  151.8164  137.5798  153.6887 H   0  0  0  0  0  0  0  0  0  0  0  0
  150.0896  137.5362  153.9020 H   0  0  0  0  0  0  0  0  0  0  0  0
  152.7939  138.9064  156.3467 H   0  0  0  0  0  0  0  0  0  0  0  0
  152.7183  140.4996  155.5866 H   0  0  0  0  0  0  0  0  0  0  0  0
  153.2337  139.1266  154.6593 H   0  0  0  0  0  0  0  0  0  0  0  0
  149.1139  140.7969  157.4956 H   0  0  0  0  0  0  0  0  0  0  0  0
  151.9041  141.2328  156.7724 H   0  0  0  0  0  0  0  0  0  0  0  0
  153.2239  142.2423  158.1717 H   0  0  0  0  0  0  0  0  0  0  0  0
  152.5444  143.8356  158.2262 H   0  0  0  0  0  0  0  0  0  0  0  0
  153.7521  141.0799  159.9992 H   0  0  0  0  0  0  0  0  0  0  0  0
  154.2275  140.9831  162.4412 H   0  0  0  0  0  0  0  0  0  0  0  0
  149.8611  141.8102  154.7297 H   0  0  0  0  0  0  0  0  0  0  0  0
  149.0571  142.7277  155.9736 H   0  0  0  0  0  0  0  0  0  0  0  0
  1  2  1  0  0  0  0
  1 23  1  0  0  0  0
  1 24  1  0  0  0  0
  1 25  1  0  0  0  0
  2 22  1  0  0  0  0
  2  3  1  0  0  0  0
  2 26  1  0  0  0  0
  3  4  1  0  0  0  0
  3 27  1  0  0  0  0
  3 28  1  0  0  0  0
  4  5  1  0  0  0  0
  4 29  1  0  0  0  0
  4 30  1  0  0  0  0
  5  6  1  0  0  0  0
  5  9  1  0  0  0  0
  5 31  1  0  0  0  0
  6  7  1  0  0  0  0
  6  8  1  0  0  0  0
  6 32  1  0  0  0  0
  7 33  1  0  0  0  0
  7 34  1  0  0  0  0
  7 35  1  0  0  0  0
  8 36  1  0  0  0  0
  8 37  1  0  0  0  0
  8 38  1  0  0  0  0
  9 10  1  0  0  0  0
  9 22  1  0  0  0  0
  9 39  1  0  0  0  0
 10 11  1  0  0  0  0
 10 40  1  0  0  0  0
 11 12  2  0  0  0  0
 11 13  1  0  0  0  0
 13 14  1  0  0  0  0
 13 41  1  0  0  0  0
 13 42  1  0  0  0  0
 14 20  1  0  0  0  0
 14 15  1  0  0  0  0
 15 16  2  0  0  0  0
 15 43  1  0  0  0  0
 16 17  1  0  0  0  0
 16 44  1  0  0  0  0
 17 18  2  0  0  0  0
 17 19  1  0  0  0  0
 19 20  1  0  0  0  0
 20 21  2  0  0  0  0
 22 45  1  0  0  0  0
 22 46  1  0  0  0  0
M  CHG  1  19  -1
M  END
> <s_m_source_file>
AV-unprocessed.smi

> <i_m_source_file_index>
2855

> <i_lp_mmshare_version>
43012

> <i_f3d_flags>
0

> <s_epik_input>
W0NIM11bQ0BASF0xW0NIMl1bQ0gyXVtDQEBIXShbQ0hdKFtDSDNdKVtDSDNdKVtDQEhdKFtDSDJdMSlbTkhdQyg9TylbQ0gyXW4yW2NIXVtjSF1jKD1PKVtuSF1jMj1P

> <s_epik_cmdline>
J2VwaWtfcHl0aG9uJywgJy1waCcsICc3LjAnLCAnLXRuJywgJzgnLCAnLW1hJywgJzIwMCcsICctbWV0YWxfYmluZGluZycsICctaW1hZScsICc8aW5maWxlLm1hZT4nLCAnLW9tYWUnLCAnPG91dGZpbGUubWFlPic=

> <r_lp_tautomer_probability>
0.999537

> <r_epik_Ionization_Penalty>
3.12102

> <r_epik_Ionization_Penalty_Charging>
2.9581e-08

> <r_epik_Ionization_Penalty_Neutral>
3.12102

> <r_epik_State_Penalty>
3.12011

> <r_epik_Charging_Adjusted_Penalty>
3.12011

> <i_epik_Tot_Q>
-1

> <i_epik_Tot_abs_Q>
1

> <r_epik_Metal_State_Penalty>
0.463583

> <b_epik_Metal_Only>
1

> <s_lp_Force_Field>
OPLS_2005

> <r_lp_Energy>
27.3846

> <b_lp_Chiralities_Consistent>
1

> <s_lp_Variant>
AV-unprocessed.smi:2855-10

> <Gold.Version>
5.8.1

> <Gold.Id.Protein>
6NUR|6NUR_protein|mol2

> <Gold.PLP.Fitness>
43.5946

> <Gold.PLP.PLP>
-45.5234

> <Gold.PLP.part.hbond>
-1.3419

> <Gold.PLP.part.metal>
0.0000

> <Gold.PLP.part.buried>
-5.1312

> <Gold.PLP.part.nonpolar>
-39.2588

> <Gold.PLP.part.repulsive>
0.5663

> <Gold.PLP.ligand.clash>
0.0000

> <Gold.PLP.ligand.torsion>
1.0059

> <Gold.PLP.Chemscore.Hbond>
0.0000

> <Gold.PLP.Chemscore.CHOScore>
0.0000

> <Gold.PLP.Chemscore.Metal>
0.0000

> <Gold.PLP.Chemscore.Internal.Correction>
0.0829

> <Gold.Rescore>
     Score         DG    S(hbond)    S(metal)    S(lipo)     H(rot)  DE(clash)    DE(int)     intcor
      9.31     -11.25       0.00        0.00      88.93       1.81       0.13       1.81       ----

> <Gold.Chemscore.Fitness>
9.3138

> <Gold.Chemscore.DG>
-11.2510

> <Gold.Chemscore.ZeroCoef>
-5.4800

> <Gold.Chemscore.Hbond>
0.0000

> <Gold.Chemscore.Metal>
0.0000

> <Gold.Chemscore.Lipo>
88.9269

> <Gold.Chemscore.Internal_Hbond>
0.0000

> <Gold.Chemscore.DEClash>
0.1307

> <Gold.Chemscore.DEInternal>
1.8065

> <Gold.Chemscore.Rot>
1.8100

> <Gold.Chemscore.Internal.Correction>
   9.000000E+99

> <Gold.Chemscore.Hbond.Weighted>
-0.0000

> <Gold.Chemscore.Metal.Weighted>
-0.0000

> <Gold.Chemscore.Lipo.Weighted>
-10.4044

> <Gold.Chemscore.Internal_Hbond.Weighted>
0.0000

> <Gold.Chemscore.DEClash.Weighted>
0.1307

> <Gold.Chemscore.DEInternal.Weighted>
1.8065

> <Gold.Chemscore.Rot.Weighted>
4.6335

> <Gold.Chemscore.Internal.Correction.Weighted>
   9.000000E+99

> <Gold.Protein.RotatedTorsions>
[ 6907 6896 6895 6894 ] final -110.63 input  -60.11 | X-H torsion
[ 7974 7965 7964 7962 ] final   21.80 input  175.53 | X-H torsion
[ 8008 7997 7996 7995 ] final   63.89 input   59.86 | X-H torsion
[ 10167 10162 10161 10158 ] final  118.14 input  -65.29 | X-H torsion
[ 10718 10713 10712 10709 ] final   37.60 input   66.30 | X-H torsion
[ 10763 10752 10751 10750 ] final  -14.47 input  -60.55 | X-H torsion
[ 11005 11000 10999 10996 ] final   -3.90 input  -57.11 | X-H torsion

> <Gold.Protein.ActiveResidues>
 VAL166  LYS551  ARG553  GLY616  TRP617  ASP618  TYR619  PRO620  LYS621  CYS622 
 ASP623  PHE694  ASN695  SER759  ASP760  ASP761  ALA762  ILE779  LEU786  VAL792 
 PHE793  MET794  SER795  GLU796  ALA797  LYS798  CYS799  TRP800  GLU811  SER814 

> <Gold.Protein.RotatedAtoms>
  150.7637  133.9353  159.3439 H   0  0  0  0  0  0  0  0  0  0  0  0  # atno 6907 bound_to 6896
  151.7256  135.0883  160.0301 H   0  0  0  0  0  0  0  0  0  0  0  0  # atno 6908 bound_to 6896
  152.3622  133.6274  159.6059 H   0  0  0  0  0  0  0  0  0  0  0  0  # atno 6909 bound_to 6896
  146.2056  139.7976  142.8728 H   0  0  0  0  0  0  0  0  0  0  0  0  # atno 7974 bound_to 7965
  155.6373  140.3496  155.4703 H   0  0  0  0  0  0  0  0  0  0  0  0  # atno 8008 bound_to 7997
  155.9954  140.1202  157.0622 H   0  0  0  0  0  0  0  0  0  0  0  0  # atno 8009 bound_to 7997
  154.4232  140.1111  156.5610 H   0  0  0  0  0  0  0  0  0  0  0  0  # atno 8010 bound_to 7997
  139.6132  144.7086  151.2798 H   0  0  0  0  0  0  0  0  0  0  0  0  # atno 10167 bound_to 10162
  157.3489  130.7588  149.6964 H   0  0  0  0  0  0  0  0  0  0  0  0  # atno 10718 bound_to 10713
  153.5288  135.7015  153.5694 H   0  0  0  0  0  0  0  0  0  0  0  0  # atno 10763 bound_to 10752
  153.3710  135.3945  155.1788 H   0  0  0  0  0  0  0  0  0  0  0  0  # atno 10764 bound_to 10752
  154.8687  135.3812  154.4783 H   0  0  0  0  0  0  0  0  0  0  0  0  # atno 10765 bound_to 10752
  140.6744  133.9208  155.8515 H   0  0  0  0  0  0  0  0  0  0  0  0  # atno 11005 bound_to 11000
  145.3331  141.0271  143.3435 LP  0  0  0  0  0  0  0  0  0  0  0  0  # atno 17320 bound_to 7965
  144.8785  139.4937  143.6734 LP  0  0  0  0  0  0  0  0  0  0  0  0  # atno 17321 bound_to 7965
  140.7333  143.6799  150.8010 LP  0  0  0  0  0  0  0  0  0  0  0  0  # atno 17342 bound_to 10162
  140.0397  143.5359  152.2723 LP  0  0  0  0  0  0  0  0  0  0  0  0  # atno 17343 bound_to 10162
  155.9718  130.4146  150.4141 LP  0  0  0  0  0  0  0  0  0  0  0  0  # atno 17370 bound_to 10713
  157.2201  131.0480  151.2551 LP  0  0  0  0  0  0  0  0  0  0  0  0  # atno 17371 bound_to 10713
  141.0367  134.0679  157.3951 LP  0  0  0  0  0  0  0  0  0  0  0  0  # atno 17394 bound_to 11000
  139.8971  135.0149  156.7086 LP  0  0  0  0  0  0  0  0  0  0  0  0  # atno 17395 bound_to 11000

$$$$
