AV-unprocessed.smi:3253|AV-procd|sdf|12449|dock7
  -GOLD-   2272018343D 1   1.00000     0.00000
 Structure written by MMmdl.
 36 37  0  0  0  0  0  0  0  0  1 V2000
  145.6465  134.0251  153.3879 C   0  0  0  0  0  0  0  0  0  0  0  0
  146.7134  133.7895  152.3024 C   0  0  2  0  0  0  0  0  0  0  0  0
  146.5349  132.4495  151.5614 C   0  0  0  0  0  0  0  0  0  0  0  0
  145.2662  132.3567  150.8637 N   0  0  0  0  0  0  0  0  0  0  0  0
  143.9944  132.4249  151.4181 C   0  0  0  0  0  0  0  0  0  0  0  0
  143.1043  132.2848  150.3773 C   0  0  0  0  0  0  0  0  0  0  0  0
  143.8016  132.1244  149.1822 N   0  0  0  0  0  0  0  0  0  0  0  0
  145.0752  132.1753  149.5498 C   0  0  0  0  0  0  0  0  0  0  0  0
  148.0503  133.8353  152.8884 N   0  0  0  0  0  0  0  0  0  0  0  0
  148.5704  132.9128  153.7132 C   0  0  0  0  0  0  0  0  0  0  0  0
  147.9626  131.9013  154.0652 O   0  0  0  0  0  0  0  0  0  0  0  0
  149.9980  133.1729  154.2190 C   0  0  2  0  0  0  0  0  0  0  0  0
  150.3585  132.2399  155.3932 C   0  0  0  0  0  0  0  0  0  0  0  0
  150.4772  133.1758  156.5846 C   0  0  0  0  0  0  0  0  0  0  0  0
  150.6633  132.7756  157.7327 O   0  0  0  0  0  0  0  0  0  0  0  0
  150.3442  134.4500  156.2068 N   0  0  0  0  0  0  0  0  0  0  0  0
  150.3902  135.6086  157.0884 C   0  0  0  0  0  0  0  0  0  0  0  0
  150.1765  134.6045  154.7718 C   0  0  0  0  0  0  0  0  0  0  0  0
  144.6439  134.0617  152.9616 H   0  0  0  0  0  0  0  0  0  0  0  0
  145.8091  134.9721  153.9035 H   0  0  0  0  0  0  0  0  0  0  0  0
  145.6613  133.2325  154.1363 H   0  0  0  0  0  0  0  0  0  0  0  0
  146.6319  134.5906  151.5650 H   0  0  0  0  0  0  0  0  0  0  0  0
  147.3332  132.3124  150.8305 H   0  0  0  0  0  0  0  0  0  0  0  0
  146.6059  131.6160  152.2618 H   0  0  0  0  0  0  0  0  0  0  0  0
  143.8319  132.5668  152.4764 H   0  0  0  0  0  0  0  0  0  0  0  0
  142.0244  132.2855  150.3963 H   0  0  0  0  0  0  0  0  0  0  0  0
  145.8894  132.0804  148.8462 H   0  0  0  0  0  0  0  0  0  0  0  0
  148.6230  134.6325  152.6516 H   0  0  0  0  0  0  0  0  0  0  0  0
  150.6995  133.0146  153.3978 H   0  0  0  0  0  0  0  0  0  0  0  0
  149.6112  131.4681  155.5873 H   0  0  0  0  0  0  0  0  0  0  0  0
  151.3152  131.7454  155.2226 H   0  0  0  0  0  0  0  0  0  0  0  0
  151.3311  135.6352  157.6389 H   0  0  0  0  0  0  0  0  0  0  0  0
  149.5711  135.5725  157.8075 H   0  0  0  0  0  0  0  0  0  0  0  0
  150.3037  136.5370  156.5231 H   0  0  0  0  0  0  0  0  0  0  0  0
  151.0681  135.0731  154.3530 H   0  0  0  0  0  0  0  0  0  0  0  0
  149.3289  135.2572  154.5539 H   0  0  0  0  0  0  0  0  0  0  0  0
  1  2  1  0  0  0  0
  1 19  1  0  0  0  0
  1 20  1  0  0  0  0
  1 21  1  0  0  0  0
  2  3  1  0  0  0  0
  2  9  1  0  0  0  0
  2 22  1  0  0  0  0
  3  4  1  0  0  0  0
  3 23  1  0  0  0  0
  3 24  1  0  0  0  0
  4  8  1  0  0  0  0
  4  5  1  0  0  0  0
  5  6  2  0  0  0  0
  5 25  1  0  0  0  0
  6  7  1  0  0  0  0
  6 26  1  0  0  0  0
  7  8  2  0  0  0  0
  8 27  1  0  0  0  0
  9 10  1  0  0  0  0
  9 28  1  0  0  0  0
 10 11  2  0  0  0  0
 10 12  1  0  0  0  0
 12 18  1  0  0  0  0
 12 13  1  0  0  0  0
 12 29  1  0  0  0  0
 13 14  1  0  0  0  0
 13 30  1  0  0  0  0
 13 31  1  0  0  0  0
 14 15  2  0  0  0  0
 14 16  1  0  0  0  0
 16 17  1  0  0  0  0
 16 18  1  0  0  0  0
 17 32  1  0  0  0  0
 17 33  1  0  0  0  0
 17 34  1  0  0  0  0
 18 35  1  0  0  0  0
 18 36  1  0  0  0  0
M  END
> <s_m_source_file>
AV-unprocessed.smi

> <i_m_source_file_index>
3253

> <i_lp_mmshare_version>
43012

> <i_f3d_flags>
0

> <s_epik_input>
W2NIXTFuW2NIXVtjSF1uMVtDSDJdW0NAQEhdKFtDSDNdKVtOSF1DKD1PKVtDQEBIXTJbQ0gyXUMoPU8pTihbQ0gzXSlbQ0gyXTI=

> <s_epik_cmdline>
J2VwaWtfcHl0aG9uJywgJy1waCcsICc3LjAnLCAnLXRuJywgJzgnLCAnLW1hJywgJzIwMCcsICctbWV0YWxfYmluZGluZycsICctaW1hZScsICc8aW5maWxlLm1hZT4nLCAnLW9tYWUnLCAnPG91dGZpbGUubWFlPic=

> <r_lp_tautomer_probability>
1

> <r_epik_Ionization_Penalty>
0.628884

> <r_epik_Ionization_Penalty_Charging>
0.628884

> <r_epik_Ionization_Penalty_Neutral>
2.35084e-08

> <r_epik_State_Penalty>
0.64556

> <r_epik_Charging_Adjusted_Penalty>
1.27444

> <i_epik_Tot_Q>
0

> <i_epik_Tot_abs_Q>
0

> <r_epik_Metal_State_Penalty>
0.308736

> <b_epik_Metal_Only>
0

> <s_lp_Force_Field>
OPLS_2005

> <r_lp_Energy>
13.4006

> <b_lp_Chiralities_Consistent>
1

> <s_lp_Variant>
AV-unprocessed.smi:3253-5

> <Gold.Version>
5.8.1

> <Gold.Id.Protein>
6NUR|6NUR_protein|mol2

> <Gold.PLP.Fitness>
43.5372

> <Gold.PLP.PLP>
-30.6361

> <Gold.PLP.part.hbond>
-3.0000

> <Gold.PLP.part.metal>
0.0000

> <Gold.PLP.part.buried>
-2.6339

> <Gold.PLP.part.nonpolar>
-25.8354

> <Gold.PLP.part.repulsive>
0.2821

> <Gold.PLP.ligand.clash>
0.0000

> <Gold.PLP.ligand.torsion>
0.3338

> <Gold.PLP.Chemscore.Hbond>
2.6300

> <Gold.PLP.Chemscore.CHOScore>
1.8795

> <Gold.PLP.Chemscore.Metal>
0.0000

> <Gold.Chemscore.Hbonds>
donor molecule, donor type, donor heavy atom, donor atom, acceptor molecule, acceptor atom, score
      L1  H     9    28       P1  7948  0.75
      P1  H  6896  6907       L1    15  1.00
      P1  H 10785 10796       L1     7  0.61
      L1  C     5    25       P1 10957  0.35
      L1  C     6    26       P1 10186  0.69
      L1  C     6    26       P1 10952  0.81

> <Gold.PLP.Chemscore.Internal.Correction>
0.0403

> <Gold.Rescore>
     Score         DG    S(hbond)    S(metal)    S(lipo)     H(rot)  DE(clash)    DE(int)     intcor
     10.34     -11.83       1.48        0.00      55.03       1.97       0.53       0.96       ----

> <Gold.Chemscore.Fitness>
10.3381

> <Gold.Chemscore.DG>
-11.8331

> <Gold.Chemscore.ZeroCoef>
-5.4800

> <Gold.Chemscore.Hbond>
1.4818

> <Gold.Chemscore.Metal>
0.0000

> <Gold.Chemscore.Lipo>
55.0346

> <Gold.Chemscore.Internal_Hbond>
0.0000

> <Gold.Chemscore.DEClash>
0.5310

> <Gold.Chemscore.DEInternal>
0.9640

> <Gold.Chemscore.Rot>
1.9669

> <Gold.Chemscore.Internal.Correction>
   9.000000E+99

> <Gold.Chemscore.Hbonds>
donor molecule, donor type, donor heavy atom, donor atom, acceptor molecule, acceptor atom, score
      L1  H     9    28       P1  7948  0.09
      P1  H  6896  6907       L1    15  0.99
      P1  H 10785 10796       L1     7  0.11

> <Gold.Chemscore.Hbond.Weighted>
-4.9492

> <Gold.Chemscore.Metal.Weighted>
-0.0000

> <Gold.Chemscore.Lipo.Weighted>
-6.4391

> <Gold.Chemscore.Internal_Hbond.Weighted>
0.0000

> <Gold.Chemscore.DEClash.Weighted>
0.5310

> <Gold.Chemscore.DEInternal.Weighted>
0.9640

> <Gold.Chemscore.Rot.Weighted>
5.0352

> <Gold.Chemscore.Internal.Correction.Weighted>
   9.000000E+99

> <Gold.Protein.RotatedTorsions>
[ 6907 6896 6895 6894 ] final -137.05 input  -60.11 | X-H torsion
[ 7974 7965 7964 7962 ] final   40.83 input  175.53 | X-H torsion
[ 8008 7997 7996 7995 ] final   27.53 input   59.86 | X-H torsion
[ 10167 10162 10161 10158 ] final  109.42 input  -65.29 | X-H torsion
[ 10718 10713 10712 10709 ] final   15.39 input   66.30 | X-H torsion
[ 10763 10752 10751 10750 ] final  103.50 input  -60.55 | X-H torsion
[ 11005 11000 10999 10996 ] final   51.79 input  -57.11 | X-H torsion

> <Gold.Protein.ActiveResidues>
 VAL166  LYS551  ARG553  GLY616  TRP617  ASP618  TYR619  PRO620  LYS621  CYS622 
 ASP623  PHE694  ASN695  SER759  ASP760  ASP761  ALA762  ILE779  LEU786  VAL792 
 PHE793  MET794  SER795  GLU796  ALA797  LYS798  CYS799  TRP800  GLU811  SER814 

> <Gold.Protein.RotatedAtoms>
  151.0176  133.5906  159.2674 H   0  0  0  0  0  0  0  0  0  0  0  0  # atno 6907 bound_to 6896
  151.3035  135.0774  159.9257 H   0  0  0  0  0  0  0  0  0  0  0  0  # atno 6908 bound_to 6896
  152.5315  133.9854  159.7880 H   0  0  0  0  0  0  0  0  0  0  0  0  # atno 6909 bound_to 6896
  146.0873  139.5486  142.9499 H   0  0  0  0  0  0  0  0  0  0  0  0  # atno 7974 bound_to 7965
  155.0444  140.3173  155.4713 H   0  0  0  0  0  0  0  0  0  0  0  0  # atno 8008 bound_to 7997
  156.2848  140.2157  156.5512 H   0  0  0  0  0  0  0  0  0  0  0  0  # atno 8009 bound_to 7997
  154.7263  140.0485  157.0673 H   0  0  0  0  0  0  0  0  0  0  0  0  # atno 8010 bound_to 7997
  139.6768  144.7121  151.1588 H   0  0  0  0  0  0  0  0  0  0  0  0  # atno 10167 bound_to 10162
  157.0528  130.6277  149.5771 H   0  0  0  0  0  0  0  0  0  0  0  0  # atno 10718 bound_to 10713
  153.3535  135.3974  155.1664 H   0  0  0  0  0  0  0  0  0  0  0  0  # atno 10763 bound_to 10752
  154.8666  135.3662  154.5192 H   0  0  0  0  0  0  0  0  0  0  0  0  # atno 10764 bound_to 10752
  153.5645  135.7080  153.5592 H   0  0  0  0  0  0  0  0  0  0  0  0  # atno 10765 bound_to 10752
  140.0903  134.5218  155.8858 H   0  0  0  0  0  0  0  0  0  0  0  0  # atno 11005 bound_to 11000
  145.6106  141.0340  143.1968 LP  0  0  0  0  0  0  0  0  0  0  0  0  # atno 17320 bound_to 7965
  144.7334  139.7656  143.7338 LP  0  0  0  0  0  0  0  0  0  0  0  0  # atno 17321 bound_to 7965
  140.7638  143.5760  150.8945 LP  0  0  0  0  0  0  0  0  0  0  0  0  # atno 17342 bound_to 10162
  139.9429  143.6361  152.3049 LP  0  0  0  0  0  0  0  0  0  0  0  0  # atno 17343 bound_to 10162
  156.0002  130.5080  150.7635 LP  0  0  0  0  0  0  0  0  0  0  0  0  # atno 17370 bound_to 10713
  157.5017  131.0919  151.0306 LP  0  0  0  0  0  0  0  0  0  0  0  0  # atno 17371 bound_to 10713
  141.2076  133.6665  156.6314 LP  0  0  0  0  0  0  0  0  0  0  0  0  # atno 17394 bound_to 11000
  140.3361  134.7888  157.4363 LP  0  0  0  0  0  0  0  0  0  0  0  0  # atno 17395 bound_to 11000

$$$$
