AV-unprocessed.smi:2730|AV-procd|sdf|10529|dock6
  -GOLD-   2272014573D 1   1.00000     0.00000
 Structure written by MMmdl.
 43 44  0  0  0  0  0  0  0  0  1 V2000
  150.9995  132.8057  156.1298 C   0  0  0  0  0  0  0  0  0  0  0  0
  150.9575  134.2827  155.7115 C   0  0  0  0  0  0  0  0  0  0  0  0
  149.6135  134.7172  155.0980 C   0  0  1  0  0  0  0  0  0  0  0  0
  148.4544  134.4813  156.0812 C   0  0  0  0  0  0  0  0  0  0  0  0
  148.8081  134.7339  157.4875 C   0  0  0  0  0  0  0  0  0  0  0  0
  149.0851  134.9324  158.5930 N   0  0  0  0  0  0  0  0  0  0  0  0
  149.6729  136.1282  154.7157 N   0  0  0  0  0  0  0  0  0  0  0  0
  149.9662  137.1489  155.5355 C   0  0  0  0  0  0  0  0  0  0  0  0
  150.2406  137.0064  156.7273 O   0  0  0  0  0  0  0  0  0  0  0  0
  149.9180  138.3244  154.8845 N   0  0  0  0  0  0  0  0  0  0  0  0
  150.1510  139.6246  155.4042 C   0  0  0  0  0  0  0  0  0  0  0  0
  150.0012  140.7798  154.6859 N   0  0  0  0  0  0  0  0  0  0  0  0
  150.3389  141.6555  155.6227 C   0  0  0  0  0  0  0  0  0  0  0  0
  150.6571  141.1009  156.7973 N   0  0  0  0  0  0  0  0  0  0  0  0
  151.0876  141.7043  158.0491 C   0  0  0  0  0  0  0  0  0  0  0  0
  151.2382  143.2329  157.9110 C   0  0  0  0  0  0  0  0  0  0  0  0
  151.7066  143.8702  159.2295 C   0  0  0  0  0  0  0  0  0  0  0  0
  153.0110  143.2276  159.7280 C   0  0  0  0  0  0  0  0  0  0  0  0
  152.8620  141.7041  159.8699 C   0  0  0  0  0  0  0  0  0  0  0  0
  152.3969  141.0641  158.5514 C   0  0  0  0  0  0  0  0  0  0  0  0
  150.5445  139.7564  156.6695 N   0  0  0  0  0  0  0  0  0  0  0  0
  151.9512  132.5655  156.6039 H   0  0  0  0  0  0  0  0  0  0  0  0
  150.8825  132.1415  155.2732 H   0  0  0  0  0  0  0  0  0  0  0  0
  150.2070  132.5766  156.8428 H   0  0  0  0  0  0  0  0  0  0  0  0
  151.1626  134.8970  156.5889 H   0  0  0  0  0  0  0  0  0  0  0  0
  151.7665  134.4823  155.0077 H   0  0  0  0  0  0  0  0  0  0  0  0
  149.4415  134.0974  154.2162 H   0  0  0  0  0  0  0  0  0  0  0  0
  147.6200  135.1409  155.8415 H   0  0  0  0  0  0  0  0  0  0  0  0
  148.0843  133.4587  156.0028 H   0  0  0  0  0  0  0  0  0  0  0  0
  149.4602  136.3433  153.7525 H   0  0  0  0  0  0  0  0  0  0  0  0
  149.6803  138.2874  153.9045 H   0  0  0  0  0  0  0  0  0  0  0  0
  150.3560  142.7214  155.4492 H   0  0  0  0  0  0  0  0  0  0  0  0
  150.3123  141.5113  158.7933 H   0  0  0  0  0  0  0  0  0  0  0  0
  151.9562  143.4690  157.1245 H   0  0  0  0  0  0  0  0  0  0  0  0
  150.2890  143.6752  157.6063 H   0  0  0  0  0  0  0  0  0  0  0  0
  151.8495  144.9425  159.0938 H   0  0  0  0  0  0  0  0  0  0  0  0
  150.9302  143.7550  159.9869 H   0  0  0  0  0  0  0  0  0  0  0  0
  153.8194  143.4526  159.0311 H   0  0  0  0  0  0  0  0  0  0  0  0
  153.2983  143.6640  160.6851 H   0  0  0  0  0  0  0  0  0  0  0  0
  153.8101  141.2657  160.1822 H   0  0  0  0  0  0  0  0  0  0  0  0
  152.1433  141.4792  160.6589 H   0  0  0  0  0  0  0  0  0  0  0  0
  152.2585  139.9914  158.6926 H   0  0  0  0  0  0  0  0  0  0  0  0
  153.1795  141.1786  157.8002 H   0  0  0  0  0  0  0  0  0  0  0  0
  1  2  1  0  0  0  0
  1 22  1  0  0  0  0
  1 23  1  0  0  0  0
  1 24  1  0  0  0  0
  2  3  1  0  0  0  0
  2 25  1  0  0  0  0
  2 26  1  0  0  0  0
  3  4  1  0  0  0  0
  3  7  1  0  0  0  0
  3 27  1  0  0  0  0
  4  5  1  0  0  0  0
  4 28  1  0  0  0  0
  4 29  1  0  0  0  0
  5  6  3  0  0  0  0
  7  8  1  0  0  0  0
  7 30  1  0  0  0  0
  8  9  2  0  0  0  0
  8 10  1  0  0  0  0
 10 11  1  0  0  0  0
 10 31  1  0  0  0  0
 11 21  2  0  0  0  0
 11 12  1  0  0  0  0
 12 13  2  0  0  0  0
 13 14  1  0  0  0  0
 13 32  1  0  0  0  0
 14 15  1  0  0  0  0
 14 21  1  0  0  0  0
 15 20  1  0  0  0  0
 15 16  1  0  0  0  0
 15 33  1  0  0  0  0
 16 17  1  0  0  0  0
 16 34  1  0  0  0  0
 16 35  1  0  0  0  0
 17 18  1  0  0  0  0
 17 36  1  0  0  0  0
 17 37  1  0  0  0  0
 18 19  1  0  0  0  0
 18 38  1  0  0  0  0
 18 39  1  0  0  0  0
 19 20  1  0  0  0  0
 19 40  1  0  0  0  0
 19 41  1  0  0  0  0
 20 42  1  0  0  0  0
 20 43  1  0  0  0  0
M  END
> <s_m_source_file>
AV-unprocessed.smi

> <i_m_source_file_index>
2730

> <i_lp_mmshare_version>
43012

> <i_f3d_flags>
0

> <s_epik_input>
TiNDW0NIMl1bQ0BASF0oW0NIMl1bQ0gzXSlbTkhdQyg9TylbTkhdYzFuW2NIXW4objEpW0NIXTJbQ0gyXVtDSDJdW0NIMl1bQ0gyXVtDSDJdMg==

> <s_epik_cmdline>
J2VwaWtfcHl0aG9uJywgJy1waCcsICc3LjAnLCAnLXRuJywgJzgnLCAnLW1hJywgJzIwMCcsICctbWV0YWxfYmluZGluZycsICctaW1hZScsICc8aW5maWxlLm1hZT4nLCAnLW9tYWUnLCAnPG91dGZpbGUubWFlPic=

> <r_lp_tautomer_probability>
1

> <r_epik_Ionization_Penalty>
7.18854e-05

> <r_epik_Ionization_Penalty_Charging>
0

> <r_epik_Ionization_Penalty_Neutral>
7.18854e-05

> <r_epik_State_Penalty>
-0

> <r_epik_Charging_Adjusted_Penalty>
0

> <i_epik_Tot_Q>
0

> <i_epik_Tot_abs_Q>
0

> <r_epik_Metal_State_Penalty>
-0

> <b_epik_Metal_Only>
0

> <s_lp_Force_Field>
OPLS_2005

> <r_lp_Energy>
17.9717

> <b_lp_Chiralities_Consistent>
1

> <s_lp_Variant>
AV-unprocessed.smi:2730-2

> <Gold.Version>
5.8.1

> <Gold.Id.Protein>
6NUR|6NUR_protein|mol2

> <Gold.PLP.Fitness>
44.8922

> <Gold.PLP.PLP>
-34.2508

> <Gold.PLP.part.hbond>
-3.0000

> <Gold.PLP.part.metal>
0.0000

> <Gold.PLP.part.buried>
-4.8851

> <Gold.PLP.part.nonpolar>
-26.1350

> <Gold.PLP.part.repulsive>
0.1811

> <Gold.PLP.ligand.clash>
0.0000

> <Gold.PLP.ligand.torsion>
0.3721

> <Gold.PLP.Chemscore.Hbond>
2.7680

> <Gold.PLP.Chemscore.CHOScore>
0.9993

> <Gold.PLP.Chemscore.Metal>
0.0000

> <Gold.Chemscore.Hbonds>
donor molecule, donor type, donor heavy atom, donor atom, acceptor molecule, acceptor atom, score
      L1  H     7    30       P1  7948  1.00
      P1  H  6896  6908       L1     6  1.00
      P1  H  7989  7998       L1    12  0.77
      L1  C    13    32       P1  8028  1.00

> <Gold.PLP.Chemscore.Internal.Correction>
0.0838

> <Gold.Rescore>
     Score         DG    S(hbond)    S(metal)    S(lipo)     H(rot)  DE(clash)    DE(int)     intcor
     13.50     -17.65       2.43        0.00      74.47       1.82       0.01       4.14       ----

> <Gold.Chemscore.Fitness>
13.5038

> <Gold.Chemscore.DG>
-17.6470

> <Gold.Chemscore.ZeroCoef>
-5.4800

> <Gold.Chemscore.Hbond>
2.4327

> <Gold.Chemscore.Metal>
0.0000

> <Gold.Chemscore.Lipo>
74.4741

> <Gold.Chemscore.Internal_Hbond>
0.0000

> <Gold.Chemscore.DEClash>
0.0060

> <Gold.Chemscore.DEInternal>
4.1372

> <Gold.Chemscore.Rot>
1.8249

> <Gold.Chemscore.Internal.Correction>
   9.000000E+99

> <Gold.Chemscore.Hbonds>
donor molecule, donor type, donor heavy atom, donor atom, acceptor molecule, acceptor atom, score
      L1  H     7    30       P1  7948  0.74
      P1  H  6896  6908       L1     6  0.96
      P1  H  7989  7998       L1    12  0.10

> <Gold.Chemscore.Hbond.Weighted>
-8.1254

> <Gold.Chemscore.Metal.Weighted>
-0.0000

> <Gold.Chemscore.Lipo.Weighted>
-8.7135

> <Gold.Chemscore.Internal_Hbond.Weighted>
0.0000

> <Gold.Chemscore.DEClash.Weighted>
0.0060

> <Gold.Chemscore.DEInternal.Weighted>
4.1372

> <Gold.Chemscore.Rot.Weighted>
4.6718

> <Gold.Chemscore.Internal.Correction.Weighted>
   9.000000E+99

> <Gold.Protein.RotatedTorsions>
[ 6907 6896 6895 6894 ] final  177.98 input  -60.11 | X-H torsion
[ 7974 7965 7964 7962 ] final  -99.70 input  175.53 | X-H torsion
[ 8008 7997 7996 7995 ] final -111.38 input   59.86 | X-H torsion
[ 10167 10162 10161 10158 ] final -179.18 input  -65.29 | X-H torsion
[ 10718 10713 10712 10709 ] final   51.67 input   66.30 | X-H torsion
[ 10763 10752 10751 10750 ] final -151.79 input  -60.55 | X-H torsion
[ 11005 11000 10999 10996 ] final  151.34 input  -57.11 | X-H torsion

> <Gold.Protein.ActiveResidues>
 VAL166  LYS551  ARG553  GLY616  TRP617  ASP618  TYR619  PRO620  LYS621  CYS622 
 ASP623  PHE694  ASN695  SER759  ASP760  ASP761  ALA762  ILE779  LEU786  VAL792 
 PHE793  MET794  SER795  GLU796  ALA797  LYS798  CYS799  TRP800  GLU811  SER814 

> <Gold.Protein.RotatedAtoms>
  151.6953  133.3311  159.3252 H   0  0  0  0  0  0  0  0  0  0  0  0  # atno 6907 bound_to 6896
  150.7760  134.6663  159.6376 H   0  0  0  0  0  0  0  0  0  0  0  0  # atno 6908 bound_to 6896
  152.3803  134.6604  160.0197 H   0  0  0  0  0  0  0  0  0  0  0  0  # atno 6909 bound_to 6896
  145.3042  140.9385  143.2806 H   0  0  0  0  0  0  0  0  0  0  0  0  # atno 7974 bound_to 7965
  154.9889  140.0395  157.2311 H   0  0  0  0  0  0  0  0  0  0  0  0  # atno 8008 bound_to 7997
  154.7646  140.2791  155.6163 H   0  0  0  0  0  0  0  0  0  0  0  0  # atno 8009 bound_to 7997
  156.2910  140.2622  156.2434 H   0  0  0  0  0  0  0  0  0  0  0  0  # atno 8010 bound_to 7997
  139.5398  144.2395  152.0871 H   0  0  0  0  0  0  0  0  0  0  0  0  # atno 10167 bound_to 10162
  157.5003  130.8433  149.8308 H   0  0  0  0  0  0  0  0  0  0  0  0  # atno 10718 bound_to 10713
  154.8036  135.3251  154.7489 H   0  0  0  0  0  0  0  0  0  0  0  0  # atno 10763 bound_to 10752
  153.8152  135.6892  153.4839 H   0  0  0  0  0  0  0  0  0  0  0  0  # atno 10764 bound_to 10752
  153.1767  135.4602  154.9918 H   0  0  0  0  0  0  0  0  0  0  0  0  # atno 10765 bound_to 10752
  140.1210  134.8863  157.2072 H   0  0  0  0  0  0  0  0  0  0  0  0  # atno 11005 bound_to 11000
  144.9068  139.4578  143.6606 LP  0  0  0  0  0  0  0  0  0  0  0  0  # atno 17320 bound_to 7965
  146.3141  139.7854  142.8997 LP  0  0  0  0  0  0  0  0  0  0  0  0  # atno 17321 bound_to 7965
  140.1872  144.4787  150.6497 LP  0  0  0  0  0  0  0  0  0  0  0  0  # atno 17342 bound_to 10162
  140.6622  143.2256  151.5828 LP  0  0  0  0  0  0  0  0  0  0  0  0  # atno 17343 bound_to 10162
  156.0225  130.3790  150.1920 LP  0  0  0  0  0  0  0  0  0  0  0  0  # atno 17370 bound_to 10713
  157.0109  130.9951  151.3366 LP  0  0  0  0  0  0  0  0  0  0  0  0  # atno 17371 bound_to 10713
  140.2965  134.3181  155.7301 LP  0  0  0  0  0  0  0  0  0  0  0  0  # atno 17394 bound_to 11000
  141.2151  133.7566  156.9578 LP  0  0  0  0  0  0  0  0  0  0  0  0  # atno 17395 bound_to 11000

$$$$
