AV-unprocessed.smi:1363|AV-procd|sdf|5565|dock2
  -GOLD-   22720 5153D 1   1.00000     0.00000
 Structure written by MMmdl.
 44 45  0  0  0  0  0  0  0  0  1 V2000
  143.5531  140.8960  157.3900 C   0  0  0  0  0  0  0  0  0  0  0  0
  144.8127  140.9752  156.5552 C   0  0  0  0  0  0  0  0  0  0  0  0
  144.9271  142.1499  155.8305 N   0  0  0  0  0  0  0  0  0  0  0  0
  146.0535  142.3192  155.0450 C   0  0  0  0  0  0  0  0  0  0  0  0
  146.1036  143.6355  154.2888 C   0  0  0  0  0  0  0  0  0  0  0  0
  147.0146  141.3631  154.9797 C   0  0  0  0  0  0  0  0  0  0  0  0
  148.2730  141.5144  154.1260 C   0  0  0  0  0  0  0  0  0  0  0  0
  149.5989  141.2125  154.8289 C   0  0  0  0  0  0  0  0  0  0  0  0
  150.3316  140.3121  154.4188 O   0  0  0  0  0  0  0  0  0  0  0  0
  149.8976  141.9820  155.8862 N   0  0  0  0  0  0  0  0  0  0  0  0
  151.1175  141.8828  156.6782 C   0  0  0  0  0  0  0  0  0  0  0  0
  150.8513  141.2015  158.0354 C   0  0  0  0  0  0  0  0  0  0  0  0
  151.5938  141.7902  159.2308 C   0  0  0  0  0  0  0  0  0  0  0  0
  151.4767  143.0702  159.6449 C   0  0  0  0  0  0  0  0  0  0  0  0
  152.1931  143.6460  160.8540 C   0  0  0  0  0  0  0  0  0  0  0  0
  152.7765  142.5551  161.7659 C   0  0  0  0  0  0  0  0  0  0  0  0
  153.4687  141.4640  160.9420 C   0  0  0  0  0  0  0  0  0  0  0  0
  152.4878  140.7953  159.9622 C   0  0  0  0  0  0  0  0  0  0  0  0
  146.8299  140.1214  155.7677 C   0  0  0  0  0  0  0  0  0  0  0  0
  147.6554  139.2098  155.7368 O   0  0  0  0  0  0  0  0  0  0  0  0
  145.6746  140.0042  156.5575 N   0  0  0  0  0  0  0  0  0  0  0  0
  144.2363  142.8862  155.8499 H   0  0  0  0  0  0  0  0  0  0  0  0
  143.4508  139.9120  157.8494 H   0  0  0  0  0  0  0  0  0  0  0  0
  142.6730  141.0754  156.7718 H   0  0  0  0  0  0  0  0  0  0  0  0
  143.5776  141.6429  158.1841 H   0  0  0  0  0  0  0  0  0  0  0  0
  146.9749  144.2167  154.5909 H   0  0  0  0  0  0  0  0  0  0  0  0
  145.2163  144.2411  154.4779 H   0  0  0  0  0  0  0  0  0  0  0  0
  146.1625  143.4569  153.2148 H   0  0  0  0  0  0  0  0  0  0  0  0
  148.3337  142.5160  153.6998 H   0  0  0  0  0  0  0  0  0  0  0  0
  148.1790  140.8528  153.2641 H   0  0  0  0  0  0  0  0  0  0  0  0
  149.2368  142.6966  156.1548 H   0  0  0  0  0  0  0  0  0  0  0  0
  151.8366  141.3017  156.1000 H   0  0  0  0  0  0  0  0  0  0  0  0
  151.5503  142.8750  156.8194 H   0  0  0  0  0  0  0  0  0  0  0  0
  149.7841  141.2391  158.2579 H   0  0  0  0  0  0  0  0  0  0  0  0
  151.1142  140.1453  157.9633 H   0  0  0  0  0  0  0  0  0  0  0  0
  150.8509  143.7697  159.1125 H   0  0  0  0  0  0  0  0  0  0  0  0
  152.9871  144.3010  160.4942 H   0  0  0  0  0  0  0  0  0  0  0  0
  151.4992  144.2688  161.4194 H   0  0  0  0  0  0  0  0  0  0  0  0
  153.4748  142.9966  162.4776 H   0  0  0  0  0  0  0  0  0  0  0  0
  151.9764  142.1053  162.3555 H   0  0  0  0  0  0  0  0  0  0  0  0
  154.2947  141.9072  160.3841 H   0  0  0  0  0  0  0  0  0  0  0  0
  153.9084  140.7129  161.5989 H   0  0  0  0  0  0  0  0  0  0  0  0
  151.8437  140.0986  160.4998 H   0  0  0  0  0  0  0  0  0  0  0  0
  153.0497  140.2063  159.2367 H   0  0  0  0  0  0  0  0  0  0  0  0
  1 23  1  0  0  0  0
  1 24  1  0  0  0  0
  1 25  1  0  0  0  0
  1  2  1  0  0  0  0
  2  3  1  0  0  0  0
  2 21  2  0  0  0  0
  3  4  1  0  0  0  0
  3 22  1  0  0  0  0
  4  6  2  0  0  0  0
  4  5  1  0  0  0  0
  5 26  1  0  0  0  0
  5 27  1  0  0  0  0
  5 28  1  0  0  0  0
  6 19  1  0  0  0  0
  6  7  1  0  0  0  0
  7  8  1  0  0  0  0
  7 29  1  0  0  0  0
  7 30  1  0  0  0  0
  8  9  2  0  0  0  0
  8 10  1  0  0  0  0
 10 11  1  0  0  0  0
 10 31  1  0  0  0  0
 11 12  1  0  0  0  0
 11 32  1  0  0  0  0
 11 33  1  0  0  0  0
 12 13  1  0  0  0  0
 12 34  1  0  0  0  0
 12 35  1  0  0  0  0
 13 18  1  0  0  0  0
 13 14  2  0  0  0  0
 14 15  1  0  0  0  0
 14 36  1  0  0  0  0
 15 16  1  0  0  0  0
 15 37  1  0  0  0  0
 15 38  1  0  0  0  0
 16 17  1  0  0  0  0
 16 39  1  0  0  0  0
 16 40  1  0  0  0  0
 17 18  1  0  0  0  0
 17 41  1  0  0  0  0
 17 42  1  0  0  0  0
 18 43  1  0  0  0  0
 18 44  1  0  0  0  0
 19 20  2  0  0  0  0
 19 21  1  0  0  0  0
M  END
> <s_m_source_file>
AV-unprocessed.smi

> <i_m_source_file_index>
1363

> <i_lp_mmshare_version>
43012

> <i_f3d_flags>
0

> <s_epik_input>
W0NIM11jMW5jKFtDSDNdKWMoYyg9TylbbkhdMSlbQ0gyXUMoPU8pW05IXVtDSDJdW0NIMl1DMj1bQ0hdW0NIMl1bQ0gyXVtDSDJdW0NIMl0y

> <s_epik_cmdline>
J2VwaWtfcHl0aG9uJywgJy1waCcsICc3LjAnLCAnLXRuJywgJzgnLCAnLW1hJywgJzIwMCcsICctbWV0YWxfYmluZGluZycsICctaW1hZScsICc8aW5maWxlLm1hZT4nLCAnLW9tYWUnLCAnPG91dGZpbGUubWFlPic=

> <r_lp_tautomer_probability>
0.156392

> <r_epik_Ionization_Penalty>
0.0140998

> <r_epik_Ionization_Penalty_Charging>
0.0139776

> <r_epik_Ionization_Penalty_Neutral>
0.000122158

> <r_epik_State_Penalty>
1.53009

> <r_epik_Charging_Adjusted_Penalty>
1.54407

> <i_epik_Tot_Q>
0

> <i_epik_Tot_abs_Q>
0

> <r_epik_Metal_State_Penalty>
1.7066

> <b_epik_Metal_Only>
0

> <s_lp_Force_Field>
OPLS_2005

> <r_lp_Energy>
12.7953

> <b_lp_Chiralities_Consistent>
1

> <s_lp_Variant>
AV-unprocessed.smi:1363-2

> <Gold.Version>
5.8.1

> <Gold.Id.Protein>
6NUR|6NUR_protein|mol2

> <Gold.PLP.Fitness>
46.8060

> <Gold.PLP.PLP>
-42.2533

> <Gold.PLP.part.hbond>
-2.0000

> <Gold.PLP.part.metal>
0.0000

> <Gold.PLP.part.buried>
-6.0473

> <Gold.PLP.part.nonpolar>
-32.9134

> <Gold.PLP.part.repulsive>
0.2912

> <Gold.PLP.ligand.clash>
0.0000

> <Gold.PLP.ligand.torsion>
0.4807

> <Gold.PLP.Chemscore.Hbond>
1.8160

> <Gold.PLP.Chemscore.CHOScore>
0.0000

> <Gold.PLP.Chemscore.Metal>
0.0000

> <Gold.Chemscore.Hbonds>
donor molecule, donor type, donor heavy atom, donor atom, acceptor molecule, acceptor atom, score
      L1  H    10    31       P1  8028  0.59
      P1  H  7989  7998       L1     9  1.00

> <Gold.PLP.Chemscore.Internal.Correction>
0.0660

> <Gold.Rescore>
     Score         DG    S(hbond)    S(metal)    S(lipo)     H(rot)  DE(clash)    DE(int)     intcor
     16.70     -17.60       1.44        0.00     103.26       1.86       0.14       0.76       ----

> <Gold.Chemscore.Fitness>
16.6991

> <Gold.Chemscore.DG>
-17.6036

> <Gold.Chemscore.ZeroCoef>
-5.4800

> <Gold.Chemscore.Hbond>
1.4406

> <Gold.Chemscore.Metal>
0.0000

> <Gold.Chemscore.Lipo>
103.2615

> <Gold.Chemscore.Internal_Hbond>
0.0000

> <Gold.Chemscore.DEClash>
0.1440

> <Gold.Chemscore.DEInternal>
0.7605

> <Gold.Chemscore.Rot>
1.8631

> <Gold.Chemscore.Internal.Correction>
   9.000000E+99

> <Gold.Chemscore.Hbonds>
donor molecule, donor type, donor heavy atom, donor atom, acceptor molecule, acceptor atom, score
      L1  H    10    31       P1  8028  0.58
      P1  H  7989  7998       L1     9  0.82

> <Gold.Chemscore.Hbond.Weighted>
-4.8117

> <Gold.Chemscore.Metal.Weighted>
-0.0000

> <Gold.Chemscore.Lipo.Weighted>
-12.0816

> <Gold.Chemscore.Internal_Hbond.Weighted>
0.0000

> <Gold.Chemscore.DEClash.Weighted>
0.1440

> <Gold.Chemscore.DEInternal.Weighted>
0.7605

> <Gold.Chemscore.Rot.Weighted>
4.7697

> <Gold.Chemscore.Internal.Correction.Weighted>
   9.000000E+99

> <Gold.Protein.RotatedTorsions>
[ 6907 6896 6895 6894 ] final   47.78 input  -60.11 | X-H torsion
[ 7974 7965 7964 7962 ] final -168.81 input  175.53 | X-H torsion
[ 8008 7997 7996 7995 ] final -171.03 input   59.86 | X-H torsion
[ 10167 10162 10161 10158 ] final   55.47 input  -65.29 | X-H torsion
[ 10718 10713 10712 10709 ] final  154.56 input   66.30 | X-H torsion
[ 10763 10752 10751 10750 ] final  167.32 input  -60.55 | X-H torsion
[ 11005 11000 10999 10996 ] final -126.45 input  -57.11 | X-H torsion

> <Gold.Protein.ActiveResidues>
 VAL166  LYS551  ARG553  GLY616  TRP617  ASP618  TYR619  PRO620  LYS621  CYS622 
 ASP623  PHE694  ASN695  SER759  ASP760  ASP761  ALA762  ILE779  LEU786  VAL792 
 PHE793  MET794  SER795  GLU796  ALA797  LYS798  CYS799  TRP800  GLU811  SER814 

> <Gold.Protein.RotatedAtoms>
  152.2720  134.7922  160.0412 H   0  0  0  0  0  0  0  0  0  0  0  0  # atno 6907 bound_to 6896
  151.8531  133.3438  159.3688 H   0  0  0  0  0  0  0  0  0  0  0  0  # atno 6908 bound_to 6896
  150.7156  134.5207  159.5696 H   0  0  0  0  0  0  0  0  0  0  0  0  # atno 6909 bound_to 6896
  144.7196  140.2315  143.6303 H   0  0  0  0  0  0  0  0  0  0  0  0  # atno 7974 bound_to 7965
  155.9262  140.1083  157.1168 H   0  0  0  0  0  0  0  0  0  0  0  0  # atno 8008 bound_to 7997
  154.4063  140.1246  156.4809 H   0  0  0  0  0  0  0  0  0  0  0  0  # atno 8009 bound_to 7997
  155.7135  140.3470  155.4987 H   0  0  0  0  0  0  0  0  0  0  0  0  # atno 8010 bound_to 7997
  140.2191  144.3808  150.6458 H   0  0  0  0  0  0  0  0  0  0  0  0  # atno 10167 bound_to 10162
  157.2300  131.0737  151.1859 H   0  0  0  0  0  0  0  0  0  0  0  0  # atno 10718 bound_to 10713
  154.3521  135.2753  155.2366 H   0  0  0  0  0  0  0  0  0  0  0  0  # atno 10763 bound_to 10752
  154.4591  135.5911  153.6247 H   0  0  0  0  0  0  0  0  0  0  0  0  # atno 10764 bound_to 10752
  152.9849  135.6060  154.3732 H   0  0  0  0  0  0  0  0  0  0  0  0  # atno 10765 bound_to 10752
  140.9680  134.0844  157.3899 H   0  0  0  0  0  0  0  0  0  0  0  0  # atno 11005 bound_to 11000
  145.8406  139.2128  143.1830 LP  0  0  0  0  0  0  0  0  0  0  0  0  # atno 17320 bound_to 7965
  146.0350  140.8221  142.9857 LP  0  0  0  0  0  0  0  0  0  0  0  0  # atno 17321 bound_to 7965
  140.6268  143.2182  151.6579 LP  0  0  0  0  0  0  0  0  0  0  0  0  # atno 17342 bound_to 10162
  139.5151  144.3390  152.0758 LP  0  0  0  0  0  0  0  0  0  0  0  0  # atno 17343 bound_to 10162
  157.3488  130.7071  149.6427 LP  0  0  0  0  0  0  0  0  0  0  0  0  # atno 17370 bound_to 10713
  155.9676  130.4258  150.4673 LP  0  0  0  0  0  0  0  0  0  0  0  0  # atno 17371 bound_to 10713
  139.8902  135.0110  156.6721 LP  0  0  0  0  0  0  0  0  0  0  0  0  # atno 17394 bound_to 11000
  140.7370  133.9010  155.8251 LP  0  0  0  0  0  0  0  0  0  0  0  0  # atno 17395 bound_to 11000

$$$$
