AV-unprocessed.smi:1157|AV-procd|sdf|4909|dock9
  -GOLD-   22720 3483D 1   1.00000     0.00000
 Structure written by MMmdl.
 56 58  0  0  0  0  0  0  0  0  3 V2000
  145.3468  137.5581  154.7541 C   0  0  0  0  0  0  0  0  0  0  0  0
  145.2352  137.2368  153.2397 C   0  0  0  0  0  0  0  0  0  0  0  0
  143.7531  137.4057  152.8255 C   0  0  0  0  0  0  0  0  0  0  0  0
  146.1229  138.2527  152.4567 C   0  0  0  0  0  0  0  0  0  0  0  0
  147.4424  138.4748  153.0495 N   0  0  0  0  0  0  0  0  0  0  0  0
  147.7665  139.4842  153.8706 C   0  0  0  0  0  0  0  0  0  0  0  0
  146.9779  140.3681  154.2044 O   0  0  0  0  0  0  0  0  0  0  0  0
  149.0545  139.4123  154.2481 N   0  0  0  0  0  0  0  0  0  0  0  0
  149.7661  140.2818  155.1181 C   0  0  0  0  0  0  0  0  0  0  0  0
  150.8643  139.8777  155.9166 C   0  0  0  0  0  0  0  0  0  0  0  0
  151.5149  140.8244  156.7345 C   0  0  0  0  0  0  0  0  0  0  0  0
  151.0704  142.1674  156.7467 C   0  0  0  0  0  0  0  0  0  0  0  0
  151.6756  143.1637  157.5358 N   0  0  0  0  0  0  0  0  0  0  0  0
  151.1618  144.5238  157.5715 C   0  0  0  0  0  0  0  0  0  0  0  0
  151.9815  145.2169  158.6589 C   0  0  0  0  0  0  0  0  0  0  0  0
  152.2644  144.0887  159.6512 C   0  0  0  0  0  0  0  0  0  0  0  0
  152.3666  142.8346  158.7749 C   0  0  0  0  0  0  0  0  0  0  0  0
  150.0287  142.5102  155.9516 N   0  3  0  0  0  0  0  0  0  0  0  0
  149.3782  141.6367  155.1533 C   0  0  0  0  0  0  0  0  0  0  0  0
  145.7299  135.8382  152.9528 N   0  3  0  0  0  0  0  0  0  0  0  0
  145.6903  134.8775  154.0940 C   0  0  0  0  0  0  0  0  0  0  0  0
  146.3523  133.5411  153.7139 C   0  0  0  0  0  0  0  0  0  0  0  0
  145.7255  132.9950  152.5632 O   0  0  0  0  0  0  0  0  0  0  0  0
  145.8556  133.8569  151.4429 C   0  0  0  0  0  0  0  0  0  0  0  0
  145.1494  135.1887  151.7414 C   0  0  0  0  0  0  0  0  0  0  0  0
  145.0807  138.5907  154.9773 H   0  0  0  0  0  0  0  0  0  0  0  0
  146.3608  137.3979  155.1231 H   0  0  0  0  0  0  0  0  0  0  0  0
  144.6655  136.9579  155.3568 H   0  0  0  0  0  0  0  0  0  0  0  0
  143.3664  138.3803  153.1251 H   0  0  0  0  0  0  0  0  0  0  0  0
  143.1133  136.6566  153.2917 H   0  0  0  0  0  0  0  0  0  0  0  0
  143.6171  137.3347  151.7461 H   0  0  0  0  0  0  0  0  0  0  0  0
  146.2115  137.9424  151.4140 H   0  0  0  0  0  0  0  0  0  0  0  0
  145.6632  139.2388  152.4325 H   0  0  0  0  0  0  0  0  0  0  0  0
  148.1588  137.8004  152.8223 H   0  0  0  0  0  0  0  0  0  0  0  0
  149.6040  138.6812  153.8204 H   0  0  0  0  0  0  0  0  0  0  0  0
  151.2326  138.8635  155.9074 H   0  0  0  0  0  0  0  0  0  0  0  0
  152.3553  140.5089  157.3350 H   0  0  0  0  0  0  0  0  0  0  0  0
  151.2688  145.0214  156.6071 H   0  0  0  0  0  0  0  0  0  0  0  0
  150.1042  144.5072  157.8388 H   0  0  0  0  0  0  0  0  0  0  0  0
  152.9200  145.5820  158.2391 H   0  0  0  0  0  0  0  0  0  0  0  0
  151.4611  146.0628  159.1091 H   0  0  0  0  0  0  0  0  0  0  0  0
  153.1603  144.2615  160.2482 H   0  0  0  0  0  0  0  0  0  0  0  0
  151.4211  143.9879  160.3358 H   0  0  0  0  0  0  0  0  0  0  0  0
  151.9275  141.9723  159.2777 H   0  0  0  0  0  0  0  0  0  0  0  0
  153.4083  142.6061  158.5469 H   0  0  0  0  0  0  0  0  0  0  0  0
  148.5651  142.0489  154.5733 H   0  0  0  0  0  0  0  0  0  0  0  0
  146.2310  135.2566  154.9592 H   0  0  0  0  0  0  0  0  0  0  0  0
  144.6588  134.7058  154.4037 H   0  0  0  0  0  0  0  0  0  0  0  0
  147.4199  133.6746  153.5315 H   0  0  0  0  0  0  0  0  0  0  0  0
  146.2587  132.8301  154.5352 H   0  0  0  0  0  0  0  0  0  0  0  0
  146.9084  134.0152  151.2026 H   0  0  0  0  0  0  0  0  0  0  0  0
  145.4003  133.3771  150.5763 H   0  0  0  0  0  0  0  0  0  0  0  0
  144.0861  134.9978  151.8894 H   0  0  0  0  0  0  0  0  0  0  0  0
  145.2413  135.8188  150.8599 H   0  0  0  0  0  0  0  0  0  0  0  0
  146.7130  135.9536  152.7509 H   0  0  0  0  0  0  0  0  0  0  0  0
  149.7177  143.4817  155.9554 H   0  0  0  0  0  0  0  0  0  0  0  0
  1  2  1  0  0  0  0
  1 26  1  0  0  0  0
  1 27  1  0  0  0  0
  1 28  1  0  0  0  0
  2  3  1  0  0  0  0
  2  4  1  0  0  0  0
  2 20  1  0  0  0  0
  3 29  1  0  0  0  0
  3 30  1  0  0  0  0
  3 31  1  0  0  0  0
  4  5  1  0  0  0  0
  4 32  1  0  0  0  0
  4 33  1  0  0  0  0
  5  6  1  0  0  0  0
  5 34  1  0  0  0  0
  6  7  2  0  0  0  0
  6  8  1  0  0  0  0
  8  9  1  0  0  0  0
  8 35  1  0  0  0  0
  9 19  1  0  0  0  0
  9 10  2  0  0  0  0
 10 11  1  0  0  0  0
 10 36  1  0  0  0  0
 11 12  2  0  0  0  0
 11 37  1  0  0  0  0
 12 13  1  0  0  0  0
 12 18  1  0  0  0  0
 13 17  1  0  0  0  0
 13 14  1  0  0  0  0
 14 15  1  0  0  0  0
 14 38  1  0  0  0  0
 14 39  1  0  0  0  0
 15 16  1  0  0  0  0
 15 40  1  0  0  0  0
 15 41  1  0  0  0  0
 16 17  1  0  0  0  0
 16 42  1  0  0  0  0
 16 43  1  0  0  0  0
 17 44  1  0  0  0  0
 17 45  1  0  0  0  0
 18 19  2  0  0  0  0
 18 56  1  0  0  0  0
 19 46  1  0  0  0  0
 20 25  1  0  0  0  0
 20 21  1  0  0  0  0
 20 55  1  0  0  0  0
 21 22  1  0  0  0  0
 21 47  1  0  0  0  0
 21 48  1  0  0  0  0
 22 23  1  0  0  0  0
 22 49  1  0  0  0  0
 22 50  1  0  0  0  0
 23 24  1  0  0  0  0
 24 25  1  0  0  0  0
 24 51  1  0  0  0  0
 24 52  1  0  0  0  0
 25 53  1  0  0  0  0
 25 54  1  0  0  0  0
M  CHG  1  18   1
M  CHG  1  20   1
M  END
> <s_m_source_file>
AV-unprocessed.smi

> <i_m_source_file_index>
1157

> <i_lp_mmshare_version>
43012

> <i_f3d_flags>
0

> <s_epik_input>
W0NIMl0xW0NIMl1PW0NIMl1bQ0gyXU4xQyhbQ0gzXSkoW0NIM10pW0NIMl1bTkhdQyg9TylbTkhdYzJbY0hdW2NIXWMobltjSF0yKU4zW0NIMl1bQ0gyXVtDSDJdW0NIMl0z

> <s_epik_cmdline>
J2VwaWtfcHl0aG9uJywgJy1waCcsICc3LjAnLCAnLXRuJywgJzgnLCAnLW1hJywgJzIwMCcsICctbWV0YWxfYmluZGluZycsICctaW1hZScsICc8aW5maWxlLm1hZT4nLCAnLW9tYWUnLCAnPG91dGZpbGUubWFlPic=

> <r_lp_tautomer_probability>
0.999994

> <r_epik_Ionization_Penalty>
1.80144

> <r_epik_Ionization_Penalty_Charging>
1.80142

> <r_epik_Ionization_Penalty_Neutral>
2.04065e-05

> <r_epik_State_Penalty>
1.84115

> <r_epik_Charging_Adjusted_Penalty>
3.64257

> <i_epik_Tot_Q>
2

> <i_epik_Tot_abs_Q>
2

> <r_epik_Metal_State_Penalty>
1.92436

> <b_epik_Metal_Only>
0

> <s_lp_Force_Field>
OPLS_2005

> <r_lp_Energy>
58.4852

> <b_lp_Chiralities_Consistent>
1

> <s_lp_Variant>
AV-unprocessed.smi:1157-4

> <Gold.Version>
5.8.1

> <Gold.Id.Protein>
6NUR|6NUR_protein|mol2

> <Gold.PLP.Fitness>
58.7477

> <Gold.PLP.PLP>
-47.4381

> <Gold.PLP.part.hbond>
-4.9830

> <Gold.PLP.part.metal>
0.0000

> <Gold.PLP.part.buried>
-4.3306

> <Gold.PLP.part.nonpolar>
-38.2090

> <Gold.PLP.part.repulsive>
0.5212

> <Gold.PLP.ligand.clash>
0.0000

> <Gold.PLP.ligand.torsion>
1.9187

> <Gold.PLP.Chemscore.Hbond>
4.9440

> <Gold.PLP.Chemscore.CHOScore>
0.0000

> <Gold.PLP.Chemscore.Metal>
0.0000

> <Gold.Chemscore.Hbonds>
donor molecule, donor type, donor heavy atom, donor atom, acceptor molecule, acceptor atom, score
      L1  H     5    34       P1  7948  1.00
      L1  H    18    56       P1  8028  1.95
      L1  H    20    55       P1  7948  0.10

> <Gold.PLP.Chemscore.Internal.Correction>
0.3150

> <Gold.Rescore>
     Score         DG    S(hbond)    S(metal)    S(lipo)     H(rot)  DE(clash)    DE(int)     intcor
     20.34     -24.61       2.83        0.00     114.25       1.45       1.03       3.24       ----

> <Gold.Chemscore.Fitness>
20.3423

> <Gold.Chemscore.DG>
-24.6080

> <Gold.Chemscore.ZeroCoef>
-5.4800

> <Gold.Chemscore.Hbond>
2.8330

> <Gold.Chemscore.Metal>
0.0000

> <Gold.Chemscore.Lipo>
114.2472

> <Gold.Chemscore.Internal_Hbond>
0.0000

> <Gold.Chemscore.DEClash>
1.0258

> <Gold.Chemscore.DEInternal>
3.2399

> <Gold.Chemscore.Rot>
1.4458

> <Gold.Chemscore.Internal.Correction>
   9.000000E+99

> <Gold.Chemscore.Hbonds>
donor molecule, donor type, donor heavy atom, donor atom, acceptor molecule, acceptor atom, score
      L1  H     5    34       P1  7948  0.95
      L1  H    18    56       P1  8028  0.91
      L1  H    20    55       P1  7948  0.09

> <Gold.Chemscore.Hbond.Weighted>
-9.4623

> <Gold.Chemscore.Metal.Weighted>
-0.0000

> <Gold.Chemscore.Lipo.Weighted>
-13.3669

> <Gold.Chemscore.Internal_Hbond.Weighted>
0.0000

> <Gold.Chemscore.DEClash.Weighted>
1.0258

> <Gold.Chemscore.DEInternal.Weighted>
3.2399

> <Gold.Chemscore.Rot.Weighted>
3.7012

> <Gold.Chemscore.Internal.Correction.Weighted>
   9.000000E+99

> <Gold.Protein.RotatedTorsions>
[ 6907 6896 6895 6894 ] final  113.81 input  -60.11 | X-H torsion
[ 7974 7965 7964 7962 ] final  116.20 input  175.53 | X-H torsion
[ 8008 7997 7996 7995 ] final -168.34 input   59.86 | X-H torsion
[ 10167 10162 10161 10158 ] final -118.21 input  -65.29 | X-H torsion
[ 10718 10713 10712 10709 ] final  -16.23 input   66.30 | X-H torsion
[ 10763 10752 10751 10750 ] final -140.45 input  -60.55 | X-H torsion
[ 11005 11000 10999 10996 ] final   55.89 input  -57.11 | X-H torsion

> <Gold.Protein.ActiveResidues>
 VAL166  LYS551  ARG553  GLY616  TRP617  ASP618  TYR619  PRO620  LYS621  CYS622 
 ASP623  PHE694  ASN695  SER759  ASP760  ASP761  ALA762  ILE779  LEU786  VAL792 
 PHE793  MET794  SER795  GLU796  ALA797  LYS798  CYS799  TRP800  GLU811  SER814 

> <Gold.Protein.RotatedAtoms>
  152.4839  133.8324  159.7109 H   0  0  0  0  0  0  0  0  0  0  0  0  # atno 6907 bound_to 6896
  150.8910  133.7233  159.2911 H   0  0  0  0  0  0  0  0  0  0  0  0  # atno 6908 bound_to 6896
  151.4706  135.1049  159.9802 H   0  0  0  0  0  0  0  0  0  0  0  0  # atno 6909 bound_to 6896
  145.1826  139.3042  143.4410 H   0  0  0  0  0  0  0  0  0  0  0  0  # atno 7974 bound_to 7965
  155.8901  140.1023  157.1424 H   0  0  0  0  0  0  0  0  0  0  0  0  # atno 8008 bound_to 7997
  154.4014  140.1312  156.4369 H   0  0  0  0  0  0  0  0  0  0  0  0  # atno 8009 bound_to 7997
  155.7543  140.3464  155.5168 H   0  0  0  0  0  0  0  0  0  0  0  0  # atno 8010 bound_to 7997
  140.0599  143.4978  152.2037 H   0  0  0  0  0  0  0  0  0  0  0  0  # atno 10167 bound_to 10162
  156.5906  130.4798  149.6281 H   0  0  0  0  0  0  0  0  0  0  0  0  # atno 10718 bound_to 10713
  154.8578  135.3553  154.5710 H   0  0  0  0  0  0  0  0  0  0  0  0  # atno 10763 bound_to 10752
  153.6323  135.7002  153.5276 H   0  0  0  0  0  0  0  0  0  0  0  0  # atno 10764 bound_to 10752
  153.3040  135.4198  155.1237 H   0  0  0  0  0  0  0  0  0  0  0  0  # atno 10765 bound_to 10752
  140.0572  134.5654  155.9194 H   0  0  0  0  0  0  0  0  0  0  0  0  # atno 11005 bound_to 11000
  146.3450  140.2011  142.8589 LP  0  0  0  0  0  0  0  0  0  0  0  0  # atno 17320 bound_to 7965
  145.0121  140.8723  143.5218 LP  0  0  0  0  0  0  0  0  0  0  0  0  # atno 17321 bound_to 7965
  139.5900  144.7546  151.3424 LP  0  0  0  0  0  0  0  0  0  0  0  0  # atno 17342 bound_to 10162
  140.7177  143.7222  150.7687 LP  0  0  0  0  0  0  0  0  0  0  0  0  # atno 17343 bound_to 10162
  156.2553  130.6931  151.1682 LP  0  0  0  0  0  0  0  0  0  0  0  0  # atno 17370 bound_to 10713
  157.7304  131.0616  150.5726 LP  0  0  0  0  0  0  0  0  0  0  0  0  # atno 17371 bound_to 10713
  141.1957  133.6588  156.5656 LP  0  0  0  0  0  0  0  0  0  0  0  0  # atno 17394 bound_to 11000
  140.3826  134.7510  157.4671 LP  0  0  0  0  0  0  0  0  0  0  0  0  # atno 17395 bound_to 11000

$$$$
