AV-unprocessed.smi:2944|AV-procd|sdf|11275|dock4
  -GOLD-   2272016163D 1   1.00000     0.00000
 Structure written by MMmdl.
 45 47  0  0  0  0  0  0  0  0  2 V2000
  151.1781  138.0167  154.2043 C   0  0  0  0  0  0  0  0  0  0  0  0
  151.5719  139.2409  154.7979 O   0  0  0  0  0  0  0  0  0  0  0  0
  152.2975  139.0514  156.0015 C   0  0  0  0  0  0  0  0  0  0  0  0
  151.5079  139.6132  157.1925 C   0  0  0  0  0  0  0  0  0  0  0  0
  151.2788  141.0614  157.0783 N   0  0  0  0  0  0  0  0  0  0  0  0
  150.5188  141.7670  156.1955 C   0  0  0  0  0  0  0  0  0  0  0  0
  149.5464  141.1112  154.8813 S   0  0  0  0  0  0  0  0  0  0  0  0
  147.9102  141.8709  155.1085 C   0  0  1  0  0  0  0  0  0  0  0  0
  146.9071  141.2734  154.1113 C   0  0  0  0  0  0  0  0  0  0  0  0
  147.4048  141.7034  156.5580 C   0  0  0  0  0  0  0  0  0  0  0  0
  148.0716  140.9854  157.3063 O   0  0  0  0  0  0  0  0  0  0  0  0
  146.3017  142.3502  157.0248 N   0  0  0  0  0  0  0  0  0  0  0  0
  145.4159  143.0665  156.1053 C   0  0  0  0  0  0  0  0  0  0  0  0
  144.2960  143.5973  156.9911 C   0  0  0  0  0  0  0  0  0  0  0  0
  144.7210  143.1645  158.2986 N   0  0  0  0  0  0  0  0  0  0  0  0
  145.8704  142.4851  158.3024 C   0  0  0  0  0  0  0  0  0  0  0  0
  146.4063  142.0845  159.3347 O   0  0  0  0  0  0  0  0  0  0  0  0
  150.6250  143.0855  156.5147 N   0  3  0  0  0  0  0  0  0  0  0  0
  151.4671  143.2300  157.6180 C   0  0  0  0  0  0  0  0  0  0  0  0
  151.8804  144.3681  158.3038 C   0  0  0  0  0  0  0  0  0  0  0  0
  152.7453  144.1677  159.3995 C   0  0  0  0  0  0  0  0  0  0  0  0
  153.1637  142.8754  159.7778 C   0  0  0  0  0  0  0  0  0  0  0  0
  152.7385  141.7289  159.0750 C   0  0  0  0  0  0  0  0  0  0  0  0
  151.8874  141.9347  157.9890 C   0  0  0  0  0  0  0  0  0  0  0  0
  150.6111  138.2158  153.2950 H   0  0  0  0  0  0  0  0  0  0  0  0
  150.5454  137.4362  154.8767 H   0  0  0  0  0  0  0  0  0  0  0  0
  152.0460  137.4153  153.9326 H   0  0  0  0  0  0  0  0  0  0  0  0
  152.4977  137.9901  156.1548 H   0  0  0  0  0  0  0  0  0  0  0  0
  153.2610  139.5536  155.9331 H   0  0  0  0  0  0  0  0  0  0  0  0
  150.5498  139.1052  157.3005 H   0  0  0  0  0  0  0  0  0  0  0  0
  152.0540  139.4348  158.1194 H   0  0  0  0  0  0  0  0  0  0  0  0
  148.0717  142.9175  154.8654 H   0  0  0  0  0  0  0  0  0  0  0  0
  145.9283  141.7462  154.2019 H   0  0  0  0  0  0  0  0  0  0  0  0
  146.7758  140.2023  154.2696 H   0  0  0  0  0  0  0  0  0  0  0  0
  147.2452  141.4178  153.0849 H   0  0  0  0  0  0  0  0  0  0  0  0
  145.9470  143.8845  155.6149 H   0  0  0  0  0  0  0  0  0  0  0  0
  145.0246  142.3985  155.3359 H   0  0  0  0  0  0  0  0  0  0  0  0
  144.2161  144.6841  156.9484 H   0  0  0  0  0  0  0  0  0  0  0  0
  143.3303  143.1583  156.7385 H   0  0  0  0  0  0  0  0  0  0  0  0
  144.2065  143.3980  159.1356 H   0  0  0  0  0  0  0  0  0  0  0  0
  151.5588  145.3591  158.0182 H   0  0  0  0  0  0  0  0  0  0  0  0
  153.0931  145.0218  159.9625 H   0  0  0  0  0  0  0  0  0  0  0  0
  153.8242  142.7608  160.6251 H   0  0  0  0  0  0  0  0  0  0  0  0
  153.0613  140.7441  159.3785 H   0  0  0  0  0  0  0  0  0  0  0  0
  150.1547  143.8281  156.0136 H   0  0  0  0  0  0  0  0  0  0  0  0
  1  2  1  0  0  0  0
  1 25  1  0  0  0  0
  1 26  1  0  0  0  0
  1 27  1  0  0  0  0
  2  3  1  0  0  0  0
  3  4  1  0  0  0  0
  3 28  1  0  0  0  0
  3 29  1  0  0  0  0
  4  5  1  0  0  0  0
  4 30  1  0  0  0  0
  4 31  1  0  0  0  0
  5 24  1  0  0  0  0
  5  6  1  0  0  0  0
  6  7  1  0  0  0  0
  6 18  2  0  0  0  0
  7  8  1  0  0  0  0
  8  9  1  0  0  0  0
  8 10  1  0  0  0  0
  8 32  1  0  0  0  0
  9 33  1  0  0  0  0
  9 34  1  0  0  0  0
  9 35  1  0  0  0  0
 10 11  2  0  0  0  0
 10 12  1  0  0  0  0
 12 16  1  0  0  0  0
 12 13  1  0  0  0  0
 13 14  1  0  0  0  0
 13 36  1  0  0  0  0
 13 37  1  0  0  0  0
 14 15  1  0  0  0  0
 14 38  1  0  0  0  0
 14 39  1  0  0  0  0
 15 16  1  0  0  0  0
 15 40  1  0  0  0  0
 16 17  2  0  0  0  0
 18 19  1  0  0  0  0
 18 45  1  0  0  0  0
 19 24  2  0  0  0  0
 19 20  1  0  0  0  0
 20 21  2  0  0  0  0
 20 41  1  0  0  0  0
 21 22  1  0  0  0  0
 21 42  1  0  0  0  0
 22 23  2  0  0  0  0
 22 43  1  0  0  0  0
 23 24  1  0  0  0  0
 23 44  1  0  0  0  0
M  CHG  1  18   1
M  END
> <s_m_source_file>
AV-unprocessed.smi

> <i_m_source_file_index>
2944

> <i_lp_mmshare_version>
43012

> <i_f3d_flags>
0

> <s_epik_input>
W2NIXTFbY0hdW2NIXVtjSF1jKGMxMiluKFtDSDJdW0NIMl1PW0NIM10pYyhuMilTW0NASF0oW0NIM10pQyg9TylOM1tDSDJdW0NIMl1bTkhdQzM9Tw==

> <s_epik_cmdline>
J2VwaWtfcHl0aG9uJywgJy1waCcsICc3LjAnLCAnLXRuJywgJzgnLCAnLW1hJywgJzIwMCcsICctbWV0YWxfYmluZGluZycsICctaW1hZScsICc8aW5maWxlLm1hZT4nLCAnLW9tYWUnLCAnPG91dGZpbGUubWFlPic=

> <r_lp_tautomer_probability>
0.9999

> <r_epik_Ionization_Penalty>
1.88808

> <r_epik_Ionization_Penalty_Charging>
1.88806

> <r_epik_Ionization_Penalty_Neutral>
2.68145e-05

> <r_epik_State_Penalty>
2.00836

> <r_epik_Charging_Adjusted_Penalty>
3.89641

> <i_epik_Tot_Q>
1

> <i_epik_Tot_abs_Q>
1

> <r_epik_Metal_State_Penalty>
2.03272

> <b_epik_Metal_Only>
0

> <s_lp_Force_Field>
OPLS_2005

> <r_lp_Energy>
44.4651

> <b_lp_Chiralities_Consistent>
1

> <s_lp_Variant>
AV-unprocessed.smi:2944-4

> <Gold.Version>
5.8.1

> <Gold.Id.Protein>
6NUR|6NUR_protein|mol2

> <Gold.PLP.Fitness>
58.0271

> <Gold.PLP.PLP>
-47.2150

> <Gold.PLP.part.hbond>
-2.8979

> <Gold.PLP.part.metal>
0.0000

> <Gold.PLP.part.buried>
-4.9559

> <Gold.PLP.part.nonpolar>
-39.2695

> <Gold.PLP.part.repulsive>
0.2228

> <Gold.PLP.ligand.clash>
0.0000

> <Gold.PLP.ligand.torsion>
0.6843

> <Gold.PLP.Chemscore.Hbond>
4.0000

> <Gold.PLP.Chemscore.CHOScore>
0.0000

> <Gold.PLP.Chemscore.Metal>
0.0000

> <Gold.Chemscore.Hbonds>
donor molecule, donor type, donor heavy atom, donor atom, acceptor molecule, acceptor atom, score
      L1  H    18    45       P1  8028  2.00
      P1  H  6934  6946       L1    17  1.00
      P1  H  7989  7998       L1     2  0.89

> <Gold.PLP.Chemscore.Internal.Correction>
0.1807

> <Gold.Rescore>
     Score         DG    S(hbond)    S(metal)    S(lipo)     H(rot)  DE(clash)    DE(int)     intcor
     17.05     -22.18       2.71        0.00     115.83       2.30       0.28       4.85       ----

> <Gold.Chemscore.Fitness>
17.0513

> <Gold.Chemscore.DG>
-22.1833

> <Gold.Chemscore.ZeroCoef>
-5.4800

> <Gold.Chemscore.Hbond>
2.7055

> <Gold.Chemscore.Metal>
0.0000

> <Gold.Chemscore.Lipo>
115.8281

> <Gold.Chemscore.Internal_Hbond>
0.0000

> <Gold.Chemscore.DEClash>
0.2848

> <Gold.Chemscore.DEInternal>
4.8472

> <Gold.Chemscore.Rot>
2.2988

> <Gold.Chemscore.Internal.Correction>
   9.000000E+99

> <Gold.Chemscore.Hbonds>
donor molecule, donor type, donor heavy atom, donor atom, acceptor molecule, acceptor atom, score
      L1  H    18    45       P1  8028  0.95
      P1  H  6934  6946       L1    17  0.95
      P1  H  7989  7998       L1     2  0.77

> <Gold.Chemscore.Hbond.Weighted>
-9.0364

> <Gold.Chemscore.Metal.Weighted>
-0.0000

> <Gold.Chemscore.Lipo.Weighted>
-13.5519

> <Gold.Chemscore.Internal_Hbond.Weighted>
0.0000

> <Gold.Chemscore.DEClash.Weighted>
0.2848

> <Gold.Chemscore.DEInternal.Weighted>
4.8472

> <Gold.Chemscore.Rot.Weighted>
5.8850

> <Gold.Chemscore.Internal.Correction.Weighted>
   9.000000E+99

> <Gold.Protein.RotatedTorsions>
[ 6907 6896 6895 6894 ] final  -36.75 input  -60.11 | X-H torsion
[ 7974 7965 7964 7962 ] final  -91.59 input  175.53 | X-H torsion
[ 8008 7997 7996 7995 ] final  -37.84 input   59.86 | X-H torsion
[ 10167 10162 10161 10158 ] final  -21.67 input  -65.29 | X-H torsion
[ 10718 10713 10712 10709 ] final  -59.22 input   66.30 | X-H torsion
[ 10763 10752 10751 10750 ] final  114.54 input  -60.55 | X-H torsion
[ 11005 11000 10999 10996 ] final   67.44 input  -57.11 | X-H torsion

> <Gold.Protein.ActiveResidues>
 VAL166  LYS551  ARG553  GLY616  TRP617  ASP618  TYR619  PRO620  LYS621  CYS622 
 ASP623  PHE694  ASN695  SER759  ASP760  ASP761  ALA762  ILE779  LEU786  VAL792 
 PHE793  MET794  SER795  GLU796  ALA797  LYS798  CYS799  TRP800  GLU811  SER814 

> <Gold.Protein.RotatedAtoms>
  151.0233  134.9485  159.8071 H   0  0  0  0  0  0  0  0  0  0  0  0  # atno 6907 bound_to 6896
  152.5330  134.2875  159.9040 H   0  0  0  0  0  0  0  0  0  0  0  0  # atno 6908 bound_to 6896
  151.2883  133.4135  159.2665 H   0  0  0  0  0  0  0  0  0  0  0  0  # atno 6909 bound_to 6896
  145.4111  140.9545  143.2233 H   0  0  0  0  0  0  0  0  0  0  0  0  # atno 7974 bound_to 7965
  154.4046  140.1593  156.2602 H   0  0  0  0  0  0  0  0  0  0  0  0  # atno 8008 bound_to 7997
  155.9043  140.3431  155.6028 H   0  0  0  0  0  0  0  0  0  0  0  0  # atno 8009 bound_to 7997
  155.7411  140.0792  157.2236 H   0  0  0  0  0  0  0  0  0  0  0  0  # atno 8010 bound_to 7997
  140.7283  143.4606  151.0385 H   0  0  0  0  0  0  0  0  0  0  0  0  # atno 10167 bound_to 10162
  156.1078  130.4178  150.0685 H   0  0  0  0  0  0  0  0  0  0  0  0  # atno 10718 bound_to 10713
  153.5087  135.3622  155.2576 H   0  0  0  0  0  0  0  0  0  0  0  0  # atno 10763 bound_to 10752
  154.8743  135.4017  154.3393 H   0  0  0  0  0  0  0  0  0  0  0  0  # atno 10764 bound_to 10752
  153.4043  135.7076  153.6471 H   0  0  0  0  0  0  0  0  0  0  0  0  # atno 10765 bound_to 10752
  139.9771  134.6805  156.0334 H   0  0  0  0  0  0  0  0  0  0  0  0  # atno 11005 bound_to 11000
  144.8308  139.5631  143.6944 LP  0  0  0  0  0  0  0  0  0  0  0  0  # atno 17320 bound_to 7965
  146.2704  139.6622  142.9300 LP  0  0  0  0  0  0  0  0  0  0  0  0  # atno 17321 bound_to 7965
  139.8290  143.7716  152.3179 LP  0  0  0  0  0  0  0  0  0  0  0  0  # atno 17342 bound_to 10162
  139.7825  144.7439  151.0068 LP  0  0  0  0  0  0  0  0  0  0  0  0  # atno 17343 bound_to 10162
  156.8656  130.9506  151.3614 LP  0  0  0  0  0  0  0  0  0  0  0  0  # atno 17370 bound_to 10713
  157.6256  130.8689  149.9184 LP  0  0  0  0  0  0  0  0  0  0  0  0  # atno 17371 bound_to 10713
  141.1447  133.6558  156.3831 LP  0  0  0  0  0  0  0  0  0  0  0  0  # atno 17394 bound_to 11000
  140.5173  134.6338  157.5306 LP  0  0  0  0  0  0  0  0  0  0  0  0  # atno 17395 bound_to 11000

$$$$
