AV-unprocessed.smi:1897|AV-procd|sdf|7694|dock7
  -GOLD-   22720 9433D 1   1.00000     0.00000
 Structure written by MMmdl.
 38 40  0  0  0  0  0  0  0  0  3 V2000
  160.5380  142.3010  159.4539 C   0  0  0  0  0  0  0  0  0  0  0  0
  159.2173  141.6483  159.6785 C   0  0  0  0  0  0  0  0  0  0  0  0
  158.7578  141.3486  160.8957 N   0  0  0  0  0  0  0  0  0  0  0  0
  157.5058  140.7531  160.8499 N   0  0  0  0  0  0  0  0  0  0  0  0
  157.0422  140.5986  159.6017 C   0  0  0  0  0  0  0  0  0  0  0  0
  155.8475  140.0364  159.3390 N   0  5  0  0  0  0  0  0  0  0  0  0
  154.6749  140.5766  159.7610 C   0  0  0  0  0  0  0  0  0  0  0  0
  154.5705  141.2572  160.7805 O   0  0  0  0  0  0  0  0  0  0  0  0
  153.5765  140.3489  159.0171 N   0  0  0  0  0  0  0  0  0  0  0  0
  152.2353  140.8437  159.3006 C   0  0  2  0  0  0  0  0  0  0  0  0
  151.1607  140.3290  158.3241 C   0  0  0  0  0  0  0  0  0  0  0  0
  150.2291  141.5311  158.0735 C   0  0  0  0  0  0  0  0  0  0  0  0
  150.7135  142.5927  158.9763 N   0  3  2  0  0  0  0  0  0  0  0  0
  150.3950  143.9899  158.6105 C   0  0  0  0  0  0  0  0  0  0  0  0
  150.9153  144.9345  159.7130 C   0  0  0  0  0  0  0  0  0  0  0  0
  152.4117  144.7014  160.0081 C   0  0  0  0  0  0  0  0  0  0  0  0
  152.6989  143.2133  160.2878 C   0  0  0  0  0  0  0  0  0  0  0  0
  152.1565  142.3588  159.1308 C   0  0  1  0  0  0  0  0  0  0  0  0
  158.1417  141.2053  158.3636 S   0  0  0  0  0  0  0  0  0  0  0  0
  161.3328  141.5560  159.4907 H   0  0  0  0  0  0  0  0  0  0  0  0
  160.7239  143.0528  160.2216 H   0  0  0  0  0  0  0  0  0  0  0  0
  160.5582  142.7881  158.4789 H   0  0  0  0  0  0  0  0  0  0  0  0
  153.6894  139.7834  158.1885 H   0  0  0  0  0  0  0  0  0  0  0  0
  151.9490  140.5859  160.3224 H   0  0  0  0  0  0  0  0  0  0  0  0
  151.6018  139.9993  157.3822 H   0  0  0  0  0  0  0  0  0  0  0  0
  150.6236  139.4803  158.7486 H   0  0  0  0  0  0  0  0  0  0  0  0
  150.3109  141.8566  157.0353 H   0  0  0  0  0  0  0  0  0  0  0  0
  149.1834  141.2971  158.2744 H   0  0  0  0  0  0  0  0  0  0  0  0
  150.8503  144.2360  157.6500 H   0  0  0  0  0  0  0  0  0  0  0  0
  149.3165  144.1017  158.4960 H   0  0  0  0  0  0  0  0  0  0  0  0
  150.7479  145.9729  159.4257 H   0  0  0  0  0  0  0  0  0  0  0  0
  150.3405  144.7723  160.6258 H   0  0  0  0  0  0  0  0  0  0  0  0
  153.0045  145.0305  159.1537 H   0  0  0  0  0  0  0  0  0  0  0  0
  152.7265  145.3105  160.8560 H   0  0  0  0  0  0  0  0  0  0  0  0
  153.7710  143.0525  160.4064 H   0  0  0  0  0  0  0  0  0  0  0  0
  152.2309  142.9155  161.2272 H   0  0  0  0  0  0  0  0  0  0  0  0
  152.6565  142.6439  158.2015 H   0  0  0  0  0  0  0  0  0  0  0  0
  150.2985  142.4133  159.8793 H   0  0  0  0  0  0  0  0  0  0  0  0
  1  2  1  0  0  0  0
  1 20  1  0  0  0  0
  1 21  1  0  0  0  0
  1 22  1  0  0  0  0
  2 19  1  0  0  0  0
  2  3  2  0  0  0  0
  3  4  1  0  0  0  0
  4  5  2  0  0  0  0
  5  6  1  0  0  0  0
  5 19  1  0  0  0  0
  6  7  1  0  0  0  0
  7  8  2  0  0  0  0
  7  9  1  0  0  0  0
  9 10  1  0  0  0  0
  9 23  1  0  0  0  0
 10 18  1  0  0  0  0
 10 11  1  0  0  0  0
 10 24  1  0  0  0  0
 11 12  1  0  0  0  0
 11 25  1  0  0  0  0
 11 26  1  0  0  0  0
 12 13  1  0  0  0  0
 12 27  1  0  0  0  0
 12 28  1  0  0  0  0
 13 18  1  0  0  0  0
 13 14  1  0  0  0  0
 13 38  1  0  0  0  0
 14 15  1  0  0  0  0
 14 29  1  0  0  0  0
 14 30  1  0  0  0  0
 15 16  1  0  0  0  0
 15 31  1  0  0  0  0
 15 32  1  0  0  0  0
 16 17  1  0  0  0  0
 16 33  1  0  0  0  0
 16 34  1  0  0  0  0
 17 18  1  0  0  0  0
 17 35  1  0  0  0  0
 17 36  1  0  0  0  0
 18 37  1  0  0  0  0
M  CHG  1   6  -1
M  CHG  1  13   1
M  END
> <s_m_source_file>
AV-unprocessed.smi

> <i_m_source_file_index>
1897

> <i_lp_mmshare_version>
43012

> <i_f3d_flags>
0

> <s_epik_input>
W0NIM11jMW5uYyhzMSlbTkhdQyg9TylbTkhdW0NASF0oW0NIMl1bQ0gyXTIpW0NAQEhdKE4yMylbQ0gyXVtDSDJdW0NIMl1bQ0gyXTM=

> <s_epik_cmdline>
J2VwaWtfcHl0aG9uJywgJy1waCcsICc3LjAnLCAnLXRuJywgJzgnLCAnLW1hJywgJzIwMCcsICctbWV0YWxfYmluZGluZycsICctaW1hZScsICc8aW5maWxlLm1hZT4nLCAnLW9tYWUnLCAnPG91dGZpbGUubWFlPic=

> <r_lp_tautomer_probability>
1

> <r_epik_Ionization_Penalty>
3.77712

> <r_epik_Ionization_Penalty_Charging>
3.67739

> <r_epik_Ionization_Penalty_Neutral>
0.0997294

> <r_epik_State_Penalty>
3.67514

> <r_epik_Charging_Adjusted_Penalty>
7.35254

> <i_epik_Tot_Q>
0

> <i_epik_Tot_abs_Q>
2

> <r_epik_Metal_State_Penalty>
0.540795

> <b_epik_Metal_Only>
1

> <s_lp_Force_Field>
OPLS_2005

> <r_lp_Energy>
28.3617

> <b_lp_Chiralities_Consistent>
1

> <s_lp_Variant>
AV-unprocessed.smi:1897-11

> <Gold.Version>
5.8.1

> <Gold.Id.Protein>
6NUR|6NUR_protein|mol2

> <Gold.PLP.Fitness>
39.8690

> <Gold.PLP.PLP>
-35.4915

> <Gold.PLP.part.hbond>
-3.5946

> <Gold.PLP.part.metal>
0.0000

> <Gold.PLP.part.buried>
-6.1992

> <Gold.PLP.part.nonpolar>
-27.9335

> <Gold.PLP.part.repulsive>
0.6205

> <Gold.PLP.ligand.clash>
0.0000

> <Gold.PLP.ligand.torsion>
0.8161

> <Gold.PLP.Chemscore.Hbond>
2.0000

> <Gold.PLP.Chemscore.CHOScore>
0.0000

> <Gold.PLP.Chemscore.Metal>
0.0000

> <Gold.Chemscore.Hbonds>
donor molecule, donor type, donor heavy atom, donor atom, acceptor molecule, acceptor atom, score
      P1  H  7997  8009       L1     6  2.00

> <Gold.PLP.Chemscore.Internal.Correction>
0.0097

> <Gold.Rescore>
     Score         DG    S(hbond)    S(metal)    S(lipo)     H(rot)  DE(clash)    DE(int)     intcor
     11.85     -14.73       0.35        0.00      91.05       1.00       0.62       2.26       ----

> <Gold.Chemscore.Fitness>
11.8472

> <Gold.Chemscore.DG>
-14.7272

> <Gold.Chemscore.ZeroCoef>
-5.4800

> <Gold.Chemscore.Hbond>
0.3456

> <Gold.Chemscore.Metal>
0.0000

> <Gold.Chemscore.Lipo>
91.0497

> <Gold.Chemscore.Internal_Hbond>
0.0000

> <Gold.Chemscore.DEClash>
0.6166

> <Gold.Chemscore.DEInternal>
2.2633

> <Gold.Chemscore.Rot>
1.0000

> <Gold.Chemscore.Internal.Correction>
   9.000000E+99

> <Gold.Chemscore.Hbonds>
donor molecule, donor type, donor heavy atom, donor atom, acceptor molecule, acceptor atom, score
      P1  H  7997  8009       L1     6  0.17

> <Gold.Chemscore.Hbond.Weighted>
-1.1543

> <Gold.Chemscore.Metal.Weighted>
-0.0000

> <Gold.Chemscore.Lipo.Weighted>
-10.6528

> <Gold.Chemscore.Internal_Hbond.Weighted>
0.0000

> <Gold.Chemscore.DEClash.Weighted>
0.6166

> <Gold.Chemscore.DEInternal.Weighted>
2.2633

> <Gold.Chemscore.Rot.Weighted>
2.5600

> <Gold.Chemscore.Internal.Correction.Weighted>
   9.000000E+99

> <Gold.Protein.RotatedTorsions>
[ 6907 6896 6895 6894 ] final   -6.58 input  -60.11 | X-H torsion
[ 7974 7965 7964 7962 ] final   98.77 input  175.53 | X-H torsion
[ 8008 7997 7996 7995 ] final   96.40 input   59.86 | X-H torsion
[ 10167 10162 10161 10158 ] final -130.82 input  -65.29 | X-H torsion
[ 10718 10713 10712 10709 ] final -102.65 input   66.30 | X-H torsion
[ 10763 10752 10751 10750 ] final   19.54 input  -60.55 | X-H torsion
[ 11005 11000 10999 10996 ] final  176.26 input  -57.11 | X-H torsion

> <Gold.Protein.ActiveResidues>
 VAL166  LYS551  ARG553  GLY616  TRP617  ASP618  TYR619  PRO620  LYS621  CYS622 
 ASP623  PHE694  ASN695  SER759  ASP760  ASP761  ALA762  ILE779  LEU786  VAL792 
 PHE793  MET794  SER795  GLU796  ALA797  LYS798  CYS799  TRP800  GLU811  SER814 

> <Gold.Protein.RotatedAtoms>
  151.4634  135.1040  159.9730 H   0  0  0  0  0  0  0  0  0  0  0  0  # atno 6907 bound_to 6896
  152.4844  133.8332  159.7124 H   0  0  0  0  0  0  0  0  0  0  0  0  # atno 6908 bound_to 6896
  150.8942  133.7143  159.2923 H   0  0  0  0  0  0  0  0  0  0  0  0  # atno 6909 bound_to 6896
  145.4078  139.2338  143.3265 H   0  0  0  0  0  0  0  0  0  0  0  0  # atno 7974 bound_to 7965
  156.0792  140.3273  155.7672 H   0  0  0  0  0  0  0  0  0  0  0  0  # atno 8008 bound_to 7997
  155.5180  140.0582  157.2929 H   0  0  0  0  0  0  0  0  0  0  0  0  # atno 8009 bound_to 7997
  154.4572  140.1949  156.0362 H   0  0  0  0  0  0  0  0  0  0  0  0  # atno 8010 bound_to 7997
  139.9253  143.6335  152.2543 H   0  0  0  0  0  0  0  0  0  0  0  0  # atno 10167 bound_to 10162
  156.0236  130.5430  150.7139 H   0  0  0  0  0  0  0  0  0  0  0  0  # atno 10718 bound_to 10713
  153.1153  135.6706  153.9428 H   0  0  0  0  0  0  0  0  0  0  0  0  # atno 10763 bound_to 10752
  153.8960  135.3041  155.3449 H   0  0  0  0  0  0  0  0  0  0  0  0  # atno 10764 bound_to 10752
  154.7570  135.5007  153.9471 H   0  0  0  0  0  0  0  0  0  0  0  0  # atno 10765 bound_to 10752
  140.3712  134.7028  157.4393 H   0  0  0  0  0  0  0  0  0  0  0  0  # atno 11005 bound_to 11000
  146.2720  140.4785  142.8810 LP  0  0  0  0  0  0  0  0  0  0  0  0  # atno 17320 bound_to 7965
  144.8330  140.6737  143.6279 LP  0  0  0  0  0  0  0  0  0  0  0  0  # atno 17321 bound_to 7965
  139.6827  144.7654  151.1579 LP  0  0  0  0  0  0  0  0  0  0  0  0  # atno 17342 bound_to 10162
  140.7652  143.5701  150.9005 LP  0  0  0  0  0  0  0  0  0  0  0  0  # atno 17343 bound_to 10162
  157.4771  131.0899  151.0578 LP  0  0  0  0  0  0  0  0  0  0  0  0  # atno 17370 bound_to 10713
  157.1022  130.5986  149.5462 LP  0  0  0  0  0  0  0  0  0  0  0  0  # atno 17371 bound_to 10713
  140.0550  134.6076  155.8816 LP  0  0  0  0  0  0  0  0  0  0  0  0  # atno 17394 bound_to 11000
  141.1954  133.6587  156.5640 LP  0  0  0  0  0  0  0  0  0  0  0  0  # atno 17395 bound_to 11000

$$$$
