AV-unprocessed.smi:2710|AV-procd|sdf|10465|dock1
  -GOLD-   2272014503D 1   1.00000     0.00000
 Structure written by MMmdl.
 53 54  0  0  0  0  0  0  0  0  2 V2000
  154.9207  133.9508  160.8057 C   0  0  0  0  0  0  0  0  0  0  0  0
  154.3244  134.4454  162.1322 C   0  0  0  0  0  0  0  0  0  0  0  0
  155.3451  134.5892  163.2116 N   0  3  1  0  0  0  0  0  0  0  0  0
  156.6016  135.2603  162.7733 C   0  0  0  0  0  0  0  0  0  0  0  0
  156.4084  136.7763  162.5696 C   0  0  0  0  0  0  0  0  0  0  0  0
  155.8355  137.4459  163.8317 C   0  0  1  0  0  0  0  0  0  0  0  0
  155.5159  138.8442  163.5548 N   0  0  0  0  0  0  0  0  0  0  0  0
  154.7735  139.2907  162.5312 C   0  0  0  0  0  0  0  0  0  0  0  0
  154.2646  138.5560  161.6852 O   0  0  0  0  0  0  0  0  0  0  0  0
  154.6474  140.6278  162.5713 N   0  0  0  0  0  0  0  0  0  0  0  0
  153.9517  141.4677  161.6618 C   0  0  0  0  0  0  0  0  0  0  0  0
  153.4187  142.6887  162.1217 C   0  0  0  0  0  0  0  0  0  0  0  0
  152.7566  143.5331  161.3033 N   0  0  0  0  0  0  0  0  0  0  0  0
  152.6229  143.1744  160.0198 C   0  0  0  0  0  0  0  0  0  0  0  0
  151.8871  144.1699  159.1044 C   0  0  0  0  0  0  0  0  0  0  0  0
  150.5793  143.5749  158.5265 C   0  0  0  0  0  0  0  0  0  0  0  0
  152.7926  144.5516  157.9165 C   0  0  0  0  0  0  0  0  0  0  0  0
  151.4913  145.4274  159.9068 C   0  0  0  0  0  0  0  0  0  0  0  0
  153.1166  142.0552  159.4739 N   0  0  0  0  0  0  0  0  0  0  0  0
  153.7752  141.1989  160.2836 C   0  0  0  0  0  0  0  0  0  0  0  0
  154.5743  136.7061  164.3127 C   0  0  0  0  0  0  0  0  0  0  0  0
  154.8478  135.1974  164.4831 C   0  0  1  0  0  0  0  0  0  0  0  0
  153.6563  134.4460  165.1036 C   0  0  0  0  0  0  0  0  0  0  0  0
  154.1274  133.7315  160.0909 H   0  0  0  0  0  0  0  0  0  0  0  0
  155.4956  133.0353  160.9481 H   0  0  0  0  0  0  0  0  0  0  0  0
  155.5695  134.6925  160.3411 H   0  0  0  0  0  0  0  0  0  0  0  0
  153.7842  135.3789  161.9771 H   0  0  0  0  0  0  0  0  0  0  0  0
  153.5773  133.7098  162.4231 H   0  0  0  0  0  0  0  0  0  0  0  0
  157.3611  135.0973  163.5391 H   0  0  0  0  0  0  0  0  0  0  0  0
  157.0017  134.8029  161.8698 H   0  0  0  0  0  0  0  0  0  0  0  0
  157.3645  137.2340  162.3121 H   0  0  0  0  0  0  0  0  0  0  0  0
  155.7512  136.9559  161.7183 H   0  0  0  0  0  0  0  0  0  0  0  0
  156.5853  137.3747  164.6219 H   0  0  0  0  0  0  0  0  0  0  0  0
  155.8863  139.5284  164.1982 H   0  0  0  0  0  0  0  0  0  0  0  0
  155.0465  141.0926  163.3737 H   0  0  0  0  0  0  0  0  0  0  0  0
  153.5185  142.9911  163.1541 H   0  0  0  0  0  0  0  0  0  0  0  0
  150.0619  144.2958  157.8924 H   0  0  0  0  0  0  0  0  0  0  0  0
  149.8852  143.2851  159.3167 H   0  0  0  0  0  0  0  0  0  0  0  0
  150.7723  142.6935  157.9133 H   0  0  0  0  0  0  0  0  0  0  0  0
  153.0759  143.6726  157.3365 H   0  0  0  0  0  0  0  0  0  0  0  0
  153.7112  145.0350  158.2509 H   0  0  0  0  0  0  0  0  0  0  0  0
  152.2908  145.2451  157.2408 H   0  0  0  0  0  0  0  0  0  0  0  0
  150.9423  146.1377  159.2876 H   0  0  0  0  0  0  0  0  0  0  0  0
  152.3645  145.9511  160.2967 H   0  0  0  0  0  0  0  0  0  0  0  0
  150.8559  145.1707  160.7553 H   0  0  0  0  0  0  0  0  0  0  0  0
  154.1722  140.3161  159.8071 H   0  0  0  0  0  0  0  0  0  0  0  0
  154.2463  137.1307  165.2626 H   0  0  0  0  0  0  0  0  0  0  0  0
  153.7538  136.8609  163.6106 H   0  0  0  0  0  0  0  0  0  0  0  0
  155.6631  135.0948  165.2013 H   0  0  0  0  0  0  0  0  0  0  0  0
  153.4808  134.7863  166.1246 H   0  0  0  0  0  0  0  0  0  0  0  0
  153.8424  133.3725  165.1453 H   0  0  0  0  0  0  0  0  0  0  0  0
  152.7300  134.6122  164.5536 H   0  0  0  0  0  0  0  0  0  0  0  0
  155.6067  133.6437  163.4517 H   0  0  0  0  0  0  0  0  0  0  0  0
  1  2  1  0  0  0  0
  1 24  1  0  0  0  0
  1 25  1  0  0  0  0
  1 26  1  0  0  0  0
  2  3  1  0  0  0  0
  2 27  1  0  0  0  0
  2 28  1  0  0  0  0
  3 22  1  0  0  0  0
  3  4  1  0  0  0  0
  3 53  1  0  0  0  0
  4  5  1  0  0  0  0
  4 29  1  0  0  0  0
  4 30  1  0  0  0  0
  5  6  1  0  0  0  0
  5 31  1  0  0  0  0
  5 32  1  0  0  0  0
  6  7  1  0  0  0  0
  6 21  1  0  0  0  0
  6 33  1  0  0  0  0
  7  8  1  0  0  0  0
  7 34  1  0  0  0  0
  8  9  2  0  0  0  0
  8 10  1  0  0  0  0
 10 11  1  0  0  0  0
 10 35  1  0  0  0  0
 11 20  1  0  0  0  0
 11 12  2  0  0  0  0
 12 13  1  0  0  0  0
 12 36  1  0  0  0  0
 13 14  2  0  0  0  0
 14 15  1  0  0  0  0
 14 19  1  0  0  0  0
 15 16  1  0  0  0  0
 15 17  1  0  0  0  0
 15 18  1  0  0  0  0
 16 37  1  0  0  0  0
 16 38  1  0  0  0  0
 16 39  1  0  0  0  0
 17 40  1  0  0  0  0
 17 41  1  0  0  0  0
 17 42  1  0  0  0  0
 18 43  1  0  0  0  0
 18 44  1  0  0  0  0
 18 45  1  0  0  0  0
 19 20  2  0  0  0  0
 20 46  1  0  0  0  0
 21 22  1  0  0  0  0
 21 47  1  0  0  0  0
 21 48  1  0  0  0  0
 22 23  1  0  0  0  0
 22 49  1  0  0  0  0
 23 50  1  0  0  0  0
 23 51  1  0  0  0  0
 23 52  1  0  0  0  0
M  CHG  1   3   1
M  END
> <s_m_source_file>
AV-unprocessed.smi

> <i_m_source_file_index>
2710

> <i_lp_mmshare_version>
43012

> <i_f3d_flags>
0

> <s_epik_input>
W0NIM11bQ0gyXU4xW0NIMl1bQ0gyXVtDQEhdKFtDSDJdW0NASF0xW0NIM10pW05IXUMoPU8pW05IXWMyW2NIXW5jKEMoW0NIM10pKFtDSDNdKVtDSDNdKW5bY0hdMg==

> <s_epik_cmdline>
J2VwaWtfcHl0aG9uJywgJy1waCcsICc3LjAnLCAnLXRuJywgJzgnLCAnLW1hJywgJzIwMCcsICctbWV0YWxfYmluZGluZycsICctaW1hZScsICc8aW5maWxlLm1hZT4nLCAnLW9tYWUnLCAnPG91dGZpbGUubWFlPic=

> <r_lp_tautomer_probability>
1

> <r_epik_Ionization_Penalty>
0.00396003

> <r_epik_Ionization_Penalty_Charging>
0.0039379

> <r_epik_Ionization_Penalty_Neutral>
2.21316e-05

> <r_epik_State_Penalty>
0.00281651

> <r_epik_Charging_Adjusted_Penalty>
0.00675441

> <i_epik_Tot_Q>
1

> <i_epik_Tot_abs_Q>
1

> <r_epik_Metal_State_Penalty>
-0

> <b_epik_Metal_Only>
0

> <s_lp_Force_Field>
OPLS_2005

> <r_lp_Energy>
21.9784

> <b_lp_Chiralities_Consistent>
1

> <s_lp_Variant>
AV-unprocessed.smi:2710-2

> <Gold.Version>
5.8.1

> <Gold.Id.Protein>
6NUR|6NUR_protein|mol2

> <Gold.PLP.Fitness>
43.8337

> <Gold.PLP.PLP>
-44.5397

> <Gold.PLP.part.hbond>
-0.1884

> <Gold.PLP.part.metal>
0.0000

> <Gold.PLP.part.buried>
-6.7182

> <Gold.PLP.part.nonpolar>
-37.7112

> <Gold.PLP.part.repulsive>
0.0990

> <Gold.PLP.ligand.clash>
0.0000

> <Gold.PLP.ligand.torsion>
0.3758

> <Gold.PLP.Chemscore.Hbond>
0.0000

> <Gold.PLP.Chemscore.CHOScore>
0.0000

> <Gold.PLP.Chemscore.Metal>
0.0000

> <Gold.PLP.Chemscore.Internal.Correction>
0.0456

> <Gold.Rescore>
     Score         DG    S(hbond)    S(metal)    S(lipo)     H(rot)  DE(clash)    DE(int)     intcor
     13.64     -16.31       0.00        0.00     121.15       1.31       0.09       2.58       ----

> <Gold.Chemscore.Fitness>
13.6375

> <Gold.Chemscore.DG>
-16.3059

> <Gold.Chemscore.ZeroCoef>
-5.4800

> <Gold.Chemscore.Hbond>
0.0000

> <Gold.Chemscore.Metal>
0.0000

> <Gold.Chemscore.Lipo>
121.1510

> <Gold.Chemscore.Internal_Hbond>
0.0000

> <Gold.Chemscore.DEClash>
0.0878

> <Gold.Chemscore.DEInternal>
2.5806

> <Gold.Chemscore.Rot>
1.3081

> <Gold.Chemscore.Internal.Correction>
   9.000000E+99

> <Gold.Chemscore.Hbond.Weighted>
-0.0000

> <Gold.Chemscore.Metal.Weighted>
-0.0000

> <Gold.Chemscore.Lipo.Weighted>
-14.1747

> <Gold.Chemscore.Internal_Hbond.Weighted>
0.0000

> <Gold.Chemscore.DEClash.Weighted>
0.0878

> <Gold.Chemscore.DEInternal.Weighted>
2.5806

> <Gold.Chemscore.Rot.Weighted>
3.3488

> <Gold.Chemscore.Internal.Correction.Weighted>
   9.000000E+99

> <Gold.Protein.RotatedTorsions>
[ 6907 6896 6895 6894 ] final   68.02 input  -60.11 | X-H torsion
[ 7974 7965 7964 7962 ] final -149.83 input  175.53 | X-H torsion
[ 8008 7997 7996 7995 ] final   61.76 input   59.86 | X-H torsion
[ 10167 10162 10161 10158 ] final   43.92 input  -65.29 | X-H torsion
[ 10718 10713 10712 10709 ] final -159.13 input   66.30 | X-H torsion
[ 10763 10752 10751 10750 ] final  158.33 input  -60.55 | X-H torsion
[ 11005 11000 10999 10996 ] final   58.29 input  -57.11 | X-H torsion

> <Gold.Protein.ActiveResidues>
 VAL166  LYS551  ARG553  GLY616  TRP617  ASP618  TYR619  PRO620  LYS621  CYS622 
 ASP623  PHE694  ASN695  SER759  ASP760  ASP761  ALA762  ILE779  LEU786  VAL792 
 PHE793  MET794  SER795  GLU796  ALA797  LYS798  CYS799  TRP800  GLU811  SER814 

> <Gold.Protein.RotatedAtoms>
  152.4592  134.5223  159.9786 H   0  0  0  0  0  0  0  0  0  0  0  0  # atno 6907 bound_to 6896
  151.5277  133.3449  159.2920 H   0  0  0  0  0  0  0  0  0  0  0  0  # atno 6908 bound_to 6896
  150.8547  134.7913  159.7099 H   0  0  0  0  0  0  0  0  0  0  0  0  # atno 6909 bound_to 6896
  144.7944  140.5013  143.5750 H   0  0  0  0  0  0  0  0  0  0  0  0  # atno 7974 bound_to 7965
  155.6035  140.3494  155.4601 H   0  0  0  0  0  0  0  0  0  0  0  0  # atno 8008 bound_to 7997
  156.0210  140.1253  157.0382 H   0  0  0  0  0  0  0  0  0  0  0  0  # atno 8009 bound_to 7997
  154.4315  140.1062  156.5950 H   0  0  0  0  0  0  0  0  0  0  0  0  # atno 8010 bound_to 7997
  140.3395  144.2487  150.6157 H   0  0  0  0  0  0  0  0  0  0  0  0  # atno 10167 bound_to 10162
  156.5639  130.8659  151.2817 H   0  0  0  0  0  0  0  0  0  0  0  0  # atno 10718 bound_to 10713
  154.2143  135.2784  155.2947 H   0  0  0  0  0  0  0  0  0  0  0  0  # atno 10763 bound_to 10752
  154.5753  135.5606  153.7137 H   0  0  0  0  0  0  0  0  0  0  0  0  # atno 10764 bound_to 10752
  153.0056  135.6331  154.2283 H   0  0  0  0  0  0  0  0  0  0  0  0  # atno 10765 bound_to 10752
  140.0389  134.5903  155.9408 H   0  0  0  0  0  0  0  0  0  0  0  0  # atno 11005 bound_to 11000
  145.5711  139.1483  143.3287 LP  0  0  0  0  0  0  0  0  0  0  0  0  # atno 17320 bound_to 7965
  146.2207  140.5845  142.9018 LP  0  0  0  0  0  0  0  0  0  0  0  0  # atno 17321 bound_to 7965
  140.5322  143.2241  151.8221 LP  0  0  0  0  0  0  0  0  0  0  0  0  # atno 17342 bound_to 10162
  139.4843  144.4706  151.9430 LP  0  0  0  0  0  0  0  0  0  0  0  0  # atno 17343 bound_to 10162
  157.7363  130.9776  150.2127 LP  0  0  0  0  0  0  0  0  0  0  0  0  # atno 17370 bound_to 10713
  156.2775  130.3729  149.7969 LP  0  0  0  0  0  0  0  0  0  0  0  0  # atno 17371 bound_to 10713
  141.1872  133.6559  156.5272 LP  0  0  0  0  0  0  0  0  0  0  0  0  # atno 17394 bound_to 11000
  140.4102  134.7279  157.4831 LP  0  0  0  0  0  0  0  0  0  0  0  0  # atno 17395 bound_to 11000

$$$$
