AV-unprocessed.smi:2608|AV-procd|sdf|10204|dock3
  -GOLD-   2272014213D 1   1.00000     0.00000
 Structure written by MMmdl.
 40 41  0  0  0  0  0  0  0  0  1 V2000
  149.6396  139.0950  154.4118 C   0  0  0  0  0  0  0  0  0  0  0  0
  150.9050  138.9547  155.2714 C   0  0  0  0  0  0  0  0  0  0  0  0
  151.0351  137.5146  155.8004 C   0  0  0  0  0  0  0  0  0  0  0  0
  150.9202  140.0208  156.3912 C   0  0  0  0  0  0  0  0  0  0  0  0
  152.0152  139.7989  157.4395 C   0  0  0  0  0  0  0  0  0  0  0  0
  152.8842  138.9497  157.2437 O   0  0  0  0  0  0  0  0  0  0  0  0
  151.9359  140.5753  158.5350 N   0  0  0  0  0  0  0  0  0  0  0  0
  152.8064  140.6163  159.6608 C   0  0  0  0  0  0  0  0  0  0  0  0
  153.4992  139.4788  160.1416 C   0  0  0  0  0  0  0  0  0  0  0  0
  154.3213  139.6063  161.2762 C   0  0  0  0  0  0  0  0  0  0  0  0
  154.4145  140.8646  161.8975 C   0  0  0  0  0  0  0  0  0  0  0  0
  153.7492  141.9539  161.4623 N   0  0  0  0  0  0  0  0  0  0  0  0
  152.9569  141.8356  160.3696 C   0  0  0  0  0  0  0  0  0  0  0  0
  152.2762  142.9869  159.9391 N   0  0  0  0  0  0  0  0  0  0  0  0
  152.2066  144.0422  160.9414 C   0  0  0  0  0  0  0  0  0  0  0  0
  151.3178  145.1893  160.4309 C   0  0  0  0  0  0  0  0  0  0  0  0
  151.8160  145.6591  159.1813 O   0  0  0  0  0  0  0  0  0  0  0  0
  151.8151  144.6391  158.1858 C   0  0  0  0  0  0  0  0  0  0  0  0
  152.7140  143.4753  158.6376 C   0  0  0  0  0  0  0  0  0  0  0  0
  148.7391  138.9183  155.0009 H   0  0  0  0  0  0  0  0  0  0  0  0
  149.6429  138.3825  153.5863 H   0  0  0  0  0  0  0  0  0  0  0  0
  149.5645  140.0936  153.9804 H   0  0  0  0  0  0  0  0  0  0  0  0
  151.7571  139.1419  154.6161 H   0  0  0  0  0  0  0  0  0  0  0  0
  150.2417  137.2811  156.5109 H   0  0  0  0  0  0  0  0  0  0  0  0
  151.9897  137.3506  156.2994 H   0  0  0  0  0  0  0  0  0  0  0  0
  150.9741  136.7916  154.9866 H   0  0  0  0  0  0  0  0  0  0  0  0
  151.0540  141.0115  155.9538 H   0  0  0  0  0  0  0  0  0  0  0  0
  149.9533  140.0465  156.8955 H   0  0  0  0  0  0  0  0  0  0  0  0
  151.2188  141.2862  158.5200 H   0  0  0  0  0  0  0  0  0  0  0  0
  153.4035  138.5117  159.6729 H   0  0  0  0  0  0  0  0  0  0  0  0
  154.8635  138.7569  161.6641 H   0  0  0  0  0  0  0  0  0  0  0  0
  155.0342  140.9990  162.7717 H   0  0  0  0  0  0  0  0  0  0  0  0
  151.8055  143.6420  161.8733 H   0  0  0  0  0  0  0  0  0  0  0  0
  153.2088  144.4171  161.1539 H   0  0  0  0  0  0  0  0  0  0  0  0
  150.2830  144.8604  160.3211 H   0  0  0  0  0  0  0  0  0  0  0  0
  151.3168  146.0121  161.1460 H   0  0  0  0  0  0  0  0  0  0  0  0
  150.7956  144.2953  158.0039 H   0  0  0  0  0  0  0  0  0  0  0  0
  152.1826  145.0566  157.2483 H   0  0  0  0  0  0  0  0  0  0  0  0
  153.7503  143.8109  158.6987 H   0  0  0  0  0  0  0  0  0  0  0  0
  152.6776  142.6664  157.9067 H   0  0  0  0  0  0  0  0  0  0  0  0
  1  2  1  0  0  0  0
  1 20  1  0  0  0  0
  1 21  1  0  0  0  0
  1 22  1  0  0  0  0
  2  3  1  0  0  0  0
  2  4  1  0  0  0  0
  2 23  1  0  0  0  0
  3 24  1  0  0  0  0
  3 25  1  0  0  0  0
  3 26  1  0  0  0  0
  4  5  1  0  0  0  0
  4 27  1  0  0  0  0
  4 28  1  0  0  0  0
  5  6  2  0  0  0  0
  5  7  1  0  0  0  0
  7  8  1  0  0  0  0
  7 29  1  0  0  0  0
  8 13  1  0  0  0  0
  8  9  2  0  0  0  0
  9 10  1  0  0  0  0
  9 30  1  0  0  0  0
 10 11  2  0  0  0  0
 10 31  1  0  0  0  0
 11 12  1  0  0  0  0
 11 32  1  0  0  0  0
 12 13  2  0  0  0  0
 13 14  1  0  0  0  0
 14 19  1  0  0  0  0
 14 15  1  0  0  0  0
 15 16  1  0  0  0  0
 15 33  1  0  0  0  0
 15 34  1  0  0  0  0
 16 17  1  0  0  0  0
 16 35  1  0  0  0  0
 16 36  1  0  0  0  0
 17 18  1  0  0  0  0
 18 19  1  0  0  0  0
 18 37  1  0  0  0  0
 18 38  1  0  0  0  0
 19 39  1  0  0  0  0
 19 40  1  0  0  0  0
M  END
> <s_m_source_file>
AV-unprocessed.smi

> <i_m_source_file_index>
2608

> <i_lp_mmshare_version>
43012

> <i_f3d_flags>
0

> <s_epik_input>
W0NIM11bQ0hdKFtDSDNdKVtDSDJdQyg9TylbTkhdYzFbY0hdW2NIXVtjSF1uYzFOMltDSDJdW0NIMl1PW0NIMl1bQ0gyXTI=

> <s_epik_cmdline>
J2VwaWtfcHl0aG9uJywgJy1waCcsICc3LjAnLCAnLXRuJywgJzgnLCAnLW1hJywgJzIwMCcsICctbWV0YWxfYmluZGluZycsICctaW1hZScsICc8aW5maWxlLm1hZT4nLCAnLW9tYWUnLCAnPG91dGZpbGUubWFlPic=

> <r_lp_tautomer_probability>
1

> <r_epik_Ionization_Penalty>
0.0006373

> <r_epik_Ionization_Penalty_Charging>
0

> <r_epik_Ionization_Penalty_Neutral>
0.0006373

> <r_epik_State_Penalty>
0.000394234

> <r_epik_Charging_Adjusted_Penalty>
0.000394234

> <i_epik_Tot_Q>
0

> <i_epik_Tot_abs_Q>
0

> <r_epik_Metal_State_Penalty>
-0

> <b_epik_Metal_Only>
0

> <s_lp_Force_Field>
OPLS_2005

> <r_lp_Energy>
24.3939

> <b_lp_Chiralities_Consistent>
1

> <s_lp_Variant>
AV-unprocessed.smi:2608-1

> <Gold.Version>
5.8.1

> <Gold.Id.Protein>
6NUR|6NUR_protein|mol2

> <Gold.PLP.Fitness>
44.6994

> <Gold.PLP.PLP>
-42.8117

> <Gold.PLP.part.hbond>
-2.0000

> <Gold.PLP.part.metal>
0.0000

> <Gold.PLP.part.buried>
-4.4092

> <Gold.PLP.part.nonpolar>
-36.5503

> <Gold.PLP.part.repulsive>
0.2261

> <Gold.PLP.ligand.clash>
0.0046

> <Gold.PLP.ligand.torsion>
0.6220

> <Gold.PLP.Chemscore.Hbond>
1.0000

> <Gold.PLP.Chemscore.CHOScore>
0.0000

> <Gold.PLP.Chemscore.Metal>
0.0000

> <Gold.Chemscore.Hbonds>
donor molecule, donor type, donor heavy atom, donor atom, acceptor molecule, acceptor atom, score
      P1  H  7997  8010       L1     6  1.00

> <Gold.PLP.Chemscore.Internal.Correction>
0.1363

> <Gold.Rescore>
     Score         DG    S(hbond)    S(metal)    S(lipo)     H(rot)  DE(clash)    DE(int)     intcor
     12.44     -15.99       0.41        0.00     106.95       1.31       0.16       3.39       ----

> <Gold.Chemscore.Fitness>
12.4388

> <Gold.Chemscore.DG>
-15.9929

> <Gold.Chemscore.ZeroCoef>
-5.4800

> <Gold.Chemscore.Hbond>
0.4069

> <Gold.Chemscore.Metal>
0.0000

> <Gold.Chemscore.Lipo>
106.9506

> <Gold.Chemscore.Internal_Hbond>
0.0000

> <Gold.Chemscore.DEClash>
0.1612

> <Gold.Chemscore.DEInternal>
3.3929

> <Gold.Chemscore.Rot>
1.3122

> <Gold.Chemscore.Internal.Correction>
   9.000000E+99

> <Gold.Chemscore.Hbonds>
donor molecule, donor type, donor heavy atom, donor atom, acceptor molecule, acceptor atom, score
      P1  H  7997  8010       L1     6  0.42

> <Gold.Chemscore.Hbond.Weighted>
-1.3589

> <Gold.Chemscore.Metal.Weighted>
-0.0000

> <Gold.Chemscore.Lipo.Weighted>
-12.5132

> <Gold.Chemscore.Internal_Hbond.Weighted>
0.0000

> <Gold.Chemscore.DEClash.Weighted>
0.1612

> <Gold.Chemscore.DEInternal.Weighted>
3.3929

> <Gold.Chemscore.Rot.Weighted>
3.3592

> <Gold.Chemscore.Internal.Correction.Weighted>
   9.000000E+99

> <Gold.Protein.RotatedTorsions>
[ 6907 6896 6895 6894 ] final -151.60 input  -60.11 | X-H torsion
[ 7974 7965 7964 7962 ] final  -65.46 input  175.53 | X-H torsion
[ 8008 7997 7996 7995 ] final   36.28 input   59.86 | X-H torsion
[ 10167 10162 10161 10158 ] final -119.46 input  -65.29 | X-H torsion
[ 10718 10713 10712 10709 ] final  139.34 input   66.30 | X-H torsion
[ 10763 10752 10751 10750 ] final -164.70 input  -60.55 | X-H torsion
[ 11005 11000 10999 10996 ] final  -24.88 input  -57.11 | X-H torsion

> <Gold.Protein.ActiveResidues>
 VAL166  LYS551  ARG553  GLY616  TRP617  ASP618  TYR619  PRO620  LYS621  CYS622 
 ASP623  PHE694  ASN695  SER759  ASP760  ASP761  ALA762  ILE779  LEU786  VAL792 
 PHE793  MET794  SER795  GLU796  ALA797  LYS798  CYS799  TRP800  GLU811  SER814 

> <Gold.Protein.RotatedAtoms>
  151.2154  133.4532  159.2599 H   0  0  0  0  0  0  0  0  0  0  0  0  # atno 6907 bound_to 6896
  151.0936  134.9931  159.8425 H   0  0  0  0  0  0  0  0  0  0  0  0  # atno 6908 bound_to 6896
  152.5437  134.2086  159.8794 H   0  0  0  0  0  0  0  0  0  0  0  0  # atno 6909 bound_to 6896
  145.7541  140.8894  143.0464 H   0  0  0  0  0  0  0  0  0  0  0  0  # atno 7974 bound_to 7965
  155.1848  140.3303  155.4369 H   0  0  0  0  0  0  0  0  0  0  0  0  # atno 8008 bound_to 7997
  156.2464  140.1920  156.6894 H   0  0  0  0  0  0  0  0  0  0  0  0  # atno 8009 bound_to 7997
  154.6246  140.0590  156.9644 H   0  0  0  0  0  0  0  0  0  0  0  0  # atno 8010 bound_to 7997
  140.0464  143.5103  152.2104 H   0  0  0  0  0  0  0  0  0  0  0  0  # atno 10167 bound_to 10162
  157.4154  131.1033  151.0410 H   0  0  0  0  0  0  0  0  0  0  0  0  # atno 10718 bound_to 10713
  154.7003  135.2986  154.9351 H   0  0  0  0  0  0  0  0  0  0  0  0  # atno 10763 bound_to 10752
  154.0286  135.6673  153.4782 H   0  0  0  0  0  0  0  0  0  0  0  0  # atno 10764 bound_to 10752
  153.0676  135.5079  154.8143 H   0  0  0  0  0  0  0  0  0  0  0  0  # atno 10765 bound_to 10752
  140.8886  133.7604  156.0392 H   0  0  0  0  0  0  0  0  0  0  0  0  # atno 11005 bound_to 11000
  144.6844  139.9631  143.7480 LP  0  0  0  0  0  0  0  0  0  0  0  0  # atno 17320 bound_to 7965
  146.0328  139.3351  143.0744 LP  0  0  0  0  0  0  0  0  0  0  0  0  # atno 17321 bound_to 7965
  139.5981  144.7573  151.3238 LP  0  0  0  0  0  0  0  0  0  0  0  0  # atno 17342 bound_to 10162
  140.7237  143.7065  150.7803 LP  0  0  0  0  0  0  0  0  0  0  0  0  # atno 17343 bound_to 10162
  157.1359  130.6122  149.5542 LP  0  0  0  0  0  0  0  0  0  0  0  0  # atno 17370 bound_to 10713
  155.9863  130.4898  150.7075 LP  0  0  0  0  0  0  0  0  0  0  0  0  # atno 17371 bound_to 10713
  140.8374  134.3107  157.5326 LP  0  0  0  0  0  0  0  0  0  0  0  0  # atno 17394 bound_to 11000
  139.8727  134.9397  156.3749 LP  0  0  0  0  0  0  0  0  0  0  0  0  # atno 17395 bound_to 11000

$$$$
