AV-unprocessed.smi:52|AV-procd|sdf|509|dock3
  -GOLD-   2262016383D 1   1.00000     0.00000
 Structure written by MMmdl.
 27 28  0  0  0  0  0  0  0  0  3 V2000
  152.7480  139.4582  155.2241 O   0  0  0  0  0  0  0  0  0  0  0  0
  152.0659  139.9640  156.1425 C   0  0  0  0  0  0  0  0  0  0  0  0
  152.4726  140.0021  157.3247 O   0  5  0  0  0  0  0  0  0  0  0  0
  150.7320  140.5328  155.8203 C   0  0  0  0  0  0  0  0  0  0  0  0
  149.8787  141.1697  156.6855 C   0  0  0  0  0  0  0  0  0  0  0  0
  148.7546  141.5558  156.0066 O   0  0  0  0  0  0  0  0  0  0  0  0
  148.9709  141.1292  154.7329 C   0  0  0  0  0  0  0  0  0  0  0  0
  147.9385  141.4059  153.6906 C   0  0  0  0  0  0  0  0  0  0  0  0
  147.8502  140.1419  152.9219 N   0  3  2  0  0  0  0  0  0  0  0  0
  146.8400  140.1651  151.8443 C   0  0  0  0  0  0  0  0  0  0  0  0
  146.4899  138.7012  151.5989 C   0  0  0  0  0  0  0  0  0  0  0  0
  146.5196  138.1178  153.0082 C   0  0  1  0  0  0  0  0  0  0  0  0
  146.7785  136.7299  152.9951 O   0  0  0  0  0  0  0  0  0  0  0  0
  147.6192  138.9142  153.7263 C   0  0  0  0  0  0  0  0  0  0  0  0
  150.1363  140.5098  154.5655 N   0  0  0  0  0  0  0  0  0  0  0  0
  145.5606  138.3010  153.4950 H   0  0  0  0  0  0  0  0  0  0  0  0
  149.9237  141.4125  157.7372 H   0  0  0  0  0  0  0  0  0  0  0  0
  146.9846  141.6797  154.1434 H   0  0  0  0  0  0  0  0  0  0  0  0
  148.2776  142.2263  153.0569 H   0  0  0  0  0  0  0  0  0  0  0  0
  145.9520  140.7017  152.1831 H   0  0  0  0  0  0  0  0  0  0  0  0
  147.2166  140.6634  150.9505 H   0  0  0  0  0  0  0  0  0  0  0  0
  145.5277  138.5693  151.1029 H   0  0  0  0  0  0  0  0  0  0  0  0
  147.2587  138.2400  150.9762 H   0  0  0  0  0  0  0  0  0  0  0  0
  147.5903  136.5765  152.5353 H   0  0  0  0  0  0  0  0  0  0  0  0
  148.5569  138.3584  153.7695 H   0  0  0  0  0  0  0  0  0  0  0  0
  147.3219  139.1359  154.7528 H   0  0  0  0  0  0  0  0  0  0  0  0
  148.7420  140.0131  152.4653 H   0  0  0  0  0  0  0  0  0  0  0  0
  1  2  2  0  0  0  0
  2  3  1  0  0  0  0
  2  4  1  0  0  0  0
  4 15  1  0  0  0  0
  4  5  2  0  0  0  0
  5  6  1  0  0  0  0
  5 17  1  0  0  0  0
  6  7  1  0  0  0  0
  7  8  1  0  0  0  0
  7 15  2  0  0  0  0
  8  9  1  0  0  0  0
  8 18  1  0  0  0  0
  8 19  1  0  0  0  0
  9 14  1  0  0  0  0
  9 10  1  0  0  0  0
  9 27  1  0  0  0  0
 10 11  1  0  0  0  0
 10 20  1  0  0  0  0
 10 21  1  0  0  0  0
 11 12  1  0  0  0  0
 11 22  1  0  0  0  0
 11 23  1  0  0  0  0
 12 16  1  0  0  0  0
 12 13  1  0  0  0  0
 12 14  1  0  0  0  0
 13 24  1  0  0  0  0
 14 25  1  0  0  0  0
 14 26  1  0  0  0  0
M  CHG  1   3  -1
M  CHG  1   9   1
M  END
> <s_m_source_file>
AV-unprocessed.smi

> <i_m_source_file_index>
52

> <i_lp_mmshare_version>
43012

> <i_f3d_flags>
0

> <s_epik_input>
Tz1DKFtPSF0pYzFbY0hdb2MobjEpW0NIMl1OMltDSDJdW0NIMl1bQ0BIXShbT0hdKVtDSDJdMg==

> <s_epik_cmdline>
J2VwaWtfcHl0aG9uJywgJy1waCcsICc3LjAnLCAnLXRuJywgJzgnLCAnLW1hJywgJzIwMCcsICctbWV0YWxfYmluZGluZycsICctaW1hZScsICc8aW5maWxlLm1hZT4nLCAnLW9tYWUnLCAnPG91dGZpbGUubWFlPic=

> <r_epik_Ionization_Penalty>
0.0376014

> <r_epik_Ionization_Penalty_Charging>
0.0376013

> <r_epik_Ionization_Penalty_Neutral>
1.78687e-08

> <r_epik_State_Penalty>
0.0314164

> <r_epik_Charging_Adjusted_Penalty>
0.0690177

> <i_epik_Tot_Q>
0

> <i_epik_Tot_abs_Q>
2

> <r_epik_Metal_State_Penalty>
0.0314164

> <b_epik_Metal_Only>
0

> <s_lp_Force_Field>
OPLS_2005

> <r_lp_Energy>
21.0877

> <b_lp_Chiralities_Consistent>
1

> <s_lp_Variant>
AV-unprocessed.smi:52-3

> <Gold.Version>
5.8.1

> <Gold.Id.Protein>
6NUR|6NUR_protein|mol2

> <Gold.PLP.Fitness>
41.2222

> <Gold.PLP.PLP>
-27.0773

> <Gold.PLP.part.hbond>
-5.3270

> <Gold.PLP.part.metal>
0.0000

> <Gold.PLP.part.buried>
-0.2381

> <Gold.PLP.part.nonpolar>
-22.7637

> <Gold.PLP.part.repulsive>
0.3903

> <Gold.PLP.ligand.clash>
0.0000

> <Gold.PLP.ligand.torsion>
0.2412

> <Gold.PLP.Chemscore.Hbond>
4.8720

> <Gold.PLP.Chemscore.CHOScore>
0.0000

> <Gold.PLP.Chemscore.Metal>
0.0000

> <Gold.Chemscore.Hbonds>
donor molecule, donor type, donor heavy atom, donor atom, acceptor molecule, acceptor atom, score
      L1  H     9    27       P1  7957  0.98
      L1  H    13    24       P1  7948  1.00
      P1  H  7989  7998       L1    15  0.91
      P1  H  7997  8009       L1     1  1.88

> <Gold.PLP.Chemscore.Internal.Correction>
0.0112

> <Gold.Rescore>
     Score         DG    S(hbond)    S(metal)    S(lipo)     H(rot)  DE(clash)    DE(int)     intcor
     16.25     -17.31       3.37        0.00      48.55       1.99       0.93       0.12       ----

> <Gold.Chemscore.Fitness>
16.2545

> <Gold.Chemscore.DG>
-17.3124

> <Gold.Chemscore.ZeroCoef>
-5.4800

> <Gold.Chemscore.Hbond>
3.3688

> <Gold.Chemscore.Metal>
0.0000

> <Gold.Chemscore.Lipo>
48.5454

> <Gold.Chemscore.Internal_Hbond>
0.0000

> <Gold.Chemscore.DEClash>
0.9344

> <Gold.Chemscore.DEInternal>
0.1235

> <Gold.Chemscore.Rot>
1.9919

> <Gold.Chemscore.Internal.Correction>
   9.000000E+99

> <Gold.Chemscore.Hbonds>
donor molecule, donor type, donor heavy atom, donor atom, acceptor molecule, acceptor atom, score
      L1  H     9    27       P1  7957  0.90
      L1  H    13    24       P1  7948  0.95
      P1  H  7989  7998       L1    15  0.23
      P1  H  7997  8009       L1     1  0.19

> <Gold.Chemscore.Hbond.Weighted>
-11.2517

> <Gold.Chemscore.Metal.Weighted>
-0.0000

> <Gold.Chemscore.Lipo.Weighted>
-5.6798

> <Gold.Chemscore.Internal_Hbond.Weighted>
0.0000

> <Gold.Chemscore.DEClash.Weighted>
0.9344

> <Gold.Chemscore.DEInternal.Weighted>
0.1235

> <Gold.Chemscore.Rot.Weighted>
5.0991

> <Gold.Chemscore.Internal.Correction.Weighted>
   9.000000E+99

> <Gold.Protein.RotatedTorsions>
[ 6907 6896 6895 6894 ] final -165.30 input  -60.11 | X-H torsion
[ 7974 7965 7964 7962 ] final  134.28 input  175.53 | X-H torsion
[ 8008 7997 7996 7995 ] final -123.09 input   59.86 | X-H torsion
[ 10167 10162 10161 10158 ] final -148.01 input  -65.29 | X-H torsion
[ 10718 10713 10712 10709 ] final  172.20 input   66.30 | X-H torsion
[ 10763 10752 10751 10750 ] final  -46.36 input  -60.55 | X-H torsion
[ 11005 11000 10999 10996 ] final -124.95 input  -57.11 | X-H torsion

> <Gold.Protein.ActiveResidues>
 VAL166  LYS551  ARG553  GLY616  TRP617  ASP618  TYR619  PRO620  LYS621  CYS622 
 ASP623  PHE694  ASN695  SER759  ASP760  ASP761  ALA762  ILE779  LEU786  VAL792 
 PHE793  MET794  SER795  GLU796  ALA797  LYS798  CYS799  TRP800  GLU811  SER814 

> <Gold.Protein.RotatedAtoms>
  151.4256  133.3685  159.2761 H   0  0  0  0  0  0  0  0  0  0  0  0  # atno 6907 bound_to 6896
  150.9262  134.8680  159.7532 H   0  0  0  0  0  0  0  0  0  0  0  0  # atno 6908 bound_to 6896
  152.5006  134.4197  159.9528 H   0  0  0  0  0  0  0  0  0  0  0  0  # atno 6909 bound_to 6896
  144.9779  139.4535  143.5401 H   0  0  0  0  0  0  0  0  0  0  0  0  # atno 7974 bound_to 7965
  155.1748  140.0409  157.2870 H   0  0  0  0  0  0  0  0  0  0  0  0  # atno 8008 bound_to 7997
  154.6244  140.2509  155.7482 H   0  0  0  0  0  0  0  0  0  0  0  0  # atno 8009 bound_to 7997
  156.2451  140.2888  156.0567 H   0  0  0  0  0  0  0  0  0  0  0  0  # atno 8010 bound_to 7997
  139.7570  143.8433  152.2599 H   0  0  0  0  0  0  0  0  0  0  0  0  # atno 10167 bound_to 10162
  156.9824  131.0123  151.2878 H   0  0  0  0  0  0  0  0  0  0  0  0  # atno 10718 bound_to 10713
  154.0438  135.6640  153.4793 H   0  0  0  0  0  0  0  0  0  0  0  0  # atno 10763 bound_to 10752
  153.0491  135.5096  154.7817 H   0  0  0  0  0  0  0  0  0  0  0  0  # atno 10764 bound_to 10752
  154.6801  135.3043  154.9590 H   0  0  0  0  0  0  0  0  0  0  0  0  # atno 10765 bound_to 10752
  140.9800  134.0686  157.3775 H   0  0  0  0  0  0  0  0  0  0  0  0  # atno 11005 bound_to 11000
  146.3400  139.9033  142.8791 LP  0  0  0  0  0  0  0  0  0  0  0  0  # atno 17320 bound_to 7965
  145.2463  141.0028  143.3906 LP  0  0  0  0  0  0  0  0  0  0  0  0  # atno 17321 bound_to 7965
  139.8428  144.7202  150.9310 LP  0  0  0  0  0  0  0  0  0  0  0  0  # atno 17342 bound_to 10162
  140.7803  143.3968  151.1216 LP  0  0  0  0  0  0  0  0  0  0  0  0  # atno 17343 bound_to 10162
  157.5517  130.8186  149.8153 LP  0  0  0  0  0  0  0  0  0  0  0  0  # atno 17370 bound_to 10713
  156.0239  130.3786  150.1880 LP  0  0  0  0  0  0  0  0  0  0  0  0  # atno 17371 bound_to 10713
  139.8946  135.0137  156.6961 LP  0  0  0  0  0  0  0  0  0  0  0  0  # atno 17394 bound_to 11000
  140.7200  133.9149  155.8141 LP  0  0  0  0  0  0  0  0  0  0  0  0  # atno 17395 bound_to 11000

$$$$
