AV-unprocessed.smi:240|AV-procd|sdf|1837|dock6
  -GOLD-   2262020443D 1   1.00000     0.00000
 Structure written by MMmdl.
 55 59  0  0  0  0  0  0  0  0  1 V2000
  150.8443  137.1568  155.8626 O   0  0  0  0  0  0  0  0  0  0  0  0
  149.6425  137.7085  156.3714 C   0  0  1  0  0  0  0  0  0  0  0  0
  149.3207  138.9829  155.5883 C   0  0  0  0  0  0  0  0  0  0  0  0
  148.5560  138.5184  154.3450 C   0  0  0  0  0  0  0  0  0  0  0  0
  148.1457  137.0634  154.6117 C   0  0  0  0  0  0  0  0  0  0  0  0
  148.4403  136.7800  156.1003 C   0  0  1  0  0  0  0  0  0  0  0  0
  148.6350  135.2834  156.5222 C   0  0  1  0  0  0  0  0  0  0  0  0
  149.1409  135.1997  157.9876 C   0  0  0  0  0  0  0  0  0  0  0  0
  149.2957  133.8496  158.4064 O   0  0  0  0  0  0  0  0  0  0  0  0
  148.0616  133.1504  158.3886 C   0  0  0  0  0  0  0  0  0  0  0  0
  147.5467  133.1157  156.9468 C   0  0  0  0  0  0  0  0  0  0  0  0
  147.4095  134.4702  156.4191 N   0  0  0  0  0  0  0  0  0  0  0  0
  146.7924  134.4218  155.2193 C   0  0  0  0  0  0  0  0  0  0  0  0
  145.5704  135.0022  155.1309 N   0  0  0  0  0  0  0  0  0  0  0  0
  144.9152  135.0024  153.9661 C   0  0  0  0  0  0  0  0  0  0  0  0
  145.2948  134.4879  152.7943 N   0  0  0  0  0  0  0  0  0  0  0  0
  146.5174  133.8893  152.8868 C   0  0  0  0  0  0  0  0  0  0  0  0
  147.3252  133.8004  154.0543 C   0  0  0  0  0  0  0  0  0  0  0  0
  148.4978  133.1113  153.7695 N   0  0  0  0  0  0  0  0  0  0  0  0
  148.3952  132.8216  152.5012 C   0  0  0  0  0  0  0  0  0  0  0  0
  147.2440  133.2640  151.8891 N   0  0  0  0  0  0  0  0  0  0  0  0
  146.8761  133.0951  150.4921 C   0  0  0  0  0  0  0  0  0  0  0  0
  145.8454  131.9637  150.2465 C   0  0  2  0  0  0  0  0  0  0  0  0
  146.4331  130.7213  150.5871 O   0  0  0  0  0  0  0  0  0  0  0  0
  145.3208  131.8919  148.8110 C   0  0  0  0  0  0  0  0  0  0  0  0
  144.0226  132.6801  148.8911 C   0  0  0  0  0  0  0  0  0  0  0  0
  143.4908  132.2570  150.1343 O   0  0  0  0  0  0  0  0  0  0  0  0
  144.5599  132.1806  151.0712 C   0  0  0  0  0  0  0  0  0  0  0  0
  150.6263  136.4409  155.2854 H   0  0  0  0  0  0  0  0  0  0  0  0
  149.7703  137.9240  157.4328 H   0  0  0  0  0  0  0  0  0  0  0  0
  148.6692  139.6173  156.1908 H   0  0  0  0  0  0  0  0  0  0  0  0
  150.2064  139.5710  155.3437 H   0  0  0  0  0  0  0  0  0  0  0  0
  147.6857  139.1521  154.1704 H   0  0  0  0  0  0  0  0  0  0  0  0
  149.1851  138.5754  153.4558 H   0  0  0  0  0  0  0  0  0  0  0  0
  147.0988  136.9105  154.3533 H   0  0  0  0  0  0  0  0  0  0  0  0
  148.7422  136.4042  153.9802 H   0  0  0  0  0  0  0  0  0  0  0  0
  147.6032  137.1777  156.6770 H   0  0  0  0  0  0  0  0  0  0  0  0
  149.3970  134.8348  155.8843 H   0  0  0  0  0  0  0  0  0  0  0  0
  150.1151  135.6739  158.0958 H   0  0  0  0  0  0  0  0  0  0  0  0
  148.4605  135.7200  158.6640 H   0  0  0  0  0  0  0  0  0  0  0  0
  148.2195  132.1371  158.7578 H   0  0  0  0  0  0  0  0  0  0  0  0
  147.3406  133.6278  159.0540 H   0  0  0  0  0  0  0  0  0  0  0  0
  148.2377  132.5440  156.3256 H   0  0  0  0  0  0  0  0  0  0  0  0
  146.5848  132.6012  156.9155 H   0  0  0  0  0  0  0  0  0  0  0  0
  143.9510  135.4888  153.9728 H   0  0  0  0  0  0  0  0  0  0  0  0
  149.1660  132.2810  151.9712 H   0  0  0  0  0  0  0  0  0  0  0  0
  146.4883  134.0463  150.1247 H   0  0  0  0  0  0  0  0  0  0  0  0
  147.7865  132.8999  149.9237 H   0  0  0  0  0  0  0  0  0  0  0  0
  147.3589  130.7680  150.4026 H   0  0  0  0  0  0  0  0  0  0  0  0
  146.0027  132.2770  148.0545 H   0  0  0  0  0  0  0  0  0  0  0  0
  145.0849  130.8621  148.5376 H   0  0  0  0  0  0  0  0  0  0  0  0
  144.2148  133.7540  148.9132 H   0  0  0  0  0  0  0  0  0  0  0  0
  143.3439  132.4632  148.0659 H   0  0  0  0  0  0  0  0  0  0  0  0
  144.3689  131.3802  151.7874 H   0  0  0  0  0  0  0  0  0  0  0  0
  144.5996  133.1152  151.6328 H   0  0  0  0  0  0  0  0  0  0  0  0
  1  2  1  0  0  0  0
  1 29  1  0  0  0  0
  2  6  1  0  0  0  0
  2  3  1  0  0  0  0
  2 30  1  0  0  0  0
  3  4  1  0  0  0  0
  3 31  1  0  0  0  0
  3 32  1  0  0  0  0
  4  5  1  0  0  0  0
  4 33  1  0  0  0  0
  4 34  1  0  0  0  0
  5  6  1  0  0  0  0
  5 35  1  0  0  0  0
  5 36  1  0  0  0  0
  6  7  1  0  0  0  0
  6 37  1  0  0  0  0
  7 12  1  0  0  0  0
  7  8  1  0  0  0  0
  7 38  1  0  0  0  0
  8  9  1  0  0  0  0
  8 39  1  0  0  0  0
  8 40  1  0  0  0  0
  9 10  1  0  0  0  0
 10 11  1  0  0  0  0
 10 41  1  0  0  0  0
 10 42  1  0  0  0  0
 11 12  1  0  0  0  0
 11 43  1  0  0  0  0
 11 44  1  0  0  0  0
 12 13  1  0  0  0  0
 13 18  1  0  0  0  0
 13 14  2  0  0  0  0
 14 15  1  0  0  0  0
 15 16  2  0  0  0  0
 15 45  1  0  0  0  0
 16 17  1  0  0  0  0
 17 21  1  0  0  0  0
 17 18  2  0  0  0  0
 18 19  1  0  0  0  0
 19 20  2  0  0  0  0
 20 21  1  0  0  0  0
 20 46  1  0  0  0  0
 21 22  1  0  0  0  0
 22 23  1  0  0  0  0
 22 47  1  0  0  0  0
 22 48  1  0  0  0  0
 23 28  1  0  0  0  0
 23 24  1  0  0  0  0
 23 25  1  0  0  0  0
 24 49  1  0  0  0  0
 25 26  1  0  0  0  0
 25 50  1  0  0  0  0
 25 51  1  0  0  0  0
 26 27  1  0  0  0  0
 26 52  1  0  0  0  0
 26 53  1  0  0  0  0
 27 28  1  0  0  0  0
 28 54  1  0  0  0  0
 28 55  1  0  0  0  0
M  END
> <s_m_source_file>
AV-unprocessed.smi

> <i_m_source_file_index>
240

> <i_lp_mmshare_version>
43012

> <i_f3d_flags>
0

> <s_epik_input>
W09IXVtDQEBIXTFbQ0gyXVtDSDJdW0NIMl1bQ0BIXTFbQ0BASF0yW0NIMl1PW0NIMl1bQ0gyXU4yYyhuW2NIXW4zKWMoYzM0KW5bY0hdbjRbQ0gyXVtDQEBdNShbT0hdKVtDSDJdW0NIMl1PW0NIMl01

> <s_epik_cmdline>
J2VwaWtfcHl0aG9uJywgJy1waCcsICc3LjAnLCAnLXRuJywgJzgnLCAnLW1hJywgJzIwMCcsICctbWV0YWxfYmluZGluZycsICctaW1hZScsICc8aW5maWxlLm1hZT4nLCAnLW9tYWUnLCAnPG91dGZpbGUubWFlPic=

> <r_lp_tautomer_probability>
1

> <r_epik_Ionization_Penalty>
0.000130618

> <r_epik_Ionization_Penalty_Charging>
0

> <r_epik_Ionization_Penalty_Neutral>
0.000130618

> <r_epik_State_Penalty>
-0

> <r_epik_Charging_Adjusted_Penalty>
0

> <i_epik_Tot_Q>
0

> <i_epik_Tot_abs_Q>
0

> <r_epik_Metal_State_Penalty>
-0

> <b_epik_Metal_Only>
0

> <s_lp_Force_Field>
OPLS_2005

> <r_lp_Energy>
64.0442

> <b_lp_Chiralities_Consistent>
1

> <s_lp_Variant>
AV-unprocessed.smi:240-14

> <Gold.Version>
5.8.1

> <Gold.Id.Protein>
6NUR|6NUR_protein|mol2

> <Gold.PLP.Fitness>
36.5216

> <Gold.PLP.PLP>
-28.1013

> <Gold.PLP.part.hbond>
-2.0000

> <Gold.PLP.part.metal>
0.0000

> <Gold.PLP.part.buried>
-5.0873

> <Gold.PLP.part.nonpolar>
-22.2147

> <Gold.PLP.part.repulsive>
0.4623

> <Gold.PLP.ligand.clash>
0.0000

> <Gold.PLP.ligand.torsion>
0.4172

> <Gold.PLP.Chemscore.Hbond>
2.0000

> <Gold.PLP.Chemscore.CHOScore>
1.0000

> <Gold.PLP.Chemscore.Metal>
0.0000

> <Gold.Chemscore.Hbonds>
donor molecule, donor type, donor heavy atom, donor atom, acceptor molecule, acceptor atom, score
      L1  H    24    49       P1 10747  1.00
      P1  H  6896  6908       L1     9  1.00
      L1  C    20    46       P1 10747  1.00

> <Gold.PLP.Chemscore.Internal.Correction>
0.2546

> <Gold.Rescore>
     Score         DG    S(hbond)    S(metal)    S(lipo)     H(rot)  DE(clash)    DE(int)     intcor
     11.72     -12.48       1.94        0.00      70.07       3.00       0.06       0.71       ----

> <Gold.Chemscore.Fitness>
11.7191

> <Gold.Chemscore.DG>
-12.4820

> <Gold.Chemscore.ZeroCoef>
-5.4800

> <Gold.Chemscore.Hbond>
1.9441

> <Gold.Chemscore.Metal>
0.0000

> <Gold.Chemscore.Lipo>
70.0736

> <Gold.Chemscore.Internal_Hbond>
0.0000

> <Gold.Chemscore.DEClash>
0.0561

> <Gold.Chemscore.DEInternal>
0.7069

> <Gold.Chemscore.Rot>
3.0039

> <Gold.Chemscore.Internal.Correction>
   9.000000E+99

> <Gold.Chemscore.Hbonds>
donor molecule, donor type, donor heavy atom, donor atom, acceptor molecule, acceptor atom, score
      L1  H    24    49       P1 10747  0.99
      P1  H  6896  6908       L1     9  0.26

> <Gold.Chemscore.Hbond.Weighted>
-6.4933

> <Gold.Chemscore.Metal.Weighted>
-0.0000

> <Gold.Chemscore.Lipo.Weighted>
-8.1986

> <Gold.Chemscore.Internal_Hbond.Weighted>
0.0000

> <Gold.Chemscore.DEClash.Weighted>
0.0561

> <Gold.Chemscore.DEInternal.Weighted>
0.7069

> <Gold.Chemscore.Rot.Weighted>
7.6899

> <Gold.Chemscore.Internal.Correction.Weighted>
   9.000000E+99

> <Gold.Protein.RotatedTorsions>
[ 6907 6896 6895 6894 ] final  132.04 input  -60.11 | X-H torsion
[ 7974 7965 7964 7962 ] final  -88.55 input  175.53 | X-H torsion
[ 8008 7997 7996 7995 ] final   65.96 input   59.86 | X-H torsion
[ 10167 10162 10161 10158 ] final -106.99 input  -65.29 | X-H torsion
[ 10718 10713 10712 10709 ] final  135.63 input   66.30 | X-H torsion
[ 10763 10752 10751 10750 ] final   89.76 input  -60.55 | X-H torsion
[ 11005 11000 10999 10996 ] final -132.07 input  -57.11 | X-H torsion

> <Gold.Protein.ActiveResidues>
 VAL166  LYS551  ARG553  GLY616  TRP617  ASP618  TYR619  PRO620  LYS621  CYS622 
 ASP623  PHE694  ASN695  SER759  ASP760  ASP761  ALA762  ILE779  LEU786  VAL792 
 PHE793  MET794  SER795  GLU796  ALA797  LYS798  CYS799  TRP800  GLU811  SER814 

> <Gold.Protein.RotatedAtoms>
  152.3364  133.6017  159.5845 H   0  0  0  0  0  0  0  0  0  0  0  0  # atno 6907 bound_to 6896
  150.7453  133.9789  159.3579 H   0  0  0  0  0  0  0  0  0  0  0  0  # atno 6908 bound_to 6896
  151.7658  135.0799  160.0403 H   0  0  0  0  0  0  0  0  0  0  0  0  # atno 6909 bound_to 6896
  145.4517  140.9560  143.2019 H   0  0  0  0  0  0  0  0  0  0  0  0  # atno 7974 bound_to 7965
  155.6700  140.3497  155.4814 H   0  0  0  0  0  0  0  0  0  0  0  0  # atno 8008 bound_to 7997
  155.9697  140.1153  157.0846 H   0  0  0  0  0  0  0  0  0  0  0  0  # atno 8009 bound_to 7997
  154.4163  140.1159  156.5275 H   0  0  0  0  0  0  0  0  0  0  0  0  # atno 8010 bound_to 7997
  140.1818  143.3961  152.1275 H   0  0  0  0  0  0  0  0  0  0  0  0  # atno 10167 bound_to 10162
  157.4550  131.1069  150.9988 H   0  0  0  0  0  0  0  0  0  0  0  0  # atno 10718 bound_to 10713
  153.1905  135.4458  155.0143 H   0  0  0  0  0  0  0  0  0  0  0  0  # atno 10763 bound_to 10752
  154.8087  135.3285  154.7365 H   0  0  0  0  0  0  0  0  0  0  0  0  # atno 10764 bound_to 10752
  153.7820  135.6977  153.4942 H   0  0  0  0  0  0  0  0  0  0  0  0  # atno 10765 bound_to 10752
  140.9203  134.1453  157.4319 H   0  0  0  0  0  0  0  0  0  0  0  0  # atno 11005 bound_to 11000
  144.8057  139.6055  143.7052 LP  0  0  0  0  0  0  0  0  0  0  0  0  # atno 17320 bound_to 7965
  146.2501  139.6180  142.9433 LP  0  0  0  0  0  0  0  0  0  0  0  0  # atno 17321 bound_to 7965
  139.5293  144.7140  151.5114 LP  0  0  0  0  0  0  0  0  0  0  0  0  # atno 17342 bound_to 10162
  140.6515  143.8688  150.6790 LP  0  0  0  0  0  0  0  0  0  0  0  0  # atno 17343 bound_to 10162
  157.0805  130.5901  149.5419 LP  0  0  0  0  0  0  0  0  0  0  0  0  # atno 17370 bound_to 10713
  156.0003  130.5081  150.7639 LP  0  0  0  0  0  0  0  0  0  0  0  0  # atno 17371 bound_to 10713
  139.8774  134.9969  156.5817 LP  0  0  0  0  0  0  0  0  0  0  0  0  # atno 17394 bound_to 11000
  140.7997  133.8515  155.8716 LP  0  0  0  0  0  0  0  0  0  0  0  0  # atno 17395 bound_to 11000

$$$$
