AV-unprocessed.smi:1686|AV-procd|sdf|6761|dock7
  -GOLD-   22720 7523D 1   1.00000     0.00000
 Structure written by MMmdl.
 41 43  0  0  0  0  0  0  0  0  1 V2000
  154.6784  136.6483  157.7675 C   0  0  0  0  0  0  0  0  0  0  0  0
  153.1833  136.5271  157.6975 C   0  0  0  0  0  0  0  0  0  0  0  0
  152.6452  135.6590  156.8508 N   0  0  0  0  0  0  0  0  0  0  0  0
  151.2585  135.7596  157.0113 O   0  0  0  0  0  0  0  0  0  0  0  0
  151.0367  136.6991  157.9589 C   0  0  0  0  0  0  0  0  0  0  0  0
  149.4539  137.1339  158.4696 Cl  0  0  0  0  0  0  0  0  0  0  0  0
  152.1951  137.2363  158.4419 C   0  0  0  0  0  0  0  0  0  0  0  0
  152.3921  138.2997  159.4957 C   0  0  0  0  0  0  0  0  0  0  0  0
  152.5319  139.6956  158.8759 C   0  0  0  0  0  0  0  0  0  0  0  0
  153.6081  140.2955  158.8867 O   0  0  0  0  0  0  0  0  0  0  0  0
  151.4136  140.2032  158.3353 N   0  0  0  0  0  0  0  0  0  0  0  0
  151.2890  141.5192  157.7100 C   0  0  1  0  0  0  0  0  0  0  0  0
  150.0823  141.5054  156.7533 C   0  0  0  0  0  0  0  0  0  0  0  0
  151.1710  142.6038  158.8100 C   0  0  1  0  0  0  0  0  0  0  0  0
  152.4108  142.6885  159.7368 C   0  0  0  0  0  0  0  0  0  0  0  0
  152.8035  144.1744  159.6731 C   0  0  2  0  0  0  0  0  0  0  0  0
  151.7378  145.0216  160.3910 C   0  0  0  0  0  0  0  0  0  0  0  0
  150.5494  144.9669  159.4133 C   0  0  0  0  0  0  0  0  0  0  0  0
  151.0776  144.0596  158.2849 C   0  0  1  0  0  0  0  0  0  0  0  0
  152.5377  144.4951  158.2090 C   0  0  0  0  0  0  0  0  0  0  0  0
  154.9884  137.3034  158.5814 H   0  0  0  0  0  0  0  0  0  0  0  0
  155.0816  137.0569  156.8408 H   0  0  0  0  0  0  0  0  0  0  0  0
  155.1433  135.6765  157.9344 H   0  0  0  0  0  0  0  0  0  0  0  0
  151.5563  138.3108  160.1963 H   0  0  0  0  0  0  0  0  0  0  0  0
  153.2823  138.1013  160.0934 H   0  0  0  0  0  0  0  0  0  0  0  0
  150.5759  139.6407  158.3734 H   0  0  0  0  0  0  0  0  0  0  0  0
  152.1887  141.7195  157.1259 H   0  0  0  0  0  0  0  0  0  0  0  0
  149.9872  142.4417  156.2054 H   0  0  0  0  0  0  0  0  0  0  0  0
  149.1497  141.3396  157.2935 H   0  0  0  0  0  0  0  0  0  0  0  0
  150.1790  140.7129  156.0103 H   0  0  0  0  0  0  0  0  0  0  0  0
  150.2873  142.3774  159.4088 H   0  0  0  0  0  0  0  0  0  0  0  0
  152.1920  142.3589  160.7531 H   0  0  0  0  0  0  0  0  0  0  0  0
  153.2342  142.0779  159.3635 H   0  0  0  0  0  0  0  0  0  0  0  0
  153.8211  144.3720  160.0111 H   0  0  0  0  0  0  0  0  0  0  0  0
  151.4873  144.6217  161.3742 H   0  0  0  0  0  0  0  0  0  0  0  0
  152.0791  146.0490  160.5234 H   0  0  0  0  0  0  0  0  0  0  0  0
  149.6436  144.5758  159.8778 H   0  0  0  0  0  0  0  0  0  0  0  0
  150.3233  145.9637  159.0326 H   0  0  0  0  0  0  0  0  0  0  0  0
  150.5205  144.1778  157.3563 H   0  0  0  0  0  0  0  0  0  0  0  0
  152.6629  145.5525  157.9686 H   0  0  0  0  0  0  0  0  0  0  0  0
  153.1373  143.8997  157.5187 H   0  0  0  0  0  0  0  0  0  0  0  0
  1  2  1  0  0  0  0
  1 21  1  0  0  0  0
  1 22  1  0  0  0  0
  1 23  1  0  0  0  0
  2  7  1  0  0  0  0
  2  3  2  0  0  0  0
  3  4  1  0  0  0  0
  4  5  1  0  0  0  0
  5  6  1  0  0  0  0
  5  7  2  0  0  0  0
  7  8  1  0  0  0  0
  8  9  1  0  0  0  0
  8 24  1  0  0  0  0
  8 25  1  0  0  0  0
  9 10  2  0  0  0  0
  9 11  1  0  0  0  0
 11 12  1  0  0  0  0
 11 26  1  0  0  0  0
 12 13  1  0  0  0  0
 12 14  1  0  0  0  0
 12 27  1  0  0  0  0
 13 28  1  0  0  0  0
 13 29  1  0  0  0  0
 13 30  1  0  0  0  0
 14 19  1  0  0  0  0
 14 15  1  0  0  0  0
 14 31  1  0  0  0  0
 15 16  1  0  0  0  0
 15 32  1  0  0  0  0
 15 33  1  0  0  0  0
 16 20  1  0  0  0  0
 16 17  1  0  0  0  0
 16 34  1  0  0  0  0
 17 18  1  0  0  0  0
 17 35  1  0  0  0  0
 17 36  1  0  0  0  0
 18 19  1  0  0  0  0
 18 37  1  0  0  0  0
 18 38  1  0  0  0  0
 19 20  1  0  0  0  0
 19 39  1  0  0  0  0
 20 40  1  0  0  0  0
 20 41  1  0  0  0  0
M  END
> <s_m_source_file>
AV-unprocessed.smi

> <i_m_source_file_index>
1686

> <i_lp_mmshare_version>
43012

> <i_f3d_flags>
0

> <s_epik_input>
W0NIM11jMW5vYyhDbCljMVtDSDJdQyg9TylbTkhdW0NASF0oW0NIM10pW0NASF0oW0NIMl1bQ0BIXTIzKVtDQEhdKFtDSDJdMylbQ0gyXVtDSDJdMg==

> <s_epik_cmdline>
J2VwaWtfcHl0aG9uJywgJy1waCcsICc3LjAnLCAnLXRuJywgJzgnLCAnLW1hJywgJzIwMCcsICctbWV0YWxfYmluZGluZycsICctaW1hZScsICc8aW5maWxlLm1hZT4nLCAnLW9tYWUnLCAnPG91dGZpbGUubWFlPic=

> <r_lp_tautomer_probability>
1

> <r_epik_Ionization_Penalty>
2.01576e-08

> <r_epik_Ionization_Penalty_Charging>
0

> <r_epik_Ionization_Penalty_Neutral>
2.01576e-08

> <r_epik_State_Penalty>
-0

> <r_epik_Charging_Adjusted_Penalty>
0

> <i_epik_Tot_Q>
0

> <i_epik_Tot_abs_Q>
0

> <r_epik_Metal_State_Penalty>
-0

> <b_epik_Metal_Only>
0

> <s_lp_Force_Field>
OPLS_2005

> <r_lp_Energy>
46.9137

> <b_lp_Chiralities_Consistent>
1

> <s_lp_Variant>
AV-unprocessed.smi:1686-4

> <Gold.Version>
5.8.1

> <Gold.Id.Protein>
6NUR|6NUR_protein|mol2

> <Gold.PLP.Fitness>
42.6934

> <Gold.PLP.PLP>
-38.3103

> <Gold.PLP.part.hbond>
-2.0000

> <Gold.PLP.part.metal>
0.0000

> <Gold.PLP.part.buried>
-5.6976

> <Gold.PLP.part.nonpolar>
-30.6251

> <Gold.PLP.part.repulsive>
0.1224

> <Gold.PLP.ligand.clash>
0.0000

> <Gold.PLP.ligand.torsion>
0.7425

> <Gold.PLP.Chemscore.Hbond>
1.9440

> <Gold.PLP.Chemscore.CHOScore>
0.0000

> <Gold.PLP.Chemscore.Metal>
0.0000

> <Gold.Chemscore.Hbonds>
donor molecule, donor type, donor heavy atom, donor atom, acceptor molecule, acceptor atom, score
      P1  H  7997  8009       L1    10  0.79
      P1  H 10752 10763       L1     3  1.00

> <Gold.PLP.Chemscore.Internal.Correction>
0.0360

> <Gold.Rescore>
     Score         DG    S(hbond)    S(metal)    S(lipo)     H(rot)  DE(clash)    DE(int)     intcor
     18.75     -21.02       1.81        0.00     113.17       1.46       0.04       2.23       ----

> <Gold.Chemscore.Fitness>
18.7531

> <Gold.Chemscore.DG>
-21.0211

> <Gold.Chemscore.ZeroCoef>
-5.4800

> <Gold.Chemscore.Hbond>
1.8114

> <Gold.Chemscore.Metal>
0.0000

> <Gold.Chemscore.Lipo>
113.1698

> <Gold.Chemscore.Internal_Hbond>
0.0000

> <Gold.Chemscore.DEClash>
0.0422

> <Gold.Chemscore.DEInternal>
2.2258

> <Gold.Chemscore.Rot>
1.4648

> <Gold.Chemscore.Internal.Correction>
   9.000000E+99

> <Gold.Chemscore.Hbonds>
donor molecule, donor type, donor heavy atom, donor atom, acceptor molecule, acceptor atom, score
      P1  H  7997  8009       L1    10  0.63
      P1  H 10752 10763       L1     3  0.97

> <Gold.Chemscore.Hbond.Weighted>
-6.0502

> <Gold.Chemscore.Metal.Weighted>
-0.0000

> <Gold.Chemscore.Lipo.Weighted>
-13.2409

> <Gold.Chemscore.Internal_Hbond.Weighted>
0.0000

> <Gold.Chemscore.DEClash.Weighted>
0.0422

> <Gold.Chemscore.DEInternal.Weighted>
2.2258

> <Gold.Chemscore.Rot.Weighted>
3.7500

> <Gold.Chemscore.Internal.Correction.Weighted>
   9.000000E+99

> <Gold.Protein.RotatedTorsions>
[ 6907 6896 6895 6894 ] final -167.35 input  -60.11 | X-H torsion
[ 7974 7965 7964 7962 ] final   37.36 input  175.53 | X-H torsion
[ 8008 7997 7996 7995 ] final  146.77 input   59.86 | X-H torsion
[ 10167 10162 10161 10158 ] final  164.49 input  -65.29 | X-H torsion
[ 10718 10713 10712 10709 ] final -125.73 input   66.30 | X-H torsion
[ 10763 10752 10751 10750 ] final  108.81 input  -60.55 | X-H torsion
[ 11005 11000 10999 10996 ] final -157.59 input  -57.11 | X-H torsion

> <Gold.Protein.ActiveResidues>
 VAL166  LYS551  ARG553  GLY616  TRP617  ASP618  TYR619  PRO620  LYS621  CYS622 
 ASP623  PHE694  ASN695  SER759  ASP760  ASP761  ALA762  ILE779  LEU786  VAL792 
 PHE793  MET794  SER795  GLU796  ALA797  LYS798  CYS799  TRP800  GLU811  SER814 

> <Gold.Protein.RotatedAtoms>
  151.4582  133.3599  159.2804 H   0  0  0  0  0  0  0  0  0  0  0  0  # atno 6907 bound_to 6896
  150.9044  134.8459  159.7393 H   0  0  0  0  0  0  0  0  0  0  0  0  # atno 6908 bound_to 6896
  152.4897  134.4505  159.9625 H   0  0  0  0  0  0  0  0  0  0  0  0  # atno 6909 bound_to 6896
  146.1143  139.5903  142.9331 H   0  0  0  0  0  0  0  0  0  0  0  0  # atno 7974 bound_to 7965
  156.2845  140.2173  156.5430 H   0  0  0  0  0  0  0  0  0  0  0  0  # atno 8008 bound_to 7997
  154.7354  140.0492  157.0786 H   0  0  0  0  0  0  0  0  0  0  0  0  # atno 8009 bound_to 7997
  155.0299  140.3134  155.4765 H   0  0  0  0  0  0  0  0  0  0  0  0  # atno 8010 bound_to 7997
  139.4890  144.4229  151.9164 H   0  0  0  0  0  0  0  0  0  0  0  0  # atno 10167 bound_to 10162
  156.1701  130.6661  151.0168 H   0  0  0  0  0  0  0  0  0  0  0  0  # atno 10718 bound_to 10713
  153.4259  135.3800  155.2140 H   0  0  0  0  0  0  0  0  0  0  0  0  # atno 10763 bound_to 10752
  154.8747  135.3828  154.4327 H   0  0  0  0  0  0  0  0  0  0  0  0  # atno 10764 bound_to 10752
  153.4853  135.7088  153.5977 H   0  0  0  0  0  0  0  0  0  0  0  0  # atno 10765 bound_to 10752
  140.6629  134.4330  157.5234 H   0  0  0  0  0  0  0  0  0  0  0  0  # atno 11005 bound_to 11000
  145.5599  141.0405  143.2232 LP  0  0  0  0  0  0  0  0  0  0  0  0  # atno 17320 bound_to 7965
  144.7539  139.7124  143.7262 LP  0  0  0  0  0  0  0  0  0  0  0  0  # atno 17321 bound_to 7965
  140.3674  144.2898  150.5924 LP  0  0  0  0  0  0  0  0  0  0  0  0  # atno 17342 bound_to 10162
  140.5349  143.2235  151.8179 LP  0  0  0  0  0  0  0  0  0  0  0  0  # atno 17343 bound_to 10162
  157.6796  131.0841  150.7403 LP  0  0  0  0  0  0  0  0  0  0  0  0  # atno 17370 bound_to 10713
  156.7463  130.4754  149.5466 LP  0  0  0  0  0  0  0  0  0  0  0  0  # atno 17371 bound_to 10713
  139.9007  134.8563  156.1909 LP  0  0  0  0  0  0  0  0  0  0  0  0  # atno 17394 bound_to 11000
  141.0451  133.6917  156.1669 LP  0  0  0  0  0  0  0  0  0  0  0  0  # atno 17395 bound_to 11000

$$$$
