AV-unprocessed.smi:2855|AV-procd|sdf|10982|dock2
  -GOLD-   2272015433D 1   1.00000     0.00000
 Structure written by MMmdl.
 47 48  0  0  0  0  0  0  0  0  1 V2000
  145.6205  137.0416  162.5421 C   0  0  0  0  0  0  0  0  0  0  0  0
  147.1039  136.8081  162.2053 C   0  0  1  0  0  0  0  0  0  0  0  0
  147.7417  135.6987  163.0609 C   0  0  0  0  0  0  0  0  0  0  0  0
  147.2722  134.2945  162.6469 C   0  0  0  0  0  0  0  0  0  0  0  0
  147.5308  134.0133  161.1474 C   0  0  1  0  0  0  0  0  0  0  0  0
  147.1532  132.5623  160.7201 C   0  0  0  0  0  0  0  0  0  0  0  0
  145.6482  132.2504  160.8140 C   0  0  0  0  0  0  0  0  0  0  0  0
  147.9751  131.4969  161.4666 C   0  0  0  0  0  0  0  0  0  0  0  0
  146.8742  135.1216  160.2767 C   0  0  2  0  0  0  0  0  0  0  0  0
  147.2052  134.9411  158.8641 N   0  0  0  0  0  0  0  0  0  0  0  0
  148.4133  135.1196  158.3074 C   0  0  0  0  0  0  0  0  0  0  0  0
  149.4194  135.4265  158.9482 O   0  0  0  0  0  0  0  0  0  0  0  0
  148.4955  134.9049  156.7902 C   0  0  0  0  0  0  0  0  0  0  0  0
  149.1300  136.0347  156.0970 N   0  0  0  0  0  0  0  0  0  0  0  0
  148.4638  137.2455  155.9713 C   0  0  0  0  0  0  0  0  0  0  0  0
  148.9844  138.3195  155.3316 C   0  0  0  0  0  0  0  0  0  0  0  0
  150.3105  138.2486  154.7274 C   0  0  0  0  0  0  0  0  0  0  0  0
  150.8671  139.1664  154.1288 O   0  0  0  0  0  0  0  0  0  0  0  0
  150.9478  137.0136  154.8737 N   0  0  0  0  0  0  0  0  0  0  0  0
  150.4164  135.9021  155.5296 C   0  0  0  0  0  0  0  0  0  0  0  0
  151.0619  134.8565  155.5969 O   0  0  0  0  0  0  0  0  0  0  0  0
  147.3370  136.5288  160.7087 C   0  0  0  0  0  0  0  0  0  0  0  0
  151.8676  136.9164  154.4691 H   0  0  0  0  0  0  0  0  0  0  0  0
  145.0074  136.1648  162.3355 H   0  0  0  0  0  0  0  0  0  0  0  0
  145.2149  137.8705  161.9615 H   0  0  0  0  0  0  0  0  0  0  0  0
  145.4945  137.2895  163.5963 H   0  0  0  0  0  0  0  0  0  0  0  0
  147.6203  137.7385  162.4453 H   0  0  0  0  0  0  0  0  0  0  0  0
  148.8265  135.7513  162.9617 H   0  0  0  0  0  0  0  0  0  0  0  0
  147.5279  135.8675  164.1168 H   0  0  0  0  0  0  0  0  0  0  0  0
  147.7903  133.5640  163.2670 H   0  0  0  0  0  0  0  0  0  0  0  0
  146.2119  134.1878  162.8742 H   0  0  0  0  0  0  0  0  0  0  0  0
  148.6081  134.1040  160.9964 H   0  0  0  0  0  0  0  0  0  0  0  0
  147.4278  132.4457  159.6717 H   0  0  0  0  0  0  0  0  0  0  0  0
  145.2911  132.2829  161.8432 H   0  0  0  0  0  0  0  0  0  0  0  0
  145.4366  131.2524  160.4292 H   0  0  0  0  0  0  0  0  0  0  0  0
  145.0511  132.9489  160.2291 H   0  0  0  0  0  0  0  0  0  0  0  0
  147.7154  131.4480  162.5238 H   0  0  0  0  0  0  0  0  0  0  0  0
  149.0442  131.6974  161.3919 H   0  0  0  0  0  0  0  0  0  0  0  0
  147.8002  130.5066  161.0450 H   0  0  0  0  0  0  0  0  0  0  0  0
  145.7939  135.0750  160.4139 H   0  0  0  0  0  0  0  0  0  0  0  0
  146.4437  134.6810  158.2544 H   0  0  0  0  0  0  0  0  0  0  0  0
  149.0510  133.9839  156.6092 H   0  0  0  0  0  0  0  0  0  0  0  0
  147.4997  134.7274  156.3785 H   0  0  0  0  0  0  0  0  0  0  0  0
  147.4762  137.3430  156.3991 H   0  0  0  0  0  0  0  0  0  0  0  0
  148.4155  139.2357  155.2656 H   0  0  0  0  0  0  0  0  0  0  0  0
  146.8353  137.2892  160.1084 H   0  0  0  0  0  0  0  0  0  0  0  0
  148.4022  136.6346  160.4963 H   0  0  0  0  0  0  0  0  0  0  0  0
  1  2  1  0  0  0  0
  1 24  1  0  0  0  0
  1 25  1  0  0  0  0
  1 26  1  0  0  0  0
  2 22  1  0  0  0  0
  2  3  1  0  0  0  0
  2 27  1  0  0  0  0
  3  4  1  0  0  0  0
  3 28  1  0  0  0  0
  3 29  1  0  0  0  0
  4  5  1  0  0  0  0
  4 30  1  0  0  0  0
  4 31  1  0  0  0  0
  5  6  1  0  0  0  0
  5  9  1  0  0  0  0
  5 32  1  0  0  0  0
  6  7  1  0  0  0  0
  6  8  1  0  0  0  0
  6 33  1  0  0  0  0
  7 34  1  0  0  0  0
  7 35  1  0  0  0  0
  7 36  1  0  0  0  0
  8 37  1  0  0  0  0
  8 38  1  0  0  0  0
  8 39  1  0  0  0  0
  9 10  1  0  0  0  0
  9 22  1  0  0  0  0
  9 40  1  0  0  0  0
 10 11  1  0  0  0  0
 10 41  1  0  0  0  0
 11 12  2  0  0  0  0
 11 13  1  0  0  0  0
 13 14  1  0  0  0  0
 13 42  1  0  0  0  0
 13 43  1  0  0  0  0
 14 20  1  0  0  0  0
 14 15  1  0  0  0  0
 15 16  2  0  0  0  0
 15 44  1  0  0  0  0
 16 17  1  0  0  0  0
 16 45  1  0  0  0  0
 17 18  2  0  0  0  0
 17 19  1  0  0  0  0
 19 23  1  0  0  0  0
 19 20  1  0  0  0  0
 20 21  2  0  0  0  0
 22 46  1  0  0  0  0
 22 47  1  0  0  0  0
M  END
> <s_m_source_file>
AV-unprocessed.smi

> <i_m_source_file_index>
2855

> <i_lp_mmshare_version>
43012

> <i_f3d_flags>
0

> <s_epik_input>
W0NIM11bQ0BASF0xW0NIMl1bQ0gyXVtDQEBIXShbQ0hdKFtDSDNdKVtDSDNdKVtDQEhdKFtDSDJdMSlbTkhdQyg9TylbQ0gyXW4yW2NIXVtjSF1jKD1PKVtuSF1jMj1P

> <s_epik_cmdline>
J2VwaWtfcHl0aG9uJywgJy1waCcsICc3LjAnLCAnLXRuJywgJzgnLCAnLW1hJywgJzIwMCcsICctbWV0YWxfYmluZGluZycsICctaW1hZScsICc8aW5maWxlLm1hZT4nLCAnLW9tYWUnLCAnPG91dGZpbGUubWFlPic=

> <r_lp_tautomer_probability>
0.999537

> <r_epik_Ionization_Penalty>
0.00306256

> <r_epik_Ionization_Penalty_Charging>
0.00306254

> <r_epik_Ionization_Penalty_Neutral>
2.0223e-08

> <r_epik_State_Penalty>
0.0021533

> <r_epik_Charging_Adjusted_Penalty>
0.00521583

> <i_epik_Tot_Q>
0

> <i_epik_Tot_abs_Q>
0

> <r_epik_Metal_State_Penalty>
0.362116

> <b_epik_Metal_Only>
0

> <s_lp_Force_Field>
OPLS_2005

> <r_lp_Energy>
15.8562

> <b_lp_Chiralities_Consistent>
1

> <s_lp_Variant>
AV-unprocessed.smi:2855-6

> <Gold.Version>
5.8.1

> <Gold.Id.Protein>
6NUR|6NUR_protein|mol2

> <Gold.PLP.Fitness>
41.1942

> <Gold.PLP.PLP>
-32.6754

> <Gold.PLP.part.hbond>
-3.0000

> <Gold.PLP.part.metal>
0.0000

> <Gold.PLP.part.buried>
-4.8786

> <Gold.PLP.part.nonpolar>
-25.0537

> <Gold.PLP.part.repulsive>
0.3391

> <Gold.PLP.ligand.clash>
0.0000

> <Gold.PLP.ligand.torsion>
0.2745

> <Gold.PLP.Chemscore.Hbond>
3.0000

> <Gold.PLP.Chemscore.CHOScore>
0.0000

> <Gold.PLP.Chemscore.Metal>
0.0000

> <Gold.Chemscore.Hbonds>
donor molecule, donor type, donor heavy atom, donor atom, acceptor molecule, acceptor atom, score
      P1  H  6896  6908       L1    12  1.00
      P1  H  7989  7998       L1    18  1.00
      P1  H 10752 10763       L1    21  0.55

> <Gold.PLP.Chemscore.Internal.Correction>
0.0678

> <Gold.Rescore>
     Score         DG    S(hbond)    S(metal)    S(lipo)     H(rot)  DE(clash)    DE(int)     intcor
     18.19     -19.26       2.96        0.00      73.81       1.85       0.00       1.07       ----

> <Gold.Chemscore.Fitness>
18.1909

> <Gold.Chemscore.DG>
-19.2648

> <Gold.Chemscore.ZeroCoef>
-5.4800

> <Gold.Chemscore.Hbond>
2.9625

> <Gold.Chemscore.Metal>
0.0000

> <Gold.Chemscore.Lipo>
73.8131

> <Gold.Chemscore.Internal_Hbond>
0.0000

> <Gold.Chemscore.DEClash>
0.0000

> <Gold.Chemscore.DEInternal>
1.0740

> <Gold.Chemscore.Rot>
1.8539

> <Gold.Chemscore.Internal.Correction>
   9.000000E+99

> <Gold.Chemscore.Hbonds>
donor molecule, donor type, donor heavy atom, donor atom, acceptor molecule, acceptor atom, score
      P1  H  6896  6908       L1    12  1.00
      P1  H  7989  7998       L1    18  0.98
      P1  H 10752 10763       L1    21  0.19

> <Gold.Chemscore.Hbond.Weighted>
-9.8947

> <Gold.Chemscore.Metal.Weighted>
-0.0000

> <Gold.Chemscore.Lipo.Weighted>
-8.6361

> <Gold.Chemscore.Internal_Hbond.Weighted>
0.0000

> <Gold.Chemscore.DEClash.Weighted>
0.0000

> <Gold.Chemscore.DEInternal.Weighted>
1.0740

> <Gold.Chemscore.Rot.Weighted>
4.7460

> <Gold.Chemscore.Internal.Correction.Weighted>
   9.000000E+99

> <Gold.Protein.RotatedTorsions>
[ 6907 6896 6895 6894 ] final  160.67 input  -60.11 | X-H torsion
[ 7974 7965 7964 7962 ] final  162.77 input  175.53 | X-H torsion
[ 8008 7997 7996 7995 ] final  -76.96 input   59.86 | X-H torsion
[ 10167 10162 10161 10158 ] final -129.91 input  -65.29 | X-H torsion
[ 10718 10713 10712 10709 ] final -172.23 input   66.30 | X-H torsion
[ 10763 10752 10751 10750 ] final   77.53 input  -60.55 | X-H torsion
[ 11005 11000 10999 10996 ] final -119.06 input  -57.11 | X-H torsion

> <Gold.Protein.ActiveResidues>
 VAL166  LYS551  ARG553  GLY616  TRP617  ASP618  TYR619  PRO620  LYS621  CYS622 
 ASP623  PHE694  ASN695  SER759  ASP760  ASP761  ALA762  ILE779  LEU786  VAL792 
 PHE793  MET794  SER795  GLU796  ALA797  LYS798  CYS799  TRP800  GLU811  SER814 

> <Gold.Protein.RotatedAtoms>
  151.9671  133.3714  159.4056 H   0  0  0  0  0  0  0  0  0  0  0  0  # atno 6907 bound_to 6896
  150.6955  134.4179  159.5201 H   0  0  0  0  0  0  0  0  0  0  0  0  # atno 6908 bound_to 6896
  152.1877  134.8699  160.0571 H   0  0  0  0  0  0  0  0  0  0  0  0  # atno 6909 bound_to 6896
  144.7621  139.8088  143.6329 H   0  0  0  0  0  0  0  0  0  0  0  0  # atno 7974 bound_to 7965
  154.5552  140.0718  156.8732 H   0  0  0  0  0  0  0  0  0  0  0  0  # atno 8008 bound_to 7997
  155.2916  140.3378  155.4234 H   0  0  0  0  0  0  0  0  0  0  0  0  # atno 8009 bound_to 7997
  156.1996  140.1716  156.7913 H   0  0  0  0  0  0  0  0  0  0  0  0  # atno 8010 bound_to 7997
  139.9348  143.6230  152.2520 H   0  0  0  0  0  0  0  0  0  0  0  0  # atno 10167 bound_to 10162
  156.7524  130.9383  151.3115 H   0  0  0  0  0  0  0  0  0  0  0  0  # atno 10718 bound_to 10713
  153.0805  135.4911  154.8494 H   0  0  0  0  0  0  0  0  0  0  0  0  # atno 10763 bound_to 10752
  154.7145  135.3026  154.9148 H   0  0  0  0  0  0  0  0  0  0  0  0  # atno 10764 bound_to 10752
  153.9831  135.6787  153.4804 H   0  0  0  0  0  0  0  0  0  0  0  0  # atno 10765 bound_to 10752
  141.0242  134.0078  157.3238 H   0  0  0  0  0  0  0  0  0  0  0  0  # atno 11005 bound_to 11000
  146.1693  139.4837  142.9938 LP  0  0  0  0  0  0  0  0  0  0  0  0  # atno 17320 bound_to 7965
  145.6587  141.0246  143.1721 LP  0  0  0  0  0  0  0  0  0  0  0  0  # atno 17321 bound_to 7965
  139.6752  144.7659  151.1709 LP  0  0  0  0  0  0  0  0  0  0  0  0  # atno 17342 bound_to 10162
  140.7627  143.5805  150.8899 LP  0  0  0  0  0  0  0  0  0  0  0  0  # atno 17343 bound_to 10162
  157.6771  130.9104  150.0176 LP  0  0  0  0  0  0  0  0  0  0  0  0  # atno 17370 bound_to 10713
  156.1392  130.3642  149.9609 LP  0  0  0  0  0  0  0  0  0  0  0  0  # atno 17371 bound_to 10713
  139.9165  135.0197  156.7902 LP  0  0  0  0  0  0  0  0  0  0  0  0  # atno 17394 bound_to 11000
  140.6520  133.9723  155.7760 LP  0  0  0  0  0  0  0  0  0  0  0  0  # atno 17395 bound_to 11000

$$$$
