AV-unprocessed.smi:1795|AV-procd|sdf|7238|dock2
  -GOLD-   22720 8483D 1   1.00000     0.00000
 Structure written by MMmdl.
 47 48  0  0  0  0  0  0  0  0  1 V2000
  150.6542  140.7941  156.9337 C   0  0  0  0  0  0  0  0  0  0  0  0
  150.7027  141.7254  158.1495 C   0  0  1  0  0  0  0  0  0  0  0  0
  151.7928  141.3114  159.1561 C   0  0  0  0  0  0  0  0  0  0  0  0
  151.9024  142.2313  160.2936 N   0  0  0  0  0  0  0  0  0  0  0  0
  152.9704  141.8334  161.2406 C   0  0  2  0  0  0  0  0  0  0  0  0
  153.0874  142.7939  162.4515 C   0  0  0  0  0  0  0  0  0  0  0  0
  154.3709  141.6997  160.5738 C   0  0  0  0  0  0  0  0  0  0  0  0
  155.1826  140.6258  161.1404 N   0  0  0  0  0  0  0  0  0  0  0  0
  155.7842  139.6599  160.4298 C   0  0  0  0  0  0  0  0  0  0  0  0
  155.7040  139.5782  159.2030 O   0  0  0  0  0  0  0  0  0  0  0  0
  156.5772  138.6242  161.2397 C   0  0  0  0  0  0  0  0  0  0  0  0
  155.8269  138.0779  162.3829 N   0  0  0  0  0  0  0  0  0  0  0  0
  154.7611  137.2031  162.0910 C   0  0  0  0  0  0  0  0  0  0  0  0
  154.0164  136.6438  163.0577 C   0  0  0  0  0  0  0  0  0  0  0  0
  154.3309  136.9602  164.4307 C   0  0  0  0  0  0  0  0  0  0  0  0
  155.3502  137.7931  164.7213 C   0  0  0  0  0  0  0  0  0  0  0  0
  156.1692  138.4042  163.6677 C   0  0  0  0  0  0  0  0  0  0  0  0
  157.1052  139.1620  163.9242 O   0  0  0  0  0  0  0  0  0  0  0  0
  152.0954  143.5845  159.7599 C   0  0  0  0  0  0  0  0  0  0  0  0
  151.0090  143.9943  158.7472 C   0  0  1  0  0  0  0  0  0  0  0  0
  151.2766  145.3757  158.1400 C   0  0  0  0  0  0  0  0  0  0  0  0
  150.9709  143.0439  157.6905 O   0  0  0  0  0  0  0  0  0  0  0  0
  150.4365  139.7685  157.2335 H   0  0  0  0  0  0  0  0  0  0  0  0
  151.6045  140.7927  156.3990 H   0  0  0  0  0  0  0  0  0  0  0  0
  149.8789  141.1068  156.2339 H   0  0  0  0  0  0  0  0  0  0  0  0
  149.7276  141.7107  158.6398 H   0  0  0  0  0  0  0  0  0  0  0  0
  151.5454  140.3083  159.4990 H   0  0  0  0  0  0  0  0  0  0  0  0
  152.7541  141.2435  158.6442 H   0  0  0  0  0  0  0  0  0  0  0  0
  152.7091  140.8521  161.6395 H   0  0  0  0  0  0  0  0  0  0  0  0
  153.9109  142.5304  163.1141 H   0  0  0  0  0  0  0  0  0  0  0  0
  152.2000  142.7740  163.0824 H   0  0  0  0  0  0  0  0  0  0  0  0
  153.2468  143.8218  162.1246 H   0  0  0  0  0  0  0  0  0  0  0  0
  154.3019  141.5032  159.5050 H   0  0  0  0  0  0  0  0  0  0  0  0
  154.9222  142.6348  160.6784 H   0  0  0  0  0  0  0  0  0  0  0  0
  155.2936  140.6188  162.1441 H   0  0  0  0  0  0  0  0  0  0  0  0
  156.8964  137.8160  160.5787 H   0  0  0  0  0  0  0  0  0  0  0  0
  157.5006  139.0947  161.5802 H   0  0  0  0  0  0  0  0  0  0  0  0
  154.5963  137.0124  161.0404 H   0  0  0  0  0  0  0  0  0  0  0  0
  153.2064  135.9716  162.8153 H   0  0  0  0  0  0  0  0  0  0  0  0
  153.7471  136.5261  165.2290 H   0  0  0  0  0  0  0  0  0  0  0  0
  155.5713  138.0173  165.7546 H   0  0  0  0  0  0  0  0  0  0  0  0
  152.0683  144.3204  160.5607 H   0  0  0  0  0  0  0  0  0  0  0  0
  153.0784  143.6594  159.2920 H   0  0  0  0  0  0  0  0  0  0  0  0
  150.0368  144.0129  159.2430 H   0  0  0  0  0  0  0  0  0  0  0  0
  151.3018  146.1456  158.9115 H   0  0  0  0  0  0  0  0  0  0  0  0
  150.4972  145.6451  157.4268 H   0  0  0  0  0  0  0  0  0  0  0  0
  152.2315  145.3973  157.6139 H   0  0  0  0  0  0  0  0  0  0  0  0
  1  2  1  0  0  0  0
  1 23  1  0  0  0  0
  1 24  1  0  0  0  0
  1 25  1  0  0  0  0
  2 22  1  0  0  0  0
  2  3  1  0  0  0  0
  2 26  1  0  0  0  0
  3  4  1  0  0  0  0
  3 27  1  0  0  0  0
  3 28  1  0  0  0  0
  4  5  1  0  0  0  0
  4 19  1  0  0  0  0
  5  6  1  0  0  0  0
  5  7  1  0  0  0  0
  5 29  1  0  0  0  0
  6 30  1  0  0  0  0
  6 31  1  0  0  0  0
  6 32  1  0  0  0  0
  7  8  1  0  0  0  0
  7 33  1  0  0  0  0
  7 34  1  0  0  0  0
  8  9  1  0  0  0  0
  8 35  1  0  0  0  0
  9 10  2  0  0  0  0
  9 11  1  0  0  0  0
 11 12  1  0  0  0  0
 11 36  1  0  0  0  0
 11 37  1  0  0  0  0
 12 17  1  0  0  0  0
 12 13  1  0  0  0  0
 13 14  2  0  0  0  0
 13 38  1  0  0  0  0
 14 15  1  0  0  0  0
 14 39  1  0  0  0  0
 15 16  2  0  0  0  0
 15 40  1  0  0  0  0
 16 17  1  0  0  0  0
 16 41  1  0  0  0  0
 17 18  2  0  0  0  0
 19 20  1  0  0  0  0
 19 42  1  0  0  0  0
 19 43  1  0  0  0  0
 20 21  1  0  0  0  0
 20 22  1  0  0  0  0
 20 44  1  0  0  0  0
 21 45  1  0  0  0  0
 21 46  1  0  0  0  0
 21 47  1  0  0  0  0
M  END
> <s_m_source_file>
AV-unprocessed.smi

> <i_m_source_file_index>
1795

> <i_lp_mmshare_version>
43012

> <i_f3d_flags>
0

> <s_epik_input>
W0NIM11bQ0BASF0xW0NIMl1OKFtDSDJdW0NASF0oTzEpW0NIM10pW0NASF0oW0NIM10pW0NIMl1bTkhdQyg9TylbQ0gyXW4yW2NIXVtjSF1bY0hdW2NIXWMyPU8=

> <s_epik_cmdline>
J2VwaWtfcHl0aG9uJywgJy1waCcsICc3LjAnLCAnLXRuJywgJzgnLCAnLW1hJywgJzIwMCcsICctbWV0YWxfYmluZGluZycsICctaW1hZScsICc8aW5maWxlLm1hZT4nLCAnLW9tYWUnLCAnPG91dGZpbGUubWFlPic=

> <r_lp_tautomer_probability>
1

> <r_epik_Ionization_Penalty>
0.237383

> <r_epik_Ionization_Penalty_Charging>
3.58805e-07

> <r_epik_Ionization_Penalty_Neutral>
0.237382

> <r_epik_State_Penalty>
0.228245

> <r_epik_Charging_Adjusted_Penalty>
0.228245

> <i_epik_Tot_Q>
0

> <i_epik_Tot_abs_Q>
0

> <r_epik_Metal_State_Penalty>
0.228221

> <b_epik_Metal_Only>
0

> <s_lp_Force_Field>
OPLS_2005

> <r_lp_Energy>
36.5545

> <b_lp_Chiralities_Consistent>
1

> <s_lp_Variant>
AV-unprocessed.smi:1795-2

> <Gold.Version>
5.8.1

> <Gold.Id.Protein>
6NUR|6NUR_protein|mol2

> <Gold.PLP.Fitness>
43.8644

> <Gold.PLP.PLP>
-42.2036

> <Gold.PLP.part.hbond>
-2.1037

> <Gold.PLP.part.metal>
0.0000

> <Gold.PLP.part.buried>
-5.7144

> <Gold.PLP.part.nonpolar>
-34.3173

> <Gold.PLP.part.repulsive>
0.1524

> <Gold.PLP.ligand.clash>
0.0000

> <Gold.PLP.ligand.torsion>
0.6804

> <Gold.PLP.Chemscore.Hbond>
0.9913

> <Gold.PLP.Chemscore.CHOScore>
0.0000

> <Gold.PLP.Chemscore.Metal>
0.0000

> <Gold.Chemscore.Hbonds>
donor molecule, donor type, donor heavy atom, donor atom, acceptor molecule, acceptor atom, score
      P1  H  7997  8010       L1    10  1.00

> <Gold.PLP.Chemscore.Internal.Correction>
0.0478

> <Gold.Rescore>
     Score         DG    S(hbond)    S(metal)    S(lipo)     H(rot)  DE(clash)    DE(int)     intcor
     16.81     -17.49       1.00        0.00     114.14       1.83       0.02       0.66       ----

> <Gold.Chemscore.Fitness>
16.8092

> <Gold.Chemscore.DG>
-17.4924

> <Gold.Chemscore.ZeroCoef>
-5.4800

> <Gold.Chemscore.Hbond>
0.9970

> <Gold.Chemscore.Metal>
0.0000

> <Gold.Chemscore.Lipo>
114.1441

> <Gold.Chemscore.Internal_Hbond>
0.0000

> <Gold.Chemscore.DEClash>
0.0223

> <Gold.Chemscore.DEInternal>
0.6609

> <Gold.Chemscore.Rot>
1.8251

> <Gold.Chemscore.Internal.Correction>
   9.000000E+99

> <Gold.Chemscore.Hbonds>
donor molecule, donor type, donor heavy atom, donor atom, acceptor molecule, acceptor atom, score
      P1  H  7997  8010       L1    10  1.00

> <Gold.Chemscore.Hbond.Weighted>
-3.3299

> <Gold.Chemscore.Metal.Weighted>
-0.0000

> <Gold.Chemscore.Lipo.Weighted>
-13.3549

> <Gold.Chemscore.Internal_Hbond.Weighted>
0.0000

> <Gold.Chemscore.DEClash.Weighted>
0.0223

> <Gold.Chemscore.DEInternal.Weighted>
0.6609

> <Gold.Chemscore.Rot.Weighted>
4.6724

> <Gold.Chemscore.Internal.Correction.Weighted>
   9.000000E+99

> <Gold.Protein.RotatedTorsions>
[ 6907 6896 6895 6894 ] final  -46.09 input  -60.11 | X-H torsion
[ 7974 7965 7964 7962 ] final    5.49 input  175.53 | X-H torsion
[ 8008 7997 7996 7995 ] final  -23.67 input   59.86 | X-H torsion
[ 10167 10162 10161 10158 ] final  104.65 input  -65.29 | X-H torsion
[ 10718 10713 10712 10709 ] final  -72.16 input   66.30 | X-H torsion
[ 10763 10752 10751 10750 ] final -115.26 input  -60.55 | X-H torsion
[ 11005 11000 10999 10996 ] final   -5.54 input  -57.11 | X-H torsion

> <Gold.Protein.ActiveResidues>
 VAL166  LYS551  ARG553  GLY616  TRP617  ASP618  TYR619  PRO620  LYS621  CYS622 
 ASP623  PHE694  ASN695  SER759  ASP760  ASP761  ALA762  ILE779  LEU786  VAL792 
 PHE793  MET794  SER795  GLU796  ALA797  LYS798  CYS799  TRP800  GLU811  SER814 

> <Gold.Protein.RotatedAtoms>
  150.9149  134.8567  159.7450 H   0  0  0  0  0  0  0  0  0  0  0  0  # atno 6907 bound_to 6896
  152.4963  134.4304  159.9520 H   0  0  0  0  0  0  0  0  0  0  0  0  # atno 6908 bound_to 6896
  151.4343  133.3622  159.2808 H   0  0  0  0  0  0  0  0  0  0  0  0  # atno 6909 bound_to 6896
  146.2440  140.0375  142.8385 H   0  0  0  0  0  0  0  0  0  0  0  0  # atno 7974 bound_to 7965
  154.4572  140.1974  156.0347 H   0  0  0  0  0  0  0  0  0  0  0  0  # atno 8008 bound_to 7997
  156.0769  140.3277  155.7617 H   0  0  0  0  0  0  0  0  0  0  0  0  # atno 8009 bound_to 7997
  155.5174  140.0567  157.2903 H   0  0  0  0  0  0  0  0  0  0  0  0  # atno 8010 bound_to 7997
  139.7159  144.7068  151.0951 H   0  0  0  0  0  0  0  0  0  0  0  0  # atno 10167 bound_to 10162
  156.0332  130.4366  150.2551 H   0  0  0  0  0  0  0  0  0  0  0  0  # atno 10718 bound_to 10713
  154.8474  135.4388  154.1635 H   0  0  0  0  0  0  0  0  0  0  0  0  # atno 10763 bound_to 10752
  153.2766  135.6950  153.7433 H   0  0  0  0  0  0  0  0  0  0  0  0  # atno 10764 bound_to 10752
  153.6653  135.3428  155.3113 H   0  0  0  0  0  0  0  0  0  0  0  0  # atno 10765 bound_to 10752
  140.6922  133.9061  155.8626 H   0  0  0  0  0  0  0  0  0  0  0  0  # atno 11005 bound_to 11000
  145.1099  140.9398  143.4663 LP  0  0  0  0  0  0  0  0  0  0  0  0  # atno 17320 bound_to 7965
  145.0587  139.3123  143.5891 LP  0  0  0  0  0  0  0  0  0  0  0  0  # atno 17321 bound_to 7965
  140.7743  143.5231  150.9513 LP  0  0  0  0  0  0  0  0  0  0  0  0  # atno 17342 bound_to 10162
  139.8917  143.6945  152.3144 LP  0  0  0  0  0  0  0  0  0  0  0  0  # atno 17343 bound_to 10162
  157.0653  131.0101  151.3209 LP  0  0  0  0  0  0  0  0  0  0  0  0  # atno 17370 bound_to 10713
  157.5040  130.7897  149.7635 LP  0  0  0  0  0  0  0  0  0  0  0  0  # atno 17371 bound_to 10713
  141.0232  134.0860  157.4097 LP  0  0  0  0  0  0  0  0  0  0  0  0  # atno 17394 bound_to 11000
  139.8920  135.0122  156.6823 LP  0  0  0  0  0  0  0  0  0  0  0  0  # atno 17395 bound_to 11000

$$$$
