AV-unprocessed.smi:3141|AV-procd|sdf|11967|dock9
  -GOLD-   2272017363D 1   1.00000     0.00000
 Structure written by MMmdl.
 35 37  0  0  0  0  0  0  0  0  1 V2000
  144.5199  137.6363  152.3911 O   0  0  0  0  0  0  0  0  0  0  0  0
  145.6509  137.1670  152.2615 C   0  0  0  0  0  0  0  0  0  0  0  0
  146.7797  137.8791  152.3714 N   0  0  0  0  0  0  0  0  0  0  0  0
  146.8518  139.2711  152.6758 C   0  0  0  0  0  0  0  0  0  0  0  0
  147.7231  139.6938  153.8387 C   0  0  0  0  0  0  0  0  0  0  0  0
  146.2261  139.7368  153.9726 C   0  0  0  0  0  0  0  0  0  0  0  0
  145.9045  135.8733  152.0160 N   0  0  0  0  0  0  0  0  0  0  0  0
  144.8958  134.8181  151.8958 C   0  0  1  0  0  0  0  0  0  0  0  0
  144.4308  134.6988  150.4282 C   0  0  0  0  0  0  0  0  0  0  0  0
  144.7756  133.2768  149.9644 C   0  0  0  0  0  0  0  0  0  0  0  0
  145.8579  132.7932  150.9262 C   0  0  0  0  0  0  0  0  0  0  0  0
  145.4371  133.4148  152.2610 C   0  0  1  0  0  0  0  0  0  0  0  0
  146.4530  133.3806  153.3085 N   0  0  0  0  0  0  0  0  0  0  0  0
  147.7591  132.9030  153.2375 C   0  0  0  0  0  0  0  0  0  0  0  0
  148.3311  133.1299  154.4685 C   0  0  0  0  0  0  0  0  0  0  0  0
  147.4109  133.7549  155.3051 N   0  0  0  0  0  0  0  0  0  0  0  0
  146.3283  133.8763  154.5481 C   0  0  0  0  0  0  0  0  0  0  0  0
  147.6580  137.3966  152.2500 H   0  0  0  0  0  0  0  0  0  0  0  0
  146.7947  139.9692  151.8417 H   0  0  0  0  0  0  0  0  0  0  0  0
  148.2543  138.9175  154.3862 H   0  0  0  0  0  0  0  0  0  0  0  0
  148.2469  140.6438  153.7529 H   0  0  0  0  0  0  0  0  0  0  0  0
  145.7503  140.7152  153.9765 H   0  0  0  0  0  0  0  0  0  0  0  0
  145.7568  138.9890  154.6094 H   0  0  0  0  0  0  0  0  0  0  0  0
  146.8690  135.5882  151.9298 H   0  0  0  0  0  0  0  0  0  0  0  0
  144.0391  135.0543  152.5298 H   0  0  0  0  0  0  0  0  0  0  0  0
  143.3612  134.8887  150.3319 H   0  0  0  0  0  0  0  0  0  0  0  0
  144.9379  135.4268  149.7929 H   0  0  0  0  0  0  0  0  0  0  0  0
  143.8955  132.6390  150.0589 H   0  0  0  0  0  0  0  0  0  0  0  0
  145.0968  133.2420  148.9230 H   0  0  0  0  0  0  0  0  0  0  0  0
  145.9252  131.7058  150.9704 H   0  0  0  0  0  0  0  0  0  0  0  0
  146.8226  133.1789  150.5965 H   0  0  0  0  0  0  0  0  0  0  0  0
  144.5921  132.8275  152.6261 H   0  0  0  0  0  0  0  0  0  0  0  0
  148.1724  132.4581  152.3452 H   0  0  0  0  0  0  0  0  0  0  0  0
  149.3299  132.9017  154.8103 H   0  0  0  0  0  0  0  0  0  0  0  0
  145.4217  134.3445  154.9026 H   0  0  0  0  0  0  0  0  0  0  0  0
  1  2  2  0  0  0  0
  2  3  1  0  0  0  0
  2  7  1  0  0  0  0
  3  4  1  0  0  0  0
  3 18  1  0  0  0  0
  4  6  1  0  0  0  0
  4  5  1  0  0  0  0
  4 19  1  0  0  0  0
  5  6  1  0  0  0  0
  5 20  1  0  0  0  0
  5 21  1  0  0  0  0
  6 22  1  0  0  0  0
  6 23  1  0  0  0  0
  7  8  1  0  0  0  0
  7 24  1  0  0  0  0
  8 12  1  0  0  0  0
  8  9  1  0  0  0  0
  8 25  1  0  0  0  0
  9 10  1  0  0  0  0
  9 26  1  0  0  0  0
  9 27  1  0  0  0  0
 10 11  1  0  0  0  0
 10 28  1  0  0  0  0
 10 29  1  0  0  0  0
 11 12  1  0  0  0  0
 11 30  1  0  0  0  0
 11 31  1  0  0  0  0
 12 13  1  0  0  0  0
 12 32  1  0  0  0  0
 13 17  1  0  0  0  0
 13 14  1  0  0  0  0
 14 15  2  0  0  0  0
 14 33  1  0  0  0  0
 15 16  1  0  0  0  0
 15 34  1  0  0  0  0
 16 17  2  0  0  0  0
 17 35  1  0  0  0  0
M  END
> <s_m_source_file>
AV-unprocessed.smi

> <i_m_source_file_index>
3141

> <i_lp_mmshare_version>
43012

> <i_f3d_flags>
0

> <s_epik_input>
W0NIMl0xW0NIMl1bQ0hdMVtOSF1DKD1PKVtOSF1bQ0BASF0yW0NIMl1bQ0gyXVtDSDJdW0NASF0ybjNbY0hdW2NIXW5bY0hdMw==

> <s_epik_cmdline>
J2VwaWtfcHl0aG9uJywgJy1waCcsICc3LjAnLCAnLXRuJywgJzgnLCAnLW1hJywgJzIwMCcsICctbWV0YWxfYmluZGluZycsICctaW1hZScsICc8aW5maWxlLm1hZT4nLCAnLW9tYWUnLCAnPG91dGZpbGUubWFlPic=

> <r_lp_tautomer_probability>
1

> <r_epik_Ionization_Penalty>
0.728419

> <r_epik_Ionization_Penalty_Charging>
0.728357

> <r_epik_Ionization_Penalty_Neutral>
6.27871e-05

> <r_epik_State_Penalty>
0.753408

> <r_epik_Charging_Adjusted_Penalty>
1.48176

> <i_epik_Tot_Q>
0

> <i_epik_Tot_abs_Q>
0

> <r_epik_Metal_State_Penalty>
0.332413

> <b_epik_Metal_Only>
0

> <s_lp_Force_Field>
OPLS_2005

> <r_lp_Energy>
36.0261

> <b_lp_Chiralities_Consistent>
1

> <s_lp_Variant>
AV-unprocessed.smi:3141-6

> <Gold.Version>
5.8.1

> <Gold.Id.Protein>
6NUR|6NUR_protein|mol2

> <Gold.PLP.Fitness>
36.0604

> <Gold.PLP.PLP>
-27.9723

> <Gold.PLP.part.hbond>
-2.0000

> <Gold.PLP.part.metal>
0.0000

> <Gold.PLP.part.buried>
-2.0635

> <Gold.PLP.part.nonpolar>
-24.2962

> <Gold.PLP.part.repulsive>
0.3791

> <Gold.PLP.ligand.clash>
0.0000

> <Gold.PLP.ligand.torsion>
0.4021

> <Gold.PLP.Chemscore.Hbond>
1.9440

> <Gold.PLP.Chemscore.CHOScore>
1.0000

> <Gold.PLP.Chemscore.Metal>
0.0000

> <Gold.Chemscore.Hbonds>
donor molecule, donor type, donor heavy atom, donor atom, acceptor molecule, acceptor atom, score
      L1  H     3    18       P1  7948  1.00
      L1  H     7    24       P1  7948  0.66
      L1  C    14    33       P1 10747  0.51

> <Gold.PLP.Chemscore.Internal.Correction>
0.0604

> <Gold.Rescore>
     Score         DG    S(hbond)    S(metal)    S(lipo)     H(rot)  DE(clash)    DE(int)     intcor
     14.44     -15.17       1.95        0.00      61.59       1.57       0.35       0.38       ----

> <Gold.Chemscore.Fitness>
14.4434

> <Gold.Chemscore.DG>
-15.1699

> <Gold.Chemscore.ZeroCoef>
-5.4800

> <Gold.Chemscore.Hbond>
1.9474

> <Gold.Chemscore.Metal>
0.0000

> <Gold.Chemscore.Lipo>
61.5925

> <Gold.Chemscore.Internal_Hbond>
0.0000

> <Gold.Chemscore.DEClash>
0.3506

> <Gold.Chemscore.DEInternal>
0.3759

> <Gold.Chemscore.Rot>
1.5705

> <Gold.Chemscore.Internal.Correction>
   9.000000E+99

> <Gold.Chemscore.Hbonds>
donor molecule, donor type, donor heavy atom, donor atom, acceptor molecule, acceptor atom, score
      L1  H     3    18       P1  7948  1.00
      L1  H     7    24       P1  7948  0.63

> <Gold.Chemscore.Hbond.Weighted>
-6.5042

> <Gold.Chemscore.Metal.Weighted>
-0.0000

> <Gold.Chemscore.Lipo.Weighted>
-7.2063

> <Gold.Chemscore.Internal_Hbond.Weighted>
0.0000

> <Gold.Chemscore.DEClash.Weighted>
0.3506

> <Gold.Chemscore.DEInternal.Weighted>
0.3759

> <Gold.Chemscore.Rot.Weighted>
4.0206

> <Gold.Chemscore.Internal.Correction.Weighted>
   9.000000E+99

> <Gold.Protein.RotatedTorsions>
[ 6907 6896 6895 6894 ] final   89.01 input  -60.11 | X-H torsion
[ 7974 7965 7964 7962 ] final  -94.98 input  175.53 | X-H torsion
[ 8008 7997 7996 7995 ] final -127.67 input   59.86 | X-H torsion
[ 10167 10162 10161 10158 ] final   51.10 input  -65.29 | X-H torsion
[ 10718 10713 10712 10709 ] final  -48.13 input   66.30 | X-H torsion
[ 10763 10752 10751 10750 ] final  -92.31 input  -60.55 | X-H torsion
[ 11005 11000 10999 10996 ] final   74.59 input  -57.11 | X-H torsion

> <Gold.Protein.ActiveResidues>
 VAL166  LYS551  ARG553  GLY616  TRP617  ASP618  TYR619  PRO620  LYS621  CYS622 
 ASP623  PHE694  ASN695  SER759  ASP760  ASP761  ALA762  ILE779  LEU786  VAL792 
 PHE793  MET794  SER795  GLU796  ALA797  LYS798  CYS799  TRP800  GLU811  SER814 

> <Gold.Protein.RotatedAtoms>
  152.5431  134.2033  159.8720 H   0  0  0  0  0  0  0  0  0  0  0  0  # atno 6907 bound_to 6896
  151.2020  133.4598  159.2604 H   0  0  0  0  0  0  0  0  0  0  0  0  # atno 6908 bound_to 6896
  151.0980  134.9968  159.8490 H   0  0  0  0  0  0  0  0  0  0  0  0  # atno 6909 bound_to 6896
  145.3661  140.9499  143.2473 H   0  0  0  0  0  0  0  0  0  0  0  0  # atno 7974 bound_to 7965
  155.2500  140.0432  157.2985 H   0  0  0  0  0  0  0  0  0  0  0  0  # atno 8008 bound_to 7997
  154.5775  140.2391  155.8072 H   0  0  0  0  0  0  0  0  0  0  0  0  # atno 8009 bound_to 7997
  156.2168  140.2982  155.9867 H   0  0  0  0  0  0  0  0  0  0  0  0  # atno 8010 bound_to 7997
  140.2654  144.3325  150.6305 H   0  0  0  0  0  0  0  0  0  0  0  0  # atno 10167 bound_to 10162
  156.2018  130.4156  149.9231 H   0  0  0  0  0  0  0  0  0  0  0  0  # atno 10718 bound_to 10713
  154.6848  135.5236  153.8312 H   0  0  0  0  0  0  0  0  0  0  0  0  # atno 10763 bound_to 10752
  153.0590  135.6561  154.0517 H   0  0  0  0  0  0  0  0  0  0  0  0  # atno 10764 bound_to 10752
  154.0400  135.2978  155.3336 H   0  0  0  0  0  0  0  0  0  0  0  0  # atno 10765 bound_to 10752
  139.9383  134.7446  156.1167 H   0  0  0  0  0  0  0  0  0  0  0  0  # atno 11005 bound_to 11000
  144.8611  139.5176  143.6812 LP  0  0  0  0  0  0  0  0  0  0  0  0  # atno 17320 bound_to 7965
  146.2906  139.7129  142.9163 LP  0  0  0  0  0  0  0  0  0  0  0  0  # atno 17321 bound_to 7965
  140.5932  143.2167  151.7213 LP  0  0  0  0  0  0  0  0  0  0  0  0  # atno 17342 bound_to 10162
  139.5004  144.3907  152.0283 LP  0  0  0  0  0  0  0  0  0  0  0  0  # atno 17343 bound_to 10162
  156.6938  130.8906  151.3591 LP  0  0  0  0  0  0  0  0  0  0  0  0  # atno 17370 bound_to 10713
  157.6990  130.9312  150.0728 LP  0  0  0  0  0  0  0  0  0  0  0  0  # atno 17371 bound_to 10713
  141.1007  133.6678  156.2748 LP  0  0  0  0  0  0  0  0  0  0  0  0  # atno 17394 bound_to 11000
  140.6016  134.5548  157.5518 LP  0  0  0  0  0  0  0  0  0  0  0  0  # atno 17395 bound_to 11000

$$$$
