AV-unprocessed.smi:1758|AV-procd|sdf|7084|dock4
  -GOLD-   22720 8303D 1   1.00000     0.00000
 Structure written by MMmdl.
 44 46  0  0  0  0  0  0  0  0  2 V2000
  151.2793  145.0425  158.7041 C   0  0  0  0  0  0  0  0  0  0  0  0
  152.2297  143.9162  158.2812 C   0  0  0  0  0  0  0  0  0  0  0  0
  151.5262  142.6635  158.0879 N   0  0  0  0  0  0  0  0  0  0  0  0
  150.4832  142.3946  157.2241 C   0  0  0  0  0  0  0  0  0  0  0  0
  150.1767  141.0768  157.4147 C   0  0  0  0  0  0  0  0  0  0  0  0
  149.1880  140.2826  156.7816 N   0  0  0  0  0  0  0  0  0  0  0  0
  148.4989  140.5759  155.6672 C   0  0  0  0  0  0  0  0  0  0  0  0
  148.6130  141.6139  155.0154 O   0  0  0  0  0  0  0  0  0  0  0  0
  147.6488  139.5903  155.3472 N   0  0  0  0  0  0  0  0  0  0  0  0
  146.7392  139.6042  154.2054 C   0  0  1  0  0  0  0  0  0  0  0  0
  147.4620  139.4146  152.8602 C   0  0  0  0  0  0  0  0  0  0  0  0
  146.5181  138.5422  152.0085 C   0  0  0  0  0  0  0  0  0  0  0  0
  145.3088  138.3532  152.8325 N   0  3  1  0  0  0  0  0  0  0  0  0
  144.4866  137.1547  152.5577 C   0  0  0  0  0  0  0  0  0  0  0  0
  143.2336  137.1808  153.4561 C   0  0  0  0  0  0  0  0  0  0  0  0
  143.6002  137.3502  154.9446 C   0  0  0  0  0  0  0  0  0  0  0  0
  144.5320  138.5594  155.1545 C   0  0  0  0  0  0  0  0  0  0  0  0
  145.7558  138.4317  154.2315 C   0  0  2  0  0  0  0  0  0  0  0  0
  151.0745  140.6101  158.4097 C   0  0  0  0  0  0  0  0  0  0  0  0
  151.8862  141.5755  158.8130 N   0  0  0  0  0  0  0  0  0  0  0  0
  151.8241  145.9752  158.8487 H   0  0  0  0  0  0  0  0  0  0  0  0
  150.7763  144.8014  159.6409 H   0  0  0  0  0  0  0  0  0  0  0  0
  150.5137  145.2192  157.9480 H   0  0  0  0  0  0  0  0  0  0  0  0
  152.7419  144.1776  157.3544 H   0  0  0  0  0  0  0  0  0  0  0  0
  153.0005  143.7707  159.0386 H   0  0  0  0  0  0  0  0  0  0  0  0
  150.0714  143.1490  156.5699 H   0  0  0  0  0  0  0  0  0  0  0  0
  148.9859  139.3985  157.2253 H   0  0  0  0  0  0  0  0  0  0  0  0
  147.6254  138.7740  155.9408 H   0  0  0  0  0  0  0  0  0  0  0  0
  146.1845  140.5444  154.1659 H   0  0  0  0  0  0  0  0  0  0  0  0
  147.6674  140.3750  152.3857 H   0  0  0  0  0  0  0  0  0  0  0  0
  148.4173  138.9035  152.9897 H   0  0  0  0  0  0  0  0  0  0  0  0
  146.2660  139.0088  151.0559 H   0  0  0  0  0  0  0  0  0  0  0  0
  146.9862  137.5788  151.8010 H   0  0  0  0  0  0  0  0  0  0  0  0
  144.1967  137.1420  151.5065 H   0  0  0  0  0  0  0  0  0  0  0  0
  145.0711  136.2521  152.7430 H   0  0  0  0  0  0  0  0  0  0  0  0
  142.5880  138.0052  153.1501 H   0  0  0  0  0  0  0  0  0  0  0  0
  142.6536  136.2682  153.3153 H   0  0  0  0  0  0  0  0  0  0  0  0
  142.6966  137.4633  155.5443 H   0  0  0  0  0  0  0  0  0  0  0  0
  144.0957  136.4459  155.3003 H   0  0  0  0  0  0  0  0  0  0  0  0
  143.9954  139.4853  154.9429 H   0  0  0  0  0  0  0  0  0  0  0  0
  144.8447  138.6090  156.1978 H   0  0  0  0  0  0  0  0  0  0  0  0
  146.2991  137.5154  154.4743 H   0  0  0  0  0  0  0  0  0  0  0  0
  151.1631  139.6250  158.8436 H   0  0  0  0  0  0  0  0  0  0  0  0
  144.7247  139.1620  152.6746 H   0  0  0  0  0  0  0  0  0  0  0  0
  1  2  1  0  0  0  0
  1 21  1  0  0  0  0
  1 22  1  0  0  0  0
  1 23  1  0  0  0  0
  2  3  1  0  0  0  0
  2 24  1  0  0  0  0
  2 25  1  0  0  0  0
  3 20  1  0  0  0  0
  3  4  1  0  0  0  0
  4  5  2  0  0  0  0
  4 26  1  0  0  0  0
  5  6  1  0  0  0  0
  5 19  1  0  0  0  0
  6  7  1  0  0  0  0
  6 27  1  0  0  0  0
  7  8  2  0  0  0  0
  7  9  1  0  0  0  0
  9 10  1  0  0  0  0
  9 28  1  0  0  0  0
 10 18  1  0  0  0  0
 10 11  1  0  0  0  0
 10 29  1  0  0  0  0
 11 12  1  0  0  0  0
 11 30  1  0  0  0  0
 11 31  1  0  0  0  0
 12 13  1  0  0  0  0
 12 32  1  0  0  0  0
 12 33  1  0  0  0  0
 13 18  1  0  0  0  0
 13 14  1  0  0  0  0
 13 44  1  0  0  0  0
 14 15  1  0  0  0  0
 14 34  1  0  0  0  0
 14 35  1  0  0  0  0
 15 16  1  0  0  0  0
 15 36  1  0  0  0  0
 15 37  1  0  0  0  0
 16 17  1  0  0  0  0
 16 38  1  0  0  0  0
 16 39  1  0  0  0  0
 17 18  1  0  0  0  0
 17 40  1  0  0  0  0
 17 41  1  0  0  0  0
 18 42  1  0  0  0  0
 19 20  2  0  0  0  0
 19 43  1  0  0  0  0
M  CHG  1  13   1
M  END
> <s_m_source_file>
AV-unprocessed.smi

> <i_m_source_file_index>
1758

> <i_lp_mmshare_version>
43012

> <i_f3d_flags>
0

> <s_epik_input>
W0NIM11bQ0gyXW4xW2NIXWMoW2NIXW4xKVtOSF1DKD1PKVtOSF1bQ0BIXShbQ0gyXVtDSDJdMilbQ0BASF0oTjIzKVtDSDJdW0NIMl1bQ0gyXVtDSDJdMw==

> <s_epik_cmdline>
J2VwaWtfcHl0aG9uJywgJy1waCcsICc3LjAnLCAnLXRuJywgJzgnLCAnLW1hJywgJzIwMCcsICctbWV0YWxfYmluZGluZycsICctaW1hZScsICc8aW5maWxlLm1hZT4nLCAnLW9tYWUnLCAnPG91dGZpbGUubWFlPic=

> <r_lp_tautomer_probability>
1

> <r_epik_Ionization_Penalty>
0.00111541

> <r_epik_Ionization_Penalty_Charging>
0.000974069

> <r_epik_Ionization_Penalty_Neutral>
0.000141346

> <r_epik_State_Penalty>
0.000633842

> <r_epik_Charging_Adjusted_Penalty>
0.00160791

> <i_epik_Tot_Q>
1

> <i_epik_Tot_abs_Q>
1

> <r_epik_Metal_State_Penalty>
-0

> <b_epik_Metal_Only>
0

> <s_lp_Force_Field>
OPLS_2005

> <r_lp_Energy>
38.7451

> <b_lp_Chiralities_Consistent>
1

> <s_lp_Variant>
AV-unprocessed.smi:1758-6

> <Gold.Version>
5.8.1

> <Gold.Id.Protein>
6NUR|6NUR_protein|mol2

> <Gold.PLP.Fitness>
37.2868

> <Gold.PLP.PLP>
-28.5887

> <Gold.PLP.part.hbond>
-1.0000

> <Gold.PLP.part.metal>
0.0000

> <Gold.PLP.part.buried>
-1.5626

> <Gold.PLP.part.nonpolar>
-26.6695

> <Gold.PLP.part.repulsive>
0.1551

> <Gold.PLP.ligand.clash>
0.0000

> <Gold.PLP.ligand.torsion>
0.1562

> <Gold.PLP.Chemscore.Hbond>
2.0000

> <Gold.PLP.Chemscore.CHOScore>
1.0000

> <Gold.PLP.Chemscore.Metal>
0.0000

> <Gold.Chemscore.Hbonds>
donor molecule, donor type, donor heavy atom, donor atom, acceptor molecule, acceptor atom, score
      L1  H    13    44       P1 10175  2.00
      L1  C     4    26       P1  8028  1.00

> <Gold.PLP.Chemscore.Internal.Correction>
0.0105

> <Gold.Rescore>
     Score         DG    S(hbond)    S(metal)    S(lipo)     H(rot)  DE(clash)    DE(int)     intcor
     12.52     -14.19       1.00        0.00      71.88       1.19       0.38       1.29       ----

> <Gold.Chemscore.Fitness>
12.5198

> <Gold.Chemscore.DG>
-14.1866

> <Gold.Chemscore.ZeroCoef>
-5.4800

> <Gold.Chemscore.Hbond>
0.9997

> <Gold.Chemscore.Metal>
0.0000

> <Gold.Chemscore.Lipo>
71.8790

> <Gold.Chemscore.Internal_Hbond>
0.0000

> <Gold.Chemscore.DEClash>
0.3792

> <Gold.Chemscore.DEInternal>
1.2875

> <Gold.Chemscore.Rot>
1.1884

> <Gold.Chemscore.Internal.Correction>
   9.000000E+99

> <Gold.Chemscore.Hbonds>
donor molecule, donor type, donor heavy atom, donor atom, acceptor molecule, acceptor atom, score
      L1  H    13    44       P1 10175  1.00

> <Gold.Chemscore.Hbond.Weighted>
-3.3391

> <Gold.Chemscore.Metal.Weighted>
-0.0000

> <Gold.Chemscore.Lipo.Weighted>
-8.4098

> <Gold.Chemscore.Internal_Hbond.Weighted>
0.0000

> <Gold.Chemscore.DEClash.Weighted>
0.3792

> <Gold.Chemscore.DEInternal.Weighted>
1.2875

> <Gold.Chemscore.Rot.Weighted>
3.0423

> <Gold.Chemscore.Internal.Correction.Weighted>
   9.000000E+99

> <Gold.Protein.RotatedTorsions>
[ 6907 6896 6895 6894 ] final  117.66 input  -60.11 | X-H torsion
[ 7974 7965 7964 7962 ] final   -5.97 input  175.53 | X-H torsion
[ 8008 7997 7996 7995 ] final -166.07 input   59.86 | X-H torsion
[ 10167 10162 10161 10158 ] final  -54.30 input  -65.29 | X-H torsion
[ 10718 10713 10712 10709 ] final  174.14 input   66.30 | X-H torsion
[ 10763 10752 10751 10750 ] final  -26.85 input  -60.55 | X-H torsion
[ 11005 11000 10999 10996 ] final    1.68 input  -57.11 | X-H torsion

> <Gold.Protein.ActiveResidues>
 VAL166  LYS551  ARG553  GLY616  TRP617  ASP618  TYR619  PRO620  LYS621  CYS622 
 ASP623  PHE694  ASN695  SER759  ASP760  ASP761  ALA762  ILE779  LEU786  VAL792 
 PHE793  MET794  SER795  GLU796  ALA797  LYS798  CYS799  TRP800  GLU811  SER814 

> <Gold.Protein.RotatedAtoms>
  152.4597  133.7796  159.6843 H   0  0  0  0  0  0  0  0  0  0  0  0  # atno 6907 bound_to 6896
  150.8536  133.7739  159.3023 H   0  0  0  0  0  0  0  0  0  0  0  0  # atno 6908 bound_to 6896
  151.5327  135.1071  159.9958 H   0  0  0  0  0  0  0  0  0  0  0  0  # atno 6909 bound_to 6896
  146.2341  140.2100  142.8335 H   0  0  0  0  0  0  0  0  0  0  0  0  # atno 7974 bound_to 7965
  155.8587  140.0974  157.1627 H   0  0  0  0  0  0  0  0  0  0  0  0  # atno 8008 bound_to 7997
  154.3989  140.1369  156.3996 H   0  0  0  0  0  0  0  0  0  0  0  0  # atno 8009 bound_to 7997
  155.7880  140.3456  155.5336 H   0  0  0  0  0  0  0  0  0  0  0  0  # atno 8010 bound_to 7997
  140.6438  143.2523  151.4917 H   0  0  0  0  0  0  0  0  0  0  0  0  # atno 10167 bound_to 10162
  156.9540  131.0040  151.2942 H   0  0  0  0  0  0  0  0  0  0  0  0  # atno 10718 bound_to 10713
  153.7226  135.6944  153.5009 H   0  0  0  0  0  0  0  0  0  0  0  0  # atno 10763 bound_to 10752
  153.2193  135.4375  155.0470 H   0  0  0  0  0  0  0  0  0  0  0  0  # atno 10764 bound_to 10752
  154.8279  135.3456  154.6758 H   0  0  0  0  0  0  0  0  0  0  0  0  # atno 10765 bound_to 10752
  140.6127  133.9733  155.8185 H   0  0  0  0  0  0  0  0  0  0  0  0  # atno 11005 bound_to 11000
  144.9714  140.8372  143.5453 LP  0  0  0  0  0  0  0  0  0  0  0  0  # atno 17320 bound_to 7965
  145.2082  139.2218  143.5157 LP  0  0  0  0  0  0  0  0  0  0  0  0  # atno 17321 bound_to 7965
  139.5647  144.2070  152.1747 LP  0  0  0  0  0  0  0  0  0  0  0  0  # atno 17342 bound_to 10162
  140.1348  144.5255  150.6780 LP  0  0  0  0  0  0  0  0  0  0  0  0  # atno 17343 bound_to 10162
  157.5702  130.8305  149.8382 LP  0  0  0  0  0  0  0  0  0  0  0  0  # atno 17370 bound_to 10713
  156.0350  130.3754  150.1584 LP  0  0  0  0  0  0  0  0  0  0  0  0  # atno 17371 bound_to 10713
  141.0797  134.0081  157.3405 LP  0  0  0  0  0  0  0  0  0  0  0  0  # atno 17394 bound_to 11000
  139.9185  135.0199  156.7976 LP  0  0  0  0  0  0  0  0  0  0  0  0  # atno 17395 bound_to 11000

$$$$
