AV-unprocessed.smi:2432|AV-procd|sdf|9588|dock4
  -GOLD-   2272013223D 1   1.00000     0.00000
 Structure written by MMmdl.
 33 34  0  0  0  0  0  0  0  0  1 V2000
  146.4099  143.0042  154.0024 C   0  0  0  0  0  0  0  0  0  0  0  0
  147.7500  142.5725  154.3677 N   0  0  0  0  0  0  0  0  0  0  0  0
  148.1844  141.3055  154.2940 C   0  0  0  0  0  0  0  0  0  0  0  0
  147.4736  140.3775  153.9058 O   0  0  0  0  0  0  0  0  0  0  0  0
  149.6288  141.0513  154.7483 C   0  0  1  0  0  0  0  0  0  0  0  0
  149.9020  141.5609  156.1815 C   0  0  0  0  0  0  0  0  0  0  0  0
  151.2561  141.2166  156.5958 N   0  0  0  0  0  0  0  0  0  0  0  0
  151.7365  141.8374  157.7333 C   0  0  0  0  0  0  0  0  0  0  0  0
  152.2495  141.0590  158.6938 N   0  0  0  0  0  0  0  0  0  0  0  0
  152.7143  141.6794  159.7998 C   0  0  0  0  0  0  0  0  0  0  0  0
  152.6643  143.0809  159.9418 C   0  0  0  0  0  0  0  0  0  0  0  0
  152.1018  143.7956  158.8633 C   0  0  0  0  0  0  0  0  0  0  0  0
  151.9859  145.3049  158.8870 C   0  0  0  0  0  0  0  0  0  0  0  0
  151.6398  143.1695  157.7587 N   0  0  0  0  0  0  0  0  0  0  0  0
  151.5364  139.7941  156.4597 C   0  0  0  0  0  0  0  0  0  0  0  0
  151.2329  139.3289  155.0266 C   0  0  0  0  0  0  0  0  0  0  0  0
  149.8843  139.6469  154.6983 O   0  0  0  0  0  0  0  0  0  0  0  0
  146.2838  144.0617  154.2341 H   0  0  0  0  0  0  0  0  0  0  0  0
  145.6552  142.4425  154.5543 H   0  0  0  0  0  0  0  0  0  0  0  0
  146.2365  142.8649  152.9347 H   0  0  0  0  0  0  0  0  0  0  0  0
  148.3931  143.2791  154.6947 H   0  0  0  0  0  0  0  0  0  0  0  0
  150.2888  141.5613  154.0440 H   0  0  0  0  0  0  0  0  0  0  0  0
  149.7776  142.6440  156.2267 H   0  0  0  0  0  0  0  0  0  0  0  0
  149.1892  141.1254  156.8837 H   0  0  0  0  0  0  0  0  0  0  0  0
  153.1290  141.0542  160.5766 H   0  0  0  0  0  0  0  0  0  0  0  0
  153.0360  143.5739  160.8279 H   0  0  0  0  0  0  0  0  0  0  0  0
  152.3486  145.7132  159.8307 H   0  0  0  0  0  0  0  0  0  0  0  0
  150.9458  145.6077  158.7626 H   0  0  0  0  0  0  0  0  0  0  0  0
  152.5714  145.7429  158.0783 H   0  0  0  0  0  0  0  0  0  0  0  0
  152.5810  139.5985  156.7042 H   0  0  0  0  0  0  0  0  0  0  0  0
  150.9280  139.2357  157.1724 H   0  0  0  0  0  0  0  0  0  0  0  0
  151.9127  139.7966  154.3124 H   0  0  0  0  0  0  0  0  0  0  0  0
  151.3741  138.2512  154.9430 H   0  0  0  0  0  0  0  0  0  0  0  0
  1  2  1  0  0  0  0
  1 18  1  0  0  0  0
  1 19  1  0  0  0  0
  1 20  1  0  0  0  0
  2  3  1  0  0  0  0
  2 21  1  0  0  0  0
  3  4  2  0  0  0  0
  3  5  1  0  0  0  0
  5 17  1  0  0  0  0
  5  6  1  0  0  0  0
  5 22  1  0  0  0  0
  6  7  1  0  0  0  0
  6 23  1  0  0  0  0
  6 24  1  0  0  0  0
  7  8  1  0  0  0  0
  7 15  1  0  0  0  0
  8 14  1  0  0  0  0
  8  9  2  0  0  0  0
  9 10  1  0  0  0  0
 10 11  2  0  0  0  0
 10 25  1  0  0  0  0
 11 12  1  0  0  0  0
 11 26  1  0  0  0  0
 12 13  1  0  0  0  0
 12 14  2  0  0  0  0
 13 27  1  0  0  0  0
 13 28  1  0  0  0  0
 13 29  1  0  0  0  0
 15 16  1  0  0  0  0
 15 30  1  0  0  0  0
 15 31  1  0  0  0  0
 16 17  1  0  0  0  0
 16 32  1  0  0  0  0
 16 33  1  0  0  0  0
M  END
> <s_m_source_file>
AV-unprocessed.smi

> <i_m_source_file_index>
2432

> <i_lp_mmshare_version>
43012

> <i_f3d_flags>
0

> <s_epik_input>
W0NIM11bTkhdQyg9TylbQ0BASF0xW0NIMl1OKFtDSDJdW0NIMl1PMSljMm5bY0hdW2NIXWMobjIpW0NIM10=

> <s_epik_cmdline>
J2VwaWtfcHl0aG9uJywgJy1waCcsICc3LjAnLCAnLXRuJywgJzgnLCAnLW1hJywgJzIwMCcsICctbWV0YWxfYmluZGluZycsICctaW1hZScsICc8aW5maWxlLm1hZT4nLCAnLW9tYWUnLCAnPG91dGZpbGUubWFlPic=

> <r_lp_tautomer_probability>
1

> <r_epik_Ionization_Penalty>
3.16085e-05

> <r_epik_Ionization_Penalty_Charging>
0

> <r_epik_Ionization_Penalty_Neutral>
3.16085e-05

> <r_epik_State_Penalty>
-0

> <r_epik_Charging_Adjusted_Penalty>
0

> <i_epik_Tot_Q>
0

> <i_epik_Tot_abs_Q>
0

> <r_epik_Metal_State_Penalty>
-0

> <b_epik_Metal_Only>
0

> <s_lp_Force_Field>
OPLS_2005

> <r_lp_Energy>
12.5177

> <b_lp_Chiralities_Consistent>
1

> <s_lp_Variant>
AV-unprocessed.smi:2432-2

> <Gold.Version>
5.8.1

> <Gold.Id.Protein>
6NUR|6NUR_protein|mol2

> <Gold.PLP.Fitness>
40.3876

> <Gold.PLP.PLP>
-37.4601

> <Gold.PLP.part.hbond>
-1.0000

> <Gold.PLP.part.metal>
0.0000

> <Gold.PLP.part.buried>
-4.6393

> <Gold.PLP.part.nonpolar>
-31.9467

> <Gold.PLP.part.repulsive>
0.5334

> <Gold.PLP.ligand.clash>
0.0000

> <Gold.PLP.ligand.torsion>
0.1797

> <Gold.PLP.Chemscore.Hbond>
1.0000

> <Gold.PLP.Chemscore.CHOScore>
0.0000

> <Gold.PLP.Chemscore.Metal>
0.0000

> <Gold.Chemscore.Hbonds>
donor molecule, donor type, donor heavy atom, donor atom, acceptor molecule, acceptor atom, score
      L1  H     2    21       P1  8028  1.00

> <Gold.PLP.Chemscore.Internal.Correction>
0.2870

> <Gold.Rescore>
     Score         DG    S(hbond)    S(metal)    S(lipo)     H(rot)  DE(clash)    DE(int)     intcor
     14.71     -15.14       0.98        0.00      83.15       1.31       0.15       0.28       ----

> <Gold.Chemscore.Fitness>
14.7084

> <Gold.Chemscore.DG>
-15.1373

> <Gold.Chemscore.ZeroCoef>
-5.4800

> <Gold.Chemscore.Hbond>
0.9819

> <Gold.Chemscore.Metal>
0.0000

> <Gold.Chemscore.Lipo>
83.1501

> <Gold.Chemscore.Internal_Hbond>
0.0000

> <Gold.Chemscore.DEClash>
0.1526

> <Gold.Chemscore.DEInternal>
0.2763

> <Gold.Chemscore.Rot>
1.3089

> <Gold.Chemscore.Internal.Correction>
   9.000000E+99

> <Gold.Chemscore.Hbonds>
donor molecule, donor type, donor heavy atom, donor atom, acceptor molecule, acceptor atom, score
      L1  H     2    21       P1  8028  0.97

> <Gold.Chemscore.Hbond.Weighted>
-3.2795

> <Gold.Chemscore.Metal.Weighted>
-0.0000

> <Gold.Chemscore.Lipo.Weighted>
-9.7286

> <Gold.Chemscore.Internal_Hbond.Weighted>
0.0000

> <Gold.Chemscore.DEClash.Weighted>
0.1526

> <Gold.Chemscore.DEInternal.Weighted>
0.2763

> <Gold.Chemscore.Rot.Weighted>
3.3509

> <Gold.Chemscore.Internal.Correction.Weighted>
   9.000000E+99

> <Gold.Protein.RotatedTorsions>
[ 6907 6896 6895 6894 ] final  -59.35 input  -60.11 | X-H torsion
[ 7974 7965 7964 7962 ] final  -72.98 input  175.53 | X-H torsion
[ 8008 7997 7996 7995 ] final  119.37 input   59.86 | X-H torsion
[ 10167 10162 10161 10158 ] final  -29.00 input  -65.29 | X-H torsion
[ 10718 10713 10712 10709 ] final   50.88 input   66.30 | X-H torsion
[ 10763 10752 10751 10750 ] final -156.96 input  -60.55 | X-H torsion
[ 11005 11000 10999 10996 ] final   66.24 input  -57.11 | X-H torsion

> <Gold.Protein.ActiveResidues>
 VAL166  LYS551  ARG553  GLY616  TRP617  ASP618  TYR619  PRO620  LYS621  CYS622 
 ASP623  PHE694  ASN695  SER759  ASP760  ASP761  ALA762  ILE779  LEU786  VAL792 
 PHE793  MET794  SER795  GLU796  ALA797  LYS798  CYS799  TRP800  GLU811  SER814 

> <Gold.Protein.RotatedAtoms>
  150.7937  134.6980  159.6533 H   0  0  0  0  0  0  0  0  0  0  0  0  # atno 6907 bound_to 6896
  152.4046  134.6225  160.0064 H   0  0  0  0  0  0  0  0  0  0  0  0  # atno 6908 bound_to 6896
  151.6486  133.3285  159.3183 H   0  0  0  0  0  0  0  0  0  0  0  0  # atno 6909 bound_to 6896
  145.6581  140.9261  143.0948 H   0  0  0  0  0  0  0  0  0  0  0  0  # atno 7974 bound_to 7965
  156.2592  140.2854  156.0981 H   0  0  0  0  0  0  0  0  0  0  0  0  # atno 8008 bound_to 7997
  155.1390  140.0395  157.2811 H   0  0  0  0  0  0  0  0  0  0  0  0  # atno 8009 bound_to 7997
  154.6544  140.2552  155.7184 H   0  0  0  0  0  0  0  0  0  0  0  0  # atno 8010 bound_to 7997
  140.7265  143.3964  151.1340 H   0  0  0  0  0  0  0  0  0  0  0  0  # atno 10167 bound_to 10162
  157.4927  130.8386  149.8222 H   0  0  0  0  0  0  0  0  0  0  0  0  # atno 10718 bound_to 10713
  154.7673  135.3135  154.8260 H   0  0  0  0  0  0  0  0  0  0  0  0  # atno 10763 bound_to 10752
  153.9005  135.6816  153.4760 H   0  0  0  0  0  0  0  0  0  0  0  0  # atno 10764 bound_to 10752
  153.1281  135.4792  154.9238 H   0  0  0  0  0  0  0  0  0  0  0  0  # atno 10765 bound_to 10752
  139.9844  134.6692  156.0203 H   0  0  0  0  0  0  0  0  0  0  0  0  # atno 11005 bound_to 11000
  144.7098  139.8414  143.7418 LP  0  0  0  0  0  0  0  0  0  0  0  0  # atno 17320 bound_to 7965
  146.1148  139.4157  143.0265 LP  0  0  0  0  0  0  0  0  0  0  0  0  # atno 17321 bound_to 7965
  139.7577  143.8682  152.3093 LP  0  0  0  0  0  0  0  0  0  0  0  0  # atno 17342 bound_to 10162
  139.8557  144.7142  150.9160 LP  0  0  0  0  0  0  0  0  0  0  0  0  # atno 17343 bound_to 10162
  156.0183  130.3805  150.2042 LP  0  0  0  0  0  0  0  0  0  0  0  0  # atno 17370 bound_to 10713
  157.0231  130.9985  151.3334 LP  0  0  0  0  0  0  0  0  0  0  0  0  # atno 17371 bound_to 10713
  141.1511  133.6548  156.4017 LP  0  0  0  0  0  0  0  0  0  0  0  0  # atno 17394 bound_to 11000
  140.5032  134.6466  157.5256 LP  0  0  0  0  0  0  0  0  0  0  0  0  # atno 17395 bound_to 11000

$$$$
