AV-unprocessed.smi:50|AV-procd|sdf|495|dock3
  -GOLD-   2262016363D 1   1.00000     0.00000
 Structure written by MMmdl.
 43 44  0  0  0  0  0  0  0  0  3 V2000
  144.1077  133.4131  150.3611 C   0  0  0  0  0  0  0  0  0  0  0  0
  143.8099  133.3239  151.8699 C   0  0  0  0  0  0  0  0  0  0  0  0
  142.5483  134.1505  152.1869 C   0  0  0  0  0  0  0  0  0  0  0  0
  145.0497  133.7285  152.7151 C   0  0  2  0  0  0  0  0  0  0  0  0
  144.7920  133.5431  154.1564 N   0  3  0  0  0  0  0  0  0  0  0  0
  145.4890  135.1932  152.5254 C   0  0  0  0  0  0  0  0  0  0  0  0
  146.5854  135.5428  152.0833 O   0  0  0  0  0  0  0  0  0  0  0  0
  144.5083  136.0287  152.9167 O   0  0  0  0  0  0  0  0  0  0  0  0
  144.7715  137.4059  153.1519 C   0  0  0  0  0  0  0  0  0  0  0  0
  145.5892  137.5742  154.4380 C   0  0  0  0  0  0  0  0  0  0  0  0
  146.9413  137.8656  154.1100 O   0  0  0  0  0  0  0  0  0  0  0  0
  147.2300  139.2188  153.9569 C   0  0  0  0  0  0  0  0  0  0  0  0
  148.6423  139.4160  154.2346 N   0  0  0  0  0  0  0  0  0  0  0  0
  149.3072  140.5873  154.2007 C   0  0  0  0  0  0  0  0  0  0  0  0
  150.5985  140.5224  154.5210 N   0  0  0  0  0  0  0  0  0  0  0  0
  150.7668  139.1663  154.7718 C   0  0  0  0  0  0  0  0  0  0  0  0
  151.9462  138.3902  155.2244 C   0  0  0  0  0  0  0  0  0  0  0  0
  153.0135  138.9741  155.3999 O   0  0  0  0  0  0  0  0  0  0  0  0
  151.7242  137.0597  155.4434 N   0  5  0  0  0  0  0  0  0  0  0  0
  150.4619  136.5009  155.2009 C   0  0  0  0  0  0  0  0  0  0  0  0
  150.4218  135.1451  155.4410 N   0  0  0  0  0  0  0  0  0  0  0  0
  149.3838  137.1223  154.7907 N   0  0  0  0  0  0  0  0  0  0  0  0
  149.5975  138.4749  154.6045 C   0  0  0  0  0  0  0  0  0  0  0  0
  145.8839  133.0777  152.4497 H   0  0  0  0  0  0  0  0  0  0  0  0
  144.3874  134.4277  150.0748 H   0  0  0  0  0  0  0  0  0  0  0  0
  143.2352  133.1321  149.7703 H   0  0  0  0  0  0  0  0  0  0  0  0
  144.9186  132.7478  150.0642 H   0  0  0  0  0  0  0  0  0  0  0  0
  143.5738  132.2817  152.0914 H   0  0  0  0  0  0  0  0  0  0  0  0
  142.7379  135.2188  152.0746 H   0  0  0  0  0  0  0  0  0  0  0  0
  142.1907  133.9761  153.2016 H   0  0  0  0  0  0  0  0  0  0  0  0
  141.7276  133.8884  151.5181 H   0  0  0  0  0  0  0  0  0  0  0  0
  145.5488  133.0111  154.5633 H   0  0  0  0  0  0  0  0  0  0  0  0
  143.9254  133.0401  154.2824 H   0  0  0  0  0  0  0  0  0  0  0  0
  145.3618  137.7637  152.3083 H   0  0  0  0  0  0  0  0  0  0  0  0
  143.8630  138.0096  153.1727 H   0  0  0  0  0  0  0  0  0  0  0  0
  145.1215  138.3272  155.0715 H   0  0  0  0  0  0  0  0  0  0  0  0
  145.5827  136.6447  155.0076 H   0  0  0  0  0  0  0  0  0  0  0  0
  146.9819  139.6063  152.9670 H   0  0  0  0  0  0  0  0  0  0  0  0
  146.6577  139.7778  154.6978 H   0  0  0  0  0  0  0  0  0  0  0  0
  148.8249  141.5195  153.9458 H   0  0  0  0  0  0  0  0  0  0  0  0
  151.2172  134.6105  155.7581 H   0  0  0  0  0  0  0  0  0  0  0  0
  149.5822  134.5925  155.3459 H   0  0  0  0  0  0  0  0  0  0  0  0
  144.7349  134.4440  154.6087 H   0  0  0  0  0  0  0  0  0  0  0  0
  1  2  1  0  0  0  0
  1 25  1  0  0  0  0
  1 26  1  0  0  0  0
  1 27  1  0  0  0  0
  2  3  1  0  0  0  0
  2  4  1  0  0  0  0
  2 28  1  0  0  0  0
  3 29  1  0  0  0  0
  3 30  1  0  0  0  0
  3 31  1  0  0  0  0
  4 24  1  0  0  0  0
  4  5  1  0  0  0  0
  4  6  1  0  0  0  0
  5 32  1  0  0  0  0
  5 33  1  0  0  0  0
  5 43  1  0  0  0  0
  6  7  2  0  0  0  0
  6  8  1  0  0  0  0
  8  9  1  0  0  0  0
  9 10  1  0  0  0  0
  9 34  1  0  0  0  0
  9 35  1  0  0  0  0
 10 11  1  0  0  0  0
 10 36  1  0  0  0  0
 10 37  1  0  0  0  0
 11 12  1  0  0  0  0
 12 13  1  0  0  0  0
 12 38  1  0  0  0  0
 12 39  1  0  0  0  0
 13 23  1  0  0  0  0
 13 14  1  0  0  0  0
 14 15  2  0  0  0  0
 14 40  1  0  0  0  0
 15 16  1  0  0  0  0
 16 23  2  0  0  0  0
 16 17  1  0  0  0  0
 17 18  2  0  0  0  0
 17 19  1  0  0  0  0
 19 20  1  0  0  0  0
 20 21  1  0  0  0  0
 20 22  2  0  0  0  0
 21 41  1  0  0  0  0
 21 42  1  0  0  0  0
 22 23  1  0  0  0  0
M  CHG  1   5   1
M  CHG  1  19  -1
M  END
> <s_m_source_file>
AV-unprocessed.smi

> <i_m_source_file_index>
50

> <i_lp_mmshare_version>
43012

> <i_f3d_flags>
0

> <s_epik_input>
W0NIM11bQ0hdKFtDSDNdKVtDQEhdKFtOSDJdKUMoPU8pT1tDSDJdW0NIMl1PW0NIMl1uKFtjSF1uMSljKGMxMiluYyhbTkgyXSlbbkhdYzI9Tw==

> <s_epik_cmdline>
J2VwaWtfcHl0aG9uJywgJy1waCcsICc3LjAnLCAnLXRuJywgJzgnLCAnLW1hJywgJzIwMCcsICctbWV0YWxfYmluZGluZycsICctaW1hZScsICc8aW5maWxlLm1hZT4nLCAnLW9tYWUnLCAnPG91dGZpbGUubWFlPic=

> <r_lp_tautomer_probability>
0.99994

> <r_epik_Ionization_Penalty>
3.77459

> <r_epik_Ionization_Penalty_Charging>
0.215994

> <r_epik_Ionization_Penalty_Neutral>
3.5586

> <r_epik_State_Penalty>
3.75449

> <r_epik_Charging_Adjusted_Penalty>
3.97048

> <i_epik_Tot_Q>
0

> <i_epik_Tot_abs_Q>
2

> <r_epik_Metal_State_Penalty>
0.723824

> <b_epik_Metal_Only>
1

> <s_epik_Chemistry_Notes>
This compound has an ester and may undergo hydrolysis at high or low pH. This compound contains an acetal/aminal-like group ( X-CH(R)-Y where X, Y are N, S, or O) that may be acid/base labile, releasing an aldehyde.

> <s_lp_Force_Field>
OPLS_2005

> <r_lp_Energy>
6.41072

> <b_lp_Chiralities_Consistent>
1

> <s_lp_Variant>
AV-unprocessed.smi:50-5

> <Gold.Version>
5.8.1

> <Gold.Id.Protein>
6NUR|6NUR_protein|mol2

> <Gold.PLP.Fitness>
42.2088

> <Gold.PLP.PLP>
-25.6414

> <Gold.PLP.part.hbond>
-3.9406

> <Gold.PLP.part.metal>
0.0000

> <Gold.PLP.part.buried>
-5.7700

> <Gold.PLP.part.nonpolar>
-22.4293

> <Gold.PLP.part.repulsive>
6.1705

> <Gold.PLP.ligand.clash>
0.0000

> <Gold.PLP.ligand.torsion>
0.8797

> <Gold.PLP.Chemscore.Hbond>
6.0000

> <Gold.PLP.Chemscore.CHOScore>
0.0000

> <Gold.PLP.Chemscore.Metal>
0.0000

> <Gold.Chemscore.Hbonds>
donor molecule, donor type, donor heavy atom, donor atom, acceptor molecule, acceptor atom, score
      L1  H     5    33       P1 10957  2.00
      P1  H  7989  7998       L1    15  0.89
      P1  H  7997  8008       L1    18  1.00
      P1  H 10752 10765       L1    19  1.82

> <Gold.PLP.Chemscore.Internal.Correction>
0.3268

> <Gold.Rescore>
     Score         DG    S(hbond)    S(metal)    S(lipo)     H(rot)  DE(clash)    DE(int)     intcor
      1.88      -7.65       3.11        0.00      35.56       4.83       1.94       3.84       ----

> <Gold.Chemscore.Fitness>
1.8771

> <Gold.Chemscore.DG>
-7.6545

> <Gold.Chemscore.ZeroCoef>
-5.4800

> <Gold.Chemscore.Hbond>
3.1084

> <Gold.Chemscore.Metal>
0.0000

> <Gold.Chemscore.Lipo>
35.5590

> <Gold.Chemscore.Internal_Hbond>
0.0000

> <Gold.Chemscore.DEClash>
1.9421

> <Gold.Chemscore.DEInternal>
3.8354

> <Gold.Chemscore.Rot>
4.8312

> <Gold.Chemscore.Internal.Correction>
   9.000000E+99

> <Gold.Chemscore.Hbonds>
donor molecule, donor type, donor heavy atom, donor atom, acceptor molecule, acceptor atom, score
      L1  H     5    33       P1 10957  1.00
      P1  H  7989  7998       L1    15  0.44
      P1  H  7997  8008       L1    18  0.99
      P1  H 10752 10765       L1    19  0.29

> <Gold.Chemscore.Hbond.Weighted>
-10.3820

> <Gold.Chemscore.Metal.Weighted>
-0.0000

> <Gold.Chemscore.Lipo.Weighted>
-4.1604

> <Gold.Chemscore.Internal_Hbond.Weighted>
0.0000

> <Gold.Chemscore.DEClash.Weighted>
1.9421

> <Gold.Chemscore.DEInternal.Weighted>
3.8354

> <Gold.Chemscore.Rot.Weighted>
12.3678

> <Gold.Chemscore.Internal.Correction.Weighted>
   9.000000E+99

> <Gold.Protein.RotatedTorsions>
[ 6907 6896 6895 6894 ] final  112.30 input  -60.11 | X-H torsion
[ 7974 7965 7964 7962 ] final   29.98 input  175.53 | X-H torsion
[ 8008 7997 7996 7995 ] final  -24.60 input   59.86 | X-H torsion
[ 10167 10162 10161 10158 ] final  -15.36 input  -65.29 | X-H torsion
[ 10718 10713 10712 10709 ] final -168.94 input   66.30 | X-H torsion
[ 10763 10752 10751 10750 ] final -170.10 input  -60.55 | X-H torsion
[ 11005 11000 10999 10996 ] final  -16.91 input  -57.11 | X-H torsion

> <Gold.Protein.ActiveResidues>
 VAL166  LYS551  ARG553  GLY616  TRP617  ASP618  TYR619  PRO620  LYS621  CYS622 
 ASP623  PHE694  ASN695  SER759  ASP760  ASP761  ALA762  ILE779  LEU786  VAL792 
 PHE793  MET794  SER795  GLU796  ALA797  LYS798  CYS799  TRP800  GLU811  SER814 

> <Gold.Protein.RotatedAtoms>
  152.4923  133.8535  159.7213 H   0  0  0  0  0  0  0  0  0  0  0  0  # atno 6907 bound_to 6896
  150.9066  133.7041  159.2872 H   0  0  0  0  0  0  0  0  0  0  0  0  # atno 6908 bound_to 6896
  151.4465  135.1029  159.9737 H   0  0  0  0  0  0  0  0  0  0  0  0  # atno 6909 bound_to 6896
  146.1639  139.6849  142.9014 H   0  0  0  0  0  0  0  0  0  0  0  0  # atno 7974 bound_to 7965
  154.4521  140.1949  156.0489 H   0  0  0  0  0  0  0  0  0  0  0  0  # atno 8008 bound_to 7997
  156.0669  140.3289  155.7501 H   0  0  0  0  0  0  0  0  0  0  0  0  # atno 8009 bound_to 7997
  155.5324  140.0579  157.2877 H   0  0  0  0  0  0  0  0  0  0  0  0  # atno 8010 bound_to 7997
  140.7217  143.5226  150.9615 H   0  0  0  0  0  0  0  0  0  0  0  0  # atno 10167 bound_to 10162
  156.7043  130.9208  151.3083 H   0  0  0  0  0  0  0  0  0  0  0  0  # atno 10718 bound_to 10713
  154.6452  135.2904  155.0055 H   0  0  0  0  0  0  0  0  0  0  0  0  # atno 10763 bound_to 10752
  154.1167  135.6554  153.4899 H   0  0  0  0  0  0  0  0  0  0  0  0  # atno 10764 bound_to 10752
  153.0347  135.5278  154.7336 H   0  0  0  0  0  0  0  0  0  0  0  0  # atno 10765 bound_to 10752
  140.8115  133.8137  155.9568 H   0  0  0  0  0  0  0  0  0  0  0  0  # atno 11005 bound_to 11000
  145.4518  141.0428  143.2800 LP  0  0  0  0  0  0  0  0  0  0  0  0  # atno 17320 bound_to 7965
  144.8065  139.6042  143.7048 LP  0  0  0  0  0  0  0  0  0  0  0  0  # atno 17321 bound_to 7965
  139.8944  143.6913  152.3140 LP  0  0  0  0  0  0  0  0  0  0  0  0  # atno 17342 bound_to 10162
  139.7240  144.7596  151.0908 LP  0  0  0  0  0  0  0  0  0  0  0  0  # atno 17343 bound_to 10162
  157.6961  130.9283  150.0649 LP  0  0  0  0  0  0  0  0  0  0  0  0  # atno 17370 bound_to 10713
  156.1707  130.3646  149.9170 LP  0  0  0  0  0  0  0  0  0  0  0  0  # atno 17371 bound_to 10713
  140.9193  134.2162  157.4937 LP  0  0  0  0  0  0  0  0  0  0  0  0  # atno 17394 bound_to 11000
  139.8714  134.9785  156.4999 LP  0  0  0  0  0  0  0  0  0  0  0  0  # atno 17395 bound_to 11000

$$$$
