AV-unprocessed.smi:2368|AV-procd|sdf|9431|dock3
  -GOLD-   2272013 63D 1   1.00000     0.00000
 Structure written by MMmdl.
 36 37  0  0  0  0  0  0  0  0  2 V2000
  150.6807  141.3053  155.6626 C   0  0  0  0  0  0  0  0  0  0  0  0
  149.3734  141.0509  154.9376 C   0  0  0  0  0  0  0  0  0  0  0  0
  148.5130  142.0851  154.8137 N   0  3  0  0  0  0  0  0  0  0  0  0
  147.3248  141.9814  154.1836 C   0  0  0  0  0  0  0  0  0  0  0  0
  146.9322  140.7507  153.6228 C   0  0  0  0  0  0  0  0  0  0  0  0
  147.7894  139.6264  153.7369 C   0  0  0  0  0  0  0  0  0  0  0  0
  147.4817  138.3516  153.1827 N   0  0  0  0  0  0  0  0  0  0  0  0
  146.2999  137.7131  153.1440 C   0  0  0  0  0  0  0  0  0  0  0  0
  145.2506  138.1266  153.6363 O   0  0  0  0  0  0  0  0  0  0  0  0
  146.4031  136.5401  152.5037 N   0  0  0  0  0  0  0  0  0  0  0  0
  145.2966  135.6189  152.2695 C   0  0  2  0  0  0  0  0  0  0  0  0
  145.6027  134.2683  152.8563 C   0  0  0  0  0  0  0  0  0  0  0  0
  145.6273  133.3029  151.9400 C   0  0  0  0  0  0  0  0  0  0  0  0
  145.3699  133.8118  150.5459 C   0  0  1  0  0  0  0  0  0  0  0  0
  144.2340  133.0475  149.8465 C   0  0  0  0  0  0  0  0  0  0  0  0
  144.3826  133.1325  148.4449 O   0  0  0  0  0  0  0  0  0  0  0  0
  145.0751  135.3190  150.7634 C   0  0  0  0  0  0  0  0  0  0  0  0
  149.0339  139.7887  154.3955 C   0  0  0  0  0  0  0  0  0  0  0  0
  150.1318  138.4574  154.5434 Cl  0  0  0  0  0  0  0  0  0  0  0  0
  144.3834  136.0010  152.7291 H   0  0  0  0  0  0  0  0  0  0  0  0
  146.2957  133.6916  149.9815 H   0  0  0  0  0  0  0  0  0  0  0  0
  151.5264  141.0906  155.0089 H   0  0  0  0  0  0  0  0  0  0  0  0
  150.7549  140.6677  156.5438 H   0  0  0  0  0  0  0  0  0  0  0  0
  150.7599  142.3431  155.9889 H   0  0  0  0  0  0  0  0  0  0  0  0
  146.7301  142.8822  154.1404 H   0  0  0  0  0  0  0  0  0  0  0  0
  145.9870  140.6994  153.1049 H   0  0  0  0  0  0  0  0  0  0  0  0
  148.2714  137.8410  152.8145 H   0  0  0  0  0  0  0  0  0  0  0  0
  147.3038  136.2706  152.1359 H   0  0  0  0  0  0  0  0  0  0  0  0
  145.7705  134.1251  153.9138 H   0  0  0  0  0  0  0  0  0  0  0  0
  145.8289  132.2615  152.1429 H   0  0  0  0  0  0  0  0  0  0  0  0
  144.2508  131.9952  150.1318 H   0  0  0  0  0  0  0  0  0  0  0  0
  143.2594  133.4449  150.1326 H   0  0  0  0  0  0  0  0  0  0  0  0
  144.9288  133.8772  148.2446 H   0  0  0  0  0  0  0  0  0  0  0  0
  144.0442  135.5559  150.4971 H   0  0  0  0  0  0  0  0  0  0  0  0
  145.7084  135.9307  150.1194 H   0  0  0  0  0  0  0  0  0  0  0  0
  148.7765  142.9874  155.2103 H   0  0  0  0  0  0  0  0  0  0  0  0
  1  2  1  0  0  0  0
  1 22  1  0  0  0  0
  1 23  1  0  0  0  0
  1 24  1  0  0  0  0
  2 18  1  0  0  0  0
  2  3  2  0  0  0  0
  3  4  1  0  0  0  0
  3 36  1  0  0  0  0
  4  5  2  0  0  0  0
  4 25  1  0  0  0  0
  5  6  1  0  0  0  0
  5 26  1  0  0  0  0
  6  7  1  0  0  0  0
  6 18  2  0  0  0  0
  7  8  1  0  0  0  0
  7 27  1  0  0  0  0
  8  9  2  0  0  0  0
  8 10  1  0  0  0  0
 10 11  1  0  0  0  0
 10 28  1  0  0  0  0
 11 20  1  0  0  0  0
 11 17  1  0  0  0  0
 11 12  1  0  0  0  0
 12 13  2  0  0  0  0
 12 29  1  0  0  0  0
 13 14  1  0  0  0  0
 13 30  1  0  0  0  0
 14 21  1  0  0  0  0
 14 15  1  0  0  0  0
 14 17  1  0  0  0  0
 15 16  1  0  0  0  0
 15 31  1  0  0  0  0
 15 32  1  0  0  0  0
 16 33  1  0  0  0  0
 17 34  1  0  0  0  0
 17 35  1  0  0  0  0
 18 19  1  0  0  0  0
M  CHG  1   3   1
M  END
> <s_m_source_file>
AV-unprocessed.smi

> <i_m_source_file_index>
2368

> <i_lp_mmshare_version>
43012

> <i_f3d_flags>
0

> <s_epik_input>
W0NIM11jMW5bY0hdW2NIXWMoYzFDbClbTkhdQyg9TylbTkhdW0NAQEhdMltDSF09W0NIXVtDQEBIXShbQ0gyXTIpW0NIMl1bT0hd

> <s_epik_cmdline>
J2VwaWtfcHl0aG9uJywgJy1waCcsICc3LjAnLCAnLXRuJywgJzgnLCAnLW1hJywgJzIwMCcsICctbWV0YWxfYmluZGluZycsICctaW1hZScsICc8aW5maWxlLm1hZT4nLCAnLW9tYWUnLCAnPG91dGZpbGUubWFlPic=

> <r_epik_Ionization_Penalty>
2.4467

> <r_epik_Ionization_Penalty_Charging>
2.44668

> <r_epik_Ionization_Penalty_Neutral>
1.95078e-05

> <r_epik_State_Penalty>
2.60786

> <r_epik_Charging_Adjusted_Penalty>
5.05454

> <i_epik_Tot_Q>
1

> <i_epik_Tot_abs_Q>
1

> <r_epik_Metal_State_Penalty>
2.61736

> <b_epik_Metal_Only>
0

> <s_lp_Force_Field>
OPLS_2005

> <r_lp_Energy>
25.6865

> <b_lp_Chiralities_Consistent>
1

> <s_lp_Variant>
AV-unprocessed.smi:2368-7

> <Gold.Version>
5.8.1

> <Gold.Id.Protein>
6NUR|6NUR_protein|mol2

> <Gold.PLP.Fitness>
49.4431

> <Gold.PLP.PLP>
-35.6426

> <Gold.PLP.part.hbond>
-4.8459

> <Gold.PLP.part.metal>
0.0000

> <Gold.PLP.part.buried>
-4.1313

> <Gold.PLP.part.nonpolar>
-27.7185

> <Gold.PLP.part.repulsive>
1.1307

> <Gold.PLP.ligand.clash>
0.0000

> <Gold.PLP.ligand.torsion>
0.5952

> <Gold.PLP.Chemscore.Hbond>
4.9920

> <Gold.PLP.Chemscore.CHOScore>
0.0000

> <Gold.PLP.Chemscore.Metal>
0.0000

> <Gold.Chemscore.Hbonds>
donor molecule, donor type, donor heavy atom, donor atom, acceptor molecule, acceptor atom, score
      L1  H     3    36       P1  8028  2.00
      L1  H     7    27       P1  7948  0.98
      L1  H    10    28       P1  7948  1.00
      L1  H    16    33       P1  7921  1.00

> <Gold.PLP.Chemscore.Internal.Correction>
0.0149

> <Gold.Rescore>
     Score         DG    S(hbond)    S(metal)    S(lipo)     H(rot)  DE(clash)    DE(int)     intcor
     22.73     -23.50       3.93        0.00      81.30       1.81       0.14       0.63       ----

> <Gold.Chemscore.Fitness>
22.7315

> <Gold.Chemscore.DG>
-23.4975

> <Gold.Chemscore.ZeroCoef>
-5.4800

> <Gold.Chemscore.Hbond>
3.9307

> <Gold.Chemscore.Metal>
0.0000

> <Gold.Chemscore.Lipo>
81.3043

> <Gold.Chemscore.Internal_Hbond>
0.0000

> <Gold.Chemscore.DEClash>
0.1386

> <Gold.Chemscore.DEInternal>
0.6273

> <Gold.Chemscore.Rot>
1.8061

> <Gold.Chemscore.Internal.Correction>
   9.000000E+99

> <Gold.Chemscore.Hbonds>
donor molecule, donor type, donor heavy atom, donor atom, acceptor molecule, acceptor atom, score
      L1  H     3    36       P1  8028  1.00
      L1  H     7    27       P1  7948  0.91
      L1  H    10    28       P1  7948  1.00
      L1  H    16    33       P1  7921  0.97

> <Gold.Chemscore.Hbond.Weighted>
-13.1286

> <Gold.Chemscore.Metal.Weighted>
-0.0000

> <Gold.Chemscore.Lipo.Weighted>
-9.5126

> <Gold.Chemscore.Internal_Hbond.Weighted>
0.0000

> <Gold.Chemscore.DEClash.Weighted>
0.1386

> <Gold.Chemscore.DEInternal.Weighted>
0.6273

> <Gold.Chemscore.Rot.Weighted>
4.6237

> <Gold.Chemscore.Internal.Correction.Weighted>
   9.000000E+99

> <Gold.Protein.RotatedTorsions>
[ 6907 6896 6895 6894 ] final  114.19 input  -60.11 | X-H torsion
[ 7974 7965 7964 7962 ] final  -70.61 input  175.53 | X-H torsion
[ 8008 7997 7996 7995 ] final  176.05 input   59.86 | X-H torsion
[ 10167 10162 10161 10158 ] final -139.14 input  -65.29 | X-H torsion
[ 10718 10713 10712 10709 ] final   -7.03 input   66.30 | X-H torsion
[ 10763 10752 10751 10750 ] final  -71.03 input  -60.55 | X-H torsion
[ 11005 11000 10999 10996 ] final  -79.81 input  -57.11 | X-H torsion

> <Gold.Protein.ActiveResidues>
 VAL166  LYS551  ARG553  GLY616  TRP617  ASP618  TYR619  PRO620  LYS621  CYS622 
 ASP623  PHE694  ASN695  SER759  ASP760  ASP761  ALA762  ILE779  LEU786  VAL792 
 PHE793  MET794  SER795  GLU796  ALA797  LYS798  CYS799  TRP800  GLU811  SER814 

> <Gold.Protein.RotatedAtoms>
  152.4817  133.8271  159.7083 H   0  0  0  0  0  0  0  0  0  0  0  0  # atno 6907 bound_to 6896
  150.8872  133.7283  159.2921 H   0  0  0  0  0  0  0  0  0  0  0  0  # atno 6908 bound_to 6896
  151.4767  135.1053  159.9819 H   0  0  0  0  0  0  0  0  0  0  0  0  # atno 6909 bound_to 6896
  145.6887  140.9161  143.0793 H   0  0  0  0  0  0  0  0  0  0  0  0  # atno 7974 bound_to 7965
  156.0806  140.1393  156.9717 H   0  0  0  0  0  0  0  0  0  0  0  0  # atno 8008 bound_to 7997
  154.4583  140.0953  156.6870 H   0  0  0  0  0  0  0  0  0  0  0  0  # atno 8009 bound_to 7997
  155.5081  140.3453  155.4385 H   0  0  0  0  0  0  0  0  0  0  0  0  # atno 8010 bound_to 7997
  139.8409  143.7324  152.2663 H   0  0  0  0  0  0  0  0  0  0  0  0  # atno 10167 bound_to 10162
  156.7232  130.5157  149.5863 H   0  0  0  0  0  0  0  0  0  0  0  0  # atno 10718 bound_to 10713
  154.4259  135.5975  153.6039 H   0  0  0  0  0  0  0  0  0  0  0  0  # atno 10763 bound_to 10752
  152.9796  135.5963  154.3898 H   0  0  0  0  0  0  0  0  0  0  0  0  # atno 10764 bound_to 10752
  154.3729  135.2841  155.2234 H   0  0  0  0  0  0  0  0  0  0  0  0  # atno 10765 bound_to 10752
  141.1667  133.7122  156.8179 H   0  0  0  0  0  0  0  0  0  0  0  0  # atno 11005 bound_to 11000
  144.7003  139.8793  143.7446 LP  0  0  0  0  0  0  0  0  0  0  0  0  # atno 17320 bound_to 7965
  146.0901  139.3890  143.0411 LP  0  0  0  0  0  0  0  0  0  0  0  0  # atno 17321 bound_to 7965
  139.7560  144.7520  151.0434 LP  0  0  0  0  0  0  0  0  0  0  0  0  # atno 17342 bound_to 10162
  140.7798  143.4805  151.0025 LP  0  0  0  0  0  0  0  0  0  0  0  0  # atno 17343 bound_to 10162
  156.1580  130.6354  151.0682 LP  0  0  0  0  0  0  0  0  0  0  0  0  # atno 17370 bound_to 10713
  157.6889  131.0816  150.7164 LP  0  0  0  0  0  0  0  0  0  0  0  0  # atno 17371 bound_to 10713
  140.2140  134.8806  157.3306 LP  0  0  0  0  0  0  0  0  0  0  0  0  # atno 17394 bound_to 11000
  140.2057  134.4200  155.7639 LP  0  0  0  0  0  0  0  0  0  0  0  0  # atno 17395 bound_to 11000

$$$$
