AV-unprocessed.smi:646|AV-procd|sdf|3167|dock5
  -GOLD-   22720 0 93D 1   1.00000     0.00000
 Structure written by MMmdl.
 44 45  0  0  0  0  0  0  0  0  1 V2000
  152.0876  143.9763  161.2175 C   0  0  0  0  0  0  0  0  0  0  0  0
  151.4230  143.1631  160.2582 O   0  0  0  0  0  0  0  0  0  0  0  0
  152.1958  142.6879  159.1472 C   0  0  1  0  0  0  0  0  0  0  0  0
  152.8550  143.8607  158.4108 C   0  0  0  0  0  0  0  0  0  0  0  0
  153.0570  141.4819  159.5700 C   0  0  0  0  0  0  0  0  0  0  0  0
  151.8209  140.6143  159.3434 C   0  0  2  0  0  0  0  0  0  0  0  0
  152.1421  139.3211  158.7525 N   0  0  0  0  0  0  0  0  0  0  0  0
  151.2481  138.3466  158.5298 C   0  0  0  0  0  0  0  0  0  0  0  0
  150.0708  138.4106  158.8828 O   0  0  0  0  0  0  0  0  0  0  0  0
  151.7529  137.1258  157.7621 C   0  0  0  0  0  0  0  0  0  0  0  0
  152.7430  137.5684  156.7141 C   0  0  0  0  0  0  0  0  0  0  0  0
  152.5074  138.3951  155.5778 C   0  0  0  0  0  0  0  0  0  0  0  0
  151.2217  139.0337  155.1373 C   0  0  0  0  0  0  0  0  0  0  0  0
  153.6106  138.5982  154.8775 N   0  0  0  0  0  0  0  0  0  0  0  0
  154.6215  137.8988  155.5434 O   0  0  0  0  0  0  0  0  0  0  0  0
  154.0814  137.2979  156.6339 C   0  0  0  0  0  0  0  0  0  0  0  0
  155.0101  136.5072  157.4916 C   0  0  0  0  0  0  0  0  0  0  0  0
  151.3202  141.6796  158.3333 C   0  0  0  0  0  0  0  0  0  0  0  0
  149.8089  141.9340  158.3233 C   0  0  0  0  0  0  0  0  0  0  0  0
  151.7182  141.4773  156.8579 C   0  0  0  0  0  0  0  0  0  0  0  0
  151.4209  144.1425  162.0636 H   0  0  0  0  0  0  0  0  0  0  0  0
  152.3395  144.9556  160.8111 H   0  0  0  0  0  0  0  0  0  0  0  0
  152.9956  143.5117  161.6000 H   0  0  0  0  0  0  0  0  0  0  0  0
  153.3574  143.5369  157.5000 H   0  0  0  0  0  0  0  0  0  0  0  0
  153.6176  144.3472  159.0186 H   0  0  0  0  0  0  0  0  0  0  0  0
  152.1195  144.6141  158.1280 H   0  0  0  0  0  0  0  0  0  0  0  0
  153.8698  141.2762  158.8709 H   0  0  0  0  0  0  0  0  0  0  0  0
  153.4186  141.4849  160.5976 H   0  0  0  0  0  0  0  0  0  0  0  0
  151.2013  140.5516  160.2412 H   0  0  0  0  0  0  0  0  0  0  0  0
  153.0894  139.1841  158.4316 H   0  0  0  0  0  0  0  0  0  0  0  0
  152.1983  136.4233  158.4675 H   0  0  0  0  0  0  0  0  0  0  0  0
  150.9057  136.6080  157.3113 H   0  0  0  0  0  0  0  0  0  0  0  0
  150.3733  138.3736  155.3187 H   0  0  0  0  0  0  0  0  0  0  0  0
  151.2335  139.2701  154.0728 H   0  0  0  0  0  0  0  0  0  0  0  0
  151.0422  139.9602  155.6834 H   0  0  0  0  0  0  0  0  0  0  0  0
  154.7799  136.6528  158.5472 H   0  0  0  0  0  0  0  0  0  0  0  0
  156.0458  136.8071  157.3295 H   0  0  0  0  0  0  0  0  0  0  0  0
  154.9266  135.4434  157.2700 H   0  0  0  0  0  0  0  0  0  0  0  0
  149.2724  141.1461  157.7931 H   0  0  0  0  0  0  0  0  0  0  0  0
  149.5682  142.8811  157.8397 H   0  0  0  0  0  0  0  0  0  0  0  0
  149.3940  141.9687  159.3307 H   0  0  0  0  0  0  0  0  0  0  0  0
  151.1762  140.6472  156.4039 H   0  0  0  0  0  0  0  0  0  0  0  0
  152.7806  141.2623  156.7421 H   0  0  0  0  0  0  0  0  0  0  0  0
  151.5024  142.3639  156.2607 H   0  0  0  0  0  0  0  0  0  0  0  0
  1  2  1  0  0  0  0
  1 21  1  0  0  0  0
  1 22  1  0  0  0  0
  1 23  1  0  0  0  0
  2  3  1  0  0  0  0
  3 18  1  0  0  0  0
  3  4  1  0  0  0  0
  3  5  1  0  0  0  0
  4 24  1  0  0  0  0
  4 25  1  0  0  0  0
  4 26  1  0  0  0  0
  5  6  1  0  0  0  0
  5 27  1  0  0  0  0
  5 28  1  0  0  0  0
  6  7  1  0  0  0  0
  6 18  1  0  0  0  0
  6 29  1  0  0  0  0
  7  8  1  0  0  0  0
  7 30  1  0  0  0  0
  8  9  2  0  0  0  0
  8 10  1  0  0  0  0
 10 11  1  0  0  0  0
 10 31  1  0  0  0  0
 10 32  1  0  0  0  0
 11 16  2  0  0  0  0
 11 12  1  0  0  0  0
 12 13  1  0  0  0  0
 12 14  2  0  0  0  0
 13 33  1  0  0  0  0
 13 34  1  0  0  0  0
 13 35  1  0  0  0  0
 14 15  1  0  0  0  0
 15 16  1  0  0  0  0
 16 17  1  0  0  0  0
 17 36  1  0  0  0  0
 17 37  1  0  0  0  0
 17 38  1  0  0  0  0
 18 19  1  0  0  0  0
 18 20  1  0  0  0  0
 19 39  1  0  0  0  0
 19 40  1  0  0  0  0
 19 41  1  0  0  0  0
 20 42  1  0  0  0  0
 20 43  1  0  0  0  0
 20 44  1  0  0  0  0
M  END
> <s_m_source_file>
AV-unprocessed.smi

> <i_m_source_file_index>
646

> <i_lp_mmshare_version>
43012

> <i_f3d_flags>
0

> <s_epik_input>
W0NIM11PW0NAQF0xKFtDSDNdKVtDSDJdW0NASF0oQzEoW0NIM10pW0NIM10pW05IXUMoPU8pW0NIMl1jMmMoW0NIM10pbm9jMltDSDNd

> <s_epik_cmdline>
J2VwaWtfcHl0aG9uJywgJy1waCcsICc3LjAnLCAnLXRuJywgJzgnLCAnLW1hJywgJzIwMCcsICctbWV0YWxfYmluZGluZycsICctaW1hZScsICc8aW5maWxlLm1hZT4nLCAnLW9tYWUnLCAnPG91dGZpbGUubWFlPic=

> <r_lp_tautomer_probability>
1

> <r_epik_Ionization_Penalty>
2.13169e-08

> <r_epik_Ionization_Penalty_Charging>
0

> <r_epik_Ionization_Penalty_Neutral>
2.13169e-08

> <r_epik_State_Penalty>
-0

> <r_epik_Charging_Adjusted_Penalty>
0

> <i_epik_Tot_Q>
0

> <i_epik_Tot_abs_Q>
0

> <r_epik_Metal_State_Penalty>
-0

> <b_epik_Metal_Only>
0

> <s_lp_Force_Field>
OPLS_2005

> <r_lp_Energy>
15.7725

> <b_lp_Chiralities_Consistent>
1

> <s_lp_Variant>
AV-unprocessed.smi:646-3

> <Gold.Version>
5.8.1

> <Gold.Id.Protein>
6NUR|6NUR_protein|mol2

> <Gold.PLP.Fitness>
33.5095

> <Gold.PLP.PLP>
-33.6412

> <Gold.PLP.part.hbond>
-3.2444

> <Gold.PLP.part.metal>
0.0000

> <Gold.PLP.part.buried>
-6.1966

> <Gold.PLP.part.nonpolar>
-24.1277

> <Gold.PLP.part.repulsive>
0.1678

> <Gold.PLP.ligand.clash>
0.0000

> <Gold.PLP.ligand.torsion>
0.6440

> <Gold.PLP.Chemscore.Hbond>
0.2576

> <Gold.PLP.Chemscore.CHOScore>
0.0000

> <Gold.PLP.Chemscore.Metal>
0.0000

> <Gold.Chemscore.Hbonds>
donor molecule, donor type, donor heavy atom, donor atom, acceptor molecule, acceptor atom, score
      P1  H  7997  8010       L1    14  0.04

> <Gold.PLP.Chemscore.Internal.Correction>
0.3835

> <Gold.Rescore>
     Score         DG    S(hbond)    S(metal)    S(lipo)     H(rot)  DE(clash)    DE(int)     intcor
     12.20     -14.13       0.00        0.00     106.58       1.49       1.41       0.52       ----

> <Gold.Chemscore.Fitness>
12.1970

> <Gold.Chemscore.DG>
-14.1287

> <Gold.Chemscore.ZeroCoef>
-5.4800

> <Gold.Chemscore.Hbond>
0.0000

> <Gold.Chemscore.Metal>
0.0000

> <Gold.Chemscore.Lipo>
106.5846

> <Gold.Chemscore.Internal_Hbond>
0.0000

> <Gold.Chemscore.DEClash>
1.4108

> <Gold.Chemscore.DEInternal>
0.5209

> <Gold.Chemscore.Rot>
1.4928

> <Gold.Chemscore.Internal.Correction>
   9.000000E+99

> <Gold.Chemscore.Hbond.Weighted>
-0.0000

> <Gold.Chemscore.Metal.Weighted>
-0.0000

> <Gold.Chemscore.Lipo.Weighted>
-12.4704

> <Gold.Chemscore.Internal_Hbond.Weighted>
0.0000

> <Gold.Chemscore.DEClash.Weighted>
1.4108

> <Gold.Chemscore.DEInternal.Weighted>
0.5209

> <Gold.Chemscore.Rot.Weighted>
3.8217

> <Gold.Chemscore.Internal.Correction.Weighted>
   9.000000E+99

> <Gold.Protein.RotatedTorsions>
[ 6907 6896 6895 6894 ] final   86.27 input  -60.11 | X-H torsion
[ 7974 7965 7964 7962 ] final -107.37 input  175.53 | X-H torsion
[ 8008 7997 7996 7995 ] final  101.20 input   59.86 | X-H torsion
[ 10167 10162 10161 10158 ] final  174.26 input  -65.29 | X-H torsion
[ 10718 10713 10712 10709 ] final  -11.12 input   66.30 | X-H torsion
[ 10763 10752 10751 10750 ] final -158.42 input  -60.55 | X-H torsion
[ 11005 11000 10999 10996 ] final  153.55 input  -57.11 | X-H torsion

> <Gold.Protein.ActiveResidues>
 VAL166  LYS551  ARG553  GLY616  TRP617  ASP618  TYR619  PRO620  LYS621  CYS622 
 ASP623  PHE694  ASN695  SER759  ASP760  ASP761  ALA762  ILE779  LEU786  VAL792 
 PHE793  MET794  SER795  GLU796  ALA797  LYS798  CYS799  TRP800  GLU811  SER814 

> <Gold.Protein.RotatedAtoms>
  152.5391  134.2458  159.8879 H   0  0  0  0  0  0  0  0  0  0  0  0  # atno 6907 bound_to 6896
  151.2423  133.4386  159.2615 H   0  0  0  0  0  0  0  0  0  0  0  0  # atno 6908 bound_to 6896
  151.0615  134.9753  159.8319 H   0  0  0  0  0  0  0  0  0  0  0  0  # atno 6909 bound_to 6896
  145.2062  140.9077  143.3341 H   0  0  0  0  0  0  0  0  0  0  0  0  # atno 7974 bound_to 7965
  156.1277  140.3201  155.8302 H   0  0  0  0  0  0  0  0  0  0  0  0  # atno 8008 bound_to 7997
  155.4389  140.0524  157.3029 H   0  0  0  0  0  0  0  0  0  0  0  0  # atno 8009 bound_to 7997
  154.4875  140.2078  155.9636 H   0  0  0  0  0  0  0  0  0  0  0  0  # atno 8010 bound_to 7997
  139.5136  144.3166  152.0241 H   0  0  0  0  0  0  0  0  0  0  0  0  # atno 10167 bound_to 10162
  156.6636  130.4989  149.6022 H   0  0  0  0  0  0  0  0  0  0  0  0  # atno 10718 bound_to 10713
  154.7558  135.3104  154.8472 H   0  0  0  0  0  0  0  0  0  0  0  0  # atno 10763 bound_to 10752
  153.9246  135.6792  153.4751 H   0  0  0  0  0  0  0  0  0  0  0  0  # atno 10764 bound_to 10752
  153.1156  135.4846  154.9038 H   0  0  0  0  0  0  0  0  0  0  0  0  # atno 10765 bound_to 10752
  140.1408  134.8740  157.2329 H   0  0  0  0  0  0  0  0  0  0  0  0  # atno 11005 bound_to 11000
  144.9900  139.3698  143.6219 LP  0  0  0  0  0  0  0  0  0  0  0  0  # atno 17320 bound_to 7965
  146.3407  139.9079  142.8784 LP  0  0  0  0  0  0  0  0  0  0  0  0  # atno 17321 bound_to 7965
  140.2609  144.4068  150.6186 LP  0  0  0  0  0  0  0  0  0  0  0  0  # atno 17342 bound_to 10162
  140.6157  143.2172  151.6795 LP  0  0  0  0  0  0  0  0  0  0  0  0  # atno 17343 bound_to 10162
  156.1992  130.6609  151.1148 LP  0  0  0  0  0  0  0  0  0  0  0  0  # atno 17370 bound_to 10713
  157.7101  131.0738  150.6530 LP  0  0  0  0  0  0  0  0  0  0  0  0  # atno 17371 bound_to 10713
  140.2724  134.3445  155.7369 LP  0  0  0  0  0  0  0  0  0  0  0  0  # atno 17394 bound_to 11000
  141.2185  133.7431  156.9243 LP  0  0  0  0  0  0  0  0  0  0  0  0  # atno 17395 bound_to 11000

$$$$
