AV-unprocessed.smi:630|AV-procd|sdf|3117|dock3
  -GOLD-   22720 0 43D 1   1.00000     0.00000
 Structure written by MMmdl.
 37 38  0  0  0  0  0  0  0  0  1 V2000
  145.2192  136.0345  149.9063 N   0  0  0  0  0  0  0  0  0  0  0  0
  145.5162  135.5195  151.1024 C   0  0  0  0  0  0  0  0  0  0  0  0
  145.3802  136.1632  152.1411 O   0  0  0  0  0  0  0  0  0  0  0  0
  146.0442  134.0723  151.1385 C   0  0  2  0  0  0  0  0  0  0  0  0
  145.0067  133.1418  150.4646 C   0  0  0  0  0  0  0  0  0  0  0  0
  145.5963  131.7908  150.0271 C   0  0  0  0  0  0  0  0  0  0  0  0
  145.5603  130.6871  151.0965 C   0  0  0  0  0  0  0  0  0  0  0  0
  145.8330  131.1355  152.5419 C   0  0  0  0  0  0  0  0  0  0  0  0
  146.9397  132.1897  152.7067 C   0  0  0  0  0  0  0  0  0  0  0  0
  146.4299  133.6452  152.5843 C   0  0  1  0  0  0  0  0  0  0  0  0
  147.4588  134.5487  153.1074 N   0  0  0  0  0  0  0  0  0  0  0  0
  147.8411  134.6394  154.3901 C   0  0  0  0  0  0  0  0  0  0  0  0
  147.3875  133.9290  155.2876 O   0  0  0  0  0  0  0  0  0  0  0  0
  148.7700  135.5977  154.5517 N   0  0  0  0  0  0  0  0  0  0  0  0
  149.4046  136.0120  155.7519 C   0  0  0  0  0  0  0  0  0  0  0  0
  148.8653  135.8947  156.9710 N   0  0  0  0  0  0  0  0  0  0  0  0
  149.7111  136.3860  157.9684 C   0  0  0  0  0  0  0  0  0  0  0  0
  150.8998  136.8764  157.4877 C   0  0  0  0  0  0  0  0  0  0  0  0
  151.0045  136.7399  155.7527 S   0  0  0  0  0  0  0  0  0  0  0  0
  144.8667  136.9787  149.8430 H   0  0  0  0  0  0  0  0  0  0  0  0
  145.3431  135.4803  149.0717 H   0  0  0  0  0  0  0  0  0  0  0  0
  146.9518  134.0498  150.5321 H   0  0  0  0  0  0  0  0  0  0  0  0
  144.1354  132.9939  151.1042 H   0  0  0  0  0  0  0  0  0  0  0  0
  144.6281  133.6315  149.5656 H   0  0  0  0  0  0  0  0  0  0  0  0
  145.0484  131.4294  149.1562 H   0  0  0  0  0  0  0  0  0  0  0  0
  146.6201  131.9327  149.6797 H   0  0  0  0  0  0  0  0  0  0  0  0
  144.5857  130.1979  151.0724 H   0  0  0  0  0  0  0  0  0  0  0  0
  146.2803  129.9173  150.8168 H   0  0  0  0  0  0  0  0  0  0  0  0
  144.9109  131.5030  152.9940 H   0  0  0  0  0  0  0  0  0  0  0  0
  146.0989  130.2499  153.1201 H   0  0  0  0  0  0  0  0  0  0  0  0
  147.3584  132.0559  153.7054 H   0  0  0  0  0  0  0  0  0  0  0  0
  147.7631  132.0014  152.0164 H   0  0  0  0  0  0  0  0  0  0  0  0
  145.5407  133.7439  153.2105 H   0  0  0  0  0  0  0  0  0  0  0  0
  147.8935  135.1695  152.4410 H   0  0  0  0  0  0  0  0  0  0  0  0
  149.0468  136.0984  153.7205 H   0  0  0  0  0  0  0  0  0  0  0  0
  149.3863  136.3474  158.9976 H   0  0  0  0  0  0  0  0  0  0  0  0
  151.7166  137.3079  158.0468 H   0  0  0  0  0  0  0  0  0  0  0  0
  1  2  1  0  0  0  0
  1 20  1  0  0  0  0
  1 21  1  0  0  0  0
  2  3  2  0  0  0  0
  2  4  1  0  0  0  0
  4 10  1  0  0  0  0
  4  5  1  0  0  0  0
  4 22  1  0  0  0  0
  5  6  1  0  0  0  0
  5 23  1  0  0  0  0
  5 24  1  0  0  0  0
  6  7  1  0  0  0  0
  6 25  1  0  0  0  0
  6 26  1  0  0  0  0
  7  8  1  0  0  0  0
  7 27  1  0  0  0  0
  7 28  1  0  0  0  0
  8  9  1  0  0  0  0
  8 29  1  0  0  0  0
  8 30  1  0  0  0  0
  9 10  1  0  0  0  0
  9 31  1  0  0  0  0
  9 32  1  0  0  0  0
 10 11  1  0  0  0  0
 10 33  1  0  0  0  0
 11 12  1  0  0  0  0
 11 34  1  0  0  0  0
 12 13  2  0  0  0  0
 12 14  1  0  0  0  0
 14 15  1  0  0  0  0
 14 35  1  0  0  0  0
 15 19  1  0  0  0  0
 15 16  2  0  0  0  0
 16 17  1  0  0  0  0
 17 18  2  0  0  0  0
 17 36  1  0  0  0  0
 18 19  1  0  0  0  0
 18 37  1  0  0  0  0
M  END
> <s_m_source_file>
AV-unprocessed.smi

> <i_m_source_file_index>
630

> <i_lp_mmshare_version>
43012

> <i_f3d_flags>
0

> <s_epik_input>
W05IMl1DKD1PKVtDQEBIXTFbQ0gyXVtDSDJdW0NIMl1bQ0gyXVtDSDJdW0NASF0xW05IXUMoPU8pW05IXWMybltjSF1bY0hdczI=

> <s_epik_cmdline>
J2VwaWtfcHl0aG9uJywgJy1waCcsICc3LjAnLCAnLXRuJywgJzgnLCAnLW1hJywgJzIwMCcsICctbWV0YWxfYmluZGluZycsICctaW1hZScsICc8aW5maWxlLm1hZT4nLCAnLW9tYWUnLCAnPG91dGZpbGUubWFlPic=

> <r_lp_tautomer_probability>
0.999

> <r_epik_Ionization_Penalty>
0.000342689

> <r_epik_Ionization_Penalty_Charging>
0

> <r_epik_Ionization_Penalty_Neutral>
0.000342689

> <r_epik_State_Penalty>
0.000177984

> <r_epik_Charging_Adjusted_Penalty>
0.000177984

> <i_epik_Tot_Q>
0

> <i_epik_Tot_abs_Q>
0

> <r_epik_Metal_State_Penalty>
0.00743087

> <b_epik_Metal_Only>
0

> <s_lp_Force_Field>
OPLS_2005

> <r_lp_Energy>
11.5687

> <b_lp_Chiralities_Consistent>
1

> <s_lp_Variant>
AV-unprocessed.smi:630-1

> <Gold.Version>
5.8.1

> <Gold.Id.Protein>
6NUR|6NUR_protein|mol2

> <Gold.PLP.Fitness>
39.2591

> <Gold.PLP.PLP>
-27.8747

> <Gold.PLP.part.hbond>
-4.0000

> <Gold.PLP.part.metal>
0.0000

> <Gold.PLP.part.buried>
-5.5368

> <Gold.PLP.part.nonpolar>
-19.1432

> <Gold.PLP.part.repulsive>
0.3307

> <Gold.PLP.ligand.clash>
0.0000

> <Gold.PLP.ligand.torsion>
0.2779

> <Gold.PLP.Chemscore.Hbond>
3.9600

> <Gold.PLP.Chemscore.CHOScore>
0.0000

> <Gold.PLP.Chemscore.Metal>
0.0000

> <Gold.Chemscore.Hbonds>
donor molecule, donor type, donor heavy atom, donor atom, acceptor molecule, acceptor atom, score
      L1  H     1    20       P1 10171  1.00
      L1  H     1    21       P1  7921  1.00
      L1  H    11    34       P1  7948  1.00
      L1  H    14    35       P1  7948  0.96

> <Gold.PLP.Chemscore.Internal.Correction>
0.0601

> <Gold.Rescore>
     Score         DG    S(hbond)    S(metal)    S(lipo)     H(rot)  DE(clash)    DE(int)     intcor
     20.53     -21.95       3.88        0.00      63.32       1.52       0.02       1.41       ----

> <Gold.Chemscore.Fitness>
20.5326

> <Gold.Chemscore.DG>
-21.9545

> <Gold.Chemscore.ZeroCoef>
-5.4800

> <Gold.Chemscore.Hbond>
3.8784

> <Gold.Chemscore.Metal>
0.0000

> <Gold.Chemscore.Lipo>
63.3158

> <Gold.Chemscore.Internal_Hbond>
0.0000

> <Gold.Chemscore.DEClash>
0.0155

> <Gold.Chemscore.DEInternal>
1.4064

> <Gold.Chemscore.Rot>
1.5184

> <Gold.Chemscore.Internal.Correction>
   9.000000E+99

> <Gold.Chemscore.Hbonds>
donor molecule, donor type, donor heavy atom, donor atom, acceptor molecule, acceptor atom, score
      L1  H     1    20       P1 10171  1.00
      L1  H     1    21       P1  7921  0.99
      L1  H    11    34       P1  7948  0.94
      L1  H    14    35       P1  7948  0.88

> <Gold.Chemscore.Hbond.Weighted>
-12.9538

> <Gold.Chemscore.Metal.Weighted>
-0.0000

> <Gold.Chemscore.Lipo.Weighted>
-7.4080

> <Gold.Chemscore.Internal_Hbond.Weighted>
0.0000

> <Gold.Chemscore.DEClash.Weighted>
0.0155

> <Gold.Chemscore.DEInternal.Weighted>
1.4064

> <Gold.Chemscore.Rot.Weighted>
3.8872

> <Gold.Chemscore.Internal.Correction.Weighted>
   9.000000E+99

> <Gold.Protein.RotatedTorsions>
[ 6907 6896 6895 6894 ] final  -37.67 input  -60.11 | X-H torsion
[ 7974 7965 7964 7962 ] final   72.49 input  175.53 | X-H torsion
[ 8008 7997 7996 7995 ] final  -11.32 input   59.86 | X-H torsion
[ 10167 10162 10161 10158 ] final    9.84 input  -65.29 | X-H torsion
[ 10718 10713 10712 10709 ] final   -0.40 input   66.30 | X-H torsion
[ 10763 10752 10751 10750 ] final  -21.01 input  -60.55 | X-H torsion
[ 11005 11000 10999 10996 ] final -111.86 input  -57.11 | X-H torsion

> <Gold.Protein.ActiveResidues>
 VAL166  LYS551  ARG553  GLY616  TRP617  ASP618  TYR619  PRO620  LYS621  CYS622 
 ASP623  PHE694  ASN695  SER759  ASP760  ASP761  ALA762  ILE779  LEU786  VAL792 
 PHE793  MET794  SER795  GLU796  ALA797  LYS798  CYS799  TRP800  GLU811  SER814 

> <Gold.Protein.RotatedAtoms>
  151.0119  134.9403  159.8011 H   0  0  0  0  0  0  0  0  0  0  0  0  # atno 6907 bound_to 6896
  152.5304  134.3017  159.9091 H   0  0  0  0  0  0  0  0  0  0  0  0  # atno 6908 bound_to 6896
  151.3023  133.4075  159.2675 H   0  0  0  0  0  0  0  0  0  0  0  0  # atno 6909 bound_to 6896
  145.7527  139.2767  143.1422 H   0  0  0  0  0  0  0  0  0  0  0  0  # atno 7974 bound_to 7965
  154.5475  140.2306  155.8538 H   0  0  0  0  0  0  0  0  0  0  0  0  # atno 8008 bound_to 7997
  156.1917  140.3075  155.9306 H   0  0  0  0  0  0  0  0  0  0  0  0  # atno 8009 bound_to 7997
  155.3135  140.0437  157.3026 H   0  0  0  0  0  0  0  0  0  0  0  0  # atno 8010 bound_to 7997
  140.6230  143.8162  150.7199 H   0  0  0  0  0  0  0  0  0  0  0  0  # atno 10167 bound_to 10162
  156.8210  130.5456  149.5697 H   0  0  0  0  0  0  0  0  0  0  0  0  # atno 10718 bound_to 10713
  153.6294  135.6989  153.5281 H   0  0  0  0  0  0  0  0  0  0  0  0  # atno 10763 bound_to 10752
  153.2872  135.4168  155.1133 H   0  0  0  0  0  0  0  0  0  0  0  0  # atno 10764 bound_to 10752
  154.8525  135.3616  154.5836 H   0  0  0  0  0  0  0  0  0  0  0  0  # atno 10765 bound_to 10752
  141.0709  133.9381  157.2486 H   0  0  0  0  0  0  0  0  0  0  0  0  # atno 11005 bound_to 11000
  146.0341  140.8229  142.9861 LP  0  0  0  0  0  0  0  0  0  0  0  0  # atno 17320 bound_to 7965
  144.6846  140.2812  143.7292 LP  0  0  0  0  0  0  0  0  0  0  0  0  # atno 17321 bound_to 7965
  140.1756  143.4157  152.1969 LP  0  0  0  0  0  0  0  0  0  0  0  0  # atno 17342 bound_to 10162
  139.5455  144.7295  151.4596 LP  0  0  0  0  0  0  0  0  0  0  0  0  # atno 17343 bound_to 10162
  156.0989  130.5953  150.9860 LP  0  0  0  0  0  0  0  0  0  0  0  0  # atno 17370 bound_to 10713
  157.6457  131.0904  150.8159 LP  0  0  0  0  0  0  0  0  0  0  0  0  # atno 17371 bound_to 10713
  139.9523  135.0173  156.9028 LP  0  0  0  0  0  0  0  0  0  0  0  0  # atno 17394 bound_to 11000
  140.5675  134.0476  155.7419 LP  0  0  0  0  0  0  0  0  0  0  0  0  # atno 17395 bound_to 11000

$$$$
