AV-unprocessed.smi:107|AV-procd|sdf|1026|dock2
  -GOLD-   2262018 23D 1   1.00000     0.00000
 Structure written by MMmdl.
 30 31  0  0  0  0  0  0  0  0  2 V2000
  152.6665  142.6955  160.8654 C   0  0  0  0  0  0  0  0  0  0  0  0
  152.4874  141.7422  159.6969 C   0  0  0  0  0  0  0  0  0  0  0  0
  151.3667  141.7291  158.9419 C   0  0  0  0  0  0  0  0  0  0  0  0
  151.2061  140.8572  157.8798 N   0  0  0  0  0  0  0  0  0  0  0  0
  149.9320  140.8719  157.0657 C   0  0  1  0  0  0  0  0  0  0  0  0
  150.1496  141.5847  155.7291 C   0  0  0  0  0  0  0  0  0  0  0  0
  149.3238  140.7292  154.7909 C   0  0  1  0  0  0  0  0  0  0  0  0
  149.8026  140.8301  153.4653 O   0  0  0  0  0  0  0  0  0  0  0  0
  149.5228  139.3305  155.3826 C   0  0  2  0  0  0  0  0  0  0  0  0
  148.4073  138.3262  155.0542 C   0  0  0  0  0  0  0  0  0  0  0  0
  148.1925  138.2580  153.6602 O   0  0  0  0  0  0  0  0  0  0  0  0
  149.5517  139.5543  156.7904 O   0  0  0  0  0  0  0  0  0  0  0  0
  152.2324  139.9243  157.5764 C   0  0  0  0  0  0  0  0  0  0  0  0
  152.0484  139.1341  156.6505 O   0  0  0  0  0  0  0  0  0  0  0  0
  153.3709  139.9365  158.3270 N   0  5  0  0  0  0  0  0  0  0  0  0
  153.5602  140.7956  159.3694 C   0  0  0  0  0  0  0  0  0  0  0  0
  154.5945  140.7971  160.0363 O   0  0  0  0  0  0  0  0  0  0  0  0
  151.7950  143.3389  160.9891 H   0  0  0  0  0  0  0  0  0  0  0  0
  153.5370  143.3327  160.7073 H   0  0  0  0  0  0  0  0  0  0  0  0
  152.8104  142.1393  161.7924 H   0  0  0  0  0  0  0  0  0  0  0  0
  150.5716  142.4183  159.1817 H   0  0  0  0  0  0  0  0  0  0  0  0
  149.1471  141.3188  157.6765 H   0  0  0  0  0  0  0  0  0  0  0  0
  149.8308  142.6263  155.7783 H   0  0  0  0  0  0  0  0  0  0  0  0
  151.2066  141.5478  155.4592 H   0  0  0  0  0  0  0  0  0  0  0  0
  148.2751  141.0255  154.8396 H   0  0  0  0  0  0  0  0  0  0  0  0
  149.3318  140.2081  152.9313 H   0  0  0  0  0  0  0  0  0  0  0  0
  150.4954  138.9303  155.0909 H   0  0  0  0  0  0  0  0  0  0  0  0
  148.6867  137.3324  155.4045 H   0  0  0  0  0  0  0  0  0  0  0  0
  147.4780  138.5950  155.5568 H   0  0  0  0  0  0  0  0  0  0  0  0
  148.6376  137.4945  153.3253 H   0  0  0  0  0  0  0  0  0  0  0  0
  1  2  1  0  0  0  0
  1 18  1  0  0  0  0
  1 19  1  0  0  0  0
  1 20  1  0  0  0  0
  2 16  1  0  0  0  0
  2  3  2  0  0  0  0
  3  4  1  0  0  0  0
  3 21  1  0  0  0  0
  4  5  1  0  0  0  0
  4 13  1  0  0  0  0
  5 12  1  0  0  0  0
  5  6  1  0  0  0  0
  5 22  1  0  0  0  0
  6  7  1  0  0  0  0
  6 23  1  0  0  0  0
  6 24  1  0  0  0  0
  7  8  1  0  0  0  0
  7  9  1  0  0  0  0
  7 25  1  0  0  0  0
  8 26  1  0  0  0  0
  9 10  1  0  0  0  0
  9 12  1  0  0  0  0
  9 27  1  0  0  0  0
 10 11  1  0  0  0  0
 10 28  1  0  0  0  0
 10 29  1  0  0  0  0
 11 30  1  0  0  0  0
 13 14  2  0  0  0  0
 13 15  1  0  0  0  0
 15 16  1  0  0  0  0
 16 17  2  0  0  0  0
M  CHG  1  15  -1
M  END
> <s_m_source_file>
AV-unprocessed.smi

> <i_m_source_file_index>
107

> <i_lp_mmshare_version>
43012

> <i_f3d_flags>
0

> <s_epik_input>
Tz1jMVtuSF1jKD1PKW4oW2NIXWMxW0NIM10pW0NAQEhdMltDSDJdW0NAQEhdKFtPSF0pW0NASF0oTzIpW0NIMl1bT0hd

> <s_epik_cmdline>
J2VwaWtfcHl0aG9uJywgJy1waCcsICc3LjAnLCAnLXRuJywgJzgnLCAnLW1hJywgJzIwMCcsICctbWV0YWxfYmluZGluZycsICctaW1hZScsICc8aW5maWxlLm1hZT4nLCAnLW9tYWUnLCAnPG91dGZpbGUubWFlPic=

> <r_lp_tautomer_probability>
0.999537

> <r_epik_Ionization_Penalty>
3.66603

> <r_epik_Ionization_Penalty_Charging>
1.09773e-07

> <r_epik_Ionization_Penalty_Neutral>
3.66603

> <r_epik_State_Penalty>
3.66562

> <r_epik_Charging_Adjusted_Penalty>
3.66562

> <i_epik_Tot_Q>
-1

> <i_epik_Tot_abs_Q>
1

> <r_epik_Metal_State_Penalty>
0.234536

> <b_epik_Metal_Only>
1

> <s_epik_Chemistry_Notes>
This compound contains an acetal/aminal-like group ( X-CH(R)-Y where X, Y are N, S, or O) that may be acid/base labile, releasing an aldehyde.

> <s_lp_Force_Field>
OPLS_2005

> <r_lp_Energy>
34.2111

> <b_lp_Chiralities_Consistent>
1

> <s_lp_Variant>
AV-unprocessed.smi:107-14

> <Gold.Version>
5.8.1

> <Gold.Id.Protein>
6NUR|6NUR_protein|mol2

> <Gold.PLP.Fitness>
41.5045

> <Gold.PLP.PLP>
-28.3308

> <Gold.PLP.part.hbond>
-4.2678

> <Gold.PLP.part.metal>
0.0000

> <Gold.PLP.part.buried>
-3.2211

> <Gold.PLP.part.nonpolar>
-19.7046

> <Gold.PLP.part.repulsive>
0.0000

> <Gold.PLP.ligand.clash>
0.0000

> <Gold.PLP.ligand.torsion>
0.5454

> <Gold.PLP.Chemscore.Hbond>
4.7520

> <Gold.PLP.Chemscore.CHOScore>
0.0000

> <Gold.PLP.Chemscore.Metal>
0.0000

> <Gold.Chemscore.Hbonds>
donor molecule, donor type, donor heavy atom, donor atom, acceptor molecule, acceptor atom, score
      L1  H     8    26       P1  7957  0.45
      L1  H    11    30       P1  7948  0.99
      P1  H  7989  7998       L1     8  0.32
      P1  H  7997  8009       L1    15  1.90
      P1  H  8011  8017       L1     8  1.00

> <Gold.PLP.Chemscore.Internal.Correction>
0.0086

> <Gold.Rescore>
     Score         DG    S(hbond)    S(metal)    S(lipo)     H(rot)  DE(clash)    DE(int)     intcor
     10.22     -13.66       2.86        0.00      47.03       2.69       0.00       3.44       ----

> <Gold.Chemscore.Fitness>
10.2162

> <Gold.Chemscore.DG>
-13.6611

> <Gold.Chemscore.ZeroCoef>
-5.4800

> <Gold.Chemscore.Hbond>
2.8615

> <Gold.Chemscore.Metal>
0.0000

> <Gold.Chemscore.Lipo>
47.0335

> <Gold.Chemscore.Internal_Hbond>
0.0000

> <Gold.Chemscore.DEClash>
0.0015

> <Gold.Chemscore.DEInternal>
3.4434

> <Gold.Chemscore.Rot>
2.6871

> <Gold.Chemscore.Internal.Correction>
   9.000000E+99

> <Gold.Chemscore.Hbonds>
donor molecule, donor type, donor heavy atom, donor atom, acceptor molecule, acceptor atom, score
      L1  H     8    26       P1  7957  0.44
      L1  H    11    30       P1  7948  0.94
      P1  H  7989  7998       L1     8  0.25
      P1  H  7997  8009       L1    15  0.19
      P1  H  8011  8017       L1     8  0.34

> <Gold.Chemscore.Hbond.Weighted>
-9.5573

> <Gold.Chemscore.Metal.Weighted>
-0.0000

> <Gold.Chemscore.Lipo.Weighted>
-5.5029

> <Gold.Chemscore.Internal_Hbond.Weighted>
0.0000

> <Gold.Chemscore.DEClash.Weighted>
0.0015

> <Gold.Chemscore.DEInternal.Weighted>
3.4434

> <Gold.Chemscore.Rot.Weighted>
6.8791

> <Gold.Chemscore.Internal.Correction.Weighted>
   9.000000E+99

> <Gold.Protein.RotatedTorsions>
[ 6907 6896 6895 6894 ] final  134.06 input  -60.11 | X-H torsion
[ 7974 7965 7964 7962 ] final  -68.33 input  175.53 | X-H torsion
[ 8008 7997 7996 7995 ] final  156.21 input   59.86 | X-H torsion
[ 10167 10162 10161 10158 ] final   33.24 input  -65.29 | X-H torsion
[ 10718 10713 10712 10709 ] final    0.01 input   66.30 | X-H torsion
[ 10763 10752 10751 10750 ] final  157.50 input  -60.55 | X-H torsion
[ 11005 11000 10999 10996 ] final -163.30 input  -57.11 | X-H torsion

> <Gold.Protein.ActiveResidues>
 VAL166  LYS551  ARG553  GLY616  TRP617  ASP618  TYR619  PRO620  LYS621  CYS622 
 ASP623  PHE694  ASN695  SER759  ASP760  ASP761  ALA762  ILE779  LEU786  VAL792 
 PHE793  MET794  SER795  GLU796  ALA797  LYS798  CYS799  TRP800  GLU811  SER814 

> <Gold.Protein.RotatedAtoms>
  152.3154  133.5796  159.5708 H   0  0  0  0  0  0  0  0  0  0  0  0  # atno 6907 bound_to 6896
  150.7344  134.0091  159.3672 H   0  0  0  0  0  0  0  0  0  0  0  0  # atno 6908 bound_to 6896
  151.7980  135.0717  160.0447 H   0  0  0  0  0  0  0  0  0  0  0  0  # atno 6909 bound_to 6896
  145.7179  140.9051  143.0646 H   0  0  0  0  0  0  0  0  0  0  0  0  # atno 7974 bound_to 7965
  156.2435  140.1918  156.6921 H   0  0  0  0  0  0  0  0  0  0  0  0  # atno 8008 bound_to 7997
  154.6244  140.0604  156.9681 H   0  0  0  0  0  0  0  0  0  0  0  0  # atno 8009 bound_to 7997
  155.1810  140.3276  155.4378 H   0  0  0  0  0  0  0  0  0  0  0  0  # atno 8010 bound_to 7997
  140.4425  144.1167  150.6176 H   0  0  0  0  0  0  0  0  0  0  0  0  # atno 10167 bound_to 10162
  156.8271  130.5476  149.5691 H   0  0  0  0  0  0  0  0  0  0  0  0  # atno 10718 bound_to 10713
  154.2013  135.2790  155.2990 H   0  0  0  0  0  0  0  0  0  0  0  0  # atno 10763 bound_to 10752
  154.5852  135.5577  153.7227 H   0  0  0  0  0  0  0  0  0  0  0  0  # atno 10764 bound_to 10752
  153.0087  135.6354  154.2151 H   0  0  0  0  0  0  0  0  0  0  0  0  # atno 10765 bound_to 10752
  140.5996  134.4961  157.5203 H   0  0  0  0  0  0  0  0  0  0  0  0  # atno 11005 bound_to 11000
  144.6924  139.9163  143.7466 LP  0  0  0  0  0  0  0  0  0  0  0  0  # atno 17320 bound_to 7965
  146.0653  139.3644  143.0556 LP  0  0  0  0  0  0  0  0  0  0  0  0  # atno 17321 bound_to 7965
  140.4302  143.2572  151.9605 LP  0  0  0  0  0  0  0  0  0  0  0  0  # atno 17342 bound_to 10162
  139.4790  144.5751  151.8025 LP  0  0  0  0  0  0  0  0  0  0  0  0  # atno 17343 bound_to 10162
  156.0955  130.5929  150.9807 LP  0  0  0  0  0  0  0  0  0  0  0  0  # atno 17370 bound_to 10713
  157.6426  131.0908  150.8219 LP  0  0  0  0  0  0  0  0  0  0  0  0  # atno 17371 bound_to 10713
  139.9238  134.8096  156.1130 LP  0  0  0  0  0  0  0  0  0  0  0  0  # atno 17394 bound_to 11000
  141.0881  133.6726  156.2480 LP  0  0  0  0  0  0  0  0  0  0  0  0  # atno 17395 bound_to 11000

$$$$
