AV-unprocessed.smi:2052|AV-procd|sdf|8329|dock5
  -GOLD-   2272010593D 1   1.00000     0.00000
 Structure written by MMmdl.
 41 42  0  0  0  0  0  0  0  0  1 V2000
  145.6649  143.8473  153.4311 C   0  0  0  0  0  0  0  0  0  0  0  0
  144.8294  143.6734  155.0314 S   0  0  0  0  0  0  0  0  0  0  0  0
  146.1749  143.0008  156.0521 C   0  0  1  0  0  0  0  0  0  0  0  0
  145.6604  142.6747  157.4634 C   0  0  0  0  0  0  0  0  0  0  0  0
  146.8281  141.7744  155.4029 C   0  0  0  0  0  0  0  0  0  0  0  0
  146.1776  140.7450  155.2199 O   0  0  0  0  0  0  0  0  0  0  0  0
  148.1186  141.8975  155.0550 N   0  0  0  0  0  0  0  0  0  0  0  0
  148.9192  140.8452  154.4384 C   0  0  0  0  0  0  0  0  0  0  0  0
  150.1710  140.4784  155.2224 C   0  0  0  0  0  0  0  0  0  0  0  0
  150.9656  139.3684  154.8670 C   0  0  0  0  0  0  0  0  0  0  0  0
  152.1098  139.0920  155.6368 C   0  0  0  0  0  0  0  0  0  0  0  0
  152.4802  139.8301  156.7037 N   0  0  0  0  0  0  0  0  0  0  0  0
  151.7170  140.8913  157.0656 C   0  0  0  0  0  0  0  0  0  0  0  0
  152.1161  141.6498  158.1885 N   0  0  0  0  0  0  0  0  0  0  0  0
  151.5019  142.9694  158.3160 C   0  0  0  0  0  0  0  0  0  0  0  0
  152.2358  143.8027  159.3810 C   0  0  0  0  0  0  0  0  0  0  0  0
  152.2722  143.0896  160.6127 O   0  0  0  0  0  0  0  0  0  0  0  0
  152.9764  141.8586  160.4888 C   0  0  0  0  0  0  0  0  0  0  0  0
  152.2657  140.9557  159.4666 C   0  0  0  0  0  0  0  0  0  0  0  0
  150.5527  141.2459  156.3423 C   0  0  0  0  0  0  0  0  0  0  0  0
  144.9895  144.2991  152.7046 H   0  0  0  0  0  0  0  0  0  0  0  0
  145.9761  142.8751  153.0496 H   0  0  0  0  0  0  0  0  0  0  0  0
  146.5447  144.4837  153.5270 H   0  0  0  0  0  0  0  0  0  0  0  0
  146.9273  143.7846  156.1521 H   0  0  0  0  0  0  0  0  0  0  0  0
  146.4512  142.2569  158.0877 H   0  0  0  0  0  0  0  0  0  0  0  0
  144.8405  141.9559  157.4368 H   0  0  0  0  0  0  0  0  0  0  0  0
  145.2938  143.5736  157.9597 H   0  0  0  0  0  0  0  0  0  0  0  0
  148.5800  142.7765  155.2381 H   0  0  0  0  0  0  0  0  0  0  0  0
  148.3025  139.9585  154.2822 H   0  0  0  0  0  0  0  0  0  0  0  0
  149.2246  141.1862  153.4492 H   0  0  0  0  0  0  0  0  0  0  0  0
  150.7130  138.7419  154.0244 H   0  0  0  0  0  0  0  0  0  0  0  0
  152.7447  138.2539  155.3905 H   0  0  0  0  0  0  0  0  0  0  0  0
  151.5120  143.5151  157.3737 H   0  0  0  0  0  0  0  0  0  0  0  0
  150.4560  142.8429  158.5979 H   0  0  0  0  0  0  0  0  0  0  0  0
  153.2499  144.0419  159.0564 H   0  0  0  0  0  0  0  0  0  0  0  0
  151.7203  144.7507  159.5356 H   0  0  0  0  0  0  0  0  0  0  0  0
  154.0095  142.0457  160.1909 H   0  0  0  0  0  0  0  0  0  0  0  0
  153.0096  141.3689  161.4620 H   0  0  0  0  0  0  0  0  0  0  0  0
  151.2811  140.6718  159.8408 H   0  0  0  0  0  0  0  0  0  0  0  0
  152.8417  140.0389  159.3345 H   0  0  0  0  0  0  0  0  0  0  0  0
  149.9630  142.1058  156.6228 H   0  0  0  0  0  0  0  0  0  0  0  0
  1  2  1  0  0  0  0
  1 21  1  0  0  0  0
  1 22  1  0  0  0  0
  1 23  1  0  0  0  0
  2  3  1  0  0  0  0
  3  4  1  0  0  0  0
  3  5  1  0  0  0  0
  3 24  1  0  0  0  0
  4 25  1  0  0  0  0
  4 26  1  0  0  0  0
  4 27  1  0  0  0  0
  5  6  2  0  0  0  0
  5  7  1  0  0  0  0
  7  8  1  0  0  0  0
  7 28  1  0  0  0  0
  8  9  1  0  0  0  0
  8 29  1  0  0  0  0
  8 30  1  0  0  0  0
  9 20  1  0  0  0  0
  9 10  2  0  0  0  0
 10 11  1  0  0  0  0
 10 31  1  0  0  0  0
 11 12  2  0  0  0  0
 11 32  1  0  0  0  0
 12 13  1  0  0  0  0
 13 14  1  0  0  0  0
 13 20  2  0  0  0  0
 14 19  1  0  0  0  0
 14 15  1  0  0  0  0
 15 16  1  0  0  0  0
 15 33  1  0  0  0  0
 15 34  1  0  0  0  0
 16 17  1  0  0  0  0
 16 35  1  0  0  0  0
 16 36  1  0  0  0  0
 17 18  1  0  0  0  0
 18 19  1  0  0  0  0
 18 37  1  0  0  0  0
 18 38  1  0  0  0  0
 19 39  1  0  0  0  0
 19 40  1  0  0  0  0
 20 41  1  0  0  0  0
M  END
> <s_m_source_file>
AV-unprocessed.smi

> <i_m_source_file_index>
2052

> <i_lp_mmshare_version>
43012

> <i_f3d_flags>
0

> <s_epik_input>
W0NIM11TW0NASF0oW0NIM10pQyg9TylbTkhdW0NIMl1jMVtjSF1bY0hdbmMoW2NIXTEpTjJbQ0gyXVtDSDJdT1tDSDJdW0NIMl0y

> <s_epik_cmdline>
J2VwaWtfcHl0aG9uJywgJy1waCcsICc3LjAnLCAnLXRuJywgJzgnLCAnLW1hJywgJzIwMCcsICctbWV0YWxfYmluZGluZycsICctaW1hZScsICc8aW5maWxlLm1hZT4nLCAnLW9tYWUnLCAnPG91dGZpbGUubWFlPic=

> <r_lp_tautomer_probability>
1

> <r_epik_Ionization_Penalty>
0.00463955

> <r_epik_Ionization_Penalty_Charging>
0

> <r_epik_Ionization_Penalty_Neutral>
0.00463955

> <r_epik_State_Penalty>
0.00335544

> <r_epik_Charging_Adjusted_Penalty>
0.00335544

> <i_epik_Tot_Q>
0

> <i_epik_Tot_abs_Q>
0

> <r_epik_Metal_State_Penalty>
-0

> <b_epik_Metal_Only>
0

> <s_lp_Force_Field>
OPLS_2005

> <r_lp_Energy>
15.5355

> <b_lp_Chiralities_Consistent>
1

> <s_lp_Variant>
AV-unprocessed.smi:2052-2

> <Gold.Version>
5.8.1

> <Gold.Id.Protein>
6NUR|6NUR_protein|mol2

> <Gold.PLP.Fitness>
45.5191

> <Gold.PLP.PLP>
-39.7840

> <Gold.PLP.part.hbond>
-2.0000

> <Gold.PLP.part.metal>
0.0000

> <Gold.PLP.part.buried>
-4.1429

> <Gold.PLP.part.nonpolar>
-33.2312

> <Gold.PLP.part.repulsive>
0.2437

> <Gold.PLP.ligand.clash>
0.0000

> <Gold.PLP.ligand.torsion>
0.3212

> <Gold.PLP.Chemscore.Hbond>
2.0000

> <Gold.PLP.Chemscore.CHOScore>
0.0000

> <Gold.PLP.Chemscore.Metal>
0.0000

> <Gold.Chemscore.Hbonds>
donor molecule, donor type, donor heavy atom, donor atom, acceptor molecule, acceptor atom, score
      L1  H     7    28       P1  8028  1.00
      P1  H  7997  8008       L1    12  1.00

> <Gold.PLP.Chemscore.Internal.Correction>
0.3775

> <Gold.Rescore>
     Score         DG    S(hbond)    S(metal)    S(lipo)     H(rot)  DE(clash)    DE(int)     intcor
     16.92     -17.41       1.82        0.00      86.63       1.67       0.20       0.29       ----

> <Gold.Chemscore.Fitness>
16.9190

> <Gold.Chemscore.DG>
-17.4122

> <Gold.Chemscore.ZeroCoef>
-5.4800

> <Gold.Chemscore.Hbond>
1.8165

> <Gold.Chemscore.Metal>
0.0000

> <Gold.Chemscore.Lipo>
86.6308

> <Gold.Chemscore.Internal_Hbond>
0.0000

> <Gold.Chemscore.DEClash>
0.2015

> <Gold.Chemscore.DEInternal>
0.2917

> <Gold.Chemscore.Rot>
1.6682

> <Gold.Chemscore.Internal.Correction>
   9.000000E+99

> <Gold.Chemscore.Hbonds>
donor molecule, donor type, donor heavy atom, donor atom, acceptor molecule, acceptor atom, score
      L1  H     7    28       P1  8028  0.96
      P1  H  7997  8008       L1    12  0.28

> <Gold.Chemscore.Hbond.Weighted>
-6.0671

> <Gold.Chemscore.Metal.Weighted>
-0.0000

> <Gold.Chemscore.Lipo.Weighted>
-10.1358

> <Gold.Chemscore.Internal_Hbond.Weighted>
0.0000

> <Gold.Chemscore.DEClash.Weighted>
0.2015

> <Gold.Chemscore.DEInternal.Weighted>
0.2917

> <Gold.Chemscore.Rot.Weighted>
4.2707

> <Gold.Chemscore.Internal.Correction.Weighted>
   9.000000E+99

> <Gold.Protein.RotatedTorsions>
[ 6907 6896 6895 6894 ] final  -63.93 input  -60.11 | X-H torsion
[ 7974 7965 7964 7962 ] final  -49.15 input  175.53 | X-H torsion
[ 8008 7997 7996 7995 ] final  -41.15 input   59.86 | X-H torsion
[ 10167 10162 10161 10158 ] final   16.85 input  -65.29 | X-H torsion
[ 10718 10713 10712 10709 ] final -178.90 input   66.30 | X-H torsion
[ 10763 10752 10751 10750 ] final  146.58 input  -60.55 | X-H torsion
[ 11005 11000 10999 10996 ] final  -24.66 input  -57.11 | X-H torsion

> <Gold.Protein.ActiveResidues>
 VAL166  LYS551  ARG553  GLY616  TRP617  ASP618  TYR619  PRO620  LYS621  CYS622 
 ASP623  PHE694  ASN695  SER759  ASP760  ASP761  ALA762  ILE779  LEU786  VAL792 
 PHE793  MET794  SER795  GLU796  ALA797  LYS798  CYS799  TRP800  GLU811  SER814 

> <Gold.Protein.RotatedAtoms>
  150.7618  134.6368  159.6215 H   0  0  0  0  0  0  0  0  0  0  0  0  # atno 6907 bound_to 6896
  152.3629  134.6843  160.0210 H   0  0  0  0  0  0  0  0  0  0  0  0  # atno 6908 bound_to 6896
  151.7228  133.3279  159.3356 H   0  0  0  0  0  0  0  0  0  0  0  0  # atno 6909 bound_to 6896
  145.9436  140.7639  142.9539 H   0  0  0  0  0  0  0  0  0  0  0  0  # atno 7974 bound_to 7965
  154.4006  140.1507  156.3144 H   0  0  0  0  0  0  0  0  0  0  0  0  # atno 8008 bound_to 7997
  155.8586  140.3454  155.5719 H   0  0  0  0  0  0  0  0  0  0  0  0  # atno 8009 bound_to 7997
  155.7905  140.0856  157.2002 H   0  0  0  0  0  0  0  0  0  0  0  0  # atno 8010 bound_to 7997
  140.5768  143.9057  150.6757 H   0  0  0  0  0  0  0  0  0  0  0  0  # atno 10167 bound_to 10162
  156.8511  130.9719  151.3092 H   0  0  0  0  0  0  0  0  0  0  0  0  # atno 10718 bound_to 10713
  154.0243  135.2903  155.3377 H   0  0  0  0  0  0  0  0  0  0  0  0  # atno 10763 bound_to 10752
  154.7027  135.5182  153.8553 H   0  0  0  0  0  0  0  0  0  0  0  0  # atno 10764 bound_to 10752
  153.0667  135.6633  154.0462 H   0  0  0  0  0  0  0  0  0  0  0  0  # atno 10765 bound_to 10752
  140.8866  133.7617  156.0368 H   0  0  0  0  0  0  0  0  0  0  0  0  # atno 11005 bound_to 11000
  144.6783  140.2321  143.7354 LP  0  0  0  0  0  0  0  0  0  0  0  0  # atno 17320 bound_to 7965
  145.8266  139.2067  143.1907 LP  0  0  0  0  0  0  0  0  0  0  0  0  # atno 17321 bound_to 7965
  140.2546  143.3568  152.1376 LP  0  0  0  0  0  0  0  0  0  0  0  0  # atno 17342 bound_to 10162
  139.5147  144.6952  151.5650 LP  0  0  0  0  0  0  0  0  0  0  0  0  # atno 17343 bound_to 10162
  157.6303  130.8724  149.9262 LP  0  0  0  0  0  0  0  0  0  0  0  0  # atno 17370 bound_to 10713
  156.0828  130.3671  150.0547 LP  0  0  0  0  0  0  0  0  0  0  0  0  # atno 17371 bound_to 10713
  140.8397  134.3081  157.5318 LP  0  0  0  0  0  0  0  0  0  0  0  0  # atno 17394 bound_to 11000
  139.8725  134.9409  156.3783 LP  0  0  0  0  0  0  0  0  0  0  0  0  # atno 17395 bound_to 11000

$$$$
