AV-unprocessed.smi:2506|AV-procd|sdf|9862|dock4
  -GOLD-   2272013493D 1   1.00000     0.00000
 Structure written by MMmdl.
 39 40  0  0  0  0  0  0  0  0  2 V2000
  150.4081  138.6449  154.1808 C   0  0  0  0  0  0  0  0  0  0  0  0
  149.3329  139.7163  154.1221 C   0  0  0  0  0  0  0  0  0  0  0  0
  149.7351  140.9617  154.4703 N   0  0  0  0  0  0  0  0  0  0  0  0
  148.8269  141.9507  154.4372 N   0  3  0  0  0  0  0  0  0  0  0  0
  147.5357  141.7563  154.0810 C   0  0  0  0  0  0  0  0  0  0  0  0
  147.0825  140.4759  153.7149 C   0  0  0  0  0  0  0  0  0  0  0  0
  148.0113  139.4109  153.7206 C   0  0  0  0  0  0  0  0  0  0  0  0
  147.6746  138.0692  153.3865 N   0  0  0  0  0  0  0  0  0  0  0  0
  146.5466  137.3973  153.6720 C   0  0  0  0  0  0  0  0  0  0  0  0
  145.5945  137.8484  154.3081 O   0  0  0  0  0  0  0  0  0  0  0  0
  146.5738  136.1640  153.1480 N   0  0  0  0  0  0  0  0  0  0  0  0
  145.5012  135.1752  153.2378 C   0  0  0  0  0  0  0  0  0  0  0  0
  145.1594  134.5329  151.8700 C   0  0  0  0  0  0  0  0  0  0  0  0
  144.9279  135.6203  150.7959 C   0  0  0  0  0  0  0  0  0  0  0  0
  146.2379  133.5358  151.4102 C   0  0  0  0  0  0  0  0  0  0  0  0
  145.5293  132.5410  150.4839 C   0  0  0  0  0  0  0  0  0  0  0  0
  144.0421  132.5925  150.8583 C   0  0  0  0  0  0  0  0  0  0  0  0
  143.9175  133.6315  151.9798 C   0  0  0  0  0  0  0  0  0  0  0  0
  150.5411  138.1868  153.2002 H   0  0  0  0  0  0  0  0  0  0  0  0
  150.1305  137.8662  154.8918 H   0  0  0  0  0  0  0  0  0  0  0  0
  151.3694  139.0566  154.4915 H   0  0  0  0  0  0  0  0  0  0  0  0
  146.9040  142.6321  154.1055 H   0  0  0  0  0  0  0  0  0  0  0  0
  146.0444  140.3375  153.4540 H   0  0  0  0  0  0  0  0  0  0  0  0
  148.3340  137.5921  152.7887 H   0  0  0  0  0  0  0  0  0  0  0  0
  147.3980  135.8844  152.6362 H   0  0  0  0  0  0  0  0  0  0  0  0
  145.8358  134.4076  153.9364 H   0  0  0  0  0  0  0  0  0  0  0  0
  144.6054  135.6097  153.6848 H   0  0  0  0  0  0  0  0  0  0  0  0
  144.6011  135.1940  149.8473 H   0  0  0  0  0  0  0  0  0  0  0  0
  145.8366  136.1868  150.5931 H   0  0  0  0  0  0  0  0  0  0  0  0
  144.1624  136.3290  151.1135 H   0  0  0  0  0  0  0  0  0  0  0  0
  147.0864  134.0202  150.9254 H   0  0  0  0  0  0  0  0  0  0  0  0
  146.6290  132.9925  152.2716 H   0  0  0  0  0  0  0  0  0  0  0  0
  145.6577  132.8399  149.4428 H   0  0  0  0  0  0  0  0  0  0  0  0
  145.9420  131.5370  150.5868 H   0  0  0  0  0  0  0  0  0  0  0  0
  143.4534  132.8981  149.9923 H   0  0  0  0  0  0  0  0  0  0  0  0
  143.6685  131.6190  151.1774 H   0  0  0  0  0  0  0  0  0  0  0  0
  143.9206  133.1080  152.9369 H   0  0  0  0  0  0  0  0  0  0  0  0
  142.9818  134.1896  151.9268 H   0  0  0  0  0  0  0  0  0  0  0  0
  149.1198  142.8927  154.6980 H   0  0  0  0  0  0  0  0  0  0  0  0
  1  2  1  0  0  0  0
  1 19  1  0  0  0  0
  1 20  1  0  0  0  0
  1 21  1  0  0  0  0
  2  7  1  0  0  0  0
  2  3  2  0  0  0  0
  3  4  1  0  0  0  0
  4  5  2  0  0  0  0
  4 39  1  0  0  0  0
  5  6  1  0  0  0  0
  5 22  1  0  0  0  0
  6  7  2  0  0  0  0
  6 23  1  0  0  0  0
  7  8  1  0  0  0  0
  8  9  1  0  0  0  0
  8 24  1  0  0  0  0
  9 10  2  0  0  0  0
  9 11  1  0  0  0  0
 11 12  1  0  0  0  0
 11 25  1  0  0  0  0
 12 13  1  0  0  0  0
 12 26  1  0  0  0  0
 12 27  1  0  0  0  0
 13 18  1  0  0  0  0
 13 14  1  0  0  0  0
 13 15  1  0  0  0  0
 14 28  1  0  0  0  0
 14 29  1  0  0  0  0
 14 30  1  0  0  0  0
 15 16  1  0  0  0  0
 15 31  1  0  0  0  0
 15 32  1  0  0  0  0
 16 17  1  0  0  0  0
 16 33  1  0  0  0  0
 16 34  1  0  0  0  0
 17 18  1  0  0  0  0
 17 35  1  0  0  0  0
 17 36  1  0  0  0  0
 18 37  1  0  0  0  0
 18 38  1  0  0  0  0
M  CHG  1   4   1
M  END
> <s_m_source_file>
AV-unprocessed.smi

> <i_m_source_file_index>
2506

> <i_lp_mmshare_version>
43012

> <i_f3d_flags>
0

> <s_epik_input>
W0NIM11jMW5uW2NIXVtjSF1jMVtOSF1DKD1PKVtOSF1bQ0gyXUMyKFtDSDNdKVtDSDJdW0NIMl1bQ0gyXVtDSDJdMg==

> <s_epik_cmdline>
J2VwaWtfcHl0aG9uJywgJy1waCcsICc3LjAnLCAnLXRuJywgJzgnLCAnLW1hJywgJzIwMCcsICctbWV0YWxfYmluZGluZycsICctaW1hZScsICc8aW5maWxlLm1hZT4nLCAnLW9tYWUnLCAnPG91dGZpbGUubWFlPic=

> <r_lp_tautomer_probability>
0.5088

> <r_epik_Ionization_Penalty>
1.13414

> <r_epik_Ionization_Penalty_Charging>
1.1341

> <r_epik_Ionization_Penalty_Neutral>
4.35135e-05

> <r_epik_State_Penalty>
2.14502

> <r_epik_Charging_Adjusted_Penalty>
3.27912

> <i_epik_Tot_Q>
1

> <i_epik_Tot_abs_Q>
1

> <r_epik_Metal_State_Penalty>
2.23434

> <b_epik_Metal_Only>
0

> <s_lp_Force_Field>
OPLS_2005

> <r_lp_Energy>
34.1821

> <b_lp_Chiralities_Consistent>
1

> <s_lp_Variant>
AV-unprocessed.smi:2506-2

> <Gold.Version>
5.8.1

> <Gold.Id.Protein>
6NUR|6NUR_protein|mol2

> <Gold.PLP.Fitness>
44.9669

> <Gold.PLP.PLP>
-32.7897

> <Gold.PLP.part.hbond>
-4.0000

> <Gold.PLP.part.metal>
0.0000

> <Gold.PLP.part.buried>
-3.1430

> <Gold.PLP.part.nonpolar>
-26.2666

> <Gold.PLP.part.repulsive>
1.3628

> <Gold.PLP.ligand.clash>
0.0000

> <Gold.PLP.ligand.torsion>
0.4285

> <Gold.PLP.Chemscore.Hbond>
4.3399

> <Gold.PLP.Chemscore.CHOScore>
0.0000

> <Gold.PLP.Chemscore.Metal>
0.0000

> <Gold.Chemscore.Hbonds>
donor molecule, donor type, donor heavy atom, donor atom, acceptor molecule, acceptor atom, score
      L1  H     4    39       P1  8028  1.85
      L1  H     8    24       P1  7948  1.00
      L1  H    11    25       P1  7948  1.00
      P1  H  7989  7998       L1     3  0.40

> <Gold.PLP.Chemscore.Internal.Correction>
0.0146

> <Gold.Rescore>
     Score         DG    S(hbond)    S(metal)    S(lipo)     H(rot)  DE(clash)    DE(int)     intcor
     19.98     -21.42       2.96        0.00      78.50       1.22       0.16       1.29       ----

> <Gold.Chemscore.Fitness>
19.9790

> <Gold.Chemscore.DG>
-21.4244

> <Gold.Chemscore.ZeroCoef>
-5.4800

> <Gold.Chemscore.Hbond>
2.9595

> <Gold.Chemscore.Metal>
0.0000

> <Gold.Chemscore.Lipo>
78.5023

> <Gold.Chemscore.Internal_Hbond>
0.0000

> <Gold.Chemscore.DEClash>
0.1569

> <Gold.Chemscore.DEInternal>
1.2885

> <Gold.Chemscore.Rot>
1.2207

> <Gold.Chemscore.Internal.Correction>
   9.000000E+99

> <Gold.Chemscore.Hbonds>
donor molecule, donor type, donor heavy atom, donor atom, acceptor molecule, acceptor atom, score
      L1  H     4    39       P1  8028  0.86
      L1  H     8    24       P1  7948  0.99
      L1  H    11    25       P1  7948  0.97
      P1  H  7989  7998       L1     3  0.07

> <Gold.Chemscore.Hbond.Weighted>
-9.8846

> <Gold.Chemscore.Metal.Weighted>
-0.0000

> <Gold.Chemscore.Lipo.Weighted>
-9.1848

> <Gold.Chemscore.Internal_Hbond.Weighted>
0.0000

> <Gold.Chemscore.DEClash.Weighted>
0.1569

> <Gold.Chemscore.DEInternal.Weighted>
1.2885

> <Gold.Chemscore.Rot.Weighted>
3.1250

> <Gold.Chemscore.Internal.Correction.Weighted>
   9.000000E+99

> <Gold.Protein.RotatedTorsions>
[ 6907 6896 6895 6894 ] final  133.72 input  -60.11 | X-H torsion
[ 7974 7965 7964 7962 ] final  100.74 input  175.53 | X-H torsion
[ 8008 7997 7996 7995 ] final   87.46 input   59.86 | X-H torsion
[ 10167 10162 10161 10158 ] final  -74.49 input  -65.29 | X-H torsion
[ 10718 10713 10712 10709 ] final  -73.61 input   66.30 | X-H torsion
[ 10763 10752 10751 10750 ] final  -84.79 input  -60.55 | X-H torsion
[ 11005 11000 10999 10996 ] final   96.54 input  -57.11 | X-H torsion

> <Gold.Protein.ActiveResidues>
 VAL166  LYS551  ARG553  GLY616  TRP617  ASP618  TYR619  PRO620  LYS621  CYS622 
 ASP623  PHE694  ASN695  SER759  ASP760  ASP761  ALA762  ILE779  LEU786  VAL792 
 PHE793  MET794  SER795  GLU796  ALA797  LYS798  CYS799  TRP800  GLU811  SER814 

> <Gold.Protein.RotatedAtoms>
  152.3190  133.5833  159.5731 H   0  0  0  0  0  0  0  0  0  0  0  0  # atno 6907 bound_to 6896
  150.7361  134.0040  159.3656 H   0  0  0  0  0  0  0  0  0  0  0  0  # atno 6908 bound_to 6896
  151.7926  135.0732  160.0440 H   0  0  0  0  0  0  0  0  0  0  0  0  # atno 6909 bound_to 6896
  145.3816  139.2379  143.3400 H   0  0  0  0  0  0  0  0  0  0  0  0  # atno 7974 bound_to 7965
  155.9757  140.3382  155.6616 H   0  0  0  0  0  0  0  0  0  0  0  0  # atno 8008 bound_to 7997
  155.6616  140.0717  157.2570 H   0  0  0  0  0  0  0  0  0  0  0  0  # atno 8009 bound_to 7997
  154.4178  140.1707  156.1770 H   0  0  0  0  0  0  0  0  0  0  0  0  # atno 8010 bound_to 7997
  140.5022  143.2359  151.7733 H   0  0  0  0  0  0  0  0  0  0  0  0  # atno 10167 bound_to 10162
  156.0273  130.4398  150.2768 H   0  0  0  0  0  0  0  0  0  0  0  0  # atno 10718 bound_to 10713
  154.6036  135.5508  153.7399 H   0  0  0  0  0  0  0  0  0  0  0  0  # atno 10763 bound_to 10752
  153.0165  135.6372  154.1679 H   0  0  0  0  0  0  0  0  0  0  0  0  # atno 10764 bound_to 10752
  154.1619  135.2897  155.3086 H   0  0  0  0  0  0  0  0  0  0  0  0  # atno 10765 bound_to 10752
  139.8781  134.8956  156.4174 H   0  0  0  0  0  0  0  0  0  0  0  0  # atno 11005 bound_to 11000
  146.2839  140.4485  142.8765 LP  0  0  0  0  0  0  0  0  0  0  0  0  # atno 17320 bound_to 7965
  144.8503  140.6991  143.6172 LP  0  0  0  0  0  0  0  0  0  0  0  0  # atno 17321 bound_to 7965
  139.4875  144.4506  151.9658 LP  0  0  0  0  0  0  0  0  0  0  0  0  # atno 17342 bound_to 10162
  140.3595  144.2990  150.5936 LP  0  0  0  0  0  0  0  0  0  0  0  0  # atno 17343 bound_to 10162
  157.0871  131.0159  151.3135 LP  0  0  0  0  0  0  0  0  0  0  0  0  # atno 17370 bound_to 10713
  157.4882  130.7806  149.7481 LP  0  0  0  0  0  0  0  0  0  0  0  0  # atno 17371 bound_to 10713
  140.9157  133.7680  155.9846 LP  0  0  0  0  0  0  0  0  0  0  0  0  # atno 17394 bound_to 11000
  140.8496  134.2970  157.5281 LP  0  0  0  0  0  0  0  0  0  0  0  0  # atno 17395 bound_to 11000

$$$$
