AV-unprocessed.smi:36|AV-procd|sdf|292|dock5
  -GOLD-   2262016 83D 1   1.00000     0.00000
 Structure written by MMmdl.
 64 67  0  0  0  0  0  0  0  0  1 V2000
  142.2646  136.3748  163.6172 C   0  0  0  0  0  0  0  0  0  0  0  0
  142.0420  134.9340  163.1287 C   0  0  0  0  0  0  0  0  0  0  0  0
  142.9281  133.9682  163.9324 C   0  0  0  0  0  0  0  0  0  0  0  0
  140.5639  134.5464  163.3007 C   0  0  0  0  0  0  0  0  0  0  0  0
  142.5036  134.8104  161.2789 Si  0  0  0  0  0  0  0  0  0  0  0  0
  142.4928  133.0014  160.6950 C   0  0  0  0  0  0  0  0  0  0  0  0
  141.3247  135.8402  160.2022 C   0  0  0  0  0  0  0  0  0  0  0  0
  144.0658  135.4306  161.0872 O   0  0  0  0  0  0  0  0  0  0  0  0
  145.2140  134.8363  161.6551 C   0  0  0  0  0  0  0  0  0  0  0  0
  145.8322  133.8656  160.6412 C   0  0  1  0  0  0  0  0  0  0  0  0
  146.1281  134.5293  159.4075 O   0  0  0  0  0  0  0  0  0  0  0  0
  147.4170  134.2123  158.9655 C   0  0  1  0  0  0  0  0  0  0  0  0
  148.3149  135.3828  159.2427 N   0  0  0  0  0  0  0  0  0  0  0  0
  148.4480  136.0746  160.3919 C   0  0  0  0  0  0  0  0  0  0  0  0
  149.3075  137.0889  160.3546 N   0  0  0  0  0  0  0  0  0  0  0  0
  149.7565  137.0571  159.0395 C   0  0  0  0  0  0  0  0  0  0  0  0
  150.7191  137.9325  158.3370 C   0  0  0  0  0  0  0  0  0  0  0  0
  151.2712  138.8892  159.0197 N   0  0  0  0  0  0  0  0  0  0  0  0
  152.1789  139.7464  158.4118 C   0  0  0  0  0  0  0  0  0  0  0  0
  153.0368  139.4892  157.5627 O   0  0  0  0  0  0  0  0  0  0  0  0
  152.0907  141.1503  158.9152 C   0  0  0  0  0  0  0  0  0  0  0  0
  150.9216  141.9096  158.6956 C   0  0  0  0  0  0  0  0  0  0  0  0
  150.8361  143.2300  159.1786 C   0  0  0  0  0  0  0  0  0  0  0  0
  151.9171  143.7942  159.8832 C   0  0  0  0  0  0  0  0  0  0  0  0
  153.0842  143.0377  160.1060 C   0  0  0  0  0  0  0  0  0  0  0  0
  153.1711  141.7171  159.6238 C   0  0  0  0  0  0  0  0  0  0  0  0
  150.8418  137.5290  157.0011 N   0  0  0  0  0  0  0  0  0  0  0  0
  150.1612  136.4595  156.3988 C   0  0  0  0  0  0  0  0  0  0  0  0
  149.3082  135.6792  157.0074 N   0  0  0  0  0  0  0  0  0  0  0  0
  149.1533  136.0337  158.3406 C   0  0  0  0  0  0  0  0  0  0  0  0
  147.8551  132.9980  159.7846 C   0  0  0  0  0  0  0  0  0  0  0  0
  147.1624  133.2626  161.1043 C   0  0  2  0  0  0  0  0  0  0  0  0
  146.9885  132.0651  161.8326 O   0  0  0  0  0  0  0  0  0  0  0  0
  142.0118  136.4778  164.6732 H   0  0  0  0  0  0  0  0  0  0  0  0
  141.6484  137.0824  163.0623 H   0  0  0  0  0  0  0  0  0  0  0  0
  143.3048  136.6788  163.4979 H   0  0  0  0  0  0  0  0  0  0  0  0
  143.9837  134.2218  163.8335 H   0  0  0  0  0  0  0  0  0  0  0  0
  142.8034  132.9399  163.5920 H   0  0  0  0  0  0  0  0  0  0  0  0
  142.6827  133.9957  164.9946 H   0  0  0  0  0  0  0  0  0  0  0  0
  140.2636  134.5822  164.3485 H   0  0  0  0  0  0  0  0  0  0  0  0
  140.3752  133.5356  162.9377 H   0  0  0  0  0  0  0  0  0  0  0  0
  139.9092  135.2209  162.7484 H   0  0  0  0  0  0  0  0  0  0  0  0
  141.5256  132.5303  160.8671 H   0  0  0  0  0  0  0  0  0  0  0  0
  143.2420  132.4072  161.2179 H   0  0  0  0  0  0  0  0  0  0  0  0
  142.7019  132.9229  159.6286 H   0  0  0  0  0  0  0  0  0  0  0  0
  140.2962  135.4905  160.2861 H   0  0  0  0  0  0  0  0  0  0  0  0
  141.6001  135.7886  159.1491 H   0  0  0  0  0  0  0  0  0  0  0  0
  141.3361  136.8919  160.4876 H   0  0  0  0  0  0  0  0  0  0  0  0
  145.9332  135.5929  161.9665 H   0  0  0  0  0  0  0  0  0  0  0  0
  144.9101  134.2975  162.5530 H   0  0  0  0  0  0  0  0  0  0  0  0
  145.1270  133.0641  160.4137 H   0  0  0  0  0  0  0  0  0  0  0  0
  147.4684  134.0760  157.8847 H   0  0  0  0  0  0  0  0  0  0  0  0
  147.8937  135.8377  161.2862 H   0  0  0  0  0  0  0  0  0  0  0  0
  150.0870  141.4826  158.1584 H   0  0  0  0  0  0  0  0  0  0  0  0
  149.9404  143.8094  159.0099 H   0  0  0  0  0  0  0  0  0  0  0  0
  151.8504  144.8063  160.2544 H   0  0  0  0  0  0  0  0  0  0  0  0
  153.9123  143.4701  160.6480 H   0  0  0  0  0  0  0  0  0  0  0  0
  154.0689  141.1422  159.8001 H   0  0  0  0  0  0  0  0  0  0  0  0
  150.4023  136.3181  155.3444 H   0  0  0  0  0  0  0  0  0  0  0  0
  147.4604  132.1016  159.3039 H   0  0  0  0  0  0  0  0  0  0  0  0
  148.9382  132.9074  159.8639 H   0  0  0  0  0  0  0  0  0  0  0  0
  147.7359  133.9804  161.6930 H   0  0  0  0  0  0  0  0  0  0  0  0
  146.7899  131.3701  161.2238 H   0  0  0  0  0  0  0  0  0  0  0  0
  151.4752  138.0582  156.4192 H   0  0  0  0  0  0  0  0  0  0  0  0
  1  2  1  0  0  0  0
  1 34  1  0  0  0  0
  1 35  1  0  0  0  0
  1 36  1  0  0  0  0
  2  3  1  0  0  0  0
  2  4  1  0  0  0  0
  2  5  1  0  0  0  0
  3 37  1  0  0  0  0
  3 38  1  0  0  0  0
  3 39  1  0  0  0  0
  4 40  1  0  0  0  0
  4 41  1  0  0  0  0
  4 42  1  0  0  0  0
  5  6  1  0  0  0  0
  5  7  1  0  0  0  0
  5  8  1  0  0  0  0
  6 43  1  0  0  0  0
  6 44  1  0  0  0  0
  6 45  1  0  0  0  0
  7 46  1  0  0  0  0
  7 47  1  0  0  0  0
  7 48  1  0  0  0  0
  8  9  1  0  0  0  0
  9 10  1  0  0  0  0
  9 49  1  0  0  0  0
  9 50  1  0  0  0  0
 10 32  1  0  0  0  0
 10 11  1  0  0  0  0
 10 51  1  0  0  0  0
 11 12  1  0  0  0  0
 12 13  1  0  0  0  0
 12 31  1  0  0  0  0
 12 52  1  0  0  0  0
 13 30  1  0  0  0  0
 13 14  1  0  0  0  0
 14 15  2  0  0  0  0
 14 53  1  0  0  0  0
 15 16  1  0  0  0  0
 16 30  2  0  0  0  0
 16 17  1  0  0  0  0
 17 18  2  0  0  0  0
 17 27  1  0  0  0  0
 18 19  1  0  0  0  0
 19 20  2  0  0  0  0
 19 21  1  0  0  0  0
 21 26  1  0  0  0  0
 21 22  2  0  0  0  0
 22 23  1  0  0  0  0
 22 54  1  0  0  0  0
 23 24  2  0  0  0  0
 23 55  1  0  0  0  0
 24 25  1  0  0  0  0
 24 56  1  0  0  0  0
 25 26  2  0  0  0  0
 25 57  1  0  0  0  0
 26 58  1  0  0  0  0
 27 28  1  0  0  0  0
 27 64  1  0  0  0  0
 28 29  2  0  0  0  0
 28 59  1  0  0  0  0
 29 30  1  0  0  0  0
 31 32  1  0  0  0  0
 31 60  1  0  0  0  0
 31 61  1  0  0  0  0
 32 33  1  0  0  0  0
 32 62  1  0  0  0  0
 33 63  1  0  0  0  0
M  END
> <s_m_source_file>
AV-unprocessed.smi

> <i_m_source_file_index>
36

> <i_lp_mmshare_version>
43012

> <i_f3d_flags>
0

> <s_epik_input>
W0NIM11DKFtDSDNdKShbQ0gzXSlbU2ldKFtDSDNdKShbQ0gzXSlPW0NIMl1bQ0BASF0xT1tDQEhdKFtDSDJdW0NASF0xW09IXSluKFtjSF1uMiljKGMyMyluW2NIXW5jM1tOSF1DKD1PKWM0W2NIXVtjSF1bY0hdW2NIXVtjSF00

> <s_epik_cmdline>
J2VwaWtfcHl0aG9uJywgJy1waCcsICc3LjAnLCAnLXRuJywgJzgnLCAnLW1hJywgJzIwMCcsICctbWV0YWxfYmluZGluZycsICctaW1hZScsICc8aW5maWxlLm1hZT4nLCAnLW9tYWUnLCAnPG91dGZpbGUubWFlPic=

> <r_epik_Ionization_Penalty>
0.0850405

> <r_epik_Ionization_Penalty_Charging>
0.0850403

> <r_epik_Ionization_Penalty_Neutral>
1.47497e-07

> <r_epik_State_Penalty>
2.6133

> <r_epik_Charging_Adjusted_Penalty>
2.69834

> <i_epik_Tot_Q>
0

> <i_epik_Tot_abs_Q>
0

> <r_epik_Metal_State_Penalty>
2.92945

> <b_epik_Metal_Only>
0

> <s_epik_Chemistry_Notes>
This compound contains an acetal/aminal-like group ( X-CH(R)-Y where X, Y are N, S, or O) that may be acid/base labile, releasing an aldehyde.

> <s_lp_Force_Field>
OPLS_2005

> <r_lp_Energy>
45.4031

> <b_lp_Chiralities_Consistent>
1

> <s_lp_Variant>
AV-unprocessed.smi:36-14

> <Gold.Version>
5.8.1

> <Gold.Id.Protein>
6NUR|6NUR_protein|mol2

> <Gold.PLP.Fitness>
43.5257

> <Gold.PLP.PLP>
-42.5898

> <Gold.PLP.part.hbond>
-2.2171

> <Gold.PLP.part.metal>
0.0000

> <Gold.PLP.part.buried>
-6.2378

> <Gold.PLP.part.nonpolar>
-34.7097

> <Gold.PLP.part.repulsive>
0.0609

> <Gold.PLP.ligand.clash>
0.0000

> <Gold.PLP.ligand.torsion>
1.9611

> <Gold.PLP.Chemscore.Hbond>
1.5440

> <Gold.PLP.Chemscore.CHOScore>
0.0000

> <Gold.PLP.Chemscore.Metal>
0.0000

> <Gold.Chemscore.Hbonds>
donor molecule, donor type, donor heavy atom, donor atom, acceptor molecule, acceptor atom, score
      P1  H  6931  6943       L1    15  0.53
      P1  H  7997  8010       L1    20  1.00

> <Gold.PLP.Chemscore.Internal.Correction>
0.2261

> <Gold.Rescore>
     Score         DG    S(hbond)    S(metal)    S(lipo)     H(rot)  DE(clash)    DE(int)     intcor
     14.79     -16.68       1.54        0.00     111.06       2.70       0.10       1.80       ----

> <Gold.Chemscore.Fitness>
14.7886

> <Gold.Chemscore.DG>
-16.6822

> <Gold.Chemscore.ZeroCoef>
-5.4800

> <Gold.Chemscore.Hbond>
1.5362

> <Gold.Chemscore.Metal>
0.0000

> <Gold.Chemscore.Lipo>
111.0584

> <Gold.Chemscore.Internal_Hbond>
0.0000

> <Gold.Chemscore.DEClash>
0.0982

> <Gold.Chemscore.DEInternal>
1.7955

> <Gold.Chemscore.Rot>
2.7041

> <Gold.Chemscore.Internal.Correction>
   9.000000E+99

> <Gold.Chemscore.Hbonds>
donor molecule, donor type, donor heavy atom, donor atom, acceptor molecule, acceptor atom, score
      P1  H  6931  6943       L1    15  0.41
      P1  H  7997  8010       L1    20  1.00

> <Gold.Chemscore.Hbond.Weighted>
-5.1309

> <Gold.Chemscore.Metal.Weighted>
-0.0000

> <Gold.Chemscore.Lipo.Weighted>
-12.9938

> <Gold.Chemscore.Internal_Hbond.Weighted>
0.0000

> <Gold.Chemscore.DEClash.Weighted>
0.0982

> <Gold.Chemscore.DEInternal.Weighted>
1.7955

> <Gold.Chemscore.Rot.Weighted>
6.9225

> <Gold.Chemscore.Internal.Correction.Weighted>
   9.000000E+99

> <Gold.Protein.RotatedTorsions>
[ 6907 6896 6895 6894 ] final  175.33 input  -60.11 | X-H torsion
[ 7974 7965 7964 7962 ] final -166.08 input  175.53 | X-H torsion
[ 8008 7997 7996 7995 ] final   58.82 input   59.86 | X-H torsion
[ 10167 10162 10161 10158 ] final -158.55 input  -65.29 | X-H torsion
[ 10718 10713 10712 10709 ] final  159.07 input   66.30 | X-H torsion
[ 10763 10752 10751 10750 ] final -153.73 input  -60.55 | X-H torsion
[ 11005 11000 10999 10996 ] final   64.08 input  -57.11 | X-H torsion

> <Gold.Protein.ActiveResidues>
 VAL166  LYS551  ARG553  GLY616  TRP617  ASP618  TYR619  PRO620  LYS621  CYS622 
 ASP623  PHE694  ASN695  SER759  ASP760  ASP761  ALA762  ILE779  LEU786  VAL792 
 PHE793  MET794  SER795  GLU796  ALA797  LYS798  CYS799  TRP800  GLU811  SER814 

> <Gold.Protein.RotatedAtoms>
  151.7379  133.3320  159.3357 H   0  0  0  0  0  0  0  0  0  0  0  0  # atno 6907 bound_to 6896
  150.7585  134.6304  159.6193 H   0  0  0  0  0  0  0  0  0  0  0  0  # atno 6908 bound_to 6896
  152.3549  134.6955  160.0276 H   0  0  0  0  0  0  0  0  0  0  0  0  # atno 6909 bound_to 6896
  144.7254  140.2719  143.6249 H   0  0  0  0  0  0  0  0  0  0  0  0  # atno 7974 bound_to 7965
  155.5561  140.3487  155.4480 H   0  0  0  0  0  0  0  0  0  0  0  0  # atno 8008 bound_to 7997
  156.0548  140.1326  157.0035 H   0  0  0  0  0  0  0  0  0  0  0  0  # atno 8009 bound_to 7997
  154.4451  140.0997  156.6414 H   0  0  0  0  0  0  0  0  0  0  0  0  # atno 8010 bound_to 7997
  139.6684  143.9789  152.2268 H   0  0  0  0  0  0  0  0  0  0  0  0  # atno 10167 bound_to 10162
  157.1692  131.0606  151.2191 H   0  0  0  0  0  0  0  0  0  0  0  0  # atno 10718 bound_to 10713
  154.7907  135.3206  154.7783 H   0  0  0  0  0  0  0  0  0  0  0  0  # atno 10763 bound_to 10752
  153.8472  135.6865  153.4800 H   0  0  0  0  0  0  0  0  0  0  0  0  # atno 10764 bound_to 10752
  153.1576  135.4673  154.9667 H   0  0  0  0  0  0  0  0  0  0  0  0  # atno 10765 bound_to 10752
  139.9982  134.6483  155.9974 H   0  0  0  0  0  0  0  0  0  0  0  0  # atno 11005 bound_to 11000
  145.8034  139.1973  143.2034 LP  0  0  0  0  0  0  0  0  0  0  0  0  # atno 17320 bound_to 7965
  146.0657  140.7923  142.9713 LP  0  0  0  0  0  0  0  0  0  0  0  0  # atno 17321 bound_to 7965
  139.9547  144.6597  150.8138 LP  0  0  0  0  0  0  0  0  0  0  0  0  # atno 17342 bound_to 10162
  140.7608  143.3160  151.2732 LP  0  0  0  0  0  0  0  0  0  0  0  0  # atno 17343 bound_to 10162
  157.4059  130.7358  149.6802 LP  0  0  0  0  0  0  0  0  0  0  0  0  # atno 17370 bound_to 10713
  155.9741  130.4108  150.3950 LP  0  0  0  0  0  0  0  0  0  0  0  0  # atno 17371 bound_to 10713
  141.1621  133.6538  156.4355 LP  0  0  0  0  0  0  0  0  0  0  0  0  # atno 17394 bound_to 11000
  140.4777  134.6694  157.5157 LP  0  0  0  0  0  0  0  0  0  0  0  0  # atno 17395 bound_to 11000

$$$$
