AV-unprocessed.smi:751|AV-procd|sdf|3594|dock10
  -GOLD-   22720 0583D 1   1.00000     0.00000
 Structure written by MMmdl.
 32 33  0  0  0  0  0  0  0  0  1 V2000
  154.4815  138.2908  160.3961 N   0  0  0  0  0  0  0  0  0  0  0  0
  154.0329  139.3471  160.2493 C   0  0  0  0  0  0  0  0  0  0  0  0
  153.4677  140.6775  160.0645 C   0  0  0  0  0  0  0  0  0  0  0  0
  153.5940  141.6147  161.1103 C   0  0  0  0  0  0  0  0  0  0  0  0
  153.0539  142.9008  160.9485 C   0  0  0  0  0  0  0  0  0  0  0  0
  152.4033  143.1975  159.7358 C   0  0  0  0  0  0  0  0  0  0  0  0
  151.7892  144.5648  159.4705 C   0  0  0  0  0  0  0  0  0  0  0  0
  151.9443  145.3862  160.5096 F   0  0  0  0  0  0  0  0  0  0  0  0
  152.3697  145.1178  158.4051 F   0  0  0  0  0  0  0  0  0  0  0  0
  150.4848  144.4323  159.2286 F   0  0  0  0  0  0  0  0  0  0  0  0
  152.2848  142.2955  158.7372 N   0  0  0  0  0  0  0  0  0  0  0  0
  152.7985  141.0436  158.8642 C   0  0  0  0  0  0  0  0  0  0  0  0
  152.6422  140.1279  157.7806 N   0  0  0  0  0  0  0  0  0  0  0  0
  151.7417  139.0111  158.0485 C   0  0  0  0  0  0  0  0  0  0  0  0
  151.2681  139.1686  156.6055 C   0  0  0  0  0  0  0  0  0  0  0  0
  149.8565  139.0998  156.4975 O   0  0  0  0  0  0  0  0  0  0  0  0
  149.3629  139.7285  155.3248 C   0  0  0  0  0  0  0  0  0  0  0  0
  149.8539  138.9577  154.1001 C   0  0  0  0  0  0  0  0  0  0  0  0
  148.9273  138.3803  153.3304 N   0  0  0  0  0  0  0  0  0  0  0  0
  151.0540  138.8967  153.8423 O   0  0  0  0  0  0  0  0  0  0  0  0
  151.8182  140.5940  156.6687 C   0  0  0  0  0  0  0  0  0  0  0  0
  154.0992  141.3550  162.0298 H   0  0  0  0  0  0  0  0  0  0  0  0
  153.1410  143.6321  161.7384 H   0  0  0  0  0  0  0  0  0  0  0  0
  152.2568  138.0719  158.2503 H   0  0  0  0  0  0  0  0  0  0  0  0
  150.9638  139.2237  158.7835 H   0  0  0  0  0  0  0  0  0  0  0  0
  151.8050  138.5176  155.9117 H   0  0  0  0  0  0  0  0  0  0  0  0
  148.2720  139.7411  155.3198 H   0  0  0  0  0  0  0  0  0  0  0  0
  149.7105  140.7617  155.2768 H   0  0  0  0  0  0  0  0  0  0  0  0
  149.2084  137.8665  152.5074 H   0  0  0  0  0  0  0  0  0  0  0  0
  147.9503  138.4649  153.5703 H   0  0  0  0  0  0  0  0  0  0  0  0
  151.0617  141.3341  156.9333 H   0  0  0  0  0  0  0  0  0  0  0  0
  152.3941  140.8880  155.7909 H   0  0  0  0  0  0  0  0  0  0  0  0
  1  2  3  0  0  0  0
  2  3  1  0  0  0  0
  3 12  1  0  0  0  0
  3  4  2  0  0  0  0
  4  5  1  0  0  0  0
  4 22  1  0  0  0  0
  5  6  2  0  0  0  0
  5 23  1  0  0  0  0
  6  7  1  0  0  0  0
  6 11  1  0  0  0  0
  7  8  1  0  0  0  0
  7  9  1  0  0  0  0
  7 10  1  0  0  0  0
 11 12  2  0  0  0  0
 12 13  1  0  0  0  0
 13 21  1  0  0  0  0
 13 14  1  0  0  0  0
 14 15  1  0  0  0  0
 14 24  1  0  0  0  0
 14 25  1  0  0  0  0
 15 16  1  0  0  0  0
 15 21  1  0  0  0  0
 15 26  1  0  0  0  0
 16 17  1  0  0  0  0
 17 18  1  0  0  0  0
 17 27  1  0  0  0  0
 17 28  1  0  0  0  0
 18 19  1  0  0  0  0
 18 20  2  0  0  0  0
 19 29  1  0  0  0  0
 19 30  1  0  0  0  0
 21 31  1  0  0  0  0
 21 32  1  0  0  0  0
M  END
> <s_m_source_file>
AV-unprocessed.smi

> <i_m_source_file_index>
751

> <i_lp_mmshare_version>
43012

> <i_f3d_flags>
0

> <s_epik_input>
TiNDYzFbY0hdW2NIXWMoQyhGKShGKUYpbmMxTjJbQ0gyXVtDSF0oW0NIMl0yKU9bQ0gyXUMoPU8pW05IMl0=

> <s_epik_cmdline>
J2VwaWtfcHl0aG9uJywgJy1waCcsICc3LjAnLCAnLXRuJywgJzgnLCAnLW1hJywgJzIwMCcsICctbWV0YWxfYmluZGluZycsICctaW1hZScsICc8aW5maWxlLm1hZT4nLCAnLW9tYWUnLCAnPG91dGZpbGUubWFlPic=

> <r_lp_tautomer_probability>
1

> <r_epik_Ionization_Penalty>
6.47511e-08

> <r_epik_Ionization_Penalty_Charging>
0

> <r_epik_Ionization_Penalty_Neutral>
6.47511e-08

> <r_epik_State_Penalty>
-0

> <r_epik_Charging_Adjusted_Penalty>
0

> <i_epik_Tot_Q>
0

> <i_epik_Tot_abs_Q>
0

> <r_epik_Metal_State_Penalty>
-0

> <b_epik_Metal_Only>
0

> <s_lp_Force_Field>
OPLS_2005

> <r_lp_Energy>
25.0077

> <b_lp_Chiralities_Consistent>
1

> <s_lp_Variant>
AV-unprocessed.smi:751-1

> <Gold.Version>
5.8.1

> <Gold.Id.Protein>
6NUR|6NUR_protein|mol2

> <Gold.PLP.Fitness>
49.9326

> <Gold.PLP.PLP>
-41.9143

> <Gold.PLP.part.hbond>
-4.0000

> <Gold.PLP.part.metal>
0.0000

> <Gold.PLP.part.buried>
-2.6887

> <Gold.PLP.part.nonpolar>
-34.4525

> <Gold.PLP.part.repulsive>
0.3044

> <Gold.PLP.ligand.clash>
0.0000

> <Gold.PLP.ligand.torsion>
0.2477

> <Gold.PLP.Chemscore.Hbond>
2.7195

> <Gold.PLP.Chemscore.CHOScore>
0.0000

> <Gold.PLP.Chemscore.Metal>
0.0000

> <Gold.Chemscore.Hbonds>
donor molecule, donor type, donor heavy atom, donor atom, acceptor molecule, acceptor atom, score
      L1  H    19    29       P1  7948  0.77
      P1  H  7989  7998       L1    20  0.89
      P1  H  7997  8008       L1    13  0.93

> <Gold.PLP.Chemscore.Internal.Correction>
0.3552

> <Gold.Rescore>
     Score         DG    S(hbond)    S(metal)    S(lipo)     H(rot)  DE(clash)    DE(int)     intcor
     10.68     -14.43       1.95        0.00      77.49       2.59       1.73       2.02       ----

> <Gold.Chemscore.Fitness>
10.6752

> <Gold.Chemscore.DG>
-14.4268

> <Gold.Chemscore.ZeroCoef>
-5.4800

> <Gold.Chemscore.Hbond>
1.9486

> <Gold.Chemscore.Metal>
0.0000

> <Gold.Chemscore.Lipo>
77.4855

> <Gold.Chemscore.Internal_Hbond>
0.0000

> <Gold.Chemscore.DEClash>
1.7343

> <Gold.Chemscore.DEInternal>
2.0172

> <Gold.Chemscore.Rot>
2.5888

> <Gold.Chemscore.Internal.Correction>
   9.000000E+99

> <Gold.Chemscore.Hbonds>
donor molecule, donor type, donor heavy atom, donor atom, acceptor molecule, acceptor atom, score
      L1  H    19    29       P1  7948  0.70
      P1  H  7989  7998       L1    20  0.45
      P1  H  7997  8008       L1    13  0.10

> <Gold.Chemscore.Hbond.Weighted>
-6.5082

> <Gold.Chemscore.Metal.Weighted>
-0.0000

> <Gold.Chemscore.Lipo.Weighted>
-9.0658

> <Gold.Chemscore.Internal_Hbond.Weighted>
0.0000

> <Gold.Chemscore.DEClash.Weighted>
1.7343

> <Gold.Chemscore.DEInternal.Weighted>
2.0172

> <Gold.Chemscore.Rot.Weighted>
6.6272

> <Gold.Chemscore.Internal.Correction.Weighted>
   9.000000E+99

> <Gold.Protein.RotatedTorsions>
[ 6907 6896 6895 6894 ] final  -36.39 input  -60.11 | X-H torsion
[ 7974 7965 7964 7962 ] final  116.62 input  175.53 | X-H torsion
[ 8008 7997 7996 7995 ] final  -71.48 input   59.86 | X-H torsion
[ 10167 10162 10161 10158 ] final   27.24 input  -65.29 | X-H torsion
[ 10718 10713 10712 10709 ] final  -32.15 input   66.30 | X-H torsion
[ 10763 10752 10751 10750 ] final  -90.54 input  -60.55 | X-H torsion
[ 11005 11000 10999 10996 ] final -115.77 input  -57.11 | X-H torsion

> <Gold.Protein.ActiveResidues>
 VAL166  LYS551  ARG553  GLY616  TRP617  ASP618  TYR619  PRO620  LYS621  CYS622 
 ASP623  PHE694  ASN695  SER759  ASP760  ASP761  ALA762  ILE779  LEU786  VAL792 
 PHE793  MET794  SER795  GLU796  ALA797  LYS798  CYS799  TRP800  GLU811  SER814 

> <Gold.Protein.RotatedAtoms>
  151.0277  134.9516  159.8093 H   0  0  0  0  0  0  0  0  0  0  0  0  # atno 6907 bound_to 6896
  152.5339  134.2821  159.9021 H   0  0  0  0  0  0  0  0  0  0  0  0  # atno 6908 bound_to 6896
  151.2829  133.4159  159.2662 H   0  0  0  0  0  0  0  0  0  0  0  0  # atno 6909 bound_to 6896
  145.1774  139.3068  143.4436 H   0  0  0  0  0  0  0  0  0  0  0  0  # atno 7974 bound_to 7965
  154.5091  140.0815  156.7954 H   0  0  0  0  0  0  0  0  0  0  0  0  # atno 8008 bound_to 7997
  155.3825  140.3428  155.4229 H   0  0  0  0  0  0  0  0  0  0  0  0  # atno 8009 bound_to 7997
  156.1552  140.1571  156.8692 H   0  0  0  0  0  0  0  0  0  0  0  0  # atno 8010 bound_to 7997
  140.4955  144.0398  150.6313 H   0  0  0  0  0  0  0  0  0  0  0  0  # atno 10167 bound_to 10162
  156.3784  130.4351  149.7489 H   0  0  0  0  0  0  0  0  0  0  0  0  # atno 10718 bound_to 10713
  154.6668  135.5301  153.8087 H   0  0  0  0  0  0  0  0  0  0  0  0  # atno 10763 bound_to 10752
  153.0476  135.6519  154.0786 H   0  0  0  0  0  0  0  0  0  0  0  0  # atno 10764 bound_to 10752
  154.0690  135.2956  155.3291 H   0  0  0  0  0  0  0  0  0  0  0  0  # atno 10765 bound_to 10752
  141.0466  133.9753  157.2907 H   0  0  0  0  0  0  0  0  0  0  0  0  # atno 11005 bound_to 11000
  146.3459  140.1941  142.8589 LP  0  0  0  0  0  0  0  0  0  0  0  0  # atno 17320 bound_to 7965
  145.0171  140.8762  143.5189 LP  0  0  0  0  0  0  0  0  0  0  0  0  # atno 17321 bound_to 7965
  140.3680  143.2871  152.0310 LP  0  0  0  0  0  0  0  0  0  0  0  0  # atno 17342 bound_to 10162
  139.4860  144.6252  151.7178 LP  0  0  0  0  0  0  0  0  0  0  0  0  # atno 17343 bound_to 10162
  156.4589  130.7942  151.2963 LP  0  0  0  0  0  0  0  0  0  0  0  0  # atno 17370 bound_to 10713
  157.7490  131.0072  150.3181 LP  0  0  0  0  0  0  0  0  0  0  0  0  # atno 17371 bound_to 10713
  139.9317  135.0199  156.8421 LP  0  0  0  0  0  0  0  0  0  0  0  0  # atno 17394 bound_to 11000
  140.6135  134.0060  155.7587 LP  0  0  0  0  0  0  0  0  0  0  0  0  # atno 17395 bound_to 11000

$$$$
