AV-unprocessed.smi:120|AV-procd|sdf|1137|dock7
  -GOLD-   2262018263D 1   1.00000     0.00000
 Structure written by MMmdl.
 45 48  0  0  0  0  0  0  0  0  1 V2000
  151.5226  144.8914  158.7573 C   0  0  0  0  0  0  0  0  0  0  0  0
  151.9458  144.4718  160.0467 O   0  0  0  0  0  0  0  0  0  0  0  0
  152.4795  143.2073  160.1768 C   0  0  0  0  0  0  0  0  0  0  0  0
  153.0289  142.8707  161.4288 C   0  0  0  0  0  0  0  0  0  0  0  0
  153.5875  141.5989  161.6448 C   0  0  0  0  0  0  0  0  0  0  0  0
  153.6018  140.6504  160.6063 C   0  0  0  0  0  0  0  0  0  0  0  0
  153.0623  140.9564  159.3358 C   0  0  0  0  0  0  0  0  0  0  0  0
  153.0776  139.9619  158.2409 C   0  0  0  0  0  0  0  0  0  0  0  0
  153.6675  138.7807  158.3752 N   0  0  0  0  0  0  0  0  0  0  0  0
  153.4313  138.1720  157.1332 O   0  0  0  0  0  0  0  0  0  0  0  0
  152.7257  139.0717  156.4022 C   0  0  0  0  0  0  0  0  0  0  0  0
  152.3183  138.7004  155.0077 C   0  0  0  0  0  0  0  0  0  0  0  0
  150.9699  138.1550  154.9826 N   0  0  0  0  0  0  0  0  0  0  0  0
  149.9354  138.9931  154.4995 C   0  0  0  0  0  0  0  0  0  0  0  0
  150.1475  140.1530  154.1419 O   0  0  0  0  0  0  0  0  0  0  0  0
  148.6204  138.3635  154.4469 C   0  0  0  0  0  0  0  0  0  0  0  0
  147.5651  139.0657  154.0010 F   0  0  0  0  0  0  0  0  0  0  0  0
  148.4453  137.0807  154.8311 C   0  0  0  0  0  0  0  0  0  0  0  0
  149.4778  136.2836  155.2968 N   0  0  0  0  0  0  0  0  0  0  0  0
  149.2442  134.8418  155.6914 C   0  0  2  0  0  0  0  0  0  0  0  0
  150.2202  133.9245  154.9452 C   0  0  0  0  0  0  0  0  0  0  0  0
  149.3986  133.5070  153.7455 C   0  0  0  0  0  0  0  0  0  0  0  0
  147.9995  133.4297  154.3452 C   0  0  0  0  0  0  0  0  0  0  0  0
  147.9482  134.4689  155.3194 O   0  0  0  0  0  0  0  0  0  0  0  0
  150.7873  136.8063  155.3713 C   0  0  0  0  0  0  0  0  0  0  0  0
  151.7278  136.1005  155.7430 O   0  0  0  0  0  0  0  0  0  0  0  0
  152.4803  140.2133  157.0449 N   0  0  0  0  0  0  0  0  0  0  0  0
  152.5049  142.2426  159.1383 C   0  0  0  0  0  0  0  0  0  0  0  0
  151.1127  145.8990  158.8235 H   0  0  0  0  0  0  0  0  0  0  0  0
  150.7388  144.2423  158.3642 H   0  0  0  0  0  0  0  0  0  0  0  0
  152.3553  144.9200  158.0532 H   0  0  0  0  0  0  0  0  0  0  0  0
  153.0202  143.5935  162.2314 H   0  0  0  0  0  0  0  0  0  0  0  0
  154.0062  141.3501  162.6088 H   0  0  0  0  0  0  0  0  0  0  0  0
  154.0390  139.6808  160.7947 H   0  0  0  0  0  0  0  0  0  0  0  0
  152.3701  139.5659  154.3464 H   0  0  0  0  0  0  0  0  0  0  0  0
  152.9928  137.9535  154.5853 H   0  0  0  0  0  0  0  0  0  0  0  0
  147.4496  136.6690  154.7591 H   0  0  0  0  0  0  0  0  0  0  0  0
  149.3402  134.8038  156.7777 H   0  0  0  0  0  0  0  0  0  0  0  0
  151.1555  134.4257  154.6925 H   0  0  0  0  0  0  0  0  0  0  0  0
  150.4400  133.0626  155.5765 H   0  0  0  0  0  0  0  0  0  0  0  0
  149.4387  134.2770  152.9739 H   0  0  0  0  0  0  0  0  0  0  0  0
  149.7274  132.5646  153.3069 H   0  0  0  0  0  0  0  0  0  0  0  0
  147.2143  133.5420  153.5972 H   0  0  0  0  0  0  0  0  0  0  0  0
  147.8559  132.4724  154.8482 H   0  0  0  0  0  0  0  0  0  0  0  0
  152.0885  142.4759  158.1704 H   0  0  0  0  0  0  0  0  0  0  0  0
  1  2  1  0  0  0  0
  1 29  1  0  0  0  0
  1 30  1  0  0  0  0
  1 31  1  0  0  0  0
  2  3  1  0  0  0  0
  3 28  1  0  0  0  0
  3  4  2  0  0  0  0
  4  5  1  0  0  0  0
  4 32  1  0  0  0  0
  5  6  2  0  0  0  0
  5 33  1  0  0  0  0
  6  7  1  0  0  0  0
  6 34  1  0  0  0  0
  7  8  1  0  0  0  0
  7 28  2  0  0  0  0
  8 27  1  0  0  0  0
  8  9  2  0  0  0  0
  9 10  1  0  0  0  0
 10 11  1  0  0  0  0
 11 12  1  0  0  0  0
 11 27  2  0  0  0  0
 12 13  1  0  0  0  0
 12 35  1  0  0  0  0
 12 36  1  0  0  0  0
 13 25  1  0  0  0  0
 13 14  1  0  0  0  0
 14 15  2  0  0  0  0
 14 16  1  0  0  0  0
 16 17  1  0  0  0  0
 16 18  2  0  0  0  0
 18 19  1  0  0  0  0
 18 37  1  0  0  0  0
 19 20  1  0  0  0  0
 19 25  1  0  0  0  0
 20 24  1  0  0  0  0
 20 21  1  0  0  0  0
 20 38  1  0  0  0  0
 21 22  1  0  0  0  0
 21 39  1  0  0  0  0
 21 40  1  0  0  0  0
 22 23  1  0  0  0  0
 22 41  1  0  0  0  0
 22 42  1  0  0  0  0
 23 24  1  0  0  0  0
 23 43  1  0  0  0  0
 23 44  1  0  0  0  0
 25 26  2  0  0  0  0
 28 45  1  0  0  0  0
M  END
> <s_m_source_file>
AV-unprocessed.smi

> <i_m_source_file_index>
120

> <i_lp_mmshare_version>
43012

> <i_f3d_flags>
0

> <s_epik_input>
W0NIM11PYzFbY0hdW2NIXVtjSF1jKFtjSF0xKS1jMm5vYyhuMilbQ0gyXW4zYyg9TyljKEYpW2NIXW4oYzM9TylbQ0BASF00W0NIMl1bQ0gyXVtDSDJdTzQ=

> <s_epik_cmdline>
J2VwaWtfcHl0aG9uJywgJy1waCcsICc3LjAnLCAnLXRuJywgJzgnLCAnLW1hJywgJzIwMCcsICctbWV0YWxfYmluZGluZycsICctaW1hZScsICc8aW5maWxlLm1hZT4nLCAnLW9tYWUnLCAnPG91dGZpbGUubWFlPic=

> <r_lp_tautomer_probability>
1

> <r_epik_Ionization_Penalty>
4.93314e-09

> <r_epik_Ionization_Penalty_Charging>
4.92654e-09

> <r_epik_Ionization_Penalty_Neutral>
6.60436e-12

> <r_epik_State_Penalty>
-0

> <r_epik_Charging_Adjusted_Penalty>
4.92654e-09

> <i_epik_Tot_Q>
0

> <i_epik_Tot_abs_Q>
0

> <r_epik_Metal_State_Penalty>
-0

> <b_epik_Metal_Only>
0

> <s_epik_Chemistry_Notes>
This compound contains an acetal/aminal-like group ( X-CH(R)-Y where X, Y are N, S, or O) that may be acid/base labile, releasing an aldehyde.

> <s_lp_Force_Field>
OPLS_2005

> <r_lp_Energy>
37.1389

> <b_lp_Chiralities_Consistent>
1

> <s_lp_Variant>
AV-unprocessed.smi:120-1

> <Gold.Version>
5.8.1

> <Gold.Id.Protein>
6NUR|6NUR_protein|mol2

> <Gold.PLP.Fitness>
52.6718

> <Gold.PLP.PLP>
-48.5203

> <Gold.PLP.part.hbond>
-4.5480

> <Gold.PLP.part.metal>
0.0000

> <Gold.PLP.part.buried>
-1.4089

> <Gold.PLP.part.nonpolar>
-42.1964

> <Gold.PLP.part.repulsive>
1.0578

> <Gold.PLP.ligand.clash>
0.0000

> <Gold.PLP.ligand.torsion>
0.7801

> <Gold.PLP.Chemscore.Hbond>
1.8880

> <Gold.PLP.Chemscore.CHOScore>
0.0000

> <Gold.PLP.Chemscore.Metal>
0.0000

> <Gold.Chemscore.Hbonds>
donor molecule, donor type, donor heavy atom, donor atom, acceptor molecule, acceptor atom, score
      P1  H  7989  7998       L1    15  0.96
      P1  H 10752 10763       L1    26  0.91

> <Gold.PLP.Chemscore.Internal.Correction>
0.0478

> <Gold.Rescore>
     Score         DG    S(hbond)    S(metal)    S(lipo)     H(rot)  DE(clash)    DE(int)     intcor
     16.51     -19.10       1.87        0.00     106.59       1.99       0.19       2.39       ----

> <Gold.Chemscore.Fitness>
16.5112

> <Gold.Chemscore.DG>
-19.0979

> <Gold.Chemscore.ZeroCoef>
-5.4800

> <Gold.Chemscore.Hbond>
1.8669

> <Gold.Chemscore.Metal>
0.0000

> <Gold.Chemscore.Lipo>
106.5921

> <Gold.Chemscore.Internal_Hbond>
0.0000

> <Gold.Chemscore.DEClash>
0.1939

> <Gold.Chemscore.DEInternal>
2.3928

> <Gold.Chemscore.Rot>
1.9879

> <Gold.Chemscore.Internal.Correction>
   9.000000E+99

> <Gold.Chemscore.Hbonds>
donor molecule, donor type, donor heavy atom, donor atom, acceptor molecule, acceptor atom, score
      P1  H  7989  7998       L1    15  0.92
      P1  H 10752 10763       L1    26  0.86

> <Gold.Chemscore.Hbond.Weighted>
-6.2356

> <Gold.Chemscore.Metal.Weighted>
-0.0000

> <Gold.Chemscore.Lipo.Weighted>
-12.4713

> <Gold.Chemscore.Internal_Hbond.Weighted>
0.0000

> <Gold.Chemscore.DEClash.Weighted>
0.1939

> <Gold.Chemscore.DEInternal.Weighted>
2.3928

> <Gold.Chemscore.Rot.Weighted>
5.0890

> <Gold.Chemscore.Internal.Correction.Weighted>
   9.000000E+99

> <Gold.Protein.RotatedTorsions>
[ 6907 6896 6895 6894 ] final   71.47 input  -60.11 | X-H torsion
[ 7974 7965 7964 7962 ] final  -62.49 input  175.53 | X-H torsion
[ 8008 7997 7996 7995 ] final  -42.14 input   59.86 | X-H torsion
[ 10167 10162 10161 10158 ] final -141.05 input  -65.29 | X-H torsion
[ 10718 10713 10712 10709 ] final  -33.17 input   66.30 | X-H torsion
[ 10763 10752 10751 10750 ] final   54.37 input  -60.55 | X-H torsion
[ 11005 11000 10999 10996 ] final   45.56 input  -57.11 | X-H torsion

> <Gold.Protein.ActiveResidues>
 VAL166  LYS551  ARG553  GLY616  TRP617  ASP618  TYR619  PRO620  LYS621  CYS622 
 ASP623  PHE694  ASN695  SER759  ASP760  ASP761  ALA762  ILE779  LEU786  VAL792 
 PHE793  MET794  SER795  GLU796  ALA797  LYS798  CYS799  TRP800  GLU811  SER814 

> <Gold.Protein.RotatedAtoms>
  152.4811  134.4716  159.9636 H   0  0  0  0  0  0  0  0  0  0  0  0  # atno 6907 bound_to 6896
  151.4721  133.3560  159.2833 H   0  0  0  0  0  0  0  0  0  0  0  0  # atno 6908 bound_to 6896
  150.8885  134.8312  159.7337 H   0  0  0  0  0  0  0  0  0  0  0  0  # atno 6909 bound_to 6896
  145.7907  140.8711  143.0282 H   0  0  0  0  0  0  0  0  0  0  0  0  # atno 7974 bound_to 7965
  154.4000  140.1481  156.3306 H   0  0  0  0  0  0  0  0  0  0  0  0  # atno 8008 bound_to 7997
  155.8446  140.3460  155.5633 H   0  0  0  0  0  0  0  0  0  0  0  0  # atno 8009 bound_to 7997
  155.8050  140.0875  157.1926 H   0  0  0  0  0  0  0  0  0  0  0  0  # atno 8010 bound_to 7997
  139.8222  143.7559  152.2666 H   0  0  0  0  0  0  0  0  0  0  0  0  # atno 10167 bound_to 10162
  156.3659  130.4331  149.7585 H   0  0  0  0  0  0  0  0  0  0  0  0  # atno 10718 bound_to 10713
  152.9804  135.5747  154.4893 H   0  0  0  0  0  0  0  0  0  0  0  0  # atno 10763 bound_to 10752
  154.4430  135.2776  155.1836 H   0  0  0  0  0  0  0  0  0  0  0  0  # atno 10764 bound_to 10752
  154.3496  135.6212  153.5690 H   0  0  0  0  0  0  0  0  0  0  0  0  # atno 10765 bound_to 10752
  140.1449  134.4536  155.8423 H   0  0  0  0  0  0  0  0  0  0  0  0  # atno 11005 bound_to 11000
  144.6782  140.0119  143.7484 LP  0  0  0  0  0  0  0  0  0  0  0  0  # atno 17320 bound_to 7965
  145.9980  139.3068  143.0945 LP  0  0  0  0  0  0  0  0  0  0  0  0  # atno 17321 bound_to 7965
  139.7740  144.7467  151.0183 LP  0  0  0  0  0  0  0  0  0  0  0  0  # atno 17342 bound_to 10162
  140.7812  143.4614  151.0273 LP  0  0  0  0  0  0  0  0  0  0  0  0  # atno 17343 bound_to 10162
  156.4730  130.8006  151.3023 LP  0  0  0  0  0  0  0  0  0  0  0  0  # atno 17370 bound_to 10713
  157.7479  131.0030  150.3020 LP  0  0  0  0  0  0  0  0  0  0  0  0  # atno 17371 bound_to 10713
  141.2191  133.6848  156.7315 LP  0  0  0  0  0  0  0  0  0  0  0  0  # atno 17394 bound_to 11000
  140.2676  134.8417  157.3817 LP  0  0  0  0  0  0  0  0  0  0  0  0  # atno 17395 bound_to 11000

$$$$
