AV-unprocessed.smi:740|AV-procd|sdf|3553|dock1
  -GOLD-   22720 0553D 1   1.00000     0.00000
 Structure written by MMmdl.
 45 47  0  0  0  0  0  0  0  0  2 V2000
  152.1085  144.2736  161.1416 C   0  0  0  0  0  0  0  0  0  0  0  0
  151.9605  143.2919  159.9918 C   0  0  0  0  0  0  0  0  0  0  0  0
  151.1568  143.6606  158.8897 C   0  0  0  0  0  0  0  0  0  0  0  0
  151.0413  142.7421  157.8532 C   0  0  0  0  0  0  0  0  0  0  0  0
  150.3383  142.8079  156.6483 N   0  3  0  0  0  0  0  0  0  0  0  0
  150.5300  141.6566  155.9472 C   0  0  0  0  0  0  0  0  0  0  0  0
  151.3422  140.8548  156.6880 N   0  0  0  0  0  0  0  0  0  0  0  0
  151.8527  139.5098  156.3871 C   0  0  0  0  0  0  0  0  0  0  0  0
  152.2102  139.3287  154.8990 C   0  0  1  0  0  0  0  0  0  0  0  0
  153.5898  139.5880  154.7248 O   0  0  0  0  0  0  0  0  0  0  0  0
  151.9096  137.8960  154.4137 C   0  0  0  0  0  0  0  0  0  0  0  0
  150.6847  137.3562  155.0151 N   0  0  0  0  0  0  0  0  0  0  0  0
  149.4673  137.8899  154.8462 C   0  0  0  0  0  0  0  0  0  0  0  0
  149.1965  138.8894  154.1809 O   0  0  0  0  0  0  0  0  0  0  0  0
  148.4102  137.0857  155.5897 C   0  0  0  0  0  0  0  0  0  0  0  0
  149.2208  135.9552  156.2417 C   0  0  2  0  0  0  0  0  0  0  0  0
  149.1026  135.9127  157.7742 C   0  0  0  0  0  0  0  0  0  0  0  0
  150.6469  136.2624  155.7891 C   0  0  0  0  0  0  0  0  0  0  0  0
  151.6116  135.5691  156.1128 O   0  0  0  0  0  0  0  0  0  0  0  0
  151.6889  141.4916  157.8858 C   0  0  0  0  0  0  0  0  0  0  0  0
  152.4858  141.1136  158.9643 C   0  0  0  0  0  0  0  0  0  0  0  0
  152.6187  142.0353  160.0273 C   0  0  0  0  0  0  0  0  0  0  0  0
  153.4872  141.6521  161.2135 C   0  0  0  0  0  0  0  0  0  0  0  0
  151.5172  145.1745  160.9756 H   0  0  0  0  0  0  0  0  0  0  0  0
  153.1500  144.5745  161.2558 H   0  0  0  0  0  0  0  0  0  0  0  0
  151.7725  143.8235  162.0762 H   0  0  0  0  0  0  0  0  0  0  0  0
  150.6557  144.6169  158.8539 H   0  0  0  0  0  0  0  0  0  0  0  0
  150.1144  141.4220  154.9777 H   0  0  0  0  0  0  0  0  0  0  0  0
  152.7022  139.2877  157.0332 H   0  0  0  0  0  0  0  0  0  0  0  0
  151.0672  138.8062  156.6654 H   0  0  0  0  0  0  0  0  0  0  0  0
  151.6427  140.0531  154.3130 H   0  0  0  0  0  0  0  0  0  0  0  0
  153.8383  139.3226  153.8526 H   0  0  0  0  0  0  0  0  0  0  0  0
  151.8686  137.8591  153.3234 H   0  0  0  0  0  0  0  0  0  0  0  0
  152.7367  137.2386  154.6880 H   0  0  0  0  0  0  0  0  0  0  0  0
  147.9059  137.7164  156.3230 H   0  0  0  0  0  0  0  0  0  0  0  0
  147.6654  136.6998  154.8928 H   0  0  0  0  0  0  0  0  0  0  0  0
  148.9230  134.9932  155.8224 H   0  0  0  0  0  0  0  0  0  0  0  0
  149.6910  135.0957  158.1935 H   0  0  0  0  0  0  0  0  0  0  0  0
  148.0670  135.7602  158.0788 H   0  0  0  0  0  0  0  0  0  0  0  0
  149.4488  136.8415  158.2293 H   0  0  0  0  0  0  0  0  0  0  0  0
  152.9904  140.1595  158.9921 H   0  0  0  0  0  0  0  0  0  0  0  0
  153.9458  140.6729  161.0726 H   0  0  0  0  0  0  0  0  0  0  0  0
  152.8928  141.6133  162.1264 H   0  0  0  0  0  0  0  0  0  0  0  0
  154.2893  142.3772  161.3520 H   0  0  0  0  0  0  0  0  0  0  0  0
  149.7707  143.5809  156.3249 H   0  0  0  0  0  0  0  0  0  0  0  0
  1  2  1  0  0  0  0
  1 24  1  0  0  0  0
  1 25  1  0  0  0  0
  1 26  1  0  0  0  0
  2 22  1  0  0  0  0
  2  3  2  0  0  0  0
  3  4  1  0  0  0  0
  3 27  1  0  0  0  0
  4 20  2  0  0  0  0
  4  5  1  0  0  0  0
  5  6  2  0  0  0  0
  5 45  1  0  0  0  0
  6  7  1  0  0  0  0
  6 28  1  0  0  0  0
  7  8  1  0  0  0  0
  7 20  1  0  0  0  0
  8  9  1  0  0  0  0
  8 29  1  0  0  0  0
  8 30  1  0  0  0  0
  9 10  1  0  0  0  0
  9 11  1  0  0  0  0
  9 31  1  0  0  0  0
 10 32  1  0  0  0  0
 11 12  1  0  0  0  0
 11 33  1  0  0  0  0
 11 34  1  0  0  0  0
 12 18  1  0  0  0  0
 12 13  1  0  0  0  0
 13 14  2  0  0  0  0
 13 15  1  0  0  0  0
 15 16  1  0  0  0  0
 15 35  1  0  0  0  0
 15 36  1  0  0  0  0
 16 17  1  0  0  0  0
 16 18  1  0  0  0  0
 16 37  1  0  0  0  0
 17 38  1  0  0  0  0
 17 39  1  0  0  0  0
 17 40  1  0  0  0  0
 18 19  2  0  0  0  0
 20 21  1  0  0  0  0
 21 22  2  0  0  0  0
 21 41  1  0  0  0  0
 22 23  1  0  0  0  0
 23 42  1  0  0  0  0
 23 43  1  0  0  0  0
 23 44  1  0  0  0  0
M  CHG  1   5   1
M  END
> <s_m_source_file>
AV-unprocessed.smi

> <i_m_source_file_index>
740

> <i_lp_mmshare_version>
43012

> <i_f3d_flags>
0

> <s_epik_input>
W0NIM11jKFtjSF0xKWMoW0NIM10pW2NIXWMoYzEyKW4oW2NIXW4yKVtDSDJdW0NASF0oW09IXSlbQ0gyXU4zQyg9TylbQ0gyXVtDQEBIXShbQ0gzXSlDMz1P

> <s_epik_cmdline>
J2VwaWtfcHl0aG9uJywgJy1waCcsICc3LjAnLCAnLXRuJywgJzgnLCAnLW1hJywgJzIwMCcsICctbWV0YWxfYmluZGluZycsICctaW1hZScsICc8aW5maWxlLm1hZT4nLCAnLW9tYWUnLCAnPG91dGZpbGUubWFlPic=

> <r_lp_tautomer_probability>
1

> <r_epik_Ionization_Penalty>
1.08202

> <r_epik_Ionization_Penalty_Charging>
1.08202

> <r_epik_Ionization_Penalty_Neutral>
1.16605e-06

> <r_epik_State_Penalty>
1.13754

> <r_epik_Charging_Adjusted_Penalty>
2.21956

> <i_epik_Tot_Q>
1

> <i_epik_Tot_abs_Q>
1

> <r_epik_Metal_State_Penalty>
5.13645

> <b_epik_Metal_Only>
0

> <s_lp_Force_Field>
OPLS_2005

> <r_lp_Energy>
22.4261

> <b_lp_Chiralities_Consistent>
1

> <s_lp_Variant>
AV-unprocessed.smi:740-8

> <Gold.Version>
5.8.1

> <Gold.Id.Protein>
6NUR|6NUR_protein|mol2

> <Gold.PLP.Fitness>
56.0225

> <Gold.PLP.PLP>
-46.0306

> <Gold.PLP.part.hbond>
-3.9194

> <Gold.PLP.part.metal>
0.0000

> <Gold.PLP.part.buried>
-4.7587

> <Gold.PLP.part.nonpolar>
-38.1184

> <Gold.PLP.part.repulsive>
0.2615

> <Gold.PLP.ligand.clash>
0.0000

> <Gold.PLP.ligand.torsion>
1.0163

> <Gold.PLP.Chemscore.Hbond>
4.0000

> <Gold.PLP.Chemscore.CHOScore>
0.0000

> <Gold.PLP.Chemscore.Metal>
0.0000

> <Gold.Chemscore.Hbonds>
donor molecule, donor type, donor heavy atom, donor atom, acceptor molecule, acceptor atom, score
      L1  H     5    45       P1  8028  2.00
      P1  H  7997  8008       L1    10  1.00
      P1  H 10752 10764       L1    19  1.00

> <Gold.PLP.Chemscore.Internal.Correction>
0.0243

> <Gold.Rescore>
     Score         DG    S(hbond)    S(metal)    S(lipo)     H(rot)  DE(clash)    DE(int)     intcor
     21.01     -22.05       2.98        0.00     108.44       2.37       0.05       0.99       ----

> <Gold.Chemscore.Fitness>
21.0113

> <Gold.Chemscore.DG>
-22.0498

> <Gold.Chemscore.ZeroCoef>
-5.4800

> <Gold.Chemscore.Hbond>
2.9807

> <Gold.Chemscore.Metal>
0.0000

> <Gold.Chemscore.Lipo>
108.4408

> <Gold.Chemscore.Internal_Hbond>
0.0000

> <Gold.Chemscore.DEClash>
0.0534

> <Gold.Chemscore.DEInternal>
0.9851

> <Gold.Chemscore.Rot>
2.3724

> <Gold.Chemscore.Internal.Correction>
   9.000000E+99

> <Gold.Chemscore.Hbonds>
donor molecule, donor type, donor heavy atom, donor atom, acceptor molecule, acceptor atom, score
      L1  H     5    45       P1  8028  0.98
      P1  H  7997  8008       L1    10  0.93
      P1  H 10752 10764       L1    19  0.97

> <Gold.Chemscore.Hbond.Weighted>
-9.9556

> <Gold.Chemscore.Metal.Weighted>
-0.0000

> <Gold.Chemscore.Lipo.Weighted>
-12.6876

> <Gold.Chemscore.Internal_Hbond.Weighted>
0.0000

> <Gold.Chemscore.DEClash.Weighted>
0.0534

> <Gold.Chemscore.DEInternal.Weighted>
0.9851

> <Gold.Chemscore.Rot.Weighted>
6.0734

> <Gold.Chemscore.Internal.Correction.Weighted>
   9.000000E+99

> <Gold.Protein.RotatedTorsions>
[ 6907 6896 6895 6894 ] final -124.10 input  -60.11 | X-H torsion
[ 7974 7965 7964 7962 ] final   56.25 input  175.53 | X-H torsion
[ 8008 7997 7996 7995 ] final   -4.74 input   59.86 | X-H torsion
[ 10167 10162 10161 10158 ] final -155.12 input  -65.29 | X-H torsion
[ 10718 10713 10712 10709 ] final   30.40 input   66.30 | X-H torsion
[ 10763 10752 10751 10750 ] final  -35.26 input  -60.55 | X-H torsion
[ 11005 11000 10999 10996 ] final -151.72 input  -57.11 | X-H torsion

> <Gold.Protein.ActiveResidues>
 VAL166  LYS551  ARG553  GLY616  TRP617  ASP618  TYR619  PRO620  LYS621  CYS622 
 ASP623  PHE694  ASN695  SER759  ASP760  ASP761  ALA762  ILE779  LEU786  VAL792 
 PHE793  MET794  SER795  GLU796  ALA797  LYS798  CYS799  TRP800  GLU811  SER814 

> <Gold.Protein.RotatedAtoms>
  150.8735  133.7472  159.2953 H   0  0  0  0  0  0  0  0  0  0  0  0  # atno 6907 bound_to 6896
  151.5076  135.1062  159.9855 H   0  0  0  0  0  0  0  0  0  0  0  0  # atno 6908 bound_to 6896
  152.4712  133.7988  159.6997 H   0  0  0  0  0  0  0  0  0  0  0  0  # atno 6909 bound_to 6896
  145.9418  139.3895  143.0359 H   0  0  0  0  0  0  0  0  0  0  0  0  # atno 7974 bound_to 7965
  154.6111  140.2476  155.7667 H   0  0  0  0  0  0  0  0  0  0  0  0  # atno 8008 bound_to 7997
  156.2371  140.2946  156.0293 H   0  0  0  0  0  0  0  0  0  0  0  0  # atno 8009 bound_to 7997
  155.2050  140.0395  157.2914 H   0  0  0  0  0  0  0  0  0  0  0  0  # atno 8010 bound_to 7997
  139.6957  143.9346  152.2406 H   0  0  0  0  0  0  0  0  0  0  0  0  # atno 10167 bound_to 10162
  157.2591  130.7152  149.6445 H   0  0  0  0  0  0  0  0  0  0  0  0  # atno 10718 bound_to 10713
  153.8603  135.6840  153.4783 H   0  0  0  0  0  0  0  0  0  0  0  0  # atno 10763 bound_to 10752
  153.1345  135.4683  154.9399 H   0  0  0  0  0  0  0  0  0  0  0  0  # atno 10764 bound_to 10752
  154.7762  135.3254  154.8037 H   0  0  0  0  0  0  0  0  0  0  0  0  # atno 10765 bound_to 10752
  140.7265  134.3669  157.5174 H   0  0  0  0  0  0  0  0  0  0  0  0  # atno 11005 bound_to 11000
  145.8290  140.9640  143.0859 LP  0  0  0  0  0  0  0  0  0  0  0  0  # atno 17320 bound_to 7965
  144.6780  140.0138  143.7484 LP  0  0  0  0  0  0  0  0  0  0  0  0  # atno 17321 bound_to 7965
  139.9175  144.6820  150.8497 LP  0  0  0  0  0  0  0  0  0  0  0  0  # atno 17342 bound_to 10162
  140.7695  143.3399  151.2230 LP  0  0  0  0  0  0  0  0  0  0  0  0  # atno 17343 bound_to 10162
  155.9664  130.4403  150.5294 LP  0  0  0  0  0  0  0  0  0  0  0  0  # atno 17370 bound_to 10713
  157.3195  131.0679  151.1942 LP  0  0  0  0  0  0  0  0  0  0  0  0  # atno 17371 bound_to 10713
  139.8836  134.8990  156.2757 LP  0  0  0  0  0  0  0  0  0  0  0  0  # atno 17394 bound_to 11000
  140.9958  133.7181  156.0884 LP  0  0  0  0  0  0  0  0  0  0  0  0  # atno 17395 bound_to 11000

$$$$
