AV-unprocessed.smi:2463|AV-procd|sdf|9719|dock3
  -GOLD-   2272013363D 1   1.00000     0.00000
 Structure written by MMmdl.
 47 48  0  0  0  0  0  0  0  0  1 V2000
  151.4066  142.3046  158.7699 C   0  0  0  0  0  0  0  0  0  0  0  0
  151.3892  140.9970  157.9709 C   0  0  0  0  0  0  0  0  0  0  0  0
  151.7732  141.2025  156.4979 C   0  0  0  0  0  0  0  0  0  0  0  0
  151.8023  139.9488  155.7698 N   0  0  0  0  0  0  0  0  0  0  0  0
  150.7515  139.0944  155.5016 C   0  0  0  0  0  0  0  0  0  0  0  0
  151.2899  138.0589  154.7914 C   0  0  0  0  0  0  0  0  0  0  0  0
  150.6564  136.9077  154.2590 N   0  0  0  0  0  0  0  0  0  0  0  0
  150.8372  135.6312  154.6350 C   0  0  0  0  0  0  0  0  0  0  0  0
  151.6196  135.2547  155.5077 O   0  0  0  0  0  0  0  0  0  0  0  0
  150.0489  134.8030  153.9366 N   0  0  0  0  0  0  0  0  0  0  0  0
  149.9801  133.3543  154.1179 C   0  0  2  0  0  0  0  0  0  0  0  0
  148.9160  132.7324  153.2351 C   0  0  0  0  0  0  0  0  0  0  0  0
  148.5837  131.4229  153.9607 C   0  0  0  0  0  0  0  0  0  0  0  0
  147.0955  131.0568  153.8504 C   0  0  0  0  0  0  0  0  0  0  0  0
  149.4739  130.2612  153.4873 C   0  0  0  0  0  0  0  0  0  0  0  0
  148.8908  131.6607  155.3338 O   0  0  0  0  0  0  0  0  0  0  0  0
  149.5350  132.9187  155.5313 C   0  0  0  0  0  0  0  0  0  0  0  0
  150.7256  132.6930  156.4767 C   0  0  0  0  0  0  0  0  0  0  0  0
  148.4897  133.8478  156.1836 C   0  0  0  0  0  0  0  0  0  0  0  0
  152.6728  138.3517  154.6674 C   0  0  0  0  0  0  0  0  0  0  0  0
  152.9753  139.4962  155.2612 N   0  0  0  0  0  0  0  0  0  0  0  0
  151.1308  142.1281  159.8098 H   0  0  0  0  0  0  0  0  0  0  0  0
  150.7022  143.0274  158.3577 H   0  0  0  0  0  0  0  0  0  0  0  0
  152.3979  142.7582  158.7607 H   0  0  0  0  0  0  0  0  0  0  0  0
  152.0740  140.2856  158.4336 H   0  0  0  0  0  0  0  0  0  0  0  0
  150.3951  140.5525  158.0314 H   0  0  0  0  0  0  0  0  0  0  0  0
  151.0605  141.8685  156.0100 H   0  0  0  0  0  0  0  0  0  0  0  0
  152.7533  141.6754  156.4191 H   0  0  0  0  0  0  0  0  0  0  0  0
  149.7451  139.3013  155.8344 H   0  0  0  0  0  0  0  0  0  0  0  0
  149.9867  137.0753  153.5226 H   0  0  0  0  0  0  0  0  0  0  0  0
  149.4387  135.2019  153.2385 H   0  0  0  0  0  0  0  0  0  0  0  0
  150.9381  132.8947  153.8667 H   0  0  0  0  0  0  0  0  0  0  0  0
  148.0372  133.3784  153.1990 H   0  0  0  0  0  0  0  0  0  0  0  0
  149.2516  132.5818  152.2083 H   0  0  0  0  0  0  0  0  0  0  0  0
  146.8067  130.8887  152.8125 H   0  0  0  0  0  0  0  0  0  0  0  0
  146.4624  131.8506  154.2483 H   0  0  0  0  0  0  0  0  0  0  0  0
  146.8708  130.1484  154.4100 H   0  0  0  0  0  0  0  0  0  0  0  0
  149.2992  130.0330  152.4354 H   0  0  0  0  0  0  0  0  0  0  0  0
  149.2744  129.3549  154.0599 H   0  0  0  0  0  0  0  0  0  0  0  0
  150.5326  130.4941  153.6049 H   0  0  0  0  0  0  0  0  0  0  0  0
  151.2548  133.6246  156.6771 H   0  0  0  0  0  0  0  0  0  0  0  0
  151.4409  131.9884  156.0514 H   0  0  0  0  0  0  0  0  0  0  0  0
  150.3966  132.2879  157.4339 H   0  0  0  0  0  0  0  0  0  0  0  0
  148.9113  134.8261  156.4167 H   0  0  0  0  0  0  0  0  0  0  0  0
  148.1215  133.4232  157.1180 H   0  0  0  0  0  0  0  0  0  0  0  0
  147.6270  134.0019  155.5352 H   0  0  0  0  0  0  0  0  0  0  0  0
  153.4505  137.7850  154.1769 H   0  0  0  0  0  0  0  0  0  0  0  0
  1  2  1  0  0  0  0
  1 22  1  0  0  0  0
  1 23  1  0  0  0  0
  1 24  1  0  0  0  0
  2  3  1  0  0  0  0
  2 25  1  0  0  0  0
  2 26  1  0  0  0  0
  3  4  1  0  0  0  0
  3 27  1  0  0  0  0
  3 28  1  0  0  0  0
  4 21  1  0  0  0  0
  4  5  1  0  0  0  0
  5  6  2  0  0  0  0
  5 29  1  0  0  0  0
  6  7  1  0  0  0  0
  6 20  1  0  0  0  0
  7  8  1  0  0  0  0
  7 30  1  0  0  0  0
  8  9  2  0  0  0  0
  8 10  1  0  0  0  0
 10 11  1  0  0  0  0
 10 31  1  0  0  0  0
 11 17  1  0  0  0  0
 11 12  1  0  0  0  0
 11 32  1  0  0  0  0
 12 13  1  0  0  0  0
 12 33  1  0  0  0  0
 12 34  1  0  0  0  0
 13 14  1  0  0  0  0
 13 15  1  0  0  0  0
 13 16  1  0  0  0  0
 14 35  1  0  0  0  0
 14 36  1  0  0  0  0
 14 37  1  0  0  0  0
 15 38  1  0  0  0  0
 15 39  1  0  0  0  0
 15 40  1  0  0  0  0
 16 17  1  0  0  0  0
 17 18  1  0  0  0  0
 17 19  1  0  0  0  0
 18 41  1  0  0  0  0
 18 42  1  0  0  0  0
 18 43  1  0  0  0  0
 19 44  1  0  0  0  0
 19 45  1  0  0  0  0
 19 46  1  0  0  0  0
 20 21  2  0  0  0  0
 20 47  1  0  0  0  0
M  END
> <s_m_source_file>
AV-unprocessed.smi

> <i_m_source_file_index>
2463

> <i_lp_mmshare_version>
43012

> <i_f3d_flags>
0

> <s_epik_input>
W0NIM11bQ0gyXVtDSDJdbjFbY0hdYyhbY0hdbjEpW05IXUMoPU8pW05IXVtDQEBIXShDKE8yKShbQ0gzXSlbQ0gzXSlbQ0gyXUMyKFtDSDNdKVtDSDNd

> <s_epik_cmdline>
J2VwaWtfcHl0aG9uJywgJy1waCcsICc3LjAnLCAnLXRuJywgJzgnLCAnLW1hJywgJzIwMCcsICctbWV0YWxfYmluZGluZycsICctaW1hZScsICc8aW5maWxlLm1hZT4nLCAnLW9tYWUnLCAnPG91dGZpbGUubWFlPic=

> <r_lp_tautomer_probability>
1

> <r_epik_Ionization_Penalty>
3.69628e-05

> <r_epik_Ionization_Penalty_Charging>
0

> <r_epik_Ionization_Penalty_Neutral>
3.69628e-05

> <r_epik_State_Penalty>
-0

> <r_epik_Charging_Adjusted_Penalty>
0

> <i_epik_Tot_Q>
0

> <i_epik_Tot_abs_Q>
0

> <r_epik_Metal_State_Penalty>
-0

> <b_epik_Metal_Only>
0

> <s_lp_Force_Field>
OPLS_2005

> <r_lp_Energy>
21.6414

> <b_lp_Chiralities_Consistent>
1

> <s_lp_Variant>
AV-unprocessed.smi:2463-1

> <Gold.Version>
5.8.1

> <Gold.Id.Protein>
6NUR|6NUR_protein|mol2

> <Gold.PLP.Fitness>
45.9481

> <Gold.PLP.PLP>
-36.1214

> <Gold.PLP.part.hbond>
-6.9261

> <Gold.PLP.part.metal>
0.0000

> <Gold.PLP.part.buried>
-2.0472

> <Gold.PLP.part.nonpolar>
-27.6024

> <Gold.PLP.part.repulsive>
0.1787

> <Gold.PLP.ligand.clash>
0.0000

> <Gold.PLP.ligand.torsion>
0.6643

> <Gold.PLP.Chemscore.Hbond>
3.7120

> <Gold.PLP.Chemscore.CHOScore>
0.0000

> <Gold.PLP.Chemscore.Metal>
0.0000

> <Gold.Chemscore.Hbonds>
donor molecule, donor type, donor heavy atom, donor atom, acceptor molecule, acceptor atom, score
      L1  H     7    30       P1  7948  0.77
      L1  H    10    31       P1  7948  0.55
      P1  H  7997  8009       L1    21  1.00
      P1  H 10752 10764       L1     9  0.94

> <Gold.PLP.Chemscore.Internal.Correction>
0.0192

> <Gold.Rescore>
     Score         DG    S(hbond)    S(metal)    S(lipo)     H(rot)  DE(clash)    DE(int)     intcor
     17.74     -18.86       2.22        0.00      79.21       1.29       0.25       0.87       ----

> <Gold.Chemscore.Fitness>
17.7406

> <Gold.Chemscore.DG>
-18.8560

> <Gold.Chemscore.ZeroCoef>
-5.4800

> <Gold.Chemscore.Hbond>
2.2157

> <Gold.Chemscore.Metal>
0.0000

> <Gold.Chemscore.Lipo>
79.2101

> <Gold.Chemscore.Internal_Hbond>
0.0000

> <Gold.Chemscore.DEClash>
0.2490

> <Gold.Chemscore.DEInternal>
0.8664

> <Gold.Chemscore.Rot>
1.2859

> <Gold.Chemscore.Internal.Correction>
   9.000000E+99

> <Gold.Chemscore.Hbonds>
donor molecule, donor type, donor heavy atom, donor atom, acceptor molecule, acceptor atom, score
      L1  H     7    30       P1  7948  0.26
      L1  H    10    31       P1  7948  0.03
      P1  H  7997  8009       L1    21  0.82
      P1  H 10752 10764       L1     9  0.66

> <Gold.Chemscore.Hbond.Weighted>
-7.4003

> <Gold.Chemscore.Metal.Weighted>
-0.0000

> <Gold.Chemscore.Lipo.Weighted>
-9.2676

> <Gold.Chemscore.Internal_Hbond.Weighted>
0.0000

> <Gold.Chemscore.DEClash.Weighted>
0.2490

> <Gold.Chemscore.DEInternal.Weighted>
0.8664

> <Gold.Chemscore.Rot.Weighted>
3.2919

> <Gold.Chemscore.Internal.Correction.Weighted>
   9.000000E+99

> <Gold.Protein.RotatedTorsions>
[ 6907 6896 6895 6894 ] final -111.58 input  -60.11 | X-H torsion
[ 7974 7965 7964 7962 ] final  174.70 input  175.53 | X-H torsion
[ 8008 7997 7996 7995 ] final -152.15 input   59.86 | X-H torsion
[ 10167 10162 10161 10158 ] final  -56.62 input  -65.29 | X-H torsion
[ 10718 10713 10712 10709 ] final   38.25 input   66.30 | X-H torsion
[ 10763 10752 10751 10750 ] final  -31.94 input  -60.55 | X-H torsion
[ 11005 11000 10999 10996 ] final -117.68 input  -57.11 | X-H torsion

> <Gold.Protein.ActiveResidues>
 VAL166  LYS551  ARG553  GLY616  TRP617  ASP618  TYR619  PRO620  LYS621  CYS622 
 ASP623  PHE694  ASN695  SER759  ASP760  ASP761  ALA762  ILE779  LEU786  VAL792 
 PHE793  MET794  SER795  GLU796  ALA797  LYS798  CYS799  TRP800  GLU811  SER814 

> <Gold.Protein.RotatedAtoms>
  150.7700  133.9214  159.3398 H   0  0  0  0  0  0  0  0  0  0  0  0  # atno 6907 bound_to 6896
  151.7102  135.0912  160.0276 H   0  0  0  0  0  0  0  0  0  0  0  0  # atno 6908 bound_to 6896
  152.3714  133.6385  159.6125 H   0  0  0  0  0  0  0  0  0  0  0  0  # atno 6909 bound_to 6896
  144.7216  139.9836  143.6439 H   0  0  0  0  0  0  0  0  0  0  0  0  # atno 7974 bound_to 7965
  155.6506  140.0711  157.2588 H   0  0  0  0  0  0  0  0  0  0  0  0  # atno 8008 bound_to 7997
  154.4163  140.1734  156.1720 H   0  0  0  0  0  0  0  0  0  0  0  0  # atno 8009 bound_to 7997
  155.9780  140.3356  155.6640 H   0  0  0  0  0  0  0  0  0  0  0  0  # atno 8010 bound_to 7997
  140.6306  143.2458  151.5250 H   0  0  0  0  0  0  0  0  0  0  0  0  # atno 10167 bound_to 10162
  157.3565  130.7627  149.7016 H   0  0  0  0  0  0  0  0  0  0  0  0  # atno 10718 bound_to 10713
  153.8055  135.6886  153.4849 H   0  0  0  0  0  0  0  0  0  0  0  0  # atno 10763 bound_to 10752
  153.1661  135.4561  154.9837 H   0  0  0  0  0  0  0  0  0  0  0  0  # atno 10764 bound_to 10752
  154.7989  135.3330  154.7540 H   0  0  0  0  0  0  0  0  0  0  0  0  # atno 10765 bound_to 10752
  141.0338  133.9941  157.3102 H   0  0  0  0  0  0  0  0  0  0  0  0  # atno 11005 bound_to 11000
  146.0468  139.3473  143.0664 LP  0  0  0  0  0  0  0  0  0  0  0  0  # atno 17320 bound_to 7965
  145.8266  140.9652  143.0871 LP  0  0  0  0  0  0  0  0  0  0  0  0  # atno 17321 bound_to 7965
  139.5521  144.2369  152.1548 LP  0  0  0  0  0  0  0  0  0  0  0  0  # atno 17342 bound_to 10162
  140.1612  144.5024  150.6631 LP  0  0  0  0  0  0  0  0  0  0  0  0  # atno 17343 bound_to 10162
  155.9730  130.4125  150.4038 LP  0  0  0  0  0  0  0  0  0  0  0  0  # atno 17370 bound_to 10713
  157.2109  131.0460  151.2600 LP  0  0  0  0  0  0  0  0  0  0  0  0  # atno 17371 bound_to 10713
  139.9226  135.0201  156.8120 LP  0  0  0  0  0  0  0  0  0  0  0  0  # atno 17394 bound_to 11000
  140.6359  133.9863  155.7684 LP  0  0  0  0  0  0  0  0  0  0  0  0  # atno 17395 bound_to 11000

$$$$
