AV-unprocessed.smi:455|AV-procd|sdf|2614|dock1
  -GOLD-   2262023 13D 1   1.00000     0.00000
 Structure written by MMmdl.
 46 47  0  0  0  0  0  0  0  0  1 V2000
  144.4039  134.7215  150.2592 C   0  0  0  0  0  0  0  0  0  0  0  0
  144.5314  133.1892  150.1221 C   0  0  0  0  0  0  0  0  0  0  0  0
  143.5504  132.5361  151.1155 C   0  0  0  0  0  0  0  0  0  0  0  0
  144.1273  132.7700  148.6931 C   0  0  0  0  0  0  0  0  0  0  0  0
  145.9645  132.6913  150.4686 C   0  0  0  0  0  0  0  0  0  0  0  0
  146.5921  133.2537  151.7534 C   0  0  0  0  0  0  0  0  0  0  0  0
  145.9585  134.0268  152.4712 O   0  0  0  0  0  0  0  0  0  0  0  0
  147.8316  132.8279  152.0455 N   0  0  0  0  0  0  0  0  0  0  0  0
  148.5964  133.1805  153.2386 C   0  0  0  0  0  0  0  0  0  0  0  0
  149.2059  131.9877  153.9593 C   0  0  0  0  0  0  0  0  0  0  0  0
  149.9918  132.1816  155.1120 C   0  0  0  0  0  0  0  0  0  0  0  0
  150.5532  131.0629  155.7559 C   0  0  0  0  0  0  0  0  0  0  0  0
  150.3207  129.7719  155.2253 C   0  0  0  0  0  0  0  0  0  0  0  0
  150.8751  128.6360  155.8545 N   0  0  0  0  0  0  0  0  0  0  0  0
  151.9614  127.9786  155.1321 C   0  0  0  0  0  0  0  0  0  0  0  0
  152.6786  126.9696  156.0452 C   0  0  0  0  0  0  0  0  0  0  0  0
  151.7346  126.0481  156.5802 O   0  0  0  0  0  0  0  0  0  0  0  0
  150.7489  126.7009  157.3735 C   0  0  0  0  0  0  0  0  0  0  0  0
  149.9624  127.6988  156.5066 C   0  0  0  0  0  0  0  0  0  0  0  0
  149.5657  129.5886  154.1137 N   0  0  0  0  0  0  0  0  0  0  0  0
  149.0318  130.6652  153.4991 C   0  0  0  0  0  0  0  0  0  0  0  0
  143.3684  135.0428  150.1420 H   0  0  0  0  0  0  0  0  0  0  0  0
  144.9840  135.2517  149.5042 H   0  0  0  0  0  0  0  0  0  0  0  0
  144.7425  135.0623  151.2383 H   0  0  0  0  0  0  0  0  0  0  0  0
  143.7883  132.8066  152.1450 H   0  0  0  0  0  0  0  0  0  0  0  0
  143.5793  131.4481  151.0472 H   0  0  0  0  0  0  0  0  0  0  0  0
  142.5222  132.8466  150.9258 H   0  0  0  0  0  0  0  0  0  0  0  0
  143.0906  133.0346  148.4819 H   0  0  0  0  0  0  0  0  0  0  0  0
  144.2268  131.6934  148.5517 H   0  0  0  0  0  0  0  0  0  0  0  0
  144.7410  133.2597  147.9375 H   0  0  0  0  0  0  0  0  0  0  0  0
  145.9596  131.6044  150.5591 H   0  0  0  0  0  0  0  0  0  0  0  0
  146.6323  132.9090  149.6330 H   0  0  0  0  0  0  0  0  0  0  0  0
  148.2730  132.1898  151.3993 H   0  0  0  0  0  0  0  0  0  0  0  0
  149.3916  133.8900  153.0040 H   0  0  0  0  0  0  0  0  0  0  0  0
  147.9191  133.7001  153.9170 H   0  0  0  0  0  0  0  0  0  0  0  0
  150.1608  133.1734  155.5050 H   0  0  0  0  0  0  0  0  0  0  0  0
  151.1397  131.2066  156.6511 H   0  0  0  0  0  0  0  0  0  0  0  0
  151.5453  127.4651  154.2645 H   0  0  0  0  0  0  0  0  0  0  0  0
  152.6901  128.6952  154.7558 H   0  0  0  0  0  0  0  0  0  0  0  0
  153.4296  126.4193  155.4783 H   0  0  0  0  0  0  0  0  0  0  0  0
  153.2027  127.4815  156.8542 H   0  0  0  0  0  0  0  0  0  0  0  0
  150.0746  125.9524  157.7897 H   0  0  0  0  0  0  0  0  0  0  0  0
  151.2219  127.2070  158.2165 H   0  0  0  0  0  0  0  0  0  0  0  0
  149.2508  128.2385  157.1325 H   0  0  0  0  0  0  0  0  0  0  0  0
  149.3907  127.1634  155.7473 H   0  0  0  0  0  0  0  0  0  0  0  0
  148.4561  130.4582  152.6102 H   0  0  0  0  0  0  0  0  0  0  0  0
  1  2  1  0  0  0  0
  1 22  1  0  0  0  0
  1 23  1  0  0  0  0
  1 24  1  0  0  0  0
  2  3  1  0  0  0  0
  2  4  1  0  0  0  0
  2  5  1  0  0  0  0
  3 25  1  0  0  0  0
  3 26  1  0  0  0  0
  3 27  1  0  0  0  0
  4 28  1  0  0  0  0
  4 29  1  0  0  0  0
  4 30  1  0  0  0  0
  5  6  1  0  0  0  0
  5 31  1  0  0  0  0
  5 32  1  0  0  0  0
  6  7  2  0  0  0  0
  6  8  1  0  0  0  0
  8  9  1  0  0  0  0
  8 33  1  0  0  0  0
  9 10  1  0  0  0  0
  9 34  1  0  0  0  0
  9 35  1  0  0  0  0
 10 21  1  0  0  0  0
 10 11  2  0  0  0  0
 11 12  1  0  0  0  0
 11 36  1  0  0  0  0
 12 13  2  0  0  0  0
 12 37  1  0  0  0  0
 13 14  1  0  0  0  0
 13 20  1  0  0  0  0
 14 19  1  0  0  0  0
 14 15  1  0  0  0  0
 15 16  1  0  0  0  0
 15 38  1  0  0  0  0
 15 39  1  0  0  0  0
 16 17  1  0  0  0  0
 16 40  1  0  0  0  0
 16 41  1  0  0  0  0
 17 18  1  0  0  0  0
 18 19  1  0  0  0  0
 18 42  1  0  0  0  0
 18 43  1  0  0  0  0
 19 44  1  0  0  0  0
 19 45  1  0  0  0  0
 20 21  2  0  0  0  0
 21 46  1  0  0  0  0
M  END
> <s_m_source_file>
AV-unprocessed.smi

> <i_m_source_file_index>
455

> <i_lp_mmshare_version>
43012

> <i_f3d_flags>
0

> <s_epik_input>
W0NIM11DKFtDSDNdKShbQ0gzXSlbQ0gyXUMoPU8pW05IXVtDSDJdYzFbY0hdW2NIXWMobltjSF0xKU4yW0NIMl1bQ0gyXU9bQ0gyXVtDSDJdMg==

> <s_epik_cmdline>
J2VwaWtfcHl0aG9uJywgJy1waCcsICc3LjAnLCAnLXRuJywgJzgnLCAnLW1hJywgJzIwMCcsICctbWV0YWxfYmluZGluZycsICctaW1hZScsICc8aW5maWxlLm1hZT4nLCAnLW9tYWUnLCAnPG91dGZpbGUubWFlPic=

> <r_lp_tautomer_probability>
1

> <r_epik_Ionization_Penalty>
0.00557649

> <r_epik_Ionization_Penalty_Charging>
0

> <r_epik_Ionization_Penalty_Neutral>
0.00557649

> <r_epik_State_Penalty>
0.00408419

> <r_epik_Charging_Adjusted_Penalty>
0.00408419

> <i_epik_Tot_Q>
0

> <i_epik_Tot_abs_Q>
0

> <r_epik_Metal_State_Penalty>
-0

> <b_epik_Metal_Only>
0

> <s_lp_Force_Field>
OPLS_2005

> <r_lp_Energy>
18.1118

> <b_lp_Chiralities_Consistent>
1

> <s_lp_Variant>
AV-unprocessed.smi:455-1

> <Gold.Version>
5.8.1

> <Gold.Id.Protein>
6NUR|6NUR_protein|mol2

> <Gold.PLP.Fitness>
39.5645

> <Gold.PLP.PLP>
-33.8678

> <Gold.PLP.part.hbond>
-1.0000

> <Gold.PLP.part.metal>
0.0000

> <Gold.PLP.part.buried>
-1.8550

> <Gold.PLP.part.nonpolar>
-28.5136

> <Gold.PLP.part.repulsive>
0.2546

> <Gold.PLP.ligand.clash>
0.0000

> <Gold.PLP.ligand.torsion>
0.3385

> <Gold.PLP.Chemscore.Hbond>
1.0000

> <Gold.PLP.Chemscore.CHOScore>
1.0000

> <Gold.PLP.Chemscore.Metal>
0.0000

> <Gold.Chemscore.Hbonds>
donor molecule, donor type, donor heavy atom, donor atom, acceptor molecule, acceptor atom, score
      L1  H     8    33       P1 10747  1.00
      L1  C    21    46       P1 10747  0.99

> <Gold.PLP.Chemscore.Internal.Correction>
0.3737

> <Gold.Rescore>
     Score         DG    S(hbond)    S(metal)    S(lipo)     H(rot)  DE(clash)    DE(int)     intcor
     12.71     -14.67       0.99        0.00      85.59       1.62       0.20       1.76       ----

> <Gold.Chemscore.Fitness>
12.7104

> <Gold.Chemscore.DG>
-14.6747

> <Gold.Chemscore.ZeroCoef>
-5.4800

> <Gold.Chemscore.Hbond>
0.9937

> <Gold.Chemscore.Metal>
0.0000

> <Gold.Chemscore.Lipo>
85.5871

> <Gold.Chemscore.Internal_Hbond>
0.0000

> <Gold.Chemscore.DEClash>
0.2002

> <Gold.Chemscore.DEInternal>
1.7641

> <Gold.Chemscore.Rot>
1.6164

> <Gold.Chemscore.Internal.Correction>
   9.000000E+99

> <Gold.Chemscore.Hbonds>
donor molecule, donor type, donor heavy atom, donor atom, acceptor molecule, acceptor atom, score
      L1  H     8    33       P1 10747  1.00

> <Gold.Chemscore.Hbond.Weighted>
-3.3191

> <Gold.Chemscore.Metal.Weighted>
-0.0000

> <Gold.Chemscore.Lipo.Weighted>
-10.0137

> <Gold.Chemscore.Internal_Hbond.Weighted>
0.0000

> <Gold.Chemscore.DEClash.Weighted>
0.2002

> <Gold.Chemscore.DEInternal.Weighted>
1.7641

> <Gold.Chemscore.Rot.Weighted>
4.1381

> <Gold.Chemscore.Internal.Correction.Weighted>
   9.000000E+99

> <Gold.Protein.RotatedTorsions>
[ 6907 6896 6895 6894 ] final -111.37 input  -60.11 | X-H torsion
[ 7974 7965 7964 7962 ] final -116.66 input  175.53 | X-H torsion
[ 8008 7997 7996 7995 ] final  -33.67 input   59.86 | X-H torsion
[ 10167 10162 10161 10158 ] final  119.80 input  -65.29 | X-H torsion
[ 10718 10713 10712 10709 ] final -178.89 input   66.30 | X-H torsion
[ 10763 10752 10751 10750 ] final  -17.52 input  -60.55 | X-H torsion
[ 11005 11000 10999 10996 ] final   -2.94 input  -57.11 | X-H torsion

> <Gold.Protein.ActiveResidues>
 VAL166  LYS551  ARG553  GLY616  TRP617  ASP618  TYR619  PRO620  LYS621  CYS622 
 ASP623  PHE694  ASN695  SER759  ASP760  ASP761  ALA762  ILE779  LEU786  VAL792 
 PHE793  MET794  SER795  GLU796  ALA797  LYS798  CYS799  TRP800  GLU811  SER814 

> <Gold.Protein.RotatedAtoms>
  150.7686  133.9246  159.3408 H   0  0  0  0  0  0  0  0  0  0  0  0  # atno 6907 bound_to 6896
  151.7137  135.0906  160.0281 H   0  0  0  0  0  0  0  0  0  0  0  0  # atno 6908 bound_to 6896
  152.3693  133.6360  159.6110 H   0  0  0  0  0  0  0  0  0  0  0  0  # atno 6909 bound_to 6896
  145.0942  140.8510  143.3964 H   0  0  0  0  0  0  0  0  0  0  0  0  # atno 7974 bound_to 7965
  154.4142  140.1704  156.1925 H   0  0  0  0  0  0  0  0  0  0  0  0  # atno 8008 bound_to 7997
  155.9592  140.3395  155.6451 H   0  0  0  0  0  0  0  0  0  0  0  0  # atno 8009 bound_to 7997
  155.6771  140.0718  157.2489 H   0  0  0  0  0  0  0  0  0  0  0  0  # atno 8010 bound_to 7997
  139.6023  144.7060  151.3034 H   0  0  0  0  0  0  0  0  0  0  0  0  # atno 10167 bound_to 10162
  156.8511  130.9719  151.3092 H   0  0  0  0  0  0  0  0  0  0  0  0  # atno 10718 bound_to 10713
  153.5751  135.7006  153.5487 H   0  0  0  0  0  0  0  0  0  0  0  0  # atno 10763 bound_to 10752
  153.3310  135.4047  155.1495 H   0  0  0  0  0  0  0  0  0  0  0  0  # atno 10764 bound_to 10752
  154.8627  135.3719  154.5276 H   0  0  0  0  0  0  0  0  0  0  0  0  # atno 10765 bound_to 10752
  140.6639  133.9296  155.8453 H   0  0  0  0  0  0  0  0  0  0  0  0  # atno 11005 bound_to 11000
  145.1030  139.2809  143.5676 LP  0  0  0  0  0  0  0  0  0  0  0  0  # atno 17320 bound_to 7965
  146.3531  140.0603  142.8630 LP  0  0  0  0  0  0  0  0  0  0  0  0  # atno 17321 bound_to 7965
  140.7259  143.7006  150.7848 LP  0  0  0  0  0  0  0  0  0  0  0  0  # atno 17342 bound_to 10162
  140.0585  143.5179  152.2639 LP  0  0  0  0  0  0  0  0  0  0  0  0  # atno 17343 bound_to 10162
  157.6303  130.8724  149.9262 LP  0  0  0  0  0  0  0  0  0  0  0  0  # atno 17370 bound_to 10713
  156.0828  130.3671  150.0547 LP  0  0  0  0  0  0  0  0  0  0  0  0  # atno 17371 bound_to 10713
  141.0444  134.0575  157.3862 LP  0  0  0  0  0  0  0  0  0  0  0  0  # atno 17394 bound_to 11000
  139.9004  135.0162  156.7239 LP  0  0  0  0  0  0  0  0  0  0  0  0  # atno 17395 bound_to 11000

$$$$
