AV-unprocessed.smi:2583|AV-procd|sdf|10136|dock1
  -GOLD-   2272014143D 1   1.00000     0.00000
 Structure written by MMmdl.
 55 57  0  0  0  0  0  0  0  0  3 V2000
  153.2237  142.4610  161.4174 C   0  0  0  0  0  0  0  0  0  0  0  0
  152.3718  143.3248  160.5110 C   0  0  0  0  0  0  0  0  0  0  0  0
  152.1658  144.6914  160.7909 C   0  0  0  0  0  0  0  0  0  0  0  0
  151.4046  145.4981  160.0222 N   0  0  0  0  0  0  0  0  0  0  0  0
  150.8201  144.9619  158.9303 C   0  0  0  0  0  0  0  0  0  0  0  0
  150.9683  143.6129  158.5450 C   0  0  0  0  0  0  0  0  0  0  0  0
  150.2809  143.1738  157.3818 N   0  0  0  0  0  0  0  0  0  0  0  0
  150.5036  142.0730  156.6441 C   0  0  0  0  0  0  0  0  0  0  0  0
  151.4003  141.2536  156.8414 O   0  0  0  0  0  0  0  0  0  0  0  0
  149.6252  141.9847  155.6345 N   0  0  0  0  0  0  0  0  0  0  0  0
  149.5808  140.9239  154.6313 C   0  0  2  0  0  0  0  0  0  0  0  0
  148.2026  140.9070  153.9437 C   0  0  0  0  0  0  0  0  0  0  0  0
  148.0590  139.6883  153.0110 C   0  0  0  0  0  0  0  0  0  0  0  0
  148.2883  138.4044  153.7351 N   0  3  2  0  0  0  0  0  0  0  0  0
  147.2010  138.0045  154.6944 C   0  0  2  0  0  0  0  0  0  0  0  0
  147.4220  136.5857  155.2784 C   0  0  0  0  0  0  0  0  0  0  0  0
  146.2736  136.1424  156.2008 C   0  0  0  0  0  0  0  0  0  0  0  0
  144.9720  136.1940  155.4970 N   0  3  1  0  0  0  0  0  0  0  0  0
  143.8648  135.6583  156.3181 C   0  0  0  0  0  0  0  0  0  0  0  0
  144.6899  137.5547  154.9858 C   0  0  0  0  0  0  0  0  0  0  0  0
  145.7996  138.0311  154.0332 C   0  0  0  0  0  0  0  0  0  0  0  0
  149.6696  138.4070  154.2976 C   0  0  0  0  0  0  0  0  0  0  0  0
  149.8793  139.5654  155.2922 C   0  0  0  0  0  0  0  0  0  0  0  0
  151.7593  142.7745  159.3671 C   0  0  0  0  0  0  0  0  0  0  0  0
  153.6542  143.0439  162.2322 H   0  0  0  0  0  0  0  0  0  0  0  0
  154.0399  142.0099  160.8527 H   0  0  0  0  0  0  0  0  0  0  0  0
  152.6226  141.6613  161.8505 H   0  0  0  0  0  0  0  0  0  0  0  0
  152.6163  145.1508  161.6584 H   0  0  0  0  0  0  0  0  0  0  0  0
  150.2154  145.6359  158.3411 H   0  0  0  0  0  0  0  0  0  0  0  0
  149.5639  143.7988  157.0440 H   0  0  0  0  0  0  0  0  0  0  0  0
  148.9306  142.7129  155.5555 H   0  0  0  0  0  0  0  0  0  0  0  0
  150.3374  141.0921  153.8627 H   0  0  0  0  0  0  0  0  0  0  0  0
  147.4071  140.9012  154.6894 H   0  0  0  0  0  0  0  0  0  0  0  0
  148.0685  141.8243  153.3686 H   0  0  0  0  0  0  0  0  0  0  0  0
  147.1036  139.7047  152.4915 H   0  0  0  0  0  0  0  0  0  0  0  0
  148.8021  139.7649  152.2159 H   0  0  0  0  0  0  0  0  0  0  0  0
  147.1910  138.7076  155.5272 H   0  0  0  0  0  0  0  0  0  0  0  0
  147.5376  135.8645  154.4678 H   0  0  0  0  0  0  0  0  0  0  0  0
  148.3348  136.5427  155.8703 H   0  0  0  0  0  0  0  0  0  0  0  0
  146.4598  135.1257  156.5498 H   0  0  0  0  0  0  0  0  0  0  0  0
  146.2368  136.7792  157.0866 H   0  0  0  0  0  0  0  0  0  0  0  0
  143.7139  136.2606  157.2150 H   0  0  0  0  0  0  0  0  0  0  0  0
  144.0745  134.6333  156.6255 H   0  0  0  0  0  0  0  0  0  0  0  0
  142.9336  135.6505  155.7506 H   0  0  0  0  0  0  0  0  0  0  0  0
  143.7341  137.5558  154.4599 H   0  0  0  0  0  0  0  0  0  0  0  0
  144.5909  138.2475  155.8234 H   0  0  0  0  0  0  0  0  0  0  0  0
  145.5324  139.0380  153.7172 H   0  0  0  0  0  0  0  0  0  0  0  0
  145.8011  137.4104  153.1361 H   0  0  0  0  0  0  0  0  0  0  0  0
  149.9354  137.4522  154.7459 H   0  0  0  0  0  0  0  0  0  0  0  0
  150.3717  138.5222  153.4705 H   0  0  0  0  0  0  0  0  0  0  0  0
  150.9073  139.5526  155.6561 H   0  0  0  0  0  0  0  0  0  0  0  0
  149.2472  139.4230  156.1693 H   0  0  0  0  0  0  0  0  0  0  0  0
  151.8930  141.7255  159.1529 H   0  0  0  0  0  0  0  0  0  0  0  0
  148.2888  137.6877  153.0230 H   0  0  0  0  0  0  0  0  0  0  0  0
  145.0488  135.5878  154.6925 H   0  0  0  0  0  0  0  0  0  0  0  0
  1  2  1  0  0  0  0
  1 25  1  0  0  0  0
  1 26  1  0  0  0  0
  1 27  1  0  0  0  0
  2 24  1  0  0  0  0
  2  3  2  0  0  0  0
  3  4  1  0  0  0  0
  3 28  1  0  0  0  0
  4  5  2  0  0  0  0
  5  6  1  0  0  0  0
  5 29  1  0  0  0  0
  6  7  1  0  0  0  0
  6 24  2  0  0  0  0
  7  8  1  0  0  0  0
  7 30  1  0  0  0  0
  8  9  2  0  0  0  0
  8 10  1  0  0  0  0
 10 11  1  0  0  0  0
 10 31  1  0  0  0  0
 11 23  1  0  0  0  0
 11 12  1  0  0  0  0
 11 32  1  0  0  0  0
 12 13  1  0  0  0  0
 12 33  1  0  0  0  0
 12 34  1  0  0  0  0
 13 14  1  0  0  0  0
 13 35  1  0  0  0  0
 13 36  1  0  0  0  0
 14 15  1  0  0  0  0
 14 22  1  0  0  0  0
 14 54  1  0  0  0  0
 15 21  1  0  0  0  0
 15 16  1  0  0  0  0
 15 37  1  0  0  0  0
 16 17  1  0  0  0  0
 16 38  1  0  0  0  0
 16 39  1  0  0  0  0
 17 18  1  0  0  0  0
 17 40  1  0  0  0  0
 17 41  1  0  0  0  0
 18 19  1  0  0  0  0
 18 20  1  0  0  0  0
 18 55  1  0  0  0  0
 19 42  1  0  0  0  0
 19 43  1  0  0  0  0
 19 44  1  0  0  0  0
 20 21  1  0  0  0  0
 20 45  1  0  0  0  0
 20 46  1  0  0  0  0
 21 47  1  0  0  0  0
 21 48  1  0  0  0  0
 22 23  1  0  0  0  0
 22 49  1  0  0  0  0
 22 50  1  0  0  0  0
 23 51  1  0  0  0  0
 23 52  1  0  0  0  0
 24 53  1  0  0  0  0
M  CHG  1  14   1
M  CHG  1  18   1
M  END
> <s_m_source_file>
AV-unprocessed.smi

> <i_m_source_file_index>
2583

> <i_lp_mmshare_version>
43012

> <i_f3d_flags>
0

> <s_epik_input>
W0NIM11jMVtjSF1uW2NIXWMoW2NIXTEpW05IXUMoPU8pW05IXVtDSF0yW0NIMl1bQ0gyXU4oW0NIMl1bQ0gyXTIpW0NIXTNbQ0gyXVtDSDJdTihbQ0gzXSlbQ0gyXVtDSDJdMw==

> <s_epik_cmdline>
J2VwaWtfcHl0aG9uJywgJy1waCcsICc3LjAnLCAnLXRuJywgJzgnLCAnLW1hJywgJzIwMCcsICctbWV0YWxfYmluZGluZycsICctaW1hZScsICc8aW5maWxlLm1hZT4nLCAnLW9tYWUnLCAnPG91dGZpbGUubWFlPic=

> <r_epik_Ionization_Penalty>
0.188357

> <r_epik_Ionization_Penalty_Charging>
0.180787

> <r_epik_Ionization_Penalty_Neutral>
0.00756971

> <r_epik_State_Penalty>
0.157948

> <r_epik_Charging_Adjusted_Penalty>
0.338735

> <i_epik_Tot_Q>
2

> <i_epik_Tot_abs_Q>
2

> <r_epik_Metal_State_Penalty>
0.153874

> <b_epik_Metal_Only>
0

> <s_lp_Force_Field>
OPLS_2005

> <r_lp_Energy>
45.5267

> <b_lp_Chiralities_Consistent>
1

> <s_lp_Variant>
AV-unprocessed.smi:2583-2

> <Gold.Version>
5.8.1

> <Gold.Id.Protein>
6NUR|6NUR_protein|mol2

> <Gold.PLP.Fitness>
48.9375

> <Gold.PLP.PLP>
-35.6175

> <Gold.PLP.part.hbond>
-3.1344

> <Gold.PLP.part.metal>
0.0000

> <Gold.PLP.part.buried>
-0.2782

> <Gold.PLP.part.nonpolar>
-32.6526

> <Gold.PLP.part.repulsive>
0.3827

> <Gold.PLP.ligand.clash>
0.0000

> <Gold.PLP.ligand.torsion>
0.3820

> <Gold.PLP.Chemscore.Hbond>
3.7120

> <Gold.PLP.Chemscore.CHOScore>
0.9685

> <Gold.PLP.Chemscore.Metal>
0.0000

> <Gold.Chemscore.Hbonds>
donor molecule, donor type, donor heavy atom, donor atom, acceptor molecule, acceptor atom, score
      L1  H     7    30       P1  8028  0.98
      L1  H    10    31       P1  8028  0.75
      L1  H    14    54       P1  7948  2.00
      L1  C     5    29       P1  8029  0.95

> <Gold.PLP.Chemscore.Internal.Correction>
0.0425

> <Gold.Rescore>
     Score         DG    S(hbond)    S(metal)    S(lipo)     H(rot)  DE(clash)    DE(int)     intcor
     19.31     -24.55       2.82        0.00     109.01       1.21       2.16       3.08       ----

> <Gold.Chemscore.Fitness>
19.3091

> <Gold.Chemscore.DG>
-24.5461

> <Gold.Chemscore.ZeroCoef>
-5.4800

> <Gold.Chemscore.Hbond>
2.8164

> <Gold.Chemscore.Metal>
0.0000

> <Gold.Chemscore.Lipo>
109.0143

> <Gold.Chemscore.Internal_Hbond>
0.0000

> <Gold.Chemscore.DEClash>
2.1562

> <Gold.Chemscore.DEInternal>
3.0808

> <Gold.Chemscore.Rot>
1.2092

> <Gold.Chemscore.Internal.Correction>
   9.000000E+99

> <Gold.Chemscore.Hbonds>
donor molecule, donor type, donor heavy atom, donor atom, acceptor molecule, acceptor atom, score
      L1  H     7    30       P1  8028  0.76
      L1  H    10    31       P1  8028  0.73
      L1  H    14    54       P1  7948  0.98

> <Gold.Chemscore.Hbond.Weighted>
-9.4069

> <Gold.Chemscore.Metal.Weighted>
-0.0000

> <Gold.Chemscore.Lipo.Weighted>
-12.7547

> <Gold.Chemscore.Internal_Hbond.Weighted>
0.0000

> <Gold.Chemscore.DEClash.Weighted>
2.1562

> <Gold.Chemscore.DEInternal.Weighted>
3.0808

> <Gold.Chemscore.Rot.Weighted>
3.0955

> <Gold.Chemscore.Internal.Correction.Weighted>
   9.000000E+99

> <Gold.Protein.RotatedTorsions>
[ 6907 6896 6895 6894 ] final   32.85 input  -60.11 | X-H torsion
[ 7974 7965 7964 7962 ] final  133.86 input  175.53 | X-H torsion
[ 8008 7997 7996 7995 ] final   20.99 input   59.86 | X-H torsion
[ 10167 10162 10161 10158 ] final  -82.30 input  -65.29 | X-H torsion
[ 10718 10713 10712 10709 ] final  110.61 input   66.30 | X-H torsion
[ 10763 10752 10751 10750 ] final   17.31 input  -60.55 | X-H torsion
[ 11005 11000 10999 10996 ] final  110.71 input  -57.11 | X-H torsion

> <Gold.Protein.ActiveResidues>
 VAL166  LYS551  ARG553  GLY616  TRP617  ASP618  TYR619  PRO620  LYS621  CYS622 
 ASP623  PHE694  ASN695  SER759  ASP760  ASP761  ALA762  ILE779  LEU786  VAL792 
 PHE793  MET794  SER795  GLU796  ALA797  LYS798  CYS799  TRP800  GLU811  SER814 

> <Gold.Protein.RotatedAtoms>
  152.0802  134.9476  160.0573 H   0  0  0  0  0  0  0  0  0  0  0  0  # atno 6907 bound_to 6896
  152.0767  133.4128  159.4491 H   0  0  0  0  0  0  0  0  0  0  0  0  # atno 6908 bound_to 6896
  150.6836  134.2949  159.4725 H   0  0  0  0  0  0  0  0  0  0  0  0  # atno 6909 bound_to 6896
  144.9823  139.4492  143.5380 H   0  0  0  0  0  0  0  0  0  0  0  0  # atno 7974 bound_to 7965
  154.9439  140.3056  155.5107 H   0  0  0  0  0  0  0  0  0  0  0  0  # atno 8008 bound_to 7997
  156.2993  140.2331  156.4448 H   0  0  0  0  0  0  0  0  0  0  0  0  # atno 8009 bound_to 7997
  154.8119  140.0428  157.1337 H   0  0  0  0  0  0  0  0  0  0  0  0  # atno 8010 bound_to 7997
  140.4332  143.2541  151.8730 H   0  0  0  0  0  0  0  0  0  0  0  0  # atno 10167 bound_to 10162
  157.6486  131.0936  150.6627 H   0  0  0  0  0  0  0  0  0  0  0  0  # atno 10718 bound_to 10713
  153.1351  135.6748  153.9116 H   0  0  0  0  0  0  0  0  0  0  0  0  # atno 10763 bound_to 10752
  153.8591  135.3083  155.3438 H   0  0  0  0  0  0  0  0  0  0  0  0  # atno 10764 bound_to 10752
  154.7740  135.4924  153.9789 H   0  0  0  0  0  0  0  0  0  0  0  0  # atno 10765 bound_to 10752
  139.8887  134.9490  156.6320 H   0  0  0  0  0  0  0  0  0  0  0  0  # atno 11005 bound_to 11000
  146.3411  139.9103  142.8781 LP  0  0  0  0  0  0  0  0  0  0  0  0  # atno 17320 bound_to 7965
  145.2404  141.0007  143.3939 LP  0  0  0  0  0  0  0  0  0  0  0  0  # atno 17321 bound_to 7965
  139.4786  144.5311  151.8664 LP  0  0  0  0  0  0  0  0  0  0  0  0  # atno 17342 bound_to 10162
  140.4403  144.1995  150.5891 LP  0  0  0  0  0  0  0  0  0  0  0  0  # atno 17343 bound_to 10162
  156.6941  130.4604  149.5591 LP  0  0  0  0  0  0  0  0  0  0  0  0  # atno 17370 bound_to 10713
  156.1841  130.6518  151.0986 LP  0  0  0  0  0  0  0  0  0  0  0  0  # atno 17371 bound_to 10713
  140.7659  133.8778  155.8454 LP  0  0  0  0  0  0  0  0  0  0  0  0  # atno 17394 bound_to 11000
  140.9883  134.1313  157.4432 LP  0  0  0  0  0  0  0  0  0  0  0  0  # atno 17395 bound_to 11000

$$$$
