AV-unprocessed.smi:2706|AV-procd|sdf|10444|dock6
  -GOLD-   2272014483D 1   1.00000     0.00000
 Structure written by MMmdl.
 43 46  0  0  0  0  0  0  0  0  1 V2000
  151.1223  140.7978  155.8378 C   0  0  0  0  0  0  0  0  0  0  0  0
  150.3781  139.9506  154.9143 N   0  0  0  0  0  0  0  0  0  0  0  0
  150.9034  138.6408  154.5415 C   0  0  0  0  0  0  0  0  0  0  0  0
  149.1227  140.3701  154.4181 C   0  0  0  0  0  0  0  0  0  0  0  0
  148.6578  141.6947  154.6008 C   0  0  0  0  0  0  0  0  0  0  0  0
  147.3988  142.0511  154.0853 C   0  0  0  0  0  0  0  0  0  0  0  0
  146.6408  141.0816  153.4050 C   0  0  0  0  0  0  0  0  0  0  0  0
  147.1628  139.7796  153.2562 C   0  0  0  0  0  0  0  0  0  0  0  0
  146.3271  138.8687  152.5569 N   0  0  0  0  0  0  0  0  0  0  0  0
  146.1837  137.5472  152.7617 C   0  0  0  0  0  0  0  0  0  0  0  0
  146.7853  136.8890  153.6114 O   0  0  0  0  0  0  0  0  0  0  0  0
  145.2910  137.0218  151.9111 N   0  0  0  0  0  0  0  0  0  0  0  0
  144.9109  135.6477  151.8506 C   0  0  2  0  0  0  0  0  0  0  0  0
  145.9325  134.6781  151.2924 C   0  0  1  0  0  0  0  0  0  0  0  0
  145.8715  133.1530  151.3325 C   0  0  1  0  0  0  0  0  0  0  0  0
  144.7142  132.6616  152.2266 C   0  0  0  0  0  0  0  0  0  0  0  0
  143.4678  133.0395  151.3956 C   0  0  0  0  0  0  0  0  0  0  0  0
  144.0882  133.6938  150.1435 C   0  0  2  0  0  0  0  0  0  0  0  0
  145.3244  132.8219  149.9474 C   0  0  0  0  0  0  0  0  0  0  0  0
  144.7074  135.0497  150.4741 C   0  0  1  0  0  0  0  0  0  0  0  0
  148.3776  139.4505  153.7582 N   0  0  0  0  0  0  0  0  0  0  0  0
  151.3710  141.7499  155.3684 H   0  0  0  0  0  0  0  0  0  0  0  0
  152.0554  140.3256  156.1451 H   0  0  0  0  0  0  0  0  0  0  0  0
  150.5364  140.9923  156.7368 H   0  0  0  0  0  0  0  0  0  0  0  0
  151.0147  138.5661  153.4593 H   0  0  0  0  0  0  0  0  0  0  0  0
  150.2310  137.8495  154.8748 H   0  0  0  0  0  0  0  0  0  0  0  0
  151.8803  138.4601  154.9900 H   0  0  0  0  0  0  0  0  0  0  0  0
  149.2380  142.4407  155.1224 H   0  0  0  0  0  0  0  0  0  0  0  0
  147.0196  143.0544  154.2106 H   0  0  0  0  0  0  0  0  0  0  0  0
  145.6715  141.3396  153.0038 H   0  0  0  0  0  0  0  0  0  0  0  0
  145.7730  139.2706  151.8155 H   0  0  0  0  0  0  0  0  0  0  0  0
  144.8474  137.6413  151.2491 H   0  0  0  0  0  0  0  0  0  0  0  0
  144.2695  135.2943  152.6543 H   0  0  0  0  0  0  0  0  0  0  0  0
  146.8769  135.0862  150.9359 H   0  0  0  0  0  0  0  0  0  0  0  0
  146.8386  132.7064  151.5648 H   0  0  0  0  0  0  0  0  0  0  0  0
  144.7661  131.5808  152.3643 H   0  0  0  0  0  0  0  0  0  0  0  0
  144.7254  133.1189  153.2162 H   0  0  0  0  0  0  0  0  0  0  0  0
  142.9061  132.1446  151.1248 H   0  0  0  0  0  0  0  0  0  0  0  0
  142.7862  133.7068  151.9238 H   0  0  0  0  0  0  0  0  0  0  0  0
  143.4187  133.7437  149.2845 H   0  0  0  0  0  0  0  0  0  0  0  0
  145.9694  133.1650  149.1363 H   0  0  0  0  0  0  0  0  0  0  0  0
  145.0991  131.7634  149.8040 H   0  0  0  0  0  0  0  0  0  0  0  0
  144.8927  135.6883  149.6121 H   0  0  0  0  0  0  0  0  0  0  0  0
  1  2  1  0  0  0  0
  1 22  1  0  0  0  0
  1 23  1  0  0  0  0
  1 24  1  0  0  0  0
  2  3  1  0  0  0  0
  2  4  1  0  0  0  0
  3 25  1  0  0  0  0
  3 26  1  0  0  0  0
  3 27  1  0  0  0  0
  4 21  1  0  0  0  0
  4  5  2  0  0  0  0
  5  6  1  0  0  0  0
  5 28  1  0  0  0  0
  6  7  2  0  0  0  0
  6 29  1  0  0  0  0
  7  8  1  0  0  0  0
  7 30  1  0  0  0  0
  8  9  1  0  0  0  0
  8 21  2  0  0  0  0
  9 10  1  0  0  0  0
  9 31  1  0  0  0  0
 10 11  2  0  0  0  0
 10 12  1  0  0  0  0
 12 13  1  0  0  0  0
 12 32  1  0  0  0  0
 13 20  1  0  0  0  0
 13 14  1  0  0  0  0
 13 33  1  0  0  0  0
 14 20  1  0  0  0  0
 14 15  1  0  0  0  0
 14 34  1  0  0  0  0
 15 19  1  0  0  0  0
 15 16  1  0  0  0  0
 15 35  1  0  0  0  0
 16 17  1  0  0  0  0
 16 36  1  0  0  0  0
 16 37  1  0  0  0  0
 17 18  1  0  0  0  0
 17 38  1  0  0  0  0
 17 39  1  0  0  0  0
 18 19  1  0  0  0  0
 18 20  1  0  0  0  0
 18 40  1  0  0  0  0
 19 41  1  0  0  0  0
 19 42  1  0  0  0  0
 20 43  1  0  0  0  0
M  END
> <s_m_source_file>
AV-unprocessed.smi

> <i_m_source_file_index>
2706

> <i_lp_mmshare_version>
43012

> <i_f3d_flags>
0

> <s_epik_input>
W0NIM11OKFtDSDNdKWMxW2NIXVtjSF1bY0hdYyhuMSlbTkhdQyg9TylbTkhdW0NASF0yW0NAQEhdM1tDQEBIXShbQ0gyXTQpW0NIMl1bQ0gyXVtDQEBIXTRbQ0BIXTIz

> <s_epik_cmdline>
J2VwaWtfcHl0aG9uJywgJy1waCcsICc3LjAnLCAnLXRuJywgJzgnLCAnLW1hJywgJzIwMCcsICctbWV0YWxfYmluZGluZycsICctaW1hZScsICc8aW5maWxlLm1hZT4nLCAnLW9tYWUnLCAnPG91dGZpbGUubWFlPic=

> <r_lp_tautomer_probability>
1

> <r_epik_Ionization_Penalty>
0.0296788

> <r_epik_Ionization_Penalty_Charging>
0

> <r_epik_Ionization_Penalty_Neutral>
0.0296788

> <r_epik_State_Penalty>
0.0248512

> <r_epik_Charging_Adjusted_Penalty>
0.0248512

> <i_epik_Tot_Q>
0

> <i_epik_Tot_abs_Q>
0

> <r_epik_Metal_State_Penalty>
0.0237882

> <b_epik_Metal_Only>
0

> <s_lp_Force_Field>
OPLS_2005

> <r_lp_Energy>
79.5337

> <b_lp_Chiralities_Consistent>
1

> <s_lp_Variant>
AV-unprocessed.smi:2706-1

> <Gold.Version>
5.8.1

> <Gold.Id.Protein>
6NUR|6NUR_protein|mol2

> <Gold.PLP.Fitness>
42.6359

> <Gold.PLP.PLP>
-40.5734

> <Gold.PLP.part.hbond>
-1.7278

> <Gold.PLP.part.metal>
0.0000

> <Gold.PLP.part.buried>
-2.4623

> <Gold.PLP.part.nonpolar>
-39.2109

> <Gold.PLP.part.repulsive>
2.7901

> <Gold.PLP.ligand.clash>
0.0000

> <Gold.PLP.ligand.torsion>
0.4891

> <Gold.PLP.Chemscore.Hbond>
1.0000

> <Gold.PLP.Chemscore.CHOScore>
0.0000

> <Gold.PLP.Chemscore.Metal>
0.0000

> <Gold.Chemscore.Hbonds>
donor molecule, donor type, donor heavy atom, donor atom, acceptor molecule, acceptor atom, score
      L1  H    12    32       P1 10171  1.00

> <Gold.PLP.Chemscore.Internal.Correction>
0.0406

> <Gold.Rescore>
     Score         DG    S(hbond)    S(metal)    S(lipo)     H(rot)  DE(clash)    DE(int)     intcor
     14.62     -16.36       0.98        0.00      86.88       1.00       0.43       1.31       ----

> <Gold.Chemscore.Fitness>
14.6218

> <Gold.Chemscore.DG>
-16.3616

> <Gold.Chemscore.ZeroCoef>
-5.4800

> <Gold.Chemscore.Hbond>
0.9810

> <Gold.Chemscore.Metal>
0.0000

> <Gold.Chemscore.Lipo>
86.8814

> <Gold.Chemscore.Internal_Hbond>
0.0000

> <Gold.Chemscore.DEClash>
0.4281

> <Gold.Chemscore.DEInternal>
1.3117

> <Gold.Chemscore.Rot>
1.0000

> <Gold.Chemscore.Internal.Correction>
   9.000000E+99

> <Gold.Chemscore.Hbonds>
donor molecule, donor type, donor heavy atom, donor atom, acceptor molecule, acceptor atom, score
      L1  H     9    31       P1 10175  0.01
      L1  H    12    32       P1 10171  0.98

> <Gold.Chemscore.Hbond.Weighted>
-3.2764

> <Gold.Chemscore.Metal.Weighted>
-0.0000

> <Gold.Chemscore.Lipo.Weighted>
-10.1651

> <Gold.Chemscore.Internal_Hbond.Weighted>
0.0000

> <Gold.Chemscore.DEClash.Weighted>
0.4281

> <Gold.Chemscore.DEInternal.Weighted>
1.3117

> <Gold.Chemscore.Rot.Weighted>
2.5600

> <Gold.Chemscore.Internal.Correction.Weighted>
   9.000000E+99

> <Gold.Protein.RotatedTorsions>
[ 6907 6896 6895 6894 ] final   12.35 input  -60.11 | X-H torsion
[ 7974 7965 7964 7962 ] final  -64.55 input  175.53 | X-H torsion
[ 8008 7997 7996 7995 ] final  -85.17 input   59.86 | X-H torsion
[ 10167 10162 10161 10158 ] final  137.26 input  -65.29 | X-H torsion
[ 10718 10713 10712 10709 ] final  -79.23 input   66.30 | X-H torsion
[ 10763 10752 10751 10750 ] final  -47.08 input  -60.55 | X-H torsion
[ 11005 11000 10999 10996 ] final  119.06 input  -57.11 | X-H torsion

> <Gold.Protein.ActiveResidues>
 VAL166  LYS551  ARG553  GLY616  TRP617  ASP618  TYR619  PRO620  LYS621  CYS622 
 ASP623  PHE694  ASN695  SER759  ASP760  ASP761  ALA762  ILE779  LEU786  VAL792 
 PHE793  MET794  SER795  GLU796  ALA797  LYS798  CYS799  TRP800  GLU811  SER814 

> <Gold.Protein.RotatedAtoms>
  151.7689  135.0791  160.0356 H   0  0  0  0  0  0  0  0  0  0  0  0  # atno 6907 bound_to 6896
  152.3302  133.5946  159.5813 H   0  0  0  0  0  0  0  0  0  0  0  0  # atno 6908 bound_to 6896
  150.7418  133.9795  159.3613 H   0  0  0  0  0  0  0  0  0  0  0  0  # atno 6909 bound_to 6896
  145.7653  140.8840  143.0408 H   0  0  0  0  0  0  0  0  0  0  0  0  # atno 7974 bound_to 7965
  154.6378  140.0595  156.9810 H   0  0  0  0  0  0  0  0  0  0  0  0  # atno 8008 bound_to 7997
  155.1564  140.3278  155.4402 H   0  0  0  0  0  0  0  0  0  0  0  0  # atno 8009 bound_to 7997
  156.2516  140.1938  156.6673 H   0  0  0  0  0  0  0  0  0  0  0  0  # atno 8010 bound_to 7997
  139.5151  144.6420  151.5544 H   0  0  0  0  0  0  0  0  0  0  0  0  # atno 10167 bound_to 10162
  156.0097  130.4540  150.3617 H   0  0  0  0  0  0  0  0  0  0  0  0  # atno 10718 bound_to 10713
  154.0555  135.6625  153.4805 H   0  0  0  0  0  0  0  0  0  0  0  0  # atno 10763 bound_to 10752
  153.0447  135.5122  154.7710 H   0  0  0  0  0  0  0  0  0  0  0  0  # atno 10764 bound_to 10752
  154.6730  135.3032  154.9683 H   0  0  0  0  0  0  0  0  0  0  0  0  # atno 10765 bound_to 10752
  139.9132  134.9625  156.7598 H   0  0  0  0  0  0  0  0  0  0  0  0  # atno 11005 bound_to 11000
  144.6822  139.9780  143.7483 LP  0  0  0  0  0  0  0  0  0  0  0  0  # atno 17320 bound_to 7965
  146.0223  139.3262  143.0805 LP  0  0  0  0  0  0  0  0  0  0  0  0  # atno 17321 bound_to 7965
  140.6190  143.9294  150.6511 LP  0  0  0  0  0  0  0  0  0  0  0  0  # atno 17342 bound_to 10162
  140.2562  143.3557  152.1363 LP  0  0  0  0  0  0  0  0  0  0  0  0  # atno 17343 bound_to 10162
  157.1705  131.0367  151.2797 LP  0  0  0  0  0  0  0  0  0  0  0  0  # atno 17370 bound_to 10713
  157.4233  130.7449  149.6931 LP  0  0  0  0  0  0  0  0  0  0  0  0  # atno 17371 bound_to 10713
  140.6706  133.9563  155.7854 LP  0  0  0  0  0  0  0  0  0  0  0  0  # atno 17394 bound_to 11000
  141.0580  134.0388  157.3697 LP  0  0  0  0  0  0  0  0  0  0  0  0  # atno 17395 bound_to 11000

$$$$
