AV-unprocessed.smi:1672|AV-procd|sdf|6708|dock3
  -GOLD-   22720 7453D 1   1.00000     0.00000
 Structure written by MMmdl.
 49 51  0  0  0  0  0  0  0  0  3 V2000
  148.1150  133.3356  153.3292 C   0  0  0  0  0  0  0  0  0  0  0  0
  148.0973  133.5366  154.8546 C   0  0  2  0  0  0  0  0  0  0  0  0
  147.5942  134.9320  155.2666 C   0  0  0  0  0  0  0  0  0  0  0  0
  148.6369  136.0310  154.9952 C   0  0  0  0  0  0  0  0  0  0  0  0
  149.9275  135.7243  155.6673 N   0  3  2  0  0  0  0  0  0  0  0  0
  150.9301  136.8134  155.5410 C   0  0  0  0  0  0  0  0  0  0  0  0
  150.4244  138.1602  156.1012 C   0  0  1  0  0  0  0  0  0  0  0  0
  150.1688  138.0143  157.4829 O   0  0  0  0  0  0  0  0  0  0  0  0
  151.4320  139.3172  155.9344 C   0  0  0  0  0  0  0  0  0  0  0  0
  150.9140  140.6164  156.3928 N   0  0  0  0  0  0  0  0  0  0  0  0
  149.9061  141.3992  155.9043 C   0  0  0  0  0  0  0  0  0  0  0  0
  149.0310  141.1219  154.7252 C   0  0  0  0  0  0  0  0  0  0  0  0
  149.7682  140.8980  153.5439 O   0  0  0  0  0  0  0  0  0  0  0  0
  149.8322  142.5029  156.7004 N   0  3  0  0  0  0  0  0  0  0  0  0
  150.8102  142.4383  157.6932 C   0  0  0  0  0  0  0  0  0  0  0  0
  151.1265  143.3225  158.7202 C   0  0  0  0  0  0  0  0  0  0  0  0
  152.1975  142.9575  159.5622 C   0  0  0  0  0  0  0  0  0  0  0  0
  152.9083  141.7557  159.3666 C   0  0  0  0  0  0  0  0  0  0  0  0
  152.5771  140.8663  158.3229 C   0  0  0  0  0  0  0  0  0  0  0  0
  151.5145  141.2330  157.4969 C   0  0  0  0  0  0  0  0  0  0  0  0
  150.4697  134.4109  155.2338 C   0  0  0  0  0  0  0  0  0  0  0  0
  149.4673  133.2750  155.5065 C   0  0  0  0  0  0  0  0  0  0  0  0
  148.8011  134.0193  152.8303 H   0  0  0  0  0  0  0  0  0  0  0  0
  147.1238  133.4943  152.9034 H   0  0  0  0  0  0  0  0  0  0  0  0
  148.4198  132.3203  153.0741 H   0  0  0  0  0  0  0  0  0  0  0  0
  147.3958  132.8027  155.2537 H   0  0  0  0  0  0  0  0  0  0  0  0
  146.6611  135.1645  154.7520 H   0  0  0  0  0  0  0  0  0  0  0  0
  147.3570  134.9257  156.3315 H   0  0  0  0  0  0  0  0  0  0  0  0
  148.7998  136.1447  153.9227 H   0  0  0  0  0  0  0  0  0  0  0  0
  148.2399  136.9810  155.3498 H   0  0  0  0  0  0  0  0  0  0  0  0
  151.8400  136.5412  156.0782 H   0  0  0  0  0  0  0  0  0  0  0  0
  151.2116  136.9062  154.4916 H   0  0  0  0  0  0  0  0  0  0  0  0
  149.4885  138.4407  155.6209 H   0  0  0  0  0  0  0  0  0  0  0  0
  150.8815  137.5331  157.8756 H   0  0  0  0  0  0  0  0  0  0  0  0
  152.3554  139.1103  156.4773 H   0  0  0  0  0  0  0  0  0  0  0  0
  151.7122  139.4216  154.8860 H   0  0  0  0  0  0  0  0  0  0  0  0
  148.4207  140.2414  154.9288 H   0  0  0  0  0  0  0  0  0  0  0  0
  148.3443  141.9541  154.5708 H   0  0  0  0  0  0  0  0  0  0  0  0
  149.3233  140.2375  153.0341 H   0  0  0  0  0  0  0  0  0  0  0  0
  150.5864  144.2461  158.8697 H   0  0  0  0  0  0  0  0  0  0  0  0
  152.4815  143.6137  160.3723 H   0  0  0  0  0  0  0  0  0  0  0  0
  153.7259  141.5118  160.0298 H   0  0  0  0  0  0  0  0  0  0  0  0
  153.1318  139.9506  158.1804 H   0  0  0  0  0  0  0  0  0  0  0  0
  150.7266  134.4518  154.1744 H   0  0  0  0  0  0  0  0  0  0  0  0
  151.3946  134.2007  155.7721 H   0  0  0  0  0  0  0  0  0  0  0  0
  149.3355  133.1730  156.5846 H   0  0  0  0  0  0  0  0  0  0  0  0
  149.8752  132.3242  155.1618 H   0  0  0  0  0  0  0  0  0  0  0  0
  149.7327  135.6344  156.6546 H   0  0  0  0  0  0  0  0  0  0  0  0
  149.1623  143.2498  156.5671 H   0  0  0  0  0  0  0  0  0  0  0  0
  1  2  1  0  0  0  0
  1 23  1  0  0  0  0
  1 24  1  0  0  0  0
  1 25  1  0  0  0  0
  2 22  1  0  0  0  0
  2  3  1  0  0  0  0
  2 26  1  0  0  0  0
  3  4  1  0  0  0  0
  3 27  1  0  0  0  0
  3 28  1  0  0  0  0
  4  5  1  0  0  0  0
  4 29  1  0  0  0  0
  4 30  1  0  0  0  0
  5  6  1  0  0  0  0
  5 21  1  0  0  0  0
  5 48  1  0  0  0  0
  6  7  1  0  0  0  0
  6 31  1  0  0  0  0
  6 32  1  0  0  0  0
  7  8  1  0  0  0  0
  7  9  1  0  0  0  0
  7 33  1  0  0  0  0
  8 34  1  0  0  0  0
  9 10  1  0  0  0  0
  9 35  1  0  0  0  0
  9 36  1  0  0  0  0
 10 20  1  0  0  0  0
 10 11  1  0  0  0  0
 11 12  1  0  0  0  0
 11 14  2  0  0  0  0
 12 13  1  0  0  0  0
 12 37  1  0  0  0  0
 12 38  1  0  0  0  0
 13 39  1  0  0  0  0
 14 15  1  0  0  0  0
 14 49  1  0  0  0  0
 15 20  2  0  0  0  0
 15 16  1  0  0  0  0
 16 17  2  0  0  0  0
 16 40  1  0  0  0  0
 17 18  1  0  0  0  0
 17 41  1  0  0  0  0
 18 19  2  0  0  0  0
 18 42  1  0  0  0  0
 19 20  1  0  0  0  0
 19 43  1  0  0  0  0
 21 22  1  0  0  0  0
 21 44  1  0  0  0  0
 21 45  1  0  0  0  0
 22 46  1  0  0  0  0
 22 47  1  0  0  0  0
M  CHG  1   5   1
M  CHG  1  14   1
M  END
> <s_m_source_file>
AV-unprocessed.smi

> <i_m_source_file_index>
1672

> <i_lp_mmshare_version>
43012

> <i_f3d_flags>
0

> <s_epik_input>
W0NIM11bQ0hdMVtDSDJdW0NIMl1OKFtDSDJdW0NIMl0xKVtDSDJdW0NASF0oW09IXSlbQ0gyXW4oYyhuMilbQ0gyXVtPSF0pYyhjMjMpW2NIXVtjSF1bY0hdW2NIXTM=

> <s_epik_cmdline>
J2VwaWtfcHl0aG9uJywgJy1waCcsICc3LjAnLCAnLXRuJywgJzgnLCAnLW1hJywgJzIwMCcsICctbWV0YWxfYmluZGluZycsICctaW1hZScsICc8aW5maWxlLm1hZT4nLCAnLW9tYWUnLCAnPG91dGZpbGUubWFlPic=

> <r_epik_Ionization_Penalty>
1.51642

> <r_epik_Ionization_Penalty_Charging>
1.51557

> <r_epik_Ionization_Penalty_Neutral>
0.000856474

> <r_epik_State_Penalty>
1.6048

> <r_epik_Charging_Adjusted_Penalty>
3.12037

> <i_epik_Tot_Q>
2

> <i_epik_Tot_abs_Q>
2

> <r_epik_Metal_State_Penalty>
5.65673

> <b_epik_Metal_Only>
0

> <s_lp_Force_Field>
OPLS_2005

> <r_lp_Energy>
31.8272

> <b_lp_Chiralities_Consistent>
1

> <s_lp_Variant>
AV-unprocessed.smi:1672-8

> <Gold.Version>
5.8.1

> <Gold.Id.Protein>
6NUR|6NUR_protein|mol2

> <Gold.PLP.Fitness>
47.9586

> <Gold.PLP.PLP>
-37.4304

> <Gold.PLP.part.hbond>
-3.4048

> <Gold.PLP.part.metal>
0.0000

> <Gold.PLP.part.buried>
-3.4243

> <Gold.PLP.part.nonpolar>
-30.5167

> <Gold.PLP.part.repulsive>
0.0979

> <Gold.PLP.ligand.clash>
0.0000

> <Gold.PLP.ligand.torsion>
0.0713

> <Gold.PLP.Chemscore.Hbond>
3.5440

> <Gold.PLP.Chemscore.CHOScore>
0.0000

> <Gold.PLP.Chemscore.Metal>
0.0000

> <Gold.Chemscore.Hbonds>
donor molecule, donor type, donor heavy atom, donor atom, acceptor molecule, acceptor atom, score
      L1  H    13    39       P1  7957  0.43
      L1  H    14    49       P1  8028  1.73
      P1  H  7989  7998       L1    13  0.32
      P1  H  8011  8017       L1    13  1.00

> <Gold.PLP.Chemscore.Internal.Correction>
0.0387

> <Gold.Rescore>
     Score         DG    S(hbond)    S(metal)    S(lipo)     H(rot)  DE(clash)    DE(int)     intcor
     16.78     -17.04       2.14        0.00     102.30       2.96       0.20       0.06       ----

> <Gold.Chemscore.Fitness>
16.7809

> <Gold.Chemscore.DG>
-17.0380

> <Gold.Chemscore.ZeroCoef>
-5.4800

> <Gold.Chemscore.Hbond>
2.1422

> <Gold.Chemscore.Metal>
0.0000

> <Gold.Chemscore.Lipo>
102.2989

> <Gold.Chemscore.Internal_Hbond>
0.0000

> <Gold.Chemscore.DEClash>
0.1971

> <Gold.Chemscore.DEInternal>
0.0599

> <Gold.Chemscore.Rot>
2.9555

> <Gold.Chemscore.Internal.Correction>
   9.000000E+99

> <Gold.Chemscore.Hbonds>
donor molecule, donor type, donor heavy atom, donor atom, acceptor molecule, acceptor atom, score
      L1  H    13    39       P1  7957  0.44
      L1  H    14    49       P1  8028  0.84
      P1  H  7989  7998       L1    13  0.30
      P1  H  8011  8017       L1    13  0.34

> <Gold.Chemscore.Hbond.Weighted>
-7.1550

> <Gold.Chemscore.Metal.Weighted>
-0.0000

> <Gold.Chemscore.Lipo.Weighted>
-11.9690

> <Gold.Chemscore.Internal_Hbond.Weighted>
0.0000

> <Gold.Chemscore.DEClash.Weighted>
0.1971

> <Gold.Chemscore.DEInternal.Weighted>
0.0599

> <Gold.Chemscore.Rot.Weighted>
7.5660

> <Gold.Chemscore.Internal.Correction.Weighted>
   9.000000E+99

> <Gold.Protein.RotatedTorsions>
[ 6907 6896 6895 6894 ] final   83.78 input  -60.11 | X-H torsion
[ 7974 7965 7964 7962 ] final  131.35 input  175.53 | X-H torsion
[ 8008 7997 7996 7995 ] final  -98.28 input   59.86 | X-H torsion
[ 10167 10162 10161 10158 ] final   25.93 input  -65.29 | X-H torsion
[ 10718 10713 10712 10709 ] final  -25.36 input   66.30 | X-H torsion
[ 10763 10752 10751 10750 ] final  130.18 input  -60.55 | X-H torsion
[ 11005 11000 10999 10996 ] final -153.19 input  -57.11 | X-H torsion

> <Gold.Protein.ActiveResidues>
 VAL166  LYS551  ARG553  GLY616  TRP617  ASP618  TYR619  PRO620  LYS621  CYS622 
 ASP623  PHE694  ASN695  SER759  ASP760  ASP761  ALA762  ILE779  LEU786  VAL792 
 PHE793  MET794  SER795  GLU796  ALA797  LYS798  CYS799  TRP800  GLU811  SER814 

> <Gold.Protein.RotatedAtoms>
  152.5336  134.2842  159.9018 H   0  0  0  0  0  0  0  0  0  0  0  0  # atno 6907 bound_to 6896
  151.2796  133.4209  159.2633 H   0  0  0  0  0  0  0  0  0  0  0  0  # atno 6908 bound_to 6896
  151.0295  134.9544  159.8160 H   0  0  0  0  0  0  0  0  0  0  0  0  # atno 6909 bound_to 6896
  145.0082  139.4246  143.5258 H   0  0  0  0  0  0  0  0  0  0  0  0  # atno 7974 bound_to 7965
  154.7990  140.0456  157.1258 H   0  0  0  0  0  0  0  0  0  0  0  0  # atno 8008 bound_to 7997
  154.9501  140.3064  155.5059 H   0  0  0  0  0  0  0  0  0  0  0  0  # atno 8009 bound_to 7997
  156.2959  140.2289  156.4578 H   0  0  0  0  0  0  0  0  0  0  0  0  # atno 8010 bound_to 7997
  140.5065  144.0230  150.6354 H   0  0  0  0  0  0  0  0  0  0  0  0  # atno 10167 bound_to 10162
  156.4653  130.4513  149.6903 H   0  0  0  0  0  0  0  0  0  0  0  0  # atno 10718 bound_to 10713
  153.7538  135.3206  155.3325 H   0  0  0  0  0  0  0  0  0  0  0  0  # atno 10763 bound_to 10752
  154.8254  135.4573  154.0905 H   0  0  0  0  0  0  0  0  0  0  0  0  # atno 10764 bound_to 10752
  153.2116  135.6936  153.8190 H   0  0  0  0  0  0  0  0  0  0  0  0  # atno 10765 bound_to 10752
  140.7108  134.3834  157.5198 H   0  0  0  0  0  0  0  0  0  0  0  0  # atno 11005 bound_to 11000
  146.3465  139.9511  142.8729 LP  0  0  0  0  0  0  0  0  0  0  0  0  # atno 17320 bound_to 7965
  145.2059  140.9875  143.4128 LP  0  0  0  0  0  0  0  0  0  0  0  0  # atno 17321 bound_to 7965
  140.3540  143.2946  152.0456 LP  0  0  0  0  0  0  0  0  0  0  0  0  # atno 17342 bound_to 10162
  139.4885  144.6352  151.6989 LP  0  0  0  0  0  0  0  0  0  0  0  0  # atno 17343 bound_to 10162
  156.3674  130.7512  151.2492 LP  0  0  0  0  0  0  0  0  0  0  0  0  # atno 17370 bound_to 10713
  157.7495  131.0333  150.4265 LP  0  0  0  0  0  0  0  0  0  0  0  0  # atno 17371 bound_to 10713
  139.8872  134.8889  156.2542 LP  0  0  0  0  0  0  0  0  0  0  0  0  # atno 17394 bound_to 11000
  141.0086  133.7109  156.1074 LP  0  0  0  0  0  0  0  0  0  0  0  0  # atno 17395 bound_to 11000

$$$$
