AV-unprocessed.smi:2070|AV-procd|sdf|8439|dock8
  -GOLD-   2272011143D 1   1.00000     0.00000
 Structure written by MMmdl.
 40 41  0  0  0  0  0  0  0  0  1 V2000
  153.3295  142.6807  162.3668 C   0  0  0  0  0  0  0  0  0  0  0  0
  152.7503  143.4742  161.2379 C   0  0  0  0  0  0  0  0  0  0  0  0
  152.3935  144.7993  161.2628 C   0  0  0  0  0  0  0  0  0  0  0  0
  151.7606  145.3313  159.7293 S   0  0  0  0  0  0  0  0  0  0  0  0
  151.9982  143.7049  159.1019 C   0  0  0  0  0  0  0  0  0  0  0  0
  151.6949  143.3213  157.6886 C   0  0  0  0  0  0  0  0  0  0  0  0
  151.1640  141.8826  157.5348 C   0  0  0  0  0  0  0  0  0  0  0  0
  149.9349  141.8175  156.7508 N   0  0  0  0  0  0  0  0  0  0  0  0
  149.8232  141.2809  155.5245 C   0  0  0  0  0  0  0  0  0  0  0  0
  150.7661  140.7132  154.9712 O   0  0  0  0  0  0  0  0  0  0  0  0
  148.5957  141.4091  154.9597 N   0  0  0  0  0  0  0  0  0  0  0  0
  148.2363  141.0675  153.5727 C   0  0  0  0  0  0  0  0  0  0  0  0
  147.4645  139.7360  153.5789 C   0  0  0  0  0  0  0  0  0  0  0  0
  146.2121  139.8231  154.4825 C   0  0  0  0  0  0  0  0  0  0  0  0
  145.5174  138.4595  154.5948 C   0  0  0  0  0  0  0  0  0  0  0  0
  144.2740  138.3685  154.1160 N   0  0  0  0  0  0  0  0  0  0  0  0
  146.0912  137.4999  155.1062 O   0  0  0  0  0  0  0  0  0  0  0  0
  146.5783  140.3788  155.8793 C   0  0  0  0  0  0  0  0  0  0  0  0
  147.3970  141.6781  155.7631 C   0  0  0  0  0  0  0  0  0  0  0  0
  152.5273  142.8673  159.9988 N   0  0  0  0  0  0  0  0  0  0  0  0
  154.4050  142.8399  162.4476 H   0  0  0  0  0  0  0  0  0  0  0  0
  153.1621  141.6116  162.2323 H   0  0  0  0  0  0  0  0  0  0  0  0
  152.8810  142.9642  163.3192 H   0  0  0  0  0  0  0  0  0  0  0  0
  152.4657  145.4929  162.0875 H   0  0  0  0  0  0  0  0  0  0  0  0
  150.9677  144.0283  157.2871 H   0  0  0  0  0  0  0  0  0  0  0  0
  152.5998  143.4457  157.0932 H   0  0  0  0  0  0  0  0  0  0  0  0
  151.9286  141.2385  157.0978 H   0  0  0  0  0  0  0  0  0  0  0  0
  150.9422  141.4724  158.5203 H   0  0  0  0  0  0  0  0  0  0  0  0
  149.1180  142.2588  157.1473 H   0  0  0  0  0  0  0  0  0  0  0  0
  147.6090  141.8589  153.1598 H   0  0  0  0  0  0  0  0  0  0  0  0
  149.0892  140.9980  152.8976 H   0  0  0  0  0  0  0  0  0  0  0  0
  147.1748  139.4734  152.5607 H   0  0  0  0  0  0  0  0  0  0  0  0
  148.1283  138.9432  153.9256 H   0  0  0  0  0  0  0  0  0  0  0  0
  145.5183  140.5266  154.0185 H   0  0  0  0  0  0  0  0  0  0  0  0
  143.7767  137.4914  154.1656 H   0  0  0  0  0  0  0  0  0  0  0  0
  143.8363  139.1796  153.7035 H   0  0  0  0  0  0  0  0  0  0  0  0
  145.6724  140.5664  156.4572 H   0  0  0  0  0  0  0  0  0  0  0  0
  147.1563  139.6433  156.4418 H   0  0  0  0  0  0  0  0  0  0  0  0
  147.6332  142.0607  156.7569 H   0  0  0  0  0  0  0  0  0  0  0  0
  146.8026  142.4561  155.2819 H   0  0  0  0  0  0  0  0  0  0  0  0
  1  2  1  0  0  0  0
  1 21  1  0  0  0  0
  1 22  1  0  0  0  0
  1 23  1  0  0  0  0
  2 20  1  0  0  0  0
  2  3  2  0  0  0  0
  3  4  1  0  0  0  0
  3 24  1  0  0  0  0
  4  5  1  0  0  0  0
  5  6  1  0  0  0  0
  5 20  2  0  0  0  0
  6  7  1  0  0  0  0
  6 25  1  0  0  0  0
  6 26  1  0  0  0  0
  7  8  1  0  0  0  0
  7 27  1  0  0  0  0
  7 28  1  0  0  0  0
  8  9  1  0  0  0  0
  8 29  1  0  0  0  0
  9 10  2  0  0  0  0
  9 11  1  0  0  0  0
 11 19  1  0  0  0  0
 11 12  1  0  0  0  0
 12 13  1  0  0  0  0
 12 30  1  0  0  0  0
 12 31  1  0  0  0  0
 13 14  1  0  0  0  0
 13 32  1  0  0  0  0
 13 33  1  0  0  0  0
 14 15  1  0  0  0  0
 14 18  1  0  0  0  0
 14 34  1  0  0  0  0
 15 16  1  0  0  0  0
 15 17  2  0  0  0  0
 16 35  1  0  0  0  0
 16 36  1  0  0  0  0
 18 19  1  0  0  0  0
 18 37  1  0  0  0  0
 18 38  1  0  0  0  0
 19 39  1  0  0  0  0
 19 40  1  0  0  0  0
M  END
> <s_m_source_file>
AV-unprocessed.smi

> <i_m_source_file_index>
2070

> <i_lp_mmshare_version>
43012

> <i_f3d_flags>
0

> <s_epik_input>
W0NIM11jMVtjSF1zYyhuMSlbQ0gyXVtDSDJdW05IXUMoPU8pTjJbQ0gyXVtDSDJdW0NIXShDKD1PKVtOSDJdKVtDSDJdW0NIMl0y

> <s_epik_cmdline>
J2VwaWtfcHl0aG9uJywgJy1waCcsICc3LjAnLCAnLXRuJywgJzgnLCAnLW1hJywgJzIwMCcsICctbWV0YWxfYmluZGluZycsICctaW1hZScsICc8aW5maWxlLm1hZT4nLCAnLW9tYWUnLCAnPG91dGZpbGUubWFlPic=

> <r_epik_Ionization_Penalty>
0.00203811

> <r_epik_Ionization_Penalty_Charging>
0

> <r_epik_Ionization_Penalty_Neutral>
0.00203811

> <r_epik_State_Penalty>
0.00135523

> <r_epik_Charging_Adjusted_Penalty>
0.00135523

> <i_epik_Tot_Q>
0

> <i_epik_Tot_abs_Q>
0

> <r_epik_Metal_State_Penalty>
-0

> <b_epik_Metal_Only>
0

> <s_lp_Force_Field>
OPLS_2005

> <r_lp_Energy>
19.595

> <b_lp_Chiralities_Consistent>
1

> <s_lp_Variant>
AV-unprocessed.smi:2070-1

> <Gold.Version>
5.8.1

> <Gold.Id.Protein>
6NUR|6NUR_protein|mol2

> <Gold.PLP.Fitness>
41.0905

> <Gold.PLP.PLP>
-37.8643

> <Gold.PLP.part.hbond>
-2.1739

> <Gold.PLP.part.metal>
0.0000

> <Gold.PLP.part.buried>
-0.7119

> <Gold.PLP.part.nonpolar>
-33.4588

> <Gold.PLP.part.repulsive>
0.1553

> <Gold.PLP.ligand.clash>
0.8333

> <Gold.PLP.ligand.torsion>
0.8437

> <Gold.PLP.Chemscore.Hbond>
1.8960

> <Gold.PLP.Chemscore.CHOScore>
0.0000

> <Gold.PLP.Chemscore.Metal>
0.0000

> <Gold.Chemscore.Hbonds>
donor molecule, donor type, donor heavy atom, donor atom, acceptor molecule, acceptor atom, score
      L1  H    16    36       P1 10175  1.00
      P1  H  7989  7998       L1    10  0.90

> <Gold.PLP.Chemscore.Internal.Correction>
0.0588

> <Gold.Rescore>
     Score         DG    S(hbond)    S(metal)    S(lipo)     H(rot)  DE(clash)    DE(int)     intcor
     16.45     -18.74       1.92        0.00     101.25       1.95       1.47       0.83       ----

> <Gold.Chemscore.Fitness>
16.4462

> <Gold.Chemscore.DG>
-18.7401

> <Gold.Chemscore.ZeroCoef>
-5.4800

> <Gold.Chemscore.Hbond>
1.9173

> <Gold.Chemscore.Metal>
0.0000

> <Gold.Chemscore.Lipo>
101.2495

> <Gold.Chemscore.Internal_Hbond>
0.0000

> <Gold.Chemscore.DEClash>
1.4669

> <Gold.Chemscore.DEInternal>
0.8270

> <Gold.Chemscore.Rot>
1.9492

> <Gold.Chemscore.Internal.Correction>
   9.000000E+99

> <Gold.Chemscore.Hbonds>
donor molecule, donor type, donor heavy atom, donor atom, acceptor molecule, acceptor atom, score
      L1  H    16    36       P1 10175  0.98
      P1  H  7989  7998       L1    10  0.88

> <Gold.Chemscore.Hbond.Weighted>
-6.4038

> <Gold.Chemscore.Metal.Weighted>
-0.0000

> <Gold.Chemscore.Lipo.Weighted>
-11.8462

> <Gold.Chemscore.Internal_Hbond.Weighted>
0.0000

> <Gold.Chemscore.DEClash.Weighted>
1.4669

> <Gold.Chemscore.DEInternal.Weighted>
0.8270

> <Gold.Chemscore.Rot.Weighted>
4.9900

> <Gold.Chemscore.Internal.Correction.Weighted>
   9.000000E+99

> <Gold.Protein.RotatedTorsions>
[ 6907 6896 6895 6894 ] final  110.52 input  -60.11 | X-H torsion
[ 7974 7965 7964 7962 ] final -122.76 input  175.53 | X-H torsion
[ 8008 7997 7996 7995 ] final -163.47 input   59.86 | X-H torsion
[ 10167 10162 10161 10158 ] final -139.44 input  -65.29 | X-H torsion
[ 10718 10713 10712 10709 ] final -126.98 input   66.30 | X-H torsion
[ 10763 10752 10751 10750 ] final   80.90 input  -60.55 | X-H torsion
[ 11005 11000 10999 10996 ] final  -60.61 input  -57.11 | X-H torsion

> <Gold.Protein.ActiveResidues>
 VAL166  LYS551  ARG553  GLY616  TRP617  ASP618  TYR619  PRO620  LYS621  CYS622 
 ASP623  PHE694  ASN695  SER759  ASP760  ASP761  ALA762  ILE779  LEU786  VAL792 
 PHE793  MET794  SER795  GLU796  ALA797  LYS798  CYS799  TRP800  GLU811  SER814 

> <Gold.Protein.RotatedAtoms>
  152.5015  133.8789  159.7335 H   0  0  0  0  0  0  0  0  0  0  0  0  # atno 6907 bound_to 6896
  150.9256  133.6819  159.2829 H   0  0  0  0  0  0  0  0  0  0  0  0  # atno 6908 bound_to 6896
  151.4181  135.0998  159.9658 H   0  0  0  0  0  0  0  0  0  0  0  0  # atno 6909 bound_to 6896
  145.0259  140.8027  143.4352 H   0  0  0  0  0  0  0  0  0  0  0  0  # atno 7974 bound_to 7965
  155.8217  140.0920  157.1845 H   0  0  0  0  0  0  0  0  0  0  0  0  # atno 8008 bound_to 7997
  154.3979  140.1435  156.3568 H   0  0  0  0  0  0  0  0  0  0  0  0  # atno 8009 bound_to 7997
  155.8259  140.3444  155.5545 H   0  0  0  0  0  0  0  0  0  0  0  0  # atno 8010 bound_to 7997
  139.8380  143.7360  152.2664 H   0  0  0  0  0  0  0  0  0  0  0  0  # atno 10167 bound_to 10162
  156.1815  130.6735  151.0311 H   0  0  0  0  0  0  0  0  0  0  0  0  # atno 10718 bound_to 10713
  153.1072  135.4785  154.8972 H   0  0  0  0  0  0  0  0  0  0  0  0  # atno 10763 bound_to 10752
  154.7442  135.3090  154.8676 H   0  0  0  0  0  0  0  0  0  0  0  0  # atno 10764 bound_to 10752
  153.9275  135.6848  153.4799 H   0  0  0  0  0  0  0  0  0  0  0  0  # atno 10765 bound_to 10752
  141.1294  133.6623  156.5250 H   0  0  0  0  0  0  0  0  0  0  0  0  # atno 11005 bound_to 11000
  145.1834  139.2340  143.5280 LP  0  0  0  0  0  0  0  0  0  0  0  0  # atno 17320 bound_to 7965
  146.3492  140.1613  142.8591 LP  0  0  0  0  0  0  0  0  0  0  0  0  # atno 17321 bound_to 7965
  139.7588  144.7513  151.0395 LP  0  0  0  0  0  0  0  0  0  0  0  0  # atno 17342 bound_to 10162
  140.7801  143.4775  151.0063 LP  0  0  0  0  0  0  0  0  0  0  0  0  # atno 17343 bound_to 10162
  157.6871  131.0821  150.7212 LP  0  0  0  0  0  0  0  0  0  0  0  0  # atno 17370 bound_to 10713
  156.7269  130.4697  149.5509 LP  0  0  0  0  0  0  0  0  0  0  0  0  # atno 17371 bound_to 10713
  140.4261  134.7143  157.4917 LP  0  0  0  0  0  0  0  0  0  0  0  0  # atno 17394 bound_to 11000
  140.0326  134.6384  155.9086 LP  0  0  0  0  0  0  0  0  0  0  0  0  # atno 17395 bound_to 11000

$$$$
