AV-unprocessed.smi:1219|AV-procd|sdf|5112|dock2
  -GOLD-   22720 4163D 1   1.00000     0.00000
 Structure written by MMmdl.
 43 44  0  0  0  0  0  0  0  0  2 V2000
  146.6477  139.7462  153.7103 O   0  0  0  0  0  0  0  0  0  0  0  0
  147.3704  138.8674  153.2398 C   0  0  0  0  0  0  0  0  0  0  0  0
  146.9204  137.9020  152.4256 N   0  0  0  0  0  0  0  0  0  0  0  0
  145.5305  137.7323  152.0143 C   0  0  0  0  0  0  0  0  0  0  0  0
  145.1482  136.2463  151.8472 C   0  0  2  0  0  0  0  0  0  0  0  0
  145.5095  135.5552  153.0270 O   0  0  0  0  0  0  0  0  0  0  0  0
  145.9262  135.5927  150.6863 C   0  0  0  0  0  0  0  0  0  0  0  0
  145.5649  134.1659  150.4817 N   0  3  0  0  0  0  0  0  0  0  0  0
  144.1224  133.9108  150.7327 C   0  0  0  0  0  0  0  0  0  0  0  0
  143.7417  132.4645  150.3745 C   0  0  0  0  0  0  0  0  0  0  0  0
  144.6121  131.4606  151.1410 C   0  0  0  0  0  0  0  0  0  0  0  0
  146.0963  131.7618  150.8963 C   0  0  0  0  0  0  0  0  0  0  0  0
  146.4279  133.2231  151.2434 C   0  0  0  0  0  0  0  0  0  0  0  0
  148.6903  138.7413  153.4631 N   0  0  0  0  0  0  0  0  0  0  0  0
  149.5226  139.5494  154.2828 C   0  0  0  0  0  0  0  0  0  0  0  0
  150.7739  138.9799  154.6106 C   0  0  0  0  0  0  0  0  0  0  0  0
  151.6709  139.6996  155.4236 C   0  0  0  0  0  0  0  0  0  0  0  0
  151.2938  140.9723  155.8874 C   0  0  0  0  0  0  0  0  0  0  0  0
  150.0310  141.4669  155.5130 C   0  0  0  0  0  0  0  0  0  0  0  0
  149.1694  140.7788  154.7343 N   0  0  0  0  0  0  0  0  0  0  0  0
  147.5826  137.2203  152.0850 H   0  0  0  0  0  0  0  0  0  0  0  0
  144.9322  138.1730  152.8121 H   0  0  0  0  0  0  0  0  0  0  0  0
  145.3057  138.3124  151.1171 H   0  0  0  0  0  0  0  0  0  0  0  0
  144.0738  136.1585  151.6874 H   0  0  0  0  0  0  0  0  0  0  0  0
  146.0376  134.8071  152.7875 H   0  0  0  0  0  0  0  0  0  0  0  0
  145.7618  136.1385  149.7561 H   0  0  0  0  0  0  0  0  0  0  0  0
  146.9934  135.6757  150.8998 H   0  0  0  0  0  0  0  0  0  0  0  0
  143.8930  134.1136  151.7802 H   0  0  0  0  0  0  0  0  0  0  0  0
  143.5171  134.5949  150.1369 H   0  0  0  0  0  0  0  0  0  0  0  0
  142.6887  132.2900  150.5969 H   0  0  0  0  0  0  0  0  0  0  0  0
  143.8612  132.3100  149.3013 H   0  0  0  0  0  0  0  0  0  0  0  0
  144.3936  131.5208  152.2081 H   0  0  0  0  0  0  0  0  0  0  0  0
  144.3768  130.4422  150.8303 H   0  0  0  0  0  0  0  0  0  0  0  0
  146.7148  131.0879  151.4897 H   0  0  0  0  0  0  0  0  0  0  0  0
  146.3428  131.5685  149.8514 H   0  0  0  0  0  0  0  0  0  0  0  0
  147.4790  133.4063  151.0242 H   0  0  0  0  0  0  0  0  0  0  0  0
  146.2959  133.3916  152.3134 H   0  0  0  0  0  0  0  0  0  0  0  0
  149.1515  137.9682  153.0072 H   0  0  0  0  0  0  0  0  0  0  0  0
  151.0477  138.0004  154.2464 H   0  0  0  0  0  0  0  0  0  0  0  0
  152.6310  139.2812  155.6871 H   0  0  0  0  0  0  0  0  0  0  0  0
  151.9543  141.5540  156.5133 H   0  0  0  0  0  0  0  0  0  0  0  0
  149.7026  142.4396  155.8483 H   0  0  0  0  0  0  0  0  0  0  0  0
  145.7159  133.9795  149.5000 H   0  0  0  0  0  0  0  0  0  0  0  0
  1  2  2  0  0  0  0
  2  3  1  0  0  0  0
  2 14  1  0  0  0  0
  3  4  1  0  0  0  0
  3 21  1  0  0  0  0
  4  5  1  0  0  0  0
  4 22  1  0  0  0  0
  4 23  1  0  0  0  0
  5  6  1  0  0  0  0
  5  7  1  0  0  0  0
  5 24  1  0  0  0  0
  6 25  1  0  0  0  0
  7  8  1  0  0  0  0
  7 26  1  0  0  0  0
  7 27  1  0  0  0  0
  8 13  1  0  0  0  0
  8  9  1  0  0  0  0
  8 43  1  0  0  0  0
  9 10  1  0  0  0  0
  9 28  1  0  0  0  0
  9 29  1  0  0  0  0
 10 11  1  0  0  0  0
 10 30  1  0  0  0  0
 10 31  1  0  0  0  0
 11 12  1  0  0  0  0
 11 32  1  0  0  0  0
 11 33  1  0  0  0  0
 12 13  1  0  0  0  0
 12 34  1  0  0  0  0
 12 35  1  0  0  0  0
 13 36  1  0  0  0  0
 13 37  1  0  0  0  0
 14 15  1  0  0  0  0
 14 38  1  0  0  0  0
 15 20  1  0  0  0  0
 15 16  2  0  0  0  0
 16 17  1  0  0  0  0
 16 39  1  0  0  0  0
 17 18  2  0  0  0  0
 17 40  1  0  0  0  0
 18 19  1  0  0  0  0
 18 41  1  0  0  0  0
 19 20  2  0  0  0  0
 19 42  1  0  0  0  0
M  CHG  1   8   1
M  END
> <s_m_source_file>
AV-unprocessed.smi

> <i_m_source_file_index>
1219

> <i_lp_mmshare_version>
43012

> <i_f3d_flags>
0

> <s_epik_input>
bjFbY0hdW2NIXVtjSF1bY0hdYzFbTkhdQyg9TylbTkhdW0NIMl1bQ0BIXShbT0hdKVtDSDJdTjJbQ0gyXVtDSDJdW0NIMl1bQ0gyXVtDSDJdMg==

> <s_epik_cmdline>
J2VwaWtfcHl0aG9uJywgJy1waCcsICc3LjAnLCAnLXRuJywgJzgnLCAnLW1hJywgJzIwMCcsICctbWV0YWxfYmluZGluZycsICctaW1hZScsICc8aW5maWxlLm1hZT4nLCAnLW9tYWUnLCAnPG91dGZpbGUubWFlPic=

> <r_epik_Ionization_Penalty>
0.00510026

> <r_epik_Ionization_Penalty_Charging>
0.00506051

> <r_epik_Ionization_Penalty_Neutral>
3.97538e-05

> <r_epik_State_Penalty>
0.00368188

> <r_epik_Charging_Adjusted_Penalty>
0.0087424

> <i_epik_Tot_Q>
1

> <i_epik_Tot_abs_Q>
1

> <r_epik_Metal_State_Penalty>
-0

> <b_epik_Metal_Only>
0

> <s_lp_Force_Field>
OPLS_2005

> <r_lp_Energy>
20.5821

> <b_lp_Chiralities_Consistent>
1

> <s_lp_Variant>
AV-unprocessed.smi:1219-1

> <Gold.Version>
5.8.1

> <Gold.Id.Protein>
6NUR|6NUR_protein|mol2

> <Gold.PLP.Fitness>
48.6121

> <Gold.PLP.PLP>
-37.9607

> <Gold.PLP.part.hbond>
-4.0000

> <Gold.PLP.part.metal>
0.0000

> <Gold.PLP.part.buried>
-1.0819

> <Gold.PLP.part.nonpolar>
-33.0085

> <Gold.PLP.part.repulsive>
0.4634

> <Gold.PLP.ligand.clash>
0.0000

> <Gold.PLP.ligand.torsion>
0.5942

> <Gold.PLP.Chemscore.Hbond>
2.9032

> <Gold.PLP.Chemscore.CHOScore>
1.0000

> <Gold.PLP.Chemscore.Metal>
0.0000

> <Gold.Chemscore.Hbonds>
donor molecule, donor type, donor heavy atom, donor atom, acceptor molecule, acceptor atom, score
      L1  H     3    21       P1  7948  1.00
      L1  H     8    43       P1  7921  0.80
      L1  H    14    38       P1  7948  0.89
      L1  C    19    42       P1  8028  1.00

> <Gold.PLP.Chemscore.Internal.Correction>
0.1303

> <Gold.Rescore>
     Score         DG    S(hbond)    S(metal)    S(lipo)     H(rot)  DE(clash)    DE(int)     intcor
     15.18     -19.31       2.77        0.00      91.89       2.41       2.26       1.86       ----

> <Gold.Chemscore.Fitness>
15.1818

> <Gold.Chemscore.DG>
-19.3091

> <Gold.Chemscore.ZeroCoef>
-5.4800

> <Gold.Chemscore.Hbond>
2.7662

> <Gold.Chemscore.Metal>
0.0000

> <Gold.Chemscore.Lipo>
91.8914

> <Gold.Chemscore.Internal_Hbond>
0.0000

> <Gold.Chemscore.DEClash>
2.2632

> <Gold.Chemscore.DEInternal>
1.8641

> <Gold.Chemscore.Rot>
2.4067

> <Gold.Chemscore.Internal.Correction>
   9.000000E+99

> <Gold.Chemscore.Hbonds>
donor molecule, donor type, donor heavy atom, donor atom, acceptor molecule, acceptor atom, score
      L1  H     3    21       P1  7948  1.00
      L1  H     8    43       P1  7921  0.38
      L1  H    14    38       P1  7948  0.81

> <Gold.Chemscore.Hbond.Weighted>
-9.2391

> <Gold.Chemscore.Metal.Weighted>
-0.0000

> <Gold.Chemscore.Lipo.Weighted>
-10.7513

> <Gold.Chemscore.Internal_Hbond.Weighted>
0.0000

> <Gold.Chemscore.DEClash.Weighted>
2.2632

> <Gold.Chemscore.DEInternal.Weighted>
1.8641

> <Gold.Chemscore.Rot.Weighted>
6.1612

> <Gold.Chemscore.Internal.Correction.Weighted>
   9.000000E+99

> <Gold.Protein.RotatedTorsions>
[ 6907 6896 6895 6894 ] final  -96.39 input  -60.11 | X-H torsion
[ 7974 7965 7964 7962 ] final  -28.20 input  175.53 | X-H torsion
[ 8008 7997 7996 7995 ] final  118.09 input   59.86 | X-H torsion
[ 10167 10162 10161 10158 ] final   87.03 input  -65.29 | X-H torsion
[ 10718 10713 10712 10709 ] final   26.58 input   66.30 | X-H torsion
[ 10763 10752 10751 10750 ] final  117.65 input  -60.55 | X-H torsion
[ 11005 11000 10999 10996 ] final  -96.65 input  -57.11 | X-H torsion

> <Gold.Protein.ActiveResidues>
 VAL166  LYS551  ARG553  GLY616  TRP617  ASP618  TYR619  PRO620  LYS621  CYS622 
 ASP623  PHE694  ASN695  SER759  ASP760  ASP761  ALA762  ILE779  LEU786  VAL792 
 PHE793  MET794  SER795  GLU796  ALA797  LYS798  CYS799  TRP800  GLU811  SER814 

> <Gold.Protein.RotatedAtoms>
  150.6988  134.1510  159.4139 H   0  0  0  0  0  0  0  0  0  0  0  0  # atno 6907 bound_to 6896
  151.9492  135.0175  160.0550 H   0  0  0  0  0  0  0  0  0  0  0  0  # atno 6908 bound_to 6896
  152.2026  133.4817  159.5103 H   0  0  0  0  0  0  0  0  0  0  0  0  # atno 6909 bound_to 6896
  146.1304  140.5252  142.8696 H   0  0  0  0  0  0  0  0  0  0  0  0  # atno 7974 bound_to 7965
  156.2528  140.2882  156.0781 H   0  0  0  0  0  0  0  0  0  0  0  0  # atno 8008 bound_to 7997
  155.1597  140.0399  157.2857 H   0  0  0  0  0  0  0  0  0  0  0  0  # atno 8009 bound_to 7997
  154.6402  140.2520  155.7338 H   0  0  0  0  0  0  0  0  0  0  0  0  # atno 8010 bound_to 7997
  139.8815  144.6437  150.8838 H   0  0  0  0  0  0  0  0  0  0  0  0  # atno 10167 bound_to 10162
  157.2087  130.6924  149.6219 H   0  0  0  0  0  0  0  0  0  0  0  0  # atno 10718 bound_to 10713
  153.5556  135.3531  155.2778 H   0  0  0  0  0  0  0  0  0  0  0  0  # atno 10763 bound_to 10752
  154.8701  135.4124  154.2888 H   0  0  0  0  0  0  0  0  0  0  0  0  # atno 10764 bound_to 10752
  153.3623  135.7060  153.6771 H   0  0  0  0  0  0  0  0  0  0  0  0  # atno 10765 bound_to 10752
  141.1404  133.8113  157.0600 H   0  0  0  0  0  0  0  0  0  0  0  0  # atno 11005 bound_to 11000
  144.7685  140.5585  143.6686 LP  0  0  0  0  0  0  0  0  0  0  0  0  # atno 17320 bound_to 7965
  145.5272  139.1475  143.3519 LP  0  0  0  0  0  0  0  0  0  0  0  0  # atno 17321 bound_to 7965
  140.7743  143.3582  151.1879 LP  0  0  0  0  0  0  0  0  0  0  0  0  # atno 17342 bound_to 10162
  139.7192  143.9251  152.2979 LP  0  0  0  0  0  0  0  0  0  0  0  0  # atno 17343 bound_to 10162
  155.9693  130.4558  150.5902 LP  0  0  0  0  0  0  0  0  0  0  0  0  # atno 17370 bound_to 10713
  157.3694  131.0763  151.1570 LP  0  0  0  0  0  0  0  0  0  0  0  0  # atno 17371 bound_to 10713
  140.0577  134.9771  157.1250 LP  0  0  0  0  0  0  0  0  0  0  0  0  # atno 17394 bound_to 11000
  140.3894  134.2200  155.7167 LP  0  0  0  0  0  0  0  0  0  0  0  0  # atno 17395 bound_to 11000

$$$$
