AV-unprocessed.smi:486|AV-procd|sdf|2698|dock9
  -GOLD-   2262023133D 1   1.00000     0.00000
 Structure written by MMmdl.
 44 46  0  0  0  0  0  0  0  0  2 V2000
  145.3234  132.7513  162.1664 C   0  0  0  0  0  0  0  0  0  0  0  0
  145.9339  133.8995  162.7371 O   0  0  0  0  0  0  0  0  0  0  0  0
  146.6544  134.7315  161.9071 C   0  0  0  0  0  0  0  0  0  0  0  0
  147.1457  135.9275  162.4662 C   0  0  0  0  0  0  0  0  0  0  0  0
  147.8925  136.8328  161.6888 C   0  0  0  0  0  0  0  0  0  0  0  0
  148.1679  136.5639  160.3339 C   0  0  0  0  0  0  0  0  0  0  0  0
  148.9076  137.5022  159.6463 O   0  0  0  0  0  0  0  0  0  0  0  0
  149.0787  137.3307  158.2455 C   0  0  0  0  0  0  0  0  0  0  0  0
  149.2026  138.7143  157.5886 C   0  0  1  0  0  0  0  0  0  0  0  0
  148.2848  139.5899  158.2130 O   0  0  0  0  0  0  0  0  0  0  0  0
  150.6268  139.2885  157.7267 C   0  0  0  0  0  0  0  0  0  0  0  0
  150.6848  140.7407  157.4925 N   0  0  0  0  0  0  0  0  0  0  0  0
  150.1166  141.4891  156.5043 C   0  0  0  0  0  0  0  0  0  0  0  0
  149.2666  140.9886  155.3853 C   0  0  0  0  0  0  0  0  0  0  0  0
  150.4707  142.7864  156.7242 N   0  3  0  0  0  0  0  0  0  0  0  0
  151.2704  142.8704  157.8645 C   0  0  0  0  0  0  0  0  0  0  0  0
  151.8649  143.9676  158.4799 C   0  0  0  0  0  0  0  0  0  0  0  0
  152.6207  143.7087  159.6421 C   0  0  0  0  0  0  0  0  0  0  0  0
  152.7617  142.4009  160.1497 C   0  0  0  0  0  0  0  0  0  0  0  0
  152.1558  141.2961  159.5158 C   0  0  0  0  0  0  0  0  0  0  0  0
  151.4113  141.5598  158.3658 C   0  0  0  0  0  0  0  0  0  0  0  0
  147.6749  135.3630  159.7666 C   0  0  0  0  0  0  0  0  0  0  0  0
  146.9262  134.4578  160.5440 C   0  0  0  0  0  0  0  0  0  0  0  0
  144.8023  132.1963  162.9461 H   0  0  0  0  0  0  0  0  0  0  0  0
  146.0640  132.0827  161.7256 H   0  0  0  0  0  0  0  0  0  0  0  0
  144.5877  133.0260  161.4094 H   0  0  0  0  0  0  0  0  0  0  0  0
  146.9488  136.1542  163.5038 H   0  0  0  0  0  0  0  0  0  0  0  0
  148.2591  137.7435  162.1393 H   0  0  0  0  0  0  0  0  0  0  0  0
  149.9501  136.7140  158.0168 H   0  0  0  0  0  0  0  0  0  0  0  0
  148.1972  136.8224  157.8512 H   0  0  0  0  0  0  0  0  0  0  0  0
  148.9527  138.6387  156.5296 H   0  0  0  0  0  0  0  0  0  0  0  0
  148.6481  139.8597  159.0432 H   0  0  0  0  0  0  0  0  0  0  0  0
  151.0537  139.0608  158.7036 H   0  0  0  0  0  0  0  0  0  0  0  0
  151.2866  138.8214  156.9945 H   0  0  0  0  0  0  0  0  0  0  0  0
  148.8917  141.8191  154.7866 H   0  0  0  0  0  0  0  0  0  0  0  0
  148.4150  140.4330  155.7779 H   0  0  0  0  0  0  0  0  0  0  0  0
  149.8467  140.3288  154.7401 H   0  0  0  0  0  0  0  0  0  0  0  0
  151.7563  144.9705  158.0937 H   0  0  0  0  0  0  0  0  0  0  0  0
  153.0997  144.5299  160.1556 H   0  0  0  0  0  0  0  0  0  0  0  0
  153.3450  142.2412  161.0449 H   0  0  0  0  0  0  0  0  0  0  0  0
  152.2656  140.3000  159.9181 H   0  0  0  0  0  0  0  0  0  0  0  0
  147.8567  135.1104  158.7332 H   0  0  0  0  0  0  0  0  0  0  0  0
  146.5714  133.5562  160.0687 H   0  0  0  0  0  0  0  0  0  0  0  0
  150.1840  143.5577  156.1353 H   0  0  0  0  0  0  0  0  0  0  0  0
  1  2  1  0  0  0  0
  1 24  1  0  0  0  0
  1 25  1  0  0  0  0
  1 26  1  0  0  0  0
  2  3  1  0  0  0  0
  3 23  1  0  0  0  0
  3  4  2  0  0  0  0
  4  5  1  0  0  0  0
  4 27  1  0  0  0  0
  5  6  2  0  0  0  0
  5 28  1  0  0  0  0
  6  7  1  0  0  0  0
  6 22  1  0  0  0  0
  7  8  1  0  0  0  0
  8  9  1  0  0  0  0
  8 29  1  0  0  0  0
  8 30  1  0  0  0  0
  9 10  1  0  0  0  0
  9 11  1  0  0  0  0
  9 31  1  0  0  0  0
 10 32  1  0  0  0  0
 11 12  1  0  0  0  0
 11 33  1  0  0  0  0
 11 34  1  0  0  0  0
 12 21  1  0  0  0  0
 12 13  1  0  0  0  0
 13 14  1  0  0  0  0
 13 15  2  0  0  0  0
 14 35  1  0  0  0  0
 14 36  1  0  0  0  0
 14 37  1  0  0  0  0
 15 16  1  0  0  0  0
 15 44  1  0  0  0  0
 16 21  2  0  0  0  0
 16 17  1  0  0  0  0
 17 18  2  0  0  0  0
 17 38  1  0  0  0  0
 18 19  1  0  0  0  0
 18 39  1  0  0  0  0
 19 20  2  0  0  0  0
 19 40  1  0  0  0  0
 20 21  1  0  0  0  0
 20 41  1  0  0  0  0
 22 23  2  0  0  0  0
 22 42  1  0  0  0  0
 23 43  1  0  0  0  0
M  CHG  1  15   1
M  END
> <s_m_source_file>
AV-unprocessed.smi

> <i_m_source_file_index>
486

> <i_lp_mmshare_version>
43012

> <i_f3d_flags>
0

> <s_epik_input>
W0NIM11PYzFbY0hdW2NIXWMoW2NIXVtjSF0xKU9bQ0gyXVtDQEhdKFtPSF0pW0NIMl1uKGMobjIpW0NIM10pYyhjMjMpW2NIXVtjSF1bY0hdW2NIXTM=

> <s_epik_cmdline>
J2VwaWtfcHl0aG9uJywgJy1waCcsICc3LjAnLCAnLXRuJywgJzgnLCAnLW1hJywgJzIwMCcsICctbWV0YWxfYmluZGluZycsICctaW1hZScsICc8aW5maWxlLm1hZT4nLCAnLW9tYWUnLCAnPG91dGZpbGUubWFlPic=

> <r_lp_tautomer_probability>
1

> <r_epik_Ionization_Penalty>
1.03234

> <r_epik_Ionization_Penalty_Charging>
1.03234

> <r_epik_Ionization_Penalty_Neutral>
2.3993e-06

> <r_epik_State_Penalty>
1.0836

> <r_epik_Charging_Adjusted_Penalty>
2.11594

> <i_epik_Tot_Q>
1

> <i_epik_Tot_abs_Q>
1

> <r_epik_Metal_State_Penalty>
5.07275

> <b_epik_Metal_Only>
0

> <s_lp_Force_Field>
OPLS_2005

> <r_lp_Energy>
23.3843

> <b_lp_Chiralities_Consistent>
1

> <s_lp_Variant>
AV-unprocessed.smi:486-4

> <Gold.Version>
5.8.1

> <Gold.Id.Protein>
6NUR|6NUR_protein|mol2

> <Gold.PLP.Fitness>
52.4744

> <Gold.PLP.PLP>
-47.9894

> <Gold.PLP.part.hbond>
-4.0406

> <Gold.PLP.part.metal>
0.0000

> <Gold.PLP.part.buried>
-3.5341

> <Gold.PLP.part.nonpolar>
-40.9601

> <Gold.PLP.part.repulsive>
0.0729

> <Gold.PLP.ligand.clash>
0.0000

> <Gold.PLP.ligand.torsion>
0.7904

> <Gold.PLP.Chemscore.Hbond>
1.9840

> <Gold.PLP.Chemscore.CHOScore>
0.0000

> <Gold.PLP.Chemscore.Metal>
0.0000

> <Gold.Chemscore.Hbonds>
donor molecule, donor type, donor heavy atom, donor atom, acceptor molecule, acceptor atom, score
      L1  H    15    44       P1  8028  1.95

> <Gold.PLP.Chemscore.Internal.Correction>
0.1139

> <Gold.Rescore>
     Score         DG    S(hbond)    S(metal)    S(lipo)     H(rot)  DE(clash)    DE(int)     intcor
     15.91     -16.73       0.96        0.00     121.06       2.40       0.06       0.77       ----

> <Gold.Chemscore.Fitness>
15.9069

> <Gold.Chemscore.DG>
-16.7295

> <Gold.Chemscore.ZeroCoef>
-5.4800

> <Gold.Chemscore.Hbond>
0.9632

> <Gold.Chemscore.Metal>
0.0000

> <Gold.Chemscore.Lipo>
121.0599

> <Gold.Chemscore.Internal_Hbond>
0.0000

> <Gold.Chemscore.DEClash>
0.0575

> <Gold.Chemscore.DEInternal>
0.7651

> <Gold.Chemscore.Rot>
2.3952

> <Gold.Chemscore.Internal.Correction>
   9.000000E+99

> <Gold.Chemscore.Hbonds>
donor molecule, donor type, donor heavy atom, donor atom, acceptor molecule, acceptor atom, score
      L1  H    15    44       P1  8028  0.93

> <Gold.Chemscore.Hbond.Weighted>
-3.2171

> <Gold.Chemscore.Metal.Weighted>
-0.0000

> <Gold.Chemscore.Lipo.Weighted>
-14.1640

> <Gold.Chemscore.Internal_Hbond.Weighted>
0.0000

> <Gold.Chemscore.DEClash.Weighted>
0.0575

> <Gold.Chemscore.DEInternal.Weighted>
0.7651

> <Gold.Chemscore.Rot.Weighted>
6.1316

> <Gold.Chemscore.Internal.Correction.Weighted>
   9.000000E+99

> <Gold.Protein.RotatedTorsions>
[ 6907 6896 6895 6894 ] final -131.19 input  -60.11 | X-H torsion
[ 7974 7965 7964 7962 ] final  -25.78 input  175.53 | X-H torsion
[ 8008 7997 7996 7995 ] final   52.05 input   59.86 | X-H torsion
[ 10167 10162 10161 10158 ] final  177.66 input  -65.29 | X-H torsion
[ 10718 10713 10712 10709 ] final  169.09 input   66.30 | X-H torsion
[ 10763 10752 10751 10750 ] final  -67.95 input  -60.55 | X-H torsion
[ 11005 11000 10999 10996 ] final -117.02 input  -57.11 | X-H torsion

> <Gold.Protein.ActiveResidues>
 VAL166  LYS551  ARG553  GLY616  TRP617  ASP618  TYR619  PRO620  LYS621  CYS622 
 ASP623  PHE694  ASN695  SER759  ASP760  ASP761  ALA762  ILE779  LEU786  VAL792 
 PHE793  MET794  SER795  GLU796  ALA797  LYS798  CYS799  TRP800  GLU811  SER814 

> <Gold.Protein.RotatedAtoms>
  150.9482  133.6579  159.2776 H   0  0  0  0  0  0  0  0  0  0  0  0  # atno 6907 bound_to 6896
  151.3945  135.0960  159.9546 H   0  0  0  0  0  0  0  0  0  0  0  0  # atno 6908 bound_to 6896
  152.5098  133.8989  159.7486 H   0  0  0  0  0  0  0  0  0  0  0  0  # atno 6909 bound_to 6896
  146.1468  140.4932  142.8628 H   0  0  0  0  0  0  0  0  0  0  0  0  # atno 7974 bound_to 7965
  155.4454  140.3456  155.4294 H   0  0  0  0  0  0  0  0  0  0  0  0  # atno 8008 bound_to 7997
  156.1253  140.1498  156.9175 H   0  0  0  0  0  0  0  0  0  0  0  0  # atno 8009 bound_to 7997
  154.4853  140.0857  156.7452 H   0  0  0  0  0  0  0  0  0  0  0  0  # atno 8010 bound_to 7997
  139.5262  144.2772  152.0578 H   0  0  0  0  0  0  0  0  0  0  0  0  # atno 10167 bound_to 10162
  157.0276  131.0250  151.2755 H   0  0  0  0  0  0  0  0  0  0  0  0  # atno 10718 bound_to 10713
  154.3820  135.6072  153.5796 H   0  0  0  0  0  0  0  0  0  0  0  0  # atno 10763 bound_to 10752
  152.9788  135.5863  154.4399 H   0  0  0  0  0  0  0  0  0  0  0  0  # atno 10764 bound_to 10752
  154.4170  135.2845  155.1978 H   0  0  0  0  0  0  0  0  0  0  0  0  # atno 10765 bound_to 10752
  141.0383  133.9875  157.3036 H   0  0  0  0  0  0  0  0  0  0  0  0  # atno 11005 bound_to 11000
  144.7856  140.5930  143.6576 LP  0  0  0  0  0  0  0  0  0  0  0  0  # atno 17320 bound_to 7965
  145.4917  139.1488  143.3706 LP  0  0  0  0  0  0  0  0  0  0  0  0  # atno 17321 bound_to 7965
  140.2228  144.4448  150.6334 LP  0  0  0  0  0  0  0  0  0  0  0  0  # atno 17342 bound_to 10162
  140.6407  143.2203  151.6297 LP  0  0  0  0  0  0  0  0  0  0  0  0  # atno 17343 bound_to 10162
  157.5202  130.7993  149.7801 LP  0  0  0  0  0  0  0  0  0  0  0  0  # atno 17370 bound_to 10713
  156.0080  130.3846  150.2361 LP  0  0  0  0  0  0  0  0  0  0  0  0  # atno 17371 bound_to 10713
  139.9257  135.0201  156.8224 LP  0  0  0  0  0  0  0  0  0  0  0  0  # atno 17394 bound_to 11000
  140.6282  133.9930  155.7649 LP  0  0  0  0  0  0  0  0  0  0  0  0  # atno 17395 bound_to 11000

$$$$
