AV-unprocessed.smi:970|AV-procd|sdf|4292|dock4
  -GOLD-   22720 2193D 1   1.00000     0.00000
 Structure written by MMmdl.
 31 31  0  0  0  0  0  0  0  0  1 V2000
  150.9435  145.2440  160.2613 C   0  0  0  0  0  0  0  0  0  0  0  0
  151.7377  144.2340  159.5795 N   0  0  0  0  0  0  0  0  0  0  0  0
  152.0197  143.0262  160.0881 C   0  0  0  0  0  0  0  0  0  0  0  0
  151.6368  142.6585  161.2005 O   0  0  0  0  0  0  0  0  0  0  0  0
  152.8786  142.1017  159.2091 C   0  0  1  0  0  0  0  0  0  0  0  0
  152.9873  140.7398  159.9147 C   0  0  0  0  0  0  0  0  0  0  0  0
  152.2337  141.8897  157.9149 N   0  0  0  0  0  0  0  0  0  0  0  0
  151.1711  141.0976  157.6971 C   0  0  0  0  0  0  0  0  0  0  0  0
  150.5842  140.4981  158.5989 O   0  0  0  0  0  0  0  0  0  0  0  0
  150.7190  140.9598  156.2353 C   0  0  2  0  0  0  0  0  0  0  0  0
  149.1896  141.0705  156.0689 C   0  0  0  0  0  0  0  0  0  0  0  0
  151.2507  139.7276  155.6652 N   0  0  0  0  0  0  0  0  0  0  0  0
  152.0001  138.7767  156.2278 C   0  0  0  0  0  0  0  0  0  0  0  0
  152.2628  137.7530  155.4279 N   0  0  0  0  0  0  0  0  0  0  0  0
  151.5856  138.1564  154.3126 C   0  0  0  0  0  0  0  0  0  0  0  0
  150.9540  139.3265  154.4038 N   0  0  0  0  0  0  0  0  0  0  0  0
  150.8563  146.1329  159.6364 H   0  0  0  0  0  0  0  0  0  0  0  0
  151.4098  145.5336  161.2040 H   0  0  0  0  0  0  0  0  0  0  0  0
  149.9387  144.8732  160.4686 H   0  0  0  0  0  0  0  0  0  0  0  0
  152.0894  144.4634  158.6611 H   0  0  0  0  0  0  0  0  0  0  0  0
  153.8754  142.5255  159.0699 H   0  0  0  0  0  0  0  0  0  0  0  0
  153.4624  140.8366  160.8917 H   0  0  0  0  0  0  0  0  0  0  0  0
  153.5915  140.0463  159.3292 H   0  0  0  0  0  0  0  0  0  0  0  0
  152.0095  140.2789  160.0641 H   0  0  0  0  0  0  0  0  0  0  0  0
  152.6588  142.3416  157.1185 H   0  0  0  0  0  0  0  0  0  0  0  0
  151.1635  141.7866  155.6789 H   0  0  0  0  0  0  0  0  0  0  0  0
  148.8219  142.0245  156.4479 H   0  0  0  0  0  0  0  0  0  0  0  0
  148.6597  140.2786  156.5998 H   0  0  0  0  0  0  0  0  0  0  0  0
  148.9082  141.0076  155.0174 H   0  0  0  0  0  0  0  0  0  0  0  0
  152.3563  138.8320  157.2461 H   0  0  0  0  0  0  0  0  0  0  0  0
  151.5529  137.5677  153.4077 H   0  0  0  0  0  0  0  0  0  0  0  0
  1  2  1  0  0  0  0
  1 17  1  0  0  0  0
  1 18  1  0  0  0  0
  1 19  1  0  0  0  0
  2  3  1  0  0  0  0
  2 20  1  0  0  0  0
  3  4  2  0  0  0  0
  3  5  1  0  0  0  0
  5  6  1  0  0  0  0
  5  7  1  0  0  0  0
  5 21  1  0  0  0  0
  6 22  1  0  0  0  0
  6 23  1  0  0  0  0
  6 24  1  0  0  0  0
  7  8  1  0  0  0  0
  7 25  1  0  0  0  0
  8  9  2  0  0  0  0
  8 10  1  0  0  0  0
 10 11  1  0  0  0  0
 10 12  1  0  0  0  0
 10 26  1  0  0  0  0
 11 27  1  0  0  0  0
 11 28  1  0  0  0  0
 11 29  1  0  0  0  0
 12 16  1  0  0  0  0
 12 13  1  0  0  0  0
 13 14  2  0  0  0  0
 13 30  1  0  0  0  0
 14 15  1  0  0  0  0
 15 16  2  0  0  0  0
 15 31  1  0  0  0  0
M  END
> <s_m_source_file>
AV-unprocessed.smi

> <i_m_source_file_index>
970

> <i_lp_mmshare_version>
43012

> <i_f3d_flags>
0

> <s_epik_input>
W0NIM11bTkhdQyg9TylbQ0BIXShbQ0gzXSlbTkhdQyg9TylbQ0BIXShbQ0gzXSluMVtjSF1uW2NIXW4x

> <s_epik_cmdline>
J2VwaWtfcHl0aG9uJywgJy1waCcsICc3LjAnLCAnLXRuJywgJzgnLCAnLW1hJywgJzIwMCcsICctbWV0YWxfYmluZGluZycsICctaW1hZScsICc8aW5maWxlLm1hZT4nLCAnLW9tYWUnLCAnPG91dGZpbGUubWFlPic=

> <r_lp_tautomer_probability>
1

> <r_epik_Ionization_Penalty>
1.07271e-05

> <r_epik_Ionization_Penalty_Charging>
0

> <r_epik_Ionization_Penalty_Neutral>
1.07271e-05

> <r_epik_State_Penalty>
-0

> <r_epik_Charging_Adjusted_Penalty>
0

> <i_epik_Tot_Q>
0

> <i_epik_Tot_abs_Q>
0

> <r_epik_Metal_State_Penalty>
-0

> <b_epik_Metal_Only>
0

> <s_lp_Force_Field>
OPLS_2005

> <r_lp_Energy>
8.21171

> <b_lp_Chiralities_Consistent>
1

> <s_lp_Variant>
AV-unprocessed.smi:970-2

> <Gold.Version>
5.8.1

> <Gold.Id.Protein>
6NUR|6NUR_protein|mol2

> <Gold.PLP.Fitness>
34.4759

> <Gold.PLP.PLP>
-29.4256

> <Gold.PLP.part.hbond>
-2.0907

> <Gold.PLP.part.metal>
0.0000

> <Gold.PLP.part.buried>
-2.5510

> <Gold.PLP.part.nonpolar>
-25.7266

> <Gold.PLP.part.repulsive>
0.3986

> <Gold.PLP.ligand.clash>
0.0000

> <Gold.PLP.ligand.torsion>
0.8017

> <Gold.PLP.Chemscore.Hbond>
1.2298

> <Gold.PLP.Chemscore.CHOScore>
0.9482

> <Gold.PLP.Chemscore.Metal>
0.0000

> <Gold.Chemscore.Hbonds>
donor molecule, donor type, donor heavy atom, donor atom, acceptor molecule, acceptor atom, score
      P1  H  6933  6945       L1     4  0.37
      P1  H  7989  7998       L1    16  0.90
      L1  C    15    31       P1  7949  1.00

> <Gold.PLP.Chemscore.Internal.Correction>
0.1196

> <Gold.Rescore>
     Score         DG    S(hbond)    S(metal)    S(lipo)     H(rot)  DE(clash)    DE(int)     intcor
      6.94      -9.42       1.65        0.00      43.30       2.59       0.30       2.18       ----

> <Gold.Chemscore.Fitness>
6.9433

> <Gold.Chemscore.DG>
-9.4234

> <Gold.Chemscore.ZeroCoef>
-5.4800

> <Gold.Chemscore.Hbond>
1.6453

> <Gold.Chemscore.Metal>
0.0000

> <Gold.Chemscore.Lipo>
43.3007

> <Gold.Chemscore.Internal_Hbond>
0.0000

> <Gold.Chemscore.DEClash>
0.3020

> <Gold.Chemscore.DEInternal>
2.1781

> <Gold.Chemscore.Rot>
2.5852

> <Gold.Chemscore.Internal.Correction>
   9.000000E+99

> <Gold.Chemscore.Hbonds>
donor molecule, donor type, donor heavy atom, donor atom, acceptor molecule, acceptor atom, score
      P1  H  6933  6945       L1     4  0.36
      P1  H  7989  7998       L1    16  0.17

> <Gold.Chemscore.Hbond.Weighted>
-5.4954

> <Gold.Chemscore.Metal.Weighted>
-0.0000

> <Gold.Chemscore.Lipo.Weighted>
-5.0662

> <Gold.Chemscore.Internal_Hbond.Weighted>
0.0000

> <Gold.Chemscore.DEClash.Weighted>
0.3020

> <Gold.Chemscore.DEInternal.Weighted>
2.1781

> <Gold.Chemscore.Rot.Weighted>
6.6182

> <Gold.Chemscore.Internal.Correction.Weighted>
   9.000000E+99

> <Gold.Protein.RotatedTorsions>
[ 6907 6896 6895 6894 ] final -168.58 input  -60.11 | X-H torsion
[ 7974 7965 7964 7962 ] final  -81.27 input  175.53 | X-H torsion
[ 8008 7997 7996 7995 ] final   91.31 input   59.86 | X-H torsion
[ 10167 10162 10161 10158 ] final   34.85 input  -65.29 | X-H torsion
[ 10718 10713 10712 10709 ] final  -44.84 input   66.30 | X-H torsion
[ 10763 10752 10751 10750 ] final  112.85 input  -60.55 | X-H torsion
[ 11005 11000 10999 10996 ] final  -15.23 input  -57.11 | X-H torsion

> <Gold.Protein.ActiveResidues>
 VAL166  LYS551  ARG553  GLY616  TRP617  ASP618  TYR619  PRO620  LYS621  CYS622 
 ASP623  PHE694  ASN695  SER759  ASP760  ASP761  ALA762  ILE779  LEU786  VAL792 
 PHE793  MET794  SER795  GLU796  ALA797  LYS798  CYS799  TRP800  GLU811  SER814 

> <Gold.Protein.RotatedAtoms>
  151.4778  133.3553  159.2833 H   0  0  0  0  0  0  0  0  0  0  0  0  # atno 6907 bound_to 6896
  150.8917  134.8323  159.7309 H   0  0  0  0  0  0  0  0  0  0  0  0  # atno 6908 bound_to 6896
  152.4827  134.4689  159.9681 H   0  0  0  0  0  0  0  0  0  0  0  0  # atno 6909 bound_to 6896
  145.5489  140.9499  143.1510 H   0  0  0  0  0  0  0  0  0  0  0  0  # atno 7974 bound_to 7965
  156.0223  140.3339  155.7051 H   0  0  0  0  0  0  0  0  0  0  0  0  # atno 8008 bound_to 7997
  155.6005  140.0655  157.2752 H   0  0  0  0  0  0  0  0  0  0  0  0  # atno 8009 bound_to 7997
  154.4320  140.1811  156.1156 H   0  0  0  0  0  0  0  0  0  0  0  0  # atno 8010 bound_to 7997
  140.4277  144.1370  150.6155 H   0  0  0  0  0  0  0  0  0  0  0  0  # atno 10167 bound_to 10162
  156.2344  130.4175  149.8836 H   0  0  0  0  0  0  0  0  0  0  0  0  # atno 10718 bound_to 10713
  153.4838  135.3673  155.2456 H   0  0  0  0  0  0  0  0  0  0  0  0  # atno 10763 bound_to 10752
  154.8754  135.3960  154.3669 H   0  0  0  0  0  0  0  0  0  0  0  0  # atno 10764 bound_to 10752
  153.4277  135.7081  153.6317 H   0  0  0  0  0  0  0  0  0  0  0  0  # atno 10765 bound_to 10752
  140.7945  133.8262  155.9411 H   0  0  0  0  0  0  0  0  0  0  0  0  # atno 11005 bound_to 11000
  144.7539  139.7123  143.7262 LP  0  0  0  0  0  0  0  0  0  0  0  0  # atno 17320 bound_to 7965
  146.1930  139.5181  142.9792 LP  0  0  0  0  0  0  0  0  0  0  0  0  # atno 17321 bound_to 7965
  140.4463  143.2505  151.9407 LP  0  0  0  0  0  0  0  0  0  0  0  0  # atno 17342 bound_to 10162
  139.4784  144.5606  151.8245 LP  0  0  0  0  0  0  0  0  0  0  0  0  # atno 17343 bound_to 10162
  156.6439  130.8716  151.3519 LP  0  0  0  0  0  0  0  0  0  0  0  0  # atno 17370 bound_to 10713
  157.7148  130.9483  150.1215 LP  0  0  0  0  0  0  0  0  0  0  0  0  # atno 17371 bound_to 10713
  140.9356  134.1966  157.4833 LP  0  0  0  0  0  0  0  0  0  0  0  0  # atno 17394 bound_to 11000
  139.8727  134.9851  156.5267 LP  0  0  0  0  0  0  0  0  0  0  0  0  # atno 17395 bound_to 11000

$$$$
