AV-unprocessed.smi:1590|AV-procd|sdf|6396|dock4
  -GOLD-   22720 7 33D 1   1.00000     0.00000
 Structure written by MMmdl.
 34 35  0  0  0  0  0  0  0  0  2 V2000
  152.6393  143.5106  159.4204 C   0  0  0  0  0  0  0  0  0  0  0  0
  152.1685  142.0708  159.6705 C   0  0  0  0  0  0  0  0  0  0  0  0
  153.0691  141.3231  160.6645 C   0  0  0  0  0  0  0  0  0  0  0  0
  151.9960  141.3111  158.3915 C   0  0  0  0  0  0  0  0  0  0  0  0
  152.5898  140.1358  158.1650 N   0  0  0  0  0  0  0  0  0  0  0  0
  152.2787  139.6220  156.9148 N   0  0  0  0  0  0  0  0  0  0  0  0
  151.4474  140.4066  156.2152 C   0  0  0  0  0  0  0  0  0  0  0  0
  151.0254  140.0882  154.9803 N   0  5  0  0  0  0  0  0  0  0  0  0
  149.7154  140.2026  154.6633 C   0  0  0  0  0  0  0  0  0  0  0  0
  148.7994  139.4825  155.0677 O   0  0  0  0  0  0  0  0  0  0  0  0
  149.4476  141.2146  153.8274 N   0  0  0  0  0  0  0  0  0  0  0  0
  148.1242  141.5608  153.3265 C   0  0  0  0  0  0  0  0  0  0  0  0
  147.5903  142.7962  154.0414 C   0  0  0  0  0  0  0  0  0  0  0  0
  146.7497  142.6304  155.3161 C   0  0  0  0  0  0  0  0  0  0  0  0
  145.9305  143.8484  154.8801 C   0  0  0  0  0  0  0  0  0  0  0  0
  146.4007  143.5683  153.4503 C   0  0  0  0  0  0  0  0  0  0  0  0
  150.9972  141.8851  157.0631 S   0  0  0  0  0  0  0  0  0  0  0  0
  151.9456  144.0405  158.7669 H   0  0  0  0  0  0  0  0  0  0  0  0
  153.6229  143.5326  158.9500 H   0  0  0  0  0  0  0  0  0  0  0  0
  152.7057  144.0695  160.3540 H   0  0  0  0  0  0  0  0  0  0  0  0
  151.1834  142.1406  160.1342 H   0  0  0  0  0  0  0  0  0  0  0  0
  152.6757  140.3287  160.8776 H   0  0  0  0  0  0  0  0  0  0  0  0
  153.1384  141.8598  161.6109 H   0  0  0  0  0  0  0  0  0  0  0  0
  154.0809  141.2048  160.2756 H   0  0  0  0  0  0  0  0  0  0  0  0
  150.2216  141.7827  153.5158 H   0  0  0  0  0  0  0  0  0  0  0  0
  148.1805  141.7353  152.2511 H   0  0  0  0  0  0  0  0  0  0  0  0
  147.4508  140.7160  153.4769 H   0  0  0  0  0  0  0  0  0  0  0  0
  148.3980  143.5019  154.2482 H   0  0  0  0  0  0  0  0  0  0  0  0
  146.1637  141.7098  155.3211 H   0  0  0  0  0  0  0  0  0  0  0  0
  147.3022  142.7598  156.2473 H   0  0  0  0  0  0  0  0  0  0  0  0
  144.8552  143.7559  155.0348 H   0  0  0  0  0  0  0  0  0  0  0  0
  146.3206  144.7866  155.2779 H   0  0  0  0  0  0  0  0  0  0  0  0
  146.6725  144.4539  152.8754 H   0  0  0  0  0  0  0  0  0  0  0  0
  145.7117  142.9272  152.8977 H   0  0  0  0  0  0  0  0  0  0  0  0
  1  2  1  0  0  0  0
  1 18  1  0  0  0  0
  1 19  1  0  0  0  0
  1 20  1  0  0  0  0
  2  3  1  0  0  0  0
  2  4  1  0  0  0  0
  2 21  1  0  0  0  0
  3 22  1  0  0  0  0
  3 23  1  0  0  0  0
  3 24  1  0  0  0  0
  4 17  1  0  0  0  0
  4  5  2  0  0  0  0
  5  6  1  0  0  0  0
  6  7  2  0  0  0  0
  7  8  1  0  0  0  0
  7 17  1  0  0  0  0
  8  9  1  0  0  0  0
  9 10  2  0  0  0  0
  9 11  1  0  0  0  0
 11 12  1  0  0  0  0
 11 25  1  0  0  0  0
 12 13  1  0  0  0  0
 12 26  1  0  0  0  0
 12 27  1  0  0  0  0
 13 16  1  0  0  0  0
 13 14  1  0  0  0  0
 13 28  1  0  0  0  0
 14 15  1  0  0  0  0
 14 29  1  0  0  0  0
 14 30  1  0  0  0  0
 15 16  1  0  0  0  0
 15 31  1  0  0  0  0
 15 32  1  0  0  0  0
 16 33  1  0  0  0  0
 16 34  1  0  0  0  0
M  CHG  1   8  -1
M  END
> <s_m_source_file>
AV-unprocessed.smi

> <i_m_source_file_index>
1590

> <i_lp_mmshare_version>
43012

> <i_f3d_flags>
0

> <s_epik_input>
W0NIM11bQ0hdKFtDSDNdKWMxbm5jKHMxKVtOSF1DKD1PKVtOSF1bQ0gyXVtDSF0yW0NIMl1bQ0gyXVtDSDJdMg==

> <s_epik_cmdline>
J2VwaWtfcHl0aG9uJywgJy1waCcsICc3LjAnLCAnLXRuJywgJzgnLCAnLW1hJywgJzIwMCcsICctbWV0YWxfYmluZGluZycsICctaW1hZScsICc8aW5maWxlLm1hZT4nLCAnLW9tYWUnLCAnPG91dGZpbGUubWFlPic=

> <r_lp_tautomer_probability>
1

> <r_epik_Ionization_Penalty>
4.56565

> <r_epik_Ionization_Penalty_Charging>
4.40687

> <r_epik_Ionization_Penalty_Neutral>
0.158778

> <r_epik_State_Penalty>
4.40652

> <r_epik_Charging_Adjusted_Penalty>
8.8134

> <i_epik_Tot_Q>
-1

> <i_epik_Tot_abs_Q>
1

> <r_epik_Metal_State_Penalty>
0.774635

> <b_epik_Metal_Only>
1

> <s_lp_Force_Field>
OPLS_2005

> <r_lp_Energy>
4.00522

> <b_lp_Chiralities_Consistent>
1

> <s_lp_Variant>
AV-unprocessed.smi:1590-2

> <Gold.Version>
5.8.1

> <Gold.Id.Protein>
6NUR|6NUR_protein|mol2

> <Gold.PLP.Fitness>
40.8490

> <Gold.PLP.PLP>
-39.4367

> <Gold.PLP.part.hbond>
-4.0000

> <Gold.PLP.part.metal>
0.0000

> <Gold.PLP.part.buried>
-3.6821

> <Gold.PLP.part.nonpolar>
-31.4942

> <Gold.PLP.part.repulsive>
0.8389

> <Gold.PLP.ligand.clash>
0.0000

> <Gold.PLP.ligand.torsion>
1.4700

> <Gold.PLP.Chemscore.Hbond>
1.3978

> <Gold.PLP.Chemscore.CHOScore>
0.0000

> <Gold.PLP.Chemscore.Metal>
0.0000

> <Gold.Chemscore.Hbonds>
donor molecule, donor type, donor heavy atom, donor atom, acceptor molecule, acceptor atom, score
      P1  H  7989  7998       L1     8  0.80
      P1  H  7997  8008       L1     6  0.15

> <Gold.PLP.Chemscore.Internal.Correction>
0.1589

> <Gold.Rescore>
     Score         DG    S(hbond)    S(metal)    S(lipo)     H(rot)  DE(clash)    DE(int)     intcor
     11.84     -13.55       0.72        0.00      78.17       1.36       0.07       1.63       ----

> <Gold.Chemscore.Fitness>
11.8430

> <Gold.Chemscore.DG>
-13.5465

> <Gold.Chemscore.ZeroCoef>
-5.4800

> <Gold.Chemscore.Hbond>
0.7195

> <Gold.Chemscore.Metal>
0.0000

> <Gold.Chemscore.Lipo>
78.1711

> <Gold.Chemscore.Internal_Hbond>
0.0000

> <Gold.Chemscore.DEClash>
0.0691

> <Gold.Chemscore.DEInternal>
1.6344

> <Gold.Chemscore.Rot>
1.3604

> <Gold.Chemscore.Internal.Correction>
   9.000000E+99

> <Gold.Chemscore.Hbonds>
donor molecule, donor type, donor heavy atom, donor atom, acceptor molecule, acceptor atom, score
      P1  H  7989  7998       L1     8  0.12

> <Gold.Chemscore.Hbond.Weighted>
-2.4030

> <Gold.Chemscore.Metal.Weighted>
-0.0000

> <Gold.Chemscore.Lipo.Weighted>
-9.1460

> <Gold.Chemscore.Internal_Hbond.Weighted>
0.0000

> <Gold.Chemscore.DEClash.Weighted>
0.0691

> <Gold.Chemscore.DEInternal.Weighted>
1.6344

> <Gold.Chemscore.Rot.Weighted>
3.4826

> <Gold.Chemscore.Internal.Correction.Weighted>
   9.000000E+99

> <Gold.Protein.RotatedTorsions>
[ 6907 6896 6895 6894 ] final  127.84 input  -60.11 | X-H torsion
[ 7974 7965 7964 7962 ] final   74.24 input  175.53 | X-H torsion
[ 8008 7997 7996 7995 ] final  -28.35 input   59.86 | X-H torsion
[ 10167 10162 10161 10158 ] final  -32.64 input  -65.29 | X-H torsion
[ 10718 10713 10712 10709 ] final  165.87 input   66.30 | X-H torsion
[ 10763 10752 10751 10750 ] final   60.58 input  -60.55 | X-H torsion
[ 11005 11000 10999 10996 ] final -113.92 input  -57.11 | X-H torsion

> <Gold.Protein.ActiveResidues>
 VAL166  LYS551  ARG553  GLY616  TRP617  ASP618  TYR619  PRO620  LYS621  CYS622 
 ASP623  PHE694  ASN695  SER759  ASP760  ASP761  ALA762  ILE779  LEU786  VAL792 
 PHE793  MET794  SER795  GLU796  ALA797  LYS798  CYS799  TRP800  GLU811  SER814 

> <Gold.Protein.RotatedAtoms>
  152.3775  133.6501  159.6134 H   0  0  0  0  0  0  0  0  0  0  0  0  # atno 6907 bound_to 6896
  150.7715  133.9169  159.3395 H   0  0  0  0  0  0  0  0  0  0  0  0  # atno 6908 bound_to 6896
  151.6981  135.0936  160.0297 H   0  0  0  0  0  0  0  0  0  0  0  0  # atno 6909 bound_to 6896
  145.7307  139.2683  143.1543 H   0  0  0  0  0  0  0  0  0  0  0  0  # atno 7974 bound_to 7965
  154.4336  140.1847  156.1076 H   0  0  0  0  0  0  0  0  0  0  0  0  # atno 8008 bound_to 7997
  156.0243  140.3337  155.7046 H   0  0  0  0  0  0  0  0  0  0  0  0  # atno 8009 bound_to 7997
  155.5931  140.0633  157.2744 H   0  0  0  0  0  0  0  0  0  0  0  0  # atno 8010 bound_to 7997
  140.7218  143.3679  151.1835 H   0  0  0  0  0  0  0  0  0  0  0  0  # atno 10167 bound_to 10162
  157.0739  131.0374  151.2601 H   0  0  0  0  0  0  0  0  0  0  0  0  # atno 10718 bound_to 10713
  152.9925  135.5531  154.5897 H   0  0  0  0  0  0  0  0  0  0  0  0  # atno 10763 bound_to 10752
  154.5261  135.2810  155.1223 H   0  0  0  0  0  0  0  0  0  0  0  0  # atno 10764 bound_to 10752
  154.2557  135.6390  153.5309 H   0  0  0  0  0  0  0  0  0  0  0  0  # atno 10765 bound_to 10752
  141.0584  133.9574  157.2711 H   0  0  0  0  0  0  0  0  0  0  0  0  # atno 11005 bound_to 11000
  146.0540  140.8040  142.9767 LP  0  0  0  0  0  0  0  0  0  0  0  0  # atno 17320 bound_to 7965
  144.6893  140.3096  143.7250 LP  0  0  0  0  0  0  0  0  0  0  0  0  # atno 17321 bound_to 7965
  139.7245  143.9171  152.2997 LP  0  0  0  0  0  0  0  0  0  0  0  0  # atno 17342 bound_to 10162
  139.8939  144.6950  150.8740 LP  0  0  0  0  0  0  0  0  0  0  0  0  # atno 17343 bound_to 10162
  157.4855  130.7791  149.7456 LP  0  0  0  0  0  0  0  0  0  0  0  0  # atno 17370 bound_to 10713
  155.9942  130.3919  150.2867 LP  0  0  0  0  0  0  0  0  0  0  0  0  # atno 17371 bound_to 10713
  139.9411  135.0191  156.8710 LP  0  0  0  0  0  0  0  0  0  0  0  0  # atno 17394 bound_to 11000
  140.5917  134.0255  155.7502 LP  0  0  0  0  0  0  0  0  0  0  0  0  # atno 17395 bound_to 11000

$$$$
