AV-unprocessed.smi:3287|AV-procd|sdf|12594|dock10
  -GOLD-   2272018513D 1   1.00000     0.00000
 Structure written by MMmdl.
 43 44  0  0  0  0  0  0  0  0  2 V2000
  151.0965  142.2640  156.3597 C   0  0  0  0  0  0  0  0  0  0  0  0
  150.6053  141.3034  155.2621 C   0  0  2  0  0  0  0  0  0  0  0  0
  149.0682  141.3716  155.1593 C   0  0  0  0  0  0  0  0  0  0  0  0
  148.5227  140.4376  154.0713 C   0  0  0  0  0  0  0  0  0  0  0  0
  148.9581  138.9857  154.3205 C   0  0  1  0  0  0  0  0  0  0  0  0
  148.4152  138.1115  153.2572 N   0  3  0  0  0  0  0  0  0  0  0  0
  146.9618  137.8481  153.3353 C   0  0  0  0  0  0  0  0  0  0  0  0
  146.4180  137.2880  152.0096 C   0  0  1  0  0  0  0  0  0  0  0  0
  147.4822  137.1929  151.0827 O   0  0  0  0  0  0  0  0  0  0  0  0
  145.7330  135.9471  152.2235 C   0  0  0  0  0  0  0  0  0  0  0  0
  144.6542  135.8111  153.1244 C   0  0  0  0  0  0  0  0  0  0  0  0
  144.0549  134.5443  153.2724 C   0  0  0  0  0  0  0  0  0  0  0  0
  144.4581  133.4500  152.5924 N   0  0  0  0  0  0  0  0  0  0  0  0
  145.4880  133.5859  151.7303 C   0  0  0  0  0  0  0  0  0  0  0  0
  146.1563  134.8069  151.5091 C   0  0  0  0  0  0  0  0  0  0  0  0
  150.4961  138.9081  154.3972 C   0  0  0  0  0  0  0  0  0  0  0  0
  151.0755  139.8409  155.4822 C   0  0  1  0  0  0  0  0  0  0  0  0
  152.6082  139.7046  155.5221 C   0  0  0  0  0  0  0  0  0  0  0  0
  150.7841  141.9296  157.3495 H   0  0  0  0  0  0  0  0  0  0  0  0
  150.6967  143.2672  156.2088 H   0  0  0  0  0  0  0  0  0  0  0  0
  152.1822  142.3551  156.3624 H   0  0  0  0  0  0  0  0  0  0  0  0
  151.0156  141.6523  154.3131 H   0  0  0  0  0  0  0  0  0  0  0  0
  148.6220  141.1083  156.1194 H   0  0  0  0  0  0  0  0  0  0  0  0
  148.7543  142.3942  154.9461 H   0  0  0  0  0  0  0  0  0  0  0  0
  147.4343  140.5041  154.0471 H   0  0  0  0  0  0  0  0  0  0  0  0
  148.8756  140.7726  153.0946 H   0  0  0  0  0  0  0  0  0  0  0  0
  148.5353  138.6648  155.2739 H   0  0  0  0  0  0  0  0  0  0  0  0
  148.5902  138.5644  152.3716 H   0  0  0  0  0  0  0  0  0  0  0  0
  146.7479  137.1557  154.1497 H   0  0  0  0  0  0  0  0  0  0  0  0
  146.4516  138.7840  153.5684 H   0  0  0  0  0  0  0  0  0  0  0  0
  145.6876  137.9853  151.5962 H   0  0  0  0  0  0  0  0  0  0  0  0
  148.2604  136.9223  151.5469 H   0  0  0  0  0  0  0  0  0  0  0  0
  144.2896  136.6553  153.6909 H   0  0  0  0  0  0  0  0  0  0  0  0
  143.2287  134.4074  153.9543 H   0  0  0  0  0  0  0  0  0  0  0  0
  145.7888  132.6949  151.1993 H   0  0  0  0  0  0  0  0  0  0  0  0
  146.9736  134.8600  150.8053 H   0  0  0  0  0  0  0  0  0  0  0  0
  150.8102  137.8855  154.6067 H   0  0  0  0  0  0  0  0  0  0  0  0
  150.9242  139.1675  153.4275 H   0  0  0  0  0  0  0  0  0  0  0  0
  150.6921  139.5034  156.4466 H   0  0  0  0  0  0  0  0  0  0  0  0
  153.0643  140.0918  154.6105 H   0  0  0  0  0  0  0  0  0  0  0  0
  152.9064  138.6607  155.6230 H   0  0  0  0  0  0  0  0  0  0  0  0
  153.0416  140.2383  156.3675 H   0  0  0  0  0  0  0  0  0  0  0  0
  148.9104  137.2310  153.2672 H   0  0  0  0  0  0  0  0  0  0  0  0
  1  2  1  0  0  0  0
  1 19  1  0  0  0  0
  1 20  1  0  0  0  0
  1 21  1  0  0  0  0
  2 17  1  0  0  0  0
  2  3  1  0  0  0  0
  2 22  1  0  0  0  0
  3  4  1  0  0  0  0
  3 23  1  0  0  0  0
  3 24  1  0  0  0  0
  4  5  1  0  0  0  0
  4 25  1  0  0  0  0
  4 26  1  0  0  0  0
  5  6  1  0  0  0  0
  5 16  1  0  0  0  0
  5 27  1  0  0  0  0
  6  7  1  0  0  0  0
  6 28  1  0  0  0  0
  6 43  1  0  0  0  0
  7  8  1  0  0  0  0
  7 29  1  0  0  0  0
  7 30  1  0  0  0  0
  8  9  1  0  0  0  0
  8 10  1  0  0  0  0
  8 31  1  0  0  0  0
  9 32  1  0  0  0  0
 10 15  1  0  0  0  0
 10 11  2  0  0  0  0
 11 12  1  0  0  0  0
 11 33  1  0  0  0  0
 12 13  2  0  0  0  0
 12 34  1  0  0  0  0
 13 14  1  0  0  0  0
 14 15  2  0  0  0  0
 14 35  1  0  0  0  0
 15 36  1  0  0  0  0
 16 17  1  0  0  0  0
 16 37  1  0  0  0  0
 16 38  1  0  0  0  0
 17 18  1  0  0  0  0
 17 39  1  0  0  0  0
 18 40  1  0  0  0  0
 18 41  1  0  0  0  0
 18 42  1  0  0  0  0
M  CHG  1   6   1
M  END
> <s_m_source_file>
AV-unprocessed.smi

> <i_m_source_file_index>
3287

> <i_lp_mmshare_version>
43012

> <i_f3d_flags>
0

> <s_epik_input>
W0NIM11bQ0BASF0xW0NIMl1bQ0gyXVtDQEhdKFtDSDJdW0NASF0xW0NIM10pW05IXVtDSDJdW0NASF0oW09IXSljMltjSF1bY0hdbltjSF1bY0hdMg==

> <s_epik_cmdline>
J2VwaWtfcHl0aG9uJywgJy1waCcsICc3LjAnLCAnLXRuJywgJzgnLCAnLW1hJywgJzIwMCcsICctbWV0YWxfYmluZGluZycsICctaW1hZScsICc8aW5maWxlLm1hZT4nLCAnLW9tYWUnLCAnPG91dGZpbGUubWFlPic=

> <r_lp_tautomer_probability>
1

> <r_epik_Ionization_Penalty>
0.00537262

> <r_epik_Ionization_Penalty_Charging>
0.00321624

> <r_epik_Ionization_Penalty_Neutral>
0.00215638

> <r_epik_State_Penalty>
-0

> <r_epik_Charging_Adjusted_Penalty>
0.00321624

> <i_epik_Tot_Q>
1

> <i_epik_Tot_abs_Q>
1

> <r_epik_Metal_State_Penalty>
-0

> <b_epik_Metal_Only>
0

> <s_lp_Force_Field>
OPLS_2005

> <r_lp_Energy>
16.1009

> <b_lp_Chiralities_Consistent>
1

> <s_lp_Variant>
AV-unprocessed.smi:3287-5

> <Gold.Version>
5.8.1

> <Gold.Id.Protein>
6NUR|6NUR_protein|mol2

> <Gold.PLP.Fitness>
49.5799

> <Gold.PLP.PLP>
-36.9200

> <Gold.PLP.part.hbond>
-4.6955

> <Gold.PLP.part.metal>
0.0000

> <Gold.PLP.part.buried>
1.7443

> <Gold.PLP.part.nonpolar>
-32.6387

> <Gold.PLP.part.repulsive>
0.2321

> <Gold.PLP.ligand.clash>
0.0000

> <Gold.PLP.ligand.torsion>
0.9244

> <Gold.PLP.Chemscore.Hbond>
4.0000

> <Gold.PLP.Chemscore.CHOScore>
0.8321

> <Gold.PLP.Chemscore.Metal>
0.0000

> <Gold.Chemscore.Hbonds>
donor molecule, donor type, donor heavy atom, donor atom, acceptor molecule, acceptor atom, score
      L1  H     6    28       P1  7957  0.73
      L1  H     6    43       P1  7948  0.83
      P1  H  7954  7966       L1     9  0.83
      L1  C    12    34       P1 10957  0.20

> <Gold.PLP.Chemscore.Internal.Correction>
0.0124

> <Gold.Rescore>
     Score         DG    S(hbond)    S(metal)    S(lipo)     H(rot)  DE(clash)    DE(int)     intcor
     19.23     -20.57       2.86        0.00      89.00       1.90       0.17       1.17       ----

> <Gold.Chemscore.Fitness>
19.2334

> <Gold.Chemscore.DG>
-20.5732

> <Gold.Chemscore.ZeroCoef>
-5.4800

> <Gold.Chemscore.Hbond>
2.8603

> <Gold.Chemscore.Metal>
0.0000

> <Gold.Chemscore.Lipo>
88.9986

> <Gold.Chemscore.Internal_Hbond>
0.0000

> <Gold.Chemscore.DEClash>
0.1693

> <Gold.Chemscore.DEInternal>
1.1705

> <Gold.Chemscore.Rot>
1.9035

> <Gold.Chemscore.Internal.Correction>
   9.000000E+99

> <Gold.Chemscore.Hbonds>
donor molecule, donor type, donor heavy atom, donor atom, acceptor molecule, acceptor atom, score
      L1  H     6    28       P1  7957  0.64
      L1  H     6    43       P1  7948  0.42
      P1  H  7954  7966       L1     9  0.13

> <Gold.Chemscore.Hbond.Weighted>
-9.5532

> <Gold.Chemscore.Metal.Weighted>
-0.0000

> <Gold.Chemscore.Lipo.Weighted>
-10.4128

> <Gold.Chemscore.Internal_Hbond.Weighted>
0.0000

> <Gold.Chemscore.DEClash.Weighted>
0.1693

> <Gold.Chemscore.DEInternal.Weighted>
1.1705

> <Gold.Chemscore.Rot.Weighted>
4.8729

> <Gold.Chemscore.Internal.Correction.Weighted>
   9.000000E+99

> <Gold.Protein.RotatedTorsions>
[ 6907 6896 6895 6894 ] final  107.22 input  -60.11 | X-H torsion
[ 7974 7965 7964 7962 ] final  154.30 input  175.53 | X-H torsion
[ 8008 7997 7996 7995 ] final  -89.81 input   59.86 | X-H torsion
[ 10167 10162 10161 10158 ] final -110.07 input  -65.29 | X-H torsion
[ 10718 10713 10712 10709 ] final  106.03 input   66.30 | X-H torsion
[ 10763 10752 10751 10750 ] final -172.01 input  -60.55 | X-H torsion
[ 11005 11000 10999 10996 ] final   -3.39 input  -57.11 | X-H torsion

> <Gold.Protein.ActiveResidues>
 VAL166  LYS551  ARG553  GLY616  TRP617  ASP618  TYR619  PRO620  LYS621  CYS622 
 ASP623  PHE694  ASN695  SER759  ASP760  ASP761  ALA762  ILE779  LEU786  VAL792 
 PHE793  MET794  SER795  GLU796  ALA797  LYS798  CYS799  TRP800  GLU811  SER814 

> <Gold.Protein.RotatedAtoms>
  152.5163  133.9267  159.7560 H   0  0  0  0  0  0  0  0  0  0  0  0  # atno 6907 bound_to 6896
  150.9626  133.6420  159.2758 H   0  0  0  0  0  0  0  0  0  0  0  0  # atno 6908 bound_to 6896
  151.3660  135.0918  159.9503 H   0  0  0  0  0  0  0  0  0  0  0  0  # atno 6909 bound_to 6896
  144.8098  139.6915  143.6146 H   0  0  0  0  0  0  0  0  0  0  0  0  # atno 7974 bound_to 7965
  154.6910  140.0537  157.0363 H   0  0  0  0  0  0  0  0  0  0  0  0  # atno 8008 bound_to 7997
  155.0817  140.3210  155.4581 H   0  0  0  0  0  0  0  0  0  0  0  0  # atno 8009 bound_to 7997
  156.2728  140.2064  156.5944 H   0  0  0  0  0  0  0  0  0  0  0  0  # atno 8010 bound_to 7997
  140.1484  143.4219  152.1512 H   0  0  0  0  0  0  0  0  0  0  0  0  # atno 10167 bound_to 10162
  157.6683  131.0841  150.5946 H   0  0  0  0  0  0  0  0  0  0  0  0  # atno 10718 bound_to 10713
  154.6241  135.2879  155.0292 H   0  0  0  0  0  0  0  0  0  0  0  0  # atno 10763 bound_to 10752
  154.1476  135.6508  153.4960 H   0  0  0  0  0  0  0  0  0  0  0  0  # atno 10764 bound_to 10752
  153.0249  135.5348  154.7043 H   0  0  0  0  0  0  0  0  0  0  0  0  # atno 10765 bound_to 10752
  140.6688  133.9254  155.8482 H   0  0  0  0  0  0  0  0  0  0  0  0  # atno 11005 bound_to 11000
  146.2394  139.5971  142.9501 LP  0  0  0  0  0  0  0  0  0  0  0  0  # atno 17320 bound_to 7965
  145.5352  141.0424  143.2361 LP  0  0  0  0  0  0  0  0  0  0  0  0  # atno 17321 bound_to 7965
  139.5438  144.7280  151.4650 LP  0  0  0  0  0  0  0  0  0  0  0  0  # atno 17342 bound_to 10162
  140.6717  143.8278  150.7008 LP  0  0  0  0  0  0  0  0  0  0  0  0  # atno 17343 bound_to 10162
  156.6246  130.4415  149.5809 LP  0  0  0  0  0  0  0  0  0  0  0  0  # atno 17370 bound_to 10713
  156.2329  130.6805  151.1481 LP  0  0  0  0  0  0  0  0  0  0  0  0  # atno 17371 bound_to 10713
  141.0408  134.0624  157.3904 LP  0  0  0  0  0  0  0  0  0  0  0  0  # atno 17394 bound_to 11000
  139.8988  135.0156  156.7167 LP  0  0  0  0  0  0  0  0  0  0  0  0  # atno 17395 bound_to 11000

$$$$
