AV-unprocessed.smi:3240|AV-procd|sdf|12383|dock5
  -GOLD-   2272018243D 1   1.00000     0.00000
 Structure written by MMmdl.
 43 44  0  0  0  0  0  0  0  0  1 V2000
  142.6528  135.4357  152.9512 C   0  0  0  0  0  0  0  0  0  0  0  0
  143.8920  136.0121  152.3299 C   0  0  0  0  0  0  0  0  0  0  0  0
  144.8215  135.3623  151.4691 C   0  0  0  0  0  0  0  0  0  0  0  0
  145.8128  136.1529  151.0915 N   0  0  0  0  0  0  0  0  0  0  0  0
  145.5574  137.3304  151.7016 N   0  0  0  0  0  0  0  0  0  0  0  0
  146.4580  138.4571  151.5149 C   0  0  0  0  0  0  0  0  0  0  0  0
  147.0606  138.9972  152.8364 C   0  0  2  0  0  0  0  0  0  0  0  0
  147.1557  140.5310  152.8522 C   0  0  0  0  0  0  0  0  0  0  0  0
  148.3785  138.4282  153.1383 N   0  0  0  0  0  0  0  0  0  0  0  0
  148.7835  138.4691  154.5454 C   0  0  0  0  0  0  0  0  0  0  0  0
  150.2245  138.9970  154.7272 C   0  0  0  0  0  0  0  0  0  0  0  0
  150.3335  140.1846  153.9628 O   0  0  0  0  0  0  0  0  0  0  0  0
  150.4488  139.3746  156.2108 C   0  0  0  0  0  0  0  0  0  0  0  0
  151.8908  139.8230  156.5096 C   0  0  0  0  0  0  0  0  0  0  0  0
  152.9066  138.7619  156.0650 C   0  0  0  0  0  0  0  0  0  0  0  0
  152.7325  138.4281  154.5773 C   0  0  0  0  0  0  0  0  0  0  0  0
  151.2949  137.9739  154.2675 C   0  0  0  0  0  0  0  0  0  0  0  0
  144.3996  137.2745  152.4488 C   0  0  0  0  0  0  0  0  0  0  0  0
  142.8399  134.4531  153.3847 H   0  0  0  0  0  0  0  0  0  0  0  0
  141.8543  135.3180  152.2186 H   0  0  0  0  0  0  0  0  0  0  0  0
  142.2663  136.0695  153.7497 H   0  0  0  0  0  0  0  0  0  0  0  0
  144.8042  134.3445  151.1082 H   0  0  0  0  0  0  0  0  0  0  0  0
  147.2672  138.1424  150.8537 H   0  0  0  0  0  0  0  0  0  0  0  0
  145.9280  139.2366  150.9685 H   0  0  0  0  0  0  0  0  0  0  0  0
  146.3769  138.7170  153.6385 H   0  0  0  0  0  0  0  0  0  0  0  0
  146.1911  140.9859  152.6261 H   0  0  0  0  0  0  0  0  0  0  0  0
  147.8769  140.8989  152.1214 H   0  0  0  0  0  0  0  0  0  0  0  0
  147.4675  140.8932  153.8325 H   0  0  0  0  0  0  0  0  0  0  0  0
  149.0857  138.8899  152.5747 H   0  0  0  0  0  0  0  0  0  0  0  0
  148.0917  139.0926  155.1134 H   0  0  0  0  0  0  0  0  0  0  0  0
  148.7237  137.4713  154.9782 H   0  0  0  0  0  0  0  0  0  0  0  0
  149.8790  140.0550  153.1446 H   0  0  0  0  0  0  0  0  0  0  0  0
  149.7517  140.1581  156.5113 H   0  0  0  0  0  0  0  0  0  0  0  0
  150.2192  138.5123  156.8384 H   0  0  0  0  0  0  0  0  0  0  0  0
  152.0995  140.7659  156.0028 H   0  0  0  0  0  0  0  0  0  0  0  0
  152.0030  140.0181  157.5766 H   0  0  0  0  0  0  0  0  0  0  0  0
  153.9213  139.1149  156.2519 H   0  0  0  0  0  0  0  0  0  0  0  0
  152.7774  137.8577  156.6613 H   0  0  0  0  0  0  0  0  0  0  0  0
  152.9823  139.3018  153.9742 H   0  0  0  0  0  0  0  0  0  0  0  0
  153.4361  137.6465  154.2892 H   0  0  0  0  0  0  0  0  0  0  0  0
  151.1153  137.0207  154.7662 H   0  0  0  0  0  0  0  0  0  0  0  0
  151.2069  137.7767  153.1985 H   0  0  0  0  0  0  0  0  0  0  0  0
  144.0385  138.1288  153.0015 H   0  0  0  0  0  0  0  0  0  0  0  0
  1  2  1  0  0  0  0
  1 19  1  0  0  0  0
  1 20  1  0  0  0  0
  1 21  1  0  0  0  0
  2 18  2  0  0  0  0
  2  3  1  0  0  0  0
  3  4  2  0  0  0  0
  3 22  1  0  0  0  0
  4  5  1  0  0  0  0
  5  6  1  0  0  0  0
  5 18  1  0  0  0  0
  6  7  1  0  0  0  0
  6 23  1  0  0  0  0
  6 24  1  0  0  0  0
  7  8  1  0  0  0  0
  7  9  1  0  0  0  0
  7 25  1  0  0  0  0
  8 26  1  0  0  0  0
  8 27  1  0  0  0  0
  8 28  1  0  0  0  0
  9 10  1  0  0  0  0
  9 29  1  0  0  0  0
 10 11  1  0  0  0  0
 10 30  1  0  0  0  0
 10 31  1  0  0  0  0
 11 17  1  0  0  0  0
 11 12  1  0  0  0  0
 11 13  1  0  0  0  0
 12 32  1  0  0  0  0
 13 14  1  0  0  0  0
 13 33  1  0  0  0  0
 13 34  1  0  0  0  0
 14 15  1  0  0  0  0
 14 35  1  0  0  0  0
 14 36  1  0  0  0  0
 15 16  1  0  0  0  0
 15 37  1  0  0  0  0
 15 38  1  0  0  0  0
 16 17  1  0  0  0  0
 16 39  1  0  0  0  0
 16 40  1  0  0  0  0
 17 41  1  0  0  0  0
 17 42  1  0  0  0  0
 18 43  1  0  0  0  0
M  END
> <s_m_source_file>
AV-unprocessed.smi

> <i_m_source_file_index>
3240

> <i_lp_mmshare_version>
43012

> <i_f3d_flags>
0

> <s_epik_input>
W0NIM11jMVtjSF1ubihbY0hdMSlbQ0gyXVtDQEhdKFtDSDNdKVtOSF1bQ0gyXUMyKFtPSF0pW0NIMl1bQ0gyXVtDSDJdW0NIMl1bQ0gyXTI=

> <s_epik_cmdline>
J2VwaWtfcHl0aG9uJywgJy1waCcsICc3LjAnLCAnLXRuJywgJzgnLCAnLW1hJywgJzIwMCcsICctbWV0YWxfYmluZGluZycsICctaW1hZScsICc8aW5maWxlLm1hZT4nLCAnLW9tYWUnLCAnPG91dGZpbGUubWFlPic=

> <r_lp_tautomer_probability>
1

> <r_epik_Ionization_Penalty>
2.35969

> <r_epik_Ionization_Penalty_Charging>
0

> <r_epik_Ionization_Penalty_Neutral>
2.35969

> <r_epik_State_Penalty>
2.51455

> <r_epik_Charging_Adjusted_Penalty>
2.51455

> <i_epik_Tot_Q>
0

> <i_epik_Tot_abs_Q>
0

> <r_epik_Metal_State_Penalty>
2.51446

> <b_epik_Metal_Only>
0

> <s_lp_Force_Field>
OPLS_2005

> <r_lp_Energy>
22.0798

> <b_lp_Chiralities_Consistent>
1

> <s_lp_Variant>
AV-unprocessed.smi:3240-3

> <Gold.Version>
5.8.1

> <Gold.Id.Protein>
6NUR|6NUR_protein|mol2

> <Gold.PLP.Fitness>
44.4381

> <Gold.PLP.PLP>
-34.9922

> <Gold.PLP.part.hbond>
-3.7563

> <Gold.PLP.part.metal>
0.0000

> <Gold.PLP.part.buried>
3.1067

> <Gold.PLP.part.nonpolar>
-34.4458

> <Gold.PLP.part.repulsive>
0.2544

> <Gold.PLP.ligand.clash>
0.0000

> <Gold.PLP.ligand.torsion>
1.1558

> <Gold.PLP.Chemscore.Hbond>
2.9353

> <Gold.PLP.Chemscore.CHOScore>
0.9574

> <Gold.PLP.Chemscore.Metal>
0.0000

> <Gold.Chemscore.Hbonds>
donor molecule, donor type, donor heavy atom, donor atom, acceptor molecule, acceptor atom, score
      L1  H     9    29       P1  7957  1.00
      L1  H    12    32       P1  7957  1.00
      P1  H  7989  7998       L1    12  0.94
      L1  C    18    43       P1 10175  1.00

> <Gold.PLP.Chemscore.Internal.Correction>
0.0795

> <Gold.Rescore>
     Score         DG    S(hbond)    S(metal)    S(lipo)     H(rot)  DE(clash)    DE(int)     intcor
     17.08     -19.04       2.57        0.00      87.33       2.04       0.62       1.34       ----

> <Gold.Chemscore.Fitness>
17.0850

> <Gold.Chemscore.DG>
-19.0438

> <Gold.Chemscore.ZeroCoef>
-5.4800

> <Gold.Chemscore.Hbond>
2.5691

> <Gold.Chemscore.Metal>
0.0000

> <Gold.Chemscore.Lipo>
87.3280

> <Gold.Chemscore.Internal_Hbond>
0.0000

> <Gold.Chemscore.DEClash>
0.6189

> <Gold.Chemscore.DEInternal>
1.3399

> <Gold.Chemscore.Rot>
2.0447

> <Gold.Chemscore.Internal.Correction>
   9.000000E+99

> <Gold.Chemscore.Hbonds>
donor molecule, donor type, donor heavy atom, donor atom, acceptor molecule, acceptor atom, score
      L1  H     9    29       P1  7957  0.94
      L1  H    12    32       P1  7957  0.95
      P1  H  7989  7998       L1    12  0.25

> <Gold.Chemscore.Hbond.Weighted>
-8.5808

> <Gold.Chemscore.Metal.Weighted>
-0.0000

> <Gold.Chemscore.Lipo.Weighted>
-10.2174

> <Gold.Chemscore.Internal_Hbond.Weighted>
0.0000

> <Gold.Chemscore.DEClash.Weighted>
0.6189

> <Gold.Chemscore.DEInternal.Weighted>
1.3399

> <Gold.Chemscore.Rot.Weighted>
5.2344

> <Gold.Chemscore.Internal.Correction.Weighted>
   9.000000E+99

> <Gold.Protein.RotatedTorsions>
[ 6907 6896 6895 6894 ] final -112.39 input  -60.11 | X-H torsion
[ 7974 7965 7964 7962 ] final  146.90 input  175.53 | X-H torsion
[ 8008 7997 7996 7995 ] final   19.51 input   59.86 | X-H torsion
[ 10167 10162 10161 10158 ] final   94.73 input  -65.29 | X-H torsion
[ 10718 10713 10712 10709 ] final   67.95 input   66.30 | X-H torsion
[ 10763 10752 10751 10750 ] final  -47.86 input  -60.55 | X-H torsion
[ 11005 11000 10999 10996 ] final  109.58 input  -57.11 | X-H torsion

> <Gold.Protein.ActiveResidues>
 VAL166  LYS551  ARG553  GLY616  TRP617  ASP618  TYR619  PRO620  LYS621  CYS622 
 ASP623  PHE694  ASN695  SER759  ASP760  ASP761  ALA762  ILE779  LEU786  VAL792 
 PHE793  MET794  SER795  GLU796  ALA797  LYS798  CYS799  TRP800  GLU811  SER814 

> <Gold.Protein.RotatedAtoms>
  150.7755  133.9097  159.3365 H   0  0  0  0  0  0  0  0  0  0  0  0  # atno 6907 bound_to 6896
  151.6973  135.0934  160.0254 H   0  0  0  0  0  0  0  0  0  0  0  0  # atno 6908 bound_to 6896
  152.3789  133.6481  159.6181 H   0  0  0  0  0  0  0  0  0  0  0  0  # atno 6909 bound_to 6896
  144.8634  139.5962  143.5920 H   0  0  0  0  0  0  0  0  0  0  0  0  # atno 7974 bound_to 7965
  154.9219  140.3028  155.5212 H   0  0  0  0  0  0  0  0  0  0  0  0  # atno 8008 bound_to 7997
  156.3009  140.2370  156.4206 H   0  0  0  0  0  0  0  0  0  0  0  0  # atno 8009 bound_to 7997
  154.8323  140.0418  157.1474 H   0  0  0  0  0  0  0  0  0  0  0  0  # atno 8010 bound_to 7997
  139.8055  144.6795  150.9708 H   0  0  0  0  0  0  0  0  0  0  0  0  # atno 10167 bound_to 10162
  157.6261  130.9348  150.0312 H   0  0  0  0  0  0  0  0  0  0  0  0  # atno 10718 bound_to 10713
  154.0684  135.6608  153.4821 H   0  0  0  0  0  0  0  0  0  0  0  0  # atno 10763 bound_to 10752
  153.0400  135.5151  154.7591 H   0  0  0  0  0  0  0  0  0  0  0  0  # atno 10764 bound_to 10752
  154.6649  135.3020  154.9786 H   0  0  0  0  0  0  0  0  0  0  0  0  # atno 10765 bound_to 10752
  139.8865  134.9462  156.6147 H   0  0  0  0  0  0  0  0  0  0  0  0  # atno 11005 bound_to 11000
  146.2878  139.7052  142.9183 LP  0  0  0  0  0  0  0  0  0  0  0  0  # atno 17320 bound_to 7965
  145.4267  141.0411  143.2933 LP  0  0  0  0  0  0  0  0  0  0  0  0  # atno 17321 bound_to 7965
  140.7819  143.4237  151.0801 LP  0  0  0  0  0  0  0  0  0  0  0  0  # atno 17342 bound_to 10162
  139.7907  143.8223  152.3151 LP  0  0  0  0  0  0  0  0  0  0  0  0  # atno 17343 bound_to 10162
  156.1434  130.3642  149.9548 LP  0  0  0  0  0  0  0  0  0  0  0  0  # atno 17370 bound_to 10713
  156.7584  130.9141  151.3640 LP  0  0  0  0  0  0  0  0  0  0  0  0  # atno 17371 bound_to 10713
  140.7785  133.8680  155.8548 LP  0  0  0  0  0  0  0  0  0  0  0  0  # atno 17394 bound_to 11000
  140.9781  134.1442  157.4518 LP  0  0  0  0  0  0  0  0  0  0  0  0  # atno 17395 bound_to 11000

$$$$
