AV-unprocessed.smi:2114|AV-procd|sdf|8620|dock3
  -GOLD-   2272011363D 1   1.00000     0.00000
 Structure written by MMmdl.
 47 48  0  0  0  0  0  0  0  0  1 V2000
  150.3656  131.3253  154.9892 C   0  0  0  0  0  0  0  0  0  0  0  0
  149.6132  132.4910  154.7021 O   0  0  0  0  0  0  0  0  0  0  0  0
  150.0899  133.6312  155.3986 C   0  0  0  0  0  0  0  0  0  0  0  0
  149.1487  134.8182  155.1428 C   0  0  1  0  0  0  0  0  0  0  0  0
  147.7145  134.5069  155.6012 C   0  0  0  0  0  0  0  0  0  0  0  0
  149.6535  136.0008  155.8354 N   0  0  0  0  0  0  0  0  0  0  0  0
  150.7909  136.6502  155.5367 C   0  0  0  0  0  0  0  0  0  0  0  0
  151.5574  136.3016  154.6386 O   0  0  0  0  0  0  0  0  0  0  0  0
  151.1203  137.8219  156.4159 C   0  0  0  0  0  0  0  0  0  0  0  0
  150.3505  138.1356  157.5574 C   0  0  0  0  0  0  0  0  0  0  0  0
  150.6908  139.2658  158.3249 C   0  0  0  0  0  0  0  0  0  0  0  0
  151.7901  140.0636  157.9295 C   0  0  0  0  0  0  0  0  0  0  0  0
  152.1436  141.2039  158.6817 N   0  0  0  0  0  0  0  0  0  0  0  0
  153.4454  141.1494  159.3404 C   0  0  0  0  0  0  0  0  0  0  0  0
  153.5801  142.2699  160.3905 C   0  0  2  0  0  0  0  0  0  0  0  0
  152.7855  141.9976  161.6804 C   0  0  0  0  0  0  0  0  0  0  0  0
  153.2516  143.5341  159.8096 O   0  0  0  0  0  0  0  0  0  0  0  0
  151.9561  143.6001  159.2147 C   0  0  1  0  0  0  0  0  0  0  0  0
  151.7665  145.0090  158.6431 C   0  0  0  0  0  0  0  0  0  0  0  0
  151.8328  142.5185  158.1272 C   0  0  0  0  0  0  0  0  0  0  0  0
  152.5196  139.7691  156.8256 N   0  0  0  0  0  0  0  0  0  0  0  0
  152.1904  138.6837  156.0937 C   0  0  0  0  0  0  0  0  0  0  0  0
  149.9652  130.4828  154.4258 H   0  0  0  0  0  0  0  0  0  0  0  0
  150.3156  131.0750  156.0497 H   0  0  0  0  0  0  0  0  0  0  0  0
  151.4120  131.4517  154.7078 H   0  0  0  0  0  0  0  0  0  0  0  0
  150.1268  133.4124  156.4670 H   0  0  0  0  0  0  0  0  0  0  0  0
  151.1055  133.8734  155.0801 H   0  0  0  0  0  0  0  0  0  0  0  0
  149.1334  135.0098  154.0683 H   0  0  0  0  0  0  0  0  0  0  0  0
  147.3199  133.6312  155.0852 H   0  0  0  0  0  0  0  0  0  0  0  0
  147.0413  135.3386  155.3919 H   0  0  0  0  0  0  0  0  0  0  0  0
  147.6748  134.3074  156.6725 H   0  0  0  0  0  0  0  0  0  0  0  0
  149.1029  136.3421  156.6096 H   0  0  0  0  0  0  0  0  0  0  0  0
  149.5031  137.5309  157.8465 H   0  0  0  0  0  0  0  0  0  0  0  0
  150.0971  139.5182  159.1909 H   0  0  0  0  0  0  0  0  0  0  0  0
  153.6255  140.1851  159.8138 H   0  0  0  0  0  0  0  0  0  0  0  0
  154.2159  141.2700  158.5777 H   0  0  0  0  0  0  0  0  0  0  0  0
  154.6306  142.3320  160.6758 H   0  0  0  0  0  0  0  0  0  0  0  0
  153.1551  141.1011  162.1783 H   0  0  0  0  0  0  0  0  0  0  0  0
  151.7237  141.8446  161.4885 H   0  0  0  0  0  0  0  0  0  0  0  0
  152.8839  142.8275  162.3804 H   0  0  0  0  0  0  0  0  0  0  0  0
  151.1931  143.4408  159.9770 H   0  0  0  0  0  0  0  0  0  0  0  0
  150.7833  145.1173  158.1845 H   0  0  0  0  0  0  0  0  0  0  0  0
  152.5170  145.2312  157.8839 H   0  0  0  0  0  0  0  0  0  0  0  0
  151.8523  145.7619  159.4269 H   0  0  0  0  0  0  0  0  0  0  0  0
  152.5157  142.7307  157.3029 H   0  0  0  0  0  0  0  0  0  0  0  0
  150.8195  142.5282  157.7230 H   0  0  0  0  0  0  0  0  0  0  0  0
  152.8070  138.5029  155.2251 H   0  0  0  0  0  0  0  0  0  0  0  0
  1  2  1  0  0  0  0
  1 23  1  0  0  0  0
  1 24  1  0  0  0  0
  1 25  1  0  0  0  0
  2  3  1  0  0  0  0
  3  4  1  0  0  0  0
  3 26  1  0  0  0  0
  3 27  1  0  0  0  0
  4  5  1  0  0  0  0
  4  6  1  0  0  0  0
  4 28  1  0  0  0  0
  5 29  1  0  0  0  0
  5 30  1  0  0  0  0
  5 31  1  0  0  0  0
  6  7  1  0  0  0  0
  6 32  1  0  0  0  0
  7  8  2  0  0  0  0
  7  9  1  0  0  0  0
  9 22  1  0  0  0  0
  9 10  2  0  0  0  0
 10 11  1  0  0  0  0
 10 33  1  0  0  0  0
 11 12  2  0  0  0  0
 11 34  1  0  0  0  0
 12 13  1  0  0  0  0
 12 21  1  0  0  0  0
 13 20  1  0  0  0  0
 13 14  1  0  0  0  0
 14 15  1  0  0  0  0
 14 35  1  0  0  0  0
 14 36  1  0  0  0  0
 15 16  1  0  0  0  0
 15 17  1  0  0  0  0
 15 37  1  0  0  0  0
 16 38  1  0  0  0  0
 16 39  1  0  0  0  0
 16 40  1  0  0  0  0
 17 18  1  0  0  0  0
 18 19  1  0  0  0  0
 18 20  1  0  0  0  0
 18 41  1  0  0  0  0
 19 42  1  0  0  0  0
 19 43  1  0  0  0  0
 19 44  1  0  0  0  0
 20 45  1  0  0  0  0
 20 46  1  0  0  0  0
 21 22  2  0  0  0  0
 22 47  1  0  0  0  0
M  END
> <s_m_source_file>
AV-unprocessed.smi

> <i_m_source_file_index>
2114

> <i_lp_mmshare_version>
43012

> <i_f3d_flags>
0

> <s_epik_input>
W0NIM11PW0NIMl1bQ0BIXShbQ0gzXSlbTkhdQyg9TyljMVtjSF1bY0hdYyhuW2NIXTEpTjJbQ0gyXVtDQEBIXShbQ0gzXSlPW0NAQEhdKFtDSDNdKVtDSDJdMg==

> <s_epik_cmdline>
J2VwaWtfcHl0aG9uJywgJy1waCcsICc3LjAnLCAnLXRuJywgJzgnLCAnLW1hJywgJzIwMCcsICctbWV0YWxfYmluZGluZycsICctaW1hZScsICc8aW5maWxlLm1hZT4nLCAnLW9tYWUnLCAnPG91dGZpbGUubWFlPic=

> <r_lp_tautomer_probability>
1

> <r_epik_Ionization_Penalty>
1.92915e-05

> <r_epik_Ionization_Penalty_Charging>
0

> <r_epik_Ionization_Penalty_Neutral>
1.92915e-05

> <r_epik_State_Penalty>
-0

> <r_epik_Charging_Adjusted_Penalty>
0

> <i_epik_Tot_Q>
0

> <i_epik_Tot_abs_Q>
0

> <r_epik_Metal_State_Penalty>
-0

> <b_epik_Metal_Only>
0

> <s_lp_Force_Field>
OPLS_2005

> <r_lp_Energy>
21.8338

> <b_lp_Chiralities_Consistent>
1

> <s_lp_Variant>
AV-unprocessed.smi:2114-4

> <Gold.Version>
5.8.1

> <Gold.Id.Protein>
6NUR|6NUR_protein|mol2

> <Gold.PLP.Fitness>
41.3051

> <Gold.PLP.PLP>
-35.5411

> <Gold.PLP.part.hbond>
-2.0000

> <Gold.PLP.part.metal>
0.0000

> <Gold.PLP.part.buried>
-6.8249

> <Gold.PLP.part.nonpolar>
-27.5552

> <Gold.PLP.part.repulsive>
0.2154

> <Gold.PLP.ligand.clash>
0.0000

> <Gold.PLP.ligand.torsion>
0.2995

> <Gold.PLP.Chemscore.Hbond>
2.0000

> <Gold.PLP.Chemscore.CHOScore>
0.0000

> <Gold.PLP.Chemscore.Metal>
0.0000

> <Gold.Chemscore.Hbonds>
donor molecule, donor type, donor heavy atom, donor atom, acceptor molecule, acceptor atom, score
      P1  H  7997  8009       L1    21  1.00
      P1  H 10752 10765       L1     8  1.00

> <Gold.PLP.Chemscore.Internal.Correction>
0.3629

> <Gold.Rescore>
     Score         DG    S(hbond)    S(metal)    S(lipo)     H(rot)  DE(clash)    DE(int)     intcor
     19.00     -19.31       1.91        0.00      96.84       1.52       0.00       0.31       ----

> <Gold.Chemscore.Fitness>
18.9980

> <Gold.Chemscore.DG>
-19.3074

> <Gold.Chemscore.ZeroCoef>
-5.4800

> <Gold.Chemscore.Hbond>
1.9146

> <Gold.Chemscore.Metal>
0.0000

> <Gold.Chemscore.Lipo>
96.8433

> <Gold.Chemscore.Internal_Hbond>
0.0000

> <Gold.Chemscore.DEClash>
0.0004

> <Gold.Chemscore.DEInternal>
0.3091

> <Gold.Chemscore.Rot>
1.5226

> <Gold.Chemscore.Internal.Correction>
   9.000000E+99

> <Gold.Chemscore.Hbonds>
donor molecule, donor type, donor heavy atom, donor atom, acceptor molecule, acceptor atom, score
      P1  H  7997  8009       L1    21  0.55
      P1  H 10752 10765       L1     8  0.94

> <Gold.Chemscore.Hbond.Weighted>
-6.3947

> <Gold.Chemscore.Metal.Weighted>
-0.0000

> <Gold.Chemscore.Lipo.Weighted>
-11.3307

> <Gold.Chemscore.Internal_Hbond.Weighted>
0.0000

> <Gold.Chemscore.DEClash.Weighted>
0.0004

> <Gold.Chemscore.DEInternal.Weighted>
0.3091

> <Gold.Chemscore.Rot.Weighted>
3.8980

> <Gold.Chemscore.Internal.Correction.Weighted>
   9.000000E+99

> <Gold.Protein.RotatedTorsions>
[ 6907 6896 6895 6894 ] final  -26.87 input  -60.11 | X-H torsion
[ 7974 7965 7964 7962 ] final  -85.96 input  175.53 | X-H torsion
[ 8008 7997 7996 7995 ] final -169.52 input   59.86 | X-H torsion
[ 10167 10162 10161 10158 ] final  178.74 input  -65.29 | X-H torsion
[ 10718 10713 10712 10709 ] final   -4.93 input   66.30 | X-H torsion
[ 10763 10752 10751 10750 ] final  165.68 input  -60.55 | X-H torsion
[ 11005 11000 10999 10996 ] final   32.61 input  -57.11 | X-H torsion

> <Gold.Protein.ActiveResidues>
 VAL166  LYS551  ARG553  GLY616  TRP617  ASP618  TYR619  PRO620  LYS621  CYS622 
 ASP623  PHE694  ASN695  SER759  ASP760  ASP761  ALA762  ILE779  LEU786  VAL792 
 PHE793  MET794  SER795  GLU796  ALA797  LYS798  CYS799  TRP800  GLU811  SER814 

> <Gold.Protein.RotatedAtoms>
  151.1549  135.0245  159.8684 H   0  0  0  0  0  0  0  0  0  0  0  0  # atno 6907 bound_to 6896
  152.5452  134.1346  159.8463 H   0  0  0  0  0  0  0  0  0  0  0  0  # atno 6908 bound_to 6896
  151.1435  133.4909  159.2629 H   0  0  0  0  0  0  0  0  0  0  0  0  # atno 6909 bound_to 6896
  145.4863  140.9555  143.1837 H   0  0  0  0  0  0  0  0  0  0  0  0  # atno 7974 bound_to 7965
  155.9060  140.1049  157.1314 H   0  0  0  0  0  0  0  0  0  0  0  0  # atno 8008 bound_to 7997
  154.4033  140.1283  156.4561 H   0  0  0  0  0  0  0  0  0  0  0  0  # atno 8009 bound_to 7997
  155.7366  140.3467  155.5087 H   0  0  0  0  0  0  0  0  0  0  0  0  # atno 8010 bound_to 7997
  139.5306  144.2644  152.0680 H   0  0  0  0  0  0  0  0  0  0  0  0  # atno 10167 bound_to 10162
  156.7540  130.5248  149.5798 H   0  0  0  0  0  0  0  0  0  0  0  0  # atno 10718 bound_to 10713
  154.3276  135.2755  155.2488 H   0  0  0  0  0  0  0  0  0  0  0  0  # atno 10763 bound_to 10752
  154.4814  135.5857  153.6395 H   0  0  0  0  0  0  0  0  0  0  0  0  # atno 10764 bound_to 10752
  152.9870  135.6112  154.3466 H   0  0  0  0  0  0  0  0  0  0  0  0  # atno 10765 bound_to 10752
  140.2717  134.3075  155.7826 H   0  0  0  0  0  0  0  0  0  0  0  0  # atno 11005 bound_to 11000
  144.7860  139.6427  143.7134 LP  0  0  0  0  0  0  0  0  0  0  0  0  # atno 17320 bound_to 7965
  146.2311  139.5815  142.9554 LP  0  0  0  0  0  0  0  0  0  0  0  0  # atno 17321 bound_to 7965
  140.2107  144.4565  150.6387 LP  0  0  0  0  0  0  0  0  0  0  0  0  # atno 17342 bound_to 10162
  140.6482  143.2218  151.6137 LP  0  0  0  0  0  0  0  0  0  0  0  0  # atno 17343 bound_to 10162
  156.1382  130.6226  151.0430 LP  0  0  0  0  0  0  0  0  0  0  0  0  # atno 17370 bound_to 10713
  157.6764  131.0849  150.7483 LP  0  0  0  0  0  0  0  0  0  0  0  0  # atno 17371 bound_to 10713
  141.2176  133.7471  156.9344 LP  0  0  0  0  0  0  0  0  0  0  0  0  # atno 17394 bound_to 11000
  140.1367  134.9320  157.2411 LP  0  0  0  0  0  0  0  0  0  0  0  0  # atno 17395 bound_to 11000

$$$$
