AV-unprocessed.smi:1464|AV-procd|sdf|5948|dock5
  -GOLD-   22720 6 33D 1   1.00000     0.00000
 Structure written by MMmdl.
 41 42  0  0  0  0  0  0  0  0  1 V2000
  153.8531  141.7325  160.5466 C   0  0  0  0  0  0  0  0  0  0  0  0
  152.6158  142.4099  159.9279 C   0  0  1  0  0  0  0  0  0  0  0  0
  152.9601  143.8650  159.5527 C   0  0  0  0  0  0  0  0  0  0  0  0
  151.7540  144.6029  158.9623 C   0  0  0  0  0  0  0  0  0  0  0  0
  151.2175  143.8621  157.7343 C   0  0  0  0  0  0  0  0  0  0  0  0
  150.8495  142.4041  158.0720 C   0  0  1  0  0  0  0  0  0  0  0  0
  150.3936  141.7323  156.8560 N   0  0  0  0  0  0  0  0  0  0  0  0
  149.1146  141.4906  156.5305 C   0  0  0  0  0  0  0  0  0  0  0  0
  148.1635  141.8059  157.2472 O   0  0  0  0  0  0  0  0  0  0  0  0
  148.8898  140.7654  155.1957 C   0  0  0  0  0  0  0  0  0  0  0  0
  149.6951  139.5441  155.0484 N   0  0  0  0  0  0  0  0  0  0  0  0
  151.0575  139.7745  154.9307 N   0  0  0  0  0  0  0  0  0  0  0  0
  151.8708  138.7809  154.8045 C   0  0  0  0  0  0  0  0  0  0  0  0
  153.2119  139.0543  154.6924 O   0  0  0  0  0  0  0  0  0  0  0  0
  151.3890  137.4172  154.7810 C   0  0  0  0  0  0  0  0  0  0  0  0
  150.0596  137.2030  154.8912 C   0  0  0  0  0  0  0  0  0  0  0  0
  149.1089  138.3073  155.0336 C   0  0  0  0  0  0  0  0  0  0  0  0
  147.8929  138.1419  155.1309 O   0  0  0  0  0  0  0  0  0  0  0  0
  152.0416  141.6365  158.7064 C   0  0  2  0  0  0  0  0  0  0  0  0
  151.6358  140.1926  159.0765 C   0  0  0  0  0  0  0  0  0  0  0  0
  153.6190  138.2287  154.4793 H   0  0  0  0  0  0  0  0  0  0  0  0
  154.6362  141.5814  159.8031 H   0  0  0  0  0  0  0  0  0  0  0  0
  153.6115  140.7644  160.9841 H   0  0  0  0  0  0  0  0  0  0  0  0
  154.2724  142.3413  161.3482 H   0  0  0  0  0  0  0  0  0  0  0  0
  151.8435  142.4440  160.6980 H   0  0  0  0  0  0  0  0  0  0  0  0
  153.3146  144.4039  160.4321 H   0  0  0  0  0  0  0  0  0  0  0  0
  153.7810  143.8763  158.8341 H   0  0  0  0  0  0  0  0  0  0  0  0
  150.9685  144.6912  159.7141 H   0  0  0  0  0  0  0  0  0  0  0  0
  152.0376  145.6195  158.6882 H   0  0  0  0  0  0  0  0  0  0  0  0
  150.3460  144.3903  157.3452 H   0  0  0  0  0  0  0  0  0  0  0  0
  151.9685  143.8817  156.9431 H   0  0  0  0  0  0  0  0  0  0  0  0
  150.0360  142.4144  158.8003 H   0  0  0  0  0  0  0  0  0  0  0  0
  151.1095  141.4332  156.2098 H   0  0  0  0  0  0  0  0  0  0  0  0
  147.8306  140.5251  155.0852 H   0  0  0  0  0  0  0  0  0  0  0  0
  149.1160  141.4665  154.3903 H   0  0  0  0  0  0  0  0  0  0  0  0
  152.0836  136.5967  154.6769 H   0  0  0  0  0  0  0  0  0  0  0  0
  149.6857  136.1899  154.8750 H   0  0  0  0  0  0  0  0  0  0  0  0
  152.8312  141.5717  157.9557 H   0  0  0  0  0  0  0  0  0  0  0  0
  150.8828  140.1847  159.8650 H   0  0  0  0  0  0  0  0  0  0  0  0
  152.4875  139.6074  159.4209 H   0  0  0  0  0  0  0  0  0  0  0  0
  151.2240  139.6538  158.2234 H   0  0  0  0  0  0  0  0  0  0  0  0
  1  2  1  0  0  0  0
  1 22  1  0  0  0  0
  1 23  1  0  0  0  0
  1 24  1  0  0  0  0
  2 19  1  0  0  0  0
  2  3  1  0  0  0  0
  2 25  1  0  0  0  0
  3  4  1  0  0  0  0
  3 26  1  0  0  0  0
  3 27  1  0  0  0  0
  4  5  1  0  0  0  0
  4 28  1  0  0  0  0
  4 29  1  0  0  0  0
  5  6  1  0  0  0  0
  5 30  1  0  0  0  0
  5 31  1  0  0  0  0
  6  7  1  0  0  0  0
  6 19  1  0  0  0  0
  6 32  1  0  0  0  0
  7  8  1  0  0  0  0
  7 33  1  0  0  0  0
  8  9  2  0  0  0  0
  8 10  1  0  0  0  0
 10 34  1  0  0  0  0
 10 35  1  0  0  0  0
 10 11  1  0  0  0  0
 11 12  1  0  0  0  0
 11 17  1  0  0  0  0
 12 13  2  0  0  0  0
 13 14  1  0  0  0  0
 13 15  1  0  0  0  0
 14 21  1  0  0  0  0
 15 36  1  0  0  0  0
 15 16  2  0  0  0  0
 16 37  1  0  0  0  0
 16 17  1  0  0  0  0
 17 18  2  0  0  0  0
 19 20  1  0  0  0  0
 19 38  1  0  0  0  0
 20 39  1  0  0  0  0
 20 40  1  0  0  0  0
 20 41  1  0  0  0  0
M  END
> <s_m_source_file>
AV-unprocessed.smi

> <i_m_source_file_index>
1464

> <i_lp_mmshare_version>
43012

> <i_f3d_flags>
0

> <s_epik_input>
W0NIM11bQ0BASF0xW0NIMl1bQ0gyXVtDSDJdW0NASF0oW0NASF0xW0NIM10pW05IXUMoPU8pW0NIMl1uMltuSF1jKD1PKVtjSF1bY0hdYzI9Tw==

> <s_epik_cmdline>
J2VwaWtfcHl0aG9uJywgJy1waCcsICc3LjAnLCAnLXRuJywgJzgnLCAnLW1hJywgJzIwMCcsICctbWV0YWxfYmluZGluZycsICctaW1hZScsICc8aW5maWxlLm1hZT4nLCAnLW9tYWUnLCAnPG91dGZpbGUubWFlPic=

> <r_lp_tautomer_probability>
0.9996

> <r_epik_Ionization_Penalty>
2.10335

> <r_epik_Ionization_Penalty_Charging>
3.98079e-08

> <r_epik_Ionization_Penalty_Neutral>
2.10335

> <r_epik_State_Penalty>
1.67957

> <r_epik_Charging_Adjusted_Penalty>
1.67957

> <i_epik_Tot_Q>
0

> <i_epik_Tot_abs_Q>
0

> <r_epik_Metal_State_Penalty>
1.67957

> <b_epik_Metal_Only>
0

> <s_lp_Force_Field>
OPLS_2005

> <r_lp_Energy>
24.139

> <b_lp_Chiralities_Consistent>
1

> <s_lp_Variant>
AV-unprocessed.smi:1464-14

> <Gold.Version>
5.8.1

> <Gold.Id.Protein>
6NUR|6NUR_protein|mol2

> <Gold.PLP.Fitness>
49.5899

> <Gold.PLP.PLP>
-44.3047

> <Gold.PLP.part.hbond>
-2.0000

> <Gold.PLP.part.metal>
0.0000

> <Gold.PLP.part.buried>
-4.0541

> <Gold.PLP.part.nonpolar>
-39.8893

> <Gold.PLP.part.repulsive>
1.3845

> <Gold.PLP.ligand.clash>
0.0000

> <Gold.PLP.ligand.torsion>
0.3611

> <Gold.PLP.Chemscore.Hbond>
2.0000

> <Gold.PLP.Chemscore.CHOScore>
0.0000

> <Gold.PLP.Chemscore.Metal>
0.0000

> <Gold.Chemscore.Hbonds>
donor molecule, donor type, donor heavy atom, donor atom, acceptor molecule, acceptor atom, score
      P1  H  7989  7998       L1    12  1.00
      P1  H  7997  8009       L1    14  0.91

> <Gold.PLP.Chemscore.Internal.Correction>
0.0073

> <Gold.Rescore>
     Score         DG    S(hbond)    S(metal)    S(lipo)     H(rot)  DE(clash)    DE(int)     intcor
     14.79     -16.40       1.41        0.00     101.61       2.22       0.02       1.59       ----

> <Gold.Chemscore.Fitness>
14.7891

> <Gold.Chemscore.DG>
-16.4007

> <Gold.Chemscore.ZeroCoef>
-5.4800

> <Gold.Chemscore.Hbond>
1.4136

> <Gold.Chemscore.Metal>
0.0000

> <Gold.Chemscore.Lipo>
101.6106

> <Gold.Chemscore.Internal_Hbond>
0.0000

> <Gold.Chemscore.DEClash>
0.0234

> <Gold.Chemscore.DEInternal>
1.5882

> <Gold.Chemscore.Rot>
2.2224

> <Gold.Chemscore.Internal.Correction>
   9.000000E+99

> <Gold.Chemscore.Hbonds>
donor molecule, donor type, donor heavy atom, donor atom, acceptor molecule, acceptor atom, score
      P1  H  7989  7998       L1    12  0.24
      P1  H  7997  8009       L1    14  0.65

> <Gold.Chemscore.Hbond.Weighted>
-4.7216

> <Gold.Chemscore.Metal.Weighted>
-0.0000

> <Gold.Chemscore.Lipo.Weighted>
-11.8884

> <Gold.Chemscore.Internal_Hbond.Weighted>
0.0000

> <Gold.Chemscore.DEClash.Weighted>
0.0234

> <Gold.Chemscore.DEInternal.Weighted>
1.5882

> <Gold.Chemscore.Rot.Weighted>
5.6893

> <Gold.Chemscore.Internal.Correction.Weighted>
   9.000000E+99

> <Gold.Protein.RotatedTorsions>
[ 6907 6896 6895 6894 ] final  104.79 input  -60.11 | X-H torsion
[ 7974 7965 7964 7962 ] final -100.62 input  175.53 | X-H torsion
[ 8008 7997 7996 7995 ] final -137.98 input   59.86 | X-H torsion
[ 10167 10162 10161 10158 ] final -176.46 input  -65.29 | X-H torsion
[ 10718 10713 10712 10709 ] final   64.82 input   66.30 | X-H torsion
[ 10763 10752 10751 10750 ] final -134.20 input  -60.55 | X-H torsion
[ 11005 11000 10999 10996 ] final  101.65 input  -57.11 | X-H torsion

> <Gold.Protein.ActiveResidues>
 VAL166  LYS551  ARG553  GLY616  TRP617  ASP618  TYR619  PRO620  LYS621  CYS622 
 ASP623  PHE694  ASN695  SER759  ASP760  ASP761  ALA762  ILE779  LEU786  VAL792 
 PHE793  MET794  SER795  GLU796  ALA797  LYS798  CYS799  TRP800  GLU811  SER814 

> <Gold.Protein.RotatedAtoms>
  152.5253  133.9625  159.7723 H   0  0  0  0  0  0  0  0  0  0  0  0  # atno 6907 bound_to 6896
  150.9913  133.6139  159.2715 H   0  0  0  0  0  0  0  0  0  0  0  0  # atno 6908 bound_to 6896
  151.3281  135.0841  159.9382 H   0  0  0  0  0  0  0  0  0  0  0  0  # atno 6909 bound_to 6896
  145.2922  140.9355  143.2871 H   0  0  0  0  0  0  0  0  0  0  0  0  # atno 7974 bound_to 7965
  155.4207  140.0518  157.3026 H   0  0  0  0  0  0  0  0  0  0  0  0  # atno 8008 bound_to 7997
  154.4904  140.2117  155.9521 H   0  0  0  0  0  0  0  0  0  0  0  0  # atno 8009 bound_to 7997
  156.1333  140.3167  155.8388 H   0  0  0  0  0  0  0  0  0  0  0  0  # atno 8010 bound_to 7997
  139.5529  144.2064  152.1108 H   0  0  0  0  0  0  0  0  0  0  0  0  # atno 10167 bound_to 10162
  157.6065  130.9180  149.9895 H   0  0  0  0  0  0  0  0  0  0  0  0  # atno 10718 bound_to 10713
  154.8722  135.3742  154.4697 H   0  0  0  0  0  0  0  0  0  0  0  0  # atno 10763 bound_to 10752
  153.5358  135.7027  153.5665 H   0  0  0  0  0  0  0  0  0  0  0  0  # atno 10764 bound_to 10752
  153.3849  135.3987  155.1848 H   0  0  0  0  0  0  0  0  0  0  0  0  # atno 10765 bound_to 10752
  139.8774  134.9192  156.4939 H   0  0  0  0  0  0  0  0  0  0  0  0  # atno 11005 bound_to 11000
  144.9163  139.4466  143.6562 LP  0  0  0  0  0  0  0  0  0  0  0  0  # atno 17320 bound_to 7965
  146.3181  139.8000  142.8967 LP  0  0  0  0  0  0  0  0  0  0  0  0  # atno 17321 bound_to 7965
  140.1563  144.5068  150.6658 LP  0  0  0  0  0  0  0  0  0  0  0  0  # atno 17342 bound_to 10162
  140.6795  143.2320  151.5420 LP  0  0  0  0  0  0  0  0  0  0  0  0  # atno 17343 bound_to 10162
  156.1153  130.3648  149.9980 LP  0  0  0  0  0  0  0  0  0  0  0  0  # atno 17370 bound_to 10713
  156.8070  130.9311  151.3645 LP  0  0  0  0  0  0  0  0  0  0  0  0  # atno 17371 bound_to 10713
  140.8639  133.8039  155.9293 LP  0  0  0  0  0  0  0  0  0  0  0  0  # atno 17394 bound_to 11000
  140.9022  134.2365  157.5035 LP  0  0  0  0  0  0  0  0  0  0  0  0  # atno 17395 bound_to 11000

$$$$
