AV-unprocessed.smi:3299|AV-procd|sdf|12649|dock8
  -GOLD-   2272018583D 1   1.00000     0.00000
 Structure written by MMmdl.
 34 35  0  0  0  0  0  0  0  0  1 V2000
  152.8516  142.3243  161.8126 C   0  0  0  0  0  0  0  0  0  0  0  0
  152.2074  143.2501  160.8291 C   0  0  0  0  0  0  0  0  0  0  0  0
  152.0590  144.6105  160.9521 C   0  0  0  0  0  0  0  0  0  0  0  0
  151.2486  145.3073  159.5754 S   0  0  0  0  0  0  0  0  0  0  0  0
  151.1412  143.6908  158.8754 C   0  0  0  0  0  0  0  0  0  0  0  0
  150.5626  143.3272  157.6344 N   0  0  0  0  0  0  0  0  0  0  0  0
  150.4266  142.0945  157.1198 C   0  0  0  0  0  0  0  0  0  0  0  0
  150.7851  141.0532  157.6691 O   0  0  0  0  0  0  0  0  0  0  0  0
  149.8451  142.1388  155.9104 N   0  0  0  0  0  0  0  0  0  0  0  0
  149.5302  141.0036  155.0402 C   0  0  1  0  0  0  0  0  0  0  0  0
  150.5335  139.8401  155.2117 C   0  0  0  0  0  0  0  0  0  0  0  0
  150.1033  138.5352  154.5212 C   0  0  0  0  0  0  0  0  0  0  0  0
  149.7838  138.7913  153.1706 O   0  0  0  0  0  0  0  0  0  0  0  0
  148.0926  140.5149  155.1415 C   0  0  0  0  0  0  0  0  0  0  0  0
  147.2671  140.2685  153.9015 C   0  0  0  0  0  0  0  0  0  0  0  0
  146.9318  141.4243  154.8178 C   0  0  0  0  0  0  0  0  0  0  0  0
  151.6787  142.7384  159.6395 N   0  0  0  0  0  0  0  0  0  0  0  0
  153.3542  142.8745  162.6084 H   0  0  0  0  0  0  0  0  0  0  0  0
  153.5965  141.6914  161.3298 H   0  0  0  0  0  0  0  0  0  0  0  0
  152.1133  141.6714  162.2786 H   0  0  0  0  0  0  0  0  0  0  0  0
  152.3763  145.2438  161.7674 H   0  0  0  0  0  0  0  0  0  0  0  0
  150.2204  144.0933  157.0736 H   0  0  0  0  0  0  0  0  0  0  0  0
  149.5908  143.0488  155.5547 H   0  0  0  0  0  0  0  0  0  0  0  0
  149.6602  141.3861  154.0269 H   0  0  0  0  0  0  0  0  0  0  0  0
  151.5173  140.1369  154.8462 H   0  0  0  0  0  0  0  0  0  0  0  0
  150.6610  139.6448  156.2775 H   0  0  0  0  0  0  0  0  0  0  0  0
  150.9035  137.7958  154.5622 H   0  0  0  0  0  0  0  0  0  0  0  0
  149.2298  138.1018  155.0087 H   0  0  0  0  0  0  0  0  0  0  0  0
  149.6280  137.9664  152.7366 H   0  0  0  0  0  0  0  0  0  0  0  0
  147.9255  139.8089  155.9527 H   0  0  0  0  0  0  0  0  0  0  0  0
  147.7136  140.5056  152.9378 H   0  0  0  0  0  0  0  0  0  0  0  0
  146.5980  139.4105  153.9071 H   0  0  0  0  0  0  0  0  0  0  0  0
  146.0399  141.3365  155.4347 H   0  0  0  0  0  0  0  0  0  0  0  0
  147.1561  142.4281  154.4623 H   0  0  0  0  0  0  0  0  0  0  0  0
  1  2  1  0  0  0  0
  1 18  1  0  0  0  0
  1 19  1  0  0  0  0
  1 20  1  0  0  0  0
  2 17  1  0  0  0  0
  2  3  2  0  0  0  0
  3  4  1  0  0  0  0
  3 21  1  0  0  0  0
  4  5  1  0  0  0  0
  5  6  1  0  0  0  0
  5 17  2  0  0  0  0
  6  7  1  0  0  0  0
  6 22  1  0  0  0  0
  7  8  2  0  0  0  0
  7  9  1  0  0  0  0
  9 10  1  0  0  0  0
  9 23  1  0  0  0  0
 10 11  1  0  0  0  0
 10 14  1  0  0  0  0
 10 24  1  0  0  0  0
 11 12  1  0  0  0  0
 11 25  1  0  0  0  0
 11 26  1  0  0  0  0
 12 13  1  0  0  0  0
 12 27  1  0  0  0  0
 12 28  1  0  0  0  0
 13 29  1  0  0  0  0
 14 16  1  0  0  0  0
 14 15  1  0  0  0  0
 14 30  1  0  0  0  0
 15 16  1  0  0  0  0
 15 31  1  0  0  0  0
 15 32  1  0  0  0  0
 16 33  1  0  0  0  0
 16 34  1  0  0  0  0
M  END
> <s_m_source_file>
AV-unprocessed.smi

> <i_m_source_file_index>
3299

> <i_lp_mmshare_version>
43012

> <i_f3d_flags>
0

> <s_epik_input>
W0NIM11jMVtjSF1zYyhuMSlbTkhdQyg9TylbTkhdW0NASF0oW0NIMl1bQ0gyXVtPSF0pW0NIXTJbQ0gyXVtDSDJdMg==

> <s_epik_cmdline>
J2VwaWtfcHl0aG9uJywgJy1waCcsICc3LjAnLCAnLXRuJywgJzgnLCAnLW1hJywgJzIwMCcsICctbWV0YWxfYmluZGluZycsICctaW1hZScsICc8aW5maWxlLm1hZT4nLCAnLW9tYWUnLCAnPG91dGZpbGUubWFlPic=

> <r_lp_tautomer_probability>
0.999

> <r_epik_Ionization_Penalty>
0.000568872

> <r_epik_Ionization_Penalty_Charging>
0

> <r_epik_Ionization_Penalty_Neutral>
0.000568872

> <r_epik_State_Penalty>
0.000177984

> <r_epik_Charging_Adjusted_Penalty>
0.000177984

> <i_epik_Tot_Q>
0

> <i_epik_Tot_abs_Q>
0

> <r_epik_Metal_State_Penalty>
-0

> <b_epik_Metal_Only>
0

> <s_lp_Force_Field>
OPLS_2005

> <r_lp_Energy>
11.9184

> <b_lp_Chiralities_Consistent>
1

> <s_lp_Variant>
AV-unprocessed.smi:3299-2

> <Gold.Version>
5.8.1

> <Gold.Id.Protein>
6NUR|6NUR_protein|mol2

> <Gold.PLP.Fitness>
45.4324

> <Gold.PLP.PLP>
-37.6477

> <Gold.PLP.part.hbond>
-3.5575

> <Gold.PLP.part.metal>
0.0000

> <Gold.PLP.part.buried>
-6.3580

> <Gold.PLP.part.nonpolar>
-28.3331

> <Gold.PLP.part.repulsive>
0.1599

> <Gold.PLP.ligand.clash>
0.0000

> <Gold.PLP.ligand.torsion>
1.1328

> <Gold.PLP.Chemscore.Hbond>
2.9600

> <Gold.PLP.Chemscore.CHOScore>
0.0000

> <Gold.PLP.Chemscore.Metal>
0.0000

> <Gold.Chemscore.Hbonds>
donor molecule, donor type, donor heavy atom, donor atom, acceptor molecule, acceptor atom, score
      L1  H     6    22       P1  8028  0.96
      L1  H     9    23       P1  8028  1.00
      L1  H    13    29       P1  7948  1.00

> <Gold.PLP.Chemscore.Internal.Correction>
1.1704

> <Gold.Rescore>
     Score         DG    S(hbond)    S(metal)    S(lipo)     H(rot)  DE(clash)    DE(int)     intcor
     14.24     -18.32       2.88        0.00      79.86       2.39       0.00       4.08       ----

> <Gold.Chemscore.Fitness>
14.2352

> <Gold.Chemscore.DG>
-18.3176

> <Gold.Chemscore.ZeroCoef>
-5.4800

> <Gold.Chemscore.Hbond>
2.8793

> <Gold.Chemscore.Metal>
0.0000

> <Gold.Chemscore.Lipo>
79.8582

> <Gold.Chemscore.Internal_Hbond>
0.0000

> <Gold.Chemscore.DEClash>
0.0000

> <Gold.Chemscore.DEInternal>
4.0824

> <Gold.Chemscore.Rot>
2.3917

> <Gold.Chemscore.Internal.Correction>
   9.000000E+99

> <Gold.Chemscore.Hbonds>
donor molecule, donor type, donor heavy atom, donor atom, acceptor molecule, acceptor atom, score
      L1  H     6    22       P1  8028  0.81
      L1  H     9    23       P1  8028  0.99
      L1  H    13    29       P1  7948  0.62

> <Gold.Chemscore.Hbond.Weighted>
-9.6170

> <Gold.Chemscore.Metal.Weighted>
-0.0000

> <Gold.Chemscore.Lipo.Weighted>
-9.3434

> <Gold.Chemscore.Internal_Hbond.Weighted>
0.0000

> <Gold.Chemscore.DEClash.Weighted>
0.0000

> <Gold.Chemscore.DEInternal.Weighted>
4.0824

> <Gold.Chemscore.Rot.Weighted>
6.1228

> <Gold.Chemscore.Internal.Correction.Weighted>
   9.000000E+99

> <Gold.Protein.RotatedTorsions>
[ 6907 6896 6895 6894 ] final  103.11 input  -60.11 | X-H torsion
[ 7974 7965 7964 7962 ] final -154.85 input  175.53 | X-H torsion
[ 8008 7997 7996 7995 ] final -112.63 input   59.86 | X-H torsion
[ 10167 10162 10161 10158 ] final  165.18 input  -65.29 | X-H torsion
[ 10718 10713 10712 10709 ] final -152.21 input   66.30 | X-H torsion
[ 10763 10752 10751 10750 ] final  -66.17 input  -60.55 | X-H torsion
[ 11005 11000 10999 10996 ] final -177.41 input  -57.11 | X-H torsion

> <Gold.Protein.ActiveResidues>
 VAL166  LYS551  ARG553  GLY616  TRP617  ASP618  TYR619  PRO620  LYS621  CYS622 
 ASP623  PHE694  ASN695  SER759  ASP760  ASP761  ALA762  ILE779  LEU786  VAL792 
 PHE793  MET794  SER795  GLU796  ALA797  LYS798  CYS799  TRP800  GLU811  SER814 

> <Gold.Protein.RotatedAtoms>
  152.5305  133.9874  159.7834 H   0  0  0  0  0  0  0  0  0  0  0  0  # atno 6907 bound_to 6896
  151.0116  133.5951  159.2689 H   0  0  0  0  0  0  0  0  0  0  0  0  # atno 6908 bound_to 6896
  151.3024  135.0779  159.9296 H   0  0  0  0  0  0  0  0  0  0  0  0  # atno 6909 bound_to 6896
  144.7669  140.4331  143.5936 H   0  0  0  0  0  0  0  0  0  0  0  0  # atno 7974 bound_to 7965
  155.0082  140.0394  157.2388 H   0  0  0  0  0  0  0  0  0  0  0  0  # atno 8008 bound_to 7997
  154.7484  140.2762  155.6290 H   0  0  0  0  0  0  0  0  0  0  0  0  # atno 8009 bound_to 7997
  156.2880  140.2652  156.2231 H   0  0  0  0  0  0  0  0  0  0  0  0  # atno 8010 bound_to 7997
  139.4901  144.4158  151.9245 H   0  0  0  0  0  0  0  0  0  0  0  0  # atno 10167 bound_to 10162
  156.4695  130.8252  151.2481 H   0  0  0  0  0  0  0  0  0  0  0  0  # atno 10718 bound_to 10713
  154.3559  135.6126  153.5666 H   0  0  0  0  0  0  0  0  0  0  0  0  # atno 10763 bound_to 10752
  152.9796  135.5803  154.4689 H   0  0  0  0  0  0  0  0  0  0  0  0  # atno 10764 bound_to 10752
  154.4418  135.2850  155.1819 H   0  0  0  0  0  0  0  0  0  0  0  0  # atno 10765 bound_to 10752
  140.4413  134.6429  157.4759 H   0  0  0  0  0  0  0  0  0  0  0  0  # atno 11005 bound_to 11000
  145.6443  139.1555  143.2898 LP  0  0  0  0  0  0  0  0  0  0  0  0  # atno 17320 bound_to 7965
  146.1783  140.6537  142.9201 LP  0  0  0  0  0  0  0  0  0  0  0  0  # atno 17321 bound_to 7965
  140.3601  144.2983  150.5935 LP  0  0  0  0  0  0  0  0  0  0  0  0  # atno 17342 bound_to 10162
  140.5410  143.2223  151.8084 LP  0  0  0  0  0  0  0  0  0  0  0  0  # atno 17343 bound_to 10162
  157.7492  131.0081  150.3214 LP  0  0  0  0  0  0  0  0  0  0  0  0  # atno 17370 bound_to 10713
  156.3633  130.3850  149.7234 LP  0  0  0  0  0  0  0  0  0  0  0  0  # atno 17371 bound_to 10713
  140.0068  134.6751  155.9442 LP  0  0  0  0  0  0  0  0  0  0  0  0  # atno 17394 bound_to 11000
  141.1704  133.6537  156.4632 LP  0  0  0  0  0  0  0  0  0  0  0  0  # atno 17395 bound_to 11000

$$$$
