AV-unprocessed.smi:1702|AV-procd|sdf|6845|dock6
  -GOLD-   22720 8 23D 1   1.00000     0.00000
 Structure written by MMmdl.
 44 46  0  0  0  0  0  0  0  0  2 V2000
  145.4514  136.2999  152.5842 C   0  0  0  0  0  0  0  0  0  0  0  0
  146.2175  137.5330  153.0835 C   0  0  2  0  0  0  0  0  0  0  0  0
  145.4914  138.2218  154.2512 C   0  0  0  0  0  0  0  0  0  0  0  0
  146.2520  139.4726  154.7229 C   0  0  0  0  0  0  0  0  0  0  0  0
  146.4590  140.4307  153.6042 N   0  3  1  0  0  0  0  0  0  0  0  0
  147.0829  141.7093  154.0330 C   0  0  0  0  0  0  0  0  0  0  0  0
  148.0566  141.5265  155.2138 C   0  0  2  0  0  0  0  0  0  0  0  0
  147.9395  142.6455  156.0719 O   0  0  0  0  0  0  0  0  0  0  0  0
  149.5158  141.4010  154.7350 C   0  0  0  0  0  0  0  0  0  0  0  0
  150.4258  141.0534  155.8122 N   0  0  0  0  0  0  0  0  0  0  0  0
  150.8445  139.8183  156.1492 C   0  0  0  0  0  0  0  0  0  0  0  0
  151.6814  139.7181  157.1775 N   0  0  0  0  0  0  0  0  0  0  0  0
  151.8285  141.0432  157.5494 C   0  0  0  0  0  0  0  0  0  0  0  0
  152.5935  141.6252  158.5851 C   0  0  0  0  0  0  0  0  0  0  0  0
  152.5881  143.0221  158.7798 C   0  0  0  0  0  0  0  0  0  0  0  0
  153.3270  143.5630  159.7774 F   0  0  0  0  0  0  0  0  0  0  0  0
  151.8176  143.8567  157.9432 C   0  0  0  0  0  0  0  0  0  0  0  0
  151.8175  145.1968  158.1369 F   0  0  0  0  0  0  0  0  0  0  0  0
  151.0463  143.2996  156.9050 C   0  0  0  0  0  0  0  0  0  0  0  0
  151.0558  141.9055  156.7139 C   0  0  0  0  0  0  0  0  0  0  0  0
  147.1877  139.7996  152.4739 C   0  0  0  0  0  0  0  0  0  0  0  0
  146.4459  138.5551  151.9577 C   0  0  0  0  0  0  0  0  0  0  0  0
  144.4613  136.5691  152.2148 H   0  0  0  0  0  0  0  0  0  0  0  0
  145.3211  135.5691  153.3828 H   0  0  0  0  0  0  0  0  0  0  0  0
  145.9866  135.8072  151.7718 H   0  0  0  0  0  0  0  0  0  0  0  0
  147.1921  137.1957  153.4400 H   0  0  0  0  0  0  0  0  0  0  0  0
  144.4819  138.5027  153.9468 H   0  0  0  0  0  0  0  0  0  0  0  0
  145.3797  137.5260  155.0835 H   0  0  0  0  0  0  0  0  0  0  0  0
  145.6896  139.9436  155.5282 H   0  0  0  0  0  0  0  0  0  0  0  0
  147.2180  139.1859  155.1418 H   0  0  0  0  0  0  0  0  0  0  0  0
  147.5918  142.1637  153.1813 H   0  0  0  0  0  0  0  0  0  0  0  0
  146.3092  142.4176  154.3342 H   0  0  0  0  0  0  0  0  0  0  0  0
  147.8021  140.6333  155.7836 H   0  0  0  0  0  0  0  0  0  0  0  0
  148.5709  143.2971  155.8051 H   0  0  0  0  0  0  0  0  0  0  0  0
  149.5937  140.6319  153.9653 H   0  0  0  0  0  0  0  0  0  0  0  0
  149.8524  142.3323  154.2777 H   0  0  0  0  0  0  0  0  0  0  0  0
  150.5126  138.9421  155.6114 H   0  0  0  0  0  0  0  0  0  0  0  0
  153.1867  140.9965  159.2323 H   0  0  0  0  0  0  0  0  0  0  0  0
  150.4554  143.9381  156.2657 H   0  0  0  0  0  0  0  0  0  0  0  0
  147.2898  140.5151  151.6570 H   0  0  0  0  0  0  0  0  0  0  0  0
  148.1972  139.5337  152.7920 H   0  0  0  0  0  0  0  0  0  0  0  0
  147.0160  138.0982  151.1481 H   0  0  0  0  0  0  0  0  0  0  0  0
  145.4881  138.8543  151.5291 H   0  0  0  0  0  0  0  0  0  0  0  0
  145.5453  140.6717  153.2464 H   0  0  0  0  0  0  0  0  0  0  0  0
  1  2  1  0  0  0  0
  1 23  1  0  0  0  0
  1 24  1  0  0  0  0
  1 25  1  0  0  0  0
  2 22  1  0  0  0  0
  2  3  1  0  0  0  0
  2 26  1  0  0  0  0
  3  4  1  0  0  0  0
  3 27  1  0  0  0  0
  3 28  1  0  0  0  0
  4  5  1  0  0  0  0
  4 29  1  0  0  0  0
  4 30  1  0  0  0  0
  5  6  1  0  0  0  0
  5 21  1  0  0  0  0
  5 44  1  0  0  0  0
  6  7  1  0  0  0  0
  6 31  1  0  0  0  0
  6 32  1  0  0  0  0
  7  8  1  0  0  0  0
  7  9  1  0  0  0  0
  7 33  1  0  0  0  0
  8 34  1  0  0  0  0
  9 10  1  0  0  0  0
  9 35  1  0  0  0  0
  9 36  1  0  0  0  0
 10 20  1  0  0  0  0
 10 11  1  0  0  0  0
 11 12  2  0  0  0  0
 11 37  1  0  0  0  0
 12 13  1  0  0  0  0
 13 20  2  0  0  0  0
 13 14  1  0  0  0  0
 14 15  2  0  0  0  0
 14 38  1  0  0  0  0
 15 16  1  0  0  0  0
 15 17  1  0  0  0  0
 17 18  1  0  0  0  0
 17 19  2  0  0  0  0
 19 20  1  0  0  0  0
 19 39  1  0  0  0  0
 21 22  1  0  0  0  0
 21 40  1  0  0  0  0
 21 41  1  0  0  0  0
 22 42  1  0  0  0  0
 22 43  1  0  0  0  0
M  CHG  1   5   1
M  END
> <s_m_source_file>
AV-unprocessed.smi

> <i_m_source_file_index>
1702

> <i_lp_mmshare_version>
43012

> <i_f3d_flags>
0

> <s_epik_input>
W0NIM11bQ0hdMVtDSDJdW0NIMl1OKFtDSDJdW0NIMl0xKVtDSDJdW0NASF0oW09IXSlbQ0gyXW4oW2NIXW4yKWMoYzIzKVtjSF1jKEYpYyhGKVtjSF0z

> <s_epik_cmdline>
J2VwaWtfcHl0aG9uJywgJy1waCcsICc3LjAnLCAnLXRuJywgJzgnLCAnLW1hJywgJzIwMCcsICctbWV0YWxfYmluZGluZycsICctaW1hZScsICc8aW5maWxlLm1hZT4nLCAnLW9tYWUnLCAnPG91dGZpbGUubWFlPic=

> <r_epik_Ionization_Penalty>
0.0135195

> <r_epik_Ionization_Penalty_Charging>
0.00181365

> <r_epik_Ionization_Penalty_Neutral>
0.0117059

> <r_epik_State_Penalty>
0.00902283

> <r_epik_Charging_Adjusted_Penalty>
0.0108365

> <i_epik_Tot_Q>
1

> <i_epik_Tot_abs_Q>
1

> <r_epik_Metal_State_Penalty>
9.09181e-06

> <b_epik_Metal_Only>
0

> <s_lp_Force_Field>
OPLS_2005

> <r_lp_Energy>
21.6828

> <b_lp_Chiralities_Consistent>
1

> <s_lp_Variant>
AV-unprocessed.smi:1702-1

> <Gold.Version>
5.8.1

> <Gold.Id.Protein>
6NUR|6NUR_protein|mol2

> <Gold.PLP.Fitness>
52.7088

> <Gold.PLP.PLP>
-46.2130

> <Gold.PLP.part.hbond>
-2.0000

> <Gold.PLP.part.metal>
0.0000

> <Gold.PLP.part.buried>
3.2816

> <Gold.PLP.part.nonpolar>
-48.1379

> <Gold.PLP.part.repulsive>
0.0103

> <Gold.PLP.ligand.clash>
0.0000

> <Gold.PLP.ligand.torsion>
1.2872

> <Gold.PLP.Chemscore.Hbond>
3.0000

> <Gold.PLP.Chemscore.CHOScore>
0.0000

> <Gold.PLP.Chemscore.Metal>
0.0000

> <Gold.Chemscore.Hbonds>
donor molecule, donor type, donor heavy atom, donor atom, acceptor molecule, acceptor atom, score
      L1  H     5    44       P1 10175  2.00
      L1  H     8    34       P1  8028  0.75

> <Gold.PLP.Chemscore.Internal.Correction>
0.0703

> <Gold.Rescore>
     Score         DG    S(hbond)    S(metal)    S(lipo)     H(rot)  DE(clash)    DE(int)     intcor
     14.74     -18.21       1.61        0.00     112.43       2.26       2.19       1.27       ----

> <Gold.Chemscore.Fitness>
14.7437

> <Gold.Chemscore.DG>
-18.2076

> <Gold.Chemscore.ZeroCoef>
-5.4800

> <Gold.Chemscore.Hbond>
1.6060

> <Gold.Chemscore.Metal>
0.0000

> <Gold.Chemscore.Lipo>
112.4271

> <Gold.Chemscore.Internal_Hbond>
0.0000

> <Gold.Chemscore.DEClash>
2.1890

> <Gold.Chemscore.DEInternal>
1.2749

> <Gold.Chemscore.Rot>
2.2619

> <Gold.Chemscore.Internal.Correction>
   9.000000E+99

> <Gold.Chemscore.Hbonds>
donor molecule, donor type, donor heavy atom, donor atom, acceptor molecule, acceptor atom, score
      L1  H     5    44       P1 10175  0.77
      L1  H     8    34       P1  8028  0.71

> <Gold.Chemscore.Hbond.Weighted>
-5.3640

> <Gold.Chemscore.Metal.Weighted>
-0.0000

> <Gold.Chemscore.Lipo.Weighted>
-13.1540

> <Gold.Chemscore.Internal_Hbond.Weighted>
0.0000

> <Gold.Chemscore.DEClash.Weighted>
2.1890

> <Gold.Chemscore.DEInternal.Weighted>
1.2749

> <Gold.Chemscore.Rot.Weighted>
5.7904

> <Gold.Chemscore.Internal.Correction.Weighted>
   9.000000E+99

> <Gold.Protein.RotatedTorsions>
[ 6907 6896 6895 6894 ] final   60.27 input  -60.11 | X-H torsion
[ 7974 7965 7964 7962 ] final  176.88 input  175.53 | X-H torsion
[ 8008 7997 7996 7995 ] final  144.70 input   59.86 | X-H torsion
[ 10167 10162 10161 10158 ] final -134.74 input  -65.29 | X-H torsion
[ 10718 10713 10712 10709 ] final  -35.28 input   66.30 | X-H torsion
[ 10763 10752 10751 10750 ] final  132.97 input  -60.55 | X-H torsion
[ 11005 11000 10999 10996 ] final  -55.36 input  -57.11 | X-H torsion

> <Gold.Protein.ActiveResidues>
 VAL166  LYS551  ARG553  GLY616  TRP617  ASP618  TYR619  PRO620  LYS621  CYS622 
 ASP623  PHE694  ASN695  SER759  ASP760  ASP761  ALA762  ILE779  LEU786  VAL792 
 PHE793  MET794  SER795  GLU796  ALA797  LYS798  CYS799  TRP800  GLU811  SER814 

> <Gold.Protein.RotatedAtoms>
  152.3988  134.6320  160.0077 H   0  0  0  0  0  0  0  0  0  0  0  0  # atno 6907 bound_to 6896
  151.6532  133.3314  159.3164 H   0  0  0  0  0  0  0  0  0  0  0  0  # atno 6908 bound_to 6896
  150.7892  134.6944  159.6559 H   0  0  0  0  0  0  0  0  0  0  0  0  # atno 6909 bound_to 6896
  144.7177  140.0163  143.6440 H   0  0  0  0  0  0  0  0  0  0  0  0  # atno 7974 bound_to 7965
  156.2902  140.2229  156.5095 H   0  0  0  0  0  0  0  0  0  0  0  0  # atno 8008 bound_to 7997
  154.7620  140.0472  157.1003 H   0  0  0  0  0  0  0  0  0  0  0  0  # atno 8009 bound_to 7997
  154.9979  140.3098  155.4882 H   0  0  0  0  0  0  0  0  0  0  0  0  # atno 8010 bound_to 7997
  139.8849  143.6793  152.2621 H   0  0  0  0  0  0  0  0  0  0  0  0  # atno 10167 bound_to 10162
  156.3405  130.4293  149.7792 H   0  0  0  0  0  0  0  0  0  0  0  0  # atno 10718 bound_to 10713
  153.7994  135.3144  155.3388 H   0  0  0  0  0  0  0  0  0  0  0  0  # atno 10763 bound_to 10752
  154.8095  135.4676  154.0481 H   0  0  0  0  0  0  0  0  0  0  0  0  # atno 10764 bound_to 10752
  153.1824  135.6895  153.8547 H   0  0  0  0  0  0  0  0  0  0  0  0  # atno 10765 bound_to 10752
  141.1070  133.6612  156.4458 H   0  0  0  0  0  0  0  0  0  0  0  0  # atno 11005 bound_to 11000
  146.0217  139.3257  143.0808 LP  0  0  0  0  0  0  0  0  0  0  0  0  # atno 17320 bound_to 7965
  145.8560  140.9502  143.0725 LP  0  0  0  0  0  0  0  0  0  0  0  0  # atno 17321 bound_to 7965
  139.7162  144.7611  151.1030 LP  0  0  0  0  0  0  0  0  0  0  0  0  # atno 17342 bound_to 10162
  140.7737  143.5267  150.9472 LP  0  0  0  0  0  0  0  0  0  0  0  0  # atno 17343 bound_to 10162
  156.5030  130.8137  151.3140 LP  0  0  0  0  0  0  0  0  0  0  0  0  # atno 17370 bound_to 10713
  157.7446  130.9938  150.2687 LP  0  0  0  0  0  0  0  0  0  0  0  0  # atno 17371 bound_to 10713
  140.4876  134.6606  157.5197 LP  0  0  0  0  0  0  0  0  0  0  0  0  # atno 17394 bound_to 11000
  139.9945  134.6933  155.9633 LP  0  0  0  0  0  0  0  0  0  0  0  0  # atno 17395 bound_to 11000

$$$$
