AV-unprocessed.smi:1692|AV-procd|sdf|6779|dock5
  -GOLD-   22720 7543D 1   1.00000     0.00000
 Structure written by MMmdl.
 46 47  0  0  0  0  0  0  0  0  2 V2000
  143.5267  141.2170  157.2945 C   0  0  0  0  0  0  0  0  0  0  0  0
  144.4068  142.2501  156.5822 C   0  0  1  0  0  0  0  0  0  0  0  0
  145.2494  141.6193  155.4576 C   0  0  0  0  0  0  0  0  0  0  0  0
  146.0287  142.6592  154.7451 N   0  3  1  0  0  0  0  0  0  0  0  0
  146.9068  142.0882  153.6932 C   0  0  0  0  0  0  0  0  0  0  0  0
  147.6556  140.8326  154.1707 C   0  0  0  0  0  0  0  0  0  0  0  0
  149.1747  141.0569  154.2539 C   0  0  0  0  0  0  0  0  0  0  0  0
  149.5299  141.9549  155.3469 N   0  0  0  0  0  0  0  0  0  0  0  0
  150.4602  141.6997  156.2787 C   0  0  0  0  0  0  0  0  0  0  0  0
  151.1314  140.6672  156.2984 O   0  0  0  0  0  0  0  0  0  0  0  0
  150.5548  142.7081  157.1632 N   0  0  0  0  0  0  0  0  0  0  0  0
  151.4120  142.8084  158.2914 C   0  0  0  0  0  0  0  0  0  0  0  0
  151.5098  144.1003  158.8562 C   0  0  0  0  0  0  0  0  0  0  0  0
  152.3336  144.3046  159.9801 C   0  0  0  0  0  0  0  0  0  0  0  0
  153.0380  143.2101  160.5122 C   0  0  0  0  0  0  0  0  0  0  0  0
  152.8850  141.9575  159.8899 C   0  0  0  0  0  0  0  0  0  0  0  0
  152.0975  141.7597  158.8116 N   0  0  0  0  0  0  0  0  0  0  0  0
  145.1267  143.7281  154.2501 C   0  0  0  0  0  0  0  0  0  0  0  0
  144.2862  144.3033  155.4061 C   0  0  1  0  0  0  0  0  0  0  0  0
  143.2830  145.3571  154.9243 C   0  0  0  0  0  0  0  0  0  0  0  0
  143.5584  143.2469  156.0233 O   0  0  0  0  0  0  0  0  0  0  0  0
  144.1318  140.4317  157.7481 H   0  0  0  0  0  0  0  0  0  0  0  0
  142.8306  140.7451  156.6007 H   0  0  0  0  0  0  0  0  0  0  0  0
  142.9410  141.6840  158.0867 H   0  0  0  0  0  0  0  0  0  0  0  0
  145.0652  142.7117  157.3204 H   0  0  0  0  0  0  0  0  0  0  0  0
  145.9271  140.8768  155.8809 H   0  0  0  0  0  0  0  0  0  0  0  0
  144.6048  141.0980  154.7477 H   0  0  0  0  0  0  0  0  0  0  0  0
  146.2952  141.8092  152.8338 H   0  0  0  0  0  0  0  0  0  0  0  0
  147.6069  142.8468  153.3397 H   0  0  0  0  0  0  0  0  0  0  0  0
  147.2867  140.5274  155.1495 H   0  0  0  0  0  0  0  0  0  0  0  0
  147.4485  140.0053  153.4907 H   0  0  0  0  0  0  0  0  0  0  0  0
  149.6828  140.1067  154.4199 H   0  0  0  0  0  0  0  0  0  0  0  0
  149.5558  141.4515  153.3103 H   0  0  0  0  0  0  0  0  0  0  0  0
  149.0225  142.8259  155.4056 H   0  0  0  0  0  0  0  0  0  0  0  0
  149.9392  143.4942  157.0159 H   0  0  0  0  0  0  0  0  0  0  0  0
  150.9602  144.9301  158.4363 H   0  0  0  0  0  0  0  0  0  0  0  0
  152.4224  145.2841  160.4262 H   0  0  0  0  0  0  0  0  0  0  0  0
  153.6783  143.3271  161.3741 H   0  0  0  0  0  0  0  0  0  0  0  0
  153.4078  141.0912  160.2673 H   0  0  0  0  0  0  0  0  0  0  0  0
  145.7042  144.5307  153.7929 H   0  0  0  0  0  0  0  0  0  0  0  0
  144.4736  143.3232  153.4749 H   0  0  0  0  0  0  0  0  0  0  0  0
  144.9445  144.7644  156.1448 H   0  0  0  0  0  0  0  0  0  0  0  0
  143.7920  146.1963  154.4494 H   0  0  0  0  0  0  0  0  0  0  0  0
  142.7013  145.7512  155.7580 H   0  0  0  0  0  0  0  0  0  0  0  0
  142.5840  144.9367  154.2005 H   0  0  0  0  0  0  0  0  0  0  0  0
  146.6370  143.0787  155.4338 H   0  0  0  0  0  0  0  0  0  0  0  0
  1  2  1  0  0  0  0
  1 22  1  0  0  0  0
  1 23  1  0  0  0  0
  1 24  1  0  0  0  0
  2 21  1  0  0  0  0
  2  3  1  0  0  0  0
  2 25  1  0  0  0  0
  3  4  1  0  0  0  0
  3 26  1  0  0  0  0
  3 27  1  0  0  0  0
  4  5  1  0  0  0  0
  4 18  1  0  0  0  0
  4 46  1  0  0  0  0
  5  6  1  0  0  0  0
  5 28  1  0  0  0  0
  5 29  1  0  0  0  0
  6  7  1  0  0  0  0
  6 30  1  0  0  0  0
  6 31  1  0  0  0  0
  7  8  1  0  0  0  0
  7 32  1  0  0  0  0
  7 33  1  0  0  0  0
  8  9  1  0  0  0  0
  8 34  1  0  0  0  0
  9 10  2  0  0  0  0
  9 11  1  0  0  0  0
 11 12  1  0  0  0  0
 11 35  1  0  0  0  0
 12 17  1  0  0  0  0
 12 13  2  0  0  0  0
 13 14  1  0  0  0  0
 13 36  1  0  0  0  0
 14 15  2  0  0  0  0
 14 37  1  0  0  0  0
 15 16  1  0  0  0  0
 15 38  1  0  0  0  0
 16 17  2  0  0  0  0
 16 39  1  0  0  0  0
 18 19  1  0  0  0  0
 18 40  1  0  0  0  0
 18 41  1  0  0  0  0
 19 20  1  0  0  0  0
 19 21  1  0  0  0  0
 19 42  1  0  0  0  0
 20 43  1  0  0  0  0
 20 44  1  0  0  0  0
 20 45  1  0  0  0  0
M  CHG  1   4   1
M  END
> <s_m_source_file>
AV-unprocessed.smi

> <i_m_source_file_index>
1692

> <i_lp_mmshare_version>
43012

> <i_f3d_flags>
0

> <s_epik_input>
W0NIM11bQ0BASF0xW0NIMl1OKFtDSDJdW0NASF0oTzEpW0NIM10pW0NIMl1bQ0gyXVtDSDJdW05IXUMoPU8pW05IXWMyW2NIXVtjSF1bY0hdW2NIXW4y

> <s_epik_cmdline>
J2VwaWtfcHl0aG9uJywgJy1waCcsICc3LjAnLCAnLXRuJywgJzgnLCAnLW1hJywgJzIwMCcsICctbWV0YWxfYmluZGluZycsICctaW1hZScsICc8aW5maWxlLm1hZT4nLCAnLW9tYWUnLCAnPG91dGZpbGUubWFlPic=

> <r_epik_Ionization_Penalty>
0.270538

> <r_epik_Ionization_Penalty_Charging>
0.270496

> <r_epik_Ionization_Penalty_Neutral>
4.22978e-05

> <r_epik_State_Penalty>
0.262618

> <r_epik_Charging_Adjusted_Penalty>
0.533114

> <i_epik_Tot_Q>
1

> <i_epik_Tot_abs_Q>
1

> <r_epik_Metal_State_Penalty>
0.262618

> <b_epik_Metal_Only>
0

> <s_lp_Force_Field>
OPLS_2005

> <r_lp_Energy>
16.7861

> <b_lp_Chiralities_Consistent>
1

> <s_lp_Variant>
AV-unprocessed.smi:1692-2

> <Gold.Version>
5.8.1

> <Gold.Id.Protein>
6NUR|6NUR_protein|mol2

> <Gold.PLP.Fitness>
46.7049

> <Gold.PLP.PLP>
-41.7915

> <Gold.PLP.part.hbond>
-2.0000

> <Gold.PLP.part.metal>
0.0000

> <Gold.PLP.part.buried>
-9.0307

> <Gold.PLP.part.nonpolar>
-31.9772

> <Gold.PLP.part.repulsive>
0.4048

> <Gold.PLP.ligand.clash>
0.0000

> <Gold.PLP.ligand.torsion>
0.5597

> <Gold.PLP.Chemscore.Hbond>
2.0000

> <Gold.PLP.Chemscore.CHOScore>
0.0000

> <Gold.PLP.Chemscore.Metal>
0.0000

> <Gold.Chemscore.Hbonds>
donor molecule, donor type, donor heavy atom, donor atom, acceptor molecule, acceptor atom, score
      L1  H     8    34       P1  8028  1.00
      L1  H    11    35       P1  8028  0.81

> <Gold.PLP.Chemscore.Internal.Correction>
0.0328

> <Gold.Rescore>
     Score         DG    S(hbond)    S(metal)    S(lipo)     H(rot)  DE(clash)    DE(int)     intcor
     16.67     -18.56       1.92        0.00      95.84       1.78       0.11       1.78       ----

> <Gold.Chemscore.Fitness>
16.6746

> <Gold.Chemscore.DG>
-18.5614

> <Gold.Chemscore.ZeroCoef>
-5.4800

> <Gold.Chemscore.Hbond>
1.9246

> <Gold.Chemscore.Metal>
0.0000

> <Gold.Chemscore.Lipo>
95.8411

> <Gold.Chemscore.Internal_Hbond>
0.0000

> <Gold.Chemscore.DEClash>
0.1061

> <Gold.Chemscore.DEInternal>
1.7807

> <Gold.Chemscore.Rot>
1.7814

> <Gold.Chemscore.Internal.Correction>
   9.000000E+99

> <Gold.Chemscore.Hbonds>
donor molecule, donor type, donor heavy atom, donor atom, acceptor molecule, acceptor atom, score
      L1  H     8    34       P1  8028  0.97
      L1  H    11    35       P1  8028  0.75

> <Gold.Chemscore.Hbond.Weighted>
-6.4283

> <Gold.Chemscore.Metal.Weighted>
-0.0000

> <Gold.Chemscore.Lipo.Weighted>
-11.2134

> <Gold.Chemscore.Internal_Hbond.Weighted>
0.0000

> <Gold.Chemscore.DEClash.Weighted>
0.1061

> <Gold.Chemscore.DEInternal.Weighted>
1.7807

> <Gold.Chemscore.Rot.Weighted>
4.5603

> <Gold.Chemscore.Internal.Correction.Weighted>
   9.000000E+99

> <Gold.Protein.RotatedTorsions>
[ 6907 6896 6895 6894 ] final  -97.50 input  -60.11 | X-H torsion
[ 7974 7965 7964 7962 ] final  -23.93 input  175.53 | X-H torsion
[ 8008 7997 7996 7995 ] final -121.58 input   59.86 | X-H torsion
[ 10167 10162 10161 10158 ] final  -58.97 input  -65.29 | X-H torsion
[ 10718 10713 10712 10709 ] final   90.59 input   66.30 | X-H torsion
[ 10763 10752 10751 10750 ] final  -54.64 input  -60.55 | X-H torsion
[ 11005 11000 10999 10996 ] final -101.79 input  -57.11 | X-H torsion

> <Gold.Protein.ActiveResidues>
 VAL166  LYS551  ARG553  GLY616  TRP617  ASP618  TYR619  PRO620  LYS621  CYS622 
 ASP623  PHE694  ASN695  SER759  ASP760  ASP761  ALA762  ILE779  LEU786  VAL792 
 PHE793  MET794  SER795  GLU796  ALA797  LYS798  CYS799  TRP800  GLU811  SER814 

> <Gold.Protein.RotatedAtoms>
  150.7018  134.1339  159.4079 H   0  0  0  0  0  0  0  0  0  0  0  0  # atno 6907 bound_to 6896
  151.9325  135.0248  160.0539 H   0  0  0  0  0  0  0  0  0  0  0  0  # atno 6908 bound_to 6896
  152.2163  133.4914  159.5175 H   0  0  0  0  0  0  0  0  0  0  0  0  # atno 6909 bound_to 6896
  146.1586  140.4683  142.8581 H   0  0  0  0  0  0  0  0  0  0  0  0  # atno 7974 bound_to 7965
  155.1503  140.0403  157.2819 H   0  0  0  0  0  0  0  0  0  0  0  0  # atno 8008 bound_to 7997
  154.6409  140.2546  155.7297 H   0  0  0  0  0  0  0  0  0  0  0  0  # atno 8009 bound_to 7997
  156.2532  140.2856  156.0802 H   0  0  0  0  0  0  0  0  0  0  0  0  # atno 8010 bound_to 7997
  140.6164  143.2404  151.5586 H   0  0  0  0  0  0  0  0  0  0  0  0  # atno 10167 bound_to 10162
  157.6959  131.0376  150.3601 H   0  0  0  0  0  0  0  0  0  0  0  0  # atno 10718 bound_to 10713
  154.1780  135.6448  153.5027 H   0  0  0  0  0  0  0  0  0  0  0  0  # atno 10763 bound_to 10752
  153.0066  135.5399  154.6543 H   0  0  0  0  0  0  0  0  0  0  0  0  # atno 10764 bound_to 10752
  154.5900  135.2933  155.0617 H   0  0  0  0  0  0  0  0  0  0  0  0  # atno 10765 bound_to 10752
  141.1216  133.8506  157.1276 H   0  0  0  0  0  0  0  0  0  0  0  0  # atno 11005 bound_to 11000
  144.7996  140.6188  143.6487 LP  0  0  0  0  0  0  0  0  0  0  0  0  # atno 17320 bound_to 7965
  145.4646  139.1509  143.3847 LP  0  0  0  0  0  0  0  0  0  0  0  0  # atno 17321 bound_to 7965
  139.5402  144.2668  152.1335 LP  0  0  0  0  0  0  0  0  0  0  0  0  # atno 17342 bound_to 10162
  140.1878  144.4781  150.6494 LP  0  0  0  0  0  0  0  0  0  0  0  0  # atno 17343 bound_to 10162
  156.4038  130.3921  149.6940 LP  0  0  0  0  0  0  0  0  0  0  0  0  # atno 17370 bound_to 10713
  156.4248  130.7786  151.2805 LP  0  0  0  0  0  0  0  0  0  0  0  0  # atno 17371 bound_to 10713
  140.0179  134.9959  157.0531 LP  0  0  0  0  0  0  0  0  0  0  0  0  # atno 17394 bound_to 11000
  140.4489  134.1603  155.7180 LP  0  0  0  0  0  0  0  0  0  0  0  0  # atno 17395 bound_to 11000

$$$$
