AV-unprocessed.smi:2074|AV-procd|sdf|8452|dock8
  -GOLD-   2272011143D 1   1.00000     0.00000
 Structure written by MMmdl.
 43 44  0  0  0  0  0  0  0  0  1 V2000
  152.2215  139.8492  154.5640 C   0  0  0  0  0  0  0  0  0  0  0  0
  150.9894  140.2436  155.3262 C   0  0  0  0  0  0  0  0  0  0  0  0
  150.0058  140.8636  154.6964 N   0  0  0  0  0  0  0  0  0  0  0  0
  149.0252  141.1058  155.6630 O   0  0  0  0  0  0  0  0  0  0  0  0
  149.4636  140.6183  156.8514 C   0  0  0  0  0  0  0  0  0  0  0  0
  148.5546  140.7886  158.0208 C   0  0  0  0  0  0  0  0  0  0  0  0
  150.7011  140.0536  156.7090 C   0  0  0  0  0  0  0  0  0  0  0  0
  151.5608  139.3954  157.7596 C   0  0  0  0  0  0  0  0  0  0  0  0
  152.7673  140.2790  158.0875 C   0  0  0  0  0  0  0  0  0  0  0  0
  153.5525  140.6122  157.1993 O   0  0  0  0  0  0  0  0  0  0  0  0
  152.9122  140.6399  159.3718 N   0  0  0  0  0  0  0  0  0  0  0  0
  154.0344  141.4082  159.9039 C   0  0  0  0  0  0  0  0  0  0  0  0
  153.5783  142.6243  160.7613 C   0  0  2  0  0  0  0  0  0  0  0  0
  153.7106  142.2504  162.2597 C   0  0  0  0  0  0  0  0  0  0  0  0
  152.2252  143.1188  160.4164 N   0  0  0  0  0  0  0  0  0  0  0  0
  152.1933  143.8434  159.1404 C   0  0  0  0  0  0  0  0  0  0  0  0
  150.7955  144.3874  158.7976 C   0  0  0  0  0  0  0  0  0  0  0  0
  150.3376  145.2293  159.8465 O   0  0  0  0  0  0  0  0  0  0  0  0
  150.2785  144.5460  161.0906 C   0  0  0  0  0  0  0  0  0  0  0  0
  151.6723  144.0029  161.4496 C   0  0  0  0  0  0  0  0  0  0  0  0
  152.6264  138.9068  154.9329 H   0  0  0  0  0  0  0  0  0  0  0  0
  152.9980  140.6075  154.6657 H   0  0  0  0  0  0  0  0  0  0  0  0
  152.0145  139.7249  153.5006 H   0  0  0  0  0  0  0  0  0  0  0  0
  149.1197  141.0577  158.9132 H   0  0  0  0  0  0  0  0  0  0  0  0
  148.0149  139.8645  158.2270 H   0  0  0  0  0  0  0  0  0  0  0  0
  147.8223  141.5753  157.8371 H   0  0  0  0  0  0  0  0  0  0  0  0
  151.0038  139.2234  158.6808 H   0  0  0  0  0  0  0  0  0  0  0  0
  151.8988  138.4139  157.4239 H   0  0  0  0  0  0  0  0  0  0  0  0
  152.2172  140.3292  160.0350 H   0  0  0  0  0  0  0  0  0  0  0  0
  154.6563  140.7132  160.4656 H   0  0  0  0  0  0  0  0  0  0  0  0
  154.6418  141.7517  159.0660 H   0  0  0  0  0  0  0  0  0  0  0  0
  154.2861  143.4328  160.5711 H   0  0  0  0  0  0  0  0  0  0  0  0
  154.6743  141.8023  162.4968 H   0  0  0  0  0  0  0  0  0  0  0  0
  152.9401  141.5384  162.5575 H   0  0  0  0  0  0  0  0  0  0  0  0
  153.6344  143.1222  162.9083 H   0  0  0  0  0  0  0  0  0  0  0  0
  152.9069  144.6685  159.1651 H   0  0  0  0  0  0  0  0  0  0  0  0
  152.4862  143.1943  158.3181 H   0  0  0  0  0  0  0  0  0  0  0  0
  150.8294  144.9606  157.8711 H   0  0  0  0  0  0  0  0  0  0  0  0
  150.0905  143.5691  158.6422 H   0  0  0  0  0  0  0  0  0  0  0  0
  149.9328  145.2376  161.8590 H   0  0  0  0  0  0  0  0  0  0  0  0
  149.5491  143.7361  161.0374 H   0  0  0  0  0  0  0  0  0  0  0  0
  151.5737  143.4735  162.3956 H   0  0  0  0  0  0  0  0  0  0  0  0
  152.3522  144.8384  161.6233 H   0  0  0  0  0  0  0  0  0  0  0  0
  1  2  1  0  0  0  0
  1 21  1  0  0  0  0
  1 22  1  0  0  0  0
  1 23  1  0  0  0  0
  2  7  1  0  0  0  0
  2  3  2  0  0  0  0
  3  4  1  0  0  0  0
  4  5  1  0  0  0  0
  5  6  1  0  0  0  0
  5  7  2  0  0  0  0
  6 24  1  0  0  0  0
  6 25  1  0  0  0  0
  6 26  1  0  0  0  0
  7  8  1  0  0  0  0
  8  9  1  0  0  0  0
  8 27  1  0  0  0  0
  8 28  1  0  0  0  0
  9 10  2  0  0  0  0
  9 11  1  0  0  0  0
 11 12  1  0  0  0  0
 11 29  1  0  0  0  0
 12 13  1  0  0  0  0
 12 30  1  0  0  0  0
 12 31  1  0  0  0  0
 13 14  1  0  0  0  0
 13 15  1  0  0  0  0
 13 32  1  0  0  0  0
 14 33  1  0  0  0  0
 14 34  1  0  0  0  0
 14 35  1  0  0  0  0
 15 20  1  0  0  0  0
 15 16  1  0  0  0  0
 16 17  1  0  0  0  0
 16 36  1  0  0  0  0
 16 37  1  0  0  0  0
 17 18  1  0  0  0  0
 17 38  1  0  0  0  0
 17 39  1  0  0  0  0
 18 19  1  0  0  0  0
 19 20  1  0  0  0  0
 19 40  1  0  0  0  0
 19 41  1  0  0  0  0
 20 42  1  0  0  0  0
 20 43  1  0  0  0  0
M  END
> <s_m_source_file>
AV-unprocessed.smi

> <i_m_source_file_index>
2074

> <i_lp_mmshare_version>
43012

> <i_f3d_flags>
0

> <s_epik_input>
W0NIM11jMW5vYyhbQ0gzXSljMVtDSDJdQyg9TylbTkhdW0NIMl1bQ0BIXShbQ0gzXSlOMltDSDJdW0NIMl1PW0NIMl1bQ0gyXTI=

> <s_epik_cmdline>
J2VwaWtfcHl0aG9uJywgJy1waCcsICc3LjAnLCAnLXRuJywgJzgnLCAnLW1hJywgJzIwMCcsICctbWV0YWxfYmluZGluZycsICctaW1hZScsICc8aW5maWxlLm1hZT4nLCAnLW9tYWUnLCAnPG91dGZpbGUubWFlPic=

> <r_epik_Ionization_Penalty>
0.234179

> <r_epik_Ionization_Penalty_Charging>
0

> <r_epik_Ionization_Penalty_Neutral>
0.234179

> <r_epik_State_Penalty>
0.224936

> <r_epik_Charging_Adjusted_Penalty>
0.224936

> <i_epik_Tot_Q>
0

> <i_epik_Tot_abs_Q>
0

> <r_epik_Metal_State_Penalty>
0.224936

> <b_epik_Metal_Only>
0

> <s_lp_Force_Field>
OPLS_2005

> <r_lp_Energy>
22.7236

> <b_lp_Chiralities_Consistent>
1

> <s_lp_Variant>
AV-unprocessed.smi:2074-1

> <Gold.Version>
5.8.1

> <Gold.Id.Protein>
6NUR|6NUR_protein|mol2

> <Gold.PLP.Fitness>
48.6806

> <Gold.PLP.PLP>
-44.6227

> <Gold.PLP.part.hbond>
-2.9750

> <Gold.PLP.part.metal>
0.0000

> <Gold.PLP.part.buried>
-5.5400

> <Gold.PLP.part.nonpolar>
-36.7290

> <Gold.PLP.part.repulsive>
0.5243

> <Gold.PLP.ligand.clash>
0.0000

> <Gold.PLP.ligand.torsion>
0.9543

> <Gold.PLP.Chemscore.Hbond>
1.9760

> <Gold.PLP.Chemscore.CHOScore>
0.0000

> <Gold.PLP.Chemscore.Metal>
0.0000

> <Gold.Chemscore.Hbonds>
donor molecule, donor type, donor heavy atom, donor atom, acceptor molecule, acceptor atom, score
      P1  H  7997  8010       L1    10  0.03

> <Gold.PLP.Chemscore.Internal.Correction>
0.0384

> <Gold.Rescore>
     Score         DG    S(hbond)    S(metal)    S(lipo)     H(rot)  DE(clash)    DE(int)     intcor
     19.26     -20.52       1.96        0.00     110.17       1.72       0.02       1.24       ----

> <Gold.Chemscore.Fitness>
19.2630

> <Gold.Chemscore.DG>
-20.5226

> <Gold.Chemscore.ZeroCoef>
-5.4800

> <Gold.Chemscore.Hbond>
1.9625

> <Gold.Chemscore.Metal>
0.0000

> <Gold.Chemscore.Lipo>
110.1690

> <Gold.Chemscore.Internal_Hbond>
0.0000

> <Gold.Chemscore.DEClash>
0.0207

> <Gold.Chemscore.DEInternal>
1.2389

> <Gold.Chemscore.Rot>
1.7195

> <Gold.Chemscore.Internal.Correction>
   9.000000E+99

> <Gold.Chemscore.Hbonds>
donor molecule, donor type, donor heavy atom, donor atom, acceptor molecule, acceptor atom, score
      P1  H  7997  8010       L1    10  0.05

> <Gold.Chemscore.Hbond.Weighted>
-6.5546

> <Gold.Chemscore.Metal.Weighted>
-0.0000

> <Gold.Chemscore.Lipo.Weighted>
-12.8898

> <Gold.Chemscore.Internal_Hbond.Weighted>
0.0000

> <Gold.Chemscore.DEClash.Weighted>
0.0207

> <Gold.Chemscore.DEInternal.Weighted>
1.2389

> <Gold.Chemscore.Rot.Weighted>
4.4018

> <Gold.Chemscore.Internal.Correction.Weighted>
   9.000000E+99

> <Gold.Protein.RotatedTorsions>
[ 6907 6896 6895 6894 ] final  127.16 input  -60.11 | X-H torsion
[ 7974 7965 7964 7962 ] final  102.03 input  175.53 | X-H torsion
[ 8008 7997 7996 7995 ] final   36.43 input   59.86 | X-H torsion
[ 10167 10162 10161 10158 ] final -179.45 input  -65.29 | X-H torsion
[ 10718 10713 10712 10709 ] final  -11.42 input   66.30 | X-H torsion
[ 10763 10752 10751 10750 ] final -155.55 input  -60.55 | X-H torsion
[ 11005 11000 10999 10996 ] final    3.29 input  -57.11 | X-H torsion

> <Gold.Protein.ActiveResidues>
 VAL166  LYS551  ARG553  GLY616  TRP617  ASP618  TYR619  PRO620  LYS621  CYS622 
 ASP623  PHE694  ASN695  SER759  ASP760  ASP761  ALA762  ILE779  LEU786  VAL792 
 PHE793  MET794  SER795  GLU796  ALA797  LYS798  CYS799  TRP800  GLU811  SER814 

> <Gold.Protein.RotatedAtoms>
  152.3838  133.6583  159.6182 H   0  0  0  0  0  0  0  0  0  0  0  0  # atno 6907 bound_to 6896
  150.7762  133.9069  159.3367 H   0  0  0  0  0  0  0  0  0  0  0  0  # atno 6908 bound_to 6896
  151.6870  135.0954  160.0278 H   0  0  0  0  0  0  0  0  0  0  0  0  # atno 6909 bound_to 6896
  145.3645  139.2411  143.3488 H   0  0  0  0  0  0  0  0  0  0  0  0  # atno 7974 bound_to 7965
  155.1873  140.3305  155.4364 H   0  0  0  0  0  0  0  0  0  0  0  0  # atno 8008 bound_to 7997
  156.2455  140.1916  156.6918 H   0  0  0  0  0  0  0  0  0  0  0  0  # atno 8009 bound_to 7997
  154.6230  140.0593  156.9624 H   0  0  0  0  0  0  0  0  0  0  0  0  # atno 8010 bound_to 7997
  139.5386  144.2427  152.0847 H   0  0  0  0  0  0  0  0  0  0  0  0  # atno 10167 bound_to 10162
  156.6593  130.4977  149.6036 H   0  0  0  0  0  0  0  0  0  0  0  0  # atno 10718 bound_to 10713
  154.7778  135.3165  154.8054 H   0  0  0  0  0  0  0  0  0  0  0  0  # atno 10763 bound_to 10752
  153.8773  135.6838  153.4774 H   0  0  0  0  0  0  0  0  0  0  0  0  # atno 10764 bound_to 10752
  153.1407  135.4740  154.9427 H   0  0  0  0  0  0  0  0  0  0  0  0  # atno 10765 bound_to 10752
  140.5948  133.9891  155.8105 H   0  0  0  0  0  0  0  0  0  0  0  0  # atno 11005 bound_to 11000
  146.2912  140.4285  142.8738 LP  0  0  0  0  0  0  0  0  0  0  0  0  # atno 17320 bound_to 7965
  144.8621  140.7155  143.6100 LP  0  0  0  0  0  0  0  0  0  0  0  0  # atno 17321 bound_to 7965
  140.1902  144.4759  150.6483 LP  0  0  0  0  0  0  0  0  0  0  0  0  # atno 17342 bound_to 10162
  140.6605  143.2250  151.5868 LP  0  0  0  0  0  0  0  0  0  0  0  0  # atno 17343 bound_to 10162
  156.2023  130.6628  151.1181 LP  0  0  0  0  0  0  0  0  0  0  0  0  # atno 17370 bound_to 10713
  157.7115  131.0732  150.6483 LP  0  0  0  0  0  0  0  0  0  0  0  0  # atno 17371 bound_to 10713
  141.0911  133.9915  157.3235 LP  0  0  0  0  0  0  0  0  0  0  0  0  # atno 17394 bound_to 11000
  139.9258  135.0201  156.8229 LP  0  0  0  0  0  0  0  0  0  0  0  0  # atno 17395 bound_to 11000

$$$$
