AV-unprocessed.smi:1717|AV-procd|sdf|6920|dock1
  -GOLD-   22720 8123D 1   1.00000     0.00000
 Structure written by MMmdl.
 40 41  0  0  0  0  0  0  0  0  3 V2000
  147.7902  121.6159  152.2688 C   0  0  0  0  0  0  0  0  0  0  0  0
  148.9055  122.5385  152.0929 N   0  5  0  0  0  0  0  0  0  0  0  0
  149.1898  123.5457  152.9614 C   0  0  0  0  0  0  0  0  0  0  0  0
  148.7244  123.8044  154.0765 O   0  0  0  0  0  0  0  0  0  0  0  0
  150.2937  124.4556  152.4109 C   0  0  0  0  0  0  0  0  0  0  0  0
  149.7415  125.7992  152.1071 N   0  3  2  0  0  0  0  0  0  0  0  0
  149.2364  126.4893  153.3208 C   0  0  0  0  0  0  0  0  0  0  0  0
  148.8109  127.9327  153.0027 C   0  0  0  0  0  0  0  0  0  0  0  0
  147.7571  127.9693  151.8842 C   0  0  1  0  0  0  0  0  0  0  0  0
  147.4445  129.3537  151.5412 N   0  0  0  0  0  0  0  0  0  0  0  0
  146.2185  129.8962  151.5635 C   0  0  0  0  0  0  0  0  0  0  0  0
  145.2062  129.2763  151.8892 O   0  0  0  0  0  0  0  0  0  0  0  0
  146.2473  131.1841  151.1841 N   0  0  0  0  0  0  0  0  0  0  0  0
  145.1504  132.0777  151.0989 C   0  0  0  0  0  0  0  0  0  0  0  0
  145.0383  133.4177  151.5734 C   0  0  0  0  0  0  0  0  0  0  0  0
  143.8453  133.9258  151.2977 N   0  0  0  0  0  0  0  0  0  0  0  0
  143.1978  132.9284  150.6543 N   0  0  0  0  0  0  0  0  0  0  0  0
  143.9551  131.7868  150.5120 C   0  0  0  0  0  0  0  0  0  0  0  0
  148.2850  127.2104  150.6534 C   0  0  0  0  0  0  0  0  0  0  0  0
  148.7225  125.7841  151.0232 C   0  0  0  0  0  0  0  0  0  0  0  0
  142.2506  133.0419  150.3222 H   0  0  0  0  0  0  0  0  0  0  0  0
  147.6954  120.9296  151.4275 H   0  0  0  0  0  0  0  0  0  0  0  0
  146.8328  122.1299  152.3569 H   0  0  0  0  0  0  0  0  0  0  0  0
  147.9008  120.9983  153.1606 H   0  0  0  0  0  0  0  0  0  0  0  0
  151.1537  124.5354  153.0797 H   0  0  0  0  0  0  0  0  0  0  0  0
  150.6604  123.9871  151.4964 H   0  0  0  0  0  0  0  0  0  0  0  0
  148.3965  125.9299  153.7357 H   0  0  0  0  0  0  0  0  0  0  0  0
  150.0145  126.5078  154.0850 H   0  0  0  0  0  0  0  0  0  0  0  0
  148.4180  128.4068  153.9031 H   0  0  0  0  0  0  0  0  0  0  0  0
  149.6884  128.5100  152.7070 H   0  0  0  0  0  0  0  0  0  0  0  0
  146.8541  127.4750  152.2484 H   0  0  0  0  0  0  0  0  0  0  0  0
  148.2175  129.9394  151.2609 H   0  0  0  0  0  0  0  0  0  0  0  0
  147.1468  131.5672  150.9327 H   0  0  0  0  0  0  0  0  0  0  0  0
  145.7577  134.0317  152.0947 H   0  0  0  0  0  0  0  0  0  0  0  0
  143.5875  130.8975  150.0212 H   0  0  0  0  0  0  0  0  0  0  0  0
  147.5182  127.1674  149.8788 H   0  0  0  0  0  0  0  0  0  0  0  0
  149.1314  127.7460  150.2207 H   0  0  0  0  0  0  0  0  0  0  0  0
  149.1220  125.2964  150.1339 H   0  0  0  0  0  0  0  0  0  0  0  0
  147.8591  125.1980  151.3420 H   0  0  0  0  0  0  0  0  0  0  0  0
  150.5218  126.3455  151.7702 H   0  0  0  0  0  0  0  0  0  0  0  0
  1  2  1  0  0  0  0
  1 22  1  0  0  0  0
  1 23  1  0  0  0  0
  1 24  1  0  0  0  0
  2  3  1  0  0  0  0
  3  4  2  0  0  0  0
  3  5  1  0  0  0  0
  5  6  1  0  0  0  0
  5 25  1  0  0  0  0
  5 26  1  0  0  0  0
  6 20  1  0  0  0  0
  6  7  1  0  0  0  0
  6 40  1  0  0  0  0
  7  8  1  0  0  0  0
  7 27  1  0  0  0  0
  7 28  1  0  0  0  0
  8  9  1  0  0  0  0
  8 29  1  0  0  0  0
  8 30  1  0  0  0  0
  9 10  1  0  0  0  0
  9 19  1  0  0  0  0
  9 31  1  0  0  0  0
 10 11  1  0  0  0  0
 10 32  1  0  0  0  0
 11 12  2  0  0  0  0
 11 13  1  0  0  0  0
 13 14  1  0  0  0  0
 13 33  1  0  0  0  0
 14 18  2  0  0  0  0
 14 15  1  0  0  0  0
 15 16  2  0  0  0  0
 15 34  1  0  0  0  0
 16 17  1  0  0  0  0
 17 21  1  0  0  0  0
 17 18  1  0  0  0  0
 18 35  1  0  0  0  0
 19 20  1  0  0  0  0
 19 36  1  0  0  0  0
 19 37  1  0  0  0  0
 20 38  1  0  0  0  0
 20 39  1  0  0  0  0
M  CHG  1   2  -1
M  CHG  1   6   1
M  END
> <s_m_source_file>
AV-unprocessed.smi

> <i_m_source_file_index>
1717

> <i_lp_mmshare_version>
43012

> <i_f3d_flags>
0

> <s_epik_input>
W0NIM11bTkhdQyg9TylbQ0gyXU4xW0NIMl1bQ0gyXVtDSF0oW0NIMl1bQ0gyXTEpW05IXUMoPU8pW05IXWMyW2NIXW5bbkhdW2NIXTI=

> <s_epik_cmdline>
J2VwaWtfcHl0aG9uJywgJy1waCcsICc3LjAnLCAnLXRuJywgJzgnLCAnLW1hJywgJzIwMCcsICctbWV0YWxfYmluZGluZycsICctaW1hZScsICc8aW5maWxlLm1hZT4nLCAnLW9tYWUnLCAnPG91dGZpbGUubWFlPic=

> <r_lp_tautomer_probability>
0.5

> <r_epik_Ionization_Penalty>
6.1395

> <r_epik_Ionization_Penalty_Charging>
6.13946

> <r_epik_Ionization_Penalty_Neutral>
4.21226e-05

> <r_epik_State_Penalty>
6.9595

> <r_epik_Charging_Adjusted_Penalty>
13.099

> <i_epik_Tot_Q>
0

> <i_epik_Tot_abs_Q>
2

> <r_epik_Metal_State_Penalty>
2.89141

> <b_epik_Metal_Only>
1

> <s_lp_Force_Field>
OPLS_2005

> <r_lp_Energy>
12.4493

> <b_lp_Chiralities_Consistent>
1

> <s_lp_Variant>
AV-unprocessed.smi:1717-4

> <Gold.Version>
5.8.1

> <Gold.Id.Protein>
6NUR|6NUR_protein|mol2

> <Gold.PLP.Fitness>
40.8433

> <Gold.PLP.PLP>
-30.8176

> <Gold.PLP.part.hbond>
-3.7715

> <Gold.PLP.part.metal>
0.0000

> <Gold.PLP.part.buried>
-6.3710

> <Gold.PLP.part.nonpolar>
-22.2353

> <Gold.PLP.part.repulsive>
0.4465

> <Gold.PLP.ligand.clash>
0.0000

> <Gold.PLP.ligand.torsion>
0.5025

> <Gold.PLP.Chemscore.Hbond>
3.4911

> <Gold.PLP.Chemscore.CHOScore>
0.1591

> <Gold.PLP.Chemscore.Metal>
0.0000

> <Gold.Chemscore.Hbonds>
donor molecule, donor type, donor heavy atom, donor atom, acceptor molecule, acceptor atom, score
      L1  H     6    40       P1 10737  1.00
      L1  H    10    32       P1 10747  0.96
      L1  H    13    33       P1 10747  0.68
      L1  H    17    21       P1 10186  0.85
      L1  C    18    35       P1 10952  0.16

> <Gold.PLP.Chemscore.Internal.Correction>
0.0802

> <Gold.Rescore>
     Score         DG    S(hbond)    S(metal)    S(lipo)     H(rot)  DE(clash)    DE(int)     intcor
     17.30     -19.18       3.24        0.00      62.85       1.75       0.00       1.87       ----

> <Gold.Chemscore.Fitness>
17.3003

> <Gold.Chemscore.DG>
-19.1752

> <Gold.Chemscore.ZeroCoef>
-5.4800

> <Gold.Chemscore.Hbond>
3.2435

> <Gold.Chemscore.Metal>
0.0000

> <Gold.Chemscore.Lipo>
62.8502

> <Gold.Chemscore.Internal_Hbond>
0.0000

> <Gold.Chemscore.DEClash>
0.0000

> <Gold.Chemscore.DEInternal>
1.8748

> <Gold.Chemscore.Rot>
1.7546

> <Gold.Chemscore.Internal.Correction>
   9.000000E+99

> <Gold.Chemscore.Hbonds>
donor molecule, donor type, donor heavy atom, donor atom, acceptor molecule, acceptor atom, score
      L1  H     6    40       P1 10737  0.94
      L1  H    10    32       P1 10747  0.75
      L1  H    13    33       P1 10747  0.64
      L1  H    17    21       P1 10186  0.80

> <Gold.Chemscore.Hbond.Weighted>
-10.8334

> <Gold.Chemscore.Metal.Weighted>
-0.0000

> <Gold.Chemscore.Lipo.Weighted>
-7.3535

> <Gold.Chemscore.Internal_Hbond.Weighted>
0.0000

> <Gold.Chemscore.DEClash.Weighted>
0.0000

> <Gold.Chemscore.DEInternal.Weighted>
1.8748

> <Gold.Chemscore.Rot.Weighted>
4.4917

> <Gold.Chemscore.Internal.Correction.Weighted>
   9.000000E+99

> <Gold.Protein.RotatedTorsions>
[ 6907 6896 6895 6894 ] final -168.56 input  -60.11 | X-H torsion
[ 7974 7965 7964 7962 ] final  149.77 input  175.53 | X-H torsion
[ 8008 7997 7996 7995 ] final  148.71 input   59.86 | X-H torsion
[ 10167 10162 10161 10158 ] final   36.19 input  -65.29 | X-H torsion
[ 10718 10713 10712 10709 ] final  142.49 input   66.30 | X-H torsion
[ 10763 10752 10751 10750 ] final  169.07 input  -60.55 | X-H torsion
[ 11005 11000 10999 10996 ] final  -99.57 input  -57.11 | X-H torsion

> <Gold.Protein.ActiveResidues>
 VAL166  LYS551  ARG553  GLY616  TRP617  ASP618  TYR619  PRO620  LYS621  CYS622 
 ASP623  PHE694  ASN695  SER759  ASP760  ASP761  ALA762  ILE779  LEU786  VAL792 
 PHE793  MET794  SER795  GLU796  ALA797  LYS798  CYS799  TRP800  GLU811  SER814 

> <Gold.Protein.RotatedAtoms>
  151.4776  133.3554  159.2832 H   0  0  0  0  0  0  0  0  0  0  0  0  # atno 6907 bound_to 6896
  150.8919  134.8325  159.7310 H   0  0  0  0  0  0  0  0  0  0  0  0  # atno 6908 bound_to 6896
  152.4828  134.4686  159.9680 H   0  0  0  0  0  0  0  0  0  0  0  0  # atno 6909 bound_to 6896
  144.8413  139.6323  143.6015 H   0  0  0  0  0  0  0  0  0  0  0  0  # atno 7974 bound_to 7965
  156.2781  140.2121  156.5742 H   0  0  0  0  0  0  0  0  0  0  0  0  # atno 8008 bound_to 7997
  154.7111  140.0512  157.0574 H   0  0  0  0  0  0  0  0  0  0  0  0  # atno 8009 bound_to 7997
  155.0604  140.3166  155.4665 H   0  0  0  0  0  0  0  0  0  0  0  0  # atno 8010 bound_to 7997
  140.4151  144.1538  150.6142 H   0  0  0  0  0  0  0  0  0  0  0  0  # atno 10167 bound_to 10162
  157.3800  131.0991  151.0748 H   0  0  0  0  0  0  0  0  0  0  0  0  # atno 10718 bound_to 10713
  154.3777  135.2753  155.2229 H   0  0  0  0  0  0  0  0  0  0  0  0  # atno 10763 bound_to 10752
  154.4349  135.5968  153.6096 H   0  0  0  0  0  0  0  0  0  0  0  0  # atno 10764 bound_to 10752
  152.9835  135.6004  154.4016 H   0  0  0  0  0  0  0  0  0  0  0  0  # atno 10765 bound_to 10752
  141.1303  133.8332  157.0989 H   0  0  0  0  0  0  0  0  0  0  0  0  # atno 11005 bound_to 11000
  146.2705  139.6624  142.9299 LP  0  0  0  0  0  0  0  0  0  0  0  0  # atno 17320 bound_to 7965
  145.4688  141.0435  143.2710 LP  0  0  0  0  0  0  0  0  0  0  0  0  # atno 17321 bound_to 7965
  140.4595  143.2454  151.9239 LP  0  0  0  0  0  0  0  0  0  0  0  0  # atno 17342 bound_to 10162
  139.4782  144.5481  151.8427 LP  0  0  0  0  0  0  0  0  0  0  0  0  # atno 17343 bound_to 10162
  157.1820  130.6314  149.5675 LP  0  0  0  0  0  0  0  0  0  0  0  0  # atno 17370 bound_to 10713
  155.9773  130.4750  150.6588 LP  0  0  0  0  0  0  0  0  0  0  0  0  # atno 17371 bound_to 10713
  140.0346  134.9884  157.0846 LP  0  0  0  0  0  0  0  0  0  0  0  0  # atno 17394 bound_to 11000
  140.4231  134.1859  155.7165 LP  0  0  0  0  0  0  0  0  0  0  0  0  # atno 17395 bound_to 11000

$$$$
