AV-unprocessed.smi:13|AV-procd|sdf|70|dock3
  -GOLD-   2262015193D 1   1.00000     0.00000
 Structure written by MMmdl.
 54 58  0  0  0  0  0  0  0  0  1 V2000
  148.5772  133.9527  158.5653 C   0  0  0  0  0  0  0  0  0  0  0  0
  148.4957  135.2722  157.7864 C   0  0  0  0  0  0  0  0  0  0  0  0
  147.0482  135.4168  157.3178 C   0  0  0  0  0  0  0  0  0  0  0  0
  149.0952  136.4973  158.4940 C   0  0  0  0  0  0  0  0  0  0  0  0
  150.3091  136.2572  157.7304 N   0  0  0  0  0  0  0  0  0  0  0  0
  150.9811  137.4209  157.2706 C   0  0  0  0  0  0  0  0  0  0  0  0
  152.0585  137.2185  156.4711 N   0  0  0  0  0  0  0  0  0  0  0  0
  152.7514  138.2452  155.9714 C   0  0  0  0  0  0  0  0  0  0  0  0
  152.5438  139.5507  156.1406 N   0  0  0  0  0  0  0  0  0  0  0  0
  151.4637  139.7741  156.9406 C   0  0  0  0  0  0  0  0  0  0  0  0
  150.6382  138.7804  157.5415 C   0  0  0  0  0  0  0  0  0  0  0  0
  149.6372  139.3953  158.2863 N   0  0  0  0  0  0  0  0  0  0  0  0
  149.8592  140.6720  158.1361 C   0  0  0  0  0  0  0  0  0  0  0  0
  150.9326  140.9893  157.3362 N   0  0  0  0  0  0  0  0  0  0  0  0
  151.3991  142.3240  156.9941 C   0  0  0  0  0  0  0  0  0  0  0  0
  151.1386  143.3658  158.1066 C   0  0  2  0  0  0  0  0  0  0  0  0
  149.7552  143.6736  158.1318 O   0  0  0  0  0  0  0  0  0  0  0  0
  151.9210  144.6661  157.9427 C   0  0  0  0  0  0  0  0  0  0  0  0
  152.1511  145.1061  159.3815 C   0  0  0  0  0  0  0  0  0  0  0  0
  152.4223  143.8800  160.0386 O   0  0  0  0  0  0  0  0  0  0  0  0
  151.5550  142.8816  159.5101 C   0  0  0  0  0  0  0  0  0  0  0  0
  149.5696  135.5281  156.7078 C   0  0  1  0  0  0  0  0  0  0  0  0
  150.4010  134.3918  156.1112 C   0  0  2  0  0  0  0  0  0  0  0  0
  149.5827  133.3561  155.3424 C   0  0  0  0  0  0  0  0  0  0  0  0
  150.4588  132.1173  155.3942 C   0  0  0  0  0  0  0  0  0  0  0  0
  151.3762  132.3654  156.5953 C   0  0  0  0  0  0  0  0  0  0  0  0
  150.9526  133.6031  157.1533 O   0  0  0  0  0  0  0  0  0  0  0  0
  147.8904  133.9455  159.4121 H   0  0  0  0  0  0  0  0  0  0  0  0
  149.5768  133.7821  158.9661 H   0  0  0  0  0  0  0  0  0  0  0  0
  148.3309  133.0985  157.9339 H   0  0  0  0  0  0  0  0  0  0  0  0
  146.9004  136.3427  156.7609 H   0  0  0  0  0  0  0  0  0  0  0  0
  146.3532  135.4320  158.1579 H   0  0  0  0  0  0  0  0  0  0  0  0
  146.7576  134.5959  156.6613 H   0  0  0  0  0  0  0  0  0  0  0  0
  148.5857  137.4305  158.2533 H   0  0  0  0  0  0  0  0  0  0  0  0
  149.2273  136.3748  159.5693 H   0  0  0  0  0  0  0  0  0  0  0  0
  153.5903  137.9820  155.3443 H   0  0  0  0  0  0  0  0  0  0  0  0
  149.2378  141.4230  158.6022 H   0  0  0  0  0  0  0  0  0  0  0  0
  152.4646  142.2683  156.7662 H   0  0  0  0  0  0  0  0  0  0  0  0
  150.9060  142.6313  156.0710 H   0  0  0  0  0  0  0  0  0  0  0  0
  149.4401  143.7055  157.2414 H   0  0  0  0  0  0  0  0  0  0  0  0
  152.8889  144.4683  157.4809 H   0  0  0  0  0  0  0  0  0  0  0  0
  151.4108  145.4166  157.3370 H   0  0  0  0  0  0  0  0  0  0  0  0
  152.9777  145.8096  159.4824 H   0  0  0  0  0  0  0  0  0  0  0  0
  151.2532  145.5609  159.8030 H   0  0  0  0  0  0  0  0  0  0  0  0
  150.6975  142.7546  160.1730 H   0  0  0  0  0  0  0  0  0  0  0  0
  152.0860  141.9299  159.4805 H   0  0  0  0  0  0  0  0  0  0  0  0
  149.1722  136.1942  155.9413 H   0  0  0  0  0  0  0  0  0  0  0  0
  151.2136  134.7684  155.4869 H   0  0  0  0  0  0  0  0  0  0  0  0
  148.6401  133.1627  155.8566 H   0  0  0  0  0  0  0  0  0  0  0  0
  149.3523  133.6696  154.3240 H   0  0  0  0  0  0  0  0  0  0  0  0
  149.8643  131.2101  155.5072 H   0  0  0  0  0  0  0  0  0  0  0  0
  151.0492  132.0216  154.4822 H   0  0  0  0  0  0  0  0  0  0  0  0
  151.3120  131.5702  157.3381 H   0  0  0  0  0  0  0  0  0  0  0  0
  152.4156  132.4483  156.2746 H   0  0  0  0  0  0  0  0  0  0  0  0
  1  2  1  0  0  0  0
  1 28  1  0  0  0  0
  1 29  1  0  0  0  0
  1 30  1  0  0  0  0
  2 22  1  0  0  0  0
  2  3  1  0  0  0  0
  2  4  1  0  0  0  0
  3 31  1  0  0  0  0
  3 32  1  0  0  0  0
  3 33  1  0  0  0  0
  4  5  1  0  0  0  0
  4 34  1  0  0  0  0
  4 35  1  0  0  0  0
  5  6  1  0  0  0  0
  5 22  1  0  0  0  0
  6 11  1  0  0  0  0
  6  7  2  0  0  0  0
  7  8  1  0  0  0  0
  8  9  2  0  0  0  0
  8 36  1  0  0  0  0
  9 10  1  0  0  0  0
 10 14  1  0  0  0  0
 10 11  2  0  0  0  0
 11 12  1  0  0  0  0
 12 13  2  0  0  0  0
 13 14  1  0  0  0  0
 13 37  1  0  0  0  0
 14 15  1  0  0  0  0
 15 16  1  0  0  0  0
 15 38  1  0  0  0  0
 15 39  1  0  0  0  0
 16 21  1  0  0  0  0
 16 17  1  0  0  0  0
 16 18  1  0  0  0  0
 17 40  1  0  0  0  0
 18 19  1  0  0  0  0
 18 41  1  0  0  0  0
 18 42  1  0  0  0  0
 19 20  1  0  0  0  0
 19 43  1  0  0  0  0
 19 44  1  0  0  0  0
 20 21  1  0  0  0  0
 21 45  1  0  0  0  0
 21 46  1  0  0  0  0
 22 23  1  0  0  0  0
 22 47  1  0  0  0  0
 23 27  1  0  0  0  0
 23 24  1  0  0  0  0
 23 48  1  0  0  0  0
 24 25  1  0  0  0  0
 24 49  1  0  0  0  0
 24 50  1  0  0  0  0
 25 26  1  0  0  0  0
 25 51  1  0  0  0  0
 25 52  1  0  0  0  0
 26 27  1  0  0  0  0
 26 53  1  0  0  0  0
 26 54  1  0  0  0  0
M  END
> <s_m_source_file>
AV-unprocessed.smi

> <i_m_source_file_index>
13

> <i_lp_mmshare_version>
43012

> <i_f3d_flags>
0

> <s_epik_input>
TzFbQ0gyXVtDSDJdW0NIMl1bQ0BIXTFbQ0BASF0yTihbQ0gyXUMyKFtDSDNdKVtDSDNdKWMobltjSF1uMyljKGMzNCluW2NIXW40W0NIMl1bQ0BAXTUoW09IXSlbQ0gyXVtDSDJdT1tDSDJdNQ==

> <s_epik_cmdline>
J2VwaWtfcHl0aG9uJywgJy1waCcsICc3LjAnLCAnLXRuJywgJzgnLCAnLW1hJywgJzIwMCcsICctbWV0YWxfYmluZGluZycsICctaW1hZScsICc8aW5maWxlLm1hZT4nLCAnLW9tYWUnLCAnPG91dGZpbGUubWFlPic=

> <r_lp_tautomer_probability>
1

> <r_epik_Ionization_Penalty>
0.00202764

> <r_epik_Ionization_Penalty_Charging>
0

> <r_epik_Ionization_Penalty_Neutral>
0.00202764

> <r_epik_State_Penalty>
0.00134017

> <r_epik_Charging_Adjusted_Penalty>
0.00134017

> <i_epik_Tot_Q>
0

> <i_epik_Tot_abs_Q>
0

> <r_epik_Metal_State_Penalty>
-0

> <b_epik_Metal_Only>
0

> <s_lp_Force_Field>
OPLS_2005

> <r_lp_Energy>
60.4811

> <b_lp_Chiralities_Consistent>
1

> <s_lp_Variant>
AV-unprocessed.smi:13-2

> <Gold.Version>
5.8.1

> <Gold.Id.Protein>
6NUR|6NUR_protein|mol2

> <Gold.PLP.Fitness>
45.0498

> <Gold.PLP.PLP>
-38.0127

> <Gold.PLP.part.hbond>
-4.1099

> <Gold.PLP.part.metal>
0.0000

> <Gold.PLP.part.buried>
-6.6116

> <Gold.PLP.part.nonpolar>
-27.4317

> <Gold.PLP.part.repulsive>
0.0183

> <Gold.PLP.ligand.clash>
0.0000

> <Gold.PLP.ligand.torsion>
0.7607

> <Gold.PLP.Chemscore.Hbond>
2.6978

> <Gold.PLP.Chemscore.CHOScore>
0.0000

> <Gold.PLP.Chemscore.Metal>
0.0000

> <Gold.Chemscore.Hbonds>
donor molecule, donor type, donor heavy atom, donor atom, acceptor molecule, acceptor atom, score
      L1  H    17    40       P1  8028  0.99
      P1  H  6896  6907       L1    27  0.67
      P1  H  7997  8010       L1     9  0.95

> <Gold.PLP.Chemscore.Internal.Correction>
0.4650

> <Gold.Rescore>
     Score         DG    S(hbond)    S(metal)    S(lipo)     H(rot)  DE(clash)    DE(int)     intcor
     12.47     -17.84       2.41        0.00      87.24       2.30       0.87       4.49       ----

> <Gold.Chemscore.Fitness>
12.4736

> <Gold.Chemscore.DG>
-17.8407

> <Gold.Chemscore.ZeroCoef>
-5.4800

> <Gold.Chemscore.Hbond>
2.4074

> <Gold.Chemscore.Metal>
0.0000

> <Gold.Chemscore.Lipo>
87.2384

> <Gold.Chemscore.Internal_Hbond>
0.0000

> <Gold.Chemscore.DEClash>
0.8728

> <Gold.Chemscore.DEInternal>
4.4943

> <Gold.Chemscore.Rot>
2.2996

> <Gold.Chemscore.Internal.Correction>
   9.000000E+99

> <Gold.Chemscore.Hbonds>
donor molecule, donor type, donor heavy atom, donor atom, acceptor molecule, acceptor atom, score
      L1  H    17    40       P1  8028  0.61
      P1  H  6896  6907       L1    27  0.47
      P1  H  7997  8010       L1     9  0.22

> <Gold.Chemscore.Hbond.Weighted>
-8.0407

> <Gold.Chemscore.Metal.Weighted>
-0.0000

> <Gold.Chemscore.Lipo.Weighted>
-10.2069

> <Gold.Chemscore.Internal_Hbond.Weighted>
0.0000

> <Gold.Chemscore.DEClash.Weighted>
0.8728

> <Gold.Chemscore.DEInternal.Weighted>
4.4943

> <Gold.Chemscore.Rot.Weighted>
5.8869

> <Gold.Chemscore.Internal.Correction.Weighted>
   9.000000E+99

> <Gold.Protein.RotatedTorsions>
[ 6907 6896 6895 6894 ] final -142.04 input  -60.11 | X-H torsion
[ 7974 7965 7964 7962 ] final  127.42 input  175.53 | X-H torsion
[ 8008 7997 7996 7995 ] final   76.52 input   59.86 | X-H torsion
[ 10167 10162 10161 10158 ] final  110.37 input  -65.29 | X-H torsion
[ 10718 10713 10712 10709 ] final  178.35 input   66.30 | X-H torsion
[ 10763 10752 10751 10750 ] final  -16.75 input  -60.55 | X-H torsion
[ 11005 11000 10999 10996 ] final -135.80 input  -57.11 | X-H torsion

> <Gold.Protein.ActiveResidues>
 VAL166  LYS551  ARG553  GLY616  TRP617  ASP618  TYR619  PRO620  LYS621  CYS622 
 ASP623  PHE694  ASN695  SER759  ASP760  ASP761  ALA762  ILE779  LEU786  VAL792 
 PHE793  MET794  SER795  GLU796  ALA797  LYS798  CYS799  TRP800  GLU811  SER814 

> <Gold.Protein.RotatedAtoms>
  151.0818  133.5384  159.2619 H   0  0  0  0  0  0  0  0  0  0  0  0  # atno 6907 bound_to 6896
  151.2285  135.0544  159.8988 H   0  0  0  0  0  0  0  0  0  0  0  0  # atno 6908 bound_to 6896
  152.5424  134.0610  159.8206 H   0  0  0  0  0  0  0  0  0  0  0  0  # atno 6909 bound_to 6896
  145.0507  139.3885  143.5055 H   0  0  0  0  0  0  0  0  0  0  0  0  # atno 7974 bound_to 7965
  155.8284  140.3467  155.5557 H   0  0  0  0  0  0  0  0  0  0  0  0  # atno 8008 bound_to 7997
  155.8268  140.0921  157.1836 H   0  0  0  0  0  0  0  0  0  0  0  0  # atno 8009 bound_to 7997
  154.4004  140.1420  156.3553 H   0  0  0  0  0  0  0  0  0  0  0  0  # atno 8010 bound_to 7997
  139.6693  144.7126  151.1717 H   0  0  0  0  0  0  0  0  0  0  0  0  # atno 10167 bound_to 10162
  156.8919  130.9850  151.3048 H   0  0  0  0  0  0  0  0  0  0  0  0  # atno 10718 bound_to 10713
  153.5633  135.7009  153.5537 H   0  0  0  0  0  0  0  0  0  0  0  0  # atno 10763 bound_to 10752
  153.3410  135.4021  155.1571 H   0  0  0  0  0  0  0  0  0  0  0  0  # atno 10764 bound_to 10752
  154.8644  135.3742  154.5151 H   0  0  0  0  0  0  0  0  0  0  0  0  # atno 10765 bound_to 10752
  140.8864  134.1867  157.4557 H   0  0  0  0  0  0  0  0  0  0  0  0  # atno 11005 bound_to 11000
  146.3517  140.0156  142.8663 LP  0  0  0  0  0  0  0  0  0  0  0  0  # atno 17320 bound_to 7965
  145.1530  140.9633  143.4421 LP  0  0  0  0  0  0  0  0  0  0  0  0  # atno 17321 bound_to 7965
  140.7612  143.5869  150.8836 LP  0  0  0  0  0  0  0  0  0  0  0  0  # atno 17342 bound_to 10162
  139.9533  143.6247  152.3023 LP  0  0  0  0  0  0  0  0  0  0  0  0  # atno 17343 bound_to 10162
  157.6079  130.8560  149.8904 LP  0  0  0  0  0  0  0  0  0  0  0  0  # atno 17370 bound_to 10713
  156.0625  130.3697  150.0951 LP  0  0  0  0  0  0  0  0  0  0  0  0  # atno 17371 bound_to 10713
  139.8725  134.9840  156.5220 LP  0  0  0  0  0  0  0  0  0  0  0  0  # atno 17394 bound_to 11000
  140.8399  133.8213  155.9065 LP  0  0  0  0  0  0  0  0  0  0  0  0  # atno 17395 bound_to 11000

$$$$
