AV-unprocessed.smi:589|AV-procd|sdf|3006|dock6
  -GOLD-   2262023513D 1   1.00000     0.00000
 Structure written by MMmdl.
 40 41  0  0  0  0  0  0  0  0  1 V2000
  151.6685  144.6724  160.1245 C   0  0  0  0  0  0  0  0  0  0  0  0
  152.0915  143.2455  159.8457 C   0  0  0  0  0  0  0  0  0  0  0  0
  153.0715  142.6125  160.6312 C   0  0  0  0  0  0  0  0  0  0  0  0
  153.4310  141.2829  160.3308 C   0  0  0  0  0  0  0  0  0  0  0  0
  154.5241  140.6264  161.1619 C   0  0  0  0  0  0  0  0  0  0  0  0
  152.7762  140.6219  159.2526 C   0  0  0  0  0  0  0  0  0  0  0  0
  153.1143  139.2002  158.8768 C   0  0  0  0  0  0  0  0  0  0  0  0
  153.1022  138.3122  159.8749 N   0  0  0  0  0  0  0  0  0  0  0  0
  153.3508  138.8828  157.7127 O   0  0  0  0  0  0  0  0  0  0  0  0
  151.8098  141.3622  158.5112 C   0  0  0  0  0  0  0  0  0  0  0  0
  151.1211  140.7792  157.4337 N   0  0  0  0  0  0  0  0  0  0  0  0
  150.3772  141.7147  156.6031 C   0  0  0  0  0  0  0  0  0  0  0  0
  149.8819  140.9987  155.3343 C   0  0  2  0  0  0  0  0  0  0  0  0
  149.0024  141.9072  154.4695 C   0  0  0  0  0  0  0  0  0  0  0  0
  149.1118  139.8539  155.7056 O   0  0  0  0  0  0  0  0  0  0  0  0
  149.7975  138.9085  156.5329 C   0  0  1  0  0  0  0  0  0  0  0  0
  150.8725  138.1302  155.7536 C   0  0  0  0  0  0  0  0  0  0  0  0
  150.3418  139.6044  157.7964 C   0  0  0  0  0  0  0  0  0  0  0  0
  151.4777  142.6403  158.8111 N   0  0  0  0  0  0  0  0  0  0  0  0
  152.2505  145.1068  160.9377 H   0  0  0  0  0  0  0  0  0  0  0  0
  150.6150  144.7068  160.4035 H   0  0  0  0  0  0  0  0  0  0  0  0
  151.8102  145.2904  159.2375 H   0  0  0  0  0  0  0  0  0  0  0  0
  153.5455  143.1419  161.4448 H   0  0  0  0  0  0  0  0  0  0  0  0
  155.2538  140.1261  160.5245 H   0  0  0  0  0  0  0  0  0  0  0  0
  154.0969  139.8947  161.8478 H   0  0  0  0  0  0  0  0  0  0  0  0
  155.0637  141.3647  161.7559 H   0  0  0  0  0  0  0  0  0  0  0  0
  153.3226  137.3443  159.6915 H   0  0  0  0  0  0  0  0  0  0  0  0
  152.8752  138.6152  160.8111 H   0  0  0  0  0  0  0  0  0  0  0  0
  149.5306  142.1128  157.1644 H   0  0  0  0  0  0  0  0  0  0  0  0
  151.0159  142.5576  156.3361 H   0  0  0  0  0  0  0  0  0  0  0  0
  150.7370  140.6866  154.7340 H   0  0  0  0  0  0  0  0  0  0  0  0
  149.5511  142.7927  154.1479 H   0  0  0  0  0  0  0  0  0  0  0  0
  148.1197  142.2397  155.0166 H   0  0  0  0  0  0  0  0  0  0  0  0
  148.6631  141.3839  153.5753 H   0  0  0  0  0  0  0  0  0  0  0  0
  149.0492  138.1817  156.8499 H   0  0  0  0  0  0  0  0  0  0  0  0
  151.2932  137.3344  156.3684 H   0  0  0  0  0  0  0  0  0  0  0  0
  151.7002  138.7669  155.4416 H   0  0  0  0  0  0  0  0  0  0  0  0
  150.4488  137.6694  154.8611 H   0  0  0  0  0  0  0  0  0  0  0  0
  150.9510  138.9132  158.3803 H   0  0  0  0  0  0  0  0  0  0  0  0
  149.5101  139.9122  158.4319 H   0  0  0  0  0  0  0  0  0  0  0  0
  1  2  1  0  0  0  0
  1 20  1  0  0  0  0
  1 21  1  0  0  0  0
  1 22  1  0  0  0  0
  2 19  1  0  0  0  0
  2  3  2  0  0  0  0
  3  4  1  0  0  0  0
  3 23  1  0  0  0  0
  4  5  1  0  0  0  0
  4  6  2  0  0  0  0
  5 24  1  0  0  0  0
  5 25  1  0  0  0  0
  5 26  1  0  0  0  0
  6  7  1  0  0  0  0
  6 10  1  0  0  0  0
  7  8  1  0  0  0  0
  7  9  2  0  0  0  0
  8 27  1  0  0  0  0
  8 28  1  0  0  0  0
 10 11  1  0  0  0  0
 10 19  2  0  0  0  0
 11 18  1  0  0  0  0
 11 12  1  0  0  0  0
 12 13  1  0  0  0  0
 12 29  1  0  0  0  0
 12 30  1  0  0  0  0
 13 14  1  0  0  0  0
 13 15  1  0  0  0  0
 13 31  1  0  0  0  0
 14 32  1  0  0  0  0
 14 33  1  0  0  0  0
 14 34  1  0  0  0  0
 15 16  1  0  0  0  0
 16 17  1  0  0  0  0
 16 18  1  0  0  0  0
 16 35  1  0  0  0  0
 17 36  1  0  0  0  0
 17 37  1  0  0  0  0
 17 38  1  0  0  0  0
 18 39  1  0  0  0  0
 18 40  1  0  0  0  0
M  END
> <s_m_source_file>
AV-unprocessed.smi

> <i_m_source_file_index>
589

> <i_lp_mmshare_version>
43012

> <i_f3d_flags>
0

> <s_epik_input>
W0NIM11jMVtjSF1jKFtDSDNdKWMoQyg9TylbTkgyXSljKG4xKU4yW0NIMl1bQ0BASF0oW0NIM10pT1tDQEBIXShbQ0gzXSlbQ0gyXTI=

> <s_epik_cmdline>
J2VwaWtfcHl0aG9uJywgJy1waCcsICc3LjAnLCAnLXRuJywgJzgnLCAnLW1hJywgJzIwMCcsICctbWV0YWxfYmluZGluZycsICctaW1hZScsICc8aW5maWxlLm1hZT4nLCAnLW9tYWUnLCAnPG91dGZpbGUubWFlPic=

> <r_lp_tautomer_probability>
1

> <r_epik_Ionization_Penalty>
0.000626871

> <r_epik_Ionization_Penalty_Charging>
0

> <r_epik_Ionization_Penalty_Neutral>
0.000626871

> <r_epik_State_Penalty>
0.000395665

> <r_epik_Charging_Adjusted_Penalty>
0.000395665

> <i_epik_Tot_Q>
0

> <i_epik_Tot_abs_Q>
0

> <r_epik_Metal_State_Penalty>
-0

> <b_epik_Metal_Only>
0

> <s_lp_Force_Field>
OPLS_2005

> <r_lp_Energy>
27.5489

> <b_lp_Chiralities_Consistent>
1

> <s_lp_Variant>
AV-unprocessed.smi:589-2

> <Gold.Version>
5.8.1

> <Gold.Id.Protein>
6NUR|6NUR_protein|mol2

> <Gold.PLP.Fitness>
36.2796

> <Gold.PLP.PLP>
-34.9432

> <Gold.PLP.part.hbond>
-1.0000

> <Gold.PLP.part.metal>
0.0000

> <Gold.PLP.part.buried>
-2.6376

> <Gold.PLP.part.nonpolar>
-30.6723

> <Gold.PLP.part.repulsive>
0.0986

> <Gold.PLP.ligand.clash>
0.0000

> <Gold.PLP.ligand.torsion>
1.0033

> <Gold.PLP.Chemscore.Hbond>
1.0000

> <Gold.PLP.Chemscore.CHOScore>
0.0000

> <Gold.PLP.Chemscore.Metal>
0.0000

> <Gold.Chemscore.Hbonds>
donor molecule, donor type, donor heavy atom, donor atom, acceptor molecule, acceptor atom, score
      P1  H  7997  8010       L1     9  1.00

> <Gold.PLP.Chemscore.Internal.Correction>
0.3429

> <Gold.Rescore>
     Score         DG    S(hbond)    S(metal)    S(lipo)     H(rot)  DE(clash)    DE(int)     intcor
     15.50     -17.08       1.00        0.00      92.54       1.00       0.05       1.54       ----

> <Gold.Chemscore.Fitness>
15.4955

> <Gold.Chemscore.DG>
-17.0809

> <Gold.Chemscore.ZeroCoef>
-5.4800

> <Gold.Chemscore.Hbond>
0.9980

> <Gold.Chemscore.Metal>
0.0000

> <Gold.Chemscore.Lipo>
92.5439

> <Gold.Chemscore.Internal_Hbond>
0.0000

> <Gold.Chemscore.DEClash>
0.0460

> <Gold.Chemscore.DEInternal>
1.5394

> <Gold.Chemscore.Rot>
1.0000

> <Gold.Chemscore.Internal.Correction>
   9.000000E+99

> <Gold.Chemscore.Hbonds>
donor molecule, donor type, donor heavy atom, donor atom, acceptor molecule, acceptor atom, score
      P1  H  7997  8010       L1     9  0.65

> <Gold.Chemscore.Hbond.Weighted>
-3.3333

> <Gold.Chemscore.Metal.Weighted>
-0.0000

> <Gold.Chemscore.Lipo.Weighted>
-10.8276

> <Gold.Chemscore.Internal_Hbond.Weighted>
0.0000

> <Gold.Chemscore.DEClash.Weighted>
0.0460

> <Gold.Chemscore.DEInternal.Weighted>
1.5394

> <Gold.Chemscore.Rot.Weighted>
2.5600

> <Gold.Chemscore.Internal.Correction.Weighted>
   9.000000E+99

> <Gold.Protein.RotatedTorsions>
[ 6907 6896 6895 6894 ] final  -41.95 input  -60.11 | X-H torsion
[ 7974 7965 7964 7962 ] final   56.64 input  175.53 | X-H torsion
[ 8008 7997 7996 7995 ] final   30.28 input   59.86 | X-H torsion
[ 10167 10162 10161 10158 ] final   36.12 input  -65.29 | X-H torsion
[ 10718 10713 10712 10709 ] final -158.20 input   66.30 | X-H torsion
[ 10763 10752 10751 10750 ] final  -45.80 input  -60.55 | X-H torsion
[ 11005 11000 10999 10996 ] final   -5.00 input  -57.11 | X-H torsion

> <Gold.Protein.ActiveResidues>
 VAL166  LYS551  ARG553  GLY616  TRP617  ASP618  TYR619  PRO620  LYS621  CYS622 
 ASP623  PHE694  ASN695  SER759  ASP760  ASP761  ALA762  ILE779  LEU786  VAL792 
 PHE793  MET794  SER795  GLU796  ALA797  LYS798  CYS799  TRP800  GLU811  SER814 

> <Gold.Protein.RotatedAtoms>
  150.9608  134.8996  159.7729 H   0  0  0  0  0  0  0  0  0  0  0  0  # atno 6907 bound_to 6896
  152.5155  134.3675  159.9316 H   0  0  0  0  0  0  0  0  0  0  0  0  # atno 6908 bound_to 6896
  151.3688  133.3822  159.2732 H   0  0  0  0  0  0  0  0  0  0  0  0  # atno 6909 bound_to 6896
  145.9376  139.3861  143.0383 H   0  0  0  0  0  0  0  0  0  0  0  0  # atno 7974 bound_to 7965
  155.0880  140.3217  155.4582 H   0  0  0  0  0  0  0  0  0  0  0  0  # atno 8008 bound_to 7997
  156.2750  140.2083  156.5953 H   0  0  0  0  0  0  0  0  0  0  0  0  # atno 8009 bound_to 7997
  154.6926  140.0515  157.0366 H   0  0  0  0  0  0  0  0  0  0  0  0  # atno 8010 bound_to 7997
  140.4157  144.1530  150.6143 H   0  0  0  0  0  0  0  0  0  0  0  0  # atno 10167 bound_to 10162
  156.5508  130.8604  151.2779 H   0  0  0  0  0  0  0  0  0  0  0  0  # atno 10718 bound_to 10713
  154.0346  135.6652  153.4784 H   0  0  0  0  0  0  0  0  0  0  0  0  # atno 10763 bound_to 10752
  153.0526  135.5075  154.7901 H   0  0  0  0  0  0  0  0  0  0  0  0  # atno 10764 bound_to 10752
  154.6857  135.3052  154.9516 H   0  0  0  0  0  0  0  0  0  0  0  0  # atno 10765 bound_to 10752
  140.6864  133.9109  155.8589 H   0  0  0  0  0  0  0  0  0  0  0  0  # atno 11005 bound_to 11000
  145.8342  140.9614  143.0833 LP  0  0  0  0  0  0  0  0  0  0  0  0  # atno 17320 bound_to 7965
  144.6774  140.0202  143.7484 LP  0  0  0  0  0  0  0  0  0  0  0  0  # atno 17321 bound_to 7965
  140.4589  143.2457  151.9247 LP  0  0  0  0  0  0  0  0  0  0  0  0  # atno 17342 bound_to 10162
  139.4782  144.5488  151.8418 LP  0  0  0  0  0  0  0  0  0  0  0  0  # atno 17343 bound_to 10162
  157.7388  130.9819  150.2273 LP  0  0  0  0  0  0  0  0  0  0  0  0  # atno 17370 bound_to 10713
  156.2886  130.3742  149.7864 LP  0  0  0  0  0  0  0  0  0  0  0  0  # atno 17371 bound_to 10713
  141.0276  134.0801  157.4050 LP  0  0  0  0  0  0  0  0  0  0  0  0  # atno 17394 bound_to 11000
  139.8936  135.0131  156.6908 LP  0  0  0  0  0  0  0  0  0  0  0  0  # atno 17395 bound_to 11000

$$$$
