AV-unprocessed.smi:1758|AV-procd|sdf|7084|dock3
  -GOLD-   22720 8303D 1   1.00000     0.00000
 Structure written by MMmdl.
 44 46  0  0  0  0  0  0  0  0  2 V2000
  144.0707  132.9037  151.3223 C   0  0  0  0  0  0  0  0  0  0  0  0
  144.9054  133.8612  150.4638 C   0  0  0  0  0  0  0  0  0  0  0  0
  145.2984  135.0436  151.2048 N   0  0  0  0  0  0  0  0  0  0  0  0
  146.1142  136.0780  150.7916 C   0  0  0  0  0  0  0  0  0  0  0  0
  146.1712  136.9462  151.8452 C   0  0  0  0  0  0  0  0  0  0  0  0
  146.8638  138.1776  151.9594 N   0  0  0  0  0  0  0  0  0  0  0  0
  146.8026  139.0549  152.9740 C   0  0  0  0  0  0  0  0  0  0  0  0
  146.1058  138.9274  153.9808 O   0  0  0  0  0  0  0  0  0  0  0  0
  147.5980  140.1108  152.7529 N   0  0  0  0  0  0  0  0  0  0  0  0
  147.7461  141.2526  153.6504 C   0  0  1  0  0  0  0  0  0  0  0  0
  146.4017  141.7646  154.1967 C   0  0  0  0  0  0  0  0  0  0  0  0
  146.6828  142.1737  155.6564 C   0  0  0  0  0  0  0  0  0  0  0  0
  148.1320  141.9725  155.8479 N   0  3  1  0  0  0  0  0  0  0  0  0
  148.6032  141.7397  157.2305 C   0  0  0  0  0  0  0  0  0  0  0  0
  150.1419  141.6384  157.2331 C   0  0  0  0  0  0  0  0  0  0  0  0
  150.6477  140.5882  156.2231 C   0  0  0  0  0  0  0  0  0  0  0  0
  150.0501  140.8285  154.8233 C   0  0  0  0  0  0  0  0  0  0  0  0
  148.5167  140.8951  154.9236 C   0  0  2  0  0  0  0  0  0  0  0  0
  145.3662  136.3731  152.8637 C   0  0  0  0  0  0  0  0  0  0  0  0
  144.8432  135.2221  152.4698 N   0  0  0  0  0  0  0  0  0  0  0  0
  143.7806  132.0229  150.7497 H   0  0  0  0  0  0  0  0  0  0  0  0
  143.1594  133.3862  151.6765 H   0  0  0  0  0  0  0  0  0  0  0  0
  144.6306  132.5632  152.1939 H   0  0  0  0  0  0  0  0  0  0  0  0
  145.8034  133.3613  150.0987 H   0  0  0  0  0  0  0  0  0  0  0  0
  144.3371  134.1716  149.5865 H   0  0  0  0  0  0  0  0  0  0  0  0
  146.5625  136.0975  149.8092 H   0  0  0  0  0  0  0  0  0  0  0  0
  147.4690  138.4133  151.1865 H   0  0  0  0  0  0  0  0  0  0  0  0
  148.1351  140.1282  151.8982 H   0  0  0  0  0  0  0  0  0  0  0  0
  148.2460  142.0802  153.1421 H   0  0  0  0  0  0  0  0  0  0  0  0
  146.0297  142.6013  153.6040 H   0  0  0  0  0  0  0  0  0  0  0  0
  145.6393  140.9843  154.1744 H   0  0  0  0  0  0  0  0  0  0  0  0
  146.4077  143.2090  155.8593 H   0  0  0  0  0  0  0  0  0  0  0  0
  146.1209  141.5336  156.3383 H   0  0  0  0  0  0  0  0  0  0  0  0
  148.2782  142.5599  157.8716 H   0  0  0  0  0  0  0  0  0  0  0  0
  148.1592  140.8248  157.6259 H   0  0  0  0  0  0  0  0  0  0  0  0
  150.5674  142.6110  156.9818 H   0  0  0  0  0  0  0  0  0  0  0  0
  150.4990  141.3966  158.2346 H   0  0  0  0  0  0  0  0  0  0  0  0
  151.7369  140.6062  156.1751 H   0  0  0  0  0  0  0  0  0  0  0  0
  150.3704  139.5913  156.5685 H   0  0  0  0  0  0  0  0  0  0  0  0
  150.4410  141.7570  154.4049 H   0  0  0  0  0  0  0  0  0  0  0  0
  150.3538  140.0276  154.1488 H   0  0  0  0  0  0  0  0  0  0  0  0
  148.1375  139.9487  155.3164 H   0  0  0  0  0  0  0  0  0  0  0  0
  145.1481  136.7450  153.8539 H   0  0  0  0  0  0  0  0  0  0  0  0
  148.5849  142.8107  155.5122 H   0  0  0  0  0  0  0  0  0  0  0  0
  1  2  1  0  0  0  0
  1 21  1  0  0  0  0
  1 22  1  0  0  0  0
  1 23  1  0  0  0  0
  2  3  1  0  0  0  0
  2 24  1  0  0  0  0
  2 25  1  0  0  0  0
  3 20  1  0  0  0  0
  3  4  1  0  0  0  0
  4  5  2  0  0  0  0
  4 26  1  0  0  0  0
  5  6  1  0  0  0  0
  5 19  1  0  0  0  0
  6  7  1  0  0  0  0
  6 27  1  0  0  0  0
  7  8  2  0  0  0  0
  7  9  1  0  0  0  0
  9 10  1  0  0  0  0
  9 28  1  0  0  0  0
 10 18  1  0  0  0  0
 10 11  1  0  0  0  0
 10 29  1  0  0  0  0
 11 12  1  0  0  0  0
 11 30  1  0  0  0  0
 11 31  1  0  0  0  0
 12 13  1  0  0  0  0
 12 32  1  0  0  0  0
 12 33  1  0  0  0  0
 13 18  1  0  0  0  0
 13 14  1  0  0  0  0
 13 44  1  0  0  0  0
 14 15  1  0  0  0  0
 14 34  1  0  0  0  0
 14 35  1  0  0  0  0
 15 16  1  0  0  0  0
 15 36  1  0  0  0  0
 15 37  1  0  0  0  0
 16 17  1  0  0  0  0
 16 38  1  0  0  0  0
 16 39  1  0  0  0  0
 17 18  1  0  0  0  0
 17 40  1  0  0  0  0
 17 41  1  0  0  0  0
 18 42  1  0  0  0  0
 19 20  2  0  0  0  0
 19 43  1  0  0  0  0
M  CHG  1  13   1
M  END
> <s_m_source_file>
AV-unprocessed.smi

> <i_m_source_file_index>
1758

> <i_lp_mmshare_version>
43012

> <i_f3d_flags>
0

> <s_epik_input>
W0NIM11bQ0gyXW4xW2NIXWMoW2NIXW4xKVtOSF1DKD1PKVtOSF1bQ0BIXShbQ0gyXVtDSDJdMilbQ0BASF0oTjIzKVtDSDJdW0NIMl1bQ0gyXVtDSDJdMw==

> <s_epik_cmdline>
J2VwaWtfcHl0aG9uJywgJy1waCcsICc3LjAnLCAnLXRuJywgJzgnLCAnLW1hJywgJzIwMCcsICctbWV0YWxfYmluZGluZycsICctaW1hZScsICc8aW5maWxlLm1hZT4nLCAnLW9tYWUnLCAnPG91dGZpbGUubWFlPic=

> <r_lp_tautomer_probability>
1

> <r_epik_Ionization_Penalty>
0.00111541

> <r_epik_Ionization_Penalty_Charging>
0.000974069

> <r_epik_Ionization_Penalty_Neutral>
0.000141346

> <r_epik_State_Penalty>
0.000633842

> <r_epik_Charging_Adjusted_Penalty>
0.00160791

> <i_epik_Tot_Q>
1

> <i_epik_Tot_abs_Q>
1

> <r_epik_Metal_State_Penalty>
-0

> <b_epik_Metal_Only>
0

> <s_lp_Force_Field>
OPLS_2005

> <r_lp_Energy>
38.7451

> <b_lp_Chiralities_Consistent>
1

> <s_lp_Variant>
AV-unprocessed.smi:1758-6

> <Gold.Version>
5.8.1

> <Gold.Id.Protein>
6NUR|6NUR_protein|mol2

> <Gold.PLP.Fitness>
45.2577

> <Gold.PLP.PLP>
-33.7897

> <Gold.PLP.part.hbond>
-3.0000

> <Gold.PLP.part.metal>
0.0000

> <Gold.PLP.part.buried>
-2.1656

> <Gold.PLP.part.nonpolar>
-30.2634

> <Gold.PLP.part.repulsive>
0.6850

> <Gold.PLP.ligand.clash>
0.0000

> <Gold.PLP.ligand.torsion>
0.1872

> <Gold.PLP.Chemscore.Hbond>
2.9440

> <Gold.PLP.Chemscore.CHOScore>
1.0000

> <Gold.PLP.Chemscore.Metal>
0.0000

> <Gold.Chemscore.Hbonds>
donor molecule, donor type, donor heavy atom, donor atom, acceptor molecule, acceptor atom, score
      L1  H     9    28       P1  7957  1.00
      L1  H    13    44       P1  8028  1.98
      L1  C     4    26       P1  7921  1.00

> <Gold.PLP.Chemscore.Internal.Correction>
0.0105

> <Gold.Rescore>
     Score         DG    S(hbond)    S(metal)    S(lipo)     H(rot)  DE(clash)    DE(int)     intcor
     14.34     -17.92       1.92        0.00      77.45       1.19       0.81       2.77       ----

> <Gold.Chemscore.Fitness>
14.3432

> <Gold.Chemscore.DG>
-17.9218

> <Gold.Chemscore.ZeroCoef>
-5.4800

> <Gold.Chemscore.Hbond>
1.9228

> <Gold.Chemscore.Metal>
0.0000

> <Gold.Chemscore.Lipo>
77.4536

> <Gold.Chemscore.Internal_Hbond>
0.0000

> <Gold.Chemscore.DEClash>
0.8113

> <Gold.Chemscore.DEInternal>
2.7674

> <Gold.Chemscore.Rot>
1.1884

> <Gold.Chemscore.Internal.Correction>
   9.000000E+99

> <Gold.Chemscore.Hbonds>
donor molecule, donor type, donor heavy atom, donor atom, acceptor molecule, acceptor atom, score
      L1  H     9    28       P1  7957  0.94
      L1  H    13    44       P1  8028  0.93

> <Gold.Chemscore.Hbond.Weighted>
-6.4221

> <Gold.Chemscore.Metal.Weighted>
-0.0000

> <Gold.Chemscore.Lipo.Weighted>
-9.0621

> <Gold.Chemscore.Internal_Hbond.Weighted>
0.0000

> <Gold.Chemscore.DEClash.Weighted>
0.8113

> <Gold.Chemscore.DEInternal.Weighted>
2.7674

> <Gold.Chemscore.Rot.Weighted>
3.0423

> <Gold.Chemscore.Internal.Correction.Weighted>
   9.000000E+99

> <Gold.Protein.RotatedTorsions>
[ 6907 6896 6895 6894 ] final -176.64 input  -60.11 | X-H torsion
[ 7974 7965 7964 7962 ] final -122.23 input  175.53 | X-H torsion
[ 8008 7997 7996 7995 ] final   93.67 input   59.86 | X-H torsion
[ 10167 10162 10161 10158 ] final  -58.56 input  -65.29 | X-H torsion
[ 10718 10713 10712 10709 ] final -156.76 input   66.30 | X-H torsion
[ 10763 10752 10751 10750 ] final  170.72 input  -60.55 | X-H torsion
[ 11005 11000 10999 10996 ] final -171.08 input  -57.11 | X-H torsion

> <Gold.Protein.ActiveResidues>
 VAL166  LYS551  ARG553  GLY616  TRP617  ASP618  TYR619  PRO620  LYS621  CYS622 
 ASP623  PHE694  ASN695  SER759  ASP760  ASP761  ALA762  ILE779  LEU786  VAL792 
 PHE793  MET794  SER795  GLU796  ALA797  LYS798  CYS799  TRP800  GLU811  SER814 

> <Gold.Protein.RotatedAtoms>
  151.6081  133.3350  159.3061 H   0  0  0  0  0  0  0  0  0  0  0  0  # atno 6907 bound_to 6896
  150.8171  134.7362  159.6751 H   0  0  0  0  0  0  0  0  0  0  0  0  # atno 6908 bound_to 6896
  152.4266  134.5861  160.0013 H   0  0  0  0  0  0  0  0  0  0  0  0  # atno 6909 bound_to 6896
  145.0317  140.8073  143.4319 H   0  0  0  0  0  0  0  0  0  0  0  0  # atno 7974 bound_to 7965
  156.0494  140.3310  155.7334 H   0  0  0  0  0  0  0  0  0  0  0  0  # atno 8008 bound_to 7997
  155.5624  140.0620  157.2843 H   0  0  0  0  0  0  0  0  0  0  0  0  # atno 8009 bound_to 7997
  154.4429  140.1875  156.0784 H   0  0  0  0  0  0  0  0  0  0  0  0  # atno 8010 bound_to 7997
  140.6189  143.2412  151.5528 H   0  0  0  0  0  0  0  0  0  0  0  0  # atno 10167 bound_to 10162
  156.5310  130.8521  151.2716 H   0  0  0  0  0  0  0  0  0  0  0  0  # atno 10718 bound_to 10713
  154.4016  135.2755  155.2093 H   0  0  0  0  0  0  0  0  0  0  0  0  # atno 10763 bound_to 10752
  154.4116  135.6021  153.5959 H   0  0  0  0  0  0  0  0  0  0  0  0  # atno 10764 bound_to 10752
  152.9831  135.5951  154.4285 H   0  0  0  0  0  0  0  0  0  0  0  0  # atno 10765 bound_to 10752
  140.5122  134.5790  157.5022 H   0  0  0  0  0  0  0  0  0  0  0  0  # atno 11005 bound_to 11000
  145.1762  139.2377  143.5316 LP  0  0  0  0  0  0  0  0  0  0  0  0  # atno 17320 bound_to 7965
  146.3499  140.1524  142.8592 LP  0  0  0  0  0  0  0  0  0  0  0  0  # atno 17321 bound_to 7965
  139.5422  144.2617  152.1373 LP  0  0  0  0  0  0  0  0  0  0  0  0  # atno 17342 bound_to 10162
  140.1832  144.4824  150.6517 LP  0  0  0  0  0  0  0  0  0  0  0  0  # atno 17343 bound_to 10162
  157.7422  130.9885  150.2497 LP  0  0  0  0  0  0  0  0  0  0  0  0  # atno 17370 bound_to 10713
  156.3060  130.3765  149.7706 LP  0  0  0  0  0  0  0  0  0  0  0  0  # atno 17371 bound_to 10713
  139.9652  134.7384  156.0153 LP  0  0  0  0  0  0  0  0  0  0  0  0  # atno 17394 bound_to 11000
  141.1379  133.6571  156.3646 LP  0  0  0  0  0  0  0  0  0  0  0  0  # atno 17395 bound_to 11000

$$$$
