AV-unprocessed.smi:38|AV-procd|sdf|340|dock2
  -GOLD-   2262016173D 1   1.00000     0.00000
 Structure written by MMmdl.
 28 29  0  0  0  0  0  0  0  0  1 V2000
  153.1030  138.6504  156.5156 O   0  0  0  0  0  0  0  0  0  0  0  0
  152.1566  139.2659  156.0286 C   0  0  0  0  0  0  0  0  0  0  0  0
  151.8998  140.5830  156.4186 N   0  0  0  0  0  0  0  0  0  0  0  0
  150.8578  141.3805  155.9432 C   0  0  0  0  0  0  0  0  0  0  0  0
  150.7384  142.5378  156.3432 O   0  0  0  0  0  0  0  0  0  0  0  0
  149.9755  140.8033  155.0024 N   0  0  0  0  0  0  0  0  0  0  0  0
  148.8454  141.6556  154.4602 C   0  0  2  0  0  0  0  0  0  0  0  0
  147.6260  141.6288  155.3941 C   0  0  0  0  0  0  0  0  0  0  0  0
  146.4847  141.5799  154.4024 C   0  0  2  0  0  0  0  0  0  0  0  0
  145.2933  141.0873  154.9821 O   0  0  0  0  0  0  0  0  0  0  0  0
  147.0585  140.7098  153.2777 C   0  0  2  0  0  0  0  0  0  0  0  0
  147.0274  139.1886  153.5470 C   0  0  0  0  0  0  0  0  0  0  0  0
  145.7118  138.7019  153.3905 O   0  0  0  0  0  0  0  0  0  0  0  0
  148.4166  141.1516  153.2239 O   0  0  0  0  0  0  0  0  0  0  0  0
  150.2108  139.5038  154.5647 C   0  0  0  0  0  0  0  0  0  0  0  0
  151.2289  138.7422  155.0307 C   0  0  0  0  0  0  0  0  0  0  0  0
  151.3905  137.4927  154.5630 F   0  0  0  0  0  0  0  0  0  0  0  0
  152.5236  140.9935  157.0980 H   0  0  0  0  0  0  0  0  0  0  0  0
  149.2703  142.6509  154.3169 H   0  0  0  0  0  0  0  0  0  0  0  0
  146.2989  142.5850  154.0209 H   0  0  0  0  0  0  0  0  0  0  0  0
  146.5486  140.9297  152.3388 H   0  0  0  0  0  0  0  0  0  0  0  0
  147.6475  140.7261  156.0075 H   0  0  0  0  0  0  0  0  0  0  0  0
  147.6019  142.5030  156.0452 H   0  0  0  0  0  0  0  0  0  0  0  0
  144.6126  141.0973  154.3264 H   0  0  0  0  0  0  0  0  0  0  0  0
  147.7125  138.6407  152.9007 H   0  0  0  0  0  0  0  0  0  0  0  0
  147.3191  138.9723  154.5745 H   0  0  0  0  0  0  0  0  0  0  0  0
  145.1500  139.4241  153.1548 H   0  0  0  0  0  0  0  0  0  0  0  0
  149.5714  139.0551  153.8196 H   0  0  0  0  0  0  0  0  0  0  0  0
  1  2  2  0  0  0  0
  2 16  1  0  0  0  0
  2  3  1  0  0  0  0
  3 18  1  0  0  0  0
  3  4  1  0  0  0  0
  4  5  2  0  0  0  0
  4  6  1  0  0  0  0
  6  7  1  0  0  0  0
  6 15  1  0  0  0  0
  7 19  1  0  0  0  0
  7 14  1  0  0  0  0
  7  8  1  0  0  0  0
  8  9  1  0  0  0  0
  8 22  1  0  0  0  0
  8 23  1  0  0  0  0
  9 20  1  0  0  0  0
  9 10  1  0  0  0  0
  9 11  1  0  0  0  0
 10 24  1  0  0  0  0
 11 21  1  0  0  0  0
 11 12  1  0  0  0  0
 11 14  1  0  0  0  0
 12 13  1  0  0  0  0
 12 25  1  0  0  0  0
 12 26  1  0  0  0  0
 13 27  1  0  0  0  0
 15 16  2  0  0  0  0
 15 28  1  0  0  0  0
 16 17  1  0  0  0  0
M  END
> <s_m_source_file>
AV-unprocessed.smi

> <i_m_source_file_index>
38

> <i_lp_mmshare_version>
43012

> <i_f3d_flags>
0

> <s_epik_input>
Tz1jMVtuSF1jKD1PKW4oW2NIXWMxRilbQ0BIXTJbQ0gyXVtDQEhdKFtPSF0pW0NASF0oTzIpW0NIMl1bT0hd

> <s_epik_cmdline>
J2VwaWtfcHl0aG9uJywgJy1waCcsICc3LjAnLCAnLXRuJywgJzgnLCAnLW1hJywgJzIwMCcsICctbWV0YWxfYmluZGluZycsICctaW1hZScsICc8aW5maWxlLm1hZT4nLCAnLW9tYWUnLCAnPG91dGZpbGUubWFlPic=

> <r_lp_tautomer_probability>
0.999537

> <r_epik_Ionization_Penalty>
0.0357432

> <r_epik_Ionization_Penalty_Charging>
0.0357431

> <r_epik_Ionization_Penalty_Neutral>
1.19946e-07

> <r_epik_State_Penalty>
0.0298169

> <r_epik_Charging_Adjusted_Penalty>
0.06556

> <i_epik_Tot_Q>
0

> <i_epik_Tot_abs_Q>
0

> <r_epik_Metal_State_Penalty>
2.348

> <b_epik_Metal_Only>
0

> <s_epik_Chemistry_Notes>
This compound contains an acetal/aminal-like group ( X-CH(R)-Y where X, Y are N, S, or O) that may be acid/base labile, releasing an aldehyde.

> <s_lp_Force_Field>
OPLS_2005

> <r_lp_Energy>
30.3129

> <b_lp_Chiralities_Consistent>
1

> <s_lp_Variant>
AV-unprocessed.smi:38-6

> <Gold.Version>
5.8.1

> <Gold.Id.Protein>
6NUR|6NUR_protein|mol2

> <Gold.PLP.Fitness>
43.1081

> <Gold.PLP.PLP>
-30.1407

> <Gold.PLP.part.hbond>
-4.0000

> <Gold.PLP.part.metal>
0.0000

> <Gold.PLP.part.buried>
0.1145

> <Gold.PLP.part.nonpolar>
-27.1067

> <Gold.PLP.part.repulsive>
2.2961

> <Gold.PLP.ligand.clash>
0.0000

> <Gold.PLP.ligand.torsion>
0.7045

> <Gold.PLP.Chemscore.Hbond>
3.7840

> <Gold.PLP.Chemscore.CHOScore>
1.0000

> <Gold.PLP.Chemscore.Metal>
0.0000

> <Gold.Chemscore.Hbonds>
donor molecule, donor type, donor heavy atom, donor atom, acceptor molecule, acceptor atom, score
      L1  H    10    24       P1 10175  0.73
      L1  H    13    27       P1 10175  1.00
      P1  H  7997  8008       L1     1  0.95
      P1  H  8011  8017       L1    14  0.33
      L1  C    15    28       P1  7957  0.20

> <Gold.PLP.Chemscore.Internal.Correction>
0.0245

> <Gold.Rescore>
     Score         DG    S(hbond)    S(metal)    S(lipo)     H(rot)  DE(clash)    DE(int)     intcor
     11.60     -12.49       3.05        0.00      36.70       2.91       0.69       0.20       ----

> <Gold.Chemscore.Fitness>
11.6003

> <Gold.Chemscore.DG>
-12.4904

> <Gold.Chemscore.ZeroCoef>
-5.4800

> <Gold.Chemscore.Hbond>
3.0470

> <Gold.Chemscore.Metal>
0.0000

> <Gold.Chemscore.Lipo>
36.6967

> <Gold.Chemscore.Internal_Hbond>
0.0000

> <Gold.Chemscore.DEClash>
0.6932

> <Gold.Chemscore.DEInternal>
0.1970

> <Gold.Chemscore.Rot>
2.9141

> <Gold.Chemscore.Internal.Correction>
   9.000000E+99

> <Gold.Chemscore.Hbonds>
donor molecule, donor type, donor heavy atom, donor atom, acceptor molecule, acceptor atom, score
      L1  H    10    24       P1 10175  0.61
      L1  H    13    27       P1 10175  0.99
      P1  H  7997  8008       L1     1  0.21
      P1  H  8011  8017       L1    14  0.01

> <Gold.Chemscore.Hbond.Weighted>
-10.1770

> <Gold.Chemscore.Metal.Weighted>
-0.0000

> <Gold.Chemscore.Lipo.Weighted>
-4.2935

> <Gold.Chemscore.Internal_Hbond.Weighted>
0.0000

> <Gold.Chemscore.DEClash.Weighted>
0.6932

> <Gold.Chemscore.DEInternal.Weighted>
0.1970

> <Gold.Chemscore.Rot.Weighted>
7.4601

> <Gold.Chemscore.Internal.Correction.Weighted>
   9.000000E+99

> <Gold.Protein.RotatedTorsions>
[ 6907 6896 6895 6894 ] final  122.40 input  -60.11 | X-H torsion
[ 7974 7965 7964 7962 ] final  129.36 input  175.53 | X-H torsion
[ 8008 7997 7996 7995 ] final  -58.34 input   59.86 | X-H torsion
[ 10167 10162 10161 10158 ] final   77.71 input  -65.29 | X-H torsion
[ 10718 10713 10712 10709 ] final  -23.55 input   66.30 | X-H torsion
[ 10763 10752 10751 10750 ] final -121.58 input  -60.55 | X-H torsion
[ 11005 11000 10999 10996 ] final   50.48 input  -57.11 | X-H torsion

> <Gold.Protein.ActiveResidues>
 VAL166  LYS551  ARG553  GLY616  TRP617  ASP618  TYR619  PRO620  LYS621  CYS622 
 ASP623  PHE694  ASN695  SER759  ASP760  ASP761  ALA762  ILE779  LEU786  VAL792 
 PHE793  MET794  SER795  GLU796  ALA797  LYS798  CYS799  TRP800  GLU811  SER814 

> <Gold.Protein.RotatedAtoms>
  152.4246  133.7173  159.6513 H   0  0  0  0  0  0  0  0  0  0  0  0  # atno 6907 bound_to 6896
  150.8122  133.8390  159.3183 H   0  0  0  0  0  0  0  0  0  0  0  0  # atno 6908 bound_to 6896
  151.6097  135.1043  160.0130 H   0  0  0  0  0  0  0  0  0  0  0  0  # atno 6909 bound_to 6896
  145.0295  139.4058  143.5157 H   0  0  0  0  0  0  0  0  0  0  0  0  # atno 7974 bound_to 7965
  154.4305  140.1086  156.5941 H   0  0  0  0  0  0  0  0  0  0  0  0  # atno 8008 bound_to 7997
  155.5980  140.3493  155.4567 H   0  0  0  0  0  0  0  0  0  0  0  0  # atno 8009 bound_to 7997
  156.0195  140.1236  157.0361 H   0  0  0  0  0  0  0  0  0  0  0  0  # atno 8010 bound_to 7997
  139.9787  144.5842  150.7920 H   0  0  0  0  0  0  0  0  0  0  0  0  # atno 10167 bound_to 10162
  156.4896  130.4563  149.6763 H   0  0  0  0  0  0  0  0  0  0  0  0  # atno 10718 bound_to 10713
  154.8671  135.4163  154.2644 H   0  0  0  0  0  0  0  0  0  0  0  0  # atno 10763 bound_to 10752
  153.3566  135.7001  153.6751 H   0  0  0  0  0  0  0  0  0  0  0  0  # atno 10764 bound_to 10752
  153.5670  135.3599  155.2795 H   0  0  0  0  0  0  0  0  0  0  0  0  # atno 10765 bound_to 10752
  140.1014  134.5076  155.8759 H   0  0  0  0  0  0  0  0  0  0  0  0  # atno 11005 bound_to 11000
  146.3497  139.9838  142.8693 LP  0  0  0  0  0  0  0  0  0  0  0  0  # atno 17320 bound_to 7965
  145.1789  140.9757  143.4278 LP  0  0  0  0  0  0  0  0  0  0  0  0  # atno 17321 bound_to 7965
  140.7497  143.2942  151.3248 LP  0  0  0  0  0  0  0  0  0  0  0  0  # atno 17342 bound_to 10162
  139.6426  144.0511  152.2566 LP  0  0  0  0  0  0  0  0  0  0  0  0  # atno 17343 bound_to 10162
  156.3440  130.7397  151.2346 LP  0  0  0  0  0  0  0  0  0  0  0  0  # atno 17370 bound_to 10713
  157.7475  131.0396  150.4556 LP  0  0  0  0  0  0  0  0  0  0  0  0  # atno 17371 bound_to 10713
  141.2106  133.6697  156.6526 LP  0  0  0  0  0  0  0  0  0  0  0  0  # atno 17394 bound_to 11000
  140.3215  134.8004  157.4256 LP  0  0  0  0  0  0  0  0  0  0  0  0  # atno 17395 bound_to 11000

$$$$
