AV-unprocessed.smi:2279|AV-procd|sdf|9183|dock1
  -GOLD-   2272012403D 1   1.00000     0.00000
 Structure written by MMmdl.
 58 60  0  0  0  0  0  0  0  0  3 V2000
  153.5557  140.6863  159.3154 C   0  0  0  0  0  0  0  0  0  0  0  0
  152.5922  141.7626  158.8614 C   0  0  0  0  0  0  0  0  0  0  0  0
  152.5832  143.0311  159.4725 C   0  0  0  0  0  0  0  0  0  0  0  0
  151.6621  143.9883  159.0037 C   0  0  0  0  0  0  0  0  0  0  0  0
  151.5976  145.3721  159.6145 C   0  0  0  0  0  0  0  0  0  0  0  0
  150.7928  143.7442  157.9999 N   0  0  0  0  0  0  0  0  0  0  0  0
  150.7925  142.5260  157.4039 C   0  0  0  0  0  0  0  0  0  0  0  0
  149.9199  142.1693  156.3418 N   0  0  0  0  0  0  0  0  0  0  0  0
  149.5343  140.9384  155.9615 C   0  0  0  0  0  0  0  0  0  0  0  0
  149.8890  139.8857  156.4926 O   0  0  0  0  0  0  0  0  0  0  0  0
  148.6998  140.9956  154.9127 N   0  0  0  0  0  0  0  0  0  0  0  0
  148.0904  139.8480  154.2455 C   0  0  2  0  0  0  0  0  0  0  0  0
  147.4840  140.2756  152.9057 C   0  0  0  0  0  0  0  0  0  0  0  0
  146.7634  139.1029  152.2202 C   0  0  0  0  0  0  0  0  0  0  0  0
  145.7010  138.5016  153.0823 N   0  3  1  0  0  0  0  0  0  0  0  0
  144.9277  137.4055  152.4017 C   0  0  2  0  0  0  0  0  0  0  0  0
  143.9951  136.6398  153.3778 C   0  0  0  0  0  0  0  0  0  0  0  0
  143.2596  135.4681  152.7048 C   0  0  0  0  0  0  0  0  0  0  0  0
  144.2136  134.5201  152.0869 N   0  3  1  0  0  0  0  0  0  0  0  0
  143.5434  133.3207  151.5389 C   0  0  0  0  0  0  0  0  0  0  0  0
  145.0683  135.1971  151.0860 C   0  0  0  0  0  0  0  0  0  0  0  0
  145.8503  136.3618  151.7174 C   0  0  0  0  0  0  0  0  0  0  0  0
  146.2674  138.0961  154.4047 C   0  0  0  0  0  0  0  0  0  0  0  0
  146.9813  139.2553  155.1195 C   0  0  0  0  0  0  0  0  0  0  0  0
  151.6841  141.5094  157.8138 C   0  0  0  0  0  0  0  0  0  0  0  0
  154.1888  141.0372  160.1308 H   0  0  0  0  0  0  0  0  0  0  0  0
  154.2001  140.3839  158.4893 H   0  0  0  0  0  0  0  0  0  0  0  0
  153.0070  139.8105  159.6621 H   0  0  0  0  0  0  0  0  0  0  0  0
  153.2634  143.2645  160.2787 H   0  0  0  0  0  0  0  0  0  0  0  0
  152.3293  145.4860  160.4148 H   0  0  0  0  0  0  0  0  0  0  0  0
  150.6068  145.5569  160.0307 H   0  0  0  0  0  0  0  0  0  0  0  0
  151.7999  146.1305  158.8579 H   0  0  0  0  0  0  0  0  0  0  0  0
  149.5467  142.9420  155.8108 H   0  0  0  0  0  0  0  0  0  0  0  0
  148.4680  141.9077  154.5471 H   0  0  0  0  0  0  0  0  0  0  0  0
  148.8346  139.0719  154.0568 H   0  0  0  0  0  0  0  0  0  0  0  0
  146.7801  141.0954  153.0579 H   0  0  0  0  0  0  0  0  0  0  0  0
  148.2665  140.6587  152.2491 H   0  0  0  0  0  0  0  0  0  0  0  0
  146.3442  139.5017  151.2994 H   0  0  0  0  0  0  0  0  0  0  0  0
  147.4834  138.3328  151.9386 H   0  0  0  0  0  0  0  0  0  0  0  0
  144.3079  137.8684  151.6316 H   0  0  0  0  0  0  0  0  0  0  0  0
  144.5721  136.2682  154.2260 H   0  0  0  0  0  0  0  0  0  0  0  0
  143.2243  137.2930  153.7832 H   0  0  0  0  0  0  0  0  0  0  0  0
  142.6559  134.9446  153.4473 H   0  0  0  0  0  0  0  0  0  0  0  0
  142.5714  135.8428  151.9450 H   0  0  0  0  0  0  0  0  0  0  0  0
  142.8603  133.5869  150.7310 H   0  0  0  0  0  0  0  0  0  0  0  0
  142.9726  132.8097  152.3150 H   0  0  0  0  0  0  0  0  0  0  0  0
  144.2765  132.6143  151.1480 H   0  0  0  0  0  0  0  0  0  0  0  0
  145.7696  134.4780  150.6606 H   0  0  0  0  0  0  0  0  0  0  0  0
  144.4507  135.5612  150.2630 H   0  0  0  0  0  0  0  0  0  0  0  0
  146.4303  136.8126  150.9139 H   0  0  0  0  0  0  0  0  0  0  0  0
  146.5661  135.9694  152.4414 H   0  0  0  0  0  0  0  0  0  0  0  0
  145.4856  137.7588  155.0811 H   0  0  0  0  0  0  0  0  0  0  0  0
  146.9550  137.2601  154.2658 H   0  0  0  0  0  0  0  0  0  0  0  0
  147.4006  138.9013  156.0624 H   0  0  0  0  0  0  0  0  0  0  0  0
  146.2538  140.0271  155.3759 H   0  0  0  0  0  0  0  0  0  0  0  0
  151.6748  140.5424  157.3315 H   0  0  0  0  0  0  0  0  0  0  0  0
  145.0412  139.2421  153.2738 H   0  0  0  0  0  0  0  0  0  0  0  0
  144.8238  134.1940  152.8233 H   0  0  0  0  0  0  0  0  0  0  0  0
  1  2  1  0  0  0  0
  1 26  1  0  0  0  0
  1 27  1  0  0  0  0
  1 28  1  0  0  0  0
  2 25  1  0  0  0  0
  2  3  2  0  0  0  0
  3  4  1  0  0  0  0
  3 29  1  0  0  0  0
  4  5  1  0  0  0  0
  4  6  2  0  0  0  0
  5 30  1  0  0  0  0
  5 31  1  0  0  0  0
  5 32  1  0  0  0  0
  6  7  1  0  0  0  0
  7  8  1  0  0  0  0
  7 25  2  0  0  0  0
  8  9  1  0  0  0  0
  8 33  1  0  0  0  0
  9 10  2  0  0  0  0
  9 11  1  0  0  0  0
 11 12  1  0  0  0  0
 11 34  1  0  0  0  0
 12 24  1  0  0  0  0
 12 13  1  0  0  0  0
 12 35  1  0  0  0  0
 13 14  1  0  0  0  0
 13 36  1  0  0  0  0
 13 37  1  0  0  0  0
 14 15  1  0  0  0  0
 14 38  1  0  0  0  0
 14 39  1  0  0  0  0
 15 16  1  0  0  0  0
 15 23  1  0  0  0  0
 15 57  1  0  0  0  0
 16 22  1  0  0  0  0
 16 17  1  0  0  0  0
 16 40  1  0  0  0  0
 17 18  1  0  0  0  0
 17 41  1  0  0  0  0
 17 42  1  0  0  0  0
 18 19  1  0  0  0  0
 18 43  1  0  0  0  0
 18 44  1  0  0  0  0
 19 20  1  0  0  0  0
 19 21  1  0  0  0  0
 19 58  1  0  0  0  0
 20 45  1  0  0  0  0
 20 46  1  0  0  0  0
 20 47  1  0  0  0  0
 21 22  1  0  0  0  0
 21 48  1  0  0  0  0
 21 49  1  0  0  0  0
 22 50  1  0  0  0  0
 22 51  1  0  0  0  0
 23 24  1  0  0  0  0
 23 52  1  0  0  0  0
 23 53  1  0  0  0  0
 24 54  1  0  0  0  0
 24 55  1  0  0  0  0
 25 56  1  0  0  0  0
M  CHG  1  15   1
M  CHG  1  19   1
M  END
> <s_m_source_file>
AV-unprocessed.smi

> <i_m_source_file_index>
2279

> <i_lp_mmshare_version>
43012

> <i_f3d_flags>
0

> <s_epik_input>
W0NIM11jMVtjSF1jKFtDSDNdKW5jKFtjSF0xKVtOSF1DKD1PKVtOSF1bQ0hdMltDSDJdW0NIMl1OKFtDSDJdW0NIMl0yKVtDSF0zW0NIMl1bQ0gyXU4oW0NIM10pW0NIMl1bQ0gyXTM=

> <s_epik_cmdline>
J2VwaWtfcHl0aG9uJywgJy1waCcsICc3LjAnLCAnLXRuJywgJzgnLCAnLW1hJywgJzIwMCcsICctbWV0YWxfYmluZGluZycsICctaW1hZScsICc8aW5maWxlLm1hZT4nLCAnLW9tYWUnLCAnPG91dGZpbGUubWFlPic=

> <r_epik_Ionization_Penalty>
0.180973

> <r_epik_Ionization_Penalty_Charging>
0.180787

> <r_epik_Ionization_Penalty_Neutral>
0.000186186

> <r_epik_State_Penalty>
0.153592

> <r_epik_Charging_Adjusted_Penalty>
0.334379

> <i_epik_Tot_Q>
2

> <i_epik_Tot_abs_Q>
2

> <r_epik_Metal_State_Penalty>
0.153604

> <b_epik_Metal_Only>
0

> <s_lp_Force_Field>
OPLS_2005

> <r_lp_Energy>
41.0771

> <b_lp_Chiralities_Consistent>
1

> <s_lp_Variant>
AV-unprocessed.smi:2279-1

> <Gold.Version>
5.8.1

> <Gold.Id.Protein>
6NUR|6NUR_protein|mol2

> <Gold.PLP.Fitness>
50.1945

> <Gold.PLP.PLP>
-42.3469

> <Gold.PLP.part.hbond>
-2.0000

> <Gold.PLP.part.metal>
0.0000

> <Gold.PLP.part.buried>
-1.1305

> <Gold.PLP.part.nonpolar>
-40.0858

> <Gold.PLP.part.repulsive>
0.3998

> <Gold.PLP.ligand.clash>
0.0000

> <Gold.PLP.ligand.torsion>
0.4787

> <Gold.PLP.Chemscore.Hbond>
2.9200

> <Gold.PLP.Chemscore.CHOScore>
0.0000

> <Gold.PLP.Chemscore.Metal>
0.0000

> <Gold.Chemscore.Hbonds>
donor molecule, donor type, donor heavy atom, donor atom, acceptor molecule, acceptor atom, score
      L1  H     8    33       P1  8028  1.00
      L1  H    15    57       P1 10175  1.79

> <Gold.PLP.Chemscore.Internal.Correction>
0.0450

> <Gold.Rescore>
     Score         DG    S(hbond)    S(metal)    S(lipo)     H(rot)  DE(clash)    DE(int)     intcor
     18.57     -22.64       1.82        0.00     121.23       1.21       1.98       2.10       ----

> <Gold.Chemscore.Fitness>
18.5663

> <Gold.Chemscore.DG>
-22.6448

> <Gold.Chemscore.ZeroCoef>
-5.4800

> <Gold.Chemscore.Hbond>
1.8197

> <Gold.Chemscore.Metal>
0.0000

> <Gold.Chemscore.Lipo>
121.2255

> <Gold.Chemscore.Internal_Hbond>
0.0000

> <Gold.Chemscore.DEClash>
1.9754

> <Gold.Chemscore.DEInternal>
2.1031

> <Gold.Chemscore.Rot>
1.2095

> <Gold.Chemscore.Internal.Correction>
   9.000000E+99

> <Gold.Chemscore.Hbonds>
donor molecule, donor type, donor heavy atom, donor atom, acceptor molecule, acceptor atom, score
      L1  H     8    33       P1  8028  0.97
      L1  H    15    57       P1 10175  0.85

> <Gold.Chemscore.Hbond.Weighted>
-6.0777

> <Gold.Chemscore.Metal.Weighted>
-0.0000

> <Gold.Chemscore.Lipo.Weighted>
-14.1834

> <Gold.Chemscore.Internal_Hbond.Weighted>
0.0000

> <Gold.Chemscore.DEClash.Weighted>
1.9754

> <Gold.Chemscore.DEInternal.Weighted>
2.1031

> <Gold.Chemscore.Rot.Weighted>
3.0963

> <Gold.Chemscore.Internal.Correction.Weighted>
   9.000000E+99

> <Gold.Protein.RotatedTorsions>
[ 6907 6896 6895 6894 ] final  170.11 input  -60.11 | X-H torsion
[ 7974 7965 7964 7962 ] final   49.90 input  175.53 | X-H torsion
[ 8008 7997 7996 7995 ] final  -55.25 input   59.86 | X-H torsion
[ 10167 10162 10161 10158 ] final   56.46 input  -65.29 | X-H torsion
[ 10718 10713 10712 10709 ] final   15.24 input   66.30 | X-H torsion
[ 10763 10752 10751 10750 ] final  173.55 input  -60.55 | X-H torsion
[ 11005 11000 10999 10996 ] final   15.43 input  -57.11 | X-H torsion

> <Gold.Protein.ActiveResidues>
 VAL166  LYS551  ARG553  GLY616  TRP617  ASP618  TYR619  PRO620  LYS621  CYS622 
 ASP623  PHE694  ASN695  SER759  ASP760  ASP761  ALA762  ILE779  LEU786  VAL792 
 PHE793  MET794  SER795  GLU796  ALA797  LYS798  CYS799  TRP800  GLU811  SER814 

> <Gold.Protein.RotatedAtoms>
  151.8213  133.3395  159.3584 H   0  0  0  0  0  0  0  0  0  0  0  0  # atno 6907 bound_to 6896
  150.7293  134.5570  159.5833 H   0  0  0  0  0  0  0  0  0  0  0  0  # atno 6908 bound_to 6896
  152.3003  134.7619  160.0410 H   0  0  0  0  0  0  0  0  0  0  0  0  # atno 6909 bound_to 6896
  146.0064  139.4495  142.9983 H   0  0  0  0  0  0  0  0  0  0  0  0  # atno 7974 bound_to 7965
  154.4189  140.1157  156.5447 H   0  0  0  0  0  0  0  0  0  0  0  0  # atno 8008 bound_to 7997
  155.6472  140.3496  155.4716 H   0  0  0  0  0  0  0  0  0  0  0  0  # atno 8009 bound_to 7997
  155.9822  140.1162  157.0705 H   0  0  0  0  0  0  0  0  0  0  0  0  # atno 8010 bound_to 7997
  140.2085  144.3914  150.6499 H   0  0  0  0  0  0  0  0  0  0  0  0  # atno 10167 bound_to 10162
  157.0507  130.6269  149.5767 H   0  0  0  0  0  0  0  0  0  0  0  0  # atno 10718 bound_to 10713
  154.4416  135.2762  155.1844 H   0  0  0  0  0  0  0  0  0  0  0  0  # atno 10763 bound_to 10752
  154.3708  135.6109  153.5742 H   0  0  0  0  0  0  0  0  0  0  0  0  # atno 10764 bound_to 10752
  152.9841  135.5857  154.4744 H   0  0  0  0  0  0  0  0  0  0  0  0  # atno 10765 bound_to 10752
  140.4583  134.1153  155.7712 H   0  0  0  0  0  0  0  0  0  0  0  0  # atno 11005 bound_to 11000
  145.7409  141.0008  143.1301 LP  0  0  0  0  0  0  0  0  0  0  0  0  # atno 17320 bound_to 7965
  144.6937  139.9097  143.7463 LP  0  0  0  0  0  0  0  0  0  0  0  0  # atno 17321 bound_to 7965
  140.6340  143.2192  151.6434 LP  0  0  0  0  0  0  0  0  0  0  0  0  # atno 17342 bound_to 10162
  139.5189  144.3269  152.0861 LP  0  0  0  0  0  0  0  0  0  0  0  0  # atno 17343 bound_to 10162
  156.0008  130.5087  150.7657 LP  0  0  0  0  0  0  0  0  0  0  0  0  # atno 17370 bound_to 10713
  157.5032  131.0920  151.0288 LP  0  0  0  0  0  0  0  0  0  0  0  0  # atno 17371 bound_to 10713
  141.1633  133.8752  157.1788 LP  0  0  0  0  0  0  0  0  0  0  0  0  # atno 17394 bound_to 11000
  139.9961  135.0046  157.0086 LP  0  0  0  0  0  0  0  0  0  0  0  0  # atno 17395 bound_to 11000

$$$$
