AV-unprocessed.smi:3265|AV-procd|sdf|12499|dock10
  -GOLD-   2272018403D 1   1.00000     0.00000
 Structure written by MMmdl.
 41 42  0  0  0  0  0  0  0  0  2 V2000
  145.2514  139.9557  157.1215 C   0  0  0  0  0  0  0  0  0  0  0  0
  145.5835  140.5233  155.7340 C   0  0  1  0  0  0  0  0  0  0  0  0
  146.6371  141.6402  155.8207 C   0  0  0  0  0  0  0  0  0  0  0  0
  146.9672  142.1690  154.4196 C   0  0  0  0  0  0  0  0  0  0  0  0
  147.4046  141.0261  153.4899 C   0  0  0  0  0  0  0  0  0  0  0  0
  146.3681  139.9634  153.4212 N   0  3  1  0  0  0  0  0  0  0  0  0
  146.7089  138.9140  152.4276 C   0  0  0  0  0  0  0  0  0  0  0  0
  145.7041  137.7458  152.4372 C   0  0  0  0  0  0  0  0  0  0  0  0
  146.2891  136.5319  151.8813 N   0  0  0  0  0  0  0  0  0  0  0  0
  145.5930  135.4712  151.4430 C   0  0  0  0  0  0  0  0  0  0  0  0
  144.3633  135.4209  151.4465 O   0  0  0  0  0  0  0  0  0  0  0  0
  146.4070  134.2888  150.9152 C   0  0  0  0  0  0  0  0  0  0  0  0
  145.5413  133.2058  150.4836 N   0  0  0  0  0  0  0  0  0  0  0  0
  144.6331  133.1968  149.4451 C   0  0  0  0  0  0  0  0  0  0  0  0
  144.0486  131.9630  149.4271 C   0  0  0  0  0  0  0  0  0  0  0  0
  144.6731  131.2769  150.5061 C   0  0  0  0  0  0  0  0  0  0  0  0
  145.5651  132.0234  151.1374 N   0  0  0  0  0  0  0  0  0  0  0  0
  146.0563  139.4166  154.7697 C   0  0  0  0  0  0  0  0  0  0  0  0
  146.1276  139.5018  157.5859 H   0  0  0  0  0  0  0  0  0  0  0  0
  144.4754  139.1923  157.0591 H   0  0  0  0  0  0  0  0  0  0  0  0
  144.8893  140.7383  157.7890 H   0  0  0  0  0  0  0  0  0  0  0  0
  144.6668  140.9543  155.3284 H   0  0  0  0  0  0  0  0  0  0  0  0
  146.2755  142.4551  156.4488 H   0  0  0  0  0  0  0  0  0  0  0  0
  147.5448  141.2615  156.2930 H   0  0  0  0  0  0  0  0  0  0  0  0
  146.0936  142.6701  154.0004 H   0  0  0  0  0  0  0  0  0  0  0  0
  147.7546  142.9208  154.4817 H   0  0  0  0  0  0  0  0  0  0  0  0
  147.5882  141.4297  152.4935 H   0  0  0  0  0  0  0  0  0  0  0  0
  148.3458  140.5963  153.8370 H   0  0  0  0  0  0  0  0  0  0  0  0
  146.7068  139.3579  151.4313 H   0  0  0  0  0  0  0  0  0  0  0  0
  147.7247  138.5551  152.6006 H   0  0  0  0  0  0  0  0  0  0  0  0
  145.3866  137.5126  153.4527 H   0  0  0  0  0  0  0  0  0  0  0  0
  144.8023  138.0118  151.8831 H   0  0  0  0  0  0  0  0  0  0  0  0
  147.2977  136.4829  151.8442 H   0  0  0  0  0  0  0  0  0  0  0  0
  147.0200  134.6047  150.0701 H   0  0  0  0  0  0  0  0  0  0  0  0
  147.0876  133.9280  151.6881 H   0  0  0  0  0  0  0  0  0  0  0  0
  144.4796  134.0601  148.8142 H   0  0  0  0  0  0  0  0  0  0  0  0
  143.2902  131.6046  148.7469 H   0  0  0  0  0  0  0  0  0  0  0  0
  144.5053  130.2661  150.8471 H   0  0  0  0  0  0  0  0  0  0  0  0
  146.9400  138.9181  155.1718 H   0  0  0  0  0  0  0  0  0  0  0  0
  145.2764  138.6599  154.6949 H   0  0  0  0  0  0  0  0  0  0  0  0
  145.5291  140.4135  153.0836 H   0  0  0  0  0  0  0  0  0  0  0  0
  1  2  1  0  0  0  0
  1 19  1  0  0  0  0
  1 20  1  0  0  0  0
  1 21  1  0  0  0  0
  2 18  1  0  0  0  0
  2  3  1  0  0  0  0
  2 22  1  0  0  0  0
  3  4  1  0  0  0  0
  3 23  1  0  0  0  0
  3 24  1  0  0  0  0
  4  5  1  0  0  0  0
  4 25  1  0  0  0  0
  4 26  1  0  0  0  0
  5  6  1  0  0  0  0
  5 27  1  0  0  0  0
  5 28  1  0  0  0  0
  6  7  1  0  0  0  0
  6 18  1  0  0  0  0
  6 41  1  0  0  0  0
  7  8  1  0  0  0  0
  7 29  1  0  0  0  0
  7 30  1  0  0  0  0
  8  9  1  0  0  0  0
  8 31  1  0  0  0  0
  8 32  1  0  0  0  0
  9 10  1  0  0  0  0
  9 33  1  0  0  0  0
 10 11  2  0  0  0  0
 10 12  1  0  0  0  0
 12 13  1  0  0  0  0
 12 34  1  0  0  0  0
 12 35  1  0  0  0  0
 13 17  1  0  0  0  0
 13 14  1  0  0  0  0
 14 15  2  0  0  0  0
 14 36  1  0  0  0  0
 15 16  1  0  0  0  0
 15 37  1  0  0  0  0
 16 17  2  0  0  0  0
 16 38  1  0  0  0  0
 18 39  1  0  0  0  0
 18 40  1  0  0  0  0
M  CHG  1   6   1
M  END
> <s_m_source_file>
AV-unprocessed.smi

> <i_m_source_file_index>
3265

> <i_lp_mmshare_version>
43012

> <i_f3d_flags>
0

> <s_epik_input>
W0NIM11bQ0BASF0xW0NIMl1bQ0gyXVtDSDJdTihbQ0gyXTEpW0NIMl1bQ0gyXVtOSF1DKD1PKVtDSDJdbjJbY0hdW2NIXVtjSF1uMg==

> <s_epik_cmdline>
J2VwaWtfcHl0aG9uJywgJy1waCcsICc3LjAnLCAnLXRuJywgJzgnLCAnLW1hJywgJzIwMCcsICctbWV0YWxfYmluZGluZycsICctaW1hZScsICc8aW5maWxlLm1hZT4nLCAnLW9tYWUnLCAnPG91dGZpbGUubWFlPic=

> <r_lp_tautomer_probability>
1

> <r_epik_Ionization_Penalty>
0.00231455

> <r_epik_Ionization_Penalty_Charging>
0.00230623

> <r_epik_Ionization_Penalty_Neutral>
8.31727e-06

> <r_epik_State_Penalty>
0.00159065

> <r_epik_Charging_Adjusted_Penalty>
0.00389688

> <i_epik_Tot_Q>
1

> <i_epik_Tot_abs_Q>
1

> <r_epik_Metal_State_Penalty>
-0

> <b_epik_Metal_Only>
0

> <s_lp_Force_Field>
OPLS_2005

> <r_lp_Energy>
15.6905

> <b_lp_Chiralities_Consistent>
1

> <s_lp_Variant>
AV-unprocessed.smi:3265-4

> <Gold.Version>
5.8.1

> <Gold.Id.Protein>
6NUR|6NUR_protein|mol2

> <Gold.PLP.Fitness>
42.6421

> <Gold.PLP.PLP>
-31.3680

> <Gold.PLP.part.hbond>
-2.0000

> <Gold.PLP.part.metal>
0.0000

> <Gold.PLP.part.buried>
-2.7364

> <Gold.PLP.part.nonpolar>
-25.8851

> <Gold.PLP.part.repulsive>
0.3247

> <Gold.PLP.ligand.clash>
0.0000

> <Gold.PLP.ligand.torsion>
0.3040

> <Gold.PLP.Chemscore.Hbond>
3.0000

> <Gold.PLP.Chemscore.CHOScore>
0.9530

> <Gold.PLP.Chemscore.Metal>
0.0000

> <Gold.Chemscore.Hbonds>
donor molecule, donor type, donor heavy atom, donor atom, acceptor molecule, acceptor atom, score
      L1  H     6    41       P1 10175  2.00
      L1  H     9    33       P1  7948  1.00
      L1  C    14    36       P1  7921  0.79

> <Gold.PLP.Chemscore.Internal.Correction>
0.0229

> <Gold.Rescore>
     Score         DG    S(hbond)    S(metal)    S(lipo)     H(rot)  DE(clash)    DE(int)     intcor
     15.35     -15.75       1.95        0.00      72.25       1.84       0.07       0.33       ----

> <Gold.Chemscore.Fitness>
15.3522

> <Gold.Chemscore.DG>
-15.7529

> <Gold.Chemscore.ZeroCoef>
-5.4800

> <Gold.Chemscore.Hbond>
1.9540

> <Gold.Chemscore.Metal>
0.0000

> <Gold.Chemscore.Lipo>
72.2516

> <Gold.Chemscore.Internal_Hbond>
0.0000

> <Gold.Chemscore.DEClash>
0.0688

> <Gold.Chemscore.DEInternal>
0.3319

> <Gold.Chemscore.Rot>
1.8386

> <Gold.Chemscore.Internal.Correction>
   9.000000E+99

> <Gold.Chemscore.Hbonds>
donor molecule, donor type, donor heavy atom, donor atom, acceptor molecule, acceptor atom, score
      L1  H     6    41       P1 10175  0.91
      L1  H     9    33       P1  7948  1.00

> <Gold.Chemscore.Hbond.Weighted>
-6.5263

> <Gold.Chemscore.Metal.Weighted>
-0.0000

> <Gold.Chemscore.Lipo.Weighted>
-8.4534

> <Gold.Chemscore.Internal_Hbond.Weighted>
0.0000

> <Gold.Chemscore.DEClash.Weighted>
0.0688

> <Gold.Chemscore.DEInternal.Weighted>
0.3319

> <Gold.Chemscore.Rot.Weighted>
4.7069

> <Gold.Chemscore.Internal.Correction.Weighted>
   9.000000E+99

> <Gold.Protein.RotatedTorsions>
[ 6907 6896 6895 6894 ] final  -11.14 input  -60.11 | X-H torsion
[ 7974 7965 7964 7962 ] final -165.46 input  175.53 | X-H torsion
[ 8008 7997 7996 7995 ] final -159.20 input   59.86 | X-H torsion
[ 10167 10162 10161 10158 ] final  -59.78 input  -65.29 | X-H torsion
[ 10718 10713 10712 10709 ] final   64.42 input   66.30 | X-H torsion
[ 10763 10752 10751 10750 ] final   60.76 input  -60.55 | X-H torsion
[ 11005 11000 10999 10996 ] final -179.08 input  -57.11 | X-H torsion

> <Gold.Protein.ActiveResidues>
 VAL166  LYS551  ARG553  GLY616  TRP617  ASP618  TYR619  PRO620  LYS621  CYS622 
 ASP623  PHE694  ASN695  SER759  ASP760  ASP761  ALA762  ILE779  LEU786  VAL792 
 PHE793  MET794  SER795  GLU796  ALA797  LYS798  CYS799  TRP800  GLU811  SER814 

> <Gold.Protein.RotatedAtoms>
  151.3910  135.0956  159.9525 H   0  0  0  0  0  0  0  0  0  0  0  0  # atno 6907 bound_to 6896
  152.5080  133.8980  159.7437 H   0  0  0  0  0  0  0  0  0  0  0  0  # atno 6908 bound_to 6896
  150.9433  133.6575  159.2815 H   0  0  0  0  0  0  0  0  0  0  0  0  # atno 6909 bound_to 6896
  144.7269  140.2811  143.6235 H   0  0  0  0  0  0  0  0  0  0  0  0  # atno 7974 bound_to 7965
  155.7590  140.0836  157.2164 H   0  0  0  0  0  0  0  0  0  0  0  0  # atno 8008 bound_to 7997
  154.4005  140.1546  156.2867 H   0  0  0  0  0  0  0  0  0  0  0  0  # atno 8009 bound_to 7997
  155.8858  140.3418  155.5923 H   0  0  0  0  0  0  0  0  0  0  0  0  # atno 8010 bound_to 7997
  140.6113  143.2388  151.5703 H   0  0  0  0  0  0  0  0  0  0  0  0  # atno 10167 bound_to 10162
  157.6038  130.9159  149.9843 H   0  0  0  0  0  0  0  0  0  0  0  0  # atno 10718 bound_to 10713
  152.9930  135.5525  154.5925 H   0  0  0  0  0  0  0  0  0  0  0  0  # atno 10763 bound_to 10752
  154.5283  135.2812  155.1204 H   0  0  0  0  0  0  0  0  0  0  0  0  # atno 10764 bound_to 10752
  154.2530  135.6395  153.5299 H   0  0  0  0  0  0  0  0  0  0  0  0  # atno 10765 bound_to 10752
  140.4226  134.6591  157.4672 H   0  0  0  0  0  0  0  0  0  0  0  0  # atno 11005 bound_to 11000
  145.7948  139.1941  143.2082 LP  0  0  0  0  0  0  0  0  0  0  0  0  # atno 17320 bound_to 7965
  146.0725  140.7853  142.9681 LP  0  0  0  0  0  0  0  0  0  0  0  0  # atno 17321 bound_to 7965
  139.5363  144.2771  152.1259 LP  0  0  0  0  0  0  0  0  0  0  0  0  # atno 17342 bound_to 10162
  140.1971  144.4695  150.6450 LP  0  0  0  0  0  0  0  0  0  0  0  0  # atno 17343 bound_to 10162
  156.1119  130.3649  150.0035 LP  0  0  0  0  0  0  0  0  0  0  0  0  # atno 17370 bound_to 10713
  156.8132  130.9332  151.3643 LP  0  0  0  0  0  0  0  0  0  0  0  0  # atno 17371 bound_to 10713
  140.0189  134.6577  155.9268 LP  0  0  0  0  0  0  0  0  0  0  0  0  # atno 17394 bound_to 11000
  141.1778  133.6542  156.4897 LP  0  0  0  0  0  0  0  0  0  0  0  0  # atno 17395 bound_to 11000

$$$$
