AV-unprocessed.smi:1738|AV-procd|sdf|7004|dock3
  -GOLD-   22720 8213D 1   1.00000     0.00000
 Structure written by MMmdl.
 46 48  0  0  0  0  0  0  0  0  2 V2000
  152.5959  140.3262  158.8604 C   0  0  0  0  0  0  0  0  0  0  0  0
  153.3208  138.6409  158.7323 S   0  0  0  0  0  0  0  0  0  0  0  0
  154.7068  138.7810  158.2590 O   0  0  0  0  0  0  0  0  0  0  0  0
  153.0515  137.9256  159.9894 O   0  0  0  0  0  0  0  0  0  0  0  0
  152.3600  137.8628  157.4390 C   0  0  0  0  0  0  0  0  0  0  0  0
  152.2055  138.4913  156.1874 C   0  0  0  0  0  0  0  0  0  0  0  0
  151.4052  137.8560  155.2187 C   0  0  0  0  0  0  0  0  0  0  0  0
  150.7793  136.6263  155.5439 C   0  0  0  0  0  0  0  0  0  0  0  0
  149.9517  135.8737  154.6644 N   0  0  0  0  0  0  0  0  0  0  0  0
  149.3554  134.6843  154.8588 C   0  0  0  0  0  0  0  0  0  0  0  0
  149.4370  133.9981  155.8763 O   0  0  0  0  0  0  0  0  0  0  0  0
  148.6479  134.3175  153.7805 N   0  0  0  0  0  0  0  0  0  0  0  0
  147.8624  133.0914  153.6662 C   0  0  1  0  0  0  0  0  0  0  0  0
  146.8729  133.1227  152.5075 C   0  0  0  0  0  0  0  0  0  0  0  0
  146.5628  131.6386  152.3061 C   0  0  0  0  0  0  0  0  0  0  0  0
  147.8097  130.9119  152.6399 N   0  3  2  0  0  0  0  0  0  0  0  0
  147.5983  129.6042  153.3072 C   0  0  0  0  0  0  0  0  0  0  0  0
  148.9446  128.9115  153.5885 C   0  0  0  0  0  0  0  0  0  0  0  0
  149.9691  129.8366  154.2782 C   0  0  0  0  0  0  0  0  0  0  0  0
  149.3869  131.2227  154.5951 C   0  0  0  0  0  0  0  0  0  0  0  0
  148.7208  131.8540  153.3511 C   0  0  2  0  0  0  0  0  0  0  0  0
  151.0021  136.0981  156.8343 C   0  0  0  0  0  0  0  0  0  0  0  0
  151.7660  136.6975  157.7713 N   0  0  0  0  0  0  0  0  0  0  0  0
  153.1198  140.8886  159.6329 H   0  0  0  0  0  0  0  0  0  0  0  0
  151.5403  140.2493  159.1207 H   0  0  0  0  0  0  0  0  0  0  0  0
  152.6976  140.8398  157.9045 H   0  0  0  0  0  0  0  0  0  0  0  0
  152.6868  139.4327  155.9681 H   0  0  0  0  0  0  0  0  0  0  0  0
  151.2980  138.3282  154.2558 H   0  0  0  0  0  0  0  0  0  0  0  0
  149.8055  136.2933  153.7578 H   0  0  0  0  0  0  0  0  0  0  0  0
  148.6377  134.9409  152.9862 H   0  0  0  0  0  0  0  0  0  0  0  0
  147.2940  132.9218  154.5834 H   0  0  0  0  0  0  0  0  0  0  0  0
  145.9827  133.7148  152.7229 H   0  0  0  0  0  0  0  0  0  0  0  0
  147.3446  133.5300  151.6117 H   0  0  0  0  0  0  0  0  0  0  0  0
  145.7647  131.3435  152.9896 H   0  0  0  0  0  0  0  0  0  0  0  0
  146.2310  131.4151  151.2919 H   0  0  0  0  0  0  0  0  0  0  0  0
  147.0502  129.7520  154.2391 H   0  0  0  0  0  0  0  0  0  0  0  0
  146.9766  128.9688  152.6753 H   0  0  0  0  0  0  0  0  0  0  0  0
  148.7736  128.0246  154.1998 H   0  0  0  0  0  0  0  0  0  0  0  0
  149.3673  128.5504  152.6501 H   0  0  0  0  0  0  0  0  0  0  0  0
  150.3392  129.3719  155.1927 H   0  0  0  0  0  0  0  0  0  0  0  0
  150.8368  129.9558  153.6282 H   0  0  0  0  0  0  0  0  0  0  0  0
  148.6607  131.1308  155.4041 H   0  0  0  0  0  0  0  0  0  0  0  0
  150.1752  131.8753  154.9711 H   0  0  0  0  0  0  0  0  0  0  0  0
  149.4954  132.1241  152.6313 H   0  0  0  0  0  0  0  0  0  0  0  0
  150.5477  135.1631  157.1287 H   0  0  0  0  0  0  0  0  0  0  0  0
  148.2671  130.7080  151.7625 H   0  0  0  0  0  0  0  0  0  0  0  0
  1  2  1  0  0  0  0
  1 24  1  0  0  0  0
  1 25  1  0  0  0  0
  1 26  1  0  0  0  0
  2  3  2  0  0  0  0
  2  4  2  0  0  0  0
  2  5  1  0  0  0  0
  5 23  1  0  0  0  0
  5  6  2  0  0  0  0
  6  7  1  0  0  0  0
  6 27  1  0  0  0  0
  7  8  2  0  0  0  0
  7 28  1  0  0  0  0
  8  9  1  0  0  0  0
  8 22  1  0  0  0  0
  9 10  1  0  0  0  0
  9 29  1  0  0  0  0
 10 11  2  0  0  0  0
 10 12  1  0  0  0  0
 12 13  1  0  0  0  0
 12 30  1  0  0  0  0
 13 21  1  0  0  0  0
 13 14  1  0  0  0  0
 13 31  1  0  0  0  0
 14 15  1  0  0  0  0
 14 32  1  0  0  0  0
 14 33  1  0  0  0  0
 15 16  1  0  0  0  0
 15 34  1  0  0  0  0
 15 35  1  0  0  0  0
 16 21  1  0  0  0  0
 16 17  1  0  0  0  0
 16 46  1  0  0  0  0
 17 18  1  0  0  0  0
 17 36  1  0  0  0  0
 17 37  1  0  0  0  0
 18 19  1  0  0  0  0
 18 38  1  0  0  0  0
 18 39  1  0  0  0  0
 19 20  1  0  0  0  0
 19 40  1  0  0  0  0
 19 41  1  0  0  0  0
 20 21  1  0  0  0  0
 20 42  1  0  0  0  0
 20 43  1  0  0  0  0
 21 44  1  0  0  0  0
 22 23  2  0  0  0  0
 22 45  1  0  0  0  0
M  CHG  1  16   1
M  END
> <s_m_source_file>
AV-unprocessed.smi

> <i_m_source_file_index>
1738

> <i_lp_mmshare_version>
43012

> <i_f3d_flags>
0

> <s_epik_input>
W0NIM11TKD1PKSg9TyljMVtjSF1bY0hdYyhbY0hdbjEpW05IXUMoPU8pW05IXVtDQEhdKFtDSDJdW0NIMl0yKVtDQEBIXShOMjMpW0NIMl1bQ0gyXVtDSDJdW0NIMl0z

> <s_epik_cmdline>
J2VwaWtfcHl0aG9uJywgJy1waCcsICc3LjAnLCAnLXRuJywgJzgnLCAnLW1hJywgJzIwMCcsICctbWV0YWxfYmluZGluZycsICctaW1hZScsICc8aW5maWxlLm1hZT4nLCAnLW9tYWUnLCAnPG91dGZpbGUubWFlPic=

> <r_epik_Ionization_Penalty>
0.00100042

> <r_epik_Ionization_Penalty_Charging>
0.000974069

> <r_epik_Ionization_Penalty_Neutral>
2.63543e-05

> <r_epik_State_Penalty>
0.000633842

> <r_epik_Charging_Adjusted_Penalty>
0.00160791

> <i_epik_Tot_Q>
1

> <i_epik_Tot_abs_Q>
1

> <r_epik_Metal_State_Penalty>
-0

> <b_epik_Metal_Only>
0

> <s_lp_Force_Field>
OPLS_2005

> <r_lp_Energy>
42.7986

> <b_lp_Chiralities_Consistent>
1

> <s_lp_Variant>
AV-unprocessed.smi:1738-8

> <Gold.Version>
5.8.1

> <Gold.Id.Protein>
6NUR|6NUR_protein|mol2

> <Gold.PLP.Fitness>
43.4787

> <Gold.PLP.PLP>
-32.3575

> <Gold.PLP.part.hbond>
-3.8110

> <Gold.PLP.part.metal>
0.0000

> <Gold.PLP.part.buried>
-4.0538

> <Gold.PLP.part.nonpolar>
-25.1887

> <Gold.PLP.part.repulsive>
0.0904

> <Gold.PLP.ligand.clash>
0.0000

> <Gold.PLP.ligand.torsion>
1.3307

> <Gold.PLP.Chemscore.Hbond>
3.9184

> <Gold.PLP.Chemscore.CHOScore>
0.0000

> <Gold.PLP.Chemscore.Metal>
0.0000

> <Gold.Chemscore.Hbonds>
donor molecule, donor type, donor heavy atom, donor atom, acceptor molecule, acceptor atom, score
      L1  H     9    29       P1  7948  0.98
      L1  H    12    30       P1  7948  1.00
      L1  H    16    46       P1 10747  1.00
      P1  H  7997  8009       L1     3  0.96

> <Gold.PLP.Chemscore.Internal.Correction>
2.0274

> <Gold.Rescore>
     Score         DG    S(hbond)    S(metal)    S(lipo)     H(rot)  DE(clash)    DE(int)     intcor
     19.68     -22.53       3.50        0.00      67.70       1.00       0.03       2.82       ----

> <Gold.Chemscore.Fitness>
19.6825

> <Gold.Chemscore.DG>
-22.5345

> <Gold.Chemscore.ZeroCoef>
-5.4800

> <Gold.Chemscore.Hbond>
3.5011

> <Gold.Chemscore.Metal>
0.0000

> <Gold.Chemscore.Lipo>
67.7004

> <Gold.Chemscore.Internal_Hbond>
0.0000

> <Gold.Chemscore.DEClash>
0.0310

> <Gold.Chemscore.DEInternal>
2.8210

> <Gold.Chemscore.Rot>
1.0000

> <Gold.Chemscore.Internal.Correction>
   9.000000E+99

> <Gold.Chemscore.Hbonds>
donor molecule, donor type, donor heavy atom, donor atom, acceptor molecule, acceptor atom, score
      L1  H     9    29       P1  7948  0.26
      L1  H    12    30       P1  7948  0.45
      L1  H    16    46       P1 10747  0.99
      P1  H  7997  8009       L1     3  0.92

> <Gold.Chemscore.Hbond.Weighted>
-11.6935

> <Gold.Chemscore.Metal.Weighted>
-0.0000

> <Gold.Chemscore.Lipo.Weighted>
-7.9209

> <Gold.Chemscore.Internal_Hbond.Weighted>
0.0000

> <Gold.Chemscore.DEClash.Weighted>
0.0310

> <Gold.Chemscore.DEInternal.Weighted>
2.8210

> <Gold.Chemscore.Rot.Weighted>
2.5600

> <Gold.Chemscore.Internal.Correction.Weighted>
   9.000000E+99

> <Gold.Protein.RotatedTorsions>
[ 6907 6896 6895 6894 ] final  -87.99 input  -60.11 | X-H torsion
[ 7974 7965 7964 7962 ] final   18.89 input  175.53 | X-H torsion
[ 8008 7997 7996 7995 ] final  107.87 input   59.86 | X-H torsion
[ 10167 10162 10161 10158 ] final  -24.31 input  -65.29 | X-H torsion
[ 10718 10713 10712 10709 ] final  126.85 input   66.30 | X-H torsion
[ 10763 10752 10751 10750 ] final  -26.61 input  -60.55 | X-H torsion
[ 11005 11000 10999 10996 ] final   65.69 input  -57.11 | X-H torsion

> <Gold.Protein.ActiveResidues>
 VAL166  LYS551  ARG553  GLY616  TRP617  ASP618  TYR619  PRO620  LYS621  CYS622 
 ASP623  PHE694  ASN695  SER759  ASP760  ASP761  ALA762  ILE779  LEU786  VAL792 
 PHE793  MET794  SER795  GLU796  ALA797  LYS798  CYS799  TRP800  GLU811  SER814 

> <Gold.Protein.RotatedAtoms>
  150.6867  134.2810  159.4627 H   0  0  0  0  0  0  0  0  0  0  0  0  # atno 6907 bound_to 6896
  152.0724  134.9522  160.0583 H   0  0  0  0  0  0  0  0  0  0  0  0  # atno 6908 bound_to 6896
  152.0906  133.4164  159.4579 H   0  0  0  0  0  0  0  0  0  0  0  0  # atno 6909 bound_to 6896
  146.2169  139.8391  142.8644 H   0  0  0  0  0  0  0  0  0  0  0  0  # atno 7974 bound_to 7965
  156.1859  140.3087  155.9237 H   0  0  0  0  0  0  0  0  0  0  0  0  # atno 8008 bound_to 7997
  155.3282  140.0459  157.3059 H   0  0  0  0  0  0  0  0  0  0  0  0  # atno 8009 bound_to 7997
  154.5395  140.2257  155.8675 H   0  0  0  0  0  0  0  0  0  0  0  0  # atno 8010 bound_to 7997
  140.7288  143.4364  151.0723 H   0  0  0  0  0  0  0  0  0  0  0  0  # atno 10167 bound_to 10162
  157.5383  131.1097  150.8899 H   0  0  0  0  0  0  0  0  0  0  0  0  # atno 10718 bound_to 10713
  153.7187  135.6946  153.5018 H   0  0  0  0  0  0  0  0  0  0  0  0  # atno 10763 bound_to 10752
  153.2220  135.4366  155.0498 H   0  0  0  0  0  0  0  0  0  0  0  0  # atno 10764 bound_to 10752
  154.8291  135.3463  154.6721 H   0  0  0  0  0  0  0  0  0  0  0  0  # atno 10765 bound_to 10752
  139.9879  134.6639  156.0144 H   0  0  0  0  0  0  0  0  0  0  0  0  # atno 11005 bound_to 11000
  145.2917  141.0169  143.3659 LP  0  0  0  0  0  0  0  0  0  0  0  0  # atno 17320 bound_to 7965
  144.9072  139.4574  143.6604 LP  0  0  0  0  0  0  0  0  0  0  0  0  # atno 17321 bound_to 7965
  139.8027  143.8062  152.3164 LP  0  0  0  0  0  0  0  0  0  0  0  0  # atno 17342 bound_to 10162
  139.8084  144.7346  150.9731 LP  0  0  0  0  0  0  0  0  0  0  0  0  # atno 17343 bound_to 10162
  156.9460  130.5402  149.5281 LP  0  0  0  0  0  0  0  0  0  0  0  0  # atno 17370 bound_to 10713
  156.0476  130.5550  150.8917 LP  0  0  0  0  0  0  0  0  0  0  0  0  # atno 17371 bound_to 10713
  141.1540  133.6545  156.4103 LP  0  0  0  0  0  0  0  0  0  0  0  0  # atno 17394 bound_to 11000
  140.4967  134.6524  157.5232 LP  0  0  0  0  0  0  0  0  0  0  0  0  # atno 17395 bound_to 11000

$$$$
