AV-unprocessed.smi:626|AV-procd|sdf|3112|dock7
  -GOLD-   22720 0 33D 1   1.00000     0.00000
 Structure written by MMmdl.
 34 36  0  0  0  0  0  0  0  0  1 V2000
  149.1346  136.5241  155.2131 C   0  0  0  0  0  0  0  0  0  0  0  0
  150.1485  137.5586  155.0785 N   0  0  0  0  0  0  0  0  0  0  0  0
  151.3935  137.4632  155.5684 C   0  0  0  0  0  0  0  0  0  0  0  0
  151.8002  136.4832  156.1931 O   0  0  0  0  0  0  0  0  0  0  0  0
  152.3236  138.6523  155.3166 C   0  0  0  0  0  0  0  0  0  0  0  0
  151.7708  139.8964  155.9352 C   0  0  0  0  0  0  0  0  0  0  0  0
  150.8860  140.6525  155.2955 N   0  0  0  0  0  0  0  0  0  0  0  0
  150.6229  141.6840  156.2079 O   0  0  0  0  0  0  0  0  0  0  0  0
  151.4133  141.4438  157.2825 C   0  0  0  0  0  0  0  0  0  0  0  0
  151.2790  142.3329  158.4814 C   0  0  1  0  0  0  0  0  0  0  0  0
  152.2170  141.9666  159.6506 C   0  0  0  0  0  0  0  0  0  0  0  0
  152.8726  143.3184  159.9915 C   0  0  2  0  0  0  0  0  0  0  0  0
  151.8204  144.2774  160.5826 C   0  0  0  0  0  0  0  0  0  0  0  0
  150.9749  144.6610  159.3510 C   0  0  0  0  0  0  0  0  0  0  0  0
  151.6150  143.8211  158.2291 C   0  0  1  0  0  0  0  0  0  0  0  0
  153.0925  143.9104  158.6051 C   0  0  0  0  0  0  0  0  0  0  0  0
  152.1133  140.3149  157.1846 N   0  0  0  0  0  0  0  0  0  0  0  0
  148.1851  136.8795  154.8131 H   0  0  0  0  0  0  0  0  0  0  0  0
  148.9836  136.2567  156.2599 H   0  0  0  0  0  0  0  0  0  0  0  0
  149.4235  135.6281  154.6625 H   0  0  0  0  0  0  0  0  0  0  0  0
  149.8913  138.3958  154.5756 H   0  0  0  0  0  0  0  0  0  0  0  0
  153.3199  138.4551  155.7156 H   0  0  0  0  0  0  0  0  0  0  0  0
  152.4369  138.7966  154.2413 H   0  0  0  0  0  0  0  0  0  0  0  0
  150.2420  142.2522  158.8115 H   0  0  0  0  0  0  0  0  0  0  0  0
  151.6830  141.5286  160.4946 H   0  0  0  0  0  0  0  0  0  0  0  0
  152.9805  141.2537  159.3350 H   0  0  0  0  0  0  0  0  0  0  0  0
  153.7726  143.2254  160.6001 H   0  0  0  0  0  0  0  0  0  0  0  0
  151.2258  143.8027  161.3641 H   0  0  0  0  0  0  0  0  0  0  0  0
  152.2940  145.1610  161.0119 H   0  0  0  0  0  0  0  0  0  0  0  0
  149.9143  144.4460  159.4869 H   0  0  0  0  0  0  0  0  0  0  0  0
  151.0724  145.7263  159.1378 H   0  0  0  0  0  0  0  0  0  0  0  0
  151.3583  144.1759  157.2301 H   0  0  0  0  0  0  0  0  0  0  0  0
  153.4735  144.9331  158.6261 H   0  0  0  0  0  0  0  0  0  0  0  0
  153.7434  143.3027  157.9748 H   0  0  0  0  0  0  0  0  0  0  0  0
  1  2  1  0  0  0  0
  1 18  1  0  0  0  0
  1 19  1  0  0  0  0
  1 20  1  0  0  0  0
  2  3  1  0  0  0  0
  2 21  1  0  0  0  0
  3  4  2  0  0  0  0
  3  5  1  0  0  0  0
  5  6  1  0  0  0  0
  5 22  1  0  0  0  0
  5 23  1  0  0  0  0
  6 17  1  0  0  0  0
  6  7  2  0  0  0  0
  7  8  1  0  0  0  0
  8  9  1  0  0  0  0
  9 10  1  0  0  0  0
  9 17  2  0  0  0  0
 10 15  1  0  0  0  0
 10 11  1  0  0  0  0
 10 24  1  0  0  0  0
 11 12  1  0  0  0  0
 11 25  1  0  0  0  0
 11 26  1  0  0  0  0
 12 16  1  0  0  0  0
 12 13  1  0  0  0  0
 12 27  1  0  0  0  0
 13 14  1  0  0  0  0
 13 28  1  0  0  0  0
 13 29  1  0  0  0  0
 14 15  1  0  0  0  0
 14 30  1  0  0  0  0
 14 31  1  0  0  0  0
 15 16  1  0  0  0  0
 15 32  1  0  0  0  0
 16 33  1  0  0  0  0
 16 34  1  0  0  0  0
M  END
> <s_m_source_file>
AV-unprocessed.smi

> <i_m_source_file_index>
626

> <i_lp_mmshare_version>
43012

> <i_f3d_flags>
0

> <s_epik_input>
W0NIM11bTkhdQyg9TylbQ0gyXWMxbm9jKG4xKVtDQEhdKFtDSDJdW0NAQEhdMjMpW0NAQEhdKFtDSDJdMylbQ0gyXVtDSDJdMg==

> <s_epik_cmdline>
J2VwaWtfcHl0aG9uJywgJy1waCcsICc3LjAnLCAnLXRuJywgJzgnLCAnLW1hJywgJzIwMCcsICctbWV0YWxfYmluZGluZycsICctaW1hZScsICc8aW5maWxlLm1hZT4nLCAnLW9tYWUnLCAnPG91dGZpbGUubWFlPic=

> <r_lp_tautomer_probability>
1

> <r_epik_Ionization_Penalty>
1.02916e-07

> <r_epik_Ionization_Penalty_Charging>
0

> <r_epik_Ionization_Penalty_Neutral>
1.02916e-07

> <r_epik_State_Penalty>
-0

> <r_epik_Charging_Adjusted_Penalty>
0

> <i_epik_Tot_Q>
0

> <i_epik_Tot_abs_Q>
0

> <r_epik_Metal_State_Penalty>
-0

> <b_epik_Metal_Only>
0

> <s_lp_Force_Field>
OPLS_2005

> <r_lp_Energy>
48.5493

> <b_lp_Chiralities_Consistent>
1

> <s_lp_Variant>
AV-unprocessed.smi:626-4

> <Gold.Version>
5.8.1

> <Gold.Id.Protein>
6NUR|6NUR_protein|mol2

> <Gold.PLP.Fitness>
42.9432

> <Gold.PLP.PLP>
-36.8973

> <Gold.PLP.part.hbond>
-2.8122

> <Gold.PLP.part.metal>
0.0000

> <Gold.PLP.part.buried>
-4.9963

> <Gold.PLP.part.nonpolar>
-30.3941

> <Gold.PLP.part.repulsive>
0.1815

> <Gold.PLP.ligand.clash>
0.0000

> <Gold.PLP.ligand.torsion>
0.4177

> <Gold.PLP.Chemscore.Hbond>
2.2649

> <Gold.PLP.Chemscore.CHOScore>
0.0000

> <Gold.PLP.Chemscore.Metal>
0.0000

> <Gold.Chemscore.Hbonds>
donor molecule, donor type, donor heavy atom, donor atom, acceptor molecule, acceptor atom, score
      P1  H  7989  7998       L1     7  0.90
      P1  H  7997  8009       L1    17  0.13
      P1  H 10752 10765       L1     4  1.00

> <Gold.PLP.Chemscore.Internal.Correction>
0.0865

> <Gold.Rescore>
     Score         DG    S(hbond)    S(metal)    S(lipo)     H(rot)  DE(clash)    DE(int)     intcor
     16.36     -17.04       1.41        0.00      93.91       1.61       0.29       0.39       ----

> <Gold.Chemscore.Fitness>
16.3566

> <Gold.Chemscore.DG>
-17.0406

> <Gold.Chemscore.ZeroCoef>
-5.4800

> <Gold.Chemscore.Hbond>
1.4073

> <Gold.Chemscore.Metal>
0.0000

> <Gold.Chemscore.Lipo>
93.9054

> <Gold.Chemscore.Internal_Hbond>
0.0000

> <Gold.Chemscore.DEClash>
0.2939

> <Gold.Chemscore.DEInternal>
0.3901

> <Gold.Chemscore.Rot>
1.6119

> <Gold.Chemscore.Internal.Correction>
   9.000000E+99

> <Gold.Chemscore.Hbonds>
donor molecule, donor type, donor heavy atom, donor atom, acceptor molecule, acceptor atom, score
      P1  H  7989  7998       L1     7  0.43
      P1  H  7997  8009       L1    17  0.01
      P1  H 10752 10765       L1     4  0.65

> <Gold.Chemscore.Hbond.Weighted>
-4.7002

> <Gold.Chemscore.Metal.Weighted>
-0.0000

> <Gold.Chemscore.Lipo.Weighted>
-10.9869

> <Gold.Chemscore.Internal_Hbond.Weighted>
0.0000

> <Gold.Chemscore.DEClash.Weighted>
0.2939

> <Gold.Chemscore.DEInternal.Weighted>
0.3901

> <Gold.Chemscore.Rot.Weighted>
4.1266

> <Gold.Chemscore.Internal.Correction.Weighted>
   9.000000E+99

> <Gold.Protein.RotatedTorsions>
[ 6907 6896 6895 6894 ] final -161.22 input  -60.11 | X-H torsion
[ 7974 7965 7964 7962 ] final   -3.93 input  175.53 | X-H torsion
[ 8008 7997 7996 7995 ] final  176.73 input   59.86 | X-H torsion
[ 10167 10162 10161 10158 ] final   92.64 input  -65.29 | X-H torsion
[ 10718 10713 10712 10709 ] final  155.51 input   66.30 | X-H torsion
[ 10763 10752 10751 10750 ] final -150.03 input  -60.55 | X-H torsion
[ 11005 11000 10999 10996 ] final   38.54 input  -57.11 | X-H torsion

> <Gold.Protein.ActiveResidues>
 VAL166  LYS551  ARG553  GLY616  TRP617  ASP618  TYR619  PRO620  LYS621  CYS622 
 ASP623  PHE694  ASN695  SER759  ASP760  ASP761  ALA762  ILE779  LEU786  VAL792 
 PHE793  MET794  SER795  GLU796  ALA797  LYS798  CYS799  TRP800  GLU811  SER814 

> <Gold.Protein.RotatedAtoms>
  151.3612  133.3889  159.2689 H   0  0  0  0  0  0  0  0  0  0  0  0  # atno 6907 bound_to 6896
  150.9724  134.9095  159.7806 H   0  0  0  0  0  0  0  0  0  0  0  0  # atno 6908 bound_to 6896
  152.5189  134.3574  159.9325 H   0  0  0  0  0  0  0  0  0  0  0  0  # atno 6909 bound_to 6896
  146.2381  140.1795  142.8332 H   0  0  0  0  0  0  0  0  0  0  0  0  # atno 7974 bound_to 7965
  156.0733  140.1376  156.9802 H   0  0  0  0  0  0  0  0  0  0  0  0  # atno 8008 bound_to 7997
  154.4544  140.0967  156.6763 H   0  0  0  0  0  0  0  0  0  0  0  0  # atno 8009 bound_to 7997
  155.5193  140.3456  155.4406 H   0  0  0  0  0  0  0  0  0  0  0  0  # atno 8010 bound_to 7997
  139.8257  144.6710  150.9462 H   0  0  0  0  0  0  0  0  0  0  0  0  # atno 10167 bound_to 10162
  157.2174  131.0711  151.1933 H   0  0  0  0  0  0  0  0  0  0  0  0  # atno 10718 bound_to 10713
  154.8143  135.3294  154.7220 H   0  0  0  0  0  0  0  0  0  0  0  0  # atno 10763 bound_to 10752
  153.7864  135.6914  153.4883 H   0  0  0  0  0  0  0  0  0  0  0  0  # atno 10764 bound_to 10752
  153.1946  135.4538  155.0139 H   0  0  0  0  0  0  0  0  0  0  0  0  # atno 10765 bound_to 10752
  140.2117  134.3748  155.8046 H   0  0  0  0  0  0  0  0  0  0  0  0  # atno 11005 bound_to 11000
  144.9946  140.8577  143.5319 LP  0  0  0  0  0  0  0  0  0  0  0  0  # atno 17320 bound_to 7965
  145.1806  139.2354  143.5294 LP  0  0  0  0  0  0  0  0  0  0  0  0  # atno 17321 bound_to 7965
  140.7810  143.4048  151.1089 LP  0  0  0  0  0  0  0  0  0  0  0  0  # atno 17342 bound_to 10162
  139.7706  143.8500  152.3119 LP  0  0  0  0  0  0  0  0  0  0  0  0  # atno 17343 bound_to 10162
  157.3610  130.7131  149.6502 LP  0  0  0  0  0  0  0  0  0  0  0  0  # atno 17370 bound_to 10713
  155.9685  130.4225  150.4520 LP  0  0  0  0  0  0  0  0  0  0  0  0  # atno 17371 bound_to 10713
  141.2226  133.7146  156.8428 LP  0  0  0  0  0  0  0  0  0  0  0  0  # atno 17394 bound_to 11000
  140.1944  134.8942  157.3098 LP  0  0  0  0  0  0  0  0  0  0  0  0  # atno 17395 bound_to 11000

$$$$
