AV-unprocessed.smi:2378|AV-procd|sdf|9449|dock10
  -GOLD-   2272013 83D 1   1.00000     0.00000
 Structure written by MMmdl.
 40 41  0  0  0  0  0  0  0  0  1 V2000
  145.8918  131.8308  149.2692 C   0  0  0  0  0  0  0  0  0  0  0  0
  145.3743  132.7011  150.3952 C   0  0  0  0  0  0  0  0  0  0  0  0
  144.1513  132.4124  151.0301 C   0  0  0  0  0  0  0  0  0  0  0  0
  143.7259  133.2616  152.0683 C   0  0  0  0  0  0  0  0  0  0  0  0
  144.4322  134.3346  152.4821 N   0  0  0  0  0  0  0  0  0  0  0  0
  145.6124  134.6226  151.8786 C   0  0  0  0  0  0  0  0  0  0  0  0
  146.4355  135.7228  152.2392 N   0  0  0  0  0  0  0  0  0  0  0  0
  146.1841  136.6911  153.1380 C   0  0  0  0  0  0  0  0  0  0  0  0
  145.1527  136.7971  153.8026 O   0  0  0  0  0  0  0  0  0  0  0  0
  147.2102  137.5501  153.2245 N   0  0  0  0  0  0  0  0  0  0  0  0
  147.2577  138.7141  154.1019 C   0  0  0  0  0  0  0  0  0  0  0  0
  148.4978  139.5806  153.8235 C   0  0  0  0  0  0  0  0  0  0  0  0
  149.2124  140.0321  155.1070 C   0  0  2  0  0  0  0  0  0  0  0  0
  148.4508  141.1652  155.8221 C   0  0  0  0  0  0  0  0  0  0  0  0
  149.2266  141.6415  157.0555 C   0  0  0  0  0  0  0  0  0  0  0  0
  150.6611  142.0032  156.6569 C   0  0  0  0  0  0  0  0  0  0  0  0
  151.3125  140.8391  155.8937 C   0  0  0  0  0  0  0  0  0  0  0  0
  150.5173  140.4953  154.7630 O   0  0  0  0  0  0  0  0  0  0  0  0
  146.1127  133.8210  150.8277 C   0  0  0  0  0  0  0  0  0  0  0  0
  145.2377  130.9758  149.0959 H   0  0  0  0  0  0  0  0  0  0  0  0
  146.8873  131.4554  149.5080 H   0  0  0  0  0  0  0  0  0  0  0  0
  145.9534  132.4067  148.3455 H   0  0  0  0  0  0  0  0  0  0  0  0
  143.5517  131.5644  150.7334 H   0  0  0  0  0  0  0  0  0  0  0  0
  142.7940  133.0745  152.5810 H   0  0  0  0  0  0  0  0  0  0  0  0
  147.3228  135.7749  151.7615 H   0  0  0  0  0  0  0  0  0  0  0  0
  148.0185  137.3882  152.6418 H   0  0  0  0  0  0  0  0  0  0  0  0
  146.3461  139.3046  153.9957 H   0  0  0  0  0  0  0  0  0  0  0  0
  147.2758  138.3555  155.1314 H   0  0  0  0  0  0  0  0  0  0  0  0
  149.1959  139.0329  153.1891 H   0  0  0  0  0  0  0  0  0  0  0  0
  148.1961  140.4630  153.2573 H   0  0  0  0  0  0  0  0  0  0  0  0
  149.3003  139.1763  155.7788 H   0  0  0  0  0  0  0  0  0  0  0  0
  148.3074  142.0019  155.1369 H   0  0  0  0  0  0  0  0  0  0  0  0
  147.4562  140.8278  156.1157 H   0  0  0  0  0  0  0  0  0  0  0  0
  148.7300  142.4985  157.5113 H   0  0  0  0  0  0  0  0  0  0  0  0
  149.2425  140.8508  157.8065 H   0  0  0  0  0  0  0  0  0  0  0  0
  150.6534  142.8924  156.0254 H   0  0  0  0  0  0  0  0  0  0  0  0
  151.2481  142.2516  157.5416 H   0  0  0  0  0  0  0  0  0  0  0  0
  152.3070  141.1256  155.5511 H   0  0  0  0  0  0  0  0  0  0  0  0
  151.4373  139.9700  156.5413 H   0  0  0  0  0  0  0  0  0  0  0  0
  147.0545  134.0609  150.3551 H   0  0  0  0  0  0  0  0  0  0  0  0
  1  2  1  0  0  0  0
  1 20  1  0  0  0  0
  1 21  1  0  0  0  0
  1 22  1  0  0  0  0
  2 19  1  0  0  0  0
  2  3  2  0  0  0  0
  3  4  1  0  0  0  0
  3 23  1  0  0  0  0
  4  5  2  0  0  0  0
  4 24  1  0  0  0  0
  5  6  1  0  0  0  0
  6  7  1  0  0  0  0
  6 19  2  0  0  0  0
  7  8  1  0  0  0  0
  7 25  1  0  0  0  0
  8  9  2  0  0  0  0
  8 10  1  0  0  0  0
 10 11  1  0  0  0  0
 10 26  1  0  0  0  0
 11 12  1  0  0  0  0
 11 27  1  0  0  0  0
 11 28  1  0  0  0  0
 12 13  1  0  0  0  0
 12 29  1  0  0  0  0
 12 30  1  0  0  0  0
 13 18  1  0  0  0  0
 13 14  1  0  0  0  0
 13 31  1  0  0  0  0
 14 15  1  0  0  0  0
 14 32  1  0  0  0  0
 14 33  1  0  0  0  0
 15 16  1  0  0  0  0
 15 34  1  0  0  0  0
 15 35  1  0  0  0  0
 16 17  1  0  0  0  0
 16 36  1  0  0  0  0
 16 37  1  0  0  0  0
 17 18  1  0  0  0  0
 17 38  1  0  0  0  0
 17 39  1  0  0  0  0
 19 40  1  0  0  0  0
M  END
> <s_m_source_file>
AV-unprocessed.smi

> <i_m_source_file_index>
2378

> <i_lp_mmshare_version>
43012

> <i_f3d_flags>
0

> <s_epik_input>
W0NIM11jMVtjSF1bY0hdbmMoW2NIXTEpW05IXUMoPU8pW05IXVtDSDJdW0NIMl1bQ0BASF0yW0NIMl1bQ0gyXVtDSDJdW0NIMl1PMg==

> <s_epik_cmdline>
J2VwaWtfcHl0aG9uJywgJy1waCcsICc3LjAnLCAnLXRuJywgJzgnLCAnLW1hJywgJzIwMCcsICctbWV0YWxfYmluZGluZycsICctaW1hZScsICc8aW5maWxlLm1hZT4nLCAnLW9tYWUnLCAnPG91dGZpbGUubWFlPic=

> <r_lp_tautomer_probability>
1

> <r_epik_Ionization_Penalty>
8.60919e-05

> <r_epik_Ionization_Penalty_Charging>
0

> <r_epik_Ionization_Penalty_Neutral>
8.60919e-05

> <r_epik_State_Penalty>
-0

> <r_epik_Charging_Adjusted_Penalty>
0

> <i_epik_Tot_Q>
0

> <i_epik_Tot_abs_Q>
0

> <r_epik_Metal_State_Penalty>
-0

> <b_epik_Metal_Only>
0

> <s_lp_Force_Field>
OPLS_2005

> <r_lp_Energy>
11.3516

> <b_lp_Chiralities_Consistent>
1

> <s_lp_Variant>
AV-unprocessed.smi:2378-1

> <Gold.Version>
5.8.1

> <Gold.Id.Protein>
6NUR|6NUR_protein|mol2

> <Gold.PLP.Fitness>
40.1068

> <Gold.PLP.PLP>
-29.8548

> <Gold.PLP.part.hbond>
-3.0000

> <Gold.PLP.part.metal>
0.0000

> <Gold.PLP.part.buried>
-1.9873

> <Gold.PLP.part.nonpolar>
-25.5146

> <Gold.PLP.part.repulsive>
0.3264

> <Gold.PLP.ligand.clash>
0.0000

> <Gold.PLP.ligand.torsion>
0.4684

> <Gold.PLP.Chemscore.Hbond>
2.9200

> <Gold.PLP.Chemscore.CHOScore>
0.8061

> <Gold.PLP.Chemscore.Metal>
0.0000

> <Gold.Chemscore.Hbonds>
donor molecule, donor type, donor heavy atom, donor atom, acceptor molecule, acceptor atom, score
      L1  H     7    25       P1  7948  0.96
      L1  H    10    26       P1  7948  0.93
      P1  H  7989  7998       L1    18  1.00
      L1  C     4    24       P1 10957  0.83

> <Gold.PLP.Chemscore.Internal.Correction>
0.0105

> <Gold.Rescore>
     Score         DG    S(hbond)    S(metal)    S(lipo)     H(rot)  DE(clash)    DE(int)     intcor
     18.45     -20.21       2.87        0.00      75.13       1.42       0.03       1.74       ----

> <Gold.Chemscore.Fitness>
18.4452

> <Gold.Chemscore.DG>
-20.2094

> <Gold.Chemscore.ZeroCoef>
-5.4800

> <Gold.Chemscore.Hbond>
2.8704

> <Gold.Chemscore.Metal>
0.0000

> <Gold.Chemscore.Lipo>
75.1268

> <Gold.Chemscore.Internal_Hbond>
0.0000

> <Gold.Chemscore.DEClash>
0.0285

> <Gold.Chemscore.DEInternal>
1.7357

> <Gold.Chemscore.Rot>
1.4248

> <Gold.Chemscore.Internal.Correction>
   9.000000E+99

> <Gold.Chemscore.Hbonds>
donor molecule, donor type, donor heavy atom, donor atom, acceptor molecule, acceptor atom, score
      L1  H     7    25       P1  7948  0.92
      L1  H    10    26       P1  7948  0.91
      P1  H  7989  7998       L1    18  0.24

> <Gold.Chemscore.Hbond.Weighted>
-9.5871

> <Gold.Chemscore.Metal.Weighted>
-0.0000

> <Gold.Chemscore.Lipo.Weighted>
-8.7898

> <Gold.Chemscore.Internal_Hbond.Weighted>
0.0000

> <Gold.Chemscore.DEClash.Weighted>
0.0285

> <Gold.Chemscore.DEInternal.Weighted>
1.7357

> <Gold.Chemscore.Rot.Weighted>
3.6476

> <Gold.Chemscore.Internal.Correction.Weighted>
   9.000000E+99

> <Gold.Protein.RotatedTorsions>
[ 6907 6896 6895 6894 ] final -116.54 input  -60.11 | X-H torsion
[ 7974 7965 7964 7962 ] final -176.49 input  175.53 | X-H torsion
[ 8008 7997 7996 7995 ] final  136.47 input   59.86 | X-H torsion
[ 10167 10162 10161 10158 ] final   80.14 input  -65.29 | X-H torsion
[ 10718 10713 10712 10709 ] final  -17.80 input   66.30 | X-H torsion
[ 10763 10752 10751 10750 ] final -156.48 input  -60.55 | X-H torsion
[ 11005 11000 10999 10996 ] final   -3.18 input  -57.11 | X-H torsion

> <Gold.Protein.ActiveResidues>
 VAL166  LYS551  ARG553  GLY616  TRP617  ASP618  TYR619  PRO620  LYS621  CYS622 
 ASP623  PHE694  ASN695  SER759  ASP760  ASP761  ALA762  ILE779  LEU786  VAL792 
 PHE793  MET794  SER795  GLU796  ALA797  LYS798  CYS799  TRP800  GLU811  SER814 

> <Gold.Protein.RotatedAtoms>
  150.8064  133.8503  159.3203 H   0  0  0  0  0  0  0  0  0  0  0  0  # atno 6907 bound_to 6896
  151.6300  135.1022  160.0129 H   0  0  0  0  0  0  0  0  0  0  0  0  # atno 6908 bound_to 6896
  152.4154  133.6991  159.6470 H   0  0  0  0  0  0  0  0  0  0  0  0  # atno 6909 bound_to 6896
  144.7127  140.1162  143.6408 H   0  0  0  0  0  0  0  0  0  0  0  0  # atno 7974 bound_to 7965
  156.3004  140.2444  156.3751 H   0  0  0  0  0  0  0  0  0  0  0  0  # atno 8008 bound_to 7997
  154.8753  140.0414  157.1769 H   0  0  0  0  0  0  0  0  0  0  0  0  # atno 8009 bound_to 7997
  154.8753  140.2941  155.5461 H   0  0  0  0  0  0  0  0  0  0  0  0  # atno 8010 bound_to 7997
  139.9529  144.6014  150.8144 H   0  0  0  0  0  0  0  0  0  0  0  0  # atno 10167 bound_to 10162
  156.5684  130.4743  149.6374 H   0  0  0  0  0  0  0  0  0  0  0  0  # atno 10718 bound_to 10713
  154.7709  135.3145  154.8191 H   0  0  0  0  0  0  0  0  0  0  0  0  # atno 10763 bound_to 10752
  153.8927  135.6824  153.4764 H   0  0  0  0  0  0  0  0  0  0  0  0  # atno 10764 bound_to 10752
  153.1323  135.4775  154.9302 H   0  0  0  0  0  0  0  0  0  0  0  0  # atno 10765 bound_to 10752
  140.6665  133.9274  155.8468 H   0  0  0  0  0  0  0  0  0  0  0  0  # atno 11005 bound_to 11000
  145.9411  139.2669  143.1268 LP  0  0  0  0  0  0  0  0  0  0  0  0  # atno 17320 bound_to 7965
  145.9423  140.8971  143.0301 LP  0  0  0  0  0  0  0  0  0  0  0  0  # atno 17321 bound_to 7965
  140.7577  143.3092  151.2886 LP  0  0  0  0  0  0  0  0  0  0  0  0  # atno 17342 bound_to 10162
  139.6614  144.0182  152.2695 LP  0  0  0  0  0  0  0  0  0  0  0  0  # atno 17343 bound_to 10162
  156.2736  130.7031  151.1836 LP  0  0  0  0  0  0  0  0  0  0  0  0  # atno 17370 bound_to 10713
  157.7353  131.0573  150.5475 LP  0  0  0  0  0  0  0  0  0  0  0  0  # atno 17371 bound_to 10713
  141.0425  134.0600  157.3884 LP  0  0  0  0  0  0  0  0  0  0  0  0  # atno 17394 bound_to 11000
  139.8996  135.0159  156.7201 LP  0  0  0  0  0  0  0  0  0  0  0  0  # atno 17395 bound_to 11000

$$$$
