AV-unprocessed.smi:1521|AV-procd|sdf|6131|dock3
  -GOLD-   22720 6273D 1   1.00000     0.00000
 Structure written by MMmdl.
 36 37  0  0  0  0  0  0  0  0  1 V2000
  148.7074  133.5382  155.4079 O   0  0  0  0  0  0  0  0  0  0  0  0
  148.8789  134.3549  154.5033 C   0  0  0  0  0  0  0  0  0  0  0  0
  149.6513  135.4430  154.6306 N   0  0  0  0  0  0  0  0  0  0  0  0
  150.4138  135.7996  155.8227 C   0  0  0  0  0  0  0  0  0  0  0  0
  151.2745  137.0527  155.5874 C   0  0  1  0  0  0  0  0  0  0  0  0
  150.4998  138.1506  154.8311 C   0  0  0  0  0  0  0  0  0  0  0  0
  151.3358  139.2896  154.6713 O   0  0  0  0  0  0  0  0  0  0  0  0
  151.7450  139.8106  155.9285 C   0  0  0  0  0  0  0  0  0  0  0  0
  152.5126  138.7224  156.6964 C   0  0  0  0  0  0  0  0  0  0  0  0
  151.6731  137.5857  156.8464 O   0  0  0  0  0  0  0  0  0  0  0  0
  148.3550  134.2822  153.2658 N   0  0  0  0  0  0  0  0  0  0  0  0
  147.4943  133.3156  152.7182 C   0  0  0  0  0  0  0  0  0  0  0  0
  146.4601  133.5809  151.8777 C   0  0  0  0  0  0  0  0  0  0  0  0
  145.6145  132.5292  151.3384 C   0  0  0  0  0  0  0  0  0  0  0  0
  144.4131  132.8484  150.4625 C   0  0  0  0  0  0  0  0  0  0  0  0
  143.2989  132.4061  151.0436 F   0  0  0  0  0  0  0  0  0  0  0  0
  144.2874  134.1619  150.2684 F   0  0  0  0  0  0  0  0  0  0  0  0
  144.5216  132.2581  149.2724 F   0  0  0  0  0  0  0  0  0  0  0  0
  145.9027  131.2716  151.7215 C   0  0  0  0  0  0  0  0  0  0  0  0
  146.9766  130.9882  152.5682 N   0  0  0  0  0  0  0  0  0  0  0  0
  147.7978  131.9246  153.0938 C   0  0  0  0  0  0  0  0  0  0  0  0
  148.7241  131.5934  153.8331 O   0  0  0  0  0  0  0  0  0  0  0  0
  147.1365  130.0179  152.7976 H   0  0  0  0  0  0  0  0  0  0  0  0
  149.7388  136.0587  153.8355 H   0  0  0  0  0  0  0  0  0  0  0  0
  149.6978  135.9929  156.6217 H   0  0  0  0  0  0  0  0  0  0  0  0
  151.0309  134.9646  156.1594 H   0  0  0  0  0  0  0  0  0  0  0  0
  152.1599  136.7734  155.0127 H   0  0  0  0  0  0  0  0  0  0  0  0
  150.2003  137.7946  153.8452 H   0  0  0  0  0  0  0  0  0  0  0  0
  149.5878  138.4259  155.3635 H   0  0  0  0  0  0  0  0  0  0  0  0
  152.3816  140.6803  155.7650 H   0  0  0  0  0  0  0  0  0  0  0  0
  150.8772  140.1487  156.4971 H   0  0  0  0  0  0  0  0  0  0  0  0
  153.4298  138.4480  156.1730 H   0  0  0  0  0  0  0  0  0  0  0  0
  152.8009  139.0854  157.6831 H   0  0  0  0  0  0  0  0  0  0  0  0
  148.6465  134.9974  152.6156 H   0  0  0  0  0  0  0  0  0  0  0  0
  146.2427  134.5883  151.5628 H   0  0  0  0  0  0  0  0  0  0  0  0
  145.3416  130.3994  151.4201 H   0  0  0  0  0  0  0  0  0  0  0  0
  1  2  2  0  0  0  0
  2  3  1  0  0  0  0
  2 11  1  0  0  0  0
  3  4  1  0  0  0  0
  3 24  1  0  0  0  0
  4  5  1  0  0  0  0
  4 25  1  0  0  0  0
  4 26  1  0  0  0  0
  5 10  1  0  0  0  0
  5  6  1  0  0  0  0
  5 27  1  0  0  0  0
  6  7  1  0  0  0  0
  6 28  1  0  0  0  0
  6 29  1  0  0  0  0
  7  8  1  0  0  0  0
  8  9  1  0  0  0  0
  8 30  1  0  0  0  0
  8 31  1  0  0  0  0
  9 10  1  0  0  0  0
  9 32  1  0  0  0  0
  9 33  1  0  0  0  0
 11 12  1  0  0  0  0
 11 34  1  0  0  0  0
 12 21  1  0  0  0  0
 12 13  2  0  0  0  0
 13 14  1  0  0  0  0
 13 35  1  0  0  0  0
 14 15  1  0  0  0  0
 14 19  2  0  0  0  0
 15 16  1  0  0  0  0
 15 17  1  0  0  0  0
 15 18  1  0  0  0  0
 19 20  1  0  0  0  0
 19 36  1  0  0  0  0
 20 23  1  0  0  0  0
 20 21  1  0  0  0  0
 21 22  2  0  0  0  0
M  END
> <s_m_source_file>
AV-unprocessed.smi

> <i_m_source_file_index>
1521

> <i_lp_mmshare_version>
43012

> <i_f3d_flags>
0

> <s_epik_input>
Tz1jMVtuSF1bY0hdYyhDKEYpKEYpRilbY0hdYzFbTkhdQyg9TylbTkhdW0NIMl1bQ0BASF0yW0NIMl1PW0NIMl1bQ0gyXU8y

> <s_epik_cmdline>
J2VwaWtfcHl0aG9uJywgJy1waCcsICc3LjAnLCAnLXRuJywgJzgnLCAnLW1hJywgJzIwMCcsICctbWV0YWxfYmluZGluZycsICctaW1hZScsICc8aW5maWxlLm1hZT4nLCAnLW9tYWUnLCAnPG91dGZpbGUubWFlPic=

> <r_lp_tautomer_probability>
1

> <r_epik_Ionization_Penalty>
0.00396636

> <r_epik_Ionization_Penalty_Charging>
0.00394789

> <r_epik_Ionization_Penalty_Neutral>
1.84676e-05

> <r_epik_State_Penalty>
-0

> <r_epik_Charging_Adjusted_Penalty>
0.00394789

> <i_epik_Tot_Q>
0

> <i_epik_Tot_abs_Q>
0

> <r_epik_Metal_State_Penalty>
0.372669

> <b_epik_Metal_Only>
0

> <s_lp_Force_Field>
OPLS_2005

> <r_lp_Energy>
19.2224

> <b_lp_Chiralities_Consistent>
1

> <s_lp_Variant>
AV-unprocessed.smi:1521-2

> <Gold.Version>
5.8.1

> <Gold.Id.Protein>
6NUR|6NUR_protein|mol2

> <Gold.PLP.Fitness>
42.3499

> <Gold.PLP.PLP>
-35.9303

> <Gold.PLP.part.hbond>
-3.6110

> <Gold.PLP.part.metal>
0.0000

> <Gold.PLP.part.buried>
-3.9633

> <Gold.PLP.part.nonpolar>
-30.4793

> <Gold.PLP.part.repulsive>
0.2292

> <Gold.PLP.ligand.clash>
0.0000

> <Gold.PLP.ligand.torsion>
0.4718

> <Gold.PLP.Chemscore.Hbond>
2.4390

> <Gold.PLP.Chemscore.CHOScore>
0.0000

> <Gold.PLP.Chemscore.Metal>
0.0000

> <Gold.Chemscore.Hbonds>
donor molecule, donor type, donor heavy atom, donor atom, acceptor molecule, acceptor atom, score
      L1  H     3    24       P1  7948  0.65
      L1  H    11    34       P1  7948  0.73
      P1  H  7989  7998       L1     7  1.00

> <Gold.PLP.Chemscore.Internal.Correction>
0.0463

> <Gold.Rescore>
     Score         DG    S(hbond)    S(metal)    S(lipo)     H(rot)  DE(clash)    DE(int)     intcor
      9.42     -14.24       1.66        0.00      57.54       1.37       0.08       4.74       ----

> <Gold.Chemscore.Fitness>
9.4178

> <Gold.Chemscore.DG>
-14.2368

> <Gold.Chemscore.ZeroCoef>
-5.4800

> <Gold.Chemscore.Hbond>
1.6590

> <Gold.Chemscore.Metal>
0.0000

> <Gold.Chemscore.Lipo>
57.5388

> <Gold.Chemscore.Internal_Hbond>
0.0000

> <Gold.Chemscore.DEClash>
0.0797

> <Gold.Chemscore.DEInternal>
4.7392

> <Gold.Chemscore.Rot>
1.3735

> <Gold.Chemscore.Internal.Correction>
   9.000000E+99

> <Gold.Chemscore.Hbonds>
donor molecule, donor type, donor heavy atom, donor atom, acceptor molecule, acceptor atom, score
      L1  H     3    24       P1  7948  0.19
      L1  H    11    34       P1  7948  0.16
      P1  H  7989  7998       L1     7  0.29

> <Gold.Chemscore.Hbond.Weighted>
-5.5409

> <Gold.Chemscore.Metal.Weighted>
-0.0000

> <Gold.Chemscore.Lipo.Weighted>
-6.7320

> <Gold.Chemscore.Internal_Hbond.Weighted>
0.0000

> <Gold.Chemscore.DEClash.Weighted>
0.0797

> <Gold.Chemscore.DEInternal.Weighted>
4.7392

> <Gold.Chemscore.Rot.Weighted>
3.5162

> <Gold.Chemscore.Internal.Correction.Weighted>
   9.000000E+99

> <Gold.Protein.RotatedTorsions>
[ 6907 6896 6895 6894 ] final   87.18 input  -60.11 | X-H torsion
[ 7974 7965 7964 7962 ] final    1.14 input  175.53 | X-H torsion
[ 8008 7997 7996 7995 ] final -170.55 input   59.86 | X-H torsion
[ 10167 10162 10161 10158 ] final  167.36 input  -65.29 | X-H torsion
[ 10718 10713 10712 10709 ] final  -87.90 input   66.30 | X-H torsion
[ 10763 10752 10751 10750 ] final   99.10 input  -60.55 | X-H torsion
[ 11005 11000 10999 10996 ] final  -53.06 input  -57.11 | X-H torsion

> <Gold.Protein.ActiveResidues>
 VAL166  LYS551  ARG553  GLY616  TRP617  ASP618  TYR619  PRO620  LYS621  CYS622 
 ASP623  PHE694  ASN695  SER759  ASP760  ASP761  ALA762  ILE779  LEU786  VAL792 
 PHE793  MET794  SER795  GLU796  ALA797  LYS798  CYS799  TRP800  GLU811  SER814 

> <Gold.Protein.RotatedAtoms>
  152.5407  134.2317  159.8827 H   0  0  0  0  0  0  0  0  0  0  0  0  # atno 6907 bound_to 6896
  151.2289  133.4455  159.2610 H   0  0  0  0  0  0  0  0  0  0  0  0  # atno 6908 bound_to 6896
  151.0735  134.9826  159.8376 H   0  0  0  0  0  0  0  0  0  0  0  0  # atno 6909 bound_to 6896
  146.2438  140.1032  142.8347 H   0  0  0  0  0  0  0  0  0  0  0  0  # atno 7974 bound_to 7965
  155.9199  140.1072  157.1215 H   0  0  0  0  0  0  0  0  0  0  0  0  # atno 8008 bound_to 7997
  154.4052  140.1258  156.4730 H   0  0  0  0  0  0  0  0  0  0  0  0  # atno 8009 bound_to 7997
  155.7209  140.3470  155.5018 H   0  0  0  0  0  0  0  0  0  0  0  0  # atno 8010 bound_to 7997
  139.4943  144.3930  151.9496 H   0  0  0  0  0  0  0  0  0  0  0  0  # atno 10167 bound_to 10162
  155.9984  130.4816  150.4937 H   0  0  0  0  0  0  0  0  0  0  0  0  # atno 10718 bound_to 10713
  153.2972  135.4125  155.1220 H   0  0  0  0  0  0  0  0  0  0  0  0  # atno 10763 bound_to 10752
  154.8538  135.3532  154.5900 H   0  0  0  0  0  0  0  0  0  0  0  0  # atno 10764 bound_to 10752
  153.6325  135.7060  153.5328 H   0  0  0  0  0  0  0  0  0  0  0  0  # atno 10765 bound_to 10752
  141.0957  133.6625  156.4116 H   0  0  0  0  0  0  0  0  0  0  0  0  # atno 11005 bound_to 11000
  145.0551  140.9046  143.4972 LP  0  0  0  0  0  0  0  0  0  0  0  0  # atno 17320 bound_to 7965
  145.1137  139.2740  143.5624 LP  0  0  0  0  0  0  0  0  0  0  0  0  # atno 17321 bound_to 7965
  140.3368  144.3251  150.5975 LP  0  0  0  0  0  0  0  0  0  0  0  0  # atno 17342 bound_to 10162
  140.5599  143.2193  151.7783 LP  0  0  0  0  0  0  0  0  0  0  0  0  # atno 17343 bound_to 10162
  157.2930  131.0630  151.2121 LP  0  0  0  0  0  0  0  0  0  0  0  0  # atno 17370 bound_to 10713
  157.3127  130.6898  149.6225 LP  0  0  0  0  0  0  0  0  0  0  0  0  # atno 17371 bound_to 10713
  140.5147  134.6362  157.5297 LP  0  0  0  0  0  0  0  0  0  0  0  0  # atno 17394 bound_to 11000
  139.9793  134.7164  155.9890 LP  0  0  0  0  0  0  0  0  0  0  0  0  # atno 17395 bound_to 11000

$$$$
