AV-unprocessed.smi:397|AV-procd|sdf|2488|dock6
  -GOLD-   2262022433D 1   1.00000     0.00000
 Structure written by MMmdl.
 37 38  0  0  0  0  0  0  0  0  1 V2000
  146.9483  139.6296  153.3779 C   0  0  0  0  0  0  0  0  0  0  0  0
  146.7700  140.4760  154.4995 O   0  0  0  0  0  0  0  0  0  0  0  0
  147.6239  141.6080  154.4696 C   0  0  0  0  0  0  0  0  0  0  0  0
  149.0910  141.1552  154.5066 C   0  0  0  0  0  0  0  0  0  0  0  0
  149.4714  140.6809  155.8326 N   0  0  0  0  0  0  0  0  0  0  0  0
  150.7194  140.3751  156.2176 C   0  0  0  0  0  0  0  0  0  0  0  0
  151.6926  140.4374  155.4648 O   0  0  0  0  0  0  0  0  0  0  0  0
  150.8763  139.9270  157.6787 C   0  0  0  0  0  0  0  0  0  0  0  0
  151.6652  140.8699  158.5030 N   0  0  0  0  0  0  0  0  0  0  0  0
  152.9738  140.4896  158.8923 C   0  0  0  0  0  0  0  0  0  0  0  0
  153.4496  139.4057  158.5487 O   0  0  0  0  0  0  0  0  0  0  0  0
  153.6895  141.4578  159.7166 C   0  0  0  0  0  0  0  0  0  0  0  0
  155.0120  141.1139  160.1229 C   0  0  0  0  0  0  0  0  0  0  0  0
  156.0770  140.8285  160.4747 N   0  0  0  0  0  0  0  0  0  0  0  0
  153.1180  142.6262  160.0730 C   0  0  0  0  0  0  0  0  0  0  0  0
  151.8359  142.9808  159.6944 N   0  0  0  0  0  0  0  0  0  0  0  0
  151.2146  144.2320  160.0806 C   0  0  0  0  0  0  0  0  0  0  0  0
  150.6623  145.1594  159.0187 C   0  0  0  0  0  0  0  0  0  0  0  0
  151.9077  145.5455  159.7846 C   0  0  0  0  0  0  0  0  0  0  0  0
  151.0725  142.0954  158.8959 C   0  0  0  0  0  0  0  0  0  0  0  0
  149.9215  142.3707  158.5482 O   0  0  0  0  0  0  0  0  0  0  0  0
  146.2698  138.7797  153.4501 H   0  0  0  0  0  0  0  0  0  0  0  0
  147.9676  139.2438  153.3338 H   0  0  0  0  0  0  0  0  0  0  0  0
  146.7323  140.1556  152.4473 H   0  0  0  0  0  0  0  0  0  0  0  0
  147.4354  142.2078  153.5777 H   0  0  0  0  0  0  0  0  0  0  0  0
  147.4164  142.2389  155.3352 H   0  0  0  0  0  0  0  0  0  0  0  0
  149.2284  140.3258  153.8129 H   0  0  0  0  0  0  0  0  0  0  0  0
  149.7517  141.9540  154.1652 H   0  0  0  0  0  0  0  0  0  0  0  0
  148.7320  140.5956  156.5147 H   0  0  0  0  0  0  0  0  0  0  0  0
  149.8842  139.7794  158.1090 H   0  0  0  0  0  0  0  0  0  0  0  0
  151.3143  138.9278  157.6846 H   0  0  0  0  0  0  0  0  0  0  0  0
  153.6982  143.3029  160.6819 H   0  0  0  0  0  0  0  0  0  0  0  0
  150.6435  144.2449  161.0071 H   0  0  0  0  0  0  0  0  0  0  0  0
  150.7757  144.8827  157.9728 H   0  0  0  0  0  0  0  0  0  0  0  0
  149.7449  145.6950  159.2545 H   0  0  0  0  0  0  0  0  0  0  0  0
  151.8125  146.3357  160.5266 H   0  0  0  0  0  0  0  0  0  0  0  0
  152.8552  145.5308  159.2509 H   0  0  0  0  0  0  0  0  0  0  0  0
  1  2  1  0  0  0  0
  1 22  1  0  0  0  0
  1 23  1  0  0  0  0
  1 24  1  0  0  0  0
  2  3  1  0  0  0  0
  3  4  1  0  0  0  0
  3 25  1  0  0  0  0
  3 26  1  0  0  0  0
  4  5  1  0  0  0  0
  4 27  1  0  0  0  0
  4 28  1  0  0  0  0
  5  6  1  0  0  0  0
  5 29  1  0  0  0  0
  6  7  2  0  0  0  0
  6  8  1  0  0  0  0
  8  9  1  0  0  0  0
  8 30  1  0  0  0  0
  8 31  1  0  0  0  0
  9 20  1  0  0  0  0
  9 10  1  0  0  0  0
 10 11  2  0  0  0  0
 10 12  1  0  0  0  0
 12 13  1  0  0  0  0
 12 15  2  0  0  0  0
 13 14  3  0  0  0  0
 15 16  1  0  0  0  0
 15 32  1  0  0  0  0
 16 17  1  0  0  0  0
 16 20  1  0  0  0  0
 17 19  1  0  0  0  0
 17 18  1  0  0  0  0
 17 33  1  0  0  0  0
 18 19  1  0  0  0  0
 18 34  1  0  0  0  0
 18 35  1  0  0  0  0
 19 36  1  0  0  0  0
 19 37  1  0  0  0  0
 20 21  2  0  0  0  0
M  END
> <s_m_source_file>
AV-unprocessed.smi

> <i_m_source_file_index>
397

> <i_lp_mmshare_version>
43012

> <i_f3d_flags>
0

> <s_epik_input>
W0NIM11PW0NIMl1bQ0gyXVtOSF1DKD1PKVtDSDJdbjFjKD1PKWMoQyNOKVtjSF1uKGMxPU8pW0NIXTJbQ0gyXVtDSDJdMg==

> <s_epik_cmdline>
J2VwaWtfcHl0aG9uJywgJy1waCcsICc3LjAnLCAnLXRuJywgJzgnLCAnLW1hJywgJzIwMCcsICctbWV0YWxfYmluZGluZycsICctaW1hZScsICc8aW5maWxlLm1hZT4nLCAnLW9tYWUnLCAnPG91dGZpbGUubWFlPic=

> <r_lp_tautomer_probability>
1

> <r_epik_Ionization_Penalty>
2.64697e-08

> <r_epik_Ionization_Penalty_Charging>
8.39351e-11

> <r_epik_Ionization_Penalty_Neutral>
2.63858e-08

> <r_epik_State_Penalty>
-0

> <r_epik_Charging_Adjusted_Penalty>
8.39351e-11

> <i_epik_Tot_Q>
0

> <i_epik_Tot_abs_Q>
0

> <r_epik_Metal_State_Penalty>
-0

> <b_epik_Metal_Only>
0

> <s_lp_Force_Field>
OPLS_2005

> <r_lp_Energy>
30.955

> <b_lp_Chiralities_Consistent>
1

> <s_lp_Variant>
AV-unprocessed.smi:397-1

> <Gold.Version>
5.8.1

> <Gold.Id.Protein>
6NUR|6NUR_protein|mol2

> <Gold.PLP.Fitness>
49.5667

> <Gold.PLP.PLP>
-44.9947

> <Gold.PLP.part.hbond>
-3.0000

> <Gold.PLP.part.metal>
0.0000

> <Gold.PLP.part.buried>
-3.9554

> <Gold.PLP.part.nonpolar>
-37.6650

> <Gold.PLP.part.repulsive>
0.3095

> <Gold.PLP.ligand.clash>
0.0000

> <Gold.PLP.ligand.torsion>
0.3242

> <Gold.PLP.Chemscore.Hbond>
1.6860

> <Gold.PLP.Chemscore.CHOScore>
0.0000

> <Gold.PLP.Chemscore.Metal>
0.0000

> <Gold.Chemscore.Hbonds>
donor molecule, donor type, donor heavy atom, donor atom, acceptor molecule, acceptor atom, score
      P1  H  7989  7998       L1     7  0.78
      P1  H  7997  8008       L1    11  0.95

> <Gold.PLP.Chemscore.Internal.Correction>
0.1623

> <Gold.Rescore>
     Score         DG    S(hbond)    S(metal)    S(lipo)     H(rot)  DE(clash)    DE(int)     intcor
     10.63     -12.12       0.96        0.00      83.18       2.46       0.04       1.45       ----

> <Gold.Chemscore.Fitness>
10.6305

> <Gold.Chemscore.DG>
-12.1198

> <Gold.Chemscore.ZeroCoef>
-5.4800

> <Gold.Chemscore.Hbond>
0.9616

> <Gold.Chemscore.Metal>
0.0000

> <Gold.Chemscore.Lipo>
83.1825

> <Gold.Chemscore.Internal_Hbond>
0.0000

> <Gold.Chemscore.DEClash>
0.0440

> <Gold.Chemscore.DEInternal>
1.4453

> <Gold.Chemscore.Rot>
2.4626

> <Gold.Chemscore.Internal.Correction>
   9.000000E+99

> <Gold.Chemscore.Hbonds>
donor molecule, donor type, donor heavy atom, donor atom, acceptor molecule, acceptor atom, score
      P1  H  7989  7998       L1     7  0.75
      P1  H  7997  8008       L1    11  0.21

> <Gold.Chemscore.Hbond.Weighted>
-3.2118

> <Gold.Chemscore.Metal.Weighted>
-0.0000

> <Gold.Chemscore.Lipo.Weighted>
-9.7323

> <Gold.Chemscore.Internal_Hbond.Weighted>
0.0000

> <Gold.Chemscore.DEClash.Weighted>
0.0440

> <Gold.Chemscore.DEInternal.Weighted>
1.4453

> <Gold.Chemscore.Rot.Weighted>
6.3043

> <Gold.Chemscore.Internal.Correction.Weighted>
   9.000000E+99

> <Gold.Protein.RotatedTorsions>
[ 6907 6896 6895 6894 ] final   37.04 input  -60.11 | X-H torsion
[ 7974 7965 7964 7962 ] final  159.93 input  175.53 | X-H torsion
[ 8008 7997 7996 7995 ] final  -84.23 input   59.86 | X-H torsion
[ 10167 10162 10161 10158 ] final -165.49 input  -65.29 | X-H torsion
[ 10718 10713 10712 10709 ] final  124.29 input   66.30 | X-H torsion
[ 10763 10752 10751 10750 ] final   62.78 input  -60.55 | X-H torsion
[ 11005 11000 10999 10996 ] final   49.58 input  -57.11 | X-H torsion

> <Gold.Protein.ActiveResidues>
 VAL166  LYS551  ARG553  GLY616  TRP617  ASP618  TYR619  PRO620  LYS621  CYS622 
 ASP623  PHE694  ASN695  SER759  ASP760  ASP761  ALA762  ILE779  LEU786  VAL792 
 PHE793  MET794  SER795  GLU796  ALA797  LYS798  CYS799  TRP800  GLU811  SER814 

> <Gold.Protein.RotatedAtoms>
  152.1379  134.9085  160.0555 H   0  0  0  0  0  0  0  0  0  0  0  0  # atno 6907 bound_to 6896
  152.0164  133.3876  159.4249 H   0  0  0  0  0  0  0  0  0  0  0  0  # atno 6908 bound_to 6896
  150.6862  134.3595  159.4988 H   0  0  0  0  0  0  0  0  0  0  0  0  # atno 6909 bound_to 6896
  144.7764  139.7686  143.6277 H   0  0  0  0  0  0  0  0  0  0  0  0  # atno 7974 bound_to 7965
  154.6275  140.0608  156.9691 H   0  0  0  0  0  0  0  0  0  0  0  0  # atno 8008 bound_to 7997
  155.1718  140.3291  155.4373 H   0  0  0  0  0  0  0  0  0  0  0  0  # atno 8009 bound_to 7997
  156.2465  140.1913  156.6820 H   0  0  0  0  0  0  0  0  0  0  0  0  # atno 8010 bound_to 7997
  139.6178  144.0685  152.1904 H   0  0  0  0  0  0  0  0  0  0  0  0  # atno 10167 bound_to 10162
  157.5597  131.1090  150.8560 H   0  0  0  0  0  0  0  0  0  0  0  0  # atno 10718 bound_to 10713
  152.9994  135.5452  154.6248 H   0  0  0  0  0  0  0  0  0  0  0  0  # atno 10763 bound_to 10752
  154.5539  135.2828  155.0985 H   0  0  0  0  0  0  0  0  0  0  0  0  # atno 10764 bound_to 10752
  154.2214  135.6450  153.5198 H   0  0  0  0  0  0  0  0  0  0  0  0  # atno 10765 bound_to 10752
  140.1091  134.4978  155.8693 H   0  0  0  0  0  0  0  0  0  0  0  0  # atno 11005 bound_to 11000
  146.1946  139.5205  142.9783 LP  0  0  0  0  0  0  0  0  0  0  0  0  # atno 17320 bound_to 7965
  145.6174  141.0329  143.1933 LP  0  0  0  0  0  0  0  0  0  0  0  0  # atno 17321 bound_to 7965
  140.0319  144.6074  150.7481 LP  0  0  0  0  0  0  0  0  0  0  0  0  # atno 17342 bound_to 10162
  140.7362  143.2750  151.3768 LP  0  0  0  0  0  0  0  0  0  0  0  0  # atno 17343 bound_to 10162
  156.9061  130.5264  149.5281 LP  0  0  0  0  0  0  0  0  0  0  0  0  # atno 17370 bound_to 10713
  156.0651  130.5696  150.9272 LP  0  0  0  0  0  0  0  0  0  0  0  0  # atno 17371 bound_to 10713
  141.2126  133.6721  156.6670 LP  0  0  0  0  0  0  0  0  0  0  0  0  # atno 17394 bound_to 11000
  140.3115  134.8082  157.4180 LP  0  0  0  0  0  0  0  0  0  0  0  0  # atno 17395 bound_to 11000

$$$$
