AV-unprocessed.smi:511|AV-procd|sdf|2766|dock7
  -GOLD-   2262023233D 1   1.00000     0.00000
 Structure written by MMmdl.
 45 47  0  0  0  0  0  0  0  0  3 V2000
  146.3130  142.9973  154.1628 C   0  0  0  0  0  0  0  0  0  0  0  0
  147.7020  142.7977  154.3573 O   0  0  0  0  0  0  0  0  0  0  0  0
  147.9942  141.5228  154.9034 C   0  0  0  0  0  0  0  0  0  0  0  0
  149.2165  140.9414  154.1818 C   0  0  0  0  0  0  0  0  0  0  0  0
  149.2611  139.4852  154.2951 N   0  0  0  0  0  0  0  0  0  0  0  0
  148.2749  138.5863  154.0325 C   0  0  0  0  0  0  0  0  0  0  0  0
  147.0332  138.9730  153.5284 N   0  0  0  0  0  0  0  0  0  0  0  0
  146.7253  139.1326  152.1087 C   0  0  0  0  0  0  0  0  0  0  0  0
  145.9452  137.9211  151.5647 C   0  0  0  0  0  0  0  0  0  0  0  0
  144.7079  137.6882  152.3477 N   0  3  0  0  0  0  0  0  0  0  0  0
  143.9274  136.5355  151.8500 C   0  0  0  0  0  0  0  0  0  0  0  0
  144.9832  137.6072  153.8018 C   0  0  0  0  0  0  0  0  0  0  0  0
  145.7839  138.8345  154.2705 C   0  0  0  0  0  0  0  0  0  0  0  0
  148.5847  137.3189  154.3116 N   0  0  0  0  0  0  0  0  0  0  0  0
  149.8931  137.4122  154.7615 C   0  0  0  0  0  0  0  0  0  0  0  0
  150.3224  138.7027  154.7611 C   0  0  0  0  0  0  0  0  0  0  0  0
  151.6689  139.1219  155.2084 C   0  0  0  0  0  0  0  0  0  0  0  0
  151.9990  140.3059  155.2022 O   0  0  0  0  0  0  0  0  0  0  0  0
  152.4365  138.0576  155.6041 N   0  5  0  0  0  0  0  0  0  0  0  0
  152.0453  136.7359  155.6157 C   0  0  0  0  0  0  0  0  0  0  0  0
  152.8017  135.8368  155.9853 O   0  0  0  0  0  0  0  0  0  0  0  0
  150.7822  136.3963  155.2066 N   0  0  0  0  0  0  0  0  0  0  0  0
  150.3366  135.0000  155.2130 C   0  0  0  0  0  0  0  0  0  0  0  0
  146.1405  143.9897  153.7464 H   0  0  0  0  0  0  0  0  0  0  0  0
  145.7680  142.9288  155.1055 H   0  0  0  0  0  0  0  0  0  0  0  0
  145.9031  142.2639  153.4673 H   0  0  0  0  0  0  0  0  0  0  0  0
  148.1891  141.6101  155.9732 H   0  0  0  0  0  0  0  0  0  0  0  0
  147.1363  140.8598  154.7786 H   0  0  0  0  0  0  0  0  0  0  0  0
  149.1870  141.2421  153.1380 H   0  0  0  0  0  0  0  0  0  0  0  0
  150.1400  141.3608  154.5793 H   0  0  0  0  0  0  0  0  0  0  0  0
  146.1579  140.0525  151.9622 H   0  0  0  0  0  0  0  0  0  0  0  0
  147.6473  139.2347  151.5363 H   0  0  0  0  0  0  0  0  0  0  0  0
  145.6911  138.0851  150.5170 H   0  0  0  0  0  0  0  0  0  0  0  0
  146.5738  137.0297  151.6061 H   0  0  0  0  0  0  0  0  0  0  0  0
  144.4889  135.6064  151.9560 H   0  0  0  0  0  0  0  0  0  0  0  0
  143.6778  136.6667  150.7966 H   0  0  0  0  0  0  0  0  0  0  0  0
  142.9934  136.4358  152.4037 H   0  0  0  0  0  0  0  0  0  0  0  0
  144.0428  137.5475  154.3506 H   0  0  0  0  0  0  0  0  0  0  0  0
  145.5401  136.6940  154.0190 H   0  0  0  0  0  0  0  0  0  0  0  0
  146.0018  138.7514  155.3361 H   0  0  0  0  0  0  0  0  0  0  0  0
  145.1920  139.7426  154.1475 H   0  0  0  0  0  0  0  0  0  0  0  0
  150.4306  134.5716  156.2120 H   0  0  0  0  0  0  0  0  0  0  0  0
  150.9418  134.4044  154.5283 H   0  0  0  0  0  0  0  0  0  0  0  0
  149.2954  134.8886  154.9110 H   0  0  0  0  0  0  0  0  0  0  0  0
  144.1313  138.5067  152.2147 H   0  0  0  0  0  0  0  0  0  0  0  0
  1  2  1  0  0  0  0
  1 24  1  0  0  0  0
  1 25  1  0  0  0  0
  1 26  1  0  0  0  0
  2  3  1  0  0  0  0
  3  4  1  0  0  0  0
  3 27  1  0  0  0  0
  3 28  1  0  0  0  0
  4  5  1  0  0  0  0
  4 29  1  0  0  0  0
  4 30  1  0  0  0  0
  5 16  1  0  0  0  0
  5  6  1  0  0  0  0
  6  7  1  0  0  0  0
  6 14  2  0  0  0  0
  7 13  1  0  0  0  0
  7  8  1  0  0  0  0
  8  9  1  0  0  0  0
  8 31  1  0  0  0  0
  8 32  1  0  0  0  0
  9 10  1  0  0  0  0
  9 33  1  0  0  0  0
  9 34  1  0  0  0  0
 10 11  1  0  0  0  0
 10 12  1  0  0  0  0
 10 45  1  0  0  0  0
 11 35  1  0  0  0  0
 11 36  1  0  0  0  0
 11 37  1  0  0  0  0
 12 13  1  0  0  0  0
 12 38  1  0  0  0  0
 12 39  1  0  0  0  0
 13 40  1  0  0  0  0
 13 41  1  0  0  0  0
 14 15  1  0  0  0  0
 15 22  1  0  0  0  0
 15 16  2  0  0  0  0
 16 17  1  0  0  0  0
 17 18  2  0  0  0  0
 17 19  1  0  0  0  0
 19 20  1  0  0  0  0
 20 21  2  0  0  0  0
 20 22  1  0  0  0  0
 22 23  1  0  0  0  0
 23 42  1  0  0  0  0
 23 43  1  0  0  0  0
 23 44  1  0  0  0  0
M  CHG  1  10   1
M  CHG  1  19  -1
M  END
> <s_m_source_file>
AV-unprocessed.smi

> <i_m_source_file_index>
511

> <i_lp_mmshare_version>
43012

> <i_f3d_flags>
0

> <s_epik_input>
W0NIM11uMWMoPU8pW25IXWMoPU8pYyhjMTIpbihbQ0gyXVtDSDJdT1tDSDNdKWMobjIpTjNbQ0gyXVtDSDJdTihbQ0gzXSlbQ0gyXVtDSDJdMw==

> <s_epik_cmdline>
J2VwaWtfcHl0aG9uJywgJy1waCcsICc3LjAnLCAnLXRuJywgJzgnLCAnLW1hJywgJzIwMCcsICctbWV0YWxfYmluZGluZycsICctaW1hZScsICc8aW5maWxlLm1hZT4nLCAnLW9tYWUnLCAnPG91dGZpbGUubWFlPic=

> <r_epik_Ionization_Penalty>
5.9833

> <r_epik_Ionization_Penalty_Charging>
0.125752

> <r_epik_Ionization_Penalty_Neutral>
5.85754

> <r_epik_State_Penalty>
5.9139

> <r_epik_Charging_Adjusted_Penalty>
6.03966

> <i_epik_Tot_Q>
0

> <i_epik_Tot_abs_Q>
2

> <r_epik_Metal_State_Penalty>
1.87741

> <b_epik_Metal_Only>
1

> <s_lp_Force_Field>
OPLS_2005

> <r_lp_Energy>
51.0512

> <b_lp_Chiralities_Consistent>
1

> <s_lp_Variant>
AV-unprocessed.smi:511-3

> <Gold.Version>
5.8.1

> <Gold.Id.Protein>
6NUR|6NUR_protein|mol2

> <Gold.PLP.Fitness>
40.6211

> <Gold.PLP.PLP>
-30.7440

> <Gold.PLP.part.hbond>
-5.9380

> <Gold.PLP.part.metal>
0.0000

> <Gold.PLP.part.buried>
1.3353

> <Gold.PLP.part.nonpolar>
-29.9903

> <Gold.PLP.part.repulsive>
3.3640

> <Gold.PLP.ligand.clash>
0.0000

> <Gold.PLP.ligand.torsion>
1.8410

> <Gold.PLP.Chemscore.Hbond>
4.3330

> <Gold.PLP.Chemscore.CHOScore>
0.0000

> <Gold.PLP.Chemscore.Metal>
0.0000

> <Gold.Chemscore.Hbonds>
donor molecule, donor type, donor heavy atom, donor atom, acceptor molecule, acceptor atom, score
      L1  H    10    45       P1 10175  2.00
      P1  H  7989  7998       L1    18  0.74
      P1  H  8022  8030       L1     2  0.34

> <Gold.PLP.Chemscore.Internal.Correction>
0.5601

> <Gold.Rescore>
     Score         DG    S(hbond)    S(metal)    S(lipo)     H(rot)  DE(clash)    DE(int)     intcor
      9.30     -12.99       1.35        0.00      58.28       1.49       2.06       1.63       ----

> <Gold.Chemscore.Fitness>
9.3040

> <Gold.Chemscore.DG>
-12.9915

> <Gold.Chemscore.ZeroCoef>
-5.4800

> <Gold.Chemscore.Hbond>
1.3506

> <Gold.Chemscore.Metal>
0.0000

> <Gold.Chemscore.Lipo>
58.2796

> <Gold.Chemscore.Internal_Hbond>
0.0000

> <Gold.Chemscore.DEClash>
2.0578

> <Gold.Chemscore.DEInternal>
1.6297

> <Gold.Chemscore.Rot>
1.4915

> <Gold.Chemscore.Internal.Correction>
   9.000000E+99

> <Gold.Chemscore.Hbonds>
donor molecule, donor type, donor heavy atom, donor atom, acceptor molecule, acceptor atom, score
      L1  H    10    45       P1 10175  0.94
      P1  H  7989  7998       L1    18  0.37
      P1  H  8022  8030       L1     2  0.12
      P1  H 10752 10763       L1    21  0.03

> <Gold.Chemscore.Hbond.Weighted>
-4.5112

> <Gold.Chemscore.Metal.Weighted>
-0.0000

> <Gold.Chemscore.Lipo.Weighted>
-6.8187

> <Gold.Chemscore.Internal_Hbond.Weighted>
0.0000

> <Gold.Chemscore.DEClash.Weighted>
2.0578

> <Gold.Chemscore.DEInternal.Weighted>
1.6297

> <Gold.Chemscore.Rot.Weighted>
3.8183

> <Gold.Chemscore.Internal.Correction.Weighted>
   9.000000E+99

> <Gold.Protein.RotatedTorsions>
[ 6907 6896 6895 6894 ] final -171.94 input  -60.11 | X-H torsion
[ 7974 7965 7964 7962 ] final  159.20 input  175.53 | X-H torsion
[ 8008 7997 7996 7995 ] final -128.84 input   59.86 | X-H torsion
[ 10167 10162 10161 10158 ] final  -98.35 input  -65.29 | X-H torsion
[ 10718 10713 10712 10709 ] final   47.98 input   66.30 | X-H torsion
[ 10763 10752 10751 10750 ] final  120.33 input  -60.55 | X-H torsion
[ 11005 11000 10999 10996 ] final  127.94 input  -57.11 | X-H torsion

> <Gold.Protein.ActiveResidues>
 VAL166  LYS551  ARG553  GLY616  TRP617  ASP618  TYR619  PRO620  LYS621  CYS622 
 ASP623  PHE694  ASN695  SER759  ASP760  ASP761  ALA762  ILE779  LEU786  VAL792 
 PHE793  MET794  SER795  GLU796  ALA797  LYS798  CYS799  TRP800  GLU811  SER814 

> <Gold.Protein.RotatedAtoms>
  151.5319  133.3447  159.2919 H   0  0  0  0  0  0  0  0  0  0  0  0  # atno 6907 bound_to 6896
  150.8588  134.7937  159.7078 H   0  0  0  0  0  0  0  0  0  0  0  0  # atno 6908 bound_to 6896
  152.4614  134.5184  159.9827 H   0  0  0  0  0  0  0  0  0  0  0  0  # atno 6909 bound_to 6896
  144.7803  139.7583  143.6262 H   0  0  0  0  0  0  0  0  0  0  0  0  # atno 7974 bound_to 7965
  155.2693  140.0439  157.3005 H   0  0  0  0  0  0  0  0  0  0  0  0  # atno 8008 bound_to 7997
  154.5663  140.2361  155.8227 H   0  0  0  0  0  0  0  0  0  0  0  0  # atno 8009 bound_to 7997
  156.2088  140.3005  155.9693 H   0  0  0  0  0  0  0  0  0  0  0  0  # atno 8010 bound_to 7997
  140.2738  143.3326  152.0508 H   0  0  0  0  0  0  0  0  0  0  0  0  # atno 10167 bound_to 10162
  157.4640  130.8214  149.7916 H   0  0  0  0  0  0  0  0  0  0  0  0  # atno 10718 bound_to 10713
  153.5969  135.3455  155.2931 H   0  0  0  0  0  0  0  0  0  0  0  0  # atno 10763 bound_to 10752
  154.8643  135.4218  154.2455 H   0  0  0  0  0  0  0  0  0  0  0  0  # atno 10764 bound_to 10752
  153.3275  135.7042  153.7048 H   0  0  0  0  0  0  0  0  0  0  0  0  # atno 10765 bound_to 10752
  139.9534  134.9618  156.8928 H   0  0  0  0  0  0  0  0  0  0  0  0  # atno 11005 bound_to 11000
  146.2008  139.5301  142.9744 LP  0  0  0  0  0  0  0  0  0  0  0  0  # atno 17320 bound_to 7965
  145.6068  141.0346  143.1988 LP  0  0  0  0  0  0  0  0  0  0  0  0  # atno 17321 bound_to 7965
  139.4981  144.6638  151.6403 LP  0  0  0  0  0  0  0  0  0  0  0  0  # atno 17342 bound_to 10162
  140.5868  143.9850  150.6300 LP  0  0  0  0  0  0  0  0  0  0  0  0  # atno 17343 bound_to 10162
  156.0041  130.3864  150.2494 LP  0  0  0  0  0  0  0  0  0  0  0  0  # atno 17370 bound_to 10713
  157.0673  131.0107  151.3202 LP  0  0  0  0  0  0  0  0  0  0  0  0  # atno 17371 bound_to 10713
  140.5666  134.0484  155.7416 LP  0  0  0  0  0  0  0  0  0  0  0  0  # atno 17394 bound_to 11000
  141.1201  133.9475  157.2746 LP  0  0  0  0  0  0  0  0  0  0  0  0  # atno 17395 bound_to 11000

$$$$
