AV-unprocessed.smi:2822|AV-procd|sdf|10883|dock1
  -GOLD-   2272015323D 1   1.00000     0.00000
 Structure written by MMmdl.
 39 41  0  0  0  0  0  0  0  0  1 V2000
  146.6582  142.7356  154.2951 Cl  0  0  0  0  0  0  0  0  0  0  0  0
  147.7063  141.4101  153.9278 C   0  0  0  0  0  0  0  0  0  0  0  0
  147.2666  140.3929  153.0560 C   0  0  0  0  0  0  0  0  0  0  0  0
  148.0197  139.3255  152.7172 N   0  0  0  0  0  0  0  0  0  0  0  0
  149.2577  139.2381  153.2465 C   0  0  0  0  0  0  0  0  0  0  0  0
  149.7955  140.1984  154.1265 C   0  0  0  0  0  0  0  0  0  0  0  0
  149.0044  141.3169  154.4810 C   0  0  0  0  0  0  0  0  0  0  0  0
  149.4599  142.3179  155.3527 N   0  0  0  0  0  0  0  0  0  0  0  0
  150.7708  142.2267  155.9770 C   0  0  0  0  0  0  0  0  0  0  0  0
  150.7164  142.6025  157.4640 C   0  0  1  0  0  0  0  0  0  0  0  0
  151.9114  142.0180  158.2401 C   0  0  0  0  0  0  0  0  0  0  0  0
  151.9143  142.4379  159.6358 N   0  0  0  0  0  0  0  0  0  0  0  0
  153.0610  141.8843  160.3546 C   0  0  0  0  0  0  0  0  0  0  0  0
  153.0705  142.2832  161.8390 C   0  0  0  0  0  0  0  0  0  0  0  0
  153.0415  143.8116  161.9803 C   0  0  0  0  0  0  0  0  0  0  0  0
  151.8669  144.3933  161.1786 C   0  0  0  0  0  0  0  0  0  0  0  0
  151.8989  143.9015  159.7167 C   0  0  2  0  0  0  0  0  0  0  0  0
  150.7136  144.4827  158.9196 C   0  0  0  0  0  0  0  0  0  0  0  0
  150.7636  144.0231  157.5727 O   0  0  0  0  0  0  0  0  0  0  0  0
  146.2806  140.4370  152.6172 H   0  0  0  0  0  0  0  0  0  0  0  0
  149.8395  138.3743  152.9608 H   0  0  0  0  0  0  0  0  0  0  0  0
  150.7945  140.0599  154.5113 H   0  0  0  0  0  0  0  0  0  0  0  0
  148.9722  143.2019  155.3861 H   0  0  0  0  0  0  0  0  0  0  0  0
  151.1284  141.2014  155.8776 H   0  0  0  0  0  0  0  0  0  0  0  0
  151.4780  142.8708  155.4523 H   0  0  0  0  0  0  0  0  0  0  0  0
  149.7862  142.2325  157.9002 H   0  0  0  0  0  0  0  0  0  0  0  0
  151.8812  140.9291  158.1857 H   0  0  0  0  0  0  0  0  0  0  0  0
  152.8410  142.3279  157.7598 H   0  0  0  0  0  0  0  0  0  0  0  0
  153.0498  140.7964  160.2789 H   0  0  0  0  0  0  0  0  0  0  0  0
  153.9881  142.2165  159.8848 H   0  0  0  0  0  0  0  0  0  0  0  0
  152.2039  141.8501  162.3402 H   0  0  0  0  0  0  0  0  0  0  0  0
  153.9532  141.8762  162.3329 H   0  0  0  0  0  0  0  0  0  0  0  0
  152.9622  144.0948  163.0302 H   0  0  0  0  0  0  0  0  0  0  0  0
  153.9789  144.2307  161.6125 H   0  0  0  0  0  0  0  0  0  0  0  0
  150.9265  144.0985  161.6463 H   0  0  0  0  0  0  0  0  0  0  0  0
  151.9023  145.4828  161.2120 H   0  0  0  0  0  0  0  0  0  0  0  0
  152.8147  144.2814  159.2604 H   0  0  0  0  0  0  0  0  0  0  0  0
  149.7614  144.1975  159.3704 H   0  0  0  0  0  0  0  0  0  0  0  0
  150.7526  145.5722  158.9187 H   0  0  0  0  0  0  0  0  0  0  0  0
  1  2  1  0  0  0  0
  2  7  1  0  0  0  0
  2  3  2  0  0  0  0
  3  4  1  0  0  0  0
  3 20  1  0  0  0  0
  4  5  2  0  0  0  0
  5  6  1  0  0  0  0
  5 21  1  0  0  0  0
  6  7  2  0  0  0  0
  6 22  1  0  0  0  0
  7  8  1  0  0  0  0
  8  9  1  0  0  0  0
  8 23  1  0  0  0  0
  9 10  1  0  0  0  0
  9 24  1  0  0  0  0
  9 25  1  0  0  0  0
 10 19  1  0  0  0  0
 10 11  1  0  0  0  0
 10 26  1  0  0  0  0
 11 12  1  0  0  0  0
 11 27  1  0  0  0  0
 11 28  1  0  0  0  0
 12 17  1  0  0  0  0
 12 13  1  0  0  0  0
 13 14  1  0  0  0  0
 13 29  1  0  0  0  0
 13 30  1  0  0  0  0
 14 15  1  0  0  0  0
 14 31  1  0  0  0  0
 14 32  1  0  0  0  0
 15 16  1  0  0  0  0
 15 33  1  0  0  0  0
 15 34  1  0  0  0  0
 16 17  1  0  0  0  0
 16 35  1  0  0  0  0
 16 36  1  0  0  0  0
 17 18  1  0  0  0  0
 17 37  1  0  0  0  0
 18 19  1  0  0  0  0
 18 38  1  0  0  0  0
 18 39  1  0  0  0  0
M  END
> <s_m_source_file>
AV-unprocessed.smi

> <i_m_source_file_index>
2822

> <i_lp_mmshare_version>
43012

> <i_f3d_flags>
0

> <s_epik_input>
Q2xjMVtjSF1uW2NIXVtjSF1jMVtOSF1bQ0gyXVtDQEhdKFtDSDJdMilPW0NIMl1bQ0BASF0oTjIzKVtDSDJdW0NIMl1bQ0gyXVtDSDJdMw==

> <s_epik_cmdline>
J2VwaWtfcHl0aG9uJywgJy1waCcsICc3LjAnLCAnLXRuJywgJzgnLCAnLW1hJywgJzIwMCcsICctbWV0YWxfYmluZGluZycsICctaW1hZScsICc8aW5maWxlLm1hZT4nLCAnLW9tYWUnLCAnPG91dGZpbGUubWFlPic=

> <r_lp_tautomer_probability>
0.999999

> <r_epik_Ionization_Penalty>
2.10064

> <r_epik_Ionization_Penalty_Charging>
0

> <r_epik_Ionization_Penalty_Neutral>
2.10064

> <r_epik_State_Penalty>
2.1757

> <r_epik_Charging_Adjusted_Penalty>
2.1757

> <i_epik_Tot_Q>
0

> <i_epik_Tot_abs_Q>
0

> <r_epik_Metal_State_Penalty>
1.25425

> <b_epik_Metal_Only>
0

> <s_lp_Force_Field>
OPLS_2005

> <r_lp_Energy>
37.6932

> <b_lp_Chiralities_Consistent>
1

> <s_lp_Variant>
AV-unprocessed.smi:2822-24

> <Gold.Version>
5.8.1

> <Gold.Id.Protein>
6NUR|6NUR_protein|mol2

> <Gold.PLP.Fitness>
49.0563

> <Gold.PLP.PLP>
-40.7874

> <Gold.PLP.part.hbond>
-1.2030

> <Gold.PLP.part.metal>
0.0000

> <Gold.PLP.part.buried>
-4.8226

> <Gold.PLP.part.nonpolar>
-36.9505

> <Gold.PLP.part.repulsive>
2.3852

> <Gold.PLP.ligand.clash>
0.0000

> <Gold.PLP.ligand.torsion>
0.3270

> <Gold.PLP.Chemscore.Hbond>
1.0000

> <Gold.PLP.Chemscore.CHOScore>
1.9714

> <Gold.PLP.Chemscore.Metal>
0.0000

> <Gold.Chemscore.Hbonds>
donor molecule, donor type, donor heavy atom, donor atom, acceptor molecule, acceptor atom, score
      L1  H     8    23       P1  8028  1.00
      L1  C     3    20       P1 10175  0.84
      L1  C     5    21       P1  7948  0.95

> <Gold.PLP.Chemscore.Internal.Correction>
0.0087

> <Gold.Rescore>
     Score         DG    S(hbond)    S(metal)    S(lipo)     H(rot)  DE(clash)    DE(int)     intcor
     18.65     -20.92       1.00        0.00     128.59       1.15       1.87       0.39       ----

> <Gold.Chemscore.Fitness>
18.6544

> <Gold.Chemscore.DG>
-20.9150

> <Gold.Chemscore.ZeroCoef>
-5.4800

> <Gold.Chemscore.Hbond>
0.9997

> <Gold.Chemscore.Metal>
0.0000

> <Gold.Chemscore.Lipo>
128.5878

> <Gold.Chemscore.Internal_Hbond>
0.0000

> <Gold.Chemscore.DEClash>
1.8730

> <Gold.Chemscore.DEInternal>
0.3876

> <Gold.Chemscore.Rot>
1.1519

> <Gold.Chemscore.Internal.Correction>
   9.000000E+99

> <Gold.Chemscore.Hbonds>
donor molecule, donor type, donor heavy atom, donor atom, acceptor molecule, acceptor atom, score
      L1  H     8    23       P1  8028  0.91

> <Gold.Chemscore.Hbond.Weighted>
-3.3390

> <Gold.Chemscore.Metal.Weighted>
-0.0000

> <Gold.Chemscore.Lipo.Weighted>
-15.0448

> <Gold.Chemscore.Internal_Hbond.Weighted>
0.0000

> <Gold.Chemscore.DEClash.Weighted>
1.8730

> <Gold.Chemscore.DEInternal.Weighted>
0.3876

> <Gold.Chemscore.Rot.Weighted>
2.9487

> <Gold.Chemscore.Internal.Correction.Weighted>
   9.000000E+99

> <Gold.Protein.RotatedTorsions>
[ 6907 6896 6895 6894 ] final   -5.68 input  -60.11 | X-H torsion
[ 7974 7965 7964 7962 ] final   83.53 input  175.53 | X-H torsion
[ 8008 7997 7996 7995 ] final  -50.43 input   59.86 | X-H torsion
[ 10167 10162 10161 10158 ] final  -47.57 input  -65.29 | X-H torsion
[ 10718 10713 10712 10709 ] final   16.20 input   66.30 | X-H torsion
[ 10763 10752 10751 10750 ] final  -68.02 input  -60.55 | X-H torsion
[ 11005 11000 10999 10996 ] final -123.59 input  -57.11 | X-H torsion

> <Gold.Protein.ActiveResidues>
 VAL166  LYS551  ARG553  GLY616  TRP617  ASP618  TYR619  PRO620  LYS621  CYS622 
 ASP623  PHE694  ASN695  SER759  ASP760  ASP761  ALA762  ILE779  LEU786  VAL792 
 PHE793  MET794  SER795  GLU796  ALA797  LYS798  CYS799  TRP800  GLU811  SER814 

> <Gold.Protein.RotatedAtoms>
  151.4777  135.1050  159.9768 H   0  0  0  0  0  0  0  0  0  0  0  0  # atno 6907 bound_to 6896
  152.4791  133.8207  159.7062 H   0  0  0  0  0  0  0  0  0  0  0  0  # atno 6908 bound_to 6896
  150.8850  133.7258  159.2947 H   0  0  0  0  0  0  0  0  0  0  0  0  # atno 6909 bound_to 6896
  145.6106  139.2368  143.2194 H   0  0  0  0  0  0  0  0  0  0  0  0  # atno 7974 bound_to 7965
  154.4062  140.1272  156.4664 H   0  0  0  0  0  0  0  0  0  0  0  0  # atno 8008 bound_to 7997
  155.7222  140.3492  155.5001 H   0  0  0  0  0  0  0  0  0  0  0  0  # atno 8009 bound_to 7997
  155.9204  140.1051  157.1201 H   0  0  0  0  0  0  0  0  0  0  0  0  # atno 8010 bound_to 7997
  140.6769  143.2778  151.3946 H   0  0  0  0  0  0  0  0  0  0  0  0  # atno 10167 bound_to 10162
  157.0644  130.6322  149.5792 H   0  0  0  0  0  0  0  0  0  0  0  0  # atno 10718 bound_to 10713
  154.3830  135.6070  153.5801 H   0  0  0  0  0  0  0  0  0  0  0  0  # atno 10763 bound_to 10752
  152.9788  135.5865  154.4388 H   0  0  0  0  0  0  0  0  0  0  0  0  # atno 10764 bound_to 10752
  154.4160  135.2845  155.1984 H   0  0  0  0  0  0  0  0  0  0  0  0  # atno 10765 bound_to 10752
  140.9907  134.0543  157.3658 H   0  0  0  0  0  0  0  0  0  0  0  0  # atno 11005 bound_to 11000
  146.1507  140.6929  142.9323 LP  0  0  0  0  0  0  0  0  0  0  0  0  # atno 17320 bound_to 7965
  144.7271  140.4559  143.6965 LP  0  0  0  0  0  0  0  0  0  0  0  0  # atno 17321 bound_to 7965
  139.6067  144.1182  152.2256 LP  0  0  0  0  0  0  0  0  0  0  0  0  # atno 17342 bound_to 10162
  140.0584  144.5877  150.7282 LP  0  0  0  0  0  0  0  0  0  0  0  0  # atno 17343 bound_to 10162
  155.9969  130.5039  150.7513 LP  0  0  0  0  0  0  0  0  0  0  0  0  # atno 17370 bound_to 10713
  157.4928  131.0912  151.0406 LP  0  0  0  0  0  0  0  0  0  0  0  0  # atno 17371 bound_to 10713
  139.8991  135.0157  156.7179 LP  0  0  0  0  0  0  0  0  0  0  0  0  # atno 17394 bound_to 11000
  140.7044  133.9278  155.8045 LP  0  0  0  0  0  0  0  0  0  0  0  0  # atno 17395 bound_to 11000

$$$$
