AV-unprocessed.smi:1483|AV-procd|sdf|5992|dock5
  -GOLD-   22720 6 83D 1   1.00000     0.00000
 Structure written by MMmdl.
 50 51  0  0  0  0  0  0  0  0  3 V2000
  151.0778  145.4368  158.7879 C   0  0  0  0  0  0  0  0  0  0  0  0
  151.3644  143.9601  158.6165 C   0  0  0  0  0  0  0  0  0  0  0  0
  152.2872  143.2721  159.4334 C   0  0  0  0  0  0  0  0  0  0  0  0
  152.5030  141.8948  159.2197 C   0  0  0  0  0  0  0  0  0  0  0  0
  151.7922  141.2321  158.1944 C   0  0  0  0  0  0  0  0  0  0  0  0
  152.0025  139.7503  157.9382 C   0  0  0  0  0  0  0  0  0  0  0  0
  151.8345  139.4419  156.4505 C   0  0  0  0  0  0  0  0  0  0  0  0
  152.8224  139.4094  155.7180 O   0  0  0  0  0  0  0  0  0  0  0  0
  150.5823  139.2074  156.0270 N   0  0  0  0  0  0  0  0  0  0  0  0
  150.1878  138.8643  154.6604 C   0  0  2  0  0  0  0  0  0  0  0  0
  148.7316  138.3702  154.6175 C   0  0  0  0  0  0  0  0  0  0  0  0
  148.5714  136.9798  155.2584 C   0  0  0  0  0  0  0  0  0  0  0  0
  149.4848  135.9885  154.6300 N   0  3  2  0  0  0  0  0  0  0  0  0
  149.2763  134.6023  155.1235 C   0  0  0  0  0  0  0  0  0  0  0  0
  149.6349  133.5265  154.0755 C   0  0  0  0  0  0  0  0  0  0  0  0
  148.4415  133.2606  153.1455 C   0  0  0  0  0  0  0  0  0  0  0  0
  150.1034  132.2178  154.7341 C   0  0  0  0  0  0  0  0  0  0  0  0
  150.9047  136.4141  154.7313 C   0  0  0  0  0  0  0  0  0  0  0  0
  151.1243  137.7913  154.0790 C   0  0  0  0  0  0  0  0  0  0  0  0
  150.8800  141.9722  157.4104 C   0  0  0  0  0  0  0  0  0  0  0  0
  150.7024  143.2905  157.6461 N   0  3  0  0  0  0  0  0  0  0  0  0
  151.8509  145.9181  159.3877 H   0  0  0  0  0  0  0  0  0  0  0  0
  150.1189  145.5796  159.2868 H   0  0  0  0  0  0  0  0  0  0  0  0
  151.0407  145.9372  157.8196 H   0  0  0  0  0  0  0  0  0  0  0  0
  152.8229  143.7914  160.2149 H   0  0  0  0  0  0  0  0  0  0  0  0
  153.2073  141.3560  159.8366 H   0  0  0  0  0  0  0  0  0  0  0  0
  152.9933  139.4437  158.2771 H   0  0  0  0  0  0  0  0  0  0  0  0
  151.2800  139.1726  158.5164 H   0  0  0  0  0  0  0  0  0  0  0  0
  149.8417  139.2628  156.7109 H   0  0  0  0  0  0  0  0  0  0  0  0
  150.2604  139.7490  154.0257 H   0  0  0  0  0  0  0  0  0  0  0  0
  148.0736  139.0885  155.1083 H   0  0  0  0  0  0  0  0  0  0  0  0
  148.4028  138.3207  153.5786 H   0  0  0  0  0  0  0  0  0  0  0  0
  148.7704  137.0325  156.3299 H   0  0  0  0  0  0  0  0  0  0  0  0
  147.5351  136.6630  155.1498 H   0  0  0  0  0  0  0  0  0  0  0  0
  149.8926  134.4318  156.0077 H   0  0  0  0  0  0  0  0  0  0  0  0
  148.2417  134.4909  155.4520 H   0  0  0  0  0  0  0  0  0  0  0  0
  150.4455  133.8934  153.4466 H   0  0  0  0  0  0  0  0  0  0  0  0
  147.5850  132.8736  153.6983 H   0  0  0  0  0  0  0  0  0  0  0  0
  148.6973  132.5312  152.3763 H   0  0  0  0  0  0  0  0  0  0  0  0
  148.1247  134.1723  152.6382 H   0  0  0  0  0  0  0  0  0  0  0  0
  149.3342  131.8047  155.3876 H   0  0  0  0  0  0  0  0  0  0  0  0
  151.0022  132.3696  155.3318 H   0  0  0  0  0  0  0  0  0  0  0  0
  150.3398  131.4640  153.9824 H   0  0  0  0  0  0  0  0  0  0  0  0
  151.2065  136.4356  155.7798 H   0  0  0  0  0  0  0  0  0  0  0  0
  151.5437  135.6832  154.2341 H   0  0  0  0  0  0  0  0  0  0  0  0
  150.9464  137.7074  153.0059 H   0  0  0  0  0  0  0  0  0  0  0  0
  152.1656  138.0973  154.1892 H   0  0  0  0  0  0  0  0  0  0  0  0
  150.2946  141.5532  156.6046 H   0  0  0  0  0  0  0  0  0  0  0  0
  149.2682  135.9717  153.6433 H   0  0  0  0  0  0  0  0  0  0  0  0
  150.0389  143.8040  157.0655 H   0  0  0  0  0  0  0  0  0  0  0  0
  1  2  1  0  0  0  0
  1 22  1  0  0  0  0
  1 23  1  0  0  0  0
  1 24  1  0  0  0  0
  2 21  1  0  0  0  0
  2  3  2  0  0  0  0
  3  4  1  0  0  0  0
  3 25  1  0  0  0  0
  4  5  2  0  0  0  0
  4 26  1  0  0  0  0
  5  6  1  0  0  0  0
  5 20  1  0  0  0  0
  6  7  1  0  0  0  0
  6 27  1  0  0  0  0
  6 28  1  0  0  0  0
  7  8  2  0  0  0  0
  7  9  1  0  0  0  0
  9 10  1  0  0  0  0
  9 29  1  0  0  0  0
 10 19  1  0  0  0  0
 10 11  1  0  0  0  0
 10 30  1  0  0  0  0
 11 12  1  0  0  0  0
 11 31  1  0  0  0  0
 11 32  1  0  0  0  0
 12 13  1  0  0  0  0
 12 33  1  0  0  0  0
 12 34  1  0  0  0  0
 13 14  1  0  0  0  0
 13 18  1  0  0  0  0
 13 49  1  0  0  0  0
 14 15  1  0  0  0  0
 14 35  1  0  0  0  0
 14 36  1  0  0  0  0
 15 16  1  0  0  0  0
 15 17  1  0  0  0  0
 15 37  1  0  0  0  0
 16 38  1  0  0  0  0
 16 39  1  0  0  0  0
 16 40  1  0  0  0  0
 17 41  1  0  0  0  0
 17 42  1  0  0  0  0
 17 43  1  0  0  0  0
 18 19  1  0  0  0  0
 18 44  1  0  0  0  0
 18 45  1  0  0  0  0
 19 46  1  0  0  0  0
 19 47  1  0  0  0  0
 20 21  2  0  0  0  0
 20 48  1  0  0  0  0
 21 50  1  0  0  0  0
M  CHG  1  13   1
M  CHG  1  21   1
M  END
> <s_m_source_file>
AV-unprocessed.smi

> <i_m_source_file_index>
1483

> <i_lp_mmshare_version>
43012

> <i_f3d_flags>
0

> <s_epik_input>
W0NIM11jMVtjSF1bY0hdYyhbY0hdbjEpW0NIMl1DKD1PKVtOSF1bQ0hdMltDSDJdW0NIMl1OKFtDSDJdW0NIMl0yKVtDSDJdW0NIXShbQ0gzXSlbQ0gzXQ==

> <s_epik_cmdline>
J2VwaWtfcHl0aG9uJywgJy1waCcsICc3LjAnLCAnLXRuJywgJzgnLCAnLW1hJywgJzIwMCcsICctbWV0YWxfYmluZGluZycsICctaW1hZScsICc8aW5maWxlLm1hZT4nLCAnLW9tYWUnLCAnPG91dGZpbGUubWFlPic=

> <r_epik_Ionization_Penalty>
2.20554

> <r_epik_Ionization_Penalty_Charging>
2.20554

> <r_epik_Ionization_Penalty_Neutral>
2.83835e-07

> <r_epik_State_Penalty>
2.34446

> <r_epik_Charging_Adjusted_Penalty>
4.55

> <i_epik_Tot_Q>
2

> <i_epik_Tot_abs_Q>
2

> <r_epik_Metal_State_Penalty>
2.35906

> <b_epik_Metal_Only>
0

> <s_lp_Force_Field>
OPLS_2005

> <r_lp_Energy>
28.5447

> <b_lp_Chiralities_Consistent>
1

> <s_lp_Variant>
AV-unprocessed.smi:1483-4

> <Gold.Version>
5.8.1

> <Gold.Id.Protein>
6NUR|6NUR_protein|mol2

> <Gold.PLP.Fitness>
53.5190

> <Gold.PLP.PLP>
-41.4359

> <Gold.PLP.part.hbond>
-2.9441

> <Gold.PLP.part.metal>
0.0000

> <Gold.PLP.part.buried>
-2.7527

> <Gold.PLP.part.nonpolar>
-35.7880

> <Gold.PLP.part.repulsive>
0.0801

> <Gold.PLP.ligand.clash>
0.0000

> <Gold.PLP.ligand.torsion>
1.4910

> <Gold.PLP.Chemscore.Hbond>
5.0000

> <Gold.PLP.Chemscore.CHOScore>
0.0000

> <Gold.PLP.Chemscore.Metal>
0.0000

> <Gold.Chemscore.Hbonds>
donor molecule, donor type, donor heavy atom, donor atom, acceptor molecule, acceptor atom, score
      L1  H    13    49       P1  7948  2.00
      L1  H    21    50       P1  8028  2.00
      P1  H  7997  8009       L1     8  1.00

> <Gold.PLP.Chemscore.Internal.Correction>
0.0651

> <Gold.Rescore>
     Score         DG    S(hbond)    S(metal)    S(lipo)     H(rot)  DE(clash)    DE(int)     intcor
     21.60     -24.27       2.81        0.00     114.30       1.55       0.16       2.50       ----

> <Gold.Chemscore.Fitness>
21.6038

> <Gold.Chemscore.DG>
-24.2681

> <Gold.Chemscore.ZeroCoef>
-5.4800

> <Gold.Chemscore.Hbond>
2.8108

> <Gold.Chemscore.Metal>
0.0000

> <Gold.Chemscore.Lipo>
114.2998

> <Gold.Chemscore.Internal_Hbond>
0.0000

> <Gold.Chemscore.DEClash>
0.1621

> <Gold.Chemscore.DEInternal>
2.5021

> <Gold.Chemscore.Rot>
1.5520

> <Gold.Chemscore.Internal.Correction>
   9.000000E+99

> <Gold.Chemscore.Hbonds>
donor molecule, donor type, donor heavy atom, donor atom, acceptor molecule, acceptor atom, score
      L1  H    13    49       P1  7948  0.74
      L1  H    21    50       P1  8028  0.91
      P1  H  7997  8009       L1     8  0.97

> <Gold.Chemscore.Hbond.Weighted>
-9.3880

> <Gold.Chemscore.Metal.Weighted>
-0.0000

> <Gold.Chemscore.Lipo.Weighted>
-13.3731

> <Gold.Chemscore.Internal_Hbond.Weighted>
0.0000

> <Gold.Chemscore.DEClash.Weighted>
0.1621

> <Gold.Chemscore.DEInternal.Weighted>
2.5021

> <Gold.Chemscore.Rot.Weighted>
3.9730

> <Gold.Chemscore.Internal.Correction.Weighted>
   9.000000E+99

> <Gold.Protein.RotatedTorsions>
[ 6907 6896 6895 6894 ] final  135.64 input  -60.11 | X-H torsion
[ 7974 7965 7964 7962 ] final -151.36 input  175.53 | X-H torsion
[ 8008 7997 7996 7995 ] final -160.43 input   59.86 | X-H torsion
[ 10167 10162 10161 10158 ] final  -56.99 input  -65.29 | X-H torsion
[ 10718 10713 10712 10709 ] final  -30.12 input   66.30 | X-H torsion
[ 10763 10752 10751 10750 ] final -131.19 input  -60.55 | X-H torsion
[ 11005 11000 10999 10996 ] final  102.27 input  -57.11 | X-H torsion

> <Gold.Protein.ActiveResidues>
 VAL166  LYS551  ARG553  GLY616  TRP617  ASP618  TYR619  PRO620  LYS621  CYS622 
 ASP623  PHE694  ASN695  SER759  ASP760  ASP761  ALA762  ILE779  LEU786  VAL792 
 PHE793  MET794  SER795  GLU796  ALA797  LYS798  CYS799  TRP800  GLU811  SER814 

> <Gold.Protein.RotatedAtoms>
  152.2982  133.5628  159.5600 H   0  0  0  0  0  0  0  0  0  0  0  0  # atno 6907 bound_to 6896
  150.7265  134.0330  159.3749 H   0  0  0  0  0  0  0  0  0  0  0  0  # atno 6908 bound_to 6896
  151.8232  135.0645  160.0478 H   0  0  0  0  0  0  0  0  0  0  0  0  # atno 6909 bound_to 6896
  144.7854  140.4808  143.5810 H   0  0  0  0  0  0  0  0  0  0  0  0  # atno 7974 bound_to 7965
  155.7773  140.0860  157.2077 H   0  0  0  0  0  0  0  0  0  0  0  0  # atno 8008 bound_to 7997
  154.3992  140.1514  156.3069 H   0  0  0  0  0  0  0  0  0  0  0  0  # atno 8009 bound_to 7997
  155.8688  140.3426  155.5809 H   0  0  0  0  0  0  0  0  0  0  0  0  # atno 8010 bound_to 7997
  140.6284  143.2448  151.5303 H   0  0  0  0  0  0  0  0  0  0  0  0  # atno 10167 bound_to 10162
  156.4038  130.4395  149.7302 H   0  0  0  0  0  0  0  0  0  0  0  0  # atno 10718 bound_to 10713
  154.8752  135.3838  154.4206 H   0  0  0  0  0  0  0  0  0  0  0  0  # atno 10763 bound_to 10752
  153.4910  135.7030  153.5889 H   0  0  0  0  0  0  0  0  0  0  0  0  # atno 10764 bound_to 10752
  153.4263  135.3889  155.2109 H   0  0  0  0  0  0  0  0  0  0  0  0  # atno 10765 bound_to 10752
  139.8777  134.9217  156.5033 H   0  0  0  0  0  0  0  0  0  0  0  0  # atno 11005 bound_to 11000
  145.5936  139.1497  143.3168 LP  0  0  0  0  0  0  0  0  0  0  0  0  # atno 17320 bound_to 7965
  146.2083  140.6061  142.9071 LP  0  0  0  0  0  0  0  0  0  0  0  0  # atno 17321 bound_to 7965
  139.5502  144.2416  152.1516 LP  0  0  0  0  0  0  0  0  0  0  0  0  # atno 17342 bound_to 10162
  140.1654  144.4986  150.6609 LP  0  0  0  0  0  0  0  0  0  0  0  0  # atno 17343 bound_to 10162
  156.4308  130.7814  151.2834 LP  0  0  0  0  0  0  0  0  0  0  0  0  # atno 17370 bound_to 10713
  157.7505  131.0154  150.3505 LP  0  0  0  0  0  0  0  0  0  0  0  0  # atno 17371 bound_to 10713
  140.8574  133.8086  155.9230 LP  0  0  0  0  0  0  0  0  0  0  0  0  # atno 17394 bound_to 11000
  140.9084  134.2291  157.5000 LP  0  0  0  0  0  0  0  0  0  0  0  0  # atno 17395 bound_to 11000

$$$$
