AV-unprocessed.smi:2202|AV-procd|sdf|8933|dock9
  -GOLD-   2272012153D 1   1.00000     0.00000
 Structure written by MMmdl.
 43 45  0  0  0  0  0  0  0  0  2 V2000
  147.7686  139.8421  155.1542 O   0  0  0  0  0  0  0  0  0  0  0  0
  148.4010  139.1795  154.3299 C   0  0  0  0  0  0  0  0  0  0  0  0
  149.9359  139.2025  154.3044 C   0  0  0  0  0  0  0  0  0  0  0  0
  150.5228  140.0091  155.3820 N   0  0  0  0  0  0  0  0  0  0  0  0
  151.4436  139.5560  156.2557 C   0  0  0  0  0  0  0  0  0  0  0  0
  151.8536  138.4018  156.3727 O   0  0  0  0  0  0  0  0  0  0  0  0
  151.9911  140.7314  157.0512 C   0  0  2  0  0  0  0  0  0  0  0  0
  152.3849  140.6223  158.5291 C   0  0  0  0  0  0  0  0  0  0  0  0
  152.6402  142.0377  159.0576 C   0  0  0  0  0  0  0  0  0  0  0  0
  152.2407  143.1639  158.4169 C   0  0  0  0  0  0  0  0  0  0  0  0
  151.4481  143.1608  157.1055 C   0  0  0  0  0  0  0  0  0  0  0  0
  150.8807  141.7515  156.8977 C   0  0  1  0  0  0  0  0  0  0  0  0
  150.2355  141.3087  155.5935 C   0  0  0  0  0  0  0  0  0  0  0  0
  149.5239  142.0350  154.9002 O   0  0  0  0  0  0  0  0  0  0  0  0
  147.8109  138.4073  153.4052 N   0  0  0  0  0  0  0  0  0  0  0  0
  146.3705  138.2372  153.2588 C   0  0  0  0  0  0  0  0  0  0  0  0
  145.9929  137.8210  151.8267 C   0  0  0  0  0  0  0  0  0  0  0  0
  145.5975  136.3601  151.7396 C   0  0  0  0  0  0  0  0  0  0  0  0
  144.2967  135.9522  151.3727 C   0  0  0  0  0  0  0  0  0  0  0  0
  143.9969  134.5748  151.3187 C   0  0  0  0  0  0  0  0  0  0  0  0
  145.0024  133.6364  151.6321 C   0  0  0  0  0  0  0  0  0  0  0  0
  146.2843  134.0996  151.9923 C   0  0  0  0  0  0  0  0  0  0  0  0
  146.5322  135.4272  152.0338 N   0  3  0  0  0  0  0  0  0  0  0  0
  150.3103  138.1793  154.3702 H   0  0  0  0  0  0  0  0  0  0  0  0
  150.2606  139.5758  153.3318 H   0  0  0  0  0  0  0  0  0  0  0  0
  152.8718  141.0673  156.4982 H   0  0  0  0  0  0  0  0  0  0  0  0
  151.6043  140.1436  159.1216 H   0  0  0  0  0  0  0  0  0  0  0  0
  153.2922  140.0270  158.6348 H   0  0  0  0  0  0  0  0  0  0  0  0
  153.1744  142.1157  159.9931 H   0  0  0  0  0  0  0  0  0  0  0  0
  152.4785  144.1304  158.8366 H   0  0  0  0  0  0  0  0  0  0  0  0
  150.6378  143.8877  157.1699 H   0  0  0  0  0  0  0  0  0  0  0  0
  152.0974  143.4610  156.2822 H   0  0  0  0  0  0  0  0  0  0  0  0
  150.1234  141.5829  157.6670 H   0  0  0  0  0  0  0  0  0  0  0  0
  148.4017  137.9007  152.7613 H   0  0  0  0  0  0  0  0  0  0  0  0
  146.0103  137.5022  153.9810 H   0  0  0  0  0  0  0  0  0  0  0  0
  145.8878  139.1819  153.5109 H   0  0  0  0  0  0  0  0  0  0  0  0
  145.1698  138.4380  151.4634 H   0  0  0  0  0  0  0  0  0  0  0  0
  146.8285  137.9944  151.1470 H   0  0  0  0  0  0  0  0  0  0  0  0
  143.5367  136.6829  151.1365 H   0  0  0  0  0  0  0  0  0  0  0  0
  143.0073  134.2421  151.0412 H   0  0  0  0  0  0  0  0  0  0  0  0
  144.7929  132.5772  151.5971 H   0  0  0  0  0  0  0  0  0  0  0  0
  147.1118  133.4540  152.2482 H   0  0  0  0  0  0  0  0  0  0  0  0
  147.4666  135.7407  152.2987 H   0  0  0  0  0  0  0  0  0  0  0  0
  1  2  2  0  0  0  0
  2  3  1  0  0  0  0
  2 15  1  0  0  0  0
  3  4  1  0  0  0  0
  3 24  1  0  0  0  0
  3 25  1  0  0  0  0
  4 13  1  0  0  0  0
  4  5  1  0  0  0  0
  5  6  2  0  0  0  0
  5  7  1  0  0  0  0
  7 12  1  0  0  0  0
  7  8  1  0  0  0  0
  7 26  1  0  0  0  0
  8  9  1  0  0  0  0
  8 27  1  0  0  0  0
  8 28  1  0  0  0  0
  9 10  2  0  0  0  0
  9 29  1  0  0  0  0
 10 11  1  0  0  0  0
 10 30  1  0  0  0  0
 11 12  1  0  0  0  0
 11 31  1  0  0  0  0
 11 32  1  0  0  0  0
 12 13  1  0  0  0  0
 12 33  1  0  0  0  0
 13 14  2  0  0  0  0
 15 16  1  0  0  0  0
 15 34  1  0  0  0  0
 16 17  1  0  0  0  0
 16 35  1  0  0  0  0
 16 36  1  0  0  0  0
 17 18  1  0  0  0  0
 17 37  1  0  0  0  0
 17 38  1  0  0  0  0
 18 23  1  0  0  0  0
 18 19  2  0  0  0  0
 19 20  1  0  0  0  0
 19 39  1  0  0  0  0
 20 21  2  0  0  0  0
 20 40  1  0  0  0  0
 21 22  1  0  0  0  0
 21 41  1  0  0  0  0
 22 23  2  0  0  0  0
 22 42  1  0  0  0  0
 23 43  1  0  0  0  0
M  CHG  1  23   1
M  END
> <s_m_source_file>
AV-unprocessed.smi

> <i_m_source_file_index>
2202

> <i_lp_mmshare_version>
43012

> <i_f3d_flags>
0

> <s_epik_input>
W0NIMl0xW0NIXT1bQ0hdW0NIMl1bQ0BIXShbQ0BIXTEyKUMoPU8pTihDMj1PKVtDSDJdQyg9TylbTkhdW0NIMl1bQ0gyXWMzW2NIXVtjSF1bY0hdW2NIXW4z

> <s_epik_cmdline>
J2VwaWtfcHl0aG9uJywgJy1waCcsICc3LjAnLCAnLXRuJywgJzgnLCAnLW1hJywgJzIwMCcsICctbWV0YWxfYmluZGluZycsICctaW1hZScsICc8aW5maWxlLm1hZT4nLCAnLW9tYWUnLCAnPG91dGZpbGUubWFlPic=

> <r_lp_tautomer_probability>
1

> <r_epik_Ionization_Penalty>
1.90039

> <r_epik_Ionization_Penalty_Charging>
1.90039

> <r_epik_Ionization_Penalty_Neutral>
1.50224e-07

> <r_epik_State_Penalty>
2.02162

> <r_epik_Charging_Adjusted_Penalty>
3.922

> <i_epik_Tot_Q>
1

> <i_epik_Tot_abs_Q>
1

> <r_epik_Metal_State_Penalty>
2.04542

> <b_epik_Metal_Only>
0

> <s_lp_Force_Field>
OPLS_2005

> <r_lp_Energy>
26.3593

> <b_lp_Chiralities_Consistent>
1

> <s_lp_Variant>
AV-unprocessed.smi:2202-5

> <Gold.Version>
5.8.1

> <Gold.Id.Protein>
6NUR|6NUR_protein|mol2

> <Gold.PLP.Fitness>
47.9845

> <Gold.PLP.PLP>
-40.0485

> <Gold.PLP.part.hbond>
-3.1022

> <Gold.PLP.part.metal>
0.0000

> <Gold.PLP.part.buried>
-1.8113

> <Gold.PLP.part.nonpolar>
-36.1120

> <Gold.PLP.part.repulsive>
0.6285

> <Gold.PLP.ligand.clash>
0.0000

> <Gold.PLP.ligand.torsion>
0.5468

> <Gold.PLP.Chemscore.Hbond>
3.0000

> <Gold.PLP.Chemscore.CHOScore>
0.0000

> <Gold.PLP.Chemscore.Metal>
0.0000

> <Gold.Chemscore.Hbonds>
donor molecule, donor type, donor heavy atom, donor atom, acceptor molecule, acceptor atom, score
      L1  H    15    34       P1  7948  1.00
      L1  H    23    43       P1  7948  1.92

> <Gold.PLP.Chemscore.Internal.Correction>
0.0296

> <Gold.Rescore>
     Score         DG    S(hbond)    S(metal)    S(lipo)     H(rot)  DE(clash)    DE(int)     intcor
     15.09     -18.81       2.00        0.00      99.86       1.96       0.64       3.07       ----

> <Gold.Chemscore.Fitness>
15.0902

> <Gold.Chemscore.DG>
-18.8067

> <Gold.Chemscore.ZeroCoef>
-5.4800

> <Gold.Chemscore.Hbond>
1.9960

> <Gold.Chemscore.Metal>
0.0000

> <Gold.Chemscore.Lipo>
99.8629

> <Gold.Chemscore.Internal_Hbond>
0.0000

> <Gold.Chemscore.DEClash>
0.6435

> <Gold.Chemscore.DEInternal>
3.0729

> <Gold.Chemscore.Rot>
1.9625

> <Gold.Chemscore.Internal.Correction>
   9.000000E+99

> <Gold.Chemscore.Hbonds>
donor molecule, donor type, donor heavy atom, donor atom, acceptor molecule, acceptor atom, score
      L1  H    15    34       P1  7948  0.96
      L1  H    23    43       P1  7948  0.91

> <Gold.Chemscore.Hbond.Weighted>
-6.6667

> <Gold.Chemscore.Metal.Weighted>
-0.0000

> <Gold.Chemscore.Lipo.Weighted>
-11.6840

> <Gold.Chemscore.Internal_Hbond.Weighted>
0.0000

> <Gold.Chemscore.DEClash.Weighted>
0.6435

> <Gold.Chemscore.DEInternal.Weighted>
3.0729

> <Gold.Chemscore.Rot.Weighted>
5.0240

> <Gold.Chemscore.Internal.Correction.Weighted>
   9.000000E+99

> <Gold.Protein.RotatedTorsions>
[ 6907 6896 6895 6894 ] final   -3.61 input  -60.11 | X-H torsion
[ 7974 7965 7964 7962 ] final  179.02 input  175.53 | X-H torsion
[ 8008 7997 7996 7995 ] final   13.07 input   59.86 | X-H torsion
[ 10167 10162 10161 10158 ] final  142.89 input  -65.29 | X-H torsion
[ 10718 10713 10712 10709 ] final  -92.17 input   66.30 | X-H torsion
[ 10763 10752 10751 10750 ] final -138.62 input  -60.55 | X-H torsion
[ 11005 11000 10999 10996 ] final    3.15 input  -57.11 | X-H torsion

> <Gold.Protein.ActiveResidues>
 VAL166  LYS551  ARG553  GLY616  TRP617  ASP618  TYR619  PRO620  LYS621  CYS622 
 ASP623  PHE694  ASN695  SER759  ASP760  ASP761  ALA762  ILE779  LEU786  VAL792 
 PHE793  MET794  SER795  GLU796  ALA797  LYS798  CYS799  TRP800  GLU811  SER814 

> <Gold.Protein.RotatedAtoms>
  151.5110  135.1065  159.9853 H   0  0  0  0  0  0  0  0  0  0  0  0  # atno 6907 bound_to 6896
  152.4661  133.7923  159.6919 H   0  0  0  0  0  0  0  0  0  0  0  0  # atno 6908 bound_to 6896
  150.8646  133.7530  159.3006 H   0  0  0  0  0  0  0  0  0  0  0  0  # atno 6909 bound_to 6896
  144.7150  140.0485  143.6436 H   0  0  0  0  0  0  0  0  0  0  0  0  # atno 7974 bound_to 7965
  154.8294  140.2897  155.5732 H   0  0  0  0  0  0  0  0  0  0  0  0  # atno 8008 bound_to 7997
  156.3004  140.2535  156.3147 H   0  0  0  0  0  0  0  0  0  0  0  0  # atno 8009 bound_to 7997
  154.9248  140.0385  157.2006 H   0  0  0  0  0  0  0  0  0  0  0  0  # atno 8010 bound_to 7997
  139.4983  144.6077  151.6342 H   0  0  0  0  0  0  0  0  0  0  0  0  # atno 10167 bound_to 10162
  156.0000  130.4976  150.5585 H   0  0  0  0  0  0  0  0  0  0  0  0  # atno 10718 bound_to 10713
  154.8632  135.3606  154.5415 H   0  0  0  0  0  0  0  0  0  0  0  0  # atno 10763 bound_to 10752
  153.6036  135.7012  153.5379 H   0  0  0  0  0  0  0  0  0  0  0  0  # atno 10764 bound_to 10752
  153.3269  135.4135  155.1424 H   0  0  0  0  0  0  0  0  0  0  0  0  # atno 10765 bound_to 10752
  140.5963  133.9877  155.8111 H   0  0  0  0  0  0  0  0  0  0  0  0  # atno 11005 bound_to 11000
  145.9964  139.3056  143.0954 LP  0  0  0  0  0  0  0  0  0  0  0  0  # atno 17320 bound_to 7965
  145.8844  140.9343  143.0584 LP  0  0  0  0  0  0  0  0  0  0  0  0  # atno 17321 bound_to 7965
  140.5743  144.0055  150.6233 LP  0  0  0  0  0  0  0  0  0  0  0  0  # atno 17342 bound_to 10162
  140.3183  143.3153  152.0809 LP  0  0  0  0  0  0  0  0  0  0  0  0  # atno 17343 bound_to 10162
  157.3498  131.0731  151.1722 LP  0  0  0  0  0  0  0  0  0  0  0  0  # atno 17370 bound_to 10713
  157.2543  130.6628  149.5945 LP  0  0  0  0  0  0  0  0  0  0  0  0  # atno 17371 bound_to 10713
  141.0902  133.9929  157.3250 LP  0  0  0  0  0  0  0  0  0  0  0  0  # atno 17394 bound_to 11000
  139.9252  135.0201  156.8208 LP  0  0  0  0  0  0  0  0  0  0  0  0  # atno 17395 bound_to 11000

$$$$
