AV-unprocessed.smi:2800|AV-procd|sdf|10796|dock3
  -GOLD-   2272015233D 1   1.00000     0.00000
 Structure written by MMmdl.
 52 53  0  0  0  0  0  0  0  0  2 V2000
  150.9201  137.5447  154.3402 C   0  0  0  0  0  0  0  0  0  0  0  0
  150.2058  138.7198  154.9828 C   0  0  0  0  0  0  0  0  0  0  0  0
  150.9534  139.5735  155.7168 N   0  3  0  0  0  0  0  0  0  0  0  0
  150.4578  140.6636  156.3478 C   0  0  0  0  0  0  0  0  0  0  0  0
  151.3404  141.4779  157.0830 N   0  0  0  0  0  0  0  0  0  0  0  0
  150.9904  142.8414  157.4455 C   0  0  0  0  0  0  0  0  0  0  0  0
  152.1141  143.2962  158.3759 C   0  0  0  0  0  0  0  0  0  0  0  0
  152.5234  142.0042  159.0830 C   0  0  0  0  0  0  0  0  0  0  0  0
  152.2949  140.9142  158.0296 C   0  0  0  0  0  0  0  0  0  0  0  0
  149.0774  140.9423  156.2245 C   0  0  0  0  0  0  0  0  0  0  0  0
  148.2546  140.0837  155.4684 C   0  0  0  0  0  0  0  0  0  0  0  0
  148.8149  138.9414  154.8433 C   0  0  0  0  0  0  0  0  0  0  0  0
  148.0630  138.0245  154.0549 N   0  0  0  0  0  0  0  0  0  0  0  0
  146.8231  137.5479  154.2598 C   0  0  0  0  0  0  0  0  0  0  0  0
  146.0931  137.8434  155.2049 O   0  0  0  0  0  0  0  0  0  0  0  0
  146.4784  136.6800  153.2977 N   0  0  0  0  0  0  0  0  0  0  0  0
  145.1824  136.0062  153.1695 C   0  0  1  0  0  0  0  0  0  0  0  0
  144.0964  137.1043  153.0787 C   0  0  0  0  0  0  0  0  0  0  0  0
  144.5350  138.1534  152.2403 O   0  0  0  0  0  0  0  0  0  0  0  0
  145.1963  134.9983  151.9708 C   0  0  0  0  0  0  0  0  0  0  0  0
  146.3399  133.9693  152.1068 C   0  0  0  0  0  0  0  0  0  0  0  0
  145.3524  135.7475  150.6288 C   0  0  0  0  0  0  0  0  0  0  0  0
  143.8563  134.2296  151.9052 C   0  0  0  0  0  0  0  0  0  0  0  0
  144.9778  135.4218  154.0692 H   0  0  0  0  0  0  0  0  0  0  0  0
  150.5088  136.6034  154.7057 H   0  0  0  0  0  0  0  0  0  0  0  0
  151.9876  137.5566  154.5634 H   0  0  0  0  0  0  0  0  0  0  0  0
  150.8021  137.5753  153.2569 H   0  0  0  0  0  0  0  0  0  0  0  0
  150.9106  143.4859  156.5694 H   0  0  0  0  0  0  0  0  0  0  0  0
  150.0329  142.8445  157.9681 H   0  0  0  0  0  0  0  0  0  0  0  0
  152.9514  143.6746  157.7879 H   0  0  0  0  0  0  0  0  0  0  0  0
  151.8032  144.0822  159.0646 H   0  0  0  0  0  0  0  0  0  0  0  0
  153.5489  142.0273  159.4527 H   0  0  0  0  0  0  0  0  0  0  0  0
  151.8644  141.8323  159.9353 H   0  0  0  0  0  0  0  0  0  0  0  0
  151.9331  139.9958  158.4930 H   0  0  0  0  0  0  0  0  0  0  0  0
  153.2211  140.6888  157.5001 H   0  0  0  0  0  0  0  0  0  0  0  0
  148.6367  141.8086  156.6952 H   0  0  0  0  0  0  0  0  0  0  0  0
  147.2095  140.3326  155.3763 H   0  0  0  0  0  0  0  0  0  0  0  0
  148.5549  137.6370  153.2631 H   0  0  0  0  0  0  0  0  0  0  0  0
  147.1517  136.4917  152.5698 H   0  0  0  0  0  0  0  0  0  0  0  0
  143.1514  136.7065  152.7069 H   0  0  0  0  0  0  0  0  0  0  0  0
  143.8907  137.5533  154.0480 H   0  0  0  0  0  0  0  0  0  0  0  0
  144.0531  138.1112  151.4286 H   0  0  0  0  0  0  0  0  0  0  0  0
  146.3333  133.2637  151.2753 H   0  0  0  0  0  0  0  0  0  0  0  0
  146.2546  133.3859  153.0239 H   0  0  0  0  0  0  0  0  0  0  0  0
  147.3180  134.4502  152.1106 H   0  0  0  0  0  0  0  0  0  0  0  0
  146.3348  136.2046  150.5174 H   0  0  0  0  0  0  0  0  0  0  0  0
  144.6047  136.5344  150.5229 H   0  0  0  0  0  0  0  0  0  0  0  0
  145.2315  135.0706  149.7823 H   0  0  0  0  0  0  0  0  0  0  0  0
  143.8110  133.5823  151.0288 H   0  0  0  0  0  0  0  0  0  0  0  0
  143.0091  134.9141  151.8490 H   0  0  0  0  0  0  0  0  0  0  0  0
  143.7056  133.5903  152.7751 H   0  0  0  0  0  0  0  0  0  0  0  0
  151.9521  139.3835  155.8003 H   0  0  0  0  0  0  0  0  0  0  0  0
  1  2  1  0  0  0  0
  1 25  1  0  0  0  0
  1 26  1  0  0  0  0
  1 27  1  0  0  0  0
  2 12  1  0  0  0  0
  2  3  2  0  0  0  0
  3  4  1  0  0  0  0
  3 52  1  0  0  0  0
  4  5  1  0  0  0  0
  4 10  2  0  0  0  0
  5  9  1  0  0  0  0
  5  6  1  0  0  0  0
  6  7  1  0  0  0  0
  6 28  1  0  0  0  0
  6 29  1  0  0  0  0
  7  8  1  0  0  0  0
  7 30  1  0  0  0  0
  7 31  1  0  0  0  0
  8  9  1  0  0  0  0
  8 32  1  0  0  0  0
  8 33  1  0  0  0  0
  9 34  1  0  0  0  0
  9 35  1  0  0  0  0
 10 11  1  0  0  0  0
 10 36  1  0  0  0  0
 11 12  2  0  0  0  0
 11 37  1  0  0  0  0
 12 13  1  0  0  0  0
 13 14  1  0  0  0  0
 13 38  1  0  0  0  0
 14 15  2  0  0  0  0
 14 16  1  0  0  0  0
 16 17  1  0  0  0  0
 16 39  1  0  0  0  0
 17 24  1  0  0  0  0
 17 18  1  0  0  0  0
 17 20  1  0  0  0  0
 18 19  1  0  0  0  0
 18 40  1  0  0  0  0
 18 41  1  0  0  0  0
 19 42  1  0  0  0  0
 20 21  1  0  0  0  0
 20 22  1  0  0  0  0
 20 23  1  0  0  0  0
 21 43  1  0  0  0  0
 21 44  1  0  0  0  0
 21 45  1  0  0  0  0
 22 46  1  0  0  0  0
 22 47  1  0  0  0  0
 22 48  1  0  0  0  0
 23 49  1  0  0  0  0
 23 50  1  0  0  0  0
 23 51  1  0  0  0  0
M  CHG  1   3   1
M  END
> <s_m_source_file>
AV-unprocessed.smi

> <i_m_source_file_index>
2800

> <i_lp_mmshare_version>
43012

> <i_f3d_flags>
0

> <s_epik_input>
W0NIMl0xW0NIMl1bQ0gyXVtDSDJdTjFjKG5jMltDSDNdKVtjSF1bY0hdYzJbTkhdQyg9TylbTkhdW0NASF0oW0NIMl1bT0hdKUMoW0NIM10pKFtDSDNdKVtDSDNd

> <s_epik_cmdline>
J2VwaWtfcHl0aG9uJywgJy1waCcsICc3LjAnLCAnLXRuJywgJzgnLCAnLW1hJywgJzIwMCcsICctbWV0YWxfYmluZGluZycsICctaW1hZScsICc8aW5maWxlLm1hZT4nLCAnLW9tYWUnLCAnPG91dGZpbGUubWFlPic=

> <r_lp_tautomer_probability>
0.999994

> <r_epik_Ionization_Penalty>
0.536494

> <r_epik_Ionization_Penalty_Charging>
0.536474

> <r_epik_Ionization_Penalty_Neutral>
1.97788e-05

> <r_epik_State_Penalty>
0.545692

> <r_epik_Charging_Adjusted_Penalty>
1.08217

> <i_epik_Tot_Q>
1

> <i_epik_Tot_abs_Q>
1

> <r_epik_Metal_State_Penalty>
0.748506

> <b_epik_Metal_Only>
0

> <s_lp_Force_Field>
OPLS_2005

> <r_lp_Energy>
41.3448

> <b_lp_Chiralities_Consistent>
1

> <s_lp_Variant>
AV-unprocessed.smi:2800-4

> <Gold.Version>
5.8.1

> <Gold.Id.Protein>
6NUR|6NUR_protein|mol2

> <Gold.PLP.Fitness>
43.7741

> <Gold.PLP.PLP>
-36.4437

> <Gold.PLP.part.hbond>
-3.7459

> <Gold.PLP.part.metal>
0.0000

> <Gold.PLP.part.buried>
-5.7883

> <Gold.PLP.part.nonpolar>
-28.3564

> <Gold.PLP.part.repulsive>
0.1403

> <Gold.PLP.ligand.clash>
0.0000

> <Gold.PLP.ligand.torsion>
0.9952

> <Gold.PLP.Chemscore.Hbond>
3.0000

> <Gold.PLP.Chemscore.CHOScore>
0.0000

> <Gold.PLP.Chemscore.Metal>
0.0000

> <Gold.Chemscore.Hbonds>
donor molecule, donor type, donor heavy atom, donor atom, acceptor molecule, acceptor atom, score
      L1  H    13    38       P1  7948  1.00
      L1  H    16    39       P1  7948  1.00
      L1  H    19    42       P1 10171  0.99

> <Gold.PLP.Chemscore.Internal.Correction>
0.3209

> <Gold.Rescore>
     Score         DG    S(hbond)    S(metal)    S(lipo)     H(rot)  DE(clash)    DE(int)     intcor
     18.92     -20.91       2.86        0.00      92.97       1.95       0.33       1.66       ----

> <Gold.Chemscore.Fitness>
18.9182

> <Gold.Chemscore.DG>
-20.9083

> <Gold.Chemscore.ZeroCoef>
-5.4800

> <Gold.Chemscore.Hbond>
2.8571

> <Gold.Chemscore.Metal>
0.0000

> <Gold.Chemscore.Lipo>
92.9673

> <Gold.Chemscore.Internal_Hbond>
0.0000

> <Gold.Chemscore.DEClash>
0.3320

> <Gold.Chemscore.DEInternal>
1.6581

> <Gold.Chemscore.Rot>
1.9499

> <Gold.Chemscore.Internal.Correction>
   9.000000E+99

> <Gold.Chemscore.Hbonds>
donor molecule, donor type, donor heavy atom, donor atom, acceptor molecule, acceptor atom, score
      L1  H    13    38       P1  7948  0.94
      L1  H    16    39       P1  7948  0.97
      L1  H    19    42       P1 10171  0.94

> <Gold.Chemscore.Hbond.Weighted>
-9.5427

> <Gold.Chemscore.Metal.Weighted>
-0.0000

> <Gold.Chemscore.Lipo.Weighted>
-10.8772

> <Gold.Chemscore.Internal_Hbond.Weighted>
0.0000

> <Gold.Chemscore.DEClash.Weighted>
0.3320

> <Gold.Chemscore.DEInternal.Weighted>
1.6581

> <Gold.Chemscore.Rot.Weighted>
4.9916

> <Gold.Chemscore.Internal.Correction.Weighted>
   9.000000E+99

> <Gold.Protein.RotatedTorsions>
[ 6907 6896 6895 6894 ] final   63.50 input  -60.11 | X-H torsion
[ 7974 7965 7964 7962 ] final -108.09 input  175.53 | X-H torsion
[ 8008 7997 7996 7995 ] final -157.85 input   59.86 | X-H torsion
[ 10167 10162 10161 10158 ] final  -31.57 input  -65.29 | X-H torsion
[ 10718 10713 10712 10709 ] final -143.93 input   66.30 | X-H torsion
[ 10763 10752 10751 10750 ] final  -46.54 input  -60.55 | X-H torsion
[ 11005 11000 10999 10996 ] final   86.89 input  -57.11 | X-H torsion

> <Gold.Protein.ActiveResidues>
 VAL166  LYS551  ARG553  GLY616  TRP617  ASP618  TYR619  PRO620  LYS621  CYS622 
 ASP623  PHE694  ASN695  SER759  ASP760  ASP761  ALA762  ILE779  LEU786  VAL792 
 PHE793  MET794  SER795  GLU796  ALA797  LYS798  CYS799  TRP800  GLU811  SER814 

> <Gold.Protein.RotatedAtoms>
  152.4257  134.5872  159.9963 H   0  0  0  0  0  0  0  0  0  0  0  0  # atno 6907 bound_to 6896
  151.6009  133.3351  159.3055 H   0  0  0  0  0  0  0  0  0  0  0  0  # atno 6908 bound_to 6896
  150.8147  134.7359  159.6784 H   0  0  0  0  0  0  0  0  0  0  0  0  # atno 6909 bound_to 6896
  145.1972  140.9040  143.3390 H   0  0  0  0  0  0  0  0  0  0  0  0  # atno 7974 bound_to 7965
  155.7387  140.0811  157.2255 H   0  0  0  0  0  0  0  0  0  0  0  0  # atno 8008 bound_to 7997
  154.4024  140.1582  156.2647 H   0  0  0  0  0  0  0  0  0  0  0  0  # atno 8009 bound_to 7997
  155.9040  140.3408  155.6051 H   0  0  0  0  0  0  0  0  0  0  0  0  # atno 8010 bound_to 7997
  140.7234  143.3761  151.1688 H   0  0  0  0  0  0  0  0  0  0  0  0  # atno 10167 bound_to 10162
  156.3639  130.7752  151.1924 H   0  0  0  0  0  0  0  0  0  0  0  0  # atno 10718 bound_to 10713
  154.0467  135.6636  153.4796 H   0  0  0  0  0  0  0  0  0  0  0  0  # atno 10763 bound_to 10752
  153.0480  135.5102  154.7790 H   0  0  0  0  0  0  0  0  0  0  0  0  # atno 10764 bound_to 10752
  154.6783  135.3041  154.9614 H   0  0  0  0  0  0  0  0  0  0  0  0  # atno 10765 bound_to 10752
  139.8933  134.8385  156.2783 H   0  0  0  0  0  0  0  0  0  0  0  0  # atno 11005 bound_to 11000
  144.9983  139.3622  143.6180 LP  0  0  0  0  0  0  0  0  0  0  0  0  # atno 17320 bound_to 7965
  146.3425  139.9195  142.8768 LP  0  0  0  0  0  0  0  0  0  0  0  0  # atno 17321 bound_to 7965
  139.7341  143.9026  152.3029 LP  0  0  0  0  0  0  0  0  0  0  0  0  # atno 17342 bound_to 10162
  139.8825  144.7010  150.8861 LP  0  0  0  0  0  0  0  0  0  0  0  0  # atno 17343 bound_to 10162
  157.7476  131.0392  150.4539 LP  0  0  0  0  0  0  0  0  0  0  0  0  # atno 17370 bound_to 10713
  156.4754  130.4062  149.6493 LP  0  0  0  0  0  0  0  0  0  0  0  0  # atno 17371 bound_to 10713
  141.0055  133.7126  156.1028 LP  0  0  0  0  0  0  0  0  0  0  0  0  # atno 17394 bound_to 11000
  140.7439  134.4120  157.5551 LP  0  0  0  0  0  0  0  0  0  0  0  0  # atno 17395 bound_to 11000

$$$$
