AV-unprocessed.smi:3287|AV-procd|sdf|12605|dock4
  -GOLD-   2272018533D 1   1.00000     0.00000
 Structure written by MMmdl.
 43 44  0  0  0  0  0  0  0  0  2 V2000
  153.4182  142.3109  160.9315 C   0  0  0  0  0  0  0  0  0  0  0  0
  152.8806  142.4565  159.4967 C   0  0  1  0  0  0  0  0  0  0  0  0
  152.4110  141.0835  158.9744 C   0  0  0  0  0  0  0  0  0  0  0  0
  151.8636  141.1615  157.5425 C   0  0  0  0  0  0  0  0  0  0  0  0
  150.7143  142.1818  157.4457 C   0  0  2  0  0  0  0  0  0  0  0  0
  150.1975  142.2975  156.0640 N   0  3  0  0  0  0  0  0  0  0  0  0
  149.2238  141.2582  155.6639 C   0  0  0  0  0  0  0  0  0  0  0  0
  148.4519  141.6669  154.3974 C   0  0  1  0  0  0  0  0  0  0  0  0
  148.3163  140.5346  153.5605 O   0  0  0  0  0  0  0  0  0  0  0  0
  147.1033  142.2736  154.7519 C   0  0  0  0  0  0  0  0  0  0  0  0
  146.6339  142.2889  156.0836 C   0  0  0  0  0  0  0  0  0  0  0  0
  145.3807  142.8761  156.3497 C   0  0  0  0  0  0  0  0  0  0  0  0
  144.6038  143.4295  155.3944 N   0  0  0  0  0  0  0  0  0  0  0  0
  145.0580  143.4143  154.1231 C   0  0  0  0  0  0  0  0  0  0  0  0
  146.2956  142.8525  153.7504 C   0  0  0  0  0  0  0  0  0  0  0  0
  151.1948  143.5572  157.9393 C   0  0  0  0  0  0  0  0  0  0  0  0
  151.7420  143.5045  159.3812 C   0  0  2  0  0  0  0  0  0  0  0  0
  152.1755  144.9123  159.8279 C   0  0  0  0  0  0  0  0  0  0  0  0
  152.6203  142.0582  161.6305 H   0  0  0  0  0  0  0  0  0  0  0  0
  153.8946  143.2262  161.2816 H   0  0  0  0  0  0  0  0  0  0  0  0
  154.1696  141.5228  160.9895 H   0  0  0  0  0  0  0  0  0  0  0  0
  153.7092  142.7838  158.8669 H   0  0  0  0  0  0  0  0  0  0  0  0
  153.2371  140.3721  159.0048 H   0  0  0  0  0  0  0  0  0  0  0  0
  151.6391  140.6841  159.6340 H   0  0  0  0  0  0  0  0  0  0  0  0
  152.6671  141.4377  156.8583 H   0  0  0  0  0  0  0  0  0  0  0  0
  151.5269  140.1696  157.2417 H   0  0  0  0  0  0  0  0  0  0  0  0
  149.8936  141.8602  158.0891 H   0  0  0  0  0  0  0  0  0  0  0  0
  149.7314  143.1900  155.9866 H   0  0  0  0  0  0  0  0  0  0  0  0
  149.7323  140.3078  155.5012 H   0  0  0  0  0  0  0  0  0  0  0  0
  148.5203  141.1080  156.4840 H   0  0  0  0  0  0  0  0  0  0  0  0
  149.0300  142.4108  153.8470 H   0  0  0  0  0  0  0  0  0  0  0  0
  148.8695  140.6542  152.8030 H   0  0  0  0  0  0  0  0  0  0  0  0
  147.2177  141.8638  156.8868 H   0  0  0  0  0  0  0  0  0  0  0  0
  144.9933  142.9039  157.3574 H   0  0  0  0  0  0  0  0  0  0  0  0
  144.4170  143.8656  153.3804 H   0  0  0  0  0  0  0  0  0  0  0  0
  146.6124  142.8699  152.7179 H   0  0  0  0  0  0  0  0  0  0  0  0
  151.9687  143.9379  157.2703 H   0  0  0  0  0  0  0  0  0  0  0  0
  150.3692  144.2684  157.8881 H   0  0  0  0  0  0  0  0  0  0  0  0
  150.9251  143.1919  160.0336 H   0  0  0  0  0  0  0  0  0  0  0  0
  153.0381  145.2616  159.2598 H   0  0  0  0  0  0  0  0  0  0  0  0
  152.4368  144.9395  160.8853 H   0  0  0  0  0  0  0  0  0  0  0  0
  151.3707  145.6339  159.6844 H   0  0  0  0  0  0  0  0  0  0  0  0
  150.9742  142.2874  155.4180 H   0  0  0  0  0  0  0  0  0  0  0  0
  1  2  1  0  0  0  0
  1 19  1  0  0  0  0
  1 20  1  0  0  0  0
  1 21  1  0  0  0  0
  2 17  1  0  0  0  0
  2  3  1  0  0  0  0
  2 22  1  0  0  0  0
  3  4  1  0  0  0  0
  3 23  1  0  0  0  0
  3 24  1  0  0  0  0
  4  5  1  0  0  0  0
  4 25  1  0  0  0  0
  4 26  1  0  0  0  0
  5  6  1  0  0  0  0
  5 16  1  0  0  0  0
  5 27  1  0  0  0  0
  6  7  1  0  0  0  0
  6 28  1  0  0  0  0
  6 43  1  0  0  0  0
  7  8  1  0  0  0  0
  7 29  1  0  0  0  0
  7 30  1  0  0  0  0
  8  9  1  0  0  0  0
  8 10  1  0  0  0  0
  8 31  1  0  0  0  0
  9 32  1  0  0  0  0
 10 15  1  0  0  0  0
 10 11  2  0  0  0  0
 11 12  1  0  0  0  0
 11 33  1  0  0  0  0
 12 13  2  0  0  0  0
 12 34  1  0  0  0  0
 13 14  1  0  0  0  0
 14 15  2  0  0  0  0
 14 35  1  0  0  0  0
 15 36  1  0  0  0  0
 16 17  1  0  0  0  0
 16 37  1  0  0  0  0
 16 38  1  0  0  0  0
 17 18  1  0  0  0  0
 17 39  1  0  0  0  0
 18 40  1  0  0  0  0
 18 41  1  0  0  0  0
 18 42  1  0  0  0  0
M  CHG  1   6   1
M  END
> <s_m_source_file>
AV-unprocessed.smi

> <i_m_source_file_index>
3287

> <i_lp_mmshare_version>
43012

> <i_f3d_flags>
0

> <s_epik_input>
W0NIM11bQ0BASF0xW0NIMl1bQ0gyXVtDQEhdKFtDSDJdW0NASF0xW0NIM10pW05IXVtDSDJdW0NASF0oW09IXSljMltjSF1bY0hdbltjSF1bY0hdMg==

> <s_epik_cmdline>
J2VwaWtfcHl0aG9uJywgJy1waCcsICc3LjAnLCAnLXRuJywgJzgnLCAnLW1hJywgJzIwMCcsICctbWV0YWxfYmluZGluZycsICctaW1hZScsICc8aW5maWxlLm1hZT4nLCAnLW9tYWUnLCAnPG91dGZpbGUubWFlPic=

> <r_lp_tautomer_probability>
1

> <r_epik_Ionization_Penalty>
0.00537262

> <r_epik_Ionization_Penalty_Charging>
0.00321624

> <r_epik_Ionization_Penalty_Neutral>
0.00215638

> <r_epik_State_Penalty>
-0

> <r_epik_Charging_Adjusted_Penalty>
0.00321624

> <i_epik_Tot_Q>
1

> <i_epik_Tot_abs_Q>
1

> <r_epik_Metal_State_Penalty>
-0

> <b_epik_Metal_Only>
0

> <s_lp_Force_Field>
OPLS_2005

> <r_lp_Energy>
15.7065

> <b_lp_Chiralities_Consistent>
1

> <s_lp_Variant>
AV-unprocessed.smi:3287-16

> <Gold.Version>
5.8.1

> <Gold.Id.Protein>
6NUR|6NUR_protein|mol2

> <Gold.PLP.Fitness>
51.9150

> <Gold.PLP.PLP>
-42.2863

> <Gold.PLP.part.hbond>
-2.0000

> <Gold.PLP.part.metal>
0.0000

> <Gold.PLP.part.buried>
-4.9174

> <Gold.PLP.part.nonpolar>
-35.4342

> <Gold.PLP.part.repulsive>
0.2709

> <Gold.PLP.ligand.clash>
0.0000

> <Gold.PLP.ligand.torsion>
0.9209

> <Gold.PLP.Chemscore.Hbond>
3.0000

> <Gold.PLP.Chemscore.CHOScore>
0.8093

> <Gold.PLP.Chemscore.Metal>
0.0000

> <Gold.Chemscore.Hbonds>
donor molecule, donor type, donor heavy atom, donor atom, acceptor molecule, acceptor atom, score
      L1  H     6    28       P1  8028  2.00
      L1  H     9    32       P1  7957  1.00
      L1  C    14    35       P1 10174  0.82

> <Gold.PLP.Chemscore.Internal.Correction>
0.0426

> <Gold.Rescore>
     Score         DG    S(hbond)    S(metal)    S(lipo)     H(rot)  DE(clash)    DE(int)     intcor
     20.31     -21.23       1.97        0.00     120.18       1.90       0.19       0.73       ----

> <Gold.Chemscore.Fitness>
20.3097

> <Gold.Chemscore.DG>
-21.2319

> <Gold.Chemscore.ZeroCoef>
-5.4800

> <Gold.Chemscore.Hbond>
1.9651

> <Gold.Chemscore.Metal>
0.0000

> <Gold.Chemscore.Lipo>
120.1834

> <Gold.Chemscore.Internal_Hbond>
0.0000

> <Gold.Chemscore.DEClash>
0.1924

> <Gold.Chemscore.DEInternal>
0.7298

> <Gold.Chemscore.Rot>
1.9035

> <Gold.Chemscore.Internal.Correction>
   9.000000E+99

> <Gold.Chemscore.Hbonds>
donor molecule, donor type, donor heavy atom, donor atom, acceptor molecule, acceptor atom, score
      L1  H     6    28       P1  8028  1.00
      L1  H     9    32       P1  7957  0.96

> <Gold.Chemscore.Hbond.Weighted>
-6.5633

> <Gold.Chemscore.Metal.Weighted>
-0.0000

> <Gold.Chemscore.Lipo.Weighted>
-14.0615

> <Gold.Chemscore.Internal_Hbond.Weighted>
0.0000

> <Gold.Chemscore.DEClash.Weighted>
0.1924

> <Gold.Chemscore.DEInternal.Weighted>
0.7298

> <Gold.Chemscore.Rot.Weighted>
4.8729

> <Gold.Chemscore.Internal.Correction.Weighted>
   9.000000E+99

> <Gold.Protein.RotatedTorsions>
[ 6907 6896 6895 6894 ] final  123.11 input  -60.11 | X-H torsion
[ 7974 7965 7964 7962 ] final   25.75 input  175.53 | X-H torsion
[ 8008 7997 7996 7995 ] final  -58.82 input   59.86 | X-H torsion
[ 10167 10162 10161 10158 ] final  -28.07 input  -65.29 | X-H torsion
[ 10718 10713 10712 10709 ] final   45.49 input   66.30 | X-H torsion
[ 10763 10752 10751 10750 ] final  -56.61 input  -60.55 | X-H torsion
[ 11005 11000 10999 10996 ] final  125.70 input  -57.11 | X-H torsion

> <Gold.Protein.ActiveResidues>
 VAL166  LYS551  ARG553  GLY616  TRP617  ASP618  TYR619  PRO620  LYS621  CYS622 
 ASP623  PHE694  ASN695  SER759  ASP760  ASP761  ALA762  ILE779  LEU786  VAL792 
 PHE793  MET794  SER795  GLU796  ALA797  LYS798  CYS799  TRP800  GLU811  SER814 

> <Gold.Protein.RotatedAtoms>
  152.4189  133.7083  159.6463 H   0  0  0  0  0  0  0  0  0  0  0  0  # atno 6907 bound_to 6896
  150.8065  133.8490  159.3209 H   0  0  0  0  0  0  0  0  0  0  0  0  # atno 6908 bound_to 6896
  151.6212  135.1034  160.0153 H   0  0  0  0  0  0  0  0  0  0  0  0  # atno 6909 bound_to 6896
  146.1873  139.7423  142.8857 H   0  0  0  0  0  0  0  0  0  0  0  0  # atno 7974 bound_to 7965
  154.4325  140.1075  156.6017 H   0  0  0  0  0  0  0  0  0  0  0  0  # atno 8008 bound_to 7997
  155.5903  140.3492  155.4546 H   0  0  0  0  0  0  0  0  0  0  0  0  # atno 8009 bound_to 7997
  156.0251  140.1248  157.0306 H   0  0  0  0  0  0  0  0  0  0  0  0  # atno 8010 bound_to 7997
  140.7273  143.4041  151.1215 H   0  0  0  0  0  0  0  0  0  0  0  0  # atno 10167 bound_to 10162
  157.4381  130.8065  149.7668 H   0  0  0  0  0  0  0  0  0  0  0  0  # atno 10718 bound_to 10713
  154.2093  135.6397  153.5110 H   0  0  0  0  0  0  0  0  0  0  0  0  # atno 10763 bound_to 10752
  152.9993  135.5470  154.6232 H   0  0  0  0  0  0  0  0  0  0  0  0  # atno 10764 bound_to 10752
  154.5665  135.2913  155.0842 H   0  0  0  0  0  0  0  0  0  0  0  0  # atno 10765 bound_to 10752
  139.9419  134.9634  156.8597 H   0  0  0  0  0  0  0  0  0  0  0  0  # atno 11005 bound_to 11000
  145.3901  141.0371  143.3129 LP  0  0  0  0  0  0  0  0  0  0  0  0  # atno 17320 bound_to 7965
  144.8420  139.5456  143.6896 LP  0  0  0  0  0  0  0  0  0  0  0  0  # atno 17321 bound_to 7965
  139.7665  143.8558  152.3111 LP  0  0  0  0  0  0  0  0  0  0  0  0  # atno 17342 bound_to 10162
  139.8462  144.7186  150.9270 LP  0  0  0  0  0  0  0  0  0  0  0  0  # atno 17343 bound_to 10162
  155.9938  130.3922  150.2884 LP  0  0  0  0  0  0  0  0  0  0  0  0  # atno 17370 bound_to 10713
  157.1047  131.0205  151.3072 LP  0  0  0  0  0  0  0  0  0  0  0  0  # atno 17371 bound_to 10713
  140.5930  134.0244  155.7507 LP  0  0  0  0  0  0  0  0  0  0  0  0  # atno 17394 bound_to 11000
  141.1057  133.9698  157.3001 LP  0  0  0  0  0  0  0  0  0  0  0  0  # atno 17395 bound_to 11000

$$$$
