AV-unprocessed.smi:1113|AV-procd|sdf|4798|dock2
  -GOLD-   22720 3343D 1   1.00000     0.00000
 Structure written by MMmdl.
 40 41  0  0  0  0  0  0  0  0  1 V2000
  145.9815  134.5545  151.2262 C   0  0  0  0  0  0  0  0  0  0  0  0
  145.1049  135.7899  150.9842 C   0  0  2  0  0  0  0  0  0  0  0  0
  145.6263  136.4667  149.8585 O   0  0  0  0  0  0  0  0  0  0  0  0
  145.1145  136.7472  152.1918 C   0  0  0  0  0  0  0  0  0  0  0  0
  146.4732  137.0695  152.6149 N   0  0  0  0  0  0  0  0  0  0  0  0
  146.7937  137.9496  153.5736 C   0  0  0  0  0  0  0  0  0  0  0  0
  145.9594  138.5820  154.2208 O   0  0  0  0  0  0  0  0  0  0  0  0
  148.1266  138.0570  153.7064 N   0  0  0  0  0  0  0  0  0  0  0  0
  148.8639  138.8728  154.6063 C   0  0  0  0  0  0  0  0  0  0  0  0
  148.4172  139.2425  155.8972 C   0  0  0  0  0  0  0  0  0  0  0  0
  149.2522  140.0395  156.7035 C   0  0  0  0  0  0  0  0  0  0  0  0
  150.5079  140.4365  156.2001 C   0  0  0  0  0  0  0  0  0  0  0  0
  151.3425  141.2284  157.0012 N   0  0  0  0  0  0  0  0  0  0  0  0
  150.8306  142.5762  157.2172 C   0  0  0  0  0  0  0  0  0  0  0  0
  151.8602  143.4117  157.9975 C   0  0  0  0  0  0  0  0  0  0  0  0
  152.1852  142.7520  159.2180 O   0  0  0  0  0  0  0  0  0  0  0  0
  152.7546  141.4649  158.9946 C   0  0  0  0  0  0  0  0  0  0  0  0
  151.7468  140.5791  158.2421 C   0  0  0  0  0  0  0  0  0  0  0  0
  150.9467  140.0767  154.9708 N   0  0  0  0  0  0  0  0  0  0  0  0
  150.1417  139.3120  154.2033 C   0  0  0  0  0  0  0  0  0  0  0  0
  145.6149  133.9771  152.0755 H   0  0  0  0  0  0  0  0  0  0  0  0
  147.0152  134.8326  151.4349 H   0  0  0  0  0  0  0  0  0  0  0  0
  145.9815  133.8954  150.3573 H   0  0  0  0  0  0  0  0  0  0  0  0
  144.0892  135.4609  150.7605 H   0  0  0  0  0  0  0  0  0  0  0  0
  145.1674  137.2868  149.7620 H   0  0  0  0  0  0  0  0  0  0  0  0
  144.5973  137.6744  151.9381 H   0  0  0  0  0  0  0  0  0  0  0  0
  144.5674  136.3181  153.0323 H   0  0  0  0  0  0  0  0  0  0  0  0
  147.2231  136.6018  152.1270 H   0  0  0  0  0  0  0  0  0  0  0  0
  148.6809  137.5348  153.0437 H   0  0  0  0  0  0  0  0  0  0  0  0
  147.4650  138.9215  156.2902 H   0  0  0  0  0  0  0  0  0  0  0  0
  148.9340  140.3354  157.6925 H   0  0  0  0  0  0  0  0  0  0  0  0
  150.6146  143.0480  156.2578 H   0  0  0  0  0  0  0  0  0  0  0  0
  149.8934  142.5311  157.7737 H   0  0  0  0  0  0  0  0  0  0  0  0
  152.7634  143.5683  157.4052 H   0  0  0  0  0  0  0  0  0  0  0  0
  151.4524  144.3970  158.2233 H   0  0  0  0  0  0  0  0  0  0  0  0
  153.6851  141.5599  158.4324 H   0  0  0  0  0  0  0  0  0  0  0  0
  153.0070  141.0157  159.9550 H   0  0  0  0  0  0  0  0  0  0  0  0
  150.8719  140.4005  158.8690 H   0  0  0  0  0  0  0  0  0  0  0  0
  152.1916  139.6077  158.0228 H   0  0  0  0  0  0  0  0  0  0  0  0
  150.5319  139.0458  153.2318 H   0  0  0  0  0  0  0  0  0  0  0  0
  1  2  1  0  0  0  0
  1 21  1  0  0  0  0
  1 22  1  0  0  0  0
  1 23  1  0  0  0  0
  2  3  1  0  0  0  0
  2  4  1  0  0  0  0
  2 24  1  0  0  0  0
  3 25  1  0  0  0  0
  4  5  1  0  0  0  0
  4 26  1  0  0  0  0
  4 27  1  0  0  0  0
  5  6  1  0  0  0  0
  5 28  1  0  0  0  0
  6  7  2  0  0  0  0
  6  8  1  0  0  0  0
  8  9  1  0  0  0  0
  8 29  1  0  0  0  0
  9 20  1  0  0  0  0
  9 10  2  0  0  0  0
 10 11  1  0  0  0  0
 10 30  1  0  0  0  0
 11 12  2  0  0  0  0
 11 31  1  0  0  0  0
 12 13  1  0  0  0  0
 12 19  1  0  0  0  0
 13 18  1  0  0  0  0
 13 14  1  0  0  0  0
 14 15  1  0  0  0  0
 14 32  1  0  0  0  0
 14 33  1  0  0  0  0
 15 16  1  0  0  0  0
 15 34  1  0  0  0  0
 15 35  1  0  0  0  0
 16 17  1  0  0  0  0
 17 18  1  0  0  0  0
 17 36  1  0  0  0  0
 17 37  1  0  0  0  0
 18 38  1  0  0  0  0
 18 39  1  0  0  0  0
 19 20  2  0  0  0  0
 20 40  1  0  0  0  0
M  END
> <s_m_source_file>
AV-unprocessed.smi

> <i_m_source_file_index>
1113

> <i_lp_mmshare_version>
43012

> <i_f3d_flags>
0

> <s_epik_input>
W0NIM11bQ0BIXShbT0hdKVtDSDJdW05IXUMoPU8pW05IXWMxW2NIXVtjSF1jKG5bY0hdMSlOMltDSDJdW0NIMl1PW0NIMl1bQ0gyXTI=

> <s_epik_cmdline>
J2VwaWtfcHl0aG9uJywgJy1waCcsICc3LjAnLCAnLXRuJywgJzgnLCAnLW1hJywgJzIwMCcsICctbWV0YWxfYmluZGluZycsICctaW1hZScsICc8aW5maWxlLm1hZT4nLCAnLW9tYWUnLCAnPG91dGZpbGUubWFlPic=

> <r_lp_tautomer_probability>
1

> <r_epik_Ionization_Penalty>
0.00204837

> <r_epik_Ionization_Penalty_Charging>
0

> <r_epik_Ionization_Penalty_Neutral>
0.00204837

> <r_epik_State_Penalty>
0.00137592

> <r_epik_Charging_Adjusted_Penalty>
0.00137592

> <i_epik_Tot_Q>
0

> <i_epik_Tot_abs_Q>
0

> <r_epik_Metal_State_Penalty>
-0

> <b_epik_Metal_Only>
0

> <s_lp_Force_Field>
OPLS_2005

> <r_lp_Energy>
20.5006

> <b_lp_Chiralities_Consistent>
1

> <s_lp_Variant>
AV-unprocessed.smi:1113-1

> <Gold.Version>
5.8.1

> <Gold.Id.Protein>
6NUR|6NUR_protein|mol2

> <Gold.PLP.Fitness>
43.8332

> <Gold.PLP.PLP>
-30.3952

> <Gold.PLP.part.hbond>
-5.0000

> <Gold.PLP.part.metal>
0.0000

> <Gold.PLP.part.buried>
-5.4446

> <Gold.PLP.part.nonpolar>
-20.9786

> <Gold.PLP.part.repulsive>
0.2266

> <Gold.PLP.ligand.clash>
0.0000

> <Gold.PLP.ligand.torsion>
0.3001

> <Gold.PLP.Chemscore.Hbond>
3.7000

> <Gold.PLP.Chemscore.CHOScore>
0.9386

> <Gold.PLP.Chemscore.Metal>
0.0000

> <Gold.Chemscore.Hbonds>
donor molecule, donor type, donor heavy atom, donor atom, acceptor molecule, acceptor atom, score
      L1  H     3    25       P1 10171  1.00
      L1  H     5    28       P1  7948  1.00
      L1  H     8    29       P1  7948  1.00
      P1  H  7989  7998       L1    19  0.55
      L1  C    20    40       P1  7957  0.85

> <Gold.PLP.Chemscore.Internal.Correction>
0.1223

> <Gold.Rescore>
     Score         DG    S(hbond)    S(metal)    S(lipo)     H(rot)  DE(clash)    DE(int)     intcor
     18.12     -18.61       3.14        0.00      67.95       2.08       0.08       0.41       ----

> <Gold.Chemscore.Fitness>
18.1168

> <Gold.Chemscore.DG>
-18.6060

> <Gold.Chemscore.ZeroCoef>
-5.4800

> <Gold.Chemscore.Hbond>
3.1438

> <Gold.Chemscore.Metal>
0.0000

> <Gold.Chemscore.Lipo>
67.9529

> <Gold.Chemscore.Internal_Hbond>
0.0000

> <Gold.Chemscore.DEClash>
0.0826

> <Gold.Chemscore.DEInternal>
0.4066

> <Gold.Chemscore.Rot>
2.0799

> <Gold.Chemscore.Internal.Correction>
   9.000000E+99

> <Gold.Chemscore.Hbonds>
donor molecule, donor type, donor heavy atom, donor atom, acceptor molecule, acceptor atom, score
      L1  H     3    25       P1 10171  1.00
      L1  H     5    28       P1  7948  0.98
      L1  H     8    29       P1  7948  0.98
      P1  H  7989  7998       L1    19  0.03

> <Gold.Chemscore.Hbond.Weighted>
-10.5001

> <Gold.Chemscore.Metal.Weighted>
-0.0000

> <Gold.Chemscore.Lipo.Weighted>
-7.9505

> <Gold.Chemscore.Internal_Hbond.Weighted>
0.0000

> <Gold.Chemscore.DEClash.Weighted>
0.0826

> <Gold.Chemscore.DEInternal.Weighted>
0.4066

> <Gold.Chemscore.Rot.Weighted>
5.3246

> <Gold.Chemscore.Internal.Correction.Weighted>
   9.000000E+99

> <Gold.Protein.RotatedTorsions>
[ 6907 6896 6895 6894 ] final  113.58 input  -60.11 | X-H torsion
[ 7974 7965 7964 7962 ] final -146.29 input  175.53 | X-H torsion
[ 8008 7997 7996 7995 ] final -167.89 input   59.86 | X-H torsion
[ 10167 10162 10161 10158 ] final  -94.64 input  -65.29 | X-H torsion
[ 10718 10713 10712 10709 ] final  122.98 input   66.30 | X-H torsion
[ 10763 10752 10751 10750 ] final   54.61 input  -60.55 | X-H torsion
[ 11005 11000 10999 10996 ] final -175.82 input  -57.11 | X-H torsion

> <Gold.Protein.ActiveResidues>
 VAL166  LYS551  ARG553  GLY616  TRP617  ASP618  TYR619  PRO620  LYS621  CYS622 
 ASP623  PHE694  ASN695  SER759  ASP760  ASP761  ALA762  ILE779  LEU786  VAL792 
 PHE793  MET794  SER795  GLU796  ALA797  LYS798  CYS799  TRP800  GLU811  SER814 

> <Gold.Protein.RotatedAtoms>
  152.4852  133.8355  159.7125 H   0  0  0  0  0  0  0  0  0  0  0  0  # atno 6907 bound_to 6896
  150.8933  133.7204  159.2905 H   0  0  0  0  0  0  0  0  0  0  0  0  # atno 6908 bound_to 6896
  151.4670  135.1046  159.9793 H   0  0  0  0  0  0  0  0  0  0  0  0  # atno 6909 bound_to 6896
  144.8169  140.5475  143.5604 H   0  0  0  0  0  0  0  0  0  0  0  0  # atno 7974 bound_to 7965
  155.8839  140.1013  157.1466 H   0  0  0  0  0  0  0  0  0  0  0  0  # atno 8008 bound_to 7997
  154.4008  140.1323  156.4295 H   0  0  0  0  0  0  0  0  0  0  0  0  # atno 8009 bound_to 7997
  155.7611  140.3463  155.5201 H   0  0  0  0  0  0  0  0  0  0  0  0  # atno 8010 bound_to 7997
  140.3123  143.3097  152.0135 H   0  0  0  0  0  0  0  0  0  0  0  0  # atno 10167 bound_to 10162
  157.5701  131.1084  150.8383 H   0  0  0  0  0  0  0  0  0  0  0  0  # atno 10718 bound_to 10713
  152.9806  135.5739  154.4932 H   0  0  0  0  0  0  0  0  0  0  0  0  # atno 10763 bound_to 10752
  154.4463  135.2777  155.1815 H   0  0  0  0  0  0  0  0  0  0  0  0  # atno 10764 bound_to 10752
  154.3461  135.6219  153.5673 H   0  0  0  0  0  0  0  0  0  0  0  0  # atno 10765 bound_to 10752
  140.4590  134.6272  157.4834 H   0  0  0  0  0  0  0  0  0  0  0  0  # atno 11005 bound_to 11000
  145.5193  139.1477  143.3561 LP  0  0  0  0  0  0  0  0  0  0  0  0  # atno 17320 bound_to 7965
  146.2473  140.5334  142.8908 LP  0  0  0  0  0  0  0  0  0  0  0  0  # atno 17321 bound_to 7965
  139.4891  144.6375  151.6946 LP  0  0  0  0  0  0  0  0  0  0  0  0  # atno 17342 bound_to 10162
  140.5557  144.0352  150.6146 LP  0  0  0  0  0  0  0  0  0  0  0  0  # atno 17343 bound_to 10162
  156.8857  130.5195  149.5288 LP  0  0  0  0  0  0  0  0  0  0  0  0  # atno 17370 bound_to 10713
  156.0747  130.5771  150.9450 LP  0  0  0  0  0  0  0  0  0  0  0  0  # atno 17371 bound_to 10713
  139.9958  134.6914  155.9613 LP  0  0  0  0  0  0  0  0  0  0  0  0  # atno 17394 bound_to 11000
  141.1630  133.6538  156.4382 LP  0  0  0  0  0  0  0  0  0  0  0  0  # atno 17395 bound_to 11000

$$$$
