AV-unprocessed.smi:863|AV-procd|sdf|3984|dock3
  -GOLD-   22720 1463D 1   1.00000     0.00000
 Structure written by MMmdl.
 42 44  0  0  0  0  0  0  0  0  1 V2000
  150.3931  136.9393  159.2471 O   0  0  0  0  0  0  0  0  0  0  0  0
  149.2608  137.0988  158.7913 C   0  0  0  0  0  0  0  0  0  0  0  0
  148.1625  136.0799  159.0977 C   0  0  0  0  0  0  0  0  0  0  0  0
  147.5001  136.4083  160.4083 C   0  0  0  0  0  0  0  0  0  0  0  0
  147.3262  135.5691  161.5442 C   0  0  0  0  0  0  0  0  0  0  0  0
  146.6681  136.3679  162.4341 C   0  0  0  0  0  0  0  0  0  0  0  0
  146.4474  137.5947  161.8982 O   0  0  0  0  0  0  0  0  0  0  0  0
  146.9794  137.6106  160.6036 N   0  0  0  0  0  0  0  0  0  0  0  0
  148.9141  138.1391  158.0167 N   0  0  0  0  0  0  0  0  0  0  0  0
  149.8052  139.2227  157.6138 C   0  0  2  0  0  0  0  0  0  0  0  0
  150.9952  138.6530  156.8341 C   0  0  0  0  0  0  0  0  0  0  0  0
  152.0024  139.7623  156.5023 C   0  0  0  0  0  0  0  0  0  0  0  0
  152.4201  140.4296  157.6919 O   0  0  0  0  0  0  0  0  0  0  0  0
  151.3918  141.0531  158.4726 C   0  0  0  0  0  0  0  0  0  0  0  0
  152.0837  141.5535  159.7625 C   0  0  0  0  0  0  0  0  0  0  0  0
  153.1057  142.6722  159.4944 C   0  0  0  0  0  0  0  0  0  0  0  0
  152.4625  143.8496  158.7494 C   0  0  0  0  0  0  0  0  0  0  0  0
  151.7907  143.3763  157.4532 C   0  0  0  0  0  0  0  0  0  0  0  0
  150.7647  142.2658  157.7324 C   0  0  0  0  0  0  0  0  0  0  0  0
  150.3305  139.9879  158.8419 C   0  0  0  0  0  0  0  0  0  0  0  0
  147.4352  136.0644  158.2844 H   0  0  0  0  0  0  0  0  0  0  0  0
  148.6023  135.0827  159.1359 H   0  0  0  0  0  0  0  0  0  0  0  0
  147.6372  134.5445  161.6831 H   0  0  0  0  0  0  0  0  0  0  0  0
  146.3044  136.2157  163.4395 H   0  0  0  0  0  0  0  0  0  0  0  0
  147.9598  138.1891  157.6902 H   0  0  0  0  0  0  0  0  0  0  0  0
  149.2567  139.9032  156.9607 H   0  0  0  0  0  0  0  0  0  0  0  0
  151.4933  137.8831  157.4253 H   0  0  0  0  0  0  0  0  0  0  0  0
  150.6537  138.1719  155.9169 H   0  0  0  0  0  0  0  0  0  0  0  0
  152.8821  139.3294  156.0258 H   0  0  0  0  0  0  0  0  0  0  0  0
  151.5848  140.4682  155.7849 H   0  0  0  0  0  0  0  0  0  0  0  0
  151.3304  141.9236  160.4596 H   0  0  0  0  0  0  0  0  0  0  0  0
  152.5815  140.7242  160.2666 H   0  0  0  0  0  0  0  0  0  0  0  0
  153.5307  143.0185  160.4369 H   0  0  0  0  0  0  0  0  0  0  0  0
  153.9376  142.2790  158.9085 H   0  0  0  0  0  0  0  0  0  0  0  0
  151.7228  144.3295  159.3915 H   0  0  0  0  0  0  0  0  0  0  0  0
  153.2155  144.6055  158.5253 H   0  0  0  0  0  0  0  0  0  0  0  0
  151.3012  144.2176  156.9622 H   0  0  0  0  0  0  0  0  0  0  0  0
  152.5478  143.0118  156.7578 H   0  0  0  0  0  0  0  0  0  0  0  0
  150.2923  141.9687  156.7975 H   0  0  0  0  0  0  0  0  0  0  0  0
  149.9607  142.6791  158.3428 H   0  0  0  0  0  0  0  0  0  0  0  0
  149.5045  140.4550  159.3799 H   0  0  0  0  0  0  0  0  0  0  0  0
  150.7732  139.2703  159.5347 H   0  0  0  0  0  0  0  0  0  0  0  0
  1  2  2  0  0  0  0
  2  3  1  0  0  0  0
  2  9  1  0  0  0  0
  3  4  1  0  0  0  0
  3 21  1  0  0  0  0
  3 22  1  0  0  0  0
  4  8  2  0  0  0  0
  4  5  1  0  0  0  0
  5  6  2  0  0  0  0
  5 23  1  0  0  0  0
  6  7  1  0  0  0  0
  6 24  1  0  0  0  0
  7  8  1  0  0  0  0
  9 10  1  0  0  0  0
  9 25  1  0  0  0  0
 10 20  1  0  0  0  0
 10 11  1  0  0  0  0
 10 26  1  0  0  0  0
 11 12  1  0  0  0  0
 11 27  1  0  0  0  0
 11 28  1  0  0  0  0
 12 13  1  0  0  0  0
 12 29  1  0  0  0  0
 12 30  1  0  0  0  0
 13 14  1  0  0  0  0
 14 19  1  0  0  0  0
 14 15  1  0  0  0  0
 14 20  1  0  0  0  0
 15 16  1  0  0  0  0
 15 31  1  0  0  0  0
 15 32  1  0  0  0  0
 16 17  1  0  0  0  0
 16 33  1  0  0  0  0
 16 34  1  0  0  0  0
 17 18  1  0  0  0  0
 17 35  1  0  0  0  0
 17 36  1  0  0  0  0
 18 19  1  0  0  0  0
 18 37  1  0  0  0  0
 18 38  1  0  0  0  0
 19 39  1  0  0  0  0
 19 40  1  0  0  0  0
 20 41  1  0  0  0  0
 20 42  1  0  0  0  0
M  END
> <s_m_source_file>
AV-unprocessed.smi

> <i_m_source_file_index>
863

> <i_lp_mmshare_version>
43012

> <i_f3d_flags>
0

> <s_epik_input>
bjFvW2NIXVtjSF1jMVtDSDJdQyg9TylbTkhdW0NAQEhdKFtDSDJdMilbQ0gyXVtDSDJdT0MyM1tDSDJdW0NIMl1bQ0gyXVtDSDJdW0NIMl0z

> <s_epik_cmdline>
J2VwaWtfcHl0aG9uJywgJy1waCcsICc3LjAnLCAnLXRuJywgJzgnLCAnLW1hJywgJzIwMCcsICctbWV0YWxfYmluZGluZycsICctaW1hZScsICc8aW5maWxlLm1hZT4nLCAnLW9tYWUnLCAnPG91dGZpbGUubWFlPic=

> <r_lp_tautomer_probability>
1

> <r_epik_Ionization_Penalty>
1.10177e-07

> <r_epik_Ionization_Penalty_Charging>
0

> <r_epik_Ionization_Penalty_Neutral>
1.10177e-07

> <r_epik_State_Penalty>
-0

> <r_epik_Charging_Adjusted_Penalty>
0

> <i_epik_Tot_Q>
0

> <i_epik_Tot_abs_Q>
0

> <r_epik_Metal_State_Penalty>
-0

> <b_epik_Metal_Only>
0

> <s_lp_Force_Field>
OPLS_2005

> <r_lp_Energy>
15.5763

> <b_lp_Chiralities_Consistent>
1

> <s_lp_Variant>
AV-unprocessed.smi:863-1

> <Gold.Version>
5.8.1

> <Gold.Id.Protein>
6NUR|6NUR_protein|mol2

> <Gold.PLP.Fitness>
41.1317

> <Gold.PLP.PLP>
-36.6912

> <Gold.PLP.part.hbond>
-5.8360

> <Gold.PLP.part.metal>
0.0000

> <Gold.PLP.part.buried>
-2.7336

> <Gold.PLP.part.nonpolar>
-27.7733

> <Gold.PLP.part.repulsive>
0.1223

> <Gold.PLP.ligand.clash>
0.0000

> <Gold.PLP.ligand.torsion>
0.3830

> <Gold.PLP.Chemscore.Hbond>
1.7351

> <Gold.PLP.Chemscore.CHOScore>
0.0000

> <Gold.PLP.Chemscore.Metal>
0.0000

> <Gold.Chemscore.Hbonds>
donor molecule, donor type, donor heavy atom, donor atom, acceptor molecule, acceptor atom, score
      P1  H  6896  6909       L1     1  0.73
      P1  H  6934  6947       L1     8  0.08

> <Gold.PLP.Chemscore.Internal.Correction>
0.0011

> <Gold.Rescore>
     Score         DG    S(hbond)    S(metal)    S(lipo)     H(rot)  DE(clash)    DE(int)     intcor
     15.93     -17.63       0.98        0.00     106.85       1.42       0.23       1.47       ----

> <Gold.Chemscore.Fitness>
15.9323

> <Gold.Chemscore.DG>
-17.6327

> <Gold.Chemscore.ZeroCoef>
-5.4800

> <Gold.Chemscore.Hbond>
0.9813

> <Gold.Chemscore.Metal>
0.0000

> <Gold.Chemscore.Lipo>
106.8465

> <Gold.Chemscore.Internal_Hbond>
0.0000

> <Gold.Chemscore.DEClash>
0.2319

> <Gold.Chemscore.DEInternal>
1.4684

> <Gold.Chemscore.Rot>
1.4164

> <Gold.Chemscore.Internal.Correction>
   9.000000E+99

> <Gold.Chemscore.Hbonds>
donor molecule, donor type, donor heavy atom, donor atom, acceptor molecule, acceptor atom, score
      P1  H  6896  6909       L1     1  0.71

> <Gold.Chemscore.Hbond.Weighted>
-3.2775

> <Gold.Chemscore.Metal.Weighted>
-0.0000

> <Gold.Chemscore.Lipo.Weighted>
-12.5010

> <Gold.Chemscore.Internal_Hbond.Weighted>
0.0000

> <Gold.Chemscore.DEClash.Weighted>
0.2319

> <Gold.Chemscore.DEInternal.Weighted>
1.4684

> <Gold.Chemscore.Rot.Weighted>
3.6259

> <Gold.Chemscore.Internal.Correction.Weighted>
   9.000000E+99

> <Gold.Protein.RotatedTorsions>
[ 6907 6896 6895 6894 ] final  108.17 input  -60.11 | X-H torsion
[ 7974 7965 7964 7962 ] final   20.41 input  175.53 | X-H torsion
[ 8008 7997 7996 7995 ] final   61.38 input   59.86 | X-H torsion
[ 10167 10162 10161 10158 ] final   -9.60 input  -65.29 | X-H torsion
[ 10718 10713 10712 10709 ] final  -40.71 input   66.30 | X-H torsion
[ 10763 10752 10751 10750 ] final   28.53 input  -60.55 | X-H torsion
[ 11005 11000 10999 10996 ] final   55.47 input  -57.11 | X-H torsion

> <Gold.Protein.ActiveResidues>
 VAL166  LYS551  ARG553  GLY616  TRP617  ASP618  TYR619  PRO620  LYS621  CYS622 
 ASP623  PHE694  ASN695  SER759  ASP760  ASP761  ALA762  ILE779  LEU786  VAL792 
 PHE793  MET794  SER795  GLU796  ALA797  LYS798  CYS799  TRP800  GLU811  SER814 

> <Gold.Protein.RotatedAtoms>
  152.5123  133.9127  159.7495 H   0  0  0  0  0  0  0  0  0  0  0  0  # atno 6907 bound_to 6896
  150.9517  133.6534  159.2777 H   0  0  0  0  0  0  0  0  0  0  0  0  # atno 6908 bound_to 6896
  151.3810  135.0945  159.9548 H   0  0  0  0  0  0  0  0  0  0  0  0  # atno 6909 bound_to 6896
  146.2112  139.8174  142.8687 H   0  0  0  0  0  0  0  0  0  0  0  0  # atno 7974 bound_to 7965
  155.5975  140.3493  155.4584 H   0  0  0  0  0  0  0  0  0  0  0  0  # atno 8008 bound_to 7997
  156.0254  140.1263  157.0339 H   0  0  0  0  0  0  0  0  0  0  0  0  # atno 8009 bound_to 7997
  154.4331  140.1054  156.6009 H   0  0  0  0  0  0  0  0  0  0  0  0  # atno 8010 bound_to 7997
  140.7092  143.5840  150.8962 H   0  0  0  0  0  0  0  0  0  0  0  0  # atno 10167 bound_to 10162
  156.2783  130.4214  149.8364 H   0  0  0  0  0  0  0  0  0  0  0  0  # atno 10718 bound_to 10713
  153.0486  135.6511  154.0752 H   0  0  0  0  0  0  0  0  0  0  0  0  # atno 10763 bound_to 10752
  154.0445  135.2900  155.3351 H   0  0  0  0  0  0  0  0  0  0  0  0  # atno 10764 bound_to 10752
  154.6760  135.5338  153.8266 H   0  0  0  0  0  0  0  0  0  0  0  0  # atno 10765 bound_to 10752
  140.0604  134.5610  155.9158 H   0  0  0  0  0  0  0  0  0  0  0  0  # atno 11005 bound_to 11000
  145.3132  141.0225  143.3542 LP  0  0  0  0  0  0  0  0  0  0  0  0  # atno 17320 bound_to 7965
  144.8920  139.4761  143.6673 LP  0  0  0  0  0  0  0  0  0  0  0  0  # atno 17321 bound_to 7965
  139.9566  143.6212  152.3014 LP  0  0  0  0  0  0  0  0  0  0  0  0  # atno 17342 bound_to 10162
  139.6749  144.7659  151.1714 LP  0  0  0  0  0  0  0  0  0  0  0  0  # atno 17343 bound_to 10162
  156.5820  130.8470  151.3385 LP  0  0  0  0  0  0  0  0  0  0  0  0  # atno 17370 bound_to 10713
  157.7306  130.9688  150.1842 LP  0  0  0  0  0  0  0  0  0  0  0  0  # atno 17371 bound_to 10713
  141.1971  133.6594  156.5723 LP  0  0  0  0  0  0  0  0  0  0  0  0  # atno 17394 bound_to 11000
  140.3778  134.7549  157.4641 LP  0  0  0  0  0  0  0  0  0  0  0  0  # atno 17395 bound_to 11000

$$$$
