AV-unprocessed.smi:787|AV-procd|sdf|3729|dock4
  -GOLD-   22720 1163D 1   1.00000     0.00000
 Structure written by MMmdl.
 46 48  0  0  0  0  0  0  0  0  1 V2000
  150.3616  145.2282  158.8669 C   0  0  0  0  0  0  0  0  0  0  0  0
  150.4281  143.9327  158.2093 N   0  0  0  0  0  0  0  0  0  0  0  0
  151.2948  142.9389  158.6858 C   0  0  0  0  0  0  0  0  0  0  0  0
  151.8819  143.0770  159.8975 N   0  0  0  0  0  0  0  0  0  0  0  0
  152.7118  142.1076  160.3049 C   0  0  0  0  0  0  0  0  0  0  0  0
  153.0673  140.9775  159.6741 N   0  0  0  0  0  0  0  0  0  0  0  0
  152.4861  140.8288  158.4759 C   0  0  0  0  0  0  0  0  0  0  0  0
  152.6661  139.7626  157.6113 N   0  0  0  0  0  0  0  0  0  0  0  0
  151.8774  140.1024  156.5947 C   0  0  0  0  0  0  0  0  0  0  0  0
  151.2099  141.2692  156.6890 N   0  0  0  0  0  0  0  0  0  0  0  0
  150.3058  141.8397  155.7064 C   0  0  0  0  0  0  0  0  0  0  0  0
  149.4619  140.7614  155.0020 C   0  0  2  0  0  0  0  0  0  0  0  0
  150.0762  140.4797  153.7613 O   0  0  0  0  0  0  0  0  0  0  0  0
  148.0120  141.2205  154.7303 C   0  0  0  0  0  0  0  0  0  0  0  0
  147.3474  141.9222  155.8355 N   0  0  0  0  0  0  0  0  0  0  0  0
  147.6853  141.2845  157.1021 C   0  0  0  0  0  0  0  0  0  0  0  0
  145.8861  141.9558  155.6995 C   0  0  0  0  0  0  0  0  0  0  0  0
  145.3151  143.1485  154.9548 C   0  0  0  0  0  0  0  0  0  0  0  0
  144.3838  144.0013  155.5850 C   0  0  0  0  0  0  0  0  0  0  0  0
  143.8432  145.0979  154.8856 C   0  0  0  0  0  0  0  0  0  0  0  0
  144.2204  145.3369  153.5501 C   0  0  0  0  0  0  0  0  0  0  0  0
  145.1406  144.4809  152.9152 C   0  0  0  0  0  0  0  0  0  0  0  0
  145.6919  143.3922  153.6174 C   0  0  0  0  0  0  0  0  0  0  0  0
  151.5816  141.7865  157.9274 C   0  0  0  0  0  0  0  0  0  0  0  0
  149.6477  145.8701  158.3511 H   0  0  0  0  0  0  0  0  0  0  0  0
  151.3348  145.7197  158.8523 H   0  0  0  0  0  0  0  0  0  0  0  0
  150.0376  145.1217  159.9027 H   0  0  0  0  0  0  0  0  0  0  0  0
  149.9758  143.8157  157.3137 H   0  0  0  0  0  0  0  0  0  0  0  0
  153.1618  142.2592  161.2746 H   0  0  0  0  0  0  0  0  0  0  0  0
  151.7833  139.4675  155.7257 H   0  0  0  0  0  0  0  0  0  0  0  0
  149.6643  142.5736  156.1966 H   0  0  0  0  0  0  0  0  0  0  0  0
  150.9045  142.3936  154.9825 H   0  0  0  0  0  0  0  0  0  0  0  0
  149.4958  139.8522  155.5965 H   0  0  0  0  0  0  0  0  0  0  0  0
  149.4703  140.6954  153.0691 H   0  0  0  0  0  0  0  0  0  0  0  0
  147.9803  141.8542  153.8439 H   0  0  0  0  0  0  0  0  0  0  0  0
  147.4412  140.3317  154.4561 H   0  0  0  0  0  0  0  0  0  0  0  0
  147.2276  141.8138  157.9385 H   0  0  0  0  0  0  0  0  0  0  0  0
  148.7636  141.2919  157.2652 H   0  0  0  0  0  0  0  0  0  0  0  0
  147.3443  140.2484  157.1263 H   0  0  0  0  0  0  0  0  0  0  0  0
  145.5348  141.0348  155.2316 H   0  0  0  0  0  0  0  0  0  0  0  0
  145.4332  141.9751  156.6916 H   0  0  0  0  0  0  0  0  0  0  0  0
  144.0878  143.8183  156.6077 H   0  0  0  0  0  0  0  0  0  0  0  0
  143.1363  145.7534  155.3726 H   0  0  0  0  0  0  0  0  0  0  0  0
  143.8055  146.1772  153.0132 H   0  0  0  0  0  0  0  0  0  0  0  0
  145.4307  144.6647  151.8913 H   0  0  0  0  0  0  0  0  0  0  0  0
  146.4021  142.7447  153.1242 H   0  0  0  0  0  0  0  0  0  0  0  0
  1  2  1  0  0  0  0
  1 25  1  0  0  0  0
  1 26  1  0  0  0  0
  1 27  1  0  0  0  0
  2  3  1  0  0  0  0
  2 28  1  0  0  0  0
  3 24  1  0  0  0  0
  3  4  2  0  0  0  0
  4  5  1  0  0  0  0
  5  6  2  0  0  0  0
  5 29  1  0  0  0  0
  6  7  1  0  0  0  0
  7 24  2  0  0  0  0
  7  8  1  0  0  0  0
  8  9  2  0  0  0  0
  9 10  1  0  0  0  0
  9 30  1  0  0  0  0
 10 11  1  0  0  0  0
 10 24  1  0  0  0  0
 11 12  1  0  0  0  0
 11 31  1  0  0  0  0
 11 32  1  0  0  0  0
 12 13  1  0  0  0  0
 12 14  1  0  0  0  0
 12 33  1  0  0  0  0
 13 34  1  0  0  0  0
 14 15  1  0  0  0  0
 14 35  1  0  0  0  0
 14 36  1  0  0  0  0
 15 16  1  0  0  0  0
 15 17  1  0  0  0  0
 16 37  1  0  0  0  0
 16 38  1  0  0  0  0
 16 39  1  0  0  0  0
 17 18  1  0  0  0  0
 17 40  1  0  0  0  0
 17 41  1  0  0  0  0
 18 23  1  0  0  0  0
 18 19  2  0  0  0  0
 19 20  1  0  0  0  0
 19 42  1  0  0  0  0
 20 21  2  0  0  0  0
 20 43  1  0  0  0  0
 21 22  1  0  0  0  0
 21 44  1  0  0  0  0
 22 23  2  0  0  0  0
 22 45  1  0  0  0  0
 23 46  1  0  0  0  0
M  END
> <s_m_source_file>
AV-unprocessed.smi

> <i_m_source_file_index>
787

> <i_lp_mmshare_version>
43012

> <i_f3d_flags>
0

> <s_epik_input>
bjFbY0hdbmMoW05IXVtDSDNdKWMoYzEyKW4oW2NIXW4yKVtDSDJdW0NASF0oW09IXSlbQ0gyXU4oW0NIM10pW0NIMl1jM1tjSF1bY0hdW2NIXVtjSF1bY0hdMw==

> <s_epik_cmdline>
J2VwaWtfcHl0aG9uJywgJy1waCcsICc3LjAnLCAnLXRuJywgJzgnLCAnLW1hJywgJzIwMCcsICctbWV0YWxfYmluZGluZycsICctaW1hZScsICc8aW5maWxlLm1hZT4nLCAnLW9tYWUnLCAnPG91dGZpbGUubWFlPic=

> <r_lp_tautomer_probability>
0.999987

> <r_epik_Ionization_Penalty>
1.52367

> <r_epik_Ionization_Penalty_Charging>
0

> <r_epik_Ionization_Penalty_Neutral>
1.52367

> <r_epik_State_Penalty>
1.60995

> <r_epik_Charging_Adjusted_Penalty>
1.60995

> <i_epik_Tot_Q>
0

> <i_epik_Tot_abs_Q>
0

> <r_epik_Metal_State_Penalty>
1.60969

> <b_epik_Metal_Only>
0

> <s_lp_Force_Field>
OPLS_2005

> <r_lp_Energy>
20.724

> <b_lp_Chiralities_Consistent>
1

> <s_lp_Variant>
AV-unprocessed.smi:787-5

> <Gold.Version>
5.8.1

> <Gold.Id.Protein>
6NUR|6NUR_protein|mol2

> <Gold.PLP.Fitness>
53.1566

> <Gold.PLP.PLP>
-47.5543

> <Gold.PLP.part.hbond>
-3.5052

> <Gold.PLP.part.metal>
0.0000

> <Gold.PLP.part.buried>
-6.4549

> <Gold.PLP.part.nonpolar>
-36.7330

> <Gold.PLP.part.repulsive>
0.5891

> <Gold.PLP.ligand.clash>
0.0000

> <Gold.PLP.ligand.torsion>
1.6053

> <Gold.PLP.Chemscore.Hbond>
2.8255

> <Gold.PLP.Chemscore.CHOScore>
0.0000

> <Gold.PLP.Chemscore.Metal>
0.0000

> <Gold.Chemscore.Hbonds>
donor molecule, donor type, donor heavy atom, donor atom, acceptor molecule, acceptor atom, score
      L1  H     2    28       P1  8028  0.64
      L1  H    13    34       P1  7957  0.50
      P1  H  7989  7998       L1    13  0.64
      P1  H  7997  8010       L1     8  1.00

> <Gold.PLP.Chemscore.Internal.Correction>
0.3364

> <Gold.Rescore>
     Score         DG    S(hbond)    S(metal)    S(lipo)     H(rot)  DE(clash)    DE(int)     intcor
     10.21     -13.91       2.02        0.00      82.24       3.11       1.25       2.44       ----

> <Gold.Chemscore.Fitness>
10.2127

> <Gold.Chemscore.DG>
-13.9099

> <Gold.Chemscore.ZeroCoef>
-5.4800

> <Gold.Chemscore.Hbond>
2.0249

> <Gold.Chemscore.Metal>
0.0000

> <Gold.Chemscore.Lipo>
82.2397

> <Gold.Chemscore.Internal_Hbond>
0.0000

> <Gold.Chemscore.DEClash>
1.2530

> <Gold.Chemscore.DEInternal>
2.4442

> <Gold.Chemscore.Rot>
3.1075

> <Gold.Chemscore.Internal.Correction>
   9.000000E+99

> <Gold.Chemscore.Hbonds>
donor molecule, donor type, donor heavy atom, donor atom, acceptor molecule, acceptor atom, score
      L1  H     2    28       P1  8028  0.52
      L1  H    13    34       P1  7957  0.47
      P1  H  7989  7998       L1    13  0.55
      P1  H  7997  8010       L1     8  0.18

> <Gold.Chemscore.Hbond.Weighted>
-6.7630

> <Gold.Chemscore.Metal.Weighted>
-0.0000

> <Gold.Chemscore.Lipo.Weighted>
-9.6220

> <Gold.Chemscore.Internal_Hbond.Weighted>
0.0000

> <Gold.Chemscore.DEClash.Weighted>
1.2530

> <Gold.Chemscore.DEInternal.Weighted>
2.4442

> <Gold.Chemscore.Rot.Weighted>
7.9551

> <Gold.Chemscore.Internal.Correction.Weighted>
   9.000000E+99

> <Gold.Protein.RotatedTorsions>
[ 6907 6896 6895 6894 ] final -173.15 input  -60.11 | X-H torsion
[ 7974 7965 7964 7962 ] final  155.79 input  175.53 | X-H torsion
[ 8008 7997 7996 7995 ] final   38.20 input   59.86 | X-H torsion
[ 10167 10162 10161 10158 ] final  -81.07 input  -65.29 | X-H torsion
[ 10718 10713 10712 10709 ] final -160.42 input   66.30 | X-H torsion
[ 10763 10752 10751 10750 ] final   69.64 input  -60.55 | X-H torsion
[ 11005 11000 10999 10996 ] final  -52.56 input  -57.11 | X-H torsion

> <Gold.Protein.ActiveResidues>
 VAL166  LYS551  ARG553  GLY616  TRP617  ASP618  TYR619  PRO620  LYS621  CYS622 
 ASP623  PHE694  ASN695  SER759  ASP760  ASP761  ALA762  ILE779  LEU786  VAL792 
 PHE793  MET794  SER795  GLU796  ALA797  LYS798  CYS799  TRP800  GLU811  SER814 

> <Gold.Protein.RotatedAtoms>
  151.5515  133.3417  159.2953 H   0  0  0  0  0  0  0  0  0  0  0  0  # atno 6907 bound_to 6896
  150.8476  134.7792  159.6994 H   0  0  0  0  0  0  0  0  0  0  0  0  # atno 6908 bound_to 6896
  152.4530  134.5361  159.9877 H   0  0  0  0  0  0  0  0  0  0  0  0  # atno 6909 bound_to 6896
  144.8003  139.7116  143.6185 H   0  0  0  0  0  0  0  0  0  0  0  0  # atno 7974 bound_to 7965
  155.2163  140.3327  155.4321 H   0  0  0  0  0  0  0  0  0  0  0  0  # atno 8008 bound_to 7997
  156.2350  140.1868  156.7190 H   0  0  0  0  0  0  0  0  0  0  0  0  # atno 8009 bound_to 7997
  154.6044  140.0618  156.9397 H   0  0  0  0  0  0  0  0  0  0  0  0  # atno 8010 bound_to 7997
  140.4445  143.2503  151.8578 H   0  0  0  0  0  0  0  0  0  0  0  0  # atno 10167 bound_to 10162
  156.5819  130.8733  151.2867 H   0  0  0  0  0  0  0  0  0  0  0  0  # atno 10718 bound_to 10713
  153.0298  135.5203  154.7319 H   0  0  0  0  0  0  0  0  0  0  0  0  # atno 10763 bound_to 10752
  154.6344  135.2904  155.0180 H   0  0  0  0  0  0  0  0  0  0  0  0  # atno 10764 bound_to 10752
  154.1120  135.6620  153.4939 H   0  0  0  0  0  0  0  0  0  0  0  0  # atno 10765 bound_to 10752
  141.0931  133.6629  156.4043 H   0  0  0  0  0  0  0  0  0  0  0  0  # atno 11005 bound_to 11000
  146.2282  139.5763  142.9573 LP  0  0  0  0  0  0  0  0  0  0  0  0  # atno 17320 bound_to 7965
  145.5571  141.0408  143.2247 LP  0  0  0  0  0  0  0  0  0  0  0  0  # atno 17321 bound_to 7965
  139.4792  144.5191  151.8827 LP  0  0  0  0  0  0  0  0  0  0  0  0  # atno 17342 bound_to 10162
  140.4279  144.2155  150.5887 LP  0  0  0  0  0  0  0  0  0  0  0  0  # atno 17343 bound_to 10162
  157.7324  130.9715  150.1928 LP  0  0  0  0  0  0  0  0  0  0  0  0  # atno 17370 bound_to 10713
  156.2624  130.3712  149.8116 LP  0  0  0  0  0  0  0  0  0  0  0  0  # atno 17371 bound_to 10713
  140.5205  134.6308  157.5316 LP  0  0  0  0  0  0  0  0  0  0  0  0  # atno 17394 bound_to 11000
  139.9761  134.7213  155.9948 LP  0  0  0  0  0  0  0  0  0  0  0  0  # atno 17395 bound_to 11000

$$$$
