AV-unprocessed.smi:3|AV-procd|sdf|27|dock9
  -GOLD-   2262015143D 1   1.00000     0.00000
 Structure written by MMmdl.
 33 35  0  0  0  0  0  0  0  0  1 V2000
  152.9761  140.6006  159.0195 C   0  0  0  0  0  0  0  0  0  0  0  0
  151.8790  140.8801  158.1042 N   0  0  0  0  0  0  0  0  0  0  0  0
  151.1297  142.1237  158.2982 C   0  0  0  0  0  0  0  0  0  0  0  0
  152.0123  143.2607  158.8126 C   0  0  1  0  0  0  0  0  0  0  0  0
  151.7041  144.7155  158.4271 C   0  0  0  0  0  0  0  0  0  0  0  0
  152.1670  145.1457  159.8225 C   0  0  1  0  0  0  0  0  0  0  0  0
  151.4427  146.1780  160.4534 O   0  0  0  0  0  0  0  0  0  0  0  0
  151.8772  143.7102  160.2742 C   0  0  0  0  0  0  0  0  0  0  0  0
  151.7481  140.1298  156.9088 C   0  0  0  0  0  0  0  0  0  0  0  0
  152.5929  139.0803  156.7301 N   0  0  0  0  0  0  0  0  0  0  0  0
  152.5230  138.3296  155.6290 C   0  0  0  0  0  0  0  0  0  0  0  0
  151.6973  138.4522  154.5902 N   0  0  0  0  0  0  0  0  0  0  0  0
  150.8512  139.5064  154.7545 C   0  0  0  0  0  0  0  0  0  0  0  0
  149.8763  139.9198  153.8719 N   0  0  0  0  0  0  0  0  0  0  0  0
  149.2161  141.0261  154.3706 C   0  0  0  0  0  0  0  0  0  0  0  0
  149.7518  141.3519  155.5899 C   0  0  0  0  0  0  0  0  0  0  0  0
  150.8007  140.3976  155.8692 C   0  0  0  0  0  0  0  0  0  0  0  0
  153.0678  143.0579  158.6190 H   0  0  0  0  0  0  0  0  0  0  0  0
  153.2349  145.3697  159.8463 H   0  0  0  0  0  0  0  0  0  0  0  0
  149.6579  139.4943  152.9825 H   0  0  0  0  0  0  0  0  0  0  0  0
  152.8394  139.6285  159.4928 H   0  0  0  0  0  0  0  0  0  0  0  0
  153.0229  141.3467  159.8131 H   0  0  0  0  0  0  0  0  0  0  0  0
  153.9323  140.6186  158.4963 H   0  0  0  0  0  0  0  0  0  0  0  0
  150.6025  142.4197  157.3913 H   0  0  0  0  0  0  0  0  0  0  0  0
  150.3397  141.9229  159.0225 H   0  0  0  0  0  0  0  0  0  0  0  0
  152.3087  145.0995  157.6048 H   0  0  0  0  0  0  0  0  0  0  0  0
  150.6413  144.8997  158.2611 H   0  0  0  0  0  0  0  0  0  0  0  0
  152.0592  146.8658  160.6534 H   0  0  0  0  0  0  0  0  0  0  0  0
  150.8668  143.5838  160.6677 H   0  0  0  0  0  0  0  0  0  0  0  0
  152.6229  143.2852  160.9468 H   0  0  0  0  0  0  0  0  0  0  0  0
  153.2300  137.5151  155.5728 H   0  0  0  0  0  0  0  0  0  0  0  0
  148.4161  141.4943  153.8155 H   0  0  0  0  0  0  0  0  0  0  0  0
  149.4377  142.1729  156.2150 H   0  0  0  0  0  0  0  0  0  0  0  0
  1  2  1  0  0  0  0
  1 21  1  0  0  0  0
  1 22  1  0  0  0  0
  1 23  1  0  0  0  0
  2  3  1  0  0  0  0
  2  9  1  0  0  0  0
  3  4  1  0  0  0  0
  3 24  1  0  0  0  0
  3 25  1  0  0  0  0
  4 18  1  0  0  0  0
  4  8  1  0  0  0  0
  4  5  1  0  0  0  0
  5  6  1  0  0  0  0
  5 26  1  0  0  0  0
  5 27  1  0  0  0  0
  6 19  1  0  0  0  0
  6  7  1  0  0  0  0
  6  8  1  0  0  0  0
  7 28  1  0  0  0  0
  8 29  1  0  0  0  0
  8 30  1  0  0  0  0
  9 17  1  0  0  0  0
  9 10  2  0  0  0  0
 10 11  1  0  0  0  0
 11 12  2  0  0  0  0
 11 31  1  0  0  0  0
 12 13  1  0  0  0  0
 13 17  2  0  0  0  0
 13 14  1  0  0  0  0
 14 20  1  0  0  0  0
 14 15  1  0  0  0  0
 15 16  2  0  0  0  0
 15 32  1  0  0  0  0
 16 17  1  0  0  0  0
 16 33  1  0  0  0  0
M  END
> <s_m_source_file>
AV-unprocessed.smi

> <i_m_source_file_index>
3

> <i_lp_mmshare_version>
43012

> <i_f3d_flags>
0

> <s_epik_input>
W25IXTFbY0hdW2NIXWMoYzEyKWMobltjSF1uMilOKFtDSDNdKVtDSDJdW0NASF0zW0NIMl1bQ0BASF0oW09IXSlbQ0gyXTM=

> <s_epik_cmdline>
J2VwaWtfcHl0aG9uJywgJy1waCcsICc3LjAnLCAnLXRuJywgJzgnLCAnLW1hJywgJzIwMCcsICctbWV0YWxfYmluZGluZycsICctaW1hZScsICc8aW5maWxlLm1hZT4nLCAnLW9tYWUnLCAnPG91dGZpbGUubWFlPic=

> <r_lp_tautomer_probability>
0.999998

> <r_epik_Ionization_Penalty>
0.0134605

> <r_epik_Ionization_Penalty_Charging>
0

> <r_epik_Ionization_Penalty_Neutral>
0.0134605

> <r_epik_State_Penalty>
0.00982199

> <r_epik_Charging_Adjusted_Penalty>
0.00982199

> <i_epik_Tot_Q>
0

> <i_epik_Tot_abs_Q>
0

> <r_epik_Metal_State_Penalty>
0.00963912

> <b_epik_Metal_Only>
0

> <s_lp_Force_Field>
OPLS_2005

> <r_lp_Energy>
10.8509

> <b_lp_Chiralities_Consistent>
1

> <s_lp_Variant>
AV-unprocessed.smi:3-1

> <Gold.Version>
5.8.1

> <Gold.Id.Protein>
6NUR|6NUR_protein|mol2

> <Gold.PLP.Fitness>
45.1386

> <Gold.PLP.PLP>
-41.4894

> <Gold.PLP.part.hbond>
-4.9348

> <Gold.PLP.part.metal>
0.0000

> <Gold.PLP.part.buried>
-4.5315

> <Gold.PLP.part.nonpolar>
-33.2307

> <Gold.PLP.part.repulsive>
1.3351

> <Gold.PLP.ligand.clash>
0.0000

> <Gold.PLP.ligand.torsion>
0.8084

> <Gold.PLP.Chemscore.Hbond>
1.6880

> <Gold.PLP.Chemscore.CHOScore>
0.0000

> <Gold.PLP.Chemscore.Metal>
0.0000

> <Gold.Chemscore.Hbonds>
donor molecule, donor type, donor heavy atom, donor atom, acceptor molecule, acceptor atom, score
      L1  H    14    20       P1  7957  0.74
      P1  H  7997  8008       L1    10  0.84

> <Gold.PLP.Chemscore.Internal.Correction>
0.2019

> <Gold.Rescore>
     Score         DG    S(hbond)    S(metal)    S(lipo)     H(rot)  DE(clash)    DE(int)     intcor
     11.68     -14.47       1.13        0.00      84.74       1.84       1.97       0.82       ----

> <Gold.Chemscore.Fitness>
11.6812

> <Gold.Chemscore.DG>
-14.4742

> <Gold.Chemscore.ZeroCoef>
-5.4800

> <Gold.Chemscore.Hbond>
1.1346

> <Gold.Chemscore.Metal>
0.0000

> <Gold.Chemscore.Lipo>
84.7353

> <Gold.Chemscore.Internal_Hbond>
0.0000

> <Gold.Chemscore.DEClash>
1.9720

> <Gold.Chemscore.DEInternal>
0.8210

> <Gold.Chemscore.Rot>
1.8396

> <Gold.Chemscore.Internal.Correction>
   9.000000E+99

> <Gold.Chemscore.Hbonds>
donor molecule, donor type, donor heavy atom, donor atom, acceptor molecule, acceptor atom, score
      L1  H    14    20       P1  7957  0.74
      P1  H  7997  8008       L1    10  0.17

> <Gold.Chemscore.Hbond.Weighted>
-3.7896

> <Gold.Chemscore.Metal.Weighted>
-0.0000

> <Gold.Chemscore.Lipo.Weighted>
-9.9140

> <Gold.Chemscore.Internal_Hbond.Weighted>
0.0000

> <Gold.Chemscore.DEClash.Weighted>
1.9720

> <Gold.Chemscore.DEInternal.Weighted>
0.8210

> <Gold.Chemscore.Rot.Weighted>
4.7095

> <Gold.Chemscore.Internal.Correction.Weighted>
   9.000000E+99

> <Gold.Protein.RotatedTorsions>
[ 6907 6896 6895 6894 ] final -179.29 input  -60.11 | X-H torsion
[ 7974 7965 7964 7962 ] final -108.33 input  175.53 | X-H torsion
[ 8008 7997 7996 7995 ] final  -70.85 input   59.86 | X-H torsion
[ 10167 10162 10161 10158 ] final -144.24 input  -65.29 | X-H torsion
[ 10718 10713 10712 10709 ] final   19.66 input   66.30 | X-H torsion
[ 10763 10752 10751 10750 ] final -136.69 input  -60.55 | X-H torsion
[ 11005 11000 10999 10996 ] final   -9.27 input  -57.11 | X-H torsion

> <Gold.Protein.ActiveResidues>
 VAL166  LYS551  ARG553  GLY616  TRP617  ASP618  TYR619  PRO620  LYS621  CYS622 
 ASP623  PHE694  ASN695  SER759  ASP760  ASP761  ALA762  ILE779  LEU786  VAL792 
 PHE793  MET794  SER795  GLU796  ALA797  LYS798  CYS799  TRP800  GLU811  SER814 

> <Gold.Protein.RotatedAtoms>
  151.6510  133.3321  159.3151 H   0  0  0  0  0  0  0  0  0  0  0  0  # atno 6907 bound_to 6896
  150.7960  134.7024  159.6567 H   0  0  0  0  0  0  0  0  0  0  0  0  # atno 6908 bound_to 6896
  152.4047  134.6231  160.0107 H   0  0  0  0  0  0  0  0  0  0  0  0  # atno 6909 bound_to 6896
  145.1943  140.9028  143.3406 H   0  0  0  0  0  0  0  0  0  0  0  0  # atno 7974 bound_to 7965
  154.5043  140.0826  156.7862 H   0  0  0  0  0  0  0  0  0  0  0  0  # atno 8008 bound_to 7997
  155.3931  140.3433  155.4234 H   0  0  0  0  0  0  0  0  0  0  0  0  # atno 8009 bound_to 7997
  156.1495  140.1554  156.8779 H   0  0  0  0  0  0  0  0  0  0  0  0  # atno 8010 bound_to 7997
  139.7917  143.7956  152.2650 H   0  0  0  0  0  0  0  0  0  0  0  0  # atno 10167 bound_to 10162
  157.1136  130.6519  149.5904 H   0  0  0  0  0  0  0  0  0  0  0  0  # atno 10718 bound_to 10713
  154.8678  135.3665  154.5102 H   0  0  0  0  0  0  0  0  0  0  0  0  # atno 10763 bound_to 10752
  153.5737  135.7020  153.5498 H   0  0  0  0  0  0  0  0  0  0  0  0  # atno 10764 bound_to 10752
  153.3519  135.4070  155.1615 H   0  0  0  0  0  0  0  0  0  0  0  0  # atno 10765 bound_to 10752
  140.7324  133.8738  155.8903 H   0  0  0  0  0  0  0  0  0  0  0  0  # atno 11005 bound_to 11000
  145.0010  139.3598  143.6167 LP  0  0  0  0  0  0  0  0  0  0  0  0  # atno 17320 bound_to 7965
  146.3430  139.9234  142.8763 LP  0  0  0  0  0  0  0  0  0  0  0  0  # atno 17321 bound_to 7965
  139.8050  144.7359  150.9774 LP  0  0  0  0  0  0  0  0  0  0  0  0  # atno 17342 bound_to 10162
  140.7820  143.4307  151.0699 LP  0  0  0  0  0  0  0  0  0  0  0  0  # atno 17343 bound_to 10162
  155.9845  130.4870  150.6984 LP  0  0  0  0  0  0  0  0  0  0  0  0  # atno 17370 bound_to 10713
  157.4538  131.0875  151.0818 LP  0  0  0  0  0  0  0  0  0  0  0  0  # atno 17371 bound_to 10713
  140.9909  134.1279  157.4408 LP  0  0  0  0  0  0  0  0  0  0  0  0  # atno 17394 bound_to 11000
  139.8823  135.0040  156.6222 LP  0  0  0  0  0  0  0  0  0  0  0  0  # atno 17395 bound_to 11000

$$$$
