AV-unprocessed.smi:2226|AV-procd|sdf|9010|dock9
  -GOLD-   2272012213D 1   1.00000     0.00000
 Structure written by MMmdl.
 40 42  0  0  0  0  0  0  0  0  2 V2000
  143.2795  134.9893  152.5023 C   0  0  0  0  0  0  0  0  0  0  0  0
  143.5444  134.1104  151.3383 N   0  3  2  0  0  0  0  0  0  0  0  0
  143.9886  132.7375  151.6815 C   0  0  1  0  0  0  0  0  0  0  0  0
  143.8052  131.8279  150.4438 C   0  0  0  0  0  0  0  0  0  0  0  0
  144.4792  132.3696  149.1665 C   0  0  0  0  0  0  0  0  0  0  0  0
  144.2791  133.8894  148.9954 C   0  0  0  0  0  0  0  0  0  0  0  0
  144.4382  134.6928  150.3078 C   0  0  2  0  0  0  0  0  0  0  0  0
  145.8935  134.8100  150.8260 C   0  0  0  0  0  0  0  0  0  0  0  0
  146.4649  133.5133  151.4448 C   0  0  1  0  0  0  0  0  0  0  0  0
  147.6025  133.8519  152.2990 N   0  0  0  0  0  0  0  0  0  0  0  0
  148.2648  133.0204  153.1186 C   0  0  0  0  0  0  0  0  0  0  0  0
  147.9535  131.8304  153.2287 O   0  0  0  0  0  0  0  0  0  0  0  0
  149.2824  133.7099  153.7614 N   0  0  0  0  0  0  0  0  0  0  0  0
  150.0568  133.0866  154.5950 C   0  0  0  0  0  0  0  0  0  0  0  0
  151.1142  133.6121  155.3202 N   0  0  0  0  0  0  0  0  0  0  0  0
  151.6551  132.6072  156.0733 C   0  0  0  0  0  0  0  0  0  0  0  0
  150.9680  131.4942  155.8336 C   0  0  0  0  0  0  0  0  0  0  0  0
  149.9810  131.7544  154.9315 O   0  0  0  0  0  0  0  0  0  0  0  0
  145.4174  132.7412  152.2799 C   0  0  0  0  0  0  0  0  0  0  0  0
  144.1795  135.1905  153.0829 H   0  0  0  0  0  0  0  0  0  0  0  0
  142.5463  134.5301  153.1660 H   0  0  0  0  0  0  0  0  0  0  0  0
  142.8710  135.9445  152.1720 H   0  0  0  0  0  0  0  0  0  0  0  0
  143.3161  132.3524  152.4496 H   0  0  0  0  0  0  0  0  0  0  0  0
  144.1608  130.8190  150.6553 H   0  0  0  0  0  0  0  0  0  0  0  0
  142.7364  131.7313  150.2486 H   0  0  0  0  0  0  0  0  0  0  0  0
  145.5373  132.1229  149.1614 H   0  0  0  0  0  0  0  0  0  0  0  0
  144.0761  131.8508  148.2961 H   0  0  0  0  0  0  0  0  0  0  0  0
  144.9543  134.2719  148.2294 H   0  0  0  0  0  0  0  0  0  0  0  0
  143.2712  134.0582  148.6140 H   0  0  0  0  0  0  0  0  0  0  0  0
  144.0870  135.7036  150.0952 H   0  0  0  0  0  0  0  0  0  0  0  0
  146.5489  135.1554  150.0256 H   0  0  0  0  0  0  0  0  0  0  0  0
  145.9196  135.6012  151.5765 H   0  0  0  0  0  0  0  0  0  0  0  0
  146.8041  132.8686  150.6386 H   0  0  0  0  0  0  0  0  0  0  0  0
  147.9191  134.8103  152.2659 H   0  0  0  0  0  0  0  0  0  0  0  0
  151.4603  134.5607  155.3244 H   0  0  0  0  0  0  0  0  0  0  0  0
  152.4985  132.8017  156.7191 H   0  0  0  0  0  0  0  0  0  0  0  0
  151.0527  130.4846  156.2073 H   0  0  0  0  0  0  0  0  0  0  0  0
  145.3631  133.1838  153.2754 H   0  0  0  0  0  0  0  0  0  0  0  0
  145.7580  131.7177  152.4417 H   0  0  0  0  0  0  0  0  0  0  0  0
  142.6459  134.0017  150.8895 H   0  0  0  0  0  0  0  0  0  0  0  0
  1  2  1  0  0  0  0
  1 20  1  0  0  0  0
  1 21  1  0  0  0  0
  1 22  1  0  0  0  0
  2  7  1  0  0  0  0
  2  3  1  0  0  0  0
  2 40  1  0  0  0  0
  3 19  1  0  0  0  0
  3  4  1  0  0  0  0
  3 23  1  0  0  0  0
  4  5  1  0  0  0  0
  4 24  1  0  0  0  0
  4 25  1  0  0  0  0
  5  6  1  0  0  0  0
  5 26  1  0  0  0  0
  5 27  1  0  0  0  0
  6  7  1  0  0  0  0
  6 28  1  0  0  0  0
  6 29  1  0  0  0  0
  7  8  1  0  0  0  0
  7 30  1  0  0  0  0
  8  9  1  0  0  0  0
  8 31  1  0  0  0  0
  8 32  1  0  0  0  0
  9 10  1  0  0  0  0
  9 19  1  0  0  0  0
  9 33  1  0  0  0  0
 10 34  1  0  0  0  0
 10 11  1  0  0  0  0
 11 13  1  0  0  0  0
 11 12  2  0  0  0  0
 13 14  2  0  0  0  0
 14 18  1  0  0  0  0
 14 15  1  0  0  0  0
 15 35  1  0  0  0  0
 15 16  1  0  0  0  0
 16 36  1  0  0  0  0
 16 17  2  0  0  0  0
 17 37  1  0  0  0  0
 17 18  1  0  0  0  0
 19 38  1  0  0  0  0
 19 39  1  0  0  0  0
M  CHG  1   2   1
M  END
> <s_m_source_file>
AV-unprocessed.smi

> <i_m_source_file_index>
2226

> <i_lp_mmshare_version>
43012

> <i_f3d_flags>
0

> <s_epik_input>
W0NIMl0xW0NIMl1bQ0gyXVtDQEhdKE4oW0NIM10pW0NIXTEyKVtDSDJdW0NASF0oW0NIMl0yKVtOSF1DKD1PKVtOSF1jM25bY0hdW2NIXW8z

> <s_epik_cmdline>
J2VwaWtfcHl0aG9uJywgJy1waCcsICc3LjAnLCAnLXRuJywgJzgnLCAnLW1hJywgJzIwMCcsICctbWV0YWxfYmluZGluZycsICctaW1hZScsICc8aW5maWxlLm1hZT4nLCAnLW9tYWUnLCAnPG91dGZpbGUubWFlPic=

> <r_lp_tautomer_probability>
0.107061

> <r_epik_Ionization_Penalty>
1.08307

> <r_epik_Ionization_Penalty_Charging>
1.08272

> <r_epik_Ionization_Penalty_Neutral>
0.000345913

> <r_epik_State_Penalty>
2.5744

> <r_epik_Charging_Adjusted_Penalty>
3.65713

> <i_epik_Tot_Q>
1

> <i_epik_Tot_abs_Q>
1

> <r_epik_Metal_State_Penalty>
3.72133

> <b_epik_Metal_Only>
0

> <s_lp_Force_Field>
OPLS_2005

> <r_lp_Energy>
57.8706

> <b_lp_Chiralities_Consistent>
1

> <s_lp_Variant>
AV-unprocessed.smi:2226-10

> <Gold.Version>
5.8.1

> <Gold.Id.Protein>
6NUR|6NUR_protein|mol2

> <Gold.PLP.Fitness>
39.4857

> <Gold.PLP.PLP>
-30.7338

> <Gold.PLP.part.hbond>
-2.0000

> <Gold.PLP.part.metal>
0.0000

> <Gold.PLP.part.buried>
-0.2596

> <Gold.PLP.part.nonpolar>
-28.3563

> <Gold.PLP.part.repulsive>
0.3861

> <Gold.PLP.ligand.clash>
0.0000

> <Gold.PLP.ligand.torsion>
0.0888

> <Gold.PLP.Chemscore.Hbond>
2.9745

> <Gold.PLP.Chemscore.CHOScore>
0.0000

> <Gold.PLP.Chemscore.Metal>
0.0000

> <Gold.Chemscore.Hbonds>
donor molecule, donor type, donor heavy atom, donor atom, acceptor molecule, acceptor atom, score
      L1  H     2    40       P1 10186  1.40
      L1  H    10    34       P1  7948  1.00

> <Gold.PLP.Chemscore.Internal.Correction>
0.0060

> <Gold.Rescore>
     Score         DG    S(hbond)    S(metal)    S(lipo)     H(rot)  DE(clash)    DE(int)     intcor
     13.07     -18.13       1.71        0.00      81.09       1.00       2.12       2.94       ----

> <Gold.Chemscore.Fitness>
13.0745

> <Gold.Chemscore.DG>
-18.1333

> <Gold.Chemscore.ZeroCoef>
-5.4800

> <Gold.Chemscore.Hbond>
1.7143

> <Gold.Chemscore.Metal>
0.0000

> <Gold.Chemscore.Lipo>
81.0912

> <Gold.Chemscore.Internal_Hbond>
0.0000

> <Gold.Chemscore.DEClash>
2.1231

> <Gold.Chemscore.DEInternal>
2.9356

> <Gold.Chemscore.Rot>
1.0000

> <Gold.Chemscore.Internal.Correction>
   9.000000E+99

> <Gold.Chemscore.Hbonds>
donor molecule, donor type, donor heavy atom, donor atom, acceptor molecule, acceptor atom, score
      L1  H     2    40       P1 10186  0.42
      L1  H    10    34       P1  7948  0.65

> <Gold.Chemscore.Hbond.Weighted>
-5.7256

> <Gold.Chemscore.Metal.Weighted>
-0.0000

> <Gold.Chemscore.Lipo.Weighted>
-9.4877

> <Gold.Chemscore.Internal_Hbond.Weighted>
0.0000

> <Gold.Chemscore.DEClash.Weighted>
2.1231

> <Gold.Chemscore.DEInternal.Weighted>
2.9356

> <Gold.Chemscore.Rot.Weighted>
2.5600

> <Gold.Chemscore.Internal.Correction.Weighted>
   9.000000E+99

> <Gold.Protein.RotatedTorsions>
[ 6907 6896 6895 6894 ] final  -95.61 input  -60.11 | X-H torsion
[ 7974 7965 7964 7962 ] final  -21.20 input  175.53 | X-H torsion
[ 8008 7997 7996 7995 ] final  108.75 input   59.86 | X-H torsion
[ 10167 10162 10161 10158 ] final  141.81 input  -65.29 | X-H torsion
[ 10718 10713 10712 10709 ] final  -51.56 input   66.30 | X-H torsion
[ 10763 10752 10751 10750 ] final -126.43 input  -60.55 | X-H torsion
[ 11005 11000 10999 10996 ] final  -65.52 input  -57.11 | X-H torsion

> <Gold.Protein.ActiveResidues>
 VAL166  LYS551  ARG553  GLY616  TRP617  ASP618  TYR619  PRO620  LYS621  CYS622 
 ASP623  PHE694  ASN695  SER759  ASP760  ASP761  ALA762  ILE779  LEU786  VAL792 
 PHE793  MET794  SER795  GLU796  ALA797  LYS798  CYS799  TRP800  GLU811  SER814 

> <Gold.Protein.RotatedAtoms>
  150.6968  134.1631  159.4183 H   0  0  0  0  0  0  0  0  0  0  0  0  # atno 6907 bound_to 6896
  151.9611  135.0121  160.0557 H   0  0  0  0  0  0  0  0  0  0  0  0  # atno 6908 bound_to 6896
  152.1926  133.4749  159.5053 H   0  0  0  0  0  0  0  0  0  0  0  0  # atno 6909 bound_to 6896
  146.1746  140.4308  142.8519 H   0  0  0  0  0  0  0  0  0  0  0  0  # atno 7974 bound_to 7965
  156.1927  140.3070  155.9365 H   0  0  0  0  0  0  0  0  0  0  0  0  # atno 8008 bound_to 7997
  155.3136  140.0452  157.3053 H   0  0  0  0  0  0  0  0  0  0  0  0  # atno 8009 bound_to 7997
  154.5472  140.2280  155.8553 H   0  0  0  0  0  0  0  0  0  0  0  0  # atno 8010 bound_to 7997
  139.5010  144.6147  151.6191 H   0  0  0  0  0  0  0  0  0  0  0  0  # atno 10167 bound_to 10162
  156.1699  130.4149  149.9663 H   0  0  0  0  0  0  0  0  0  0  0  0  # atno 10718 bound_to 10713
  154.8745  135.3996  154.3429 H   0  0  0  0  0  0  0  0  0  0  0  0  # atno 10763 bound_to 10752
  153.4226  135.7023  153.6289 H   0  0  0  0  0  0  0  0  0  0  0  0  # atno 10764 bound_to 10752
  153.4945  135.3741  155.2479 H   0  0  0  0  0  0  0  0  0  0  0  0  # atno 10765 bound_to 10752
  141.1457  133.6683  156.5999 H   0  0  0  0  0  0  0  0  0  0  0  0  # atno 11005 bound_to 11000
  144.8216  140.6559  143.6349 LP  0  0  0  0  0  0  0  0  0  0  0  0  # atno 17320 bound_to 7965
  145.4247  139.1558  143.4055 LP  0  0  0  0  0  0  0  0  0  0  0  0  # atno 17321 bound_to 7965
  140.5832  143.9910  150.6280 LP  0  0  0  0  0  0  0  0  0  0  0  0  # atno 17342 bound_to 10162
  140.3066  143.3225  152.0920 LP  0  0  0  0  0  0  0  0  0  0  0  0  # atno 17343 bound_to 10162
  156.7467  130.9100  151.3635 LP  0  0  0  0  0  0  0  0  0  0  0  0  # atno 17370 bound_to 10713
  157.6795  130.9126  150.0232 LP  0  0  0  0  0  0  0  0  0  0  0  0  # atno 17371 bound_to 10713
  140.3697  134.7616  157.4590 LP  0  0  0  0  0  0  0  0  0  0  0  0  # atno 17394 bound_to 11000
  140.0720  134.5849  155.8631 LP  0  0  0  0  0  0  0  0  0  0  0  0  # atno 17395 bound_to 11000

$$$$
