AV-unprocessed.smi:1941|AV-procd|sdf|7847|dock9
  -GOLD-   22720 9593D 1   1.00000     0.00000
 Structure written by MMmdl.
 40 41  0  0  0  0  0  0  0  0  1 V2000
  151.4698  138.6757  154.9046 C   0  0  0  0  0  0  0  0  0  0  0  0
  150.3042  139.5979  154.7959 C   0  0  0  0  0  0  0  0  0  0  0  0
  149.1853  139.3011  154.1297 N   0  0  0  0  0  0  0  0  0  0  0  0
  148.2421  140.3330  154.1751 C   0  0  0  0  0  0  0  0  0  0  0  0
  146.9218  140.1738  153.4842 C   0  0  0  0  0  0  0  0  0  0  0  0
  147.0776  139.6502  152.0463 C   0  0  0  0  0  0  0  0  0  0  0  0
  147.0930  138.1925  152.0035 N   0  0  0  0  0  0  0  0  0  0  0  0
  146.0350  137.4088  152.2535 C   0  0  0  0  0  0  0  0  0  0  0  0
  144.9220  137.8344  152.5634 O   0  0  0  0  0  0  0  0  0  0  0  0
  146.3351  136.1101  152.1120 N   0  0  0  0  0  0  0  0  0  0  0  0
  145.4068  134.9920  152.2786 C   0  0  2  0  0  0  0  0  0  0  0  0
  145.8985  134.0789  153.4109 C   0  0  0  0  0  0  0  0  0  0  0  0
  145.2318  134.2251  150.9517 C   0  0  1  0  0  0  0  0  0  0  0  0
  146.4602  133.4332  150.4786 C   0  0  0  0  0  0  0  0  0  0  0  0
  145.8777  132.1744  149.8493 C   0  0  0  0  0  0  0  0  0  0  0  0
  144.3664  132.3723  149.9449 C   0  0  0  0  0  0  0  0  0  0  0  0
  144.2094  133.2434  151.0525 O   0  0  0  0  0  0  0  0  0  0  0  0
  148.6665  141.4224  154.8943 C   0  0  0  0  0  0  0  0  0  0  0  0
  150.2686  141.1922  155.5386 S   0  0  0  0  0  0  0  0  0  0  0  0
  151.3004  137.7708  154.3199 H   0  0  0  0  0  0  0  0  0  0  0  0
  151.6264  138.3949  155.9461 H   0  0  0  0  0  0  0  0  0  0  0  0
  152.3692  139.1677  154.5344 H   0  0  0  0  0  0  0  0  0  0  0  0
  146.2890  139.4944  154.0568 H   0  0  0  0  0  0  0  0  0  0  0  0
  146.3942  141.1285  153.4680 H   0  0  0  0  0  0  0  0  0  0  0  0
  146.2474  139.9982  151.4312 H   0  0  0  0  0  0  0  0  0  0  0  0
  147.9877  140.0459  151.5921 H   0  0  0  0  0  0  0  0  0  0  0  0
  147.9671  137.7517  151.7571 H   0  0  0  0  0  0  0  0  0  0  0  0
  147.2793  135.8701  151.8471 H   0  0  0  0  0  0  0  0  0  0  0  0
  144.4228  135.3621  152.5715 H   0  0  0  0  0  0  0  0  0  0  0  0
  145.2077  133.2515  153.5749 H   0  0  0  0  0  0  0  0  0  0  0  0
  145.9810  134.6278  154.3497 H   0  0  0  0  0  0  0  0  0  0  0  0
  146.8776  133.6548  153.1852 H   0  0  0  0  0  0  0  0  0  0  0  0
  144.9461  134.9246  150.1637 H   0  0  0  0  0  0  0  0  0  0  0  0
  147.0527  134.0118  149.7693 H   0  0  0  0  0  0  0  0  0  0  0  0
  147.1176  133.1593  151.3040 H   0  0  0  0  0  0  0  0  0  0  0  0
  146.2061  132.0261  148.8202 H   0  0  0  0  0  0  0  0  0  0  0  0
  146.1790  131.3001  150.4274 H   0  0  0  0  0  0  0  0  0  0  0  0
  143.9802  132.8553  149.0459 H   0  0  0  0  0  0  0  0  0  0  0  0
  143.8273  131.4358  150.0894 H   0  0  0  0  0  0  0  0  0  0  0  0
  148.1339  142.3426  155.0846 H   0  0  0  0  0  0  0  0  0  0  0  0
  1  2  1  0  0  0  0
  1 20  1  0  0  0  0
  1 21  1  0  0  0  0
  1 22  1  0  0  0  0
  2 19  1  0  0  0  0
  2  3  2  0  0  0  0
  3  4  1  0  0  0  0
  4  5  1  0  0  0  0
  4 18  2  0  0  0  0
  5  6  1  0  0  0  0
  5 23  1  0  0  0  0
  5 24  1  0  0  0  0
  6  7  1  0  0  0  0
  6 25  1  0  0  0  0
  6 26  1  0  0  0  0
  7  8  1  0  0  0  0
  7 27  1  0  0  0  0
  8  9  2  0  0  0  0
  8 10  1  0  0  0  0
 10 11  1  0  0  0  0
 10 28  1  0  0  0  0
 11 12  1  0  0  0  0
 11 13  1  0  0  0  0
 11 29  1  0  0  0  0
 12 30  1  0  0  0  0
 12 31  1  0  0  0  0
 12 32  1  0  0  0  0
 13 17  1  0  0  0  0
 13 14  1  0  0  0  0
 13 33  1  0  0  0  0
 14 15  1  0  0  0  0
 14 34  1  0  0  0  0
 14 35  1  0  0  0  0
 15 16  1  0  0  0  0
 15 36  1  0  0  0  0
 15 37  1  0  0  0  0
 16 17  1  0  0  0  0
 16 38  1  0  0  0  0
 16 39  1  0  0  0  0
 18 19  1  0  0  0  0
 18 40  1  0  0  0  0
M  END
> <s_m_source_file>
AV-unprocessed.smi

> <i_m_source_file_index>
1941

> <i_lp_mmshare_version>
43012

> <i_f3d_flags>
0

> <s_epik_input>
W0NIM11jMW5jKFtjSF1zMSlbQ0gyXVtDSDJdW05IXUMoPU8pW05IXVtDQEhdKFtDSDNdKVtDQEBIXTJbQ0gyXVtDSDJdW0NIMl1PMg==

> <s_epik_cmdline>
J2VwaWtfcHl0aG9uJywgJy1waCcsICc3LjAnLCAnLXRuJywgJzgnLCAnLW1hJywgJzIwMCcsICctbWV0YWxfYmluZGluZycsICctaW1hZScsICc8aW5maWxlLm1hZT4nLCAnLW9tYWUnLCAnPG91dGZpbGUubWFlPic=

> <r_epik_Ionization_Penalty>
0.00195486

> <r_epik_Ionization_Penalty_Charging>
0

> <r_epik_Ionization_Penalty_Neutral>
0.00195486

> <r_epik_State_Penalty>
0.00129472

> <r_epik_Charging_Adjusted_Penalty>
0.00129472

> <i_epik_Tot_Q>
0

> <i_epik_Tot_abs_Q>
0

> <r_epik_Metal_State_Penalty>
-0

> <b_epik_Metal_Only>
0

> <s_lp_Force_Field>
OPLS_2005

> <r_lp_Energy>
12.2091

> <b_lp_Chiralities_Consistent>
1

> <s_lp_Variant>
AV-unprocessed.smi:1941-3

> <Gold.Version>
5.8.1

> <Gold.Id.Protein>
6NUR|6NUR_protein|mol2

> <Gold.PLP.Fitness>
42.6634

> <Gold.PLP.PLP>
-34.5881

> <Gold.PLP.part.hbond>
-2.4072

> <Gold.PLP.part.metal>
0.0000

> <Gold.PLP.part.buried>
-0.8931

> <Gold.PLP.part.nonpolar>
-32.6048

> <Gold.PLP.part.repulsive>
2.2410

> <Gold.PLP.ligand.clash>
0.0000

> <Gold.PLP.ligand.torsion>
0.4084

> <Gold.PLP.Chemscore.Hbond>
1.9520

> <Gold.PLP.Chemscore.CHOScore>
0.9935

> <Gold.PLP.Chemscore.Metal>
0.0000

> <Gold.Chemscore.Hbonds>
donor molecule, donor type, donor heavy atom, donor atom, acceptor molecule, acceptor atom, score
      L1  H     7    27       P1  7948  0.94
      L1  H    10    28       P1  7948  1.00
      L1  C    18    40       P1  8028  0.98

> <Gold.PLP.Chemscore.Internal.Correction>
0.0554

> <Gold.Rescore>
     Score         DG    S(hbond)    S(metal)    S(lipo)     H(rot)  DE(clash)    DE(int)     intcor
     17.17     -17.72       1.87        0.00      88.36       1.69       0.21       0.34       ----

> <Gold.Chemscore.Fitness>
17.1698

> <Gold.Chemscore.DG>
-17.7236

> <Gold.Chemscore.ZeroCoef>
-5.4800

> <Gold.Chemscore.Hbond>
1.8674

> <Gold.Chemscore.Metal>
0.0000

> <Gold.Chemscore.Lipo>
88.3642

> <Gold.Chemscore.Internal_Hbond>
0.0000

> <Gold.Chemscore.DEClash>
0.2117

> <Gold.Chemscore.DEInternal>
0.3421

> <Gold.Chemscore.Rot>
1.6923

> <Gold.Chemscore.Internal.Correction>
   9.000000E+99

> <Gold.Chemscore.Hbonds>
donor molecule, donor type, donor heavy atom, donor atom, acceptor molecule, acceptor atom, score
      L1  H     7    27       P1  7948  0.91
      L1  H    10    28       P1  7948  0.95

> <Gold.Chemscore.Hbond.Weighted>
-6.2373

> <Gold.Chemscore.Metal.Weighted>
-0.0000

> <Gold.Chemscore.Lipo.Weighted>
-10.3386

> <Gold.Chemscore.Internal_Hbond.Weighted>
0.0000

> <Gold.Chemscore.DEClash.Weighted>
0.2117

> <Gold.Chemscore.DEInternal.Weighted>
0.3421

> <Gold.Chemscore.Rot.Weighted>
4.3323

> <Gold.Chemscore.Internal.Correction.Weighted>
   9.000000E+99

> <Gold.Protein.RotatedTorsions>
[ 6907 6896 6895 6894 ] final  164.64 input  -60.11 | X-H torsion
[ 7974 7965 7964 7962 ] final  -84.53 input  175.53 | X-H torsion
[ 8008 7997 7996 7995 ] final  -98.59 input   59.86 | X-H torsion
[ 10167 10162 10161 10158 ] final   99.34 input  -65.29 | X-H torsion
[ 10718 10713 10712 10709 ] final  -47.62 input   66.30 | X-H torsion
[ 10763 10752 10751 10750 ] final -137.81 input  -60.55 | X-H torsion
[ 11005 11000 10999 10996 ] final   -6.81 input  -57.11 | X-H torsion

> <Gold.Protein.ActiveResidues>
 VAL166  LYS551  ARG553  GLY616  TRP617  ASP618  TYR619  PRO620  LYS621  CYS622 
 ASP623  PHE694  ASN695  SER759  ASP760  ASP761  ALA762  ILE779  LEU786  VAL792 
 PHE793  MET794  SER795  GLU796  ALA797  LYS798  CYS799  TRP800  GLU811  SER814 

> <Gold.Protein.RotatedAtoms>
  151.9067  133.3551  159.3849 H   0  0  0  0  0  0  0  0  0  0  0  0  # atno 6907 bound_to 6896
  150.7067  134.4774  159.5463 H   0  0  0  0  0  0  0  0  0  0  0  0  # atno 6908 bound_to 6896
  152.2372  134.8264  160.0516 H   0  0  0  0  0  0  0  0  0  0  0  0  # atno 6909 bound_to 6896
  145.5054  140.9544  143.1737 H   0  0  0  0  0  0  0  0  0  0  0  0  # atno 7974 bound_to 7965
  154.8033  140.0454  157.1288 H   0  0  0  0  0  0  0  0  0  0  0  0  # atno 8008 bound_to 7997
  154.9454  140.3058  155.5081 H   0  0  0  0  0  0  0  0  0  0  0  0  # atno 8009 bound_to 7997
  156.2964  140.2298  156.4527 H   0  0  0  0  0  0  0  0  0  0  0  0  # atno 8010 bound_to 7997
  139.7626  144.6949  151.0270 H   0  0  0  0  0  0  0  0  0  0  0  0  # atno 10167 bound_to 10162
  156.2066  130.4158  149.9170 H   0  0  0  0  0  0  0  0  0  0  0  0  # atno 10718 bound_to 10713
  154.8653  135.3631  154.5283 H   0  0  0  0  0  0  0  0  0  0  0  0  # atno 10763 bound_to 10752
  153.5909  135.7015  153.5428 H   0  0  0  0  0  0  0  0  0  0  0  0  # atno 10764 bound_to 10752
  153.3374  135.4107  155.1506 H   0  0  0  0  0  0  0  0  0  0  0  0  # atno 10765 bound_to 10752
  140.7060  133.8949  155.8716 H   0  0  0  0  0  0  0  0  0  0  0  0  # atno 11005 bound_to 11000
  144.7757  139.6636  143.7176 LP  0  0  0  0  0  0  0  0  0  0  0  0  # atno 17320 bound_to 7965
  146.2200  139.5618  142.9625 LP  0  0  0  0  0  0  0  0  0  0  0  0  # atno 17321 bound_to 7965
  140.7808  143.4679  151.0186 LP  0  0  0  0  0  0  0  0  0  0  0  0  # atno 17342 bound_to 10162
  139.8365  143.7621  152.3180 LP  0  0  0  0  0  0  0  0  0  0  0  0  # atno 17343 bound_to 10162
  156.6861  130.8877  151.3582 LP  0  0  0  0  0  0  0  0  0  0  0  0  # atno 17370 bound_to 10713
  157.7016  130.9339  150.0802 LP  0  0  0  0  0  0  0  0  0  0  0  0  # atno 17371 bound_to 10713
  141.0124  134.1001  157.4207 LP  0  0  0  0  0  0  0  0  0  0  0  0  # atno 17394 bound_to 11000
  139.8884  135.0097  156.6619 LP  0  0  0  0  0  0  0  0  0  0  0  0  # atno 17395 bound_to 11000

$$$$
