AV-unprocessed.smi:1828|AV-procd|sdf|7425|dock1
  -GOLD-   22720 9103D 1   1.00000     0.00000
 Structure written by MMmdl.
 39 41  0  0  0  0  0  0  0  0  1 V2000
  151.0764  136.4041  154.3170 O   0  0  0  0  0  0  0  0  0  0  0  0
  151.3623  137.6762  154.8595 C   0  0  0  0  0  0  0  0  0  0  0  0
  150.2060  138.6284  154.7470 C   0  0  0  0  0  0  0  0  0  0  0  0
  149.1256  138.3141  154.0296 N   0  0  0  0  0  0  0  0  0  0  0  0
  148.3275  139.4311  154.1665 C   0  0  0  0  0  0  0  0  0  0  0  0
  147.0497  139.7178  153.6352 C   0  0  0  0  0  0  0  0  0  0  0  0
  146.4200  140.9481  153.9152 C   0  0  0  0  0  0  0  0  0  0  0  0
  147.0576  141.9070  154.7285 C   0  0  0  0  0  0  0  0  0  0  0  0
  148.3306  141.6404  155.2682 C   0  0  0  0  0  0  0  0  0  0  0  0
  148.9547  140.4101  154.9862 C   0  0  0  0  0  0  0  0  0  0  0  0
  150.1750  139.8479  155.3497 N   0  0  0  0  0  0  0  0  0  0  0  0
  151.1746  140.4890  156.1965 C   0  0  0  0  0  0  0  0  0  0  0  0
  151.1226  139.9826  157.6523 C   0  0  1  0  0  0  0  0  0  0  0  0
  151.6505  138.6723  157.6849 O   0  0  0  0  0  0  0  0  0  0  0  0
  151.8281  140.9187  158.6243 C   0  0  0  0  0  0  0  0  0  0  0  0
  152.9181  140.4704  159.4022 C   0  0  0  0  0  0  0  0  0  0  0  0
  153.5724  141.3551  160.2797 C   0  0  0  0  0  0  0  0  0  0  0  0
  153.1470  142.6934  160.3801 C   0  0  0  0  0  0  0  0  0  0  0  0
  152.0652  143.1568  159.6005 C   0  0  0  0  0  0  0  0  0  0  0  0
  151.6035  144.6028  159.7012 C   0  0  0  0  0  0  0  0  0  0  0  0
  152.0405  145.1594  160.8315 F   0  0  0  0  0  0  0  0  0  0  0  0
  152.0887  145.2902  158.6682 F   0  0  0  0  0  0  0  0  0  0  0  0
  150.2726  144.6843  159.6840 F   0  0  0  0  0  0  0  0  0  0  0  0
  151.4049  142.2608  158.7326 C   0  0  0  0  0  0  0  0  0  0  0  0
  150.7359  136.5201  153.4434 H   0  0  0  0  0  0  0  0  0  0  0  0
  151.6186  137.5609  155.9127 H   0  0  0  0  0  0  0  0  0  0  0  0
  152.2494  138.0545  154.3582 H   0  0  0  0  0  0  0  0  0  0  0  0
  146.5542  138.9900  153.0100 H   0  0  0  0  0  0  0  0  0  0  0  0
  145.4434  141.1570  153.5034 H   0  0  0  0  0  0  0  0  0  0  0  0
  146.5686  142.8473  154.9379 H   0  0  0  0  0  0  0  0  0  0  0  0
  148.8218  142.3736  155.8906 H   0  0  0  0  0  0  0  0  0  0  0  0
  152.1529  140.2644  155.7696 H   0  0  0  0  0  0  0  0  0  0  0  0
  151.0814  141.5727  156.1452 H   0  0  0  0  0  0  0  0  0  0  0  0
  150.0789  139.8954  157.9579 H   0  0  0  0  0  0  0  0  0  0  0  0
  151.2162  138.1921  158.3734 H   0  0  0  0  0  0  0  0  0  0  0  0
  153.2608  139.4490  159.3248 H   0  0  0  0  0  0  0  0  0  0  0  0
  154.4045  141.0084  160.8743 H   0  0  0  0  0  0  0  0  0  0  0  0
  153.6574  143.3623  161.0570 H   0  0  0  0  0  0  0  0  0  0  0  0
  150.5755  142.6084  158.1340 H   0  0  0  0  0  0  0  0  0  0  0  0
  1  2  1  0  0  0  0
  1 25  1  0  0  0  0
  2  3  1  0  0  0  0
  2 26  1  0  0  0  0
  2 27  1  0  0  0  0
  3 11  1  0  0  0  0
  3  4  2  0  0  0  0
  4  5  1  0  0  0  0
  5 10  2  0  0  0  0
  5  6  1  0  0  0  0
  6  7  2  0  0  0  0
  6 28  1  0  0  0  0
  7  8  1  0  0  0  0
  7 29  1  0  0  0  0
  8  9  2  0  0  0  0
  8 30  1  0  0  0  0
  9 10  1  0  0  0  0
  9 31  1  0  0  0  0
 10 11  1  0  0  0  0
 11 12  1  0  0  0  0
 12 13  1  0  0  0  0
 12 32  1  0  0  0  0
 12 33  1  0  0  0  0
 13 14  1  0  0  0  0
 13 15  1  0  0  0  0
 13 34  1  0  0  0  0
 14 35  1  0  0  0  0
 15 24  1  0  0  0  0
 15 16  2  0  0  0  0
 16 17  1  0  0  0  0
 16 36  1  0  0  0  0
 17 18  2  0  0  0  0
 17 37  1  0  0  0  0
 18 19  1  0  0  0  0
 18 38  1  0  0  0  0
 19 20  1  0  0  0  0
 19 24  2  0  0  0  0
 20 21  1  0  0  0  0
 20 22  1  0  0  0  0
 20 23  1  0  0  0  0
 24 39  1  0  0  0  0
M  END
> <s_m_source_file>
AV-unprocessed.smi

> <i_m_source_file_index>
1828

> <i_lp_mmshare_version>
43012

> <i_f3d_flags>
0

> <s_epik_input>
W2NIXTFbY0hdW2NIXVtjSF1jKGMxMiluKGMobjIpW0NIMl1bT0hdKVtDSDJdW0NASF0oW09IXSljM1tjSF1bY0hdW2NIXWMoQyhGKShGKUYpW2NIXTM=

> <s_epik_cmdline>
J2VwaWtfcHl0aG9uJywgJy1waCcsICc3LjAnLCAnLXRuJywgJzgnLCAnLW1hJywgJzIwMCcsICctbWV0YWxfYmluZGluZycsICctaW1hZScsICc8aW5maWxlLm1hZT4nLCAnLW9tYWUnLCAnPG91dGZpbGUubWFlPic=

> <r_epik_Ionization_Penalty>
0.0634719

> <r_epik_Ionization_Penalty_Charging>
0

> <r_epik_Ionization_Penalty_Neutral>
0.0634719

> <r_epik_State_Penalty>
0.0551572

> <r_epik_Charging_Adjusted_Penalty>
0.0551572

> <i_epik_Tot_Q>
0

> <i_epik_Tot_abs_Q>
0

> <r_epik_Metal_State_Penalty>
5.78034e-05

> <b_epik_Metal_Only>
0

> <s_lp_Force_Field>
OPLS_2005

> <r_lp_Energy>
14.211

> <b_lp_Chiralities_Consistent>
1

> <s_lp_Variant>
AV-unprocessed.smi:1828-2

> <Gold.Version>
5.8.1

> <Gold.Id.Protein>
6NUR|6NUR_protein|mol2

> <Gold.PLP.Fitness>
60.8458

> <Gold.PLP.PLP>
-56.5039

> <Gold.PLP.part.hbond>
-2.0268

> <Gold.PLP.part.metal>
0.0000

> <Gold.PLP.part.buried>
-3.0499

> <Gold.PLP.part.nonpolar>
-54.5365

> <Gold.PLP.part.repulsive>
1.8199

> <Gold.PLP.ligand.clash>
0.3502

> <Gold.PLP.ligand.torsion>
1.3019

> <Gold.PLP.Chemscore.Hbond>
2.0000

> <Gold.PLP.Chemscore.CHOScore>
0.0000

> <Gold.PLP.Chemscore.Metal>
0.0000

> <Gold.Chemscore.Hbonds>
donor molecule, donor type, donor heavy atom, donor atom, acceptor molecule, acceptor atom, score
      L1  H     1    25       P1  7949  0.47
      P1  H 10752 10764       L1     1  0.88

> <Gold.PLP.Chemscore.Internal.Correction>
1.2958

> <Gold.Rescore>
     Score         DG    S(hbond)    S(metal)    S(lipo)     H(rot)  DE(clash)    DE(int)     intcor
     14.28     -17.30       1.46        0.00     123.12       2.91       1.38       1.63       ----

> <Gold.Chemscore.Fitness>
14.2826

> <Gold.Chemscore.DG>
-17.2960

> <Gold.Chemscore.ZeroCoef>
-5.4800

> <Gold.Chemscore.Hbond>
1.4585

> <Gold.Chemscore.Metal>
0.0000

> <Gold.Chemscore.Lipo>
123.1165

> <Gold.Chemscore.Internal_Hbond>
0.0000

> <Gold.Chemscore.DEClash>
1.3790

> <Gold.Chemscore.DEInternal>
1.6344

> <Gold.Chemscore.Rot>
2.9141

> <Gold.Chemscore.Internal.Correction>
   9.000000E+99

> <Gold.Chemscore.Hbonds>
donor molecule, donor type, donor heavy atom, donor atom, acceptor molecule, acceptor atom, score
      L1  H     1    25       P1  7949  0.04
      P1  H 10752 10764       L1     1  0.11

> <Gold.Chemscore.Hbond.Weighted>
-4.8714

> <Gold.Chemscore.Metal.Weighted>
-0.0000

> <Gold.Chemscore.Lipo.Weighted>
-14.4046

> <Gold.Chemscore.Internal_Hbond.Weighted>
0.0000

> <Gold.Chemscore.DEClash.Weighted>
1.3790

> <Gold.Chemscore.DEInternal.Weighted>
1.6344

> <Gold.Chemscore.Rot.Weighted>
7.4600

> <Gold.Chemscore.Internal.Correction.Weighted>
   9.000000E+99

> <Gold.Protein.RotatedTorsions>
[ 6907 6896 6895 6894 ] final  -19.29 input  -60.11 | X-H torsion
[ 7974 7965 7964 7962 ] final  129.05 input  175.53 | X-H torsion
[ 8008 7997 7996 7995 ] final   88.23 input   59.86 | X-H torsion
[ 10167 10162 10161 10158 ] final  -14.07 input  -65.29 | X-H torsion
[ 10718 10713 10712 10709 ] final   88.99 input   66.30 | X-H torsion
[ 10763 10752 10751 10750 ] final  -93.72 input  -60.55 | X-H torsion
[ 11005 11000 10999 10996 ] final -170.08 input  -57.11 | X-H torsion

> <Gold.Protein.ActiveResidues>
 VAL166  LYS551  ARG553  GLY616  TRP617  ASP618  TYR619  PRO620  LYS621  CYS622 
 ASP623  PHE694  ASN695  SER759  ASP760  ASP761  ALA762  ILE779  LEU786  VAL792 
 PHE793  MET794  SER795  GLU796  ALA797  LYS798  CYS799  TRP800  GLU811  SER814 

> <Gold.Protein.RotatedAtoms>
  151.2654  135.0667  159.9113 H   0  0  0  0  0  0  0  0  0  0  0  0  # atno 6907 bound_to 6896
  152.5359  134.0187  159.7982 H   0  0  0  0  0  0  0  0  0  0  0  0  # atno 6908 bound_to 6896
  151.0416  133.5651  159.2681 H   0  0  0  0  0  0  0  0  0  0  0  0  # atno 6909 bound_to 6896
  145.0328  139.4031  143.5141 H   0  0  0  0  0  0  0  0  0  0  0  0  # atno 7974 bound_to 7965
  155.9852  140.3374  155.6701 H   0  0  0  0  0  0  0  0  0  0  0  0  # atno 8008 bound_to 7997
  155.6494  140.0704  157.2610 H   0  0  0  0  0  0  0  0  0  0  0  0  # atno 8009 bound_to 7997
  154.4203  140.1728  156.1646 H   0  0  0  0  0  0  0  0  0  0  0  0  # atno 8010 bound_to 7997
  140.7194  143.5360  150.9465 H   0  0  0  0  0  0  0  0  0  0  0  0  # atno 10167 bound_to 10162
  157.6952  131.0316  150.3358 H   0  0  0  0  0  0  0  0  0  0  0  0  # atno 10718 bound_to 10713
  154.6986  135.5184  153.8494 H   0  0  0  0  0  0  0  0  0  0  0  0  # atno 10763 bound_to 10752
  153.0686  135.6593  154.0307 H   0  0  0  0  0  0  0  0  0  0  0  0  # atno 10764 bound_to 10752
  154.0170  135.2997  155.3365 H   0  0  0  0  0  0  0  0  0  0  0  0  # atno 10765 bound_to 10752
  140.5235  134.5686  157.5054 H   0  0  0  0  0  0  0  0  0  0  0  0  # atno 11005 bound_to 11000
  146.3500  139.9887  142.8688 LP  0  0  0  0  0  0  0  0  0  0  0  0  # atno 17320 bound_to 7965
  145.1748  140.9738  143.4300 LP  0  0  0  0  0  0  0  0  0  0  0  0  # atno 17321 bound_to 7965
  139.9081  143.6753  152.3120 LP  0  0  0  0  0  0  0  0  0  0  0  0  # atno 17342 bound_to 10162
  139.7127  144.7617  151.1086 LP  0  0  0  0  0  0  0  0  0  0  0  0  # atno 17343 bound_to 10162
  156.3825  130.3883  149.7091 LP  0  0  0  0  0  0  0  0  0  0  0  0  # atno 17370 bound_to 10713
  156.4468  130.7887  151.2909 LP  0  0  0  0  0  0  0  0  0  0  0  0  # atno 17371 bound_to 10713
  139.9593  134.7480  156.0272 LP  0  0  0  0  0  0  0  0  0  0  0  0  # atno 17394 bound_to 11000
  141.1321  133.6584  156.3493 LP  0  0  0  0  0  0  0  0  0  0  0  0  # atno 17395 bound_to 11000

$$$$
