AV-unprocessed.smi:630|AV-procd|sdf|3121|dock5
  -GOLD-   22720 0 43D 1   1.00000     0.00000
 Structure written by MMmdl.
 36 37  0  0  0  0  0  0  0  0  2 V2000
  150.1415  136.1383  154.5731 N   0  0  0  0  0  0  0  0  0  0  0  0
  150.9490  137.0616  155.1020 C   0  0  0  0  0  0  0  0  0  0  0  0
  152.1708  136.9226  155.1261 O   0  0  0  0  0  0  0  0  0  0  0  0
  150.2893  138.3273  155.6836 C   0  0  2  0  0  0  0  0  0  0  0  0
  150.7613  139.5620  154.8764 C   0  0  0  0  0  0  0  0  0  0  0  0
  149.8495  140.7875  155.0513 C   0  0  0  0  0  0  0  0  0  0  0  0
  150.2072  141.7018  156.2343 C   0  0  0  0  0  0  0  0  0  0  0  0
  150.7012  140.9970  157.5085 C   0  0  0  0  0  0  0  0  0  0  0  0
  149.9537  139.7050  157.8757 C   0  0  0  0  0  0  0  0  0  0  0  0
  150.5402  138.4370  157.2152 C   0  0  1  0  0  0  0  0  0  0  0  0
  149.9647  137.2711  157.8950 N   0  0  0  0  0  0  0  0  0  0  0  0
  150.1126  136.9313  159.1843 C   0  0  0  0  0  0  0  0  0  0  0  0
  150.7824  137.6385  159.9403 O   0  0  0  0  0  0  0  0  0  0  0  0
  149.4759  135.7851  159.5163 N   0  5  0  0  0  0  0  0  0  0  0  0
  148.7536  135.7230  160.6469 C   0  0  0  0  0  0  0  0  0  0  0  0
  148.4267  136.8027  161.3666 N   0  0  0  0  0  0  0  0  0  0  0  0
  147.6700  136.5048  162.5014 C   0  0  0  0  0  0  0  0  0  0  0  0
  147.4052  135.1684  162.6431 C   0  0  0  0  0  0  0  0  0  0  0  0
  148.1039  134.2383  161.3483 S   0  0  0  0  0  0  0  0  0  0  0  0
  150.5321  135.2812  154.2099 H   0  0  0  0  0  0  0  0  0  0  0  0
  149.1430  136.2865  154.5665 H   0  0  0  0  0  0  0  0  0  0  0  0
  149.2136  138.2254  155.5277 H   0  0  0  0  0  0  0  0  0  0  0  0
  151.7965  139.8152  155.1109 H   0  0  0  0  0  0  0  0  0  0  0  0
  150.7569  139.3082  153.8147 H   0  0  0  0  0  0  0  0  0  0  0  0
  149.8840  141.3888  154.1422 H   0  0  0  0  0  0  0  0  0  0  0  0
  148.8121  140.4627  155.1384 H   0  0  0  0  0  0  0  0  0  0  0  0
  150.9756  142.4092  155.9201 H   0  0  0  0  0  0  0  0  0  0  0  0
  149.3324  142.3072  156.4741 H   0  0  0  0  0  0  0  0  0  0  0  0
  151.7686  140.7891  157.4260 H   0  0  0  0  0  0  0  0  0  0  0  0
  150.6123  141.7030  158.3351 H   0  0  0  0  0  0  0  0  0  0  0  0
  150.0313  139.5867  158.9577 H   0  0  0  0  0  0  0  0  0  0  0  0
  148.8874  139.7995  157.6662 H   0  0  0  0  0  0  0  0  0  0  0  0
  151.6199  138.4527  157.3742 H   0  0  0  0  0  0  0  0  0  0  0  0
  149.4012  136.6555  157.3274 H   0  0  0  0  0  0  0  0  0  0  0  0
  147.3614  137.3079  163.1540 H   0  0  0  0  0  0  0  0  0  0  0  0
  146.8456  134.6768  163.4242 H   0  0  0  0  0  0  0  0  0  0  0  0
  1  2  1  0  0  0  0
  1 20  1  0  0  0  0
  1 21  1  0  0  0  0
  2  3  2  0  0  0  0
  2  4  1  0  0  0  0
  4 10  1  0  0  0  0
  4  5  1  0  0  0  0
  4 22  1  0  0  0  0
  5  6  1  0  0  0  0
  5 23  1  0  0  0  0
  5 24  1  0  0  0  0
  6  7  1  0  0  0  0
  6 25  1  0  0  0  0
  6 26  1  0  0  0  0
  7  8  1  0  0  0  0
  7 27  1  0  0  0  0
  7 28  1  0  0  0  0
  8  9  1  0  0  0  0
  8 29  1  0  0  0  0
  8 30  1  0  0  0  0
  9 10  1  0  0  0  0
  9 31  1  0  0  0  0
  9 32  1  0  0  0  0
 10 11  1  0  0  0  0
 10 33  1  0  0  0  0
 11 12  1  0  0  0  0
 11 34  1  0  0  0  0
 12 13  2  0  0  0  0
 12 14  1  0  0  0  0
 14 15  1  0  0  0  0
 15 19  1  0  0  0  0
 15 16  2  0  0  0  0
 16 17  1  0  0  0  0
 17 18  2  0  0  0  0
 17 35  1  0  0  0  0
 18 19  1  0  0  0  0
 18 36  1  0  0  0  0
M  CHG  1  14  -1
M  END
> <s_m_source_file>
AV-unprocessed.smi

> <i_m_source_file_index>
630

> <i_lp_mmshare_version>
43012

> <i_f3d_flags>
0

> <s_epik_input>
W05IMl1DKD1PKVtDQEBIXTFbQ0gyXVtDSDJdW0NIMl1bQ0gyXVtDSDJdW0NASF0xW05IXUMoPU8pW05IXWMybltjSF1bY0hdczI=

> <s_epik_cmdline>
J2VwaWtfcHl0aG9uJywgJy1waCcsICc3LjAnLCAnLXRuJywgJzgnLCAnLW1hJywgJzIwMCcsICctbWV0YWxfYmluZGluZycsICctaW1hZScsICc8aW5maWxlLm1hZT4nLCAnLW9tYWUnLCAnPG91dGZpbGUubWFlPic=

> <r_lp_tautomer_probability>
0.999

> <r_epik_Ionization_Penalty>
8.29606

> <r_epik_Ionization_Penalty_Charging>
6.67551

> <r_epik_Ionization_Penalty_Neutral>
1.62055

> <r_epik_State_Penalty>
6.67568

> <r_epik_Charging_Adjusted_Penalty>
13.3512

> <i_epik_Tot_Q>
-1

> <i_epik_Tot_abs_Q>
1

> <r_epik_Metal_State_Penalty>
2.59802

> <b_epik_Metal_Only>
1

> <s_lp_Force_Field>
OPLS_2005

> <r_lp_Energy>
8.76486

> <b_lp_Chiralities_Consistent>
1

> <s_lp_Variant>
AV-unprocessed.smi:630-5

> <Gold.Version>
5.8.1

> <Gold.Id.Protein>
6NUR|6NUR_protein|mol2

> <Gold.PLP.Fitness>
43.8912

> <Gold.PLP.PLP>
-33.1091

> <Gold.PLP.part.hbond>
-5.7480

> <Gold.PLP.part.metal>
0.0000

> <Gold.PLP.part.buried>
-2.5488

> <Gold.PLP.part.nonpolar>
-24.8315

> <Gold.PLP.part.repulsive>
0.2190

> <Gold.PLP.ligand.clash>
0.0000

> <Gold.PLP.ligand.torsion>
0.4667

> <Gold.PLP.Chemscore.Hbond>
3.8834

> <Gold.PLP.Chemscore.CHOScore>
0.0000

> <Gold.PLP.Chemscore.Metal>
0.0000

> <Gold.Chemscore.Hbonds>
donor molecule, donor type, donor heavy atom, donor atom, acceptor molecule, acceptor atom, score
      P1  H  6896  6907       L1    14  1.73
      P1  H  6931  6943       L1    16  0.85
      P1  H 10752 10764       L1     3  0.91

> <Gold.PLP.Chemscore.Internal.Correction>
0.0652

> <Gold.Rescore>
     Score         DG    S(hbond)    S(metal)    S(lipo)     H(rot)  DE(clash)    DE(int)     intcor
     12.82     -15.67       2.12        0.00      59.55       1.50       0.36       2.49       ----

> <Gold.Chemscore.Fitness>
12.8183

> <Gold.Chemscore.DG>
-15.6674

> <Gold.Chemscore.ZeroCoef>
-5.4800

> <Gold.Chemscore.Hbond>
2.1170

> <Gold.Chemscore.Metal>
0.0000

> <Gold.Chemscore.Lipo>
59.5545

> <Gold.Chemscore.Internal_Hbond>
0.0000

> <Gold.Chemscore.DEClash>
0.3559

> <Gold.Chemscore.DEInternal>
2.4932

> <Gold.Chemscore.Rot>
1.5044

> <Gold.Chemscore.Internal.Correction>
   9.000000E+99

> <Gold.Chemscore.Hbonds>
donor molecule, donor type, donor heavy atom, donor atom, acceptor molecule, acceptor atom, score
      P1  H  6896  6907       L1    14  0.42
      P1  H  6931  6943       L1    16  0.15
      P1  H 10752 10764       L1     3  0.88

> <Gold.Chemscore.Hbond.Weighted>
-7.0707

> <Gold.Chemscore.Metal.Weighted>
-0.0000

> <Gold.Chemscore.Lipo.Weighted>
-6.9679

> <Gold.Chemscore.Internal_Hbond.Weighted>
0.0000

> <Gold.Chemscore.DEClash.Weighted>
0.3559

> <Gold.Chemscore.DEInternal.Weighted>
2.4932

> <Gold.Chemscore.Rot.Weighted>
3.8512

> <Gold.Chemscore.Internal.Correction.Weighted>
   9.000000E+99

> <Gold.Protein.RotatedTorsions>
[ 6907 6896 6895 6894 ] final  -78.74 input  -60.11 | X-H torsion
[ 7974 7965 7964 7962 ] final -171.23 input  175.53 | X-H torsion
[ 8008 7997 7996 7995 ] final  -73.65 input   59.86 | X-H torsion
[ 10167 10162 10161 10158 ] final  -39.42 input  -65.29 | X-H torsion
[ 10718 10713 10712 10709 ] final   71.80 input   66.30 | X-H torsion
[ 10763 10752 10751 10750 ] final  -57.77 input  -60.55 | X-H torsion
[ 11005 11000 10999 10996 ] final  149.83 input  -57.11 | X-H torsion

> <Gold.Protein.ActiveResidues>
 VAL166  LYS551  ARG553  GLY616  TRP617  ASP618  TYR619  PRO620  LYS621  CYS622 
 ASP623  PHE694  ASN695  SER759  ASP760  ASP761  ALA762  ILE779  LEU786  VAL792 
 PHE793  MET794  SER795  GLU796  ALA797  LYS798  CYS799  TRP800  GLU811  SER814 

> <Gold.Protein.RotatedAtoms>
  150.6965  134.4226  159.5211 H   0  0  0  0  0  0  0  0  0  0  0  0  # atno 6907 bound_to 6896
  152.1966  134.8622  160.0521 H   0  0  0  0  0  0  0  0  0  0  0  0  # atno 6908 bound_to 6896
  151.9557  133.3645  159.4053 H   0  0  0  0  0  0  0  0  0  0  0  0  # atno 6909 bound_to 6896
  144.7159  140.1954  143.6344 H   0  0  0  0  0  0  0  0  0  0  0  0  # atno 7974 bound_to 7965
  154.5265  140.0775  156.8267 H   0  0  0  0  0  0  0  0  0  0  0  0  # atno 8008 bound_to 7997
  155.3465  140.3410  155.4221 H   0  0  0  0  0  0  0  0  0  0  0  0  # atno 8009 bound_to 7997
  156.1736  140.1628  156.8389 H   0  0  0  0  0  0  0  0  0  0  0  0  # atno 8010 bound_to 7997
  140.7064  143.3215  151.2780 H   0  0  0  0  0  0  0  0  0  0  0  0  # atno 10167 bound_to 10162
  157.6469  130.9546  150.0839 H   0  0  0  0  0  0  0  0  0  0  0  0  # atno 10718 bound_to 10713
  154.2277  135.6366  153.5165 H   0  0  0  0  0  0  0  0  0  0  0  0  # atno 10763 bound_to 10752
  152.9955  135.5512  154.6046 H   0  0  0  0  0  0  0  0  0  0  0  0  # atno 10764 bound_to 10752
  154.5522  135.2902  155.0972 H   0  0  0  0  0  0  0  0  0  0  0  0  # atno 10765 bound_to 10752
  140.1078  134.8943  157.1892 H   0  0  0  0  0  0  0  0  0  0  0  0  # atno 11005 bound_to 11000
  145.8730  139.2282  143.1650 LP  0  0  0  0  0  0  0  0  0  0  0  0  # atno 17320 bound_to 7965
  146.0067  140.8472  142.9991 LP  0  0  0  0  0  0  0  0  0  0  0  0  # atno 17321 bound_to 7965
  139.6671  144.0086  152.2729 LP  0  0  0  0  0  0  0  0  0  0  0  0  # atno 17342 bound_to 10162
  139.9672  144.6518  150.8023 LP  0  0  0  0  0  0  0  0  0  0  0  0  # atno 17343 bound_to 10162
  156.1807  130.3650  149.9039 LP  0  0  0  0  0  0  0  0  0  0  0  0  # atno 17370 bound_to 10713
  156.6992  130.8926  151.3597 LP  0  0  0  0  0  0  0  0  0  0  0  0  # atno 17371 bound_to 10713
  140.3132  134.3000  155.7262 LP  0  0  0  0  0  0  0  0  0  0  0  0  # atno 17394 bound_to 11000
  141.2123  133.7663  156.9805 LP  0  0  0  0  0  0  0  0  0  0  0  0  # atno 17395 bound_to 11000

$$$$
