AV-unprocessed.smi:2489|AV-procd|sdf|9806|dock6
  -GOLD-   2272013443D 1   1.00000     0.00000
 Structure written by MMmdl.
 34 35  0  0  0  0  0  0  0  0  2 V2000
  153.9461  141.9273  160.9457 C   0  0  0  0  0  0  0  0  0  0  0  0
  153.2770  141.4233  159.7989 O   0  0  0  0  0  0  0  0  0  0  0  0
  152.4687  142.2857  159.0904 C   0  0  0  0  0  0  0  0  0  0  0  0
  152.2630  143.6477  159.4266 C   0  0  0  0  0  0  0  0  0  0  0  0
  151.4032  144.4307  158.6327 C   0  0  0  0  0  0  0  0  0  0  0  0
  150.7909  143.8853  157.5606 N   0  3  0  0  0  0  0  0  0  0  0  0
  150.9593  142.5988  157.1803 C   0  0  0  0  0  0  0  0  0  0  0  0
  150.2381  142.1601  156.0375 N   0  0  0  0  0  0  0  0  0  0  0  0
  150.3060  140.9708  155.4112 C   0  0  0  0  0  0  0  0  0  0  0  0
  151.0411  140.0446  155.7555 O   0  0  0  0  0  0  0  0  0  0  0  0
  149.3835  140.8163  154.1907 C   0  0  1  0  0  0  0  0  0  0  0  0
  148.3872  139.6421  154.2870 C   0  0  0  0  0  0  0  0  0  0  0  0
  147.0198  140.3029  154.2306 C   0  0  0  0  0  0  0  0  0  0  0  0
  147.3083  141.7348  154.6683 C   0  0  2  0  0  0  0  0  0  0  0  0
  146.2754  142.7592  154.1875 C   0  0  0  0  0  0  0  0  0  0  0  0
  148.5763  141.9866  154.0796 O   0  0  0  0  0  0  0  0  0  0  0  0
  151.8027  141.7671  157.9591 C   0  0  0  0  0  0  0  0  0  0  0  0
  154.5428  141.1319  161.3920 H   0  0  0  0  0  0  0  0  0  0  0  0
  153.2382  142.2716  161.7009 H   0  0  0  0  0  0  0  0  0  0  0  0
  154.6239  142.7420  160.6868 H   0  0  0  0  0  0  0  0  0  0  0  0
  152.7424  144.1058  160.2785 H   0  0  0  0  0  0  0  0  0  0  0  0
  151.1881  145.4723  158.8228 H   0  0  0  0  0  0  0  0  0  0  0  0
  149.6477  142.8535  155.6014 H   0  0  0  0  0  0  0  0  0  0  0  0
  149.9847  140.7259  153.2844 H   0  0  0  0  0  0  0  0  0  0  0  0
  148.5147  138.9372  153.4649 H   0  0  0  0  0  0  0  0  0  0  0  0
  148.4946  139.0741  155.2121 H   0  0  0  0  0  0  0  0  0  0  0  0
  146.6508  140.2897  153.2041 H   0  0  0  0  0  0  0  0  0  0  0  0
  146.2808  139.8078  154.8611 H   0  0  0  0  0  0  0  0  0  0  0  0
  147.4023  141.7811  155.7546 H   0  0  0  0  0  0  0  0  0  0  0  0
  145.2917  142.5488  154.6077 H   0  0  0  0  0  0  0  0  0  0  0  0
  146.1853  142.7512  153.1009 H   0  0  0  0  0  0  0  0  0  0  0  0
  146.5579  143.7676  154.4905 H   0  0  0  0  0  0  0  0  0  0  0  0
  151.9441  140.7252  157.7150 H   0  0  0  0  0  0  0  0  0  0  0  0
  150.1742  144.4801  157.0066 H   0  0  0  0  0  0  0  0  0  0  0  0
  1  2  1  0  0  0  0
  1 18  1  0  0  0  0
  1 19  1  0  0  0  0
  1 20  1  0  0  0  0
  2  3  1  0  0  0  0
  3 17  1  0  0  0  0
  3  4  2  0  0  0  0
  4  5  1  0  0  0  0
  4 21  1  0  0  0  0
  5  6  2  0  0  0  0
  5 22  1  0  0  0  0
  6  7  1  0  0  0  0
  6 34  1  0  0  0  0
  7  8  1  0  0  0  0
  7 17  2  0  0  0  0
  8  9  1  0  0  0  0
  8 23  1  0  0  0  0
  9 10  2  0  0  0  0
  9 11  1  0  0  0  0
 11 16  1  0  0  0  0
 11 12  1  0  0  0  0
 11 24  1  0  0  0  0
 12 13  1  0  0  0  0
 12 25  1  0  0  0  0
 12 26  1  0  0  0  0
 13 14  1  0  0  0  0
 13 27  1  0  0  0  0
 13 28  1  0  0  0  0
 14 15  1  0  0  0  0
 14 16  1  0  0  0  0
 14 29  1  0  0  0  0
 15 30  1  0  0  0  0
 15 31  1  0  0  0  0
 15 32  1  0  0  0  0
 17 33  1  0  0  0  0
M  CHG  1   6   1
M  END
> <s_m_source_file>
AV-unprocessed.smi

> <i_m_source_file_index>
2489

> <i_lp_mmshare_version>
43012

> <i_f3d_flags>
0

> <s_epik_input>
W0NIM11PYzFbY0hdW2NIXW5jKFtjSF0xKVtOSF1DKD1PKVtDQEBIXTJbQ0gyXVtDSDJdW0NASF0oTzIpW0NIM10=

> <s_epik_cmdline>
J2VwaWtfcHl0aG9uJywgJy1waCcsICc3LjAnLCAnLXRuJywgJzgnLCAnLW1hJywgJzIwMCcsICctbWV0YWxfYmluZGluZycsICctaW1hZScsICc8aW5maWxlLm1hZT4nLCAnLW9tYWUnLCAnPG91dGZpbGUubWFlPic=

> <r_epik_Ionization_Penalty>
1.58956

> <r_epik_Ionization_Penalty_Charging>
1.1784

> <r_epik_Ionization_Penalty_Neutral>
0.411158

> <r_epik_State_Penalty>
1.31089

> <r_epik_Charging_Adjusted_Penalty>
2.48928

> <i_epik_Tot_Q>
1

> <i_epik_Tot_abs_Q>
1

> <r_epik_Metal_State_Penalty>
5.00213

> <b_epik_Metal_Only>
0

> <s_lp_Force_Field>
OPLS_2005

> <r_lp_Energy>
33.2408

> <b_lp_Chiralities_Consistent>
1

> <s_lp_Variant>
AV-unprocessed.smi:2489-12

> <Gold.Version>
5.8.1

> <Gold.Id.Protein>
6NUR|6NUR_protein|mol2

> <Gold.PLP.Fitness>
48.2057

> <Gold.PLP.PLP>
-38.9935

> <Gold.PLP.part.hbond>
-3.0000

> <Gold.PLP.part.metal>
0.0000

> <Gold.PLP.part.buried>
-6.7543

> <Gold.PLP.part.nonpolar>
-31.6136

> <Gold.PLP.part.repulsive>
0.3134

> <Gold.PLP.ligand.clash>
0.0000

> <Gold.PLP.ligand.torsion>
0.0327

> <Gold.PLP.Chemscore.Hbond>
3.0895

> <Gold.PLP.Chemscore.CHOScore>
0.0000

> <Gold.PLP.Chemscore.Metal>
0.0000

> <Gold.Chemscore.Hbonds>
donor molecule, donor type, donor heavy atom, donor atom, acceptor molecule, acceptor atom, score
      L1  H     6    34       P1  8028  2.00
      L1  H     8    23       P1  8028  0.96
      P1  H  8011  8017       L1    16  0.08

> <Gold.PLP.Chemscore.Internal.Correction>
0.0091

> <Gold.Rescore>
     Score         DG    S(hbond)    S(metal)    S(lipo)     H(rot)  DE(clash)    DE(int)     intcor
     16.56     -17.89       1.69        0.00      84.89       1.24       0.05       1.28       ----

> <Gold.Chemscore.Fitness>
16.5610

> <Gold.Chemscore.DG>
-17.8878

> <Gold.Chemscore.ZeroCoef>
-5.4800

> <Gold.Chemscore.Hbond>
1.6922

> <Gold.Chemscore.Metal>
0.0000

> <Gold.Chemscore.Lipo>
84.8928

> <Gold.Chemscore.Internal_Hbond>
0.0000

> <Gold.Chemscore.DEClash>
0.0498

> <Gold.Chemscore.DEInternal>
1.2769

> <Gold.Chemscore.Rot>
1.2409

> <Gold.Chemscore.Internal.Correction>
   9.000000E+99

> <Gold.Chemscore.Hbonds>
donor molecule, donor type, donor heavy atom, donor atom, acceptor molecule, acceptor atom, score
      L1  H     6    34       P1  8028  0.68
      L1  H     8    23       P1  8028  0.87

> <Gold.Chemscore.Hbond.Weighted>
-5.6520

> <Gold.Chemscore.Metal.Weighted>
-0.0000

> <Gold.Chemscore.Lipo.Weighted>
-9.9325

> <Gold.Chemscore.Internal_Hbond.Weighted>
0.0000

> <Gold.Chemscore.DEClash.Weighted>
0.0498

> <Gold.Chemscore.DEInternal.Weighted>
1.2769

> <Gold.Chemscore.Rot.Weighted>
3.1767

> <Gold.Chemscore.Internal.Correction.Weighted>
   9.000000E+99

> <Gold.Protein.RotatedTorsions>
[ 6907 6896 6895 6894 ] final  101.32 input  -60.11 | X-H torsion
[ 7974 7965 7964 7962 ] final -147.21 input  175.53 | X-H torsion
[ 8008 7997 7996 7995 ] final -151.50 input   59.86 | X-H torsion
[ 10167 10162 10161 10158 ] final  157.33 input  -65.29 | X-H torsion
[ 10718 10713 10712 10709 ] final -165.11 input   66.30 | X-H torsion
[ 10763 10752 10751 10750 ] final -178.87 input  -60.55 | X-H torsion
[ 11005 11000 10999 10996 ] final   36.22 input  -57.11 | X-H torsion

> <Gold.Protein.ActiveResidues>
 VAL166  LYS551  ARG553  GLY616  TRP617  ASP618  TYR619  PRO620  LYS621  CYS622 
 ASP623  PHE694  ASN695  SER759  ASP760  ASP761  ALA762  ILE779  LEU786  VAL792 
 PHE793  MET794  SER795  GLU796  ALA797  LYS798  CYS799  TRP800  GLU811  SER814 

> <Gold.Protein.RotatedAtoms>
  152.5352  134.0143  159.7952 H   0  0  0  0  0  0  0  0  0  0  0  0  # atno 6907 bound_to 6896
  151.0340  133.5757  159.2665 H   0  0  0  0  0  0  0  0  0  0  0  0  # atno 6908 bound_to 6896
  151.2751  135.0704  159.9202 H   0  0  0  0  0  0  0  0  0  0  0  0  # atno 6909 bound_to 6896
  144.8108  140.5356  143.5644 H   0  0  0  0  0  0  0  0  0  0  0  0  # atno 7974 bound_to 7965
  155.6403  140.0701  157.2620 H   0  0  0  0  0  0  0  0  0  0  0  0  # atno 8008 bound_to 7997
  154.4185  140.1751  156.1615 H   0  0  0  0  0  0  0  0  0  0  0  0  # atno 8009 bound_to 7997
  155.9861  140.3349  155.6712 H   0  0  0  0  0  0  0  0  0  0  0  0  # atno 8010 bound_to 7997
  139.4823  144.4927  151.8285 H   0  0  0  0  0  0  0  0  0  0  0  0  # atno 10167 bound_to 10162
  156.6487  130.8998  151.3009 H   0  0  0  0  0  0  0  0  0  0  0  0  # atno 10718 bound_to 10713
  154.5422  135.2807  155.1085 H   0  0  0  0  0  0  0  0  0  0  0  0  # atno 10763 bound_to 10752
  154.2563  135.6330  153.5262 H   0  0  0  0  0  0  0  0  0  0  0  0  # atno 10764 bound_to 10752
  152.9982  135.5595  154.5965 H   0  0  0  0  0  0  0  0  0  0  0  0  # atno 10765 bound_to 10752
  140.2347  134.3485  155.7949 H   0  0  0  0  0  0  0  0  0  0  0  0  # atno 11005 bound_to 11000
  145.5328  139.1475  143.3490 LP  0  0  0  0  0  0  0  0  0  0  0  0  # atno 17320 bound_to 7965
  146.2406  140.5469  142.8935 LP  0  0  0  0  0  0  0  0  0  0  0  0  # atno 17321 bound_to 7965
  140.4413  144.1983  150.5891 LP  0  0  0  0  0  0  0  0  0  0  0  0  # atno 17342 bound_to 10162
  140.4680  143.2423  151.9128 LP  0  0  0  0  0  0  0  0  0  0  0  0  # atno 17343 bound_to 10162
  157.7148  130.9483  150.1215 LP  0  0  0  0  0  0  0  0  0  0  0  0  # atno 17370 bound_to 10713
  156.2101  130.3666  149.8680 LP  0  0  0  0  0  0  0  0  0  0  0  0  # atno 17371 bound_to 10713
  141.2215  133.7265  156.8789 LP  0  0  0  0  0  0  0  0  0  0  0  0  # atno 17394 bound_to 11000
  140.1714  134.9097  157.2838 LP  0  0  0  0  0  0  0  0  0  0  0  0  # atno 17395 bound_to 11000

$$$$
