AV-unprocessed.smi:1164|AV-procd|sdf|4926|dock9
  -GOLD-   22720 3503D 1   1.00000     0.00000
 Structure written by MMmdl.
 30 30  0  0  0  0  0  0  0  0  2 V2000
  152.2018  144.3016  160.7502 C   0  0  0  0  0  0  0  0  0  0  0  0
  151.6988  144.0565  159.3165 C   0  0  0  0  0  0  0  0  0  0  0  0
  150.2831  144.6547  159.1741 C   0  0  0  0  0  0  0  0  0  0  0  0
  152.6734  144.7225  158.3222 C   0  0  0  0  0  0  0  0  0  0  0  0
  151.6711  142.6026  159.1175 N   0  0  0  0  0  0  0  0  0  0  0  0
  152.6829  141.7227  159.2226 C   0  0  0  0  0  0  0  0  0  0  0  0
  153.8376  142.0413  159.5105 O   0  0  0  0  0  0  0  0  0  0  0  0
  152.3081  140.2577  158.9469 C   0  0  0  0  0  0  0  0  0  0  0  0
  151.9390  139.9809  157.5505 N   0  0  0  0  0  0  0  0  0  0  0  0
  152.8346  139.0437  156.8783 N   0  5  0  0  0  0  0  0  0  0  0  0
  152.5816  138.6946  155.5890 C   0  0  0  0  0  0  0  0  0  0  0  0
  153.2790  137.8980  154.9650 O   0  0  0  0  0  0  0  0  0  0  0  0
  151.4364  139.2988  154.9284 C   0  0  0  0  0  0  0  0  0  0  0  0
  150.6398  140.1789  155.5665 C   0  0  0  0  0  0  0  0  0  0  0  0
  150.8685  140.5760  156.9505 C   0  0  0  0  0  0  0  0  0  0  0  0
  150.1493  141.3850  157.5371 O   0  0  0  0  0  0  0  0  0  0  0  0
  152.2569  145.3672  160.9752 H   0  0  0  0  0  0  0  0  0  0  0  0
  153.1983  143.8840  160.9000 H   0  0  0  0  0  0  0  0  0  0  0  0
  151.5400  143.8454  161.4876 H   0  0  0  0  0  0  0  0  0  0  0  0
  149.5741  144.1580  159.8376 H   0  0  0  0  0  0  0  0  0  0  0  0
  149.9003  144.5665  158.1575 H   0  0  0  0  0  0  0  0  0  0  0  0
  150.2785  145.7157  159.4251 H   0  0  0  0  0  0  0  0  0  0  0  0
  152.7705  145.7899  158.5228 H   0  0  0  0  0  0  0  0  0  0  0  0
  152.3387  144.6211  157.2897 H   0  0  0  0  0  0  0  0  0  0  0  0
  153.6701  144.2845  158.3896 H   0  0  0  0  0  0  0  0  0  0  0  0
  150.7712  142.2173  158.8702 H   0  0  0  0  0  0  0  0  0  0  0  0
  153.1443  139.6187  159.2362 H   0  0  0  0  0  0  0  0  0  0  0  0
  151.4893  139.9857  159.6155 H   0  0  0  0  0  0  0  0  0  0  0  0
  151.2216  139.0380  153.9026 H   0  0  0  0  0  0  0  0  0  0  0  0
  149.8008  140.6044  155.0366 H   0  0  0  0  0  0  0  0  0  0  0  0
  1  2  1  0  0  0  0
  1 17  1  0  0  0  0
  1 18  1  0  0  0  0
  1 19  1  0  0  0  0
  2  3  1  0  0  0  0
  2  4  1  0  0  0  0
  2  5  1  0  0  0  0
  3 20  1  0  0  0  0
  3 21  1  0  0  0  0
  3 22  1  0  0  0  0
  4 23  1  0  0  0  0
  4 24  1  0  0  0  0
  4 25  1  0  0  0  0
  5  6  1  0  0  0  0
  5 26  1  0  0  0  0
  6  7  2  0  0  0  0
  6  8  1  0  0  0  0
  8 27  1  0  0  0  0
  8 28  1  0  0  0  0
  8  9  1  0  0  0  0
  9 10  1  0  0  0  0
  9 15  1  0  0  0  0
 10 11  1  0  0  0  0
 11 12  2  0  0  0  0
 11 13  1  0  0  0  0
 13 29  1  0  0  0  0
 13 14  2  0  0  0  0
 14 30  1  0  0  0  0
 14 15  1  0  0  0  0
 15 16  2  0  0  0  0
M  CHG  1  10  -1
M  END
> <s_m_source_file>
AV-unprocessed.smi

> <i_m_source_file_index>
1164

> <i_lp_mmshare_version>
43012

> <i_f3d_flags>
0

> <s_epik_input>
W0NIM11DKFtDSDNdKShbQ0gzXSlbTkhdQyg9TylbQ0gyXW4xW25IXWMoPU8pW2NIXVtjSF1jMT1P

> <s_epik_cmdline>
J2VwaWtfcHl0aG9uJywgJy1waCcsICc3LjAnLCAnLXRuJywgJzgnLCAnLW1hJywgJzIwMCcsICctbWV0YWxfYmluZGluZycsICctaW1hZScsICc8aW5maWxlLm1hZT4nLCAnLW9tYWUnLCAnPG91dGZpbGUubWFlPic=

> <r_lp_tautomer_probability>
1

> <r_epik_Ionization_Penalty>
0.098909

> <r_epik_Ionization_Penalty_Charging>
0.0989089

> <r_epik_Ionization_Penalty_Neutral>
2.46306e-08

> <r_epik_State_Penalty>
0.0348838

> <r_epik_Charging_Adjusted_Penalty>
0.133793

> <i_epik_Tot_Q>
-1

> <i_epik_Tot_abs_Q>
1

> <r_epik_Metal_State_Penalty>
0.0348839

> <b_epik_Metal_Only>
0

> <s_lp_Force_Field>
OPLS_2005

> <r_lp_Energy>
18.541

> <b_lp_Chiralities_Consistent>
1

> <s_lp_Variant>
AV-unprocessed.smi:1164-1

> <Gold.Version>
5.8.1

> <Gold.Id.Protein>
6NUR|6NUR_protein|mol2

> <Gold.PLP.Fitness>
40.2551

> <Gold.PLP.PLP>
-34.2462

> <Gold.PLP.part.hbond>
-2.0000

> <Gold.PLP.part.metal>
0.0000

> <Gold.PLP.part.buried>
-3.8558

> <Gold.PLP.part.nonpolar>
-28.6029

> <Gold.PLP.part.repulsive>
0.1434

> <Gold.PLP.ligand.clash>
0.0000

> <Gold.PLP.ligand.torsion>
0.0716

> <Gold.PLP.Chemscore.Hbond>
2.0486

> <Gold.PLP.Chemscore.CHOScore>
0.0000

> <Gold.PLP.Chemscore.Metal>
0.0000

> <Gold.Chemscore.Hbonds>
donor molecule, donor type, donor heavy atom, donor atom, acceptor molecule, acceptor atom, score
      P1  H  7997  8010       L1    10  1.90
      P1  H 10752 10765       L1    12  0.04

> <Gold.PLP.Chemscore.Internal.Correction>
0.0063

> <Gold.Rescore>
     Score         DG    S(hbond)    S(metal)    S(lipo)     H(rot)  DE(clash)    DE(int)     intcor
      9.13     -10.85       0.68        0.00      63.61       1.70       0.05       1.67       ----

> <Gold.Chemscore.Fitness>
9.1307

> <Gold.Chemscore.DG>
-10.8478

> <Gold.Chemscore.ZeroCoef>
-5.4800

> <Gold.Chemscore.Hbond>
0.6781

> <Gold.Chemscore.Metal>
0.0000

> <Gold.Chemscore.Lipo>
63.6086

> <Gold.Chemscore.Internal_Hbond>
0.0000

> <Gold.Chemscore.DEClash>
0.0519

> <Gold.Chemscore.DEInternal>
1.6651

> <Gold.Chemscore.Rot>
1.6950

> <Gold.Chemscore.Internal.Correction>
   9.000000E+99

> <Gold.Chemscore.Hbonds>
donor molecule, donor type, donor heavy atom, donor atom, acceptor molecule, acceptor atom, score
      P1  H  7997  8010       L1    10  0.09
      P1  H 10752 10765       L1    12  0.05

> <Gold.Chemscore.Hbond.Weighted>
-2.2648

> <Gold.Chemscore.Metal.Weighted>
-0.0000

> <Gold.Chemscore.Lipo.Weighted>
-7.4422

> <Gold.Chemscore.Internal_Hbond.Weighted>
0.0000

> <Gold.Chemscore.DEClash.Weighted>
0.0519

> <Gold.Chemscore.DEInternal.Weighted>
1.6651

> <Gold.Chemscore.Rot.Weighted>
4.3393

> <Gold.Chemscore.Internal.Correction.Weighted>
   9.000000E+99

> <Gold.Protein.RotatedTorsions>
[ 6907 6896 6895 6894 ] final  -30.66 input  -60.11 | X-H torsion
[ 7974 7965 7964 7962 ] final  166.55 input  175.53 | X-H torsion
[ 8008 7997 7996 7995 ] final   61.42 input   59.86 | X-H torsion
[ 10167 10162 10161 10158 ] final   77.65 input  -65.29 | X-H torsion
[ 10718 10713 10712 10709 ] final  126.60 input   66.30 | X-H torsion
[ 10763 10752 10751 10750 ] final -169.39 input  -60.55 | X-H torsion
[ 11005 11000 10999 10996 ] final  165.00 input  -57.11 | X-H torsion

> <Gold.Protein.ActiveResidues>
 VAL166  LYS551  ARG553  GLY616  TRP617  ASP618  TYR619  PRO620  LYS621  CYS622 
 ASP623  PHE694  ASN695  SER759  ASP760  ASP761  ALA762  ILE779  LEU786  VAL792 
 PHE793  MET794  SER795  GLU796  ALA797  LYS798  CYS799  TRP800  GLU811  SER814 

> <Gold.Protein.RotatedAtoms>
  151.1026  134.9981  159.8455 H   0  0  0  0  0  0  0  0  0  0  0  0  # atno 6907 bound_to 6896
  152.5438  134.1932  159.8692 H   0  0  0  0  0  0  0  0  0  0  0  0  # atno 6908 bound_to 6896
  151.1976  133.4585  159.2629 H   0  0  0  0  0  0  0  0  0  0  0  0  # atno 6909 bound_to 6896
  144.7458  139.8631  143.6382 H   0  0  0  0  0  0  0  0  0  0  0  0  # atno 7974 bound_to 7965
  155.5980  140.3493  155.4585 H   0  0  0  0  0  0  0  0  0  0  0  0  # atno 8008 bound_to 7997
  156.0250  140.1262  157.0342 H   0  0  0  0  0  0  0  0  0  0  0  0  # atno 8009 bound_to 7997
  154.4330  140.1055  156.6004 H   0  0  0  0  0  0  0  0  0  0  0  0  # atno 8010 bound_to 7997
  139.9793  144.5838  150.7915 H   0  0  0  0  0  0  0  0  0  0  0  0  # atno 10167 bound_to 10162
  157.5405  131.1097  150.8866 H   0  0  0  0  0  0  0  0  0  0  0  0  # atno 10718 bound_to 10713
  154.6528  135.2914  154.9966 H   0  0  0  0  0  0  0  0  0  0  0  0  # atno 10763 bound_to 10752
  154.1053  135.6570  153.4879 H   0  0  0  0  0  0  0  0  0  0  0  0  # atno 10764 bound_to 10752
  153.0386  135.5252  154.7443 H   0  0  0  0  0  0  0  0  0  0  0  0  # atno 10765 bound_to 10752
  140.2516  134.7972  157.3507 H   0  0  0  0  0  0  0  0  0  0  0  0  # atno 11005 bound_to 11000
  146.1334  139.4374  143.0154 LP  0  0  0  0  0  0  0  0  0  0  0  0  # atno 17320 bound_to 7965
  145.7128  141.0100  143.1444 LP  0  0  0  0  0  0  0  0  0  0  0  0  # atno 17321 bound_to 7965
  140.7495  143.2939  151.3256 LP  0  0  0  0  0  0  0  0  0  0  0  0  # atno 17342 bound_to 10162
  139.6422  144.0518  152.2563 LP  0  0  0  0  0  0  0  0  0  0  0  0  # atno 17343 bound_to 10162
  156.9420  130.5388  149.5280 LP  0  0  0  0  0  0  0  0  0  0  0  0  # atno 17370 bound_to 10713
  156.0493  130.5565  150.8953 LP  0  0  0  0  0  0  0  0  0  0  0  0  # atno 17371 bound_to 10713
  140.1552  134.4799  155.7933 LP  0  0  0  0  0  0  0  0  0  0  0  0  # atno 17394 bound_to 11000
  141.2200  133.6878  156.7448 LP  0  0  0  0  0  0  0  0  0  0  0  0  # atno 17395 bound_to 11000

$$$$
