AV-unprocessed.smi:3175|AV-procd|sdf|12122|dock9
  -GOLD-   2272017563D 1   1.00000     0.00000
 Structure written by MMmdl.
 37 38  0  0  0  0  0  0  0  0  1 V2000
  153.6520  139.4945  159.2478 O   0  0  0  0  0  0  0  0  0  0  0  0
  152.7537  140.3186  159.4195 C   0  0  0  0  0  0  0  0  0  0  0  0
  153.0889  141.7508  159.8481 C   0  0  0  0  0  0  0  0  0  0  0  0
  151.8958  142.7209  159.7248 C   0  0  0  0  0  0  0  0  0  0  0  0
  151.6399  143.1925  158.2915 C   0  0  0  0  0  0  0  0  0  0  0  0
  150.7899  144.4599  158.4345 C   0  0  0  0  0  0  0  0  0  0  0  0
  151.0579  145.0019  159.8473 C   0  0  0  0  0  0  0  0  0  0  0  0
  152.0548  144.0360  160.4965 C   0  0  0  0  0  0  0  0  0  0  0  0
  151.4528  140.0316  159.2620 N   0  0  0  0  0  0  0  0  0  0  0  0
  150.9234  138.7237  158.8885 C   0  0  0  0  0  0  0  0  0  0  0  0
  150.3187  138.7147  157.4717 C   0  0  0  0  0  0  0  0  0  0  0  0
  148.8477  138.3368  157.4484 C   0  0  0  0  0  0  0  0  0  0  0  0
  148.4396  137.0086  157.6885 C   0  0  0  0  0  0  0  0  0  0  0  0
  147.0656  136.7033  157.6477 C   0  0  0  0  0  0  0  0  0  0  0  0
  146.1559  137.7426  157.3682 C   0  0  0  0  0  0  0  0  0  0  0  0
  146.5347  139.0179  157.1374 N   0  0  0  0  0  0  0  0  0  0  0  0
  147.8541  139.3028  157.1797 C   0  0  0  0  0  0  0  0  0  0  0  0
  153.4624  141.7506  160.8735 H   0  0  0  0  0  0  0  0  0  0  0  0
  153.9107  142.1013  159.2228 H   0  0  0  0  0  0  0  0  0  0  0  0
  150.9889  142.2255  160.0769 H   0  0  0  0  0  0  0  0  0  0  0  0
  152.5852  143.4441  157.8084 H   0  0  0  0  0  0  0  0  0  0  0  0
  151.1518  142.4309  157.6827 H   0  0  0  0  0  0  0  0  0  0  0  0
  151.0347  145.1909  157.6634 H   0  0  0  0  0  0  0  0  0  0  0  0
  149.7319  144.2169  158.3286 H   0  0  0  0  0  0  0  0  0  0  0  0
  151.4474  146.0202  159.8268 H   0  0  0  0  0  0  0  0  0  0  0  0
  150.1279  145.0203  160.4170 H   0  0  0  0  0  0  0  0  0  0  0  0
  151.8800  143.9194  161.5667 H   0  0  0  0  0  0  0  0  0  0  0  0
  153.0676  144.4207  160.3681 H   0  0  0  0  0  0  0  0  0  0  0  0
  150.7802  140.7660  159.4291 H   0  0  0  0  0  0  0  0  0  0  0  0
  151.7455  138.0092  158.9387 H   0  0  0  0  0  0  0  0  0  0  0  0
  150.1837  138.3918  159.6188 H   0  0  0  0  0  0  0  0  0  0  0  0
  150.4372  139.6984  157.0160 H   0  0  0  0  0  0  0  0  0  0  0  0
  150.8734  138.0214  156.8377 H   0  0  0  0  0  0  0  0  0  0  0  0
  149.1656  136.2364  157.8975 H   0  0  0  0  0  0  0  0  0  0  0  0
  146.7169  135.6968  157.8258 H   0  0  0  0  0  0  0  0  0  0  0  0
  145.0951  137.5437  157.3287 H   0  0  0  0  0  0  0  0  0  0  0  0
  148.1243  140.3305  156.9860 H   0  0  0  0  0  0  0  0  0  0  0  0
  1  2  2  0  0  0  0
  2  3  1  0  0  0  0
  2  9  1  0  0  0  0
  3  4  1  0  0  0  0
  3 18  1  0  0  0  0
  3 19  1  0  0  0  0
  4  8  1  0  0  0  0
  4  5  1  0  0  0  0
  4 20  1  0  0  0  0
  5  6  1  0  0  0  0
  5 21  1  0  0  0  0
  5 22  1  0  0  0  0
  6  7  1  0  0  0  0
  6 23  1  0  0  0  0
  6 24  1  0  0  0  0
  7  8  1  0  0  0  0
  7 25  1  0  0  0  0
  7 26  1  0  0  0  0
  8 27  1  0  0  0  0
  8 28  1  0  0  0  0
  9 10  1  0  0  0  0
  9 29  1  0  0  0  0
 10 11  1  0  0  0  0
 10 30  1  0  0  0  0
 10 31  1  0  0  0  0
 11 12  1  0  0  0  0
 11 32  1  0  0  0  0
 11 33  1  0  0  0  0
 12 17  1  0  0  0  0
 12 13  2  0  0  0  0
 13 14  1  0  0  0  0
 13 34  1  0  0  0  0
 14 15  2  0  0  0  0
 14 35  1  0  0  0  0
 15 16  1  0  0  0  0
 15 36  1  0  0  0  0
 16 17  2  0  0  0  0
 17 37  1  0  0  0  0
M  END
> <s_m_source_file>
AV-unprocessed.smi

> <i_m_source_file_index>
3175

> <i_lp_mmshare_version>
43012

> <i_f3d_flags>
0

> <s_epik_input>
W0NIMl0xW0NIMl1bQ0gyXVtDSDJdW0NIXTFbQ0gyXUMoPU8pW05IXVtDSDJdW0NIMl1jMltjSF1bY0hdW2NIXW5bY0hdMg==

> <s_epik_cmdline>
J2VwaWtfcHl0aG9uJywgJy1waCcsICc3LjAnLCAnLXRuJywgJzgnLCAnLW1hJywgJzIwMCcsICctbWV0YWxfYmluZGluZycsICctaW1hZScsICc8aW5maWxlLm1hZT4nLCAnLW9tYWUnLCAnPG91dGZpbGUubWFlPic=

> <r_epik_Ionization_Penalty>
0.013409

> <r_epik_Ionization_Penalty_Charging>
0

> <r_epik_Ionization_Penalty_Neutral>
0.013409

> <r_epik_State_Penalty>
0.010434

> <r_epik_Charging_Adjusted_Penalty>
0.010434

> <i_epik_Tot_Q>
0

> <i_epik_Tot_abs_Q>
0

> <r_epik_Metal_State_Penalty>
0.0102027

> <b_epik_Metal_Only>
0

> <s_lp_Force_Field>
OPLS_2005

> <r_lp_Energy>
19.7305

> <b_lp_Chiralities_Consistent>
1

> <s_lp_Variant>
AV-unprocessed.smi:3175-1

> <Gold.Version>
5.8.1

> <Gold.Id.Protein>
6NUR|6NUR_protein|mol2

> <Gold.PLP.Fitness>
47.7360

> <Gold.PLP.PLP>
-43.3949

> <Gold.PLP.part.hbond>
-1.0942

> <Gold.PLP.part.metal>
0.0000

> <Gold.PLP.part.buried>
-3.0124

> <Gold.PLP.part.nonpolar>
-39.9600

> <Gold.PLP.part.repulsive>
0.2481

> <Gold.PLP.ligand.clash>
0.0000

> <Gold.PLP.ligand.torsion>
0.8374

> <Gold.PLP.Chemscore.Hbond>
1.0000

> <Gold.PLP.Chemscore.CHOScore>
1.0000

> <Gold.PLP.Chemscore.Metal>
0.0000

> <Gold.Chemscore.Hbonds>
donor molecule, donor type, donor heavy atom, donor atom, acceptor molecule, acceptor atom, score
      P1  H  7997  8010       L1     1  0.06

> <Gold.PLP.Chemscore.Internal.Correction>
0.0160

> <Gold.Rescore>
     Score         DG    S(hbond)    S(metal)    S(lipo)     H(rot)  DE(clash)    DE(int)     intcor
     17.63     -18.32       0.88        0.00     117.17       1.48       0.04       0.65       ----

> <Gold.Chemscore.Fitness>
17.6266

> <Gold.Chemscore.DG>
-18.3216

> <Gold.Chemscore.ZeroCoef>
-5.4800

> <Gold.Chemscore.Hbond>
0.8783

> <Gold.Chemscore.Metal>
0.0000

> <Gold.Chemscore.Lipo>
117.1715

> <Gold.Chemscore.Internal_Hbond>
0.0000

> <Gold.Chemscore.DEClash>
0.0404

> <Gold.Chemscore.DEInternal>
0.6545

> <Gold.Chemscore.Rot>
1.4848

> <Gold.Chemscore.Internal.Correction>
   9.000000E+99

> <Gold.Chemscore.Hbonds>
donor molecule, donor type, donor heavy atom, donor atom, acceptor molecule, acceptor atom, score
      P1  H  7997  8010       L1     1  0.07

> <Gold.Chemscore.Hbond.Weighted>
-2.9337

> <Gold.Chemscore.Metal.Weighted>
-0.0000

> <Gold.Chemscore.Lipo.Weighted>
-13.7091

> <Gold.Chemscore.Internal_Hbond.Weighted>
0.0000

> <Gold.Chemscore.DEClash.Weighted>
0.0404

> <Gold.Chemscore.DEInternal.Weighted>
0.6545

> <Gold.Chemscore.Rot.Weighted>
3.8012

> <Gold.Chemscore.Internal.Correction.Weighted>
   9.000000E+99

> <Gold.Protein.RotatedTorsions>
[ 6907 6896 6895 6894 ] final    2.89 input  -60.11 | X-H torsion
[ 7974 7965 7964 7962 ] final  121.96 input  175.53 | X-H torsion
[ 8008 7997 7996 7995 ] final   20.20 input   59.86 | X-H torsion
[ 10167 10162 10161 10158 ] final   60.07 input  -65.29 | X-H torsion
[ 10718 10713 10712 10709 ] final -176.76 input   66.30 | X-H torsion
[ 10763 10752 10751 10750 ] final  150.21 input  -60.55 | X-H torsion
[ 11005 11000 10999 10996 ] final  169.93 input  -57.11 | X-H torsion

> <Gold.Protein.ActiveResidues>
 VAL166  LYS551  ARG553  GLY616  TRP617  ASP618  TYR619  PRO620  LYS621  CYS622 
 ASP623  PHE694  ASN695  SER759  ASP760  ASP761  ALA762  ILE779  LEU786  VAL792 
 PHE793  MET794  SER795  GLU796  ALA797  LYS798  CYS799  TRP800  GLU811  SER814 

> <Gold.Protein.RotatedAtoms>
  151.6161  135.1036  160.0091 H   0  0  0  0  0  0  0  0  0  0  0  0  # atno 6907 bound_to 6896
  152.4182  133.7069  159.6467 H   0  0  0  0  0  0  0  0  0  0  0  0  # atno 6908 bound_to 6896
  150.8070  133.8418  159.3222 H   0  0  0  0  0  0  0  0  0  0  0  0  # atno 6909 bound_to 6896
  145.1132  139.3439  143.4752 H   0  0  0  0  0  0  0  0  0  0  0  0  # atno 7974 bound_to 7965
  154.9320  140.3041  155.5163 H   0  0  0  0  0  0  0  0  0  0  0  0  # atno 8008 bound_to 7997
  156.3003  140.2352  156.4318 H   0  0  0  0  0  0  0  0  0  0  0  0  # atno 8009 bound_to 7997
  154.8228  140.0422  157.1411 H   0  0  0  0  0  0  0  0  0  0  0  0  # atno 8010 bound_to 7997
  140.1696  144.4290  150.6668 H   0  0  0  0  0  0  0  0  0  0  0  0  # atno 10167 bound_to 10162
  156.8195  130.9614  151.3112 H   0  0  0  0  0  0  0  0  0  0  0  0  # atno 10718 bound_to 10713
  154.0837  135.2857  155.3285 H   0  0  0  0  0  0  0  0  0  0  0  0  # atno 10763 bound_to 10752
  154.6666  135.5315  153.8088 H   0  0  0  0  0  0  0  0  0  0  0  0  # atno 10764 bound_to 10752
  153.0439  135.6547  154.1011 H   0  0  0  0  0  0  0  0  0  0  0  0  # atno 10765 bound_to 10752
  140.3030  134.7580  157.3931 H   0  0  0  0  0  0  0  0  0  0  0  0  # atno 11005 bound_to 11000
  146.3525  140.1059  142.8606 LP  0  0  0  0  0  0  0  0  0  0  0  0  # atno 17320 bound_to 7965
  145.0824  140.9230  143.4818 LP  0  0  0  0  0  0  0  0  0  0  0  0  # atno 17321 bound_to 7965
  140.6590  143.2246  151.5900 LP  0  0  0  0  0  0  0  0  0  0  0  0  # atno 17342 bound_to 10162
  139.5344  144.2824  152.1219 LP  0  0  0  0  0  0  0  0  0  0  0  0  # atno 17343 bound_to 10162
  157.6464  130.8848  149.9547 LP  0  0  0  0  0  0  0  0  0  0  0  0  # atno 17370 bound_to 10713
  156.0997  130.3656  150.0240 LP  0  0  0  0  0  0  0  0  0  0  0  0  # atno 17371 bound_to 10713
  140.1092  134.5368  155.8281 LP  0  0  0  0  0  0  0  0  0  0  0  0  # atno 17394 bound_to 11000
  141.2124  133.6719  156.6657 LP  0  0  0  0  0  0  0  0  0  0  0  0  # atno 17395 bound_to 11000

$$$$
