AV-unprocessed.smi:89|AV-procd|sdf|828|dock5
  -GOLD-   2262017243D 1   1.00000     0.00000
 Structure written by MMmdl.
 54 56  0  0  0  0  0  0  0  0  1 V2000
  146.0037  134.4693  153.4895 C   0  0  0  0  0  0  0  0  0  0  0  0
  146.0803  133.2501  154.4236 C   0  0  0  0  0  0  0  0  0  0  0  0
  146.0249  133.5968  155.8456 N   0  0  0  0  0  0  0  0  0  0  0  0
  146.8026  134.6459  156.2176 C   0  0  0  0  0  0  0  0  0  0  0  0
  146.2073  135.6455  156.9153 N   0  0  0  0  0  0  0  0  0  0  0  0
  146.9114  136.7135  157.2986 C   0  0  0  0  0  0  0  0  0  0  0  0
  148.2016  136.9807  157.0894 N   0  0  0  0  0  0  0  0  0  0  0  0
  148.8047  135.9835  156.3807 C   0  0  0  0  0  0  0  0  0  0  0  0
  148.1858  134.7927  155.9048 C   0  0  0  0  0  0  0  0  0  0  0  0
  149.1182  134.0204  155.2215 N   0  0  0  0  0  0  0  0  0  0  0  0
  150.2221  134.7124  155.2912 C   0  0  0  0  0  0  0  0  0  0  0  0
  150.1260  135.9012  155.9781 N   0  0  0  0  0  0  0  0  0  0  0  0
  151.1912  136.8652  156.2079 C   0  0  0  0  0  0  0  0  0  0  0  0
  151.6783  137.5851  154.9250 C   0  0  2  0  0  0  0  0  0  0  0  0
  152.1875  136.6227  154.0195 O   0  0  0  0  0  0  0  0  0  0  0  0
  152.7434  138.6546  155.1718 C   0  0  0  0  0  0  0  0  0  0  0  0
  151.9201  139.9305  155.2590 C   0  0  0  0  0  0  0  0  0  0  0  0
  150.9643  139.7427  154.2301 O   0  0  0  0  0  0  0  0  0  0  0  0
  150.5397  138.3841  154.2578 C   0  0  0  0  0  0  0  0  0  0  0  0
  145.9541  132.4705  156.7905 C   0  0  1  0  0  0  0  0  0  0  0  0
  147.1631  131.5210  156.6870 C   0  0  0  0  0  0  0  0  0  0  0  0
  145.7020  132.8951  158.2540 C   0  0  0  0  0  0  0  0  0  0  0  0
  143.9005  132.9194  158.6597 S   0  0  0  0  0  0  0  0  0  0  0  0
  143.7235  133.3402  160.0577 O   0  0  0  0  0  0  0  0  0  0  0  0
  143.1941  133.6514  157.5974 O   0  0  0  0  0  0  0  0  0  0  0  0
  143.4585  131.1363  158.5322 C   0  0  0  0  0  0  0  0  0  0  0  0
  142.0444  130.8843  159.0636 C   0  0  0  0  0  0  0  0  0  0  0  0
  145.9692  134.1508  152.4477 H   0  0  0  0  0  0  0  0  0  0  0  0
  146.8680  135.1246  153.6000 H   0  0  0  0  0  0  0  0  0  0  0  0
  145.1070  135.0575  153.6861 H   0  0  0  0  0  0  0  0  0  0  0  0
  145.2387  132.5942  154.1988 H   0  0  0  0  0  0  0  0  0  0  0  0
  146.9773  132.6705  154.2080 H   0  0  0  0  0  0  0  0  0  0  0  0
  146.3611  137.4612  157.8504 H   0  0  0  0  0  0  0  0  0  0  0  0
  151.1445  134.3706  154.8443 H   0  0  0  0  0  0  0  0  0  0  0  0
  150.8347  137.5952  156.9359 H   0  0  0  0  0  0  0  0  0  0  0  0
  152.0229  136.3451  156.6845 H   0  0  0  0  0  0  0  0  0  0  0  0
  151.5310  136.4556  153.3605 H   0  0  0  0  0  0  0  0  0  0  0  0
  153.3617  138.4890  156.0527 H   0  0  0  0  0  0  0  0  0  0  0  0
  153.4157  138.7336  154.3159 H   0  0  0  0  0  0  0  0  0  0  0  0
  151.4186  140.0108  156.2249 H   0  0  0  0  0  0  0  0  0  0  0  0
  152.5145  140.8301  155.0984 H   0  0  0  0  0  0  0  0  0  0  0  0
  150.3171  138.0473  153.2445 H   0  0  0  0  0  0  0  0  0  0  0  0
  149.6149  138.3172  154.8325 H   0  0  0  0  0  0  0  0  0  0  0  0
  145.0864  131.8806  156.4927 H   0  0  0  0  0  0  0  0  0  0  0  0
  147.0143  130.6348  157.3043 H   0  0  0  0  0  0  0  0  0  0  0  0
  148.0821  131.9997  157.0250 H   0  0  0  0  0  0  0  0  0  0  0  0
  147.3180  131.1778  155.6643 H   0  0  0  0  0  0  0  0  0  0  0  0
  146.1602  132.1745  158.9313 H   0  0  0  0  0  0  0  0  0  0  0  0
  146.1382  133.8642  158.4921 H   0  0  0  0  0  0  0  0  0  0  0  0
  143.5369  130.8379  157.4867 H   0  0  0  0  0  0  0  0  0  0  0  0
  144.1906  130.5614  159.0998 H   0  0  0  0  0  0  0  0  0  0  0  0
  141.7824  129.8288  158.9870 H   0  0  0  0  0  0  0  0  0  0  0  0
  141.3055  131.4537  158.4994 H   0  0  0  0  0  0  0  0  0  0  0  0
  141.9616  131.1738  160.1114 H   0  0  0  0  0  0  0  0  0  0  0  0
  1  2  1  0  0  0  0
  1 28  1  0  0  0  0
  1 29  1  0  0  0  0
  1 30  1  0  0  0  0
  2  3  1  0  0  0  0
  2 31  1  0  0  0  0
  2 32  1  0  0  0  0
  3  4  1  0  0  0  0
  3 20  1  0  0  0  0
  4  9  1  0  0  0  0
  4  5  2  0  0  0  0
  5  6  1  0  0  0  0
  6  7  2  0  0  0  0
  6 33  1  0  0  0  0
  7  8  1  0  0  0  0
  8 12  1  0  0  0  0
  8  9  2  0  0  0  0
  9 10  1  0  0  0  0
 10 11  2  0  0  0  0
 11 12  1  0  0  0  0
 11 34  1  0  0  0  0
 12 13  1  0  0  0  0
 13 14  1  0  0  0  0
 13 35  1  0  0  0  0
 13 36  1  0  0  0  0
 14 19  1  0  0  0  0
 14 15  1  0  0  0  0
 14 16  1  0  0  0  0
 15 37  1  0  0  0  0
 16 17  1  0  0  0  0
 16 38  1  0  0  0  0
 16 39  1  0  0  0  0
 17 18  1  0  0  0  0
 17 40  1  0  0  0  0
 17 41  1  0  0  0  0
 18 19  1  0  0  0  0
 19 42  1  0  0  0  0
 19 43  1  0  0  0  0
 20 21  1  0  0  0  0
 20 22  1  0  0  0  0
 20 44  1  0  0  0  0
 21 45  1  0  0  0  0
 21 46  1  0  0  0  0
 21 47  1  0  0  0  0
 22 23  1  0  0  0  0
 22 48  1  0  0  0  0
 22 49  1  0  0  0  0
 23 24  2  0  0  0  0
 23 25  2  0  0  0  0
 23 26  1  0  0  0  0
 26 27  1  0  0  0  0
 26 50  1  0  0  0  0
 26 51  1  0  0  0  0
 27 52  1  0  0  0  0
 27 53  1  0  0  0  0
 27 54  1  0  0  0  0
M  END
> <s_m_source_file>
AV-unprocessed.smi

> <i_m_source_file_index>
89

> <i_lp_mmshare_version>
43012

> <i_f3d_flags>
0

> <s_epik_input>
W0NIM11bQ0gyXVMoPU8pKD1PKVtDSDJdW0NAQEhdKFtDSDNdKU4oW0NIMl1bQ0gzXSljKG5bY0hdbjEpYyhjMTIpbltjSF1uMltDSDJdW0NAQF0zKFtPSF0pW0NIMl1bQ0gyXU9bQ0gyXTM=

> <s_epik_cmdline>
J2VwaWtfcHl0aG9uJywgJy1waCcsICc3LjAnLCAnLXRuJywgJzgnLCAnLW1hJywgJzIwMCcsICctbWV0YWxfYmluZGluZycsICctaW1hZScsICc8aW5maWxlLm1hZT4nLCAnLW9tYWUnLCAnPG91dGZpbGUubWFlPic=

> <r_lp_tautomer_probability>
1

> <r_epik_Ionization_Penalty>
0.00103773

> <r_epik_Ionization_Penalty_Charging>
0

> <r_epik_Ionization_Penalty_Neutral>
0.00103773

> <r_epik_State_Penalty>
0.000558914

> <r_epik_Charging_Adjusted_Penalty>
0.000558914

> <i_epik_Tot_Q>
0

> <i_epik_Tot_abs_Q>
0

> <r_epik_Metal_State_Penalty>
-0

> <b_epik_Metal_Only>
0

> <s_lp_Force_Field>
OPLS_2005

> <r_lp_Energy>
26.3804

> <b_lp_Chiralities_Consistent>
1

> <s_lp_Variant>
AV-unprocessed.smi:89-4

> <Gold.Version>
5.8.1

> <Gold.Id.Protein>
6NUR|6NUR_protein|mol2

> <Gold.PLP.Fitness>
38.7685

> <Gold.PLP.PLP>
-29.5857

> <Gold.PLP.part.hbond>
-4.0000

> <Gold.PLP.part.metal>
0.0000

> <Gold.PLP.part.buried>
-5.9324

> <Gold.PLP.part.nonpolar>
-20.5808

> <Gold.PLP.part.repulsive>
0.3472

> <Gold.PLP.ligand.clash>
0.0000

> <Gold.PLP.ligand.torsion>
1.4688

> <Gold.PLP.Chemscore.Hbond>
3.6400

> <Gold.PLP.Chemscore.CHOScore>
0.0000

> <Gold.PLP.Chemscore.Metal>
0.0000

> <Gold.Chemscore.Hbonds>
donor molecule, donor type, donor heavy atom, donor atom, acceptor molecule, acceptor atom, score
      L1  H    15    37       P1  7949  0.93
      P1  H  7989  7998       L1    18  0.36
      P1  H 10752 10764       L1    15  0.24
      P1  H 11000 11005       L1    25  0.93

> <Gold.PLP.Chemscore.Internal.Correction>
1.2004

> <Gold.Rescore>
     Score         DG    S(hbond)    S(metal)    S(lipo)     H(rot)  DE(clash)    DE(int)     intcor
     10.62     -13.04       3.12        0.00      51.08       3.45       0.05       2.37       ----

> <Gold.Chemscore.Fitness>
10.6210

> <Gold.Chemscore.DG>
-13.0353

> <Gold.Chemscore.ZeroCoef>
-5.4800

> <Gold.Chemscore.Hbond>
3.1189

> <Gold.Chemscore.Metal>
0.0000

> <Gold.Chemscore.Lipo>
51.0791

> <Gold.Chemscore.Internal_Hbond>
0.0000

> <Gold.Chemscore.DEClash>
0.0475

> <Gold.Chemscore.DEInternal>
2.3668

> <Gold.Chemscore.Rot>
3.4524

> <Gold.Chemscore.Internal.Correction>
   9.000000E+99

> <Gold.Chemscore.Hbonds>
donor molecule, donor type, donor heavy atom, donor atom, acceptor molecule, acceptor atom, score
      L1  H    15    37       P1  7949  0.80
      P1  H  7989  7998       L1    18  0.01
      P1  H 10752 10764       L1    15  0.19
      P1  H 11000 11005       L1    25  0.88

> <Gold.Chemscore.Hbond.Weighted>
-10.4173

> <Gold.Chemscore.Metal.Weighted>
-0.0000

> <Gold.Chemscore.Lipo.Weighted>
-5.9763

> <Gold.Chemscore.Internal_Hbond.Weighted>
0.0000

> <Gold.Chemscore.DEClash.Weighted>
0.0475

> <Gold.Chemscore.DEInternal.Weighted>
2.3668

> <Gold.Chemscore.Rot.Weighted>
8.8382

> <Gold.Chemscore.Internal.Correction.Weighted>
   9.000000E+99

> <Gold.Protein.RotatedTorsions>
[ 6907 6896 6895 6894 ] final  -78.68 input  -60.11 | X-H torsion
[ 7974 7965 7964 7962 ] final -125.09 input  175.53 | X-H torsion
[ 8008 7997 7996 7995 ] final   92.17 input   59.86 | X-H torsion
[ 10167 10162 10161 10158 ] final  150.97 input  -65.29 | X-H torsion
[ 10718 10713 10712 10709 ] final -161.69 input   66.30 | X-H torsion
[ 10763 10752 10751 10750 ] final  -90.27 input  -60.55 | X-H torsion
[ 11005 11000 10999 10996 ] final  -94.47 input  -57.11 | X-H torsion

> <Gold.Protein.ActiveResidues>
 VAL166  LYS551  ARG553  GLY616  TRP617  ASP618  TYR619  PRO620  LYS621  CYS622 
 ASP623  PHE694  ASN695  SER759  ASP760  ASP761  ALA762  ILE779  LEU786  VAL792 
 PHE793  MET794  SER795  GLU796  ALA797  LYS798  CYS799  TRP800  GLU811  SER814 

> <Gold.Protein.RotatedAtoms>
  150.6967  134.4236  159.5215 H   0  0  0  0  0  0  0  0  0  0  0  0  # atno 6907 bound_to 6896
  152.1975  134.8615  160.0520 H   0  0  0  0  0  0  0  0  0  0  0  0  # atno 6908 bound_to 6896
  151.9548  133.3642  159.4050 H   0  0  0  0  0  0  0  0  0  0  0  0  # atno 6909 bound_to 6896
  145.0012  140.7822  143.4495 H   0  0  0  0  0  0  0  0  0  0  0  0  # atno 7974 bound_to 7965
  156.0323  140.3329  155.7153 H   0  0  0  0  0  0  0  0  0  0  0  0  # atno 8008 bound_to 7997
  155.5867  140.0642  157.2787 H   0  0  0  0  0  0  0  0  0  0  0  0  # atno 8009 bound_to 7997
  154.4358  140.1834  156.1020 H   0  0  0  0  0  0  0  0  0  0  0  0  # atno 8010 bound_to 7997
  139.4845  144.5479  151.7452 H   0  0  0  0  0  0  0  0  0  0  0  0  # atno 10167 bound_to 10162
  156.5998  130.8806  151.2911 H   0  0  0  0  0  0  0  0  0  0  0  0  # atno 10718 bound_to 10713
  154.6640  135.5310  153.8053 H   0  0  0  0  0  0  0  0  0  0  0  0  # atno 10763 bound_to 10752
  153.0459  135.6512  154.0828 H   0  0  0  0  0  0  0  0  0  0  0  0  # atno 10764 bound_to 10752
  154.0734  135.2952  155.3284 H   0  0  0  0  0  0  0  0  0  0  0  0  # atno 10765 bound_to 10752
  141.1469  133.7959  157.0303 H   0  0  0  0  0  0  0  0  0  0  0  0  # atno 11005 bound_to 11000
  145.2151  139.2186  143.5122 LP  0  0  0  0  0  0  0  0  0  0  0  0  # atno 17320 bound_to 7965
  146.3452  140.1997  142.8589 LP  0  0  0  0  0  0  0  0  0  0  0  0  # atno 17321 bound_to 7965
  140.5028  144.1143  150.5975 LP  0  0  0  0  0  0  0  0  0  0  0  0  # atno 17342 bound_to 10162
  140.4042  143.2688  151.9911 LP  0  0  0  0  0  0  0  0  0  0  0  0  # atno 17343 bound_to 10162
  157.7282  130.9654  150.1734 LP  0  0  0  0  0  0  0  0  0  0  0  0  # atno 17370 bound_to 10713
  156.2479  130.3697  149.8265 LP  0  0  0  0  0  0  0  0  0  0  0  0  # atno 17371 bound_to 10713
  140.0758  134.9676  157.1544 LP  0  0  0  0  0  0  0  0  0  0  0  0  # atno 17394 bound_to 11000
  140.3646  134.2457  155.7183 LP  0  0  0  0  0  0  0  0  0  0  0  0  # atno 17395 bound_to 11000

$$$$
