AV-unprocessed.smi:2775|AV-procd|sdf|10688|dock7
  -GOLD-   2272015133D 1   1.00000     0.00000
 Structure written by MMmdl.
 42 45  0  0  0  0  0  0  0  0  1 V2000
  146.9217  130.4991  152.7516 C   0  0  0  0  0  0  0  0  0  0  0  0
  147.9528  131.3167  153.5068 C   0  0  0  0  0  0  0  0  0  0  0  0
  148.8501  130.6066  154.2245 N   0  0  0  0  0  0  0  0  0  0  0  0
  149.7872  131.2844  154.9182 C   0  0  0  0  0  0  0  0  0  0  0  0
  149.8819  132.6888  154.9239 C   0  0  0  0  0  0  0  0  0  0  0  0
  148.9543  133.4356  154.1589 C   0  0  0  0  0  0  0  0  0  0  0  0
  148.9490  134.8566  154.0998 N   0  0  0  0  0  0  0  0  0  0  0  0
  149.2067  135.7488  155.0761 C   0  0  0  0  0  0  0  0  0  0  0  0
  149.4424  135.4642  156.2482 O   0  0  0  0  0  0  0  0  0  0  0  0
  149.2052  137.0257  154.6576 N   0  0  0  0  0  0  0  0  0  0  0  0
  149.4491  138.2282  155.4665 C   0  0  2  0  0  0  0  0  0  0  0  0
  148.6296  139.4523  155.0341 C   0  0  2  0  0  0  0  0  0  0  0  0
  147.3492  139.6694  154.3120 C   0  0  0  0  0  0  0  0  0  0  0  0
  147.8043  140.8950  153.4798 C   0  0  0  0  0  0  0  0  0  0  0  0
  149.2341  141.0093  153.6934 O   0  0  0  0  0  0  0  0  0  0  0  0
  149.6639  139.6837  153.9444 C   0  0  1  0  0  0  0  0  0  0  0  0
  150.6529  139.0935  154.9639 C   0  0  0  0  0  0  0  0  0  0  0  0
  151.4535  139.9947  155.9184 C   0  0  0  0  0  0  0  0  0  0  0  0
  152.5967  138.9787  155.8365 C   0  0  0  0  0  0  0  0  0  0  0  0
  151.9824  138.4588  154.5326 C   0  0  0  0  0  0  0  0  0  0  0  0
  147.9560  132.7300  153.4470 C   0  0  0  0  0  0  0  0  0  0  0  0
  146.7654  133.5766  152.5160 Cl  0  0  0  0  0  0  0  0  0  0  0  0
  146.9931  130.6958  151.6816 H   0  0  0  0  0  0  0  0  0  0  0  0
  145.9155  130.7554  153.0837 H   0  0  0  0  0  0  0  0  0  0  0  0
  147.0662  129.4291  152.9070 H   0  0  0  0  0  0  0  0  0  0  0  0
  150.4817  130.6885  155.4918 H   0  0  0  0  0  0  0  0  0  0  0  0
  150.6501  133.1580  155.5185 H   0  0  0  0  0  0  0  0  0  0  0  0
  148.8355  135.2451  153.1747 H   0  0  0  0  0  0  0  0  0  0  0  0
  149.0179  137.1823  153.6777 H   0  0  0  0  0  0  0  0  0  0  0  0
  149.4617  138.0539  156.5434 H   0  0  0  0  0  0  0  0  0  0  0  0
  148.7101  140.1959  155.8355 H   0  0  0  0  0  0  0  0  0  0  0  0
  147.0806  138.8230  153.6787 H   0  0  0  0  0  0  0  0  0  0  0  0
  146.5182  139.8998  154.9783 H   0  0  0  0  0  0  0  0  0  0  0  0
  147.5884  140.7459  152.4212 H   0  0  0  0  0  0  0  0  0  0  0  0
  147.3110  141.8127  153.8008 H   0  0  0  0  0  0  0  0  0  0  0  0
  149.5356  139.0482  153.0631 H   0  0  0  0  0  0  0  0  0  0  0  0
  151.7112  140.9564  155.4720 H   0  0  0  0  0  0  0  0  0  0  0  0
  151.0219  140.1133  156.9127 H   0  0  0  0  0  0  0  0  0  0  0  0
  153.5898  139.4163  155.7303 H   0  0  0  0  0  0  0  0  0  0  0  0
  152.5623  138.2420  156.6407 H   0  0  0  0  0  0  0  0  0  0  0  0
  151.9724  137.3727  154.4399 H   0  0  0  0  0  0  0  0  0  0  0  0
  152.4077  138.9351  153.6480 H   0  0  0  0  0  0  0  0  0  0  0  0
  1  2  1  0  0  0  0
  1 23  1  0  0  0  0
  1 24  1  0  0  0  0
  1 25  1  0  0  0  0
  2 21  1  0  0  0  0
  2  3  2  0  0  0  0
  3  4  1  0  0  0  0
  4  5  2  0  0  0  0
  4 26  1  0  0  0  0
  5  6  1  0  0  0  0
  5 27  1  0  0  0  0
  6  7  1  0  0  0  0
  6 21  2  0  0  0  0
  7  8  1  0  0  0  0
  7 28  1  0  0  0  0
  8  9  2  0  0  0  0
  8 10  1  0  0  0  0
 10 11  1  0  0  0  0
 10 29  1  0  0  0  0
 11 17  1  0  0  0  0
 11 12  1  0  0  0  0
 11 30  1  0  0  0  0
 12 16  1  0  0  0  0
 12 13  1  0  0  0  0
 12 31  1  0  0  0  0
 13 14  1  0  0  0  0
 13 32  1  0  0  0  0
 13 33  1  0  0  0  0
 14 15  1  0  0  0  0
 14 34  1  0  0  0  0
 14 35  1  0  0  0  0
 15 16  1  0  0  0  0
 16 17  1  0  0  0  0
 16 36  1  0  0  0  0
 17 20  1  0  0  0  0
 17 18  1  0  0  0  0
 18 19  1  0  0  0  0
 18 37  1  0  0  0  0
 18 38  1  0  0  0  0
 19 20  1  0  0  0  0
 19 39  1  0  0  0  0
 19 40  1  0  0  0  0
 20 41  1  0  0  0  0
 20 42  1  0  0  0  0
 21 22  1  0  0  0  0
M  END
> <s_m_source_file>
AV-unprocessed.smi

> <i_m_source_file_index>
2775

> <i_lp_mmshare_version>
43012

> <i_f3d_flags>
0

> <s_epik_input>
W0NIM11jMW5bY0hdW2NIXWMoYzFDbClbTkhdQyg9TylbTkhdW0NAQEhdMltDQEhdKFtDSDJdW0NIMl1PMylbQ0BASF0zQzI0W0NIMl1bQ0gyXVtDSDJdNA==

> <s_epik_cmdline>
J2VwaWtfcHl0aG9uJywgJy1waCcsICc3LjAnLCAnLXRuJywgJzgnLCAnLW1hJywgJzIwMCcsICctbWV0YWxfYmluZGluZycsICctaW1hZScsICc8aW5maWxlLm1hZT4nLCAnLW9tYWUnLCAnPG91dGZpbGUubWFlPic=

> <r_epik_Ionization_Penalty>
0.01026

> <r_epik_Ionization_Penalty_Charging>
0

> <r_epik_Ionization_Penalty_Neutral>
0.01026

> <r_epik_State_Penalty>
0.00780685

> <r_epik_Charging_Adjusted_Penalty>
0.00780685

> <i_epik_Tot_Q>
0

> <i_epik_Tot_abs_Q>
0

> <r_epik_Metal_State_Penalty>
0.00767411

> <b_epik_Metal_Only>
0

> <s_lp_Force_Field>
OPLS_2005

> <r_lp_Energy>
81.865

> <b_lp_Chiralities_Consistent>
1

> <s_lp_Variant>
AV-unprocessed.smi:2775-1

> <Gold.Version>
5.8.1

> <Gold.Id.Protein>
6NUR|6NUR_protein|mol2

> <Gold.PLP.Fitness>
41.7579

> <Gold.PLP.PLP>
-33.8248

> <Gold.PLP.part.hbond>
-4.0000

> <Gold.PLP.part.metal>
0.0000

> <Gold.PLP.part.buried>
1.9108

> <Gold.PLP.part.nonpolar>
-33.3355

> <Gold.PLP.part.repulsive>
2.7533

> <Gold.PLP.ligand.clash>
0.0000

> <Gold.PLP.ligand.torsion>
0.4636

> <Gold.PLP.Chemscore.Hbond>
2.8480

> <Gold.PLP.Chemscore.CHOScore>
0.0000

> <Gold.PLP.Chemscore.Metal>
0.0000

> <Gold.Chemscore.Hbonds>
donor molecule, donor type, donor heavy atom, donor atom, acceptor molecule, acceptor atom, score
      L1  H     7    28       P1  7948  1.00
      L1  H    10    29       P1  7948  0.84
      P1  H  8011  8017       L1    15  0.99

> <Gold.PLP.Chemscore.Internal.Correction>
0.3163

> <Gold.Rescore>
     Score         DG    S(hbond)    S(metal)    S(lipo)     H(rot)  DE(clash)    DE(int)     intcor
     18.44     -22.28       2.49        0.00      94.28       1.00       3.38       0.45       ----

> <Gold.Chemscore.Fitness>
18.4400

> <Gold.Chemscore.DG>
-22.2761

> <Gold.Chemscore.ZeroCoef>
-5.4800

> <Gold.Chemscore.Hbond>
2.4925

> <Gold.Chemscore.Metal>
0.0000

> <Gold.Chemscore.Lipo>
94.2817

> <Gold.Chemscore.Internal_Hbond>
0.0000

> <Gold.Chemscore.DEClash>
3.3840

> <Gold.Chemscore.DEInternal>
0.4521

> <Gold.Chemscore.Rot>
1.0000

> <Gold.Chemscore.Internal.Correction>
   9.000000E+99

> <Gold.Chemscore.Hbonds>
donor molecule, donor type, donor heavy atom, donor atom, acceptor molecule, acceptor atom, score
      L1  H     7    28       P1  7948  0.60
      L1  H    10    29       P1  7948  0.77
      P1  H  8011  8017       L1    15  0.35

> <Gold.Chemscore.Hbond.Weighted>
-8.3251

> <Gold.Chemscore.Metal.Weighted>
-0.0000

> <Gold.Chemscore.Lipo.Weighted>
-11.0310

> <Gold.Chemscore.Internal_Hbond.Weighted>
0.0000

> <Gold.Chemscore.DEClash.Weighted>
3.3840

> <Gold.Chemscore.DEInternal.Weighted>
0.4521

> <Gold.Chemscore.Rot.Weighted>
2.5600

> <Gold.Chemscore.Internal.Correction.Weighted>
   9.000000E+99

> <Gold.Protein.RotatedTorsions>
[ 6907 6896 6895 6894 ] final  179.05 input  -60.11 | X-H torsion
[ 7974 7965 7964 7962 ] final -130.81 input  175.53 | X-H torsion
[ 8008 7997 7996 7995 ] final   83.66 input   59.86 | X-H torsion
[ 10167 10162 10161 10158 ] final  -62.27 input  -65.29 | X-H torsion
[ 10718 10713 10712 10709 ] final   82.81 input   66.30 | X-H torsion
[ 10763 10752 10751 10750 ] final   10.14 input  -60.55 | X-H torsion
[ 11005 11000 10999 10996 ] final   69.12 input  -57.11 | X-H torsion

> <Gold.Protein.ActiveResidues>
 VAL166  LYS551  ARG553  GLY616  TRP617  ASP618  TYR619  PRO620  LYS621  CYS622 
 ASP623  PHE694  ASN695  SER759  ASP760  ASP761  ALA762  ILE779  LEU786  VAL792 
 PHE793  MET794  SER795  GLU796  ALA797  LYS798  CYS799  TRP800  GLU811  SER814 

> <Gold.Protein.RotatedAtoms>
  151.6779  133.3312  159.3212 H   0  0  0  0  0  0  0  0  0  0  0  0  # atno 6907 bound_to 6896
  150.7837  134.6806  159.6451 H   0  0  0  0  0  0  0  0  0  0  0  0  # atno 6908 bound_to 6896
  152.3901  134.6459  160.0163 H   0  0  0  0  0  0  0  0  0  0  0  0  # atno 6909 bound_to 6896
  144.9439  140.7270  143.4829 H   0  0  0  0  0  0  0  0  0  0  0  0  # atno 7974 bound_to 7965
  155.9269  140.3417  155.6217 H   0  0  0  0  0  0  0  0  0  0  0  0  # atno 8008 bound_to 7997
  155.7205  140.0783  157.2351 H   0  0  0  0  0  0  0  0  0  0  0  0  # atno 8009 bound_to 7997
  154.4078  140.1606  156.2384 H   0  0  0  0  0  0  0  0  0  0  0  0  # atno 8010 bound_to 7997
  140.5950  143.2349  151.6055 H   0  0  0  0  0  0  0  0  0  0  0  0  # atno 10167 bound_to 10162
  157.6865  131.0064  150.2429 H   0  0  0  0  0  0  0  0  0  0  0  0  # atno 10718 bound_to 10713
  153.2064  135.6863  153.8167 H   0  0  0  0  0  0  0  0  0  0  0  0  # atno 10763 bound_to 10752
  153.7415  135.3237  155.3306 H   0  0  0  0  0  0  0  0  0  0  0  0  # atno 10764 bound_to 10752
  154.8199  135.4659  154.0853 H   0  0  0  0  0  0  0  0  0  0  0  0  # atno 10765 bound_to 10752
  139.9672  134.6961  156.0521 H   0  0  0  0  0  0  0  0  0  0  0  0  # atno 11005 bound_to 11000
  145.2948  139.1871  143.4721 LP  0  0  0  0  0  0  0  0  0  0  0  0  # atno 17320 bound_to 7965
  146.3296  140.2930  142.8616 LP  0  0  0  0  0  0  0  0  0  0  0  0  # atno 17321 bound_to 7965
  139.5252  144.3080  152.1017 LP  0  0  0  0  0  0  0  0  0  0  0  0  # atno 17342 bound_to 10162
  140.2251  144.4426  150.6324 LP  0  0  0  0  0  0  0  0  0  0  0  0  # atno 17343 bound_to 10162
  156.3040  130.3762  149.7723 LP  0  0  0  0  0  0  0  0  0  0  0  0  # atno 17370 bound_to 10713
  156.5344  130.8272  151.3248 LP  0  0  0  0  0  0  0  0  0  0  0  0  # atno 17371 bound_to 10713
  141.1352  133.6577  156.3573 LP  0  0  0  0  0  0  0  0  0  0  0  0  # atno 17394 bound_to 11000
  140.5371  134.6156  157.5368 LP  0  0  0  0  0  0  0  0  0  0  0  0  # atno 17395 bound_to 11000

$$$$
