AV-unprocessed.smi:637|AV-procd|sdf|3141|dock1
  -GOLD-   22720 0 63D 1   1.00000     0.00000
 Structure written by MMmdl.
 38 40  0  0  0  0  0  0  0  0  1 V2000
  151.8620  145.2351  159.6163 C   0  0  0  0  0  0  0  0  0  0  0  0
  151.9435  143.8435  159.0876 C   0  0  0  0  0  0  0  0  0  0  0  0
  152.7041  142.8058  159.5692 C   0  0  0  0  0  0  0  0  0  0  0  0
  152.5523  141.5981  158.8248 C   0  0  0  0  0  0  0  0  0  0  0  0
  151.6699  141.7478  157.7815 C   0  0  0  0  0  0  0  0  0  0  0  0
  151.3652  140.6465  156.8823 C   0  0  0  0  0  0  0  0  0  0  0  0
  152.3856  139.6929  156.4814 C   0  0  0  0  0  0  0  0  0  0  0  0
  152.0528  138.6808  155.6516 C   0  0  0  0  0  0  0  0  0  0  0  0
  150.6925  138.5177  155.1430 C   0  0  0  0  0  0  0  0  0  0  0  0
  150.3591  137.6052  154.3871 O   0  0  0  0  0  0  0  0  0  0  0  0
  149.8229  139.4741  155.5829 N   0  0  0  0  0  0  0  0  0  0  0  0
  148.4123  139.4692  155.1776 C   0  0  0  0  0  0  0  0  0  0  0  0
  148.1212  140.4715  154.0395 C   0  0  2  0  0  0  0  0  0  0  0  0
  149.3333  141.0938  153.6588 O   0  0  0  0  0  0  0  0  0  0  0  0
  147.0840  141.4959  154.4740 C   0  0  0  0  0  0  0  0  0  0  0  0
  146.6247  141.5100  155.8086 C   0  0  0  0  0  0  0  0  0  0  0  0
  145.6730  142.4627  156.2221 C   0  0  0  0  0  0  0  0  0  0  0  0
  145.1777  143.4086  155.3043 C   0  0  0  0  0  0  0  0  0  0  0  0
  145.6347  143.4021  153.9725 C   0  0  0  0  0  0  0  0  0  0  0  0
  145.1611  144.3127  153.0895 F   0  0  0  0  0  0  0  0  0  0  0  0
  146.5860  142.4499  153.5587 C   0  0  0  0  0  0  0  0  0  0  0  0
  150.1577  140.5110  156.4349 N   0  0  0  0  0  0  0  0  0  0  0  0
  151.0071  143.3572  157.6955 S   0  0  0  0  0  0  0  0  0  0  0  0
  152.5589  145.3841  160.4414 H   0  0  0  0  0  0  0  0  0  0  0  0
  150.8576  145.4521  159.9800 H   0  0  0  0  0  0  0  0  0  0  0  0
  152.1039  145.9590  158.8379 H   0  0  0  0  0  0  0  0  0  0  0  0
  153.3614  142.8715  160.4238 H   0  0  0  0  0  0  0  0  0  0  0  0
  153.0899  140.6982  159.0875 H   0  0  0  0  0  0  0  0  0  0  0  0
  153.3988  139.7901  156.8413 H   0  0  0  0  0  0  0  0  0  0  0  0
  152.8116  137.9718  155.3543 H   0  0  0  0  0  0  0  0  0  0  0  0
  148.1576  138.4600  154.8476 H   0  0  0  0  0  0  0  0  0  0  0  0
  147.7567  139.6598  156.0300 H   0  0  0  0  0  0  0  0  0  0  0  0
  147.7351  139.9466  153.1647 H   0  0  0  0  0  0  0  0  0  0  0  0
  149.5348  140.8383  152.7716 H   0  0  0  0  0  0  0  0  0  0  0  0
  147.0027  140.7917  156.5214 H   0  0  0  0  0  0  0  0  0  0  0  0
  145.3239  142.4686  157.2442 H   0  0  0  0  0  0  0  0  0  0  0  0
  144.4493  144.1401  155.6220 H   0  0  0  0  0  0  0  0  0  0  0  0
  146.9348  142.4562  152.5363 H   0  0  0  0  0  0  0  0  0  0  0  0
  1  2  1  0  0  0  0
  1 24  1  0  0  0  0
  1 25  1  0  0  0  0
  1 26  1  0  0  0  0
  2 23  1  0  0  0  0
  2  3  2  0  0  0  0
  3  4  1  0  0  0  0
  3 27  1  0  0  0  0
  4  5  2  0  0  0  0
  4 28  1  0  0  0  0
  5  6  1  0  0  0  0
  5 23  1  0  0  0  0
  6 22  2  0  0  0  0
  6  7  1  0  0  0  0
  7  8  2  0  0  0  0
  7 29  1  0  0  0  0
  8  9  1  0  0  0  0
  8 30  1  0  0  0  0
  9 10  2  0  0  0  0
  9 11  1  0  0  0  0
 11 12  1  0  0  0  0
 11 22  1  0  0  0  0
 12 13  1  0  0  0  0
 12 31  1  0  0  0  0
 12 32  1  0  0  0  0
 13 14  1  0  0  0  0
 13 15  1  0  0  0  0
 13 33  1  0  0  0  0
 14 34  1  0  0  0  0
 15 21  1  0  0  0  0
 15 16  2  0  0  0  0
 16 17  1  0  0  0  0
 16 35  1  0  0  0  0
 17 18  2  0  0  0  0
 17 36  1  0  0  0  0
 18 19  1  0  0  0  0
 18 37  1  0  0  0  0
 19 20  1  0  0  0  0
 19 21  2  0  0  0  0
 21 38  1  0  0  0  0
M  END
> <s_m_source_file>
AV-unprocessed.smi

> <i_m_source_file_index>
637

> <i_lp_mmshare_version>
43012

> <i_f3d_flags>
0

> <s_epik_input>
W0NIM11jMVtjSF1bY0hdYyhzMSktYzJbY0hdW2NIXWMoPU8pbihuMilbQ0gyXVtDQEhdKFtPSF0pYzNbY0hdW2NIXVtjSF1jKEYpW2NIXTM=

> <s_epik_cmdline>
J2VwaWtfcHl0aG9uJywgJy1waCcsICc3LjAnLCAnLXRuJywgJzgnLCAnLW1hJywgJzIwMCcsICctbWV0YWxfYmluZGluZycsICctaW1hZScsICc8aW5maWxlLm1hZT4nLCAnLW9tYWUnLCAnPG91dGZpbGUubWFlPic=

> <r_lp_tautomer_probability>
1

> <r_epik_Ionization_Penalty>
2.26963e-07

> <r_epik_Ionization_Penalty_Charging>
5.89185e-08

> <r_epik_Ionization_Penalty_Neutral>
1.68044e-07

> <r_epik_State_Penalty>
-0

> <r_epik_Charging_Adjusted_Penalty>
5.89185e-08

> <i_epik_Tot_Q>
0

> <i_epik_Tot_abs_Q>
0

> <r_epik_Metal_State_Penalty>
-0

> <b_epik_Metal_Only>
0

> <s_lp_Force_Field>
OPLS_2005

> <r_lp_Energy>
28.2523

> <b_lp_Chiralities_Consistent>
1

> <s_lp_Variant>
AV-unprocessed.smi:637-1

> <Gold.Version>
5.8.1

> <Gold.Id.Protein>
6NUR|6NUR_protein|mol2

> <Gold.PLP.Fitness>
49.0661

> <Gold.PLP.PLP>
-49.2502

> <Gold.PLP.part.hbond>
-3.0000

> <Gold.PLP.part.metal>
0.0000

> <Gold.PLP.part.buried>
-5.4145

> <Gold.PLP.part.nonpolar>
-41.5661

> <Gold.PLP.part.repulsive>
0.2573

> <Gold.PLP.ligand.clash>
0.0000

> <Gold.PLP.ligand.torsion>
1.6137

> <Gold.PLP.Chemscore.Hbond>
1.0000

> <Gold.PLP.Chemscore.CHOScore>
0.0000

> <Gold.PLP.Chemscore.Metal>
0.0000

> <Gold.Chemscore.Hbonds>
donor molecule, donor type, donor heavy atom, donor atom, acceptor molecule, acceptor atom, score
      L1  H    14    34       P1  7957  1.00

> <Gold.PLP.Chemscore.Internal.Correction>
0.0433

> <Gold.Rescore>
     Score         DG    S(hbond)    S(metal)    S(lipo)     H(rot)  DE(clash)    DE(int)     intcor
     14.35     -18.42       0.99        0.00     122.19       1.82       1.39       2.68       ----

> <Gold.Chemscore.Fitness>
14.3526

> <Gold.Chemscore.DG>
-18.4233

> <Gold.Chemscore.ZeroCoef>
-5.4800

> <Gold.Chemscore.Hbond>
0.9915

> <Gold.Chemscore.Metal>
0.0000

> <Gold.Chemscore.Lipo>
122.1944

> <Gold.Chemscore.Internal_Hbond>
0.0000

> <Gold.Chemscore.DEClash>
1.3925

> <Gold.Chemscore.DEInternal>
2.6782

> <Gold.Chemscore.Rot>
1.8222

> <Gold.Chemscore.Internal.Correction>
   9.000000E+99

> <Gold.Chemscore.Hbonds>
donor molecule, donor type, donor heavy atom, donor atom, acceptor molecule, acceptor atom, score
      L1  H    14    34       P1  7957  1.00

> <Gold.Chemscore.Hbond.Weighted>
-3.3115

> <Gold.Chemscore.Metal.Weighted>
-0.0000

> <Gold.Chemscore.Lipo.Weighted>
-14.2967

> <Gold.Chemscore.Internal_Hbond.Weighted>
0.0000

> <Gold.Chemscore.DEClash.Weighted>
1.3925

> <Gold.Chemscore.DEInternal.Weighted>
2.6782

> <Gold.Chemscore.Rot.Weighted>
4.6649

> <Gold.Chemscore.Internal.Correction.Weighted>
   9.000000E+99

> <Gold.Protein.RotatedTorsions>
[ 6907 6896 6895 6894 ] final -163.58 input  -60.11 | X-H torsion
[ 7974 7965 7964 7962 ] final  174.61 input  175.53 | X-H torsion
[ 8008 7997 7996 7995 ] final -161.09 input   59.86 | X-H torsion
[ 10167 10162 10161 10158 ] final   26.88 input  -65.29 | X-H torsion
[ 10718 10713 10712 10709 ] final  -92.95 input   66.30 | X-H torsion
[ 10763 10752 10751 10750 ] final -102.06 input  -60.55 | X-H torsion
[ 11005 11000 10999 10996 ] final  101.10 input  -57.11 | X-H torsion

> <Gold.Protein.ActiveResidues>
 VAL166  LYS551  ARG553  GLY616  TRP617  ASP618  TYR619  PRO620  LYS621  CYS622 
 ASP623  PHE694  ASN695  SER759  ASP760  ASP761  ALA762  ILE779  LEU786  VAL792 
 PHE793  MET794  SER795  GLU796  ALA797  LYS798  CYS799  TRP800  GLU811  SER814 

> <Gold.Protein.RotatedAtoms>
  151.3982  133.3766  159.2728 H   0  0  0  0  0  0  0  0  0  0  0  0  # atno 6907 bound_to 6896
  150.9453  134.8860  159.7648 H   0  0  0  0  0  0  0  0  0  0  0  0  # atno 6908 bound_to 6896
  152.5089  134.3935  159.9444 H   0  0  0  0  0  0  0  0  0  0  0  0  # atno 6909 bound_to 6896
  144.7218  139.9823  143.6439 H   0  0  0  0  0  0  0  0  0  0  0  0  # atno 7974 bound_to 7965
  155.7871  140.0873  157.2028 H   0  0  0  0  0  0  0  0  0  0  0  0  # atno 8008 bound_to 7997
  154.3987  140.1497  156.3178 H   0  0  0  0  0  0  0  0  0  0  0  0  # atno 8009 bound_to 7997
  155.8595  140.3431  155.5750 H   0  0  0  0  0  0  0  0  0  0  0  0  # atno 8010 bound_to 7997
  140.4985  144.0353  150.6323 H   0  0  0  0  0  0  0  0  0  0  0  0  # atno 10167 bound_to 10162
  156.0008  130.5007  150.5703 H   0  0  0  0  0  0  0  0  0  0  0  0  # atno 10718 bound_to 10713
  154.7705  135.4875  153.9639 H   0  0  0  0  0  0  0  0  0  0  0  0  # atno 10763 bound_to 10752
  153.1361  135.6763  153.9107 H   0  0  0  0  0  0  0  0  0  0  0  0  # atno 10764 bound_to 10752
  153.8796  135.3134  155.3423 H   0  0  0  0  0  0  0  0  0  0  0  0  # atno 10765 bound_to 10752
  139.8772  134.9169  156.4856 H   0  0  0  0  0  0  0  0  0  0  0  0  # atno 11005 bound_to 11000
  146.0478  139.3482  143.0658 LP  0  0  0  0  0  0  0  0  0  0  0  0  # atno 17320 bound_to 7965
  145.8254  140.9658  143.0877 LP  0  0  0  0  0  0  0  0  0  0  0  0  # atno 17321 bound_to 7965
  140.3642  143.2891  152.0350 LP  0  0  0  0  0  0  0  0  0  0  0  0  # atno 17342 bound_to 10162
  139.4867  144.6280  151.7127 LP  0  0  0  0  0  0  0  0  0  0  0  0  # atno 17343 bound_to 10162
  157.3599  131.0748  151.1645 LP  0  0  0  0  0  0  0  0  0  0  0  0  # atno 17370 bound_to 10713
  157.2433  130.6579  149.5899 LP  0  0  0  0  0  0  0  0  0  0  0  0  # atno 17371 bound_to 10713
  140.8696  133.7998  155.9350 LP  0  0  0  0  0  0  0  0  0  0  0  0  # atno 17394 bound_to 11000
  140.8967  134.2429  157.5065 LP  0  0  0  0  0  0  0  0  0  0  0  0  # atno 17395 bound_to 11000

$$$$
