AV-unprocessed.smi:1124|AV-procd|sdf|4833|dock2
  -GOLD-   22720 3393D 1   1.00000     0.00000
 Structure written by MMmdl.
 52 53  0  0  0  0  0  0  0  0  2 V2000
  146.6593  133.0840  151.9802 C   0  0  0  0  0  0  0  0  0  0  0  0
  147.0328  134.1682  152.9159 N   0  3  0  0  0  0  0  0  0  0  0  0
  147.8726  133.6737  154.0292 C   0  0  0  0  0  0  0  0  0  0  0  0
  145.8670  134.9685  153.3781 C   0  0  0  0  0  0  0  0  0  0  0  0
  144.9793  135.4817  152.2108 C   0  0  0  0  0  0  0  0  0  0  0  0
  145.8645  135.8592  151.0039 C   0  0  0  0  0  0  0  0  0  0  0  0
  143.9677  134.3972  151.7784 C   0  0  0  0  0  0  0  0  0  0  0  0
  144.2157  136.7635  152.6437 C   0  0  0  0  0  0  0  0  0  0  0  0
  145.0871  137.8454  153.0989 N   0  0  0  0  0  0  0  0  0  0  0  0
  145.2949  138.1982  154.3779 C   0  0  0  0  0  0  0  0  0  0  0  0
  144.7612  137.6337  155.3333 O   0  0  0  0  0  0  0  0  0  0  0  0
  146.2591  139.3384  154.5770 C   0  0  0  0  0  0  0  0  0  0  0  0
  146.7747  140.0139  153.4462 C   0  0  0  0  0  0  0  0  0  0  0  0
  147.6363  141.1104  153.6235 C   0  0  0  0  0  0  0  0  0  0  0  0
  147.9497  141.5032  154.9355 C   0  0  0  0  0  0  0  0  0  0  0  0
  147.4670  140.8761  156.0266 N   0  0  0  0  0  0  0  0  0  0  0  0
  146.6378  139.8144  155.8680 C   0  0  0  0  0  0  0  0  0  0  0  0
  146.2014  139.1764  157.0467 N   0  0  0  0  0  0  0  0  0  0  0  0
  145.1945  139.8625  157.8500 C   0  0  0  0  0  0  0  0  0  0  0  0
  144.6699  138.9186  158.9455 C   0  0  0  0  0  0  0  0  0  0  0  0
  145.7614  138.4432  159.7289 O   0  0  0  0  0  0  0  0  0  0  0  0
  146.7028  137.7110  158.9488 C   0  0  0  0  0  0  0  0  0  0  0  0
  147.2823  138.6181  157.8500 C   0  0  0  0  0  0  0  0  0  0  0  0
  146.0429  132.3334  152.4766 H   0  0  0  0  0  0  0  0  0  0  0  0
  147.5495  132.5905  151.5888 H   0  0  0  0  0  0  0  0  0  0  0  0
  146.0998  133.4794  151.1320 H   0  0  0  0  0  0  0  0  0  0  0  0
  147.3193  132.9727  154.6555 H   0  0  0  0  0  0  0  0  0  0  0  0
  148.2089  134.5016  154.6544 H   0  0  0  0  0  0  0  0  0  0  0  0
  148.7590  133.1659  153.6474 H   0  0  0  0  0  0  0  0  0  0  0  0
  145.2737  134.3691  154.0698 H   0  0  0  0  0  0  0  0  0  0  0  0
  146.2110  135.8218  153.9655 H   0  0  0  0  0  0  0  0  0  0  0  0
  145.2688  136.2742  150.1900 H   0  0  0  0  0  0  0  0  0  0  0  0
  146.3963  134.9969  150.6007 H   0  0  0  0  0  0  0  0  0  0  0  0
  146.6102  136.6069  151.2769 H   0  0  0  0  0  0  0  0  0  0  0  0
  143.2884  134.7742  151.0130 H   0  0  0  0  0  0  0  0  0  0  0  0
  143.3601  134.0530  152.6162 H   0  0  0  0  0  0  0  0  0  0  0  0
  144.4679  133.5235  151.3603 H   0  0  0  0  0  0  0  0  0  0  0  0
  143.5677  137.1105  151.8367 H   0  0  0  0  0  0  0  0  0  0  0  0
  143.5469  136.5299  153.4728 H   0  0  0  0  0  0  0  0  0  0  0  0
  145.5841  138.3574  152.3841 H   0  0  0  0  0  0  0  0  0  0  0  0
  146.5081  139.7071  152.4449 H   0  0  0  0  0  0  0  0  0  0  0  0
  148.0413  141.6421  152.7751 H   0  0  0  0  0  0  0  0  0  0  0  0
  148.6052  142.3427  155.1147 H   0  0  0  0  0  0  0  0  0  0  0  0
  145.6298  140.7516  158.3086 H   0  0  0  0  0  0  0  0  0  0  0  0
  144.3724  140.1919  157.2135 H   0  0  0  0  0  0  0  0  0  0  0  0
  143.9695  139.4461  159.5932 H   0  0  0  0  0  0  0  0  0  0  0  0
  144.1292  138.0774  158.5083 H   0  0  0  0  0  0  0  0  0  0  0  0
  147.5003  137.3512  159.5989 H   0  0  0  0  0  0  0  0  0  0  0  0
  146.2249  136.8316  158.5134 H   0  0  0  0  0  0  0  0  0  0  0  0
  147.9750  138.0509  157.2280 H   0  0  0  0  0  0  0  0  0  0  0  0
  147.8515  139.4331  158.2989 H   0  0  0  0  0  0  0  0  0  0  0  0
  147.6143  134.8058  152.3911 H   0  0  0  0  0  0  0  0  0  0  0  0
  1  2  1  0  0  0  0
  1 24  1  0  0  0  0
  1 25  1  0  0  0  0
  1 26  1  0  0  0  0
  2  3  1  0  0  0  0
  2  4  1  0  0  0  0
  2 52  1  0  0  0  0
  3 27  1  0  0  0  0
  3 28  1  0  0  0  0
  3 29  1  0  0  0  0
  4  5  1  0  0  0  0
  4 30  1  0  0  0  0
  4 31  1  0  0  0  0
  5  6  1  0  0  0  0
  5  7  1  0  0  0  0
  5  8  1  0  0  0  0
  6 32  1  0  0  0  0
  6 33  1  0  0  0  0
  6 34  1  0  0  0  0
  7 35  1  0  0  0  0
  7 36  1  0  0  0  0
  7 37  1  0  0  0  0
  8  9  1  0  0  0  0
  8 38  1  0  0  0  0
  8 39  1  0  0  0  0
  9 10  1  0  0  0  0
  9 40  1  0  0  0  0
 10 11  2  0  0  0  0
 10 12  1  0  0  0  0
 12 17  1  0  0  0  0
 12 13  2  0  0  0  0
 13 14  1  0  0  0  0
 13 41  1  0  0  0  0
 14 15  2  0  0  0  0
 14 42  1  0  0  0  0
 15 16  1  0  0  0  0
 15 43  1  0  0  0  0
 16 17  2  0  0  0  0
 17 18  1  0  0  0  0
 18 23  1  0  0  0  0
 18 19  1  0  0  0  0
 19 20  1  0  0  0  0
 19 44  1  0  0  0  0
 19 45  1  0  0  0  0
 20 21  1  0  0  0  0
 20 46  1  0  0  0  0
 20 47  1  0  0  0  0
 21 22  1  0  0  0  0
 22 23  1  0  0  0  0
 22 48  1  0  0  0  0
 22 49  1  0  0  0  0
 23 50  1  0  0  0  0
 23 51  1  0  0  0  0
M  CHG  1   2   1
M  END
> <s_m_source_file>
AV-unprocessed.smi

> <i_m_source_file_index>
1124

> <i_lp_mmshare_version>
43012

> <i_f3d_flags>
0

> <s_epik_input>
W0NIM11OKFtDSDNdKVtDSDJdQyhbQ0gzXSkoW0NIM10pW0NIMl1bTkhdQyg9TyljMVtjSF1bY0hdW2NIXW5jMU4yW0NIMl1bQ0gyXU9bQ0gyXVtDSDJdMg==

> <s_epik_cmdline>
J2VwaWtfcHl0aG9uJywgJy1waCcsICc3LjAnLCAnLXRuJywgJzgnLCAnLW1hJywgJzIwMCcsICctbWV0YWxfYmluZGluZycsICctaW1hZScsICc8aW5maWxlLm1hZT4nLCAnLW9tYWUnLCAnPG91dGZpbGUubWFlPic=

> <r_lp_tautomer_probability>
1

> <r_epik_Ionization_Penalty>
0.000493047

> <r_epik_Ionization_Penalty_Charging>
0.000482013

> <r_epik_Ionization_Penalty_Neutral>
1.10333e-05

> <r_epik_State_Penalty>
0.000299147

> <r_epik_Charging_Adjusted_Penalty>
0.000781161

> <i_epik_Tot_Q>
1

> <i_epik_Tot_abs_Q>
1

> <r_epik_Metal_State_Penalty>
-0

> <b_epik_Metal_Only>
0

> <s_lp_Force_Field>
OPLS_2005

> <r_lp_Energy>
38.5131

> <b_lp_Chiralities_Consistent>
1

> <s_lp_Variant>
AV-unprocessed.smi:1124-1

> <Gold.Version>
5.8.1

> <Gold.Id.Protein>
6NUR|6NUR_protein|mol2

> <Gold.PLP.Fitness>
37.3238

> <Gold.PLP.PLP>
-26.3662

> <Gold.PLP.part.hbond>
-2.8507

> <Gold.PLP.part.metal>
0.0000

> <Gold.PLP.part.buried>
-4.0213

> <Gold.PLP.part.nonpolar>
-20.9624

> <Gold.PLP.part.repulsive>
0.0838

> <Gold.PLP.ligand.clash>
0.0000

> <Gold.PLP.ligand.torsion>
0.6943

> <Gold.PLP.Chemscore.Hbond>
2.8640

> <Gold.PLP.Chemscore.CHOScore>
0.9971

> <Gold.PLP.Chemscore.Metal>
0.0000

> <Gold.Chemscore.Hbonds>
donor molecule, donor type, donor heavy atom, donor atom, acceptor molecule, acceptor atom, score
      L1  H     2    52       P1  7948  2.00
      P1  H  6934  6947       L1    21  0.35
      L1  C    15    43       P1  8028  1.00

> <Gold.PLP.Chemscore.Internal.Correction>
0.7630

> <Gold.Rescore>
     Score         DG    S(hbond)    S(metal)    S(lipo)     H(rot)  DE(clash)    DE(int)     intcor
     10.53     -12.84       1.49        0.00      58.41       1.73       0.02       2.28       ----

> <Gold.Chemscore.Fitness>
10.5340

> <Gold.Chemscore.DG>
-12.8364

> <Gold.Chemscore.ZeroCoef>
-5.4800

> <Gold.Chemscore.Hbond>
1.4859

> <Gold.Chemscore.Metal>
0.0000

> <Gold.Chemscore.Lipo>
58.4127

> <Gold.Chemscore.Internal_Hbond>
0.0000

> <Gold.Chemscore.DEClash>
0.0195

> <Gold.Chemscore.DEInternal>
2.2828

> <Gold.Chemscore.Rot>
1.7347

> <Gold.Chemscore.Internal.Correction>
   9.000000E+99

> <Gold.Chemscore.Hbonds>
donor molecule, donor type, donor heavy atom, donor atom, acceptor molecule, acceptor atom, score
      L1  H     2    52       P1  7948  0.88
      P1  H  6934  6947       L1    21  0.02

> <Gold.Chemscore.Hbond.Weighted>
-4.9629

> <Gold.Chemscore.Metal.Weighted>
-0.0000

> <Gold.Chemscore.Lipo.Weighted>
-6.8343

> <Gold.Chemscore.Internal_Hbond.Weighted>
0.0000

> <Gold.Chemscore.DEClash.Weighted>
0.0195

> <Gold.Chemscore.DEInternal.Weighted>
2.2828

> <Gold.Chemscore.Rot.Weighted>
4.4408

> <Gold.Chemscore.Internal.Correction.Weighted>
   9.000000E+99

> <Gold.Protein.RotatedTorsions>
[ 6907 6896 6895 6894 ] final  173.68 input  -60.11 | X-H torsion
[ 7974 7965 7964 7962 ] final -165.73 input  175.53 | X-H torsion
[ 8008 7997 7996 7995 ] final    2.44 input   59.86 | X-H torsion
[ 10167 10162 10161 10158 ] final  -76.62 input  -65.29 | X-H torsion
[ 10718 10713 10712 10709 ] final  -10.16 input   66.30 | X-H torsion
[ 10763 10752 10751 10750 ] final -143.56 input  -60.55 | X-H torsion
[ 11005 11000 10999 10996 ] final   46.99 input  -57.11 | X-H torsion

> <Gold.Protein.ActiveResidues>
 VAL166  LYS551  ARG553  GLY616  TRP617  ASP618  TYR619  PRO620  LYS621  CYS622 
 ASP623  PHE694  ASN695  SER759  ASP760  ASP761  ALA762  ILE779  LEU786  VAL792 
 PHE793  MET794  SER795  GLU796  ALA797  LYS798  CYS799  TRP800  GLU811  SER814 

> <Gold.Protein.RotatedAtoms>
  151.7645  133.3336  159.3426 H   0  0  0  0  0  0  0  0  0  0  0  0  # atno 6907 bound_to 6896
  150.7485  134.6075  159.6078 H   0  0  0  0  0  0  0  0  0  0  0  0  # atno 6908 bound_to 6896
  152.3383  134.7170  160.0322 H   0  0  0  0  0  0  0  0  0  0  0  0  # atno 6909 bound_to 6896
  144.7262  140.2771  143.6242 H   0  0  0  0  0  0  0  0  0  0  0  0  # atno 7974 bound_to 7965
  154.6916  140.2654  155.6807 H   0  0  0  0  0  0  0  0  0  0  0  0  # atno 8008 bound_to 7997
  156.2734  140.2790  156.1419 H   0  0  0  0  0  0  0  0  0  0  0  0  # atno 8009 bound_to 7997
  155.0889  140.0373  157.2652 H   0  0  0  0  0  0  0  0  0  0  0  0  # atno 8010 bound_to 7997
  140.4841  143.2395  151.8012 H   0  0  0  0  0  0  0  0  0  0  0  0  # atno 10167 bound_to 10162
  156.6775  130.5027  149.5981 H   0  0  0  0  0  0  0  0  0  0  0  0  # atno 10718 bound_to 10713
  154.8465  135.3464  154.6207 H   0  0  0  0  0  0  0  0  0  0  0  0  # atno 10763 bound_to 10752
  153.6816  135.6980  153.5121 H   0  0  0  0  0  0  0  0  0  0  0  0  # atno 10764 bound_to 10752
  153.2664  135.4306  155.0901 H   0  0  0  0  0  0  0  0  0  0  0  0  # atno 10765 bound_to 10752
  140.1319  134.4695  155.8515 H   0  0  0  0  0  0  0  0  0  0  0  0  # atno 11005 bound_to 11000
  145.7986  139.1955  143.2061 LP  0  0  0  0  0  0  0  0  0  0  0  0  # atno 17320 bound_to 7965
  146.0695  140.7884  142.9695 LP  0  0  0  0  0  0  0  0  0  0  0  0  # atno 17321 bound_to 7965
  139.4838  144.4735  151.9396 LP  0  0  0  0  0  0  0  0  0  0  0  0  # atno 17342 bound_to 10162
  140.3821  144.2723  150.5907 LP  0  0  0  0  0  0  0  0  0  0  0  0  # atno 17343 bound_to 10162
  156.1892  130.6549  151.1042 LP  0  0  0  0  0  0  0  0  0  0  0  0  # atno 17370 bound_to 10713
  157.7055  131.0758  150.6680 LP  0  0  0  0  0  0  0  0  0  0  0  0  # atno 17371 bound_to 10713
  141.2171  133.6799  156.7085 LP  0  0  0  0  0  0  0  0  0  0  0  0  # atno 17394 bound_to 11000
  140.2831  134.8300  157.3951 LP  0  0  0  0  0  0  0  0  0  0  0  0  # atno 17395 bound_to 11000

$$$$
