AV-unprocessed.smi:3118|AV-procd|sdf|11887|dock2
  -GOLD-   2272017273D 1   1.00000     0.00000
 Structure written by MMmdl.
 33 34  0  0  0  0  0  0  0  0  2 V2000
  148.6500  140.9695  157.0536 C   0  0  0  0  0  0  0  0  0  0  0  0
  149.7394  141.4528  156.0774 C   0  0  1  0  0  0  0  0  0  0  0  0
  149.1877  141.8132  154.6836 C   0  0  0  0  0  0  0  0  0  0  0  0
  148.1885  140.8552  154.1992 N   0  0  0  0  0  0  0  0  0  0  0  0
  148.3536  139.5060  154.0189 C   0  0  0  0  0  0  0  0  0  0  0  0
  147.1564  139.0240  153.5558 C   0  0  0  0  0  0  0  0  0  0  0  0
  146.3135  140.0994  153.4679 N   0  3  0  0  0  0  0  0  0  0  0  0
  146.9436  141.2128  153.8565 C   0  0  0  0  0  0  0  0  0  0  0  0
  150.4342  142.6120  156.6311 N   0  0  0  0  0  0  0  0  0  0  0  0
  151.4307  142.5654  157.5291 C   0  0  0  0  0  0  0  0  0  0  0  0
  151.8835  141.5118  157.9785 O   0  0  0  0  0  0  0  0  0  0  0  0
  151.9927  143.9198  157.9812 C   0  0  0  0  0  0  0  0  0  0  0  0
  152.9802  143.8556  159.1609 C   0  0  0  0  0  0  0  0  0  0  0  0
  152.2520  145.0515  159.7814 C   0  0  0  0  0  0  0  0  0  0  0  0
  151.0482  144.7191  158.8951 C   0  0  0  0  0  0  0  0  0  0  0  0
  148.1680  140.0592  156.6970 H   0  0  0  0  0  0  0  0  0  0  0  0
  147.8768  141.7263  157.1895 H   0  0  0  0  0  0  0  0  0  0  0  0
  149.0688  140.7439  158.0348 H   0  0  0  0  0  0  0  0  0  0  0  0
  150.4620  140.6446  155.9481 H   0  0  0  0  0  0  0  0  0  0  0  0
  148.7342  142.8058  154.6941 H   0  0  0  0  0  0  0  0  0  0  0  0
  149.9943  141.8413  153.9493 H   0  0  0  0  0  0  0  0  0  0  0  0
  149.2858  139.0023  154.2312 H   0  0  0  0  0  0  0  0  0  0  0  0
  146.8497  138.0231  153.2890 H   0  0  0  0  0  0  0  0  0  0  0  0
  146.5261  142.2034  153.8924 H   0  0  0  0  0  0  0  0  0  0  0  0
  150.1284  143.5213  156.3157 H   0  0  0  0  0  0  0  0  0  0  0  0
  152.3784  144.5277  157.1603 H   0  0  0  0  0  0  0  0  0  0  0  0
  152.9010  142.9541  159.7709 H   0  0  0  0  0  0  0  0  0  0  0  0
  154.0165  144.0613  158.8914 H   0  0  0  0  0  0  0  0  0  0  0  0
  152.0656  144.9655  160.8523 H   0  0  0  0  0  0  0  0  0  0  0  0
  152.7142  146.0061  159.5256 H   0  0  0  0  0  0  0  0  0  0  0  0
  150.5929  145.5894  158.4212 H   0  0  0  0  0  0  0  0  0  0  0  0
  150.3016  144.1107  159.4092 H   0  0  0  0  0  0  0  0  0  0  0  0
  145.3515  140.0604  153.1546 H   0  0  0  0  0  0  0  0  0  0  0  0
  1  2  1  0  0  0  0
  1 16  1  0  0  0  0
  1 17  1  0  0  0  0
  1 18  1  0  0  0  0
  2  3  1  0  0  0  0
  2  9  1  0  0  0  0
  2 19  1  0  0  0  0
  3  4  1  0  0  0  0
  3 20  1  0  0  0  0
  3 21  1  0  0  0  0
  4  8  1  0  0  0  0
  4  5  1  0  0  0  0
  5  6  2  0  0  0  0
  5 22  1  0  0  0  0
  6  7  1  0  0  0  0
  6 23  1  0  0  0  0
  7  8  2  0  0  0  0
  7 33  1  0  0  0  0
  8 24  1  0  0  0  0
  9 10  1  0  0  0  0
  9 25  1  0  0  0  0
 10 11  2  0  0  0  0
 10 12  1  0  0  0  0
 12 15  1  0  0  0  0
 12 13  1  0  0  0  0
 12 26  1  0  0  0  0
 13 14  1  0  0  0  0
 13 27  1  0  0  0  0
 13 28  1  0  0  0  0
 14 15  1  0  0  0  0
 14 29  1  0  0  0  0
 14 30  1  0  0  0  0
 15 31  1  0  0  0  0
 15 32  1  0  0  0  0
M  CHG  1   7   1
M  END
> <s_m_source_file>
AV-unprocessed.smi

> <i_m_source_file_index>
3118

> <i_lp_mmshare_version>
43012

> <i_f3d_flags>
0

> <s_epik_input>
W0NIMl0xW0NIMl1bQ0gyXVtDSF0xQyg9TylbTkhdW0NASF0oW0NIM10pW0NIMl1uMltjSF1bY0hdbltjSF0y

> <s_epik_cmdline>
J2VwaWtfcHl0aG9uJywgJy1waCcsICc3LjAnLCAnLXRuJywgJzgnLCAnLW1hJywgJzIwMCcsICctbWV0YWxfYmluZGluZycsICctaW1hZScsICc8aW5maWxlLm1hZT4nLCAnLW9tYWUnLCAnPG91dGZpbGUubWFlPic=

> <r_lp_tautomer_probability>
1

> <r_epik_Ionization_Penalty>
0.244425

> <r_epik_Ionization_Penalty_Charging>
0

> <r_epik_Ionization_Penalty_Neutral>
0.244425

> <r_epik_State_Penalty>
0.23553

> <r_epik_Charging_Adjusted_Penalty>
0.23553

> <i_epik_Tot_Q>
1

> <i_epik_Tot_abs_Q>
1

> <r_epik_Metal_State_Penalty>
0.5288

> <b_epik_Metal_Only>
0

> <s_lp_Force_Field>
OPLS_2005

> <r_lp_Energy>
14.8718

> <b_lp_Chiralities_Consistent>
1

> <s_lp_Variant>
AV-unprocessed.smi:3118-2

> <Gold.Version>
5.8.1

> <Gold.Id.Protein>
6NUR|6NUR_protein|mol2

> <Gold.PLP.Fitness>
43.6293

> <Gold.PLP.PLP>
-35.5642

> <Gold.PLP.part.hbond>
-2.0000

> <Gold.PLP.part.metal>
0.0000

> <Gold.PLP.part.buried>
-2.9058

> <Gold.PLP.part.nonpolar>
-30.9284

> <Gold.PLP.part.repulsive>
0.0696

> <Gold.PLP.ligand.clash>
0.0000

> <Gold.PLP.ligand.torsion>
0.6753

> <Gold.PLP.Chemscore.Hbond>
2.9920

> <Gold.PLP.Chemscore.CHOScore>
0.0000

> <Gold.PLP.Chemscore.Metal>
0.0000

> <Gold.Chemscore.Hbonds>
donor molecule, donor type, donor heavy atom, donor atom, acceptor molecule, acceptor atom, score
      L1  H     7    33       P1 10175  2.00
      L1  H     9    25       P1  8028  1.00

> <Gold.PLP.Chemscore.Internal.Correction>
0.4397

> <Gold.Rescore>
     Score         DG    S(hbond)    S(metal)    S(lipo)     H(rot)  DE(clash)    DE(int)     intcor
     15.82     -16.59       1.97        0.00      79.44       1.86       0.02       0.75       ----

> <Gold.Chemscore.Fitness>
15.8235

> <Gold.Chemscore.DG>
-16.5893

> <Gold.Chemscore.ZeroCoef>
-5.4800

> <Gold.Chemscore.Hbond>
1.9661

> <Gold.Chemscore.Metal>
0.0000

> <Gold.Chemscore.Lipo>
79.4379

> <Gold.Chemscore.Internal_Hbond>
0.0000

> <Gold.Chemscore.DEClash>
0.0202

> <Gold.Chemscore.DEInternal>
0.7456

> <Gold.Chemscore.Rot>
1.8561

> <Gold.Chemscore.Internal.Correction>
   9.000000E+99

> <Gold.Chemscore.Hbonds>
donor molecule, donor type, donor heavy atom, donor atom, acceptor molecule, acceptor atom, score
      L1  H     7    33       P1 10175  1.00
      L1  H     9    25       P1  8028  0.98

> <Gold.Chemscore.Hbond.Weighted>
-6.5667

> <Gold.Chemscore.Metal.Weighted>
-0.0000

> <Gold.Chemscore.Lipo.Weighted>
-9.2942

> <Gold.Chemscore.Internal_Hbond.Weighted>
0.0000

> <Gold.Chemscore.DEClash.Weighted>
0.0202

> <Gold.Chemscore.DEInternal.Weighted>
0.7456

> <Gold.Chemscore.Rot.Weighted>
4.7516

> <Gold.Chemscore.Internal.Correction.Weighted>
   9.000000E+99

> <Gold.Protein.RotatedTorsions>
[ 6907 6896 6895 6894 ] final  -58.87 input  -60.11 | X-H torsion
[ 7974 7965 7964 7962 ] final   55.71 input  175.53 | X-H torsion
[ 8008 7997 7996 7995 ] final  -29.79 input   59.86 | X-H torsion
[ 10167 10162 10161 10158 ] final -142.99 input  -65.29 | X-H torsion
[ 10718 10713 10712 10709 ] final   20.96 input   66.30 | X-H torsion
[ 10763 10752 10751 10750 ] final   41.69 input  -60.55 | X-H torsion
[ 11005 11000 10999 10996 ] final  102.13 input  -57.11 | X-H torsion

> <Gold.Protein.ActiveResidues>
 VAL166  LYS551  ARG553  GLY616  TRP617  ASP618  TYR619  PRO620  LYS621  CYS622 
 ASP623  PHE694  ASN695  SER759  ASP760  ASP761  ALA762  ILE779  LEU786  VAL792 
 PHE793  MET794  SER795  GLU796  ALA797  LYS798  CYS799  TRP800  GLU811  SER814 

> <Gold.Protein.RotatedAtoms>
  150.7974  134.7043  159.6567 H   0  0  0  0  0  0  0  0  0  0  0  0  # atno 6907 bound_to 6896
  152.4087  134.6158  160.0047 H   0  0  0  0  0  0  0  0  0  0  0  0  # atno 6908 bound_to 6896
  151.6407  133.3289  159.3166 H   0  0  0  0  0  0  0  0  0  0  0  0  # atno 6909 bound_to 6896
  145.9475  139.3942  143.0326 H   0  0  0  0  0  0  0  0  0  0  0  0  # atno 7974 bound_to 7965
  154.4276  140.1809  156.1304 H   0  0  0  0  0  0  0  0  0  0  0  0  # atno 8008 bound_to 7997
  156.0072  140.3354  155.6879 H   0  0  0  0  0  0  0  0  0  0  0  0  # atno 8009 bound_to 7997
  155.6161  140.0655  157.2683 H   0  0  0  0  0  0  0  0  0  0  0  0  # atno 8010 bound_to 7997
  139.8036  143.7800  152.2659 H   0  0  0  0  0  0  0  0  0  0  0  0  # atno 10167 bound_to 10162
  157.1317  130.6594  149.5954 H   0  0  0  0  0  0  0  0  0  0  0  0  # atno 10718 bound_to 10713
  152.9901  135.6154  154.2829 H   0  0  0  0  0  0  0  0  0  0  0  0  # atno 10763 bound_to 10752
  154.2557  135.2784  155.2800 H   0  0  0  0  0  0  0  0  0  0  0  0  # atno 10764 bound_to 10752
  154.5249  135.5804  153.6768 H   0  0  0  0  0  0  0  0  0  0  0  0  # atno 10765 bound_to 10752
  139.8776  134.9211  156.5011 H   0  0  0  0  0  0  0  0  0  0  0  0  # atno 11005 bound_to 11000
  145.8216  140.9676  143.0895 LP  0  0  0  0  0  0  0  0  0  0  0  0  # atno 17320 bound_to 7965
  144.6790  140.0049  143.7484 LP  0  0  0  0  0  0  0  0  0  0  0  0  # atno 17321 bound_to 7965
  139.7927  144.7404  150.9932 LP  0  0  0  0  0  0  0  0  0  0  0  0  # atno 17342 bound_to 10162
  140.7820  143.4425  151.0530 LP  0  0  0  0  0  0  0  0  0  0  0  0  # atno 17343 bound_to 10162
  155.9806  130.4808  150.6784 LP  0  0  0  0  0  0  0  0  0  0  0  0  # atno 17370 bound_to 10713
  157.4386  131.0858  151.0966 LP  0  0  0  0  0  0  0  0  0  0  0  0  # atno 17371 bound_to 10713
  140.8589  133.8075  155.9244 LP  0  0  0  0  0  0  0  0  0  0  0  0  # atno 17394 bound_to 11000
  140.9070  134.2308  157.5008 LP  0  0  0  0  0  0  0  0  0  0  0  0  # atno 17395 bound_to 11000

$$$$
