AV-unprocessed.smi:2804|AV-procd|sdf|10812|dock9
  -GOLD-   2272015253D 1   1.00000     0.00000
 Structure written by MMmdl.
 34 35  0  0  0  0  0  0  0  0  2 V2000
  155.2403  140.1398  162.5533 C   0  0  0  0  0  0  0  0  0  0  0  0
  154.2087  140.1733  161.4211 C   0  0  0  0  0  0  0  0  0  0  0  0
  154.5123  141.2636  160.3822 C   0  0  0  0  0  0  0  0  0  0  0  0
  153.3938  141.4434  159.4598 N   0  0  0  0  0  0  0  0  0  0  0  0
  152.8492  140.4966  158.6598 C   0  0  0  0  0  0  0  0  0  0  0  0
  153.2042  139.3192  158.5983 O   0  0  0  0  0  0  0  0  0  0  0  0
  151.8292  141.0636  157.9652 N   0  0  0  0  0  0  0  0  0  0  0  0
  150.9386  140.3924  157.0043 C   0  0  0  0  0  0  0  0  0  0  0  0
  151.6511  139.8843  155.7168 C   0  0  1  0  0  0  0  0  0  0  0  0
  152.7808  139.3325  156.0911 O   0  5  0  0  0  0  0  0  0  0  0  0
  150.8143  138.7959  155.0005 C   0  0  0  0  0  0  0  0  0  0  0  0
  149.7511  139.3425  154.4075 F   0  0  0  0  0  0  0  0  0  0  0  0
  151.5349  138.1395  154.0881 F   0  0  0  0  0  0  0  0  0  0  0  0
  150.3694  137.9130  155.8960 F   0  0  0  0  0  0  0  0  0  0  0  0
  151.6908  142.4014  158.3791 C   0  0  0  0  0  0  0  0  0  0  0  0
  150.7745  143.3983  157.9988 C   0  0  0  0  0  0  0  0  0  0  0  0
  150.9030  144.6662  158.6122 C   0  0  0  0  0  0  0  0  0  0  0  0
  151.9180  144.9085  159.5734 C   0  0  0  0  0  0  0  0  0  0  0  0
  152.8255  143.8877  159.9408 C   0  0  0  0  0  0  0  0  0  0  0  0
  152.6771  142.6384  159.3132 C   0  0  0  0  0  0  0  0  0  0  0  0
  154.9989  139.3605  163.2761 H   0  0  0  0  0  0  0  0  0  0  0  0
  155.2701  141.0905  163.0863 H   0  0  0  0  0  0  0  0  0  0  0  0
  156.2401  139.9387  162.1683 H   0  0  0  0  0  0  0  0  0  0  0  0
  154.1803  139.1983  160.9329 H   0  0  0  0  0  0  0  0  0  0  0  0
  153.2168  140.3352  161.8447 H   0  0  0  0  0  0  0  0  0  0  0  0
  154.7281  142.2101  160.8788 H   0  0  0  0  0  0  0  0  0  0  0  0
  155.4123  141.0059  159.8217 H   0  0  0  0  0  0  0  0  0  0  0  0
  150.4125  139.5727  157.4981 H   0  0  0  0  0  0  0  0  0  0  0  0
  150.1586  141.1032  156.7308 H   0  0  0  0  0  0  0  0  0  0  0  0
  151.6593  140.7332  155.0313 H   0  0  0  0  0  0  0  0  0  0  0  0
  150.0042  143.2081  157.2662 H   0  0  0  0  0  0  0  0  0  0  0  0
  150.2198  145.4588  158.3452 H   0  0  0  0  0  0  0  0  0  0  0  0
  151.9983  145.8835  160.0310 H   0  0  0  0  0  0  0  0  0  0  0  0
  153.5971  144.0647  160.6751 H   0  0  0  0  0  0  0  0  0  0  0  0
  1  2  1  0  0  0  0
  1 21  1  0  0  0  0
  1 22  1  0  0  0  0
  1 23  1  0  0  0  0
  2  3  1  0  0  0  0
  2 24  1  0  0  0  0
  2 25  1  0  0  0  0
  3  4  1  0  0  0  0
  3 26  1  0  0  0  0
  3 27  1  0  0  0  0
  4 20  1  0  0  0  0
  4  5  1  0  0  0  0
  5  6  2  0  0  0  0
  5  7  1  0  0  0  0
  7  8  1  0  0  0  0
  7 15  1  0  0  0  0
  8  9  1  0  0  0  0
  8 28  1  0  0  0  0
  8 29  1  0  0  0  0
  9 10  1  0  0  0  0
  9 11  1  0  0  0  0
  9 30  1  0  0  0  0
 11 12  1  0  0  0  0
 11 13  1  0  0  0  0
 11 14  1  0  0  0  0
 15 20  2  0  0  0  0
 15 16  1  0  0  0  0
 16 17  2  0  0  0  0
 16 31  1  0  0  0  0
 17 18  1  0  0  0  0
 17 32  1  0  0  0  0
 18 19  2  0  0  0  0
 18 33  1  0  0  0  0
 19 20  1  0  0  0  0
 19 34  1  0  0  0  0
M  CHG  1  10  -1
M  END
> <s_m_source_file>
AV-unprocessed.smi

> <i_m_source_file_index>
2804

> <i_lp_mmshare_version>
43012

> <i_f3d_flags>
0

> <s_epik_input>
W2NIXTFbY0hdW2NIXVtjSF1jKGMxMiluKFtDSDJdW0NIMl1bQ0gzXSljKD1PKW4yW0NIMl1bQ0BIXShbT0hdKUMoRikoRilG

> <s_epik_cmdline>
J2VwaWtfcHl0aG9uJywgJy1waCcsICc3LjAnLCAnLXRuJywgJzgnLCAnLW1hJywgJzIwMCcsICctbWV0YWxfYmluZGluZycsICctaW1hZScsICc8aW5maWxlLm1hZT4nLCAnLW9tYWUnLCAnPG91dGZpbGUubWFlPic=

> <r_epik_Ionization_Penalty>
2.32651

> <r_epik_Ionization_Penalty_Charging>
2.32651

> <r_epik_Ionization_Penalty_Neutral>
0

> <r_epik_State_Penalty>
2.47909

> <r_epik_Charging_Adjusted_Penalty>
4.8056

> <i_epik_Tot_Q>
-1

> <i_epik_Tot_abs_Q>
1

> <r_epik_Metal_State_Penalty>
2.47909

> <b_epik_Metal_Only>
0

> <s_lp_Force_Field>
OPLS_2005

> <r_lp_Energy>
44.9553

> <b_lp_Chiralities_Consistent>
1

> <s_lp_Variant>
AV-unprocessed.smi:2804-4

> <Gold.Version>
5.8.1

> <Gold.Id.Protein>
6NUR|6NUR_protein|mol2

> <Gold.PLP.Fitness>
52.2317

> <Gold.PLP.PLP>
-47.0618

> <Gold.PLP.part.hbond>
-1.4256

> <Gold.PLP.part.metal>
0.0000

> <Gold.PLP.part.buried>
-5.2410

> <Gold.PLP.part.nonpolar>
-40.6145

> <Gold.PLP.part.repulsive>
0.0000

> <Gold.PLP.ligand.clash>
0.0000

> <Gold.PLP.ligand.torsion>
0.4412

> <Gold.PLP.Chemscore.Hbond>
2.0000

> <Gold.PLP.Chemscore.CHOScore>
0.0000

> <Gold.PLP.Chemscore.Metal>
0.0000

> <Gold.Chemscore.Hbonds>
donor molecule, donor type, donor heavy atom, donor atom, acceptor molecule, acceptor atom, score
      P1  H  7997  8008       L1    10  2.00

> <Gold.PLP.Chemscore.Internal.Correction>
0.0524

> <Gold.Rescore>
     Score         DG    S(hbond)    S(metal)    S(lipo)     H(rot)  DE(clash)    DE(int)     intcor
     17.10     -18.00       1.00        0.00     116.04       1.72       0.11       0.79       ----

> <Gold.Chemscore.Fitness>
17.0968

> <Gold.Chemscore.DG>
-17.9961

> <Gold.Chemscore.ZeroCoef>
-5.4800

> <Gold.Chemscore.Hbond>
0.9995

> <Gold.Chemscore.Metal>
0.0000

> <Gold.Chemscore.Lipo>
116.0426

> <Gold.Chemscore.Internal_Hbond>
0.0000

> <Gold.Chemscore.DEClash>
0.1106

> <Gold.Chemscore.DEInternal>
0.7887

> <Gold.Chemscore.Rot>
1.7185

> <Gold.Chemscore.Internal.Correction>
   9.000000E+99

> <Gold.Chemscore.Hbonds>
donor molecule, donor type, donor heavy atom, donor atom, acceptor molecule, acceptor atom, score
      P1  H  7997  8008       L1    10  0.98

> <Gold.Chemscore.Hbond.Weighted>
-3.3383

> <Gold.Chemscore.Metal.Weighted>
-0.0000

> <Gold.Chemscore.Lipo.Weighted>
-13.5770

> <Gold.Chemscore.Internal_Hbond.Weighted>
0.0000

> <Gold.Chemscore.DEClash.Weighted>
0.1106

> <Gold.Chemscore.DEInternal.Weighted>
0.7887

> <Gold.Chemscore.Rot.Weighted>
4.3992

> <Gold.Chemscore.Internal.Correction.Weighted>
   9.000000E+99

> <Gold.Protein.RotatedTorsions>
[ 6907 6896 6895 6894 ] final  156.63 input  -60.11 | X-H torsion
[ 7974 7965 7964 7962 ] final  136.98 input  175.53 | X-H torsion
[ 8008 7997 7996 7995 ] final  -23.96 input   59.86 | X-H torsion
[ 10167 10162 10161 10158 ] final  -58.57 input  -65.29 | X-H torsion
[ 10718 10713 10712 10709 ] final  125.84 input   66.30 | X-H torsion
[ 10763 10752 10751 10750 ] final  119.37 input  -60.55 | X-H torsion
[ 11005 11000 10999 10996 ] final  -90.84 input  -57.11 | X-H torsion

> <Gold.Protein.ActiveResidues>
 VAL166  LYS551  ARG553  GLY616  TRP617  ASP618  TYR619  PRO620  LYS621  CYS622 
 ASP623  PHE694  ASN695  SER759  ASP760  ASP761  ALA762  ILE779  LEU786  VAL792 
 PHE793  MET794  SER795  GLU796  ALA797  LYS798  CYS799  TRP800  GLU811  SER814 

> <Gold.Protein.RotatedAtoms>
  152.0268  133.3921  159.4280 H   0  0  0  0  0  0  0  0  0  0  0  0  # atno 6907 bound_to 6896
  150.6885  134.3565  159.4941 H   0  0  0  0  0  0  0  0  0  0  0  0  # atno 6908 bound_to 6896
  152.1346  134.9109  160.0607 H   0  0  0  0  0  0  0  0  0  0  0  0  # atno 6909 bound_to 6896
  144.9512  139.4817  143.5525 H   0  0  0  0  0  0  0  0  0  0  0  0  # atno 7974 bound_to 7965
  154.4555  140.1966  156.0391 H   0  0  0  0  0  0  0  0  0  0  0  0  # atno 8008 bound_to 7997
  156.0738  140.3281  155.7580 H   0  0  0  0  0  0  0  0  0  0  0  0  # atno 8009 bound_to 7997
  155.5221  140.0570  157.2895 H   0  0  0  0  0  0  0  0  0  0  0  0  # atno 8010 bound_to 7997
  140.6189  143.2412  151.5530 H   0  0  0  0  0  0  0  0  0  0  0  0  # atno 10167 bound_to 10162
  157.5469  131.1095  150.8766 H   0  0  0  0  0  0  0  0  0  0  0  0  # atno 10718 bound_to 10713
  153.5819  135.3482  155.2878 H   0  0  0  0  0  0  0  0  0  0  0  0  # atno 10763 bound_to 10752
  154.8666  135.4184  154.2611 H   0  0  0  0  0  0  0  0  0  0  0  0  # atno 10764 bound_to 10752
  153.3399  135.7049  153.6946 H   0  0  0  0  0  0  0  0  0  0  0  0  # atno 10765 bound_to 10752
  141.1557  133.7717  156.9794 H   0  0  0  0  0  0  0  0  0  0  0  0  # atno 11005 bound_to 11000
  146.3321  139.8598  142.8858 LP  0  0  0  0  0  0  0  0  0  0  0  0  # atno 17320 bound_to 7965
  145.2841  141.0147  143.3700 LP  0  0  0  0  0  0  0  0  0  0  0  0  # atno 17321 bound_to 7965
  139.5421  144.2618  152.1372 LP  0  0  0  0  0  0  0  0  0  0  0  0  # atno 17342 bound_to 10162
  140.1834  144.4823  150.6516 LP  0  0  0  0  0  0  0  0  0  0  0  0  # atno 17343 bound_to 10162
  156.9302  130.5347  149.5279 LP  0  0  0  0  0  0  0  0  0  0  0  0  # atno 17370 bound_to 10713
  156.0543  130.5607  150.9058 LP  0  0  0  0  0  0  0  0  0  0  0  0  # atno 17371 bound_to 10713
  140.1076  134.9497  157.2017 LP  0  0  0  0  0  0  0  0  0  0  0  0  # atno 17394 bound_to 11000
  140.3236  134.2888  155.7241 LP  0  0  0  0  0  0  0  0  0  0  0  0  # atno 17395 bound_to 11000

$$$$
