AV-unprocessed.smi:1886|AV-procd|sdf|7654|dock10
  -GOLD-   22720 9393D 1   1.00000     0.00000
 Structure written by MMmdl.
 39 40  0  0  0  0  0  0  0  0  1 V2000
  151.0992  140.9655  157.8223 O   0  0  0  0  0  0  0  0  0  0  0  0
  150.5630  142.0133  157.4621 C   0  0  0  0  0  0  0  0  0  0  0  0
  150.1964  142.2771  156.2005 N   0  0  0  0  0  0  0  0  0  0  0  0
  150.3430  141.3588  155.0763 C   0  0  0  0  0  0  0  0  0  0  0  0
  149.0045  140.8301  154.5800 C   0  0  0  0  0  0  0  0  0  0  0  0
  147.9565  141.7335  154.3029 C   0  0  0  0  0  0  0  0  0  0  0  0
  146.7259  141.2356  153.8372 C   0  0  0  0  0  0  0  0  0  0  0  0
  146.5906  139.8456  153.6646 C   0  0  0  0  0  0  0  0  0  0  0  0
  147.5825  138.9690  153.9244 N   0  0  0  0  0  0  0  0  0  0  0  0
  148.7694  139.4461  154.3720 C   0  0  0  0  0  0  0  0  0  0  0  0
  149.7828  138.5107  154.6335 N   0  0  0  0  0  0  0  0  0  0  0  0
  149.3177  137.1301  154.6258 C   0  0  0  0  0  0  0  0  0  0  0  0
  150.4487  136.1977  155.0901 C   0  0  0  0  0  0  0  0  0  0  0  0
  151.5958  136.3899  154.2669 O   0  0  0  0  0  0  0  0  0  0  0  0
  152.0853  137.7268  154.3348 C   0  0  0  0  0  0  0  0  0  0  0  0
  150.9966  138.6997  153.8500 C   0  0  0  0  0  0  0  0  0  0  0  0
  150.2778  143.0313  158.2848 N   0  0  0  0  0  0  0  0  0  0  0  0
  150.5755  143.0659  159.7134 C   0  0  0  0  0  0  0  0  0  0  0  0
  151.9683  143.6485  160.0098 C   0  0  0  0  0  0  0  0  0  0  0  0
  151.9722  144.9440  159.6992 F   0  0  0  0  0  0  0  0  0  0  0  0
  152.2582  143.5198  161.3050 F   0  0  0  0  0  0  0  0  0  0  0  0
  152.9065  143.0391  159.2858 F   0  0  0  0  0  0  0  0  0  0  0  0
  149.7677  143.1698  156.0046 H   0  0  0  0  0  0  0  0  0  0  0  0
  150.8609  141.8806  154.2709 H   0  0  0  0  0  0  0  0  0  0  0  0
  150.9688  140.5050  155.3419 H   0  0  0  0  0  0  0  0  0  0  0  0
  148.0907  142.7958  154.4445 H   0  0  0  0  0  0  0  0  0  0  0  0
  145.9061  141.9026  153.6160 H   0  0  0  0  0  0  0  0  0  0  0  0
  145.6614  139.4265  153.3076 H   0  0  0  0  0  0  0  0  0  0  0  0
  148.4528  137.0256  155.2820 H   0  0  0  0  0  0  0  0  0  0  0  0
  148.9968  136.8545  153.6202 H   0  0  0  0  0  0  0  0  0  0  0  0
  150.7030  136.3913  156.1325 H   0  0  0  0  0  0  0  0  0  0  0  0
  150.1314  135.1570  155.0259 H   0  0  0  0  0  0  0  0  0  0  0  0
  152.3903  137.9621  155.3560 H   0  0  0  0  0  0  0  0  0  0  0  0
  152.9729  137.8131  153.7081 H   0  0  0  0  0  0  0  0  0  0  0  0
  150.7871  138.5239  152.7938 H   0  0  0  0  0  0  0  0  0  0  0  0
  151.3422  139.7298  153.9456 H   0  0  0  0  0  0  0  0  0  0  0  0
  149.8301  143.8478  157.8951 H   0  0  0  0  0  0  0  0  0  0  0  0
  149.8068  143.6250  160.2498 H   0  0  0  0  0  0  0  0  0  0  0  0
  150.5234  142.0418  160.0838 H   0  0  0  0  0  0  0  0  0  0  0  0
  1  2  2  0  0  0  0
  2  3  1  0  0  0  0
  2 17  1  0  0  0  0
  3  4  1  0  0  0  0
  3 23  1  0  0  0  0
  4  5  1  0  0  0  0
  4 24  1  0  0  0  0
  4 25  1  0  0  0  0
  5 10  1  0  0  0  0
  5  6  2  0  0  0  0
  6  7  1  0  0  0  0
  6 26  1  0  0  0  0
  7  8  2  0  0  0  0
  7 27  1  0  0  0  0
  8  9  1  0  0  0  0
  8 28  1  0  0  0  0
  9 10  2  0  0  0  0
 10 11  1  0  0  0  0
 11 16  1  0  0  0  0
 11 12  1  0  0  0  0
 12 13  1  0  0  0  0
 12 29  1  0  0  0  0
 12 30  1  0  0  0  0
 13 14  1  0  0  0  0
 13 31  1  0  0  0  0
 13 32  1  0  0  0  0
 14 15  1  0  0  0  0
 15 16  1  0  0  0  0
 15 33  1  0  0  0  0
 15 34  1  0  0  0  0
 16 35  1  0  0  0  0
 16 36  1  0  0  0  0
 17 18  1  0  0  0  0
 17 37  1  0  0  0  0
 18 19  1  0  0  0  0
 18 38  1  0  0  0  0
 18 39  1  0  0  0  0
 19 20  1  0  0  0  0
 19 21  1  0  0  0  0
 19 22  1  0  0  0  0
M  END
> <s_m_source_file>
AV-unprocessed.smi

> <i_m_source_file_index>
1886

> <i_lp_mmshare_version>
43012

> <i_f3d_flags>
0

> <s_epik_input>
RkMoRikoRilbQ0gyXVtOSF1DKD1PKVtOSF1bQ0gyXWMxW2NIXVtjSF1bY0hdbmMxTjJbQ0gyXVtDSDJdT1tDSDJdW0NIMl0y

> <s_epik_cmdline>
J2VwaWtfcHl0aG9uJywgJy1waCcsICc3LjAnLCAnLXRuJywgJzgnLCAnLW1hJywgJzIwMCcsICctbWV0YWxfYmluZGluZycsICctaW1hZScsICc8aW5maWxlLm1hZT4nLCAnLW9tYWUnLCAnPG91dGZpbGUubWFlPic=

> <r_lp_tautomer_probability>
1

> <r_epik_Ionization_Penalty>
0.00288023

> <r_epik_Ionization_Penalty_Charging>
0

> <r_epik_Ionization_Penalty_Neutral>
0.00288023

> <r_epik_State_Penalty>
0.00199456

> <r_epik_Charging_Adjusted_Penalty>
0.00199456

> <i_epik_Tot_Q>
0

> <i_epik_Tot_abs_Q>
0

> <r_epik_Metal_State_Penalty>
-0

> <b_epik_Metal_Only>
0

> <s_lp_Force_Field>
OPLS_2005

> <r_lp_Energy>
16.0982

> <b_lp_Chiralities_Consistent>
1

> <s_lp_Variant>
AV-unprocessed.smi:1886-1

> <Gold.Version>
5.8.1

> <Gold.Id.Protein>
6NUR|6NUR_protein|mol2

> <Gold.PLP.Fitness>
50.8176

> <Gold.PLP.PLP>
-40.2153

> <Gold.PLP.part.hbond>
-3.0000

> <Gold.PLP.part.metal>
0.0000

> <Gold.PLP.part.buried>
-1.1095

> <Gold.PLP.part.nonpolar>
-36.0301

> <Gold.PLP.part.repulsive>
0.6282

> <Gold.PLP.ligand.clash>
0.0000

> <Gold.PLP.ligand.torsion>
0.4900

> <Gold.PLP.Chemscore.Hbond>
2.8112

> <Gold.PLP.Chemscore.CHOScore>
1.0000

> <Gold.PLP.Chemscore.Metal>
0.0000

> <Gold.Chemscore.Hbonds>
donor molecule, donor type, donor heavy atom, donor atom, acceptor molecule, acceptor atom, score
      L1  H     3    23       P1  8028  1.00
      P1  H 10752 10765       L1    14  0.94
      L1  C     8    28       P1 10175  1.00

> <Gold.PLP.Chemscore.Internal.Correction>
0.1487

> <Gold.Rescore>
     Score         DG    S(hbond)    S(metal)    S(lipo)     H(rot)  DE(clash)    DE(int)     intcor
     12.28     -15.91       1.86        0.00      81.74       2.09       3.09       0.54       ----

> <Gold.Chemscore.Fitness>
12.2819

> <Gold.Chemscore.DG>
-15.9113

> <Gold.Chemscore.ZeroCoef>
-5.4800

> <Gold.Chemscore.Hbond>
1.8616

> <Gold.Chemscore.Metal>
0.0000

> <Gold.Chemscore.Lipo>
81.7432

> <Gold.Chemscore.Internal_Hbond>
0.0000

> <Gold.Chemscore.DEClash>
3.0892

> <Gold.Chemscore.DEInternal>
0.5402

> <Gold.Chemscore.Rot>
2.0899

> <Gold.Chemscore.Internal.Correction>
   9.000000E+99

> <Gold.Chemscore.Hbonds>
donor molecule, donor type, donor heavy atom, donor atom, acceptor molecule, acceptor atom, score
      L1  H     3    23       P1  8028  1.00
      P1  H 10752 10765       L1    14  0.22

> <Gold.Chemscore.Hbond.Weighted>
-6.2176

> <Gold.Chemscore.Metal.Weighted>
-0.0000

> <Gold.Chemscore.Lipo.Weighted>
-9.5640

> <Gold.Chemscore.Internal_Hbond.Weighted>
0.0000

> <Gold.Chemscore.DEClash.Weighted>
3.0892

> <Gold.Chemscore.DEInternal.Weighted>
0.5402

> <Gold.Chemscore.Rot.Weighted>
5.3502

> <Gold.Chemscore.Internal.Correction.Weighted>
   9.000000E+99

> <Gold.Protein.RotatedTorsions>
[ 6907 6896 6895 6894 ] final -117.67 input  -60.11 | X-H torsion
[ 7974 7965 7964 7962 ] final -179.82 input  175.53 | X-H torsion
[ 8008 7997 7996 7995 ] final  -27.75 input   59.86 | X-H torsion
[ 10167 10162 10161 10158 ] final -103.49 input  -65.29 | X-H torsion
[ 10718 10713 10712 10709 ] final  176.77 input   66.30 | X-H torsion
[ 10763 10752 10751 10750 ] final -174.53 input  -60.55 | X-H torsion
[ 11005 11000 10999 10996 ] final  135.38 input  -57.11 | X-H torsion

> <Gold.Protein.ActiveResidues>
 VAL166  LYS551  ARG553  GLY616  TRP617  ASP618  TYR619  PRO620  LYS621  CYS622 
 ASP623  PHE694  ASN695  SER759  ASP760  ASP761  ALA762  ILE779  LEU786  VAL792 
 PHE793  MET794  SER795  GLU796  ALA797  LYS798  CYS799  TRP800  GLU811  SER814 

> <Gold.Protein.RotatedAtoms>
  150.8156  133.8344  159.3161 H   0  0  0  0  0  0  0  0  0  0  0  0  # atno 6907 bound_to 6896
  151.6117  135.1038  160.0092 H   0  0  0  0  0  0  0  0  0  0  0  0  # atno 6908 bound_to 6896
  152.4247  133.7135  159.6549 H   0  0  0  0  0  0  0  0  0  0  0  0  # atno 6909 bound_to 6896
  144.7139  140.0659  143.6431 H   0  0  0  0  0  0  0  0  0  0  0  0  # atno 7974 bound_to 7965
  154.4363  140.1864  156.0981 H   0  0  0  0  0  0  0  0  0  0  0  0  # atno 8008 bound_to 7997
  156.0313  140.3330  155.7117 H   0  0  0  0  0  0  0  0  0  0  0  0  # atno 8009 bound_to 7997
  155.5834  140.0624  157.2768 H   0  0  0  0  0  0  0  0  0  0  0  0  # atno 8010 bound_to 7997
  140.2195  143.3687  152.0982 H   0  0  0  0  0  0  0  0  0  0  0  0  # atno 10167 bound_to 10162
  156.9152  130.9922  151.3014 H   0  0  0  0  0  0  0  0  0  0  0  0  # atno 10718 bound_to 10713
  154.5951  135.2849  155.0594 H   0  0  0  0  0  0  0  0  0  0  0  0  # atno 10763 bound_to 10752
  154.1880  135.6445  153.5056 H   0  0  0  0  0  0  0  0  0  0  0  0  # atno 10764 bound_to 10752
  153.0136  135.5439  154.6651 H   0  0  0  0  0  0  0  0  0  0  0  0  # atno 10765 bound_to 10752
  139.9976  134.9491  156.9999 H   0  0  0  0  0  0  0  0  0  0  0  0  # atno 11005 bound_to 11000
  145.9824  139.2951  143.1034 LP  0  0  0  0  0  0  0  0  0  0  0  0  # atno 17320 bound_to 7965
  145.8995  140.9252  143.0510 LP  0  0  0  0  0  0  0  0  0  0  0  0  # atno 17321 bound_to 7965
  139.5149  144.6955  151.5641 LP  0  0  0  0  0  0  0  0  0  0  0  0  # atno 17342 bound_to 10162
  140.6265  143.9158  150.6569 LP  0  0  0  0  0  0  0  0  0  0  0  0  # atno 17343 bound_to 10162
  157.5943  130.8466  149.8705 LP  0  0  0  0  0  0  0  0  0  0  0  0  # atno 17370 bound_to 10713
  156.0517  130.3716  150.1186 LP  0  0  0  0  0  0  0  0  0  0  0  0  # atno 17371 bound_to 10713
  140.4789  134.1310  155.7214 LP  0  0  0  0  0  0  0  0  0  0  0  0  # atno 17394 bound_to 11000
  141.1616  133.8781  157.1831 LP  0  0  0  0  0  0  0  0  0  0  0  0  # atno 17395 bound_to 11000

$$$$
