AV-unprocessed.smi:2044|AV-procd|sdf|8303|dock1
  -GOLD-   2272010563D 1   1.00000     0.00000
 Structure written by MMmdl.
 38 39  0  0  0  0  0  0  0  0  2 V2000
  152.9346  143.5107  161.5909 C   0  0  0  0  0  0  0  0  0  0  0  0
  152.3087  143.0497  160.3192 C   0  0  0  0  0  0  0  0  0  0  0  0
  151.9715  143.6953  159.1636 C   0  0  0  0  0  0  0  0  0  0  0  0
  151.4112  142.6608  158.3650 C   0  0  0  0  0  0  0  0  0  0  0  0
  150.9387  142.7958  157.1163 N   0  5  0  0  0  0  0  0  0  0  0  0
  150.5698  141.7055  156.4050 C   0  0  0  0  0  0  0  0  0  0  0  0
  150.9193  140.5417  156.6162 O   0  0  0  0  0  0  0  0  0  0  0  0
  149.7390  141.9802  155.3891 N   0  0  0  0  0  0  0  0  0  0  0  0
  149.1566  141.0045  154.4704 C   0  0  0  0  0  0  0  0  0  0  0  0
  147.7788  141.4419  153.8918 C   0  0  1  0  0  0  0  0  0  0  0  0
  146.9490  140.1744  153.5631 C   0  0  0  0  0  0  0  0  0  0  0  0
  147.0491  142.3919  154.7643 N   0  0  0  0  0  0  0  0  0  0  0  0
  146.6065  141.7723  156.0189 C   0  0  0  0  0  0  0  0  0  0  0  0
  145.8234  142.7411  156.9215 C   0  0  0  0  0  0  0  0  0  0  0  0
  144.7048  143.2568  156.2137 O   0  0  0  0  0  0  0  0  0  0  0  0
  145.0926  143.9343  155.0266 C   0  0  0  0  0  0  0  0  0  0  0  0
  145.8725  142.9755  154.1097 C   0  0  0  0  0  0  0  0  0  0  0  0
  151.4223  141.4882  158.9763 N   0  0  0  0  0  0  0  0  0  0  0  0
  151.9909  141.7302  160.2325 O   0  0  0  0  0  0  0  0  0  0  0  0
  153.9802  143.7738  161.4317 H   0  0  0  0  0  0  0  0  0  0  0  0
  152.8939  142.7325  162.3535 H   0  0  0  0  0  0  0  0  0  0  0  0
  152.4196  144.3897  161.9784 H   0  0  0  0  0  0  0  0  0  0  0  0
  152.1006  144.7405  158.9268 H   0  0  0  0  0  0  0  0  0  0  0  0
  149.4816  142.9463  155.2506 H   0  0  0  0  0  0  0  0  0  0  0  0
  149.8652  140.8425  153.6576 H   0  0  0  0  0  0  0  0  0  0  0  0
  149.0930  140.0636  155.0151 H   0  0  0  0  0  0  0  0  0  0  0  0
  147.9747  141.9455  152.9441 H   0  0  0  0  0  0  0  0  0  0  0  0
  147.5057  139.4570  152.9613 H   0  0  0  0  0  0  0  0  0  0  0  0
  146.0598  140.4018  152.9773 H   0  0  0  0  0  0  0  0  0  0  0  0
  146.6341  139.6630  154.4731 H   0  0  0  0  0  0  0  0  0  0  0  0
  145.9874  140.9004  155.8021 H   0  0  0  0  0  0  0  0  0  0  0  0
  147.4594  141.4193  156.5955 H   0  0  0  0  0  0  0  0  0  0  0  0
  145.4716  142.2248  157.8146 H   0  0  0  0  0  0  0  0  0  0  0  0
  146.4627  143.5596  157.2561 H   0  0  0  0  0  0  0  0  0  0  0  0
  144.2005  144.3010  154.5189 H   0  0  0  0  0  0  0  0  0  0  0  0
  145.6989  144.8061  155.2777 H   0  0  0  0  0  0  0  0  0  0  0  0
  146.1644  143.5493  153.2326 H   0  0  0  0  0  0  0  0  0  0  0  0
  145.2083  142.1815  153.7648 H   0  0  0  0  0  0  0  0  0  0  0  0
  1  2  1  0  0  0  0
  1 20  1  0  0  0  0
  1 21  1  0  0  0  0
  1 22  1  0  0  0  0
  2 19  1  0  0  0  0
  2  3  2  0  0  0  0
  3  4  1  0  0  0  0
  3 23  1  0  0  0  0
  4  5  1  0  0  0  0
  4 18  2  0  0  0  0
  5  6  1  0  0  0  0
  6  7  2  0  0  0  0
  6  8  1  0  0  0  0
  8  9  1  0  0  0  0
  8 24  1  0  0  0  0
  9 10  1  0  0  0  0
  9 25  1  0  0  0  0
  9 26  1  0  0  0  0
 10 11  1  0  0  0  0
 10 12  1  0  0  0  0
 10 27  1  0  0  0  0
 11 28  1  0  0  0  0
 11 29  1  0  0  0  0
 11 30  1  0  0  0  0
 12 17  1  0  0  0  0
 12 13  1  0  0  0  0
 13 14  1  0  0  0  0
 13 31  1  0  0  0  0
 13 32  1  0  0  0  0
 14 15  1  0  0  0  0
 14 33  1  0  0  0  0
 14 34  1  0  0  0  0
 15 16  1  0  0  0  0
 16 17  1  0  0  0  0
 16 35  1  0  0  0  0
 16 36  1  0  0  0  0
 17 37  1  0  0  0  0
 17 38  1  0  0  0  0
 18 19  1  0  0  0  0
M  CHG  1   5  -1
M  END
> <s_m_source_file>
AV-unprocessed.smi

> <i_m_source_file_index>
2044

> <i_lp_mmshare_version>
43012

> <i_f3d_flags>
0

> <s_epik_input>
W0NIM11jMVtjSF1jKG5vMSlbTkhdQyg9TylbTkhdW0NIMl1bQ0BIXShbQ0gzXSlOMltDSDJdW0NIMl1PW0NIMl1bQ0gyXTI=

> <s_epik_cmdline>
J2VwaWtfcHl0aG9uJywgJy1waCcsICc3LjAnLCAnLXRuJywgJzgnLCAnLW1hJywgJzIwMCcsICctbWV0YWxfYmluZGluZycsICctaW1hZScsICc8aW5maWxlLm1hZT4nLCAnLW9tYWUnLCAnPG91dGZpbGUubWFlPic=

> <r_epik_Ionization_Penalty>
6.88367

> <r_epik_Ionization_Penalty_Charging>
6.57198

> <r_epik_Ionization_Penalty_Neutral>
0.311681

> <r_epik_State_Penalty>
6.77619

> <r_epik_Charging_Adjusted_Penalty>
13.3482

> <i_epik_Tot_Q>
-1

> <i_epik_Tot_abs_Q>
1

> <r_epik_Metal_State_Penalty>
2.70533

> <b_epik_Metal_Only>
1

> <s_lp_Force_Field>
OPLS_2005

> <r_lp_Energy>
21.654

> <b_lp_Chiralities_Consistent>
1

> <s_lp_Variant>
AV-unprocessed.smi:2044-6

> <Gold.Version>
5.8.1

> <Gold.Id.Protein>
6NUR|6NUR_protein|mol2

> <Gold.PLP.Fitness>
37.8546

> <Gold.PLP.PLP>
-36.1615

> <Gold.PLP.part.hbond>
-1.6696

> <Gold.PLP.part.metal>
0.0000

> <Gold.PLP.part.buried>
-7.0491

> <Gold.PLP.part.nonpolar>
-28.0376

> <Gold.PLP.part.repulsive>
0.7439

> <Gold.PLP.ligand.clash>
0.0000

> <Gold.PLP.ligand.torsion>
0.7416

> <Gold.PLP.Chemscore.Hbond>
1.0000

> <Gold.PLP.Chemscore.CHOScore>
0.0000

> <Gold.PLP.Chemscore.Metal>
0.0000

> <Gold.Chemscore.Hbonds>
donor molecule, donor type, donor heavy atom, donor atom, acceptor molecule, acceptor atom, score
      L1  H     8    24       P1  8028  1.00

> <Gold.PLP.Chemscore.Internal.Correction>
0.1764

> <Gold.Rescore>
     Score         DG    S(hbond)    S(metal)    S(lipo)     H(rot)  DE(clash)    DE(int)     intcor
     10.92     -13.45       1.00        0.00      73.55       1.55       0.14       2.39       ----

> <Gold.Chemscore.Fitness>
10.9222

> <Gold.Chemscore.DG>
-13.4543

> <Gold.Chemscore.ZeroCoef>
-5.4800

> <Gold.Chemscore.Hbond>
0.9968

> <Gold.Chemscore.Metal>
0.0000

> <Gold.Chemscore.Lipo>
73.5504

> <Gold.Chemscore.Internal_Hbond>
0.0000

> <Gold.Chemscore.DEClash>
0.1417

> <Gold.Chemscore.DEInternal>
2.3904

> <Gold.Chemscore.Rot>
1.5470

> <Gold.Chemscore.Internal.Correction>
   9.000000E+99

> <Gold.Chemscore.Hbonds>
donor molecule, donor type, donor heavy atom, donor atom, acceptor molecule, acceptor atom, score
      L1  H     8    24       P1  8028  0.99

> <Gold.Chemscore.Hbond.Weighted>
-3.3292

> <Gold.Chemscore.Metal.Weighted>
-0.0000

> <Gold.Chemscore.Lipo.Weighted>
-8.6054

> <Gold.Chemscore.Internal_Hbond.Weighted>
0.0000

> <Gold.Chemscore.DEClash.Weighted>
0.1417

> <Gold.Chemscore.DEInternal.Weighted>
2.3904

> <Gold.Chemscore.Rot.Weighted>
3.9603

> <Gold.Chemscore.Internal.Correction.Weighted>
   9.000000E+99

> <Gold.Protein.RotatedTorsions>
[ 6907 6896 6895 6894 ] final -154.88 input  -60.11 | X-H torsion
[ 7974 7965 7964 7962 ] final -114.98 input  175.53 | X-H torsion
[ 8008 7997 7996 7995 ] final   76.83 input   59.86 | X-H torsion
[ 10167 10162 10161 10158 ] final   22.68 input  -65.29 | X-H torsion
[ 10718 10713 10712 10709 ] final  171.26 input   66.30 | X-H torsion
[ 10763 10752 10751 10750 ] final   67.31 input  -60.55 | X-H torsion
[ 11005 11000 10999 10996 ] final -158.57 input  -57.11 | X-H torsion

> <Gold.Protein.ActiveResidues>
 VAL166  LYS551  ARG553  GLY616  TRP617  ASP618  TYR619  PRO620  LYS621  CYS622 
 ASP623  PHE694  ASN695  SER759  ASP760  ASP761  ALA762  ILE779  LEU786  VAL792 
 PHE793  MET794  SER795  GLU796  ALA797  LYS798  CYS799  TRP800  GLU811  SER814 

> <Gold.Protein.RotatedAtoms>
  151.2641  133.4287  159.2617 H   0  0  0  0  0  0  0  0  0  0  0  0  # atno 6907 bound_to 6896
  151.0504  134.9669  159.8219 H   0  0  0  0  0  0  0  0  0  0  0  0  # atno 6908 bound_to 6896
  152.5381  134.2595  159.8982 H   0  0  0  0  0  0  0  0  0  0  0  0  # atno 6909 bound_to 6896
  145.1138  140.8628  143.3854 H   0  0  0  0  0  0  0  0  0  0  0  0  # atno 7974 bound_to 7965
  155.8330  140.3465  155.5584 H   0  0  0  0  0  0  0  0  0  0  0  0  # atno 8008 bound_to 7997
  155.8222  140.0914  157.1862 H   0  0  0  0  0  0  0  0  0  0  0  0  # atno 8009 bound_to 7997
  154.4004  140.1428  156.3501 H   0  0  0  0  0  0  0  0  0  0  0  0  # atno 8010 bound_to 7997
  140.5329  143.9810  150.6475 H   0  0  0  0  0  0  0  0  0  0  0  0  # atno 10167 bound_to 10162
  156.9961  131.0162  151.2843 H   0  0  0  0  0  0  0  0  0  0  0  0  # atno 10718 bound_to 10713
  153.0180  135.5288  154.6960 H   0  0  0  0  0  0  0  0  0  0  0  0  # atno 10763 bound_to 10752
  154.6082  135.2875  155.0464 H   0  0  0  0  0  0  0  0  0  0  0  0  # atno 10764 bound_to 10752
  154.1495  135.6565  153.5013 H   0  0  0  0  0  0  0  0  0  0  0  0  # atno 10765 bound_to 10752
  140.6521  134.4439  157.5235 H   0  0  0  0  0  0  0  0  0  0  0  0  # atno 11005 bound_to 11000
  145.0817  139.2955  143.5780 LP  0  0  0  0  0  0  0  0  0  0  0  0  # atno 17320 bound_to 7965
  146.3525  140.0325  142.8649 LP  0  0  0  0  0  0  0  0  0  0  0  0  # atno 17321 bound_to 7965
  140.3190  143.3149  152.0803 LP  0  0  0  0  0  0  0  0  0  0  0  0  # atno 17342 bound_to 10162
  139.4960  144.6586  151.6515 LP  0  0  0  0  0  0  0  0  0  0  0  0  # atno 17343 bound_to 10162
  157.5424  130.8128  149.8044 LP  0  0  0  0  0  0  0  0  0  0  0  0  # atno 17370 bound_to 10713
  156.0188  130.3803  150.2025 LP  0  0  0  0  0  0  0  0  0  0  0  0  # atno 17371 bound_to 10713
  139.9042  134.8486  156.1772 LP  0  0  0  0  0  0  0  0  0  0  0  0  # atno 17394 bound_to 11000
  141.0529  133.6880  156.1805 LP  0  0  0  0  0  0  0  0  0  0  0  0  # atno 17395 bound_to 11000

$$$$
