AV-unprocessed.smi:933|AV-procd|sdf|4202|dock10
  -GOLD-   22720 2113D 1   1.00000     0.00000
 Structure written by MMmdl.
 42 43  0  0  0  0  0  0  0  0  1 V2000
  152.5667  138.9714  155.4953 C   0  0  0  0  0  0  0  0  0  0  0  0
  151.7402  138.2497  154.4258 C   0  0  0  0  0  0  0  0  0  0  0  0
  151.1133  136.9963  154.9374 C   0  0  0  0  0  0  0  0  0  0  0  0
  151.1999  135.8202  154.3101 N   0  0  0  0  0  0  0  0  0  0  0  0
  150.4923  134.8073  154.9646 C   0  0  0  0  0  0  0  0  0  0  0  0
  150.4751  133.4187  154.3944 C   0  0  0  0  0  0  0  0  0  0  0  0
  149.0561  132.8914  154.1229 C   0  0  0  0  0  0  0  0  0  0  0  0
  148.3841  133.6669  153.0807 N   0  0  0  0  0  0  0  0  0  0  0  0
  147.2943  133.3134  152.3791 C   0  0  0  0  0  0  0  0  0  0  0  0
  146.7330  132.2334  152.5523 O   0  0  0  0  0  0  0  0  0  0  0  0
  146.8920  134.2274  151.4793 N   0  0  0  0  0  0  0  0  0  0  0  0
  145.7392  134.1037  150.5868 C   0  0  1  0  0  0  0  0  0  0  0  0
  145.7528  132.7233  149.8972 C   0  0  0  0  0  0  0  0  0  0  0  0
  144.4449  132.0237  150.2831 C   0  0  0  0  0  0  0  0  0  0  0  0
  143.9778  132.7277  151.5539 C   0  0  0  0  0  0  0  0  0  0  0  0
  144.3883  134.1847  151.3370 C   0  0  1  0  0  0  0  0  0  0  0  0
  144.3504  135.0354  152.6186 C   0  0  0  0  0  0  0  0  0  0  0  0
  149.8620  135.2377  156.1059 C   0  0  0  0  0  0  0  0  0  0  0  0
  150.1238  136.9359  156.3914 S   0  0  0  0  0  0  0  0  0  0  0  0
  153.0125  139.8811  155.0931 H   0  0  0  0  0  0  0  0  0  0  0  0
  153.3748  138.3374  155.8617 H   0  0  0  0  0  0  0  0  0  0  0  0
  151.9475  139.2514  156.3480 H   0  0  0  0  0  0  0  0  0  0  0  0
  150.9565  138.9097  154.0525 H   0  0  0  0  0  0  0  0  0  0  0  0
  152.3719  138.0007  153.5727 H   0  0  0  0  0  0  0  0  0  0  0  0
  151.0496  133.3909  153.4680 H   0  0  0  0  0  0  0  0  0  0  0  0
  150.9836  132.7348  155.0751 H   0  0  0  0  0  0  0  0  0  0  0  0
  149.1128  131.8465  153.8129 H   0  0  0  0  0  0  0  0  0  0  0  0
  148.4680  132.9229  155.0411 H   0  0  0  0  0  0  0  0  0  0  0  0
  148.8055  134.5549  152.8486 H   0  0  0  0  0  0  0  0  0  0  0  0
  147.4257  135.0813  151.4089 H   0  0  0  0  0  0  0  0  0  0  0  0
  145.7757  134.8856  149.8260 H   0  0  0  0  0  0  0  0  0  0  0  0
  145.8401  132.8175  148.8142 H   0  0  0  0  0  0  0  0  0  0  0  0
  146.6017  132.1240  150.2308 H   0  0  0  0  0  0  0  0  0  0  0  0
  143.7057  132.1708  149.4945 H   0  0  0  0  0  0  0  0  0  0  0  0
  144.5697  130.9496  150.4220 H   0  0  0  0  0  0  0  0  0  0  0  0
  142.9063  132.6143  151.7228 H   0  0  0  0  0  0  0  0  0  0  0  0
  144.4991  132.3141  152.4184 H   0  0  0  0  0  0  0  0  0  0  0  0
  143.6665  134.6162  150.6413 H   0  0  0  0  0  0  0  0  0  0  0  0
  145.0009  134.6301  153.3943 H   0  0  0  0  0  0  0  0  0  0  0  0
  143.3402  135.0738  153.0268 H   0  0  0  0  0  0  0  0  0  0  0  0
  144.6630  136.0602  152.4171 H   0  0  0  0  0  0  0  0  0  0  0  0
  149.2539  134.6628  156.7885 H   0  0  0  0  0  0  0  0  0  0  0  0
  1  2  1  0  0  0  0
  1 20  1  0  0  0  0
  1 21  1  0  0  0  0
  1 22  1  0  0  0  0
  2  3  1  0  0  0  0
  2 23  1  0  0  0  0
  2 24  1  0  0  0  0
  3 19  1  0  0  0  0
  3  4  2  0  0  0  0
  4  5  1  0  0  0  0
  5  6  1  0  0  0  0
  5 18  2  0  0  0  0
  6  7  1  0  0  0  0
  6 25  1  0  0  0  0
  6 26  1  0  0  0  0
  7  8  1  0  0  0  0
  7 27  1  0  0  0  0
  7 28  1  0  0  0  0
  8  9  1  0  0  0  0
  8 29  1  0  0  0  0
  9 10  2  0  0  0  0
  9 11  1  0  0  0  0
 11 12  1  0  0  0  0
 11 30  1  0  0  0  0
 12 16  1  0  0  0  0
 12 13  1  0  0  0  0
 12 31  1  0  0  0  0
 13 14  1  0  0  0  0
 13 32  1  0  0  0  0
 13 33  1  0  0  0  0
 14 15  1  0  0  0  0
 14 34  1  0  0  0  0
 14 35  1  0  0  0  0
 15 16  1  0  0  0  0
 15 36  1  0  0  0  0
 15 37  1  0  0  0  0
 16 17  1  0  0  0  0
 16 38  1  0  0  0  0
 17 39  1  0  0  0  0
 17 40  1  0  0  0  0
 17 41  1  0  0  0  0
 18 19  1  0  0  0  0
 18 42  1  0  0  0  0
M  END
> <s_m_source_file>
AV-unprocessed.smi

> <i_m_source_file_index>
933

> <i_lp_mmshare_version>
43012

> <i_f3d_flags>
0

> <s_epik_input>
W0NIM11bQ0gyXWMxbmMoW2NIXXMxKVtDSDJdW0NIMl1bTkhdQyg9TylbTkhdW0NAQEhdMltDSDJdW0NIMl1bQ0gyXVtDQEhdMltDSDNd

> <s_epik_cmdline>
J2VwaWtfcHl0aG9uJywgJy1waCcsICc3LjAnLCAnLXRuJywgJzgnLCAnLW1hJywgJzIwMCcsICctbWV0YWxfYmluZGluZycsICctaW1hZScsICc8aW5maWxlLm1hZT4nLCAnLW9tYWUnLCAnPG91dGZpbGUubWFlPic=

> <r_epik_Ionization_Penalty>
0.00203408

> <r_epik_Ionization_Penalty_Charging>
0

> <r_epik_Ionization_Penalty_Neutral>
0.00203408

> <r_epik_State_Penalty>
0.0013452

> <r_epik_Charging_Adjusted_Penalty>
0.0013452

> <i_epik_Tot_Q>
0

> <i_epik_Tot_abs_Q>
0

> <r_epik_Metal_State_Penalty>
-0

> <b_epik_Metal_Only>
0

> <s_lp_Force_Field>
OPLS_2005

> <r_lp_Energy>
20.9711

> <b_lp_Chiralities_Consistent>
1

> <s_lp_Variant>
AV-unprocessed.smi:933-2

> <Gold.Version>
5.8.1

> <Gold.Id.Protein>
6NUR|6NUR_protein|mol2

> <Gold.PLP.Fitness>
42.9737

> <Gold.PLP.PLP>
-34.5857

> <Gold.PLP.part.hbond>
-3.0000

> <Gold.PLP.part.metal>
0.0000

> <Gold.PLP.part.buried>
-4.7661

> <Gold.PLP.part.nonpolar>
-26.8397

> <Gold.PLP.part.repulsive>
1.0168

> <Gold.PLP.ligand.clash>
0.0000

> <Gold.PLP.ligand.torsion>
0.3147

> <Gold.PLP.Chemscore.Hbond>
3.0000

> <Gold.PLP.Chemscore.CHOScore>
0.0000

> <Gold.PLP.Chemscore.Metal>
0.0000

> <Gold.Chemscore.Hbonds>
donor molecule, donor type, donor heavy atom, donor atom, acceptor molecule, acceptor atom, score
      L1  H     8    29       P1  7948  0.60
      L1  H    11    30       P1  7948  1.00
      P1  H 10752 10765       L1     4  1.00

> <Gold.PLP.Chemscore.Internal.Correction>
0.0173

> <Gold.Rescore>
     Score         DG    S(hbond)    S(metal)    S(lipo)     H(rot)  DE(clash)    DE(int)     intcor
     15.99     -18.46       2.21        0.00      81.74       1.55       0.02       2.45       ----

> <Gold.Chemscore.Fitness>
15.9896

> <Gold.Chemscore.DG>
-18.4577

> <Gold.Chemscore.ZeroCoef>
-5.4800

> <Gold.Chemscore.Hbond>
2.2087

> <Gold.Chemscore.Metal>
0.0000

> <Gold.Chemscore.Lipo>
81.7434

> <Gold.Chemscore.Internal_Hbond>
0.0000

> <Gold.Chemscore.DEClash>
0.0174

> <Gold.Chemscore.DEInternal>
2.4507

> <Gold.Chemscore.Rot>
1.5482

> <Gold.Chemscore.Internal.Correction>
   9.000000E+99

> <Gold.Chemscore.Hbonds>
donor molecule, donor type, donor heavy atom, donor atom, acceptor molecule, acceptor atom, score
      L1  H     8    29       P1  7948  0.04
      L1  H    11    30       P1  7948  0.58
      P1  H 10752 10765       L1     4  0.24

> <Gold.Chemscore.Hbond.Weighted>
-7.3772

> <Gold.Chemscore.Metal.Weighted>
-0.0000

> <Gold.Chemscore.Lipo.Weighted>
-9.5640

> <Gold.Chemscore.Internal_Hbond.Weighted>
0.0000

> <Gold.Chemscore.DEClash.Weighted>
0.0174

> <Gold.Chemscore.DEInternal.Weighted>
2.4507

> <Gold.Chemscore.Rot.Weighted>
3.9635

> <Gold.Chemscore.Internal.Correction.Weighted>
   9.000000E+99

> <Gold.Protein.RotatedTorsions>
[ 6907 6896 6895 6894 ] final   -3.88 input  -60.11 | X-H torsion
[ 7974 7965 7964 7962 ] final   63.24 input  175.53 | X-H torsion
[ 8008 7997 7996 7995 ] final  -67.84 input   59.86 | X-H torsion
[ 10167 10162 10161 10158 ] final   93.49 input  -65.29 | X-H torsion
[ 10718 10713 10712 10709 ] final -115.95 input   66.30 | X-H torsion
[ 10763 10752 10751 10750 ] final  157.26 input  -60.55 | X-H torsion
[ 11005 11000 10999 10996 ] final -174.68 input  -57.11 | X-H torsion

> <Gold.Protein.ActiveResidues>
 VAL166  LYS551  ARG553  GLY616  TRP617  ASP618  TYR619  PRO620  LYS621  CYS622 
 ASP623  PHE694  ASN695  SER759  ASP760  ASP761  ALA762  ILE779  LEU786  VAL792 
 PHE793  MET794  SER795  GLU796  ALA797  LYS798  CYS799  TRP800  GLU811  SER814 

> <Gold.Protein.RotatedAtoms>
  151.5066  135.1063  159.9842 H   0  0  0  0  0  0  0  0  0  0  0  0  # atno 6907 bound_to 6896
  152.4679  133.7960  159.6938 H   0  0  0  0  0  0  0  0  0  0  0  0  # atno 6908 bound_to 6896
  150.8673  133.7493  159.2998 H   0  0  0  0  0  0  0  0  0  0  0  0  # atno 6909 bound_to 6896
  145.8641  139.3334  143.0801 H   0  0  0  0  0  0  0  0  0  0  0  0  # atno 7974 bound_to 7965
  154.4827  140.0884  156.7415 H   0  0  0  0  0  0  0  0  0  0  0  0  # atno 8008 bound_to 7997
  155.4429  140.3454  155.4274 H   0  0  0  0  0  0  0  0  0  0  0  0  # atno 8009 bound_to 7997
  156.1215  140.1475  156.9185 H   0  0  0  0  0  0  0  0  0  0  0  0  # atno 8010 bound_to 7997
  139.8174  144.6746  150.9562 H   0  0  0  0  0  0  0  0  0  0  0  0  # atno 10167 bound_to 10162
  156.0930  130.6108  150.8972 H   0  0  0  0  0  0  0  0  0  0  0  0  # atno 10718 bound_to 10713
  154.1975  135.2792  155.3002 H   0  0  0  0  0  0  0  0  0  0  0  0  # atno 10763 bound_to 10752
  154.5881  135.5568  153.7254 H   0  0  0  0  0  0  0  0  0  0  0  0  # atno 10764 bound_to 10752
  153.0096  135.6361  154.2113 H   0  0  0  0  0  0  0  0  0  0  0  0  # atno 10765 bound_to 10752
  140.4717  134.6159  157.4885 H   0  0  0  0  0  0  0  0  0  0  0  0  # atno 11005 bound_to 11000
  145.9214  140.9113  143.0403 LP  0  0  0  0  0  0  0  0  0  0  0  0  # atno 17320 bound_to 7965
  144.6726  140.1293  143.7444 LP  0  0  0  0  0  0  0  0  0  0  0  0  # atno 17321 bound_to 7965
  140.7815  143.4125  151.0970 LP  0  0  0  0  0  0  0  0  0  0  0  0  # atno 17342 bound_to 10162
  139.7787  143.8387  152.3134 LP  0  0  0  0  0  0  0  0  0  0  0  0  # atno 17343 bound_to 10162
  157.6084  131.0938  150.8839 LP  0  0  0  0  0  0  0  0  0  0  0  0  # atno 17370 bound_to 10713
  156.8983  130.5237  149.5283 LP  0  0  0  0  0  0  0  0  0  0  0  0  # atno 17371 bound_to 10713
  139.9881  134.7029  155.9738 LP  0  0  0  0  0  0  0  0  0  0  0  0  # atno 17394 bound_to 11000
  141.1573  133.6541  156.4204 LP  0  0  0  0  0  0  0  0  0  0  0  0  # atno 17395 bound_to 11000

$$$$
