AV-unprocessed.smi:1595|AV-procd|sdf|6415|dock9
  -GOLD-   22720 7 53D 1   1.00000     0.00000
 Structure written by MMmdl.
 29 30  0  0  0  0  0  0  0  0  1 V2000
  151.1229  139.9174  158.1318 O   0  0  0  0  0  0  0  0  0  0  0  0
  152.2905  139.5781  157.9328 C   0  0  0  0  0  0  0  0  0  0  0  0
  153.3221  139.6014  159.0702 C   0  0  0  0  0  0  0  0  0  0  0  0
  153.2709  140.8292  159.8821 N   0  0  0  0  0  0  0  0  0  0  0  0
  152.6537  141.9558  159.3035 C   0  0  0  0  0  0  0  0  0  0  0  0
  152.5524  143.1412  159.9353 C   0  0  0  0  0  0  0  0  0  0  0  0
  151.8370  144.3287  159.3100 C   0  0  0  0  0  0  0  0  0  0  0  0
  151.8249  145.3693  160.1433 F   0  0  0  0  0  0  0  0  0  0  0  0
  152.4644  144.6993  158.1947 F   0  0  0  0  0  0  0  0  0  0  0  0
  150.5758  144.0275  158.9979 F   0  0  0  0  0  0  0  0  0  0  0  0
  153.0875  143.2026  161.2810 C   0  0  0  0  0  0  0  0  0  0  0  0
  153.6780  142.1337  161.8502 C   0  0  0  0  0  0  0  0  0  0  0  0
  153.8039  140.8588  161.1403 C   0  0  0  0  0  0  0  0  0  0  0  0
  154.3516  139.8785  161.6456 O   0  0  0  0  0  0  0  0  0  0  0  0
  152.7423  139.1526  156.7442 N   0  0  0  0  0  0  0  0  0  0  0  0
  151.9650  139.0399  155.5526 C   0  0  0  0  0  0  0  0  0  0  0  0
  151.6912  137.6493  155.0215 C   0  0  0  0  0  0  0  0  0  0  0  0
  152.6623  138.5454  154.3036 C   0  0  0  0  0  0  0  0  0  0  0  0
  153.1567  138.7229  159.6955 H   0  0  0  0  0  0  0  0  0  0  0  0
  154.3221  139.4684  158.6531 H   0  0  0  0  0  0  0  0  0  0  0  0
  152.2707  141.7944  158.3062 H   0  0  0  0  0  0  0  0  0  0  0  0
  153.0188  144.1242  161.8400 H   0  0  0  0  0  0  0  0  0  0  0  0
  154.0690  142.2170  162.8538 H   0  0  0  0  0  0  0  0  0  0  0  0
  153.7151  138.8905  156.6764 H   0  0  0  0  0  0  0  0  0  0  0  0
  151.1754  139.7740  155.3985 H   0  0  0  0  0  0  0  0  0  0  0  0
  152.1006  136.8035  155.5708 H   0  0  0  0  0  0  0  0  0  0  0  0
  150.7262  137.4740  154.5501 H   0  0  0  0  0  0  0  0  0  0  0  0
  152.3464  138.9686  153.3524 H   0  0  0  0  0  0  0  0  0  0  0  0
  153.7200  138.2992  154.3747 H   0  0  0  0  0  0  0  0  0  0  0  0
  1  2  2  0  0  0  0
  2  3  1  0  0  0  0
  2 15  1  0  0  0  0
  3  4  1  0  0  0  0
  3 19  1  0  0  0  0
  3 20  1  0  0  0  0
  4 13  1  0  0  0  0
  4  5  1  0  0  0  0
  5  6  2  0  0  0  0
  5 21  1  0  0  0  0
  6  7  1  0  0  0  0
  6 11  1  0  0  0  0
  7  8  1  0  0  0  0
  7  9  1  0  0  0  0
  7 10  1  0  0  0  0
 11 12  2  0  0  0  0
 11 22  1  0  0  0  0
 12 13  1  0  0  0  0
 12 23  1  0  0  0  0
 13 14  2  0  0  0  0
 15 16  1  0  0  0  0
 15 24  1  0  0  0  0
 16 18  1  0  0  0  0
 16 17  1  0  0  0  0
 16 25  1  0  0  0  0
 17 18  1  0  0  0  0
 17 26  1  0  0  0  0
 17 27  1  0  0  0  0
 18 28  1  0  0  0  0
 18 29  1  0  0  0  0
M  END
> <s_m_source_file>
AV-unprocessed.smi

> <i_m_source_file_index>
1595

> <i_lp_mmshare_version>
43012

> <i_f3d_flags>
0

> <s_epik_input>
W0NIMl0xW0NIMl1bQ0hdMVtOSF1DKD1PKVtDSDJdbjJbY0hdYyhDKEYpKEYpRilbY0hdW2NIXWMyPU8=

> <s_epik_cmdline>
J2VwaWtfcHl0aG9uJywgJy1waCcsICc3LjAnLCAnLXRuJywgJzgnLCAnLW1hJywgJzIwMCcsICctbWV0YWxfYmluZGluZycsICctaW1hZScsICc8aW5maWxlLm1hZT4nLCAnLW9tYWUnLCAnPG91dGZpbGUubWFlPic=

> <r_lp_tautomer_probability>
1

> <r_epik_Ionization_Penalty>
3.87815e-08

> <r_epik_Ionization_Penalty_Charging>
1.81112e-08

> <r_epik_Ionization_Penalty_Neutral>
2.06703e-08

> <r_epik_State_Penalty>
-0

> <r_epik_Charging_Adjusted_Penalty>
1.81112e-08

> <i_epik_Tot_Q>
0

> <i_epik_Tot_abs_Q>
0

> <r_epik_Metal_State_Penalty>
-0

> <b_epik_Metal_Only>
0

> <s_lp_Force_Field>
OPLS_2005

> <r_lp_Energy>
27.3116

> <b_lp_Chiralities_Consistent>
1

> <s_lp_Variant>
AV-unprocessed.smi:1595-1

> <Gold.Version>
5.8.1

> <Gold.Id.Protein>
6NUR|6NUR_protein|mol2

> <Gold.PLP.Fitness>
45.2495

> <Gold.PLP.PLP>
-46.2254

> <Gold.PLP.part.hbond>
0.0000

> <Gold.PLP.part.metal>
0.0000

> <Gold.PLP.part.buried>
-6.3891

> <Gold.PLP.part.nonpolar>
-39.4983

> <Gold.PLP.part.repulsive>
0.7139

> <Gold.PLP.ligand.clash>
0.0000

> <Gold.PLP.ligand.torsion>
0.5208

> <Gold.PLP.Chemscore.Hbond>
0.0000

> <Gold.PLP.Chemscore.CHOScore>
0.0000

> <Gold.PLP.Chemscore.Metal>
0.0000

> <Gold.PLP.Chemscore.Internal.Correction>
0.0657

> <Gold.Rescore>
     Score         DG    S(hbond)    S(metal)    S(lipo)     H(rot)  DE(clash)    DE(int)     intcor
      9.54     -11.57       0.00        0.00      87.46       1.62       0.31       1.72       ----

> <Gold.Chemscore.Fitness>
9.5418

> <Gold.Chemscore.DG>
-11.5675

> <Gold.Chemscore.ZeroCoef>
-5.4800

> <Gold.Chemscore.Hbond>
0.0000

> <Gold.Chemscore.Metal>
0.0000

> <Gold.Chemscore.Lipo>
87.4590

> <Gold.Chemscore.Internal_Hbond>
0.0000

> <Gold.Chemscore.DEClash>
0.3102

> <Gold.Chemscore.DEInternal>
1.7155

> <Gold.Chemscore.Rot>
1.6192

> <Gold.Chemscore.Internal.Correction>
   9.000000E+99

> <Gold.Chemscore.Hbond.Weighted>
-0.0000

> <Gold.Chemscore.Metal.Weighted>
-0.0000

> <Gold.Chemscore.Lipo.Weighted>
-10.2327

> <Gold.Chemscore.Internal_Hbond.Weighted>
0.0000

> <Gold.Chemscore.DEClash.Weighted>
0.3102

> <Gold.Chemscore.DEInternal.Weighted>
1.7155

> <Gold.Chemscore.Rot.Weighted>
4.1452

> <Gold.Chemscore.Internal.Correction.Weighted>
   9.000000E+99

> <Gold.Protein.RotatedTorsions>
[ 6907 6896 6895 6894 ] final -121.65 input  -60.11 | X-H torsion
[ 7974 7965 7964 7962 ] final -168.26 input  175.53 | X-H torsion
[ 8008 7997 7996 7995 ] final  139.94 input   59.86 | X-H torsion
[ 10167 10162 10161 10158 ] final   22.23 input  -65.29 | X-H torsion
[ 10718 10713 10712 10709 ] final  105.29 input   66.30 | X-H torsion
[ 10763 10752 10751 10750 ] final   60.30 input  -60.55 | X-H torsion
[ 11005 11000 10999 10996 ] final  156.34 input  -57.11 | X-H torsion

> <Gold.Protein.ActiveResidues>
 VAL166  LYS551  ARG553  GLY616  TRP617  ASP618  TYR619  PRO620  LYS621  CYS622 
 ASP623  PHE694  ASN695  SER759  ASP760  ASP761  ALA762  ILE779  LEU786  VAL792 
 PHE793  MET794  SER795  GLU796  ALA797  LYS798  CYS799  TRP800  GLU811  SER814 

> <Gold.Protein.RotatedAtoms>
  150.8503  133.7797  159.3027 H   0  0  0  0  0  0  0  0  0  0  0  0  # atno 6907 bound_to 6896
  151.5471  135.1066  159.9950 H   0  0  0  0  0  0  0  0  0  0  0  0  # atno 6908 bound_to 6896
  152.4547  133.7656  159.6827 H   0  0  0  0  0  0  0  0  0  0  0  0  # atno 6909 bound_to 6896
  144.7206  140.2396  143.6293 H   0  0  0  0  0  0  0  0  0  0  0  0  # atno 7974 bound_to 7965
  156.2984  140.2354  156.4320 H   0  0  0  0  0  0  0  0  0  0  0  0  # atno 8008 bound_to 7997
  154.8262  140.0435  157.1466 H   0  0  0  0  0  0  0  0  0  0  0  0  # atno 8009 bound_to 7997
  154.9259  140.3010  155.5196 H   0  0  0  0  0  0  0  0  0  0  0  0  # atno 8010 bound_to 7997
  140.5364  143.9752  150.6494 H   0  0  0  0  0  0  0  0  0  0  0  0  # atno 10167 bound_to 10162
  157.6711  131.0824  150.5834 H   0  0  0  0  0  0  0  0  0  0  0  0  # atno 10718 bound_to 10713
  152.9917  135.5541  154.5851 H   0  0  0  0  0  0  0  0  0  0  0  0  # atno 10763 bound_to 10752
  154.5224  135.2808  155.1253 H   0  0  0  0  0  0  0  0  0  0  0  0  # atno 10764 bound_to 10752
  154.2600  135.6383  153.5324 H   0  0  0  0  0  0  0  0  0  0  0  0  # atno 10765 bound_to 10752
  140.1665  134.8573  157.2639 H   0  0  0  0  0  0  0  0  0  0  0  0  # atno 11005 bound_to 11000
  145.8333  139.2096  143.1870 LP  0  0  0  0  0  0  0  0  0  0  0  0  # atno 17320 bound_to 7965
  146.0412  140.8163  142.9828 LP  0  0  0  0  0  0  0  0  0  0  0  0  # atno 17321 bound_to 7965
  140.3141  143.3179  152.0849 LP  0  0  0  0  0  0  0  0  0  0  0  0  # atno 17342 bound_to 10162
  139.4972  144.6617  151.6450 LP  0  0  0  0  0  0  0  0  0  0  0  0  # atno 17343 bound_to 10162
  156.6134  130.4386  149.5850 LP  0  0  0  0  0  0  0  0  0  0  0  0  # atno 17370 bound_to 10713
  156.2412  130.6852  151.1557 LP  0  0  0  0  0  0  0  0  0  0  0  0  # atno 17371 bound_to 10713
  140.2427  134.3776  155.7474 LP  0  0  0  0  0  0  0  0  0  0  0  0  # atno 17394 bound_to 11000
  141.2214  133.7274  156.8814 LP  0  0  0  0  0  0  0  0  0  0  0  0  # atno 17395 bound_to 11000

$$$$
