AV-unprocessed.smi:55|AV-procd|sdf|574|dock9
  -GOLD-   2262016473D 1   1.00000     0.00000
 Structure written by MMmdl.
 30 31  0  0  0  0  0  0  0  0  2 V2000
  151.8667  144.7068  158.2166 C   0  0  0  0  0  0  0  0  0  0  0  0
  151.8346  143.1946  158.3516 C   0  0  0  0  0  0  0  0  0  0  0  0
  151.0651  142.4157  157.5589 C   0  0  0  0  0  0  0  0  0  0  0  0
  151.0384  141.0383  157.6886 N   0  0  0  0  0  0  0  0  0  0  0  0
  150.1496  140.1984  156.8033 C   0  0  1  0  0  0  0  0  0  0  0  0
  149.4417  141.0582  155.7641 C   0  0  0  0  0  0  0  0  0  0  0  0
  149.2686  140.0823  154.6063 C   0  0  1  0  0  0  0  0  0  0  0  0
  149.5995  140.7165  153.3844 O   0  0  0  0  0  0  0  0  0  0  0  0
  150.1631  138.8695  154.9647 C   0  0  1  0  0  0  0  0  0  0  0  0
  151.1050  138.3654  153.8549 C   0  0  0  0  0  0  0  0  0  0  0  0
  151.4554  137.0178  154.0890 O   0  0  0  0  0  0  0  0  0  0  0  0
  150.9311  139.3086  156.0788 O   0  0  0  0  0  0  0  0  0  0  0  0
  151.8103  140.4118  158.7007 C   0  0  0  0  0  0  0  0  0  0  0  0
  151.7299  139.1889  158.8188 O   0  0  0  0  0  0  0  0  0  0  0  0
  152.5970  141.1886  159.4991 N   0  5  0  0  0  0  0  0  0  0  0  0
  152.6580  142.5463  159.3800 C   0  0  0  0  0  0  0  0  0  0  0  0
  153.3749  143.2349  160.1061 O   0  0  0  0  0  0  0  0  0  0  0  0
  149.4738  139.6342  157.4489 H   0  0  0  0  0  0  0  0  0  0  0  0
  148.2294  139.7569  154.5447 H   0  0  0  0  0  0  0  0  0  0  0  0
  149.5123  138.0589  155.2984 H   0  0  0  0  0  0  0  0  0  0  0  0
  151.2063  145.0482  157.4191 H   0  0  0  0  0  0  0  0  0  0  0  0
  152.8768  145.0475  157.9878 H   0  0  0  0  0  0  0  0  0  0  0  0
  151.5455  145.1782  159.1459 H   0  0  0  0  0  0  0  0  0  0  0  0
  150.4490  142.8875  156.8079 H   0  0  0  0  0  0  0  0  0  0  0  0
  148.5041  141.4531  156.1565 H   0  0  0  0  0  0  0  0  0  0  0  0
  150.0911  141.8909  155.4869 H   0  0  0  0  0  0  0  0  0  0  0  0
  149.4408  140.1095  152.6779 H   0  0  0  0  0  0  0  0  0  0  0  0
  150.6068  138.3959  152.8856 H   0  0  0  0  0  0  0  0  0  0  0  0
  152.0000  138.9848  153.7844 H   0  0  0  0  0  0  0  0  0  0  0  0
  151.0560  136.4832  153.4198 H   0  0  0  0  0  0  0  0  0  0  0  0
  1  2  1  0  0  0  0
  1 21  1  0  0  0  0
  1 22  1  0  0  0  0
  1 23  1  0  0  0  0
  2 16  1  0  0  0  0
  2  3  2  0  0  0  0
  3  4  1  0  0  0  0
  3 24  1  0  0  0  0
  4  5  1  0  0  0  0
  4 13  1  0  0  0  0
  5 18  1  0  0  0  0
  5 12  1  0  0  0  0
  5  6  1  0  0  0  0
  6  7  1  0  0  0  0
  6 25  1  0  0  0  0
  6 26  1  0  0  0  0
  7 19  1  0  0  0  0
  7  8  1  0  0  0  0
  7  9  1  0  0  0  0
  8 27  1  0  0  0  0
  9 20  1  0  0  0  0
  9 10  1  0  0  0  0
  9 12  1  0  0  0  0
 10 11  1  0  0  0  0
 10 28  1  0  0  0  0
 10 29  1  0  0  0  0
 11 30  1  0  0  0  0
 13 14  2  0  0  0  0
 13 15  1  0  0  0  0
 15 16  1  0  0  0  0
 16 17  2  0  0  0  0
M  CHG  1  15  -1
M  END
> <s_m_source_file>
AV-unprocessed.smi

> <i_m_source_file_index>
55

> <i_lp_mmshare_version>
43012

> <i_f3d_flags>
0

> <s_epik_input>
Tz1jMVtuSF1jKD1PKW4oW2NIXWMxW0NIM10pW0NAQEhdMltDSDJdW0NAQEhdKFtPSF0pW0NAQEhdKE8yKVtDSDJdW09IXQ==

> <s_epik_cmdline>
J2VwaWtfcHl0aG9uJywgJy1waCcsICc3LjAnLCAnLXRuJywgJzgnLCAnLW1hJywgJzIwMCcsICctbWV0YWxfYmluZGluZycsICctaW1hZScsICc8aW5maWxlLm1hZT4nLCAnLW9tYWUnLCAnPG91dGZpbGUubWFlPic=

> <r_lp_tautomer_probability>
0.999537

> <r_epik_Ionization_Penalty>
3.66603

> <r_epik_Ionization_Penalty_Charging>
1.09773e-07

> <r_epik_Ionization_Penalty_Neutral>
3.66603

> <r_epik_State_Penalty>
3.66562

> <r_epik_Charging_Adjusted_Penalty>
3.66562

> <i_epik_Tot_Q>
-1

> <i_epik_Tot_abs_Q>
1

> <r_epik_Metal_State_Penalty>
0.234536

> <b_epik_Metal_Only>
1

> <s_epik_Chemistry_Notes>
This compound contains an acetal/aminal-like group ( X-CH(R)-Y where X, Y are N, S, or O) that may be acid/base labile, releasing an aldehyde.

> <s_lp_Force_Field>
OPLS_2005

> <r_lp_Energy>
40.7451

> <b_lp_Chiralities_Consistent>
1

> <s_lp_Variant>
AV-unprocessed.smi:55-14

> <Gold.Version>
5.8.1

> <Gold.Id.Protein>
6NUR|6NUR_protein|mol2

> <Gold.PLP.Fitness>
45.2011

> <Gold.PLP.PLP>
-33.0323

> <Gold.PLP.part.hbond>
-4.2790

> <Gold.PLP.part.metal>
0.0000

> <Gold.PLP.part.buried>
-6.4301

> <Gold.PLP.part.nonpolar>
-22.9767

> <Gold.PLP.part.repulsive>
0.0000

> <Gold.PLP.ligand.clash>
0.0000

> <Gold.PLP.ligand.torsion>
0.2653

> <Gold.PLP.Chemscore.Hbond>
3.5619

> <Gold.PLP.Chemscore.CHOScore>
0.6632

> <Gold.PLP.Chemscore.Metal>
0.0000

> <Gold.Chemscore.Hbonds>
donor molecule, donor type, donor heavy atom, donor atom, acceptor molecule, acceptor atom, score
      L1  H     8    27       P1  7957  0.76
      L1  H    11    30       P1  7949  0.88
      P1  H  7989  7998       L1     8  0.34
      P1  H  8011  8017       L1     8  0.95
      P1  H 10752 10764       L1    11  0.58
      L1  C     3    24       P1  8028  0.67

> <Gold.PLP.Chemscore.Internal.Correction>
0.0242

> <Gold.Rescore>
     Score         DG    S(hbond)    S(metal)    S(lipo)     H(rot)  DE(clash)    DE(int)     intcor
      9.29     -12.23       1.83        0.00      64.30       2.69       1.49       1.44       ----

> <Gold.Chemscore.Fitness>
9.2903

> <Gold.Chemscore.DG>
-12.2274

> <Gold.Chemscore.ZeroCoef>
-5.4800

> <Gold.Chemscore.Hbond>
1.8272

> <Gold.Chemscore.Metal>
0.0000

> <Gold.Chemscore.Lipo>
64.3044

> <Gold.Chemscore.Internal_Hbond>
0.0000

> <Gold.Chemscore.DEClash>
1.4930

> <Gold.Chemscore.DEInternal>
1.4441

> <Gold.Chemscore.Rot>
2.6871

> <Gold.Chemscore.Internal.Correction>
   9.000000E+99

> <Gold.Chemscore.Hbonds>
donor molecule, donor type, donor heavy atom, donor atom, acceptor molecule, acceptor atom, score
      L1  H     8    27       P1  7957  0.72
      L1  H    11    30       P1  7949  0.25
      P1  H  7989  7998       L1     8  0.07
      P1  H  8011  8017       L1     8  0.21
      P1  H 10752 10764       L1    11  0.06

> <Gold.Chemscore.Hbond.Weighted>
-6.1028

> <Gold.Chemscore.Metal.Weighted>
-0.0000

> <Gold.Chemscore.Lipo.Weighted>
-7.5236

> <Gold.Chemscore.Internal_Hbond.Weighted>
0.0000

> <Gold.Chemscore.DEClash.Weighted>
1.4930

> <Gold.Chemscore.DEInternal.Weighted>
1.4441

> <Gold.Chemscore.Rot.Weighted>
6.8791

> <Gold.Chemscore.Internal.Correction.Weighted>
   9.000000E+99

> <Gold.Protein.RotatedTorsions>
[ 6907 6896 6895 6894 ] final   54.03 input  -60.11 | X-H torsion
[ 7974 7965 7964 7962 ] final -121.92 input  175.53 | X-H torsion
[ 8008 7997 7996 7995 ] final   10.88 input   59.86 | X-H torsion
[ 10167 10162 10161 10158 ] final    1.48 input  -65.29 | X-H torsion
[ 10718 10713 10712 10709 ] final -126.43 input   66.30 | X-H torsion
[ 10763 10752 10751 10750 ] final  -61.22 input  -60.55 | X-H torsion
[ 11005 11000 10999 10996 ] final  -48.32 input  -57.11 | X-H torsion

> <Gold.Protein.ActiveResidues>
 VAL166  LYS551  ARG553  GLY616  TRP617  ASP618  TYR619  PRO620  LYS621  CYS622 
 ASP623  PHE694  ASN695  SER759  ASP760  ASP761  ALA762  ILE779  LEU786  VAL792 
 PHE793  MET794  SER795  GLU796  ALA797  LYS798  CYS799  TRP800  GLU811  SER814 

> <Gold.Protein.RotatedAtoms>
  152.3397  134.7150  160.0266 H   0  0  0  0  0  0  0  0  0  0  0  0  # atno 6907 bound_to 6896
  151.7539  133.3324  159.3407 H   0  0  0  0  0  0  0  0  0  0  0  0  # atno 6908 bound_to 6896
  150.7472  134.6099  159.6125 H   0  0  0  0  0  0  0  0  0  0  0  0  # atno 6909 bound_to 6896
  145.0351  140.8099  143.4300 H   0  0  0  0  0  0  0  0  0  0  0  0  # atno 7974 bound_to 7965
  154.7993  140.2849  155.5933 H   0  0  0  0  0  0  0  0  0  0  0  0  # atno 8008 bound_to 7997
  156.2975  140.2589  156.2787 H   0  0  0  0  0  0  0  0  0  0  0  0  # atno 8009 bound_to 7997
  154.9577  140.0378  157.2164 H   0  0  0  0  0  0  0  0  0  0  0  0  # atno 8010 bound_to 7997
  140.6680  143.7126  150.7866 H   0  0  0  0  0  0  0  0  0  0  0  0  # atno 10167 bound_to 10162
  156.1764  130.6702  151.0248 H   0  0  0  0  0  0  0  0  0  0  0  0  # atno 10718 bound_to 10713
  154.2812  135.6271  153.5348 H   0  0  0  0  0  0  0  0  0  0  0  0  # atno 10763 bound_to 10752
  152.9865  135.5633  154.5493 H   0  0  0  0  0  0  0  0  0  0  0  0  # atno 10764 bound_to 10752
  154.5084  135.2875  155.1338 H   0  0  0  0  0  0  0  0  0  0  0  0  # atno 10765 bound_to 10752
  141.0694  133.6684  156.3424 H   0  0  0  0  0  0  0  0  0  0  0  0  # atno 11005 bound_to 11000
  145.1720  139.2399  143.5337 LP  0  0  0  0  0  0  0  0  0  0  0  0  # atno 17320 bound_to 7965
  146.3503  140.1473  142.8593 LP  0  0  0  0  0  0  0  0  0  0  0  0  # atno 17321 bound_to 7965
  140.0806  143.4972  152.2532 LP  0  0  0  0  0  0  0  0  0  0  0  0  # atno 17342 bound_to 10162
  139.5937  144.7559  151.3338 LP  0  0  0  0  0  0  0  0  0  0  0  0  # atno 17343 bound_to 10162
  157.6839  131.0830  150.7297 LP  0  0  0  0  0  0  0  0  0  0  0  0  # atno 17370 bound_to 10713
  156.7354  130.4723  149.5489 LP  0  0  0  0  0  0  0  0  0  0  0  0  # atno 17371 bound_to 10713
  140.5706  134.5844  157.5456 LP  0  0  0  0  0  0  0  0  0  0  0  0  # atno 17394 bound_to 11000
  139.9508  134.7620  156.0453 LP  0  0  0  0  0  0  0  0  0  0  0  0  # atno 17395 bound_to 11000

$$$$
