AV-unprocessed.smi:1278|AV-procd|sdf|5350|dock4
  -GOLD-   22720 4483D 1   1.00000     0.00000
 Structure written by MMmdl.
 39 40  0  0  0  0  0  0  0  0  2 V2000
  144.6982  141.4233  157.1823 C   0  0  0  0  0  0  0  0  0  0  0  0
  145.1720  141.6237  155.7359 C   0  0  1  0  0  0  0  0  0  0  0  0
  146.0928  142.8493  155.6121 C   0  0  0  0  0  0  0  0  0  0  0  0
  146.5722  143.0095  154.1644 C   0  0  0  0  0  0  0  0  0  0  0  0
  147.2434  141.7218  153.6620 C   0  0  0  0  0  0  0  0  0  0  0  0
  146.3298  140.5569  153.7882 N   0  3  1  0  0  0  0  0  0  0  0  0
  146.9032  139.3291  153.1821 C   0  0  0  0  0  0  0  0  0  0  0  0
  145.8726  138.5503  152.3409 C   0  0  0  0  0  0  0  0  0  0  0  0
  146.3558  137.2167  152.0011 N   0  0  0  0  0  0  0  0  0  0  0  0
  145.5693  136.1635  151.7358 C   0  0  0  0  0  0  0  0  0  0  0  0
  144.3391  136.2211  151.7462 O   0  0  0  0  0  0  0  0  0  0  0  0
  146.2953  135.0657  151.4607 N   0  0  0  0  0  0  0  0  0  0  0  0
  145.8280  133.7697  151.1172 C   0  0  0  0  0  0  0  0  0  0  0  0
  146.6226  132.7431  150.7930 N   0  0  0  0  0  0  0  0  0  0  0  0
  145.8938  131.5870  150.5026 C   0  0  0  0  0  0  0  0  0  0  0  0
  144.5356  131.7524  150.6122 C   0  0  0  0  0  0  0  0  0  0  0  0
  144.1153  133.3763  151.0879 S   0  0  0  0  0  0  0  0  0  0  0  0
  145.8799  140.3657  155.1935 C   0  0  0  0  0  0  0  0  0  0  0  0
  145.5380  141.2395  157.8534 H   0  0  0  0  0  0  0  0  0  0  0  0
  144.0184  140.5744  157.2599 H   0  0  0  0  0  0  0  0  0  0  0  0
  144.1679  142.3036  157.5468 H   0  0  0  0  0  0  0  0  0  0  0  0
  144.2871  141.8031  155.1229 H   0  0  0  0  0  0  0  0  0  0  0  0
  145.5689  143.7511  155.9310 H   0  0  0  0  0  0  0  0  0  0  0  0
  146.9538  142.7382  156.2728 H   0  0  0  0  0  0  0  0  0  0  0  0
  145.7256  143.2570  153.5224 H   0  0  0  0  0  0  0  0  0  0  0  0
  147.2689  143.8454  154.0934 H   0  0  0  0  0  0  0  0  0  0  0  0
  147.5315  141.8559  152.6186 H   0  0  0  0  0  0  0  0  0  0  0  0
  148.1599  141.5299  154.2224 H   0  0  0  0  0  0  0  0  0  0  0  0
  147.7319  139.6130  152.5323 H   0  0  0  0  0  0  0  0  0  0  0  0
  147.3285  138.6937  153.9608 H   0  0  0  0  0  0  0  0  0  0  0  0
  144.9387  138.4244  152.8873 H   0  0  0  0  0  0  0  0  0  0  0  0
  145.6287  139.0997  151.4299 H   0  0  0  0  0  0  0  0  0  0  0  0
  147.3566  137.0847  151.9746 H   0  0  0  0  0  0  0  0  0  0  0  0
  147.2988  135.1682  151.4962 H   0  0  0  0  0  0  0  0  0  0  0  0
  146.4244  130.6879  150.2262 H   0  0  0  0  0  0  0  0  0  0  0  0
  143.7605  131.0197  150.4429 H   0  0  0  0  0  0  0  0  0  0  0  0
  146.7394  140.1167  155.8184 H   0  0  0  0  0  0  0  0  0  0  0  0
  145.1930  139.5224  155.2544 H   0  0  0  0  0  0  0  0  0  0  0  0
  145.5103  140.7857  153.2437 H   0  0  0  0  0  0  0  0  0  0  0  0
  1  2  1  0  0  0  0
  1 19  1  0  0  0  0
  1 20  1  0  0  0  0
  1 21  1  0  0  0  0
  2 18  1  0  0  0  0
  2  3  1  0  0  0  0
  2 22  1  0  0  0  0
  3  4  1  0  0  0  0
  3 23  1  0  0  0  0
  3 24  1  0  0  0  0
  4  5  1  0  0  0  0
  4 25  1  0  0  0  0
  4 26  1  0  0  0  0
  5  6  1  0  0  0  0
  5 27  1  0  0  0  0
  5 28  1  0  0  0  0
  6  7  1  0  0  0  0
  6 18  1  0  0  0  0
  6 39  1  0  0  0  0
  7  8  1  0  0  0  0
  7 29  1  0  0  0  0
  7 30  1  0  0  0  0
  8  9  1  0  0  0  0
  8 31  1  0  0  0  0
  8 32  1  0  0  0  0
  9 10  1  0  0  0  0
  9 33  1  0  0  0  0
 10 11  2  0  0  0  0
 10 12  1  0  0  0  0
 12 13  1  0  0  0  0
 12 34  1  0  0  0  0
 13 17  1  0  0  0  0
 13 14  2  0  0  0  0
 14 15  1  0  0  0  0
 15 16  2  0  0  0  0
 15 35  1  0  0  0  0
 16 17  1  0  0  0  0
 16 36  1  0  0  0  0
 18 37  1  0  0  0  0
 18 38  1  0  0  0  0
M  CHG  1   6   1
M  END
> <s_m_source_file>
AV-unprocessed.smi

> <i_m_source_file_index>
1278

> <i_lp_mmshare_version>
43012

> <i_f3d_flags>
0

> <s_epik_input>
W0NIM11bQ0BASF0xW0NIMl1bQ0gyXVtDSDJdTihbQ0gyXTEpW0NIMl1bQ0gyXVtOSF1DKD1PKVtOSF1jMm5bY0hdW2NIXXMy

> <s_epik_cmdline>
J2VwaWtfcHl0aG9uJywgJy1waCcsICc3LjAnLCAnLXRuJywgJzgnLCAnLW1hJywgJzIwMCcsICctbWV0YWxfYmluZGluZycsICctaW1hZScsICc8aW5maWxlLm1hZT4nLCAnLW9tYWUnLCAnPG91dGZpbGUubWFlPic=

> <r_lp_tautomer_probability>
0.999

> <r_epik_Ionization_Penalty>
0.00222194

> <r_epik_Ionization_Penalty_Charging>
0.00208169

> <r_epik_Ionization_Penalty_Neutral>
0.000140251

> <r_epik_State_Penalty>
0.00142585

> <r_epik_Charging_Adjusted_Penalty>
0.00350754

> <i_epik_Tot_Q>
1

> <i_epik_Tot_abs_Q>
1

> <r_epik_Metal_State_Penalty>
0.0570424

> <b_epik_Metal_Only>
0

> <s_lp_Force_Field>
OPLS_2005

> <r_lp_Energy>
13.7049

> <b_lp_Chiralities_Consistent>
1

> <s_lp_Variant>
AV-unprocessed.smi:1278-4

> <Gold.Version>
5.8.1

> <Gold.Id.Protein>
6NUR|6NUR_protein|mol2

> <Gold.PLP.Fitness>
40.7567

> <Gold.PLP.PLP>
-28.1209

> <Gold.PLP.part.hbond>
-3.0000

> <Gold.PLP.part.metal>
0.0000

> <Gold.PLP.part.buried>
-2.7597

> <Gold.PLP.part.nonpolar>
-23.9767

> <Gold.PLP.part.repulsive>
1.6755

> <Gold.PLP.ligand.clash>
0.0000

> <Gold.PLP.ligand.torsion>
0.7839

> <Gold.PLP.Chemscore.Hbond>
4.0000

> <Gold.PLP.Chemscore.CHOScore>
0.7259

> <Gold.PLP.Chemscore.Metal>
0.0000

> <Gold.Chemscore.Hbonds>
donor molecule, donor type, donor heavy atom, donor atom, acceptor molecule, acceptor atom, score
      L1  H     6    39       P1 10175  2.00
      L1  H     9    33       P1  7948  1.00
      L1  H    12    34       P1  7948  1.00
      L1  C    15    35       P1 10747  0.71

> <Gold.PLP.Chemscore.Internal.Correction>
0.0258

> <Gold.Rescore>
     Score         DG    S(hbond)    S(metal)    S(lipo)     H(rot)  DE(clash)    DE(int)     intcor
     15.04     -17.41       2.68        0.00      60.59       1.60       0.36       2.01       ----

> <Gold.Chemscore.Fitness>
15.0380

> <Gold.Chemscore.DG>
-17.4085

> <Gold.Chemscore.ZeroCoef>
-5.4800

> <Gold.Chemscore.Hbond>
2.6753

> <Gold.Chemscore.Metal>
0.0000

> <Gold.Chemscore.Lipo>
60.5934

> <Gold.Chemscore.Internal_Hbond>
0.0000

> <Gold.Chemscore.DEClash>
0.3626

> <Gold.Chemscore.DEInternal>
2.0079

> <Gold.Chemscore.Rot>
1.6001

> <Gold.Chemscore.Internal.Correction>
   9.000000E+99

> <Gold.Chemscore.Hbonds>
donor molecule, donor type, donor heavy atom, donor atom, acceptor molecule, acceptor atom, score
      L1  H     6    39       P1 10175  0.71
      L1  H     9    33       P1  7948  0.99
      L1  H    12    34       P1  7948  0.79

> <Gold.Chemscore.Hbond.Weighted>
-8.9353

> <Gold.Chemscore.Metal.Weighted>
-0.0000

> <Gold.Chemscore.Lipo.Weighted>
-7.0894

> <Gold.Chemscore.Internal_Hbond.Weighted>
0.0000

> <Gold.Chemscore.DEClash.Weighted>
0.3626

> <Gold.Chemscore.DEInternal.Weighted>
2.0079

> <Gold.Chemscore.Rot.Weighted>
4.0963

> <Gold.Chemscore.Internal.Correction.Weighted>
   9.000000E+99

> <Gold.Protein.RotatedTorsions>
[ 6907 6896 6895 6894 ] final  153.48 input  -60.11 | X-H torsion
[ 7974 7965 7964 7962 ] final  -33.31 input  175.53 | X-H torsion
[ 8008 7997 7996 7995 ] final   21.43 input   59.86 | X-H torsion
[ 10167 10162 10161 10158 ] final  -48.76 input  -65.29 | X-H torsion
[ 10718 10713 10712 10709 ] final   44.80 input   66.30 | X-H torsion
[ 10763 10752 10751 10750 ] final  152.52 input  -60.55 | X-H torsion
[ 11005 11000 10999 10996 ] final -105.18 input  -57.11 | X-H torsion

> <Gold.Protein.ActiveResidues>
 VAL166  LYS551  ARG553  GLY616  TRP617  ASP618  TYR619  PRO620  LYS621  CYS622 
 ASP623  PHE694  ASN695  SER759  ASP760  ASP761  ALA762  ILE779  LEU786  VAL792 
 PHE793  MET794  SER795  GLU796  ALA797  LYS798  CYS799  TRP800  GLU811  SER814 

> <Gold.Protein.RotatedAtoms>
  152.0721  133.4111  159.4463 H   0  0  0  0  0  0  0  0  0  0  0  0  # atno 6907 bound_to 6896
  150.6863  134.3080  159.4743 H   0  0  0  0  0  0  0  0  0  0  0  0  # atno 6908 bound_to 6896
  152.0913  134.9405  160.0622 H   0  0  0  0  0  0  0  0  0  0  0  0  # atno 6909 bound_to 6896
  146.0921  140.5900  142.8860 H   0  0  0  0  0  0  0  0  0  0  0  0  # atno 7974 bound_to 7965
  154.9505  140.3065  155.5077 H   0  0  0  0  0  0  0  0  0  0  0  0  # atno 8008 bound_to 7997
  156.2987  140.2319  156.4520 H   0  0  0  0  0  0  0  0  0  0  0  0  # atno 8009 bound_to 7997
  154.8059  140.0431  157.1296 H   0  0  0  0  0  0  0  0  0  0  0  0  # atno 8010 bound_to 7997
  140.6716  143.2726  151.4117 H   0  0  0  0  0  0  0  0  0  0  0  0  # atno 10167 bound_to 10162
  157.4308  130.8023  149.7601 H   0  0  0  0  0  0  0  0  0  0  0  0  # atno 10718 bound_to 10713
  154.1213  135.2832  155.3207 H   0  0  0  0  0  0  0  0  0  0  0  0  # atno 10763 bound_to 10752
  154.6421  135.5399  153.7805 H   0  0  0  0  0  0  0  0  0  0  0  0  # atno 10764 bound_to 10752
  153.0312  135.6489  154.1367 H   0  0  0  0  0  0  0  0  0  0  0  0  # atno 10765 bound_to 10752
  141.1065  133.8786  157.1703 H   0  0  0  0  0  0  0  0  0  0  0  0  # atno 11005 bound_to 11000
  144.7368  140.4830  143.6898 LP  0  0  0  0  0  0  0  0  0  0  0  0  # atno 17320 bound_to 7965
  145.6019  139.1504  143.3124 LP  0  0  0  0  0  0  0  0  0  0  0  0  # atno 17321 bound_to 7965
  139.5988  144.1340  152.2174 LP  0  0  0  0  0  0  0  0  0  0  0  0  # atno 17342 bound_to 10162
  140.0718  144.5773  150.7186 LP  0  0  0  0  0  0  0  0  0  0  0  0  # atno 17343 bound_to 10162
  155.9912  130.3939  150.2993 LP  0  0  0  0  0  0  0  0  0  0  0  0  # atno 17370 bound_to 10713
  157.1150  131.0231  151.3033 LP  0  0  0  0  0  0  0  0  0  0  0  0  # atno 17371 bound_to 10713
  139.9938  135.0054  157.0036 LP  0  0  0  0  0  0  0  0  0  0  0  0  # atno 17394 bound_to 11000
  140.4887  134.1215  155.7229 LP  0  0  0  0  0  0  0  0  0  0  0  0  # atno 17395 bound_to 11000

$$$$
