AV-unprocessed.smi:335|AV-procd|sdf|2370|dock4
  -GOLD-   2262022283D 1   1.00000     0.00000
 Structure written by MMmdl.
 42 44  0  0  0  0  0  0  0  0  1 V2000
  144.8563  139.6871  159.2879 C   0  0  0  0  0  0  0  0  0  0  0  0
  145.9246  140.5158  158.8651 O   0  0  0  0  0  0  0  0  0  0  0  0
  145.9441  140.7006  157.4588 C   0  0  0  0  0  0  0  0  0  0  0  0
  146.8807  141.8681  157.1067 C   0  0  0  0  0  0  0  0  0  0  0  0
  148.0986  141.4069  156.4305 N   0  0  0  0  0  0  0  0  0  0  0  0
  149.2498  141.5411  157.1886 N   0  0  0  0  0  0  0  0  0  0  0  0
  150.3888  141.1465  156.7181 C   0  0  0  0  0  0  0  0  0  0  0  0
  151.6484  141.2704  157.5026 C   0  0  0  0  0  0  0  0  0  0  0  0
  152.5990  140.5054  157.3299 O   0  0  0  0  0  0  0  0  0  0  0  0
  151.6665  142.2695  158.4037 N   0  0  0  0  0  0  0  0  0  0  0  0
  152.7713  142.5947  159.2990 C   0  0  0  0  0  0  0  0  0  0  0  0
  152.9636  141.5442  160.3794 C   0  0  0  0  0  0  0  0  0  0  0  0
  153.7209  141.8496  161.6502 C   0  0  0  0  0  0  0  0  0  0  0  0
  154.3112  140.9083  160.6249 C   0  0  0  0  0  0  0  0  0  0  0  0
  152.5992  143.9680  159.9215 C   0  0  0  0  0  0  0  0  0  0  0  0
  151.2327  144.4841  160.3044 C   0  0  0  0  0  0  0  0  0  0  0  0
  151.9822  145.1103  159.1496 C   0  0  0  0  0  0  0  0  0  0  0  0
  150.4830  140.5623  155.3908 C   0  0  0  0  0  0  0  0  0  0  0  0
  149.3529  140.4460  154.6594 C   0  0  0  0  0  0  0  0  0  0  0  0
  148.0523  140.8838  155.1682 C   0  0  0  0  0  0  0  0  0  0  0  0
  147.0093  140.7863  154.5220 O   0  0  0  0  0  0  0  0  0  0  0  0
  144.8826  139.5792  160.3722 H   0  0  0  0  0  0  0  0  0  0  0  0
  144.9330  138.6913  158.8496 H   0  0  0  0  0  0  0  0  0  0  0  0
  143.8916  140.1171  159.0153 H   0  0  0  0  0  0  0  0  0  0  0  0
  146.2635  139.7856  156.9577 H   0  0  0  0  0  0  0  0  0  0  0  0
  144.9357  140.9244  157.1081 H   0  0  0  0  0  0  0  0  0  0  0  0
  146.3542  142.5835  156.4729 H   0  0  0  0  0  0  0  0  0  0  0  0
  147.1338  142.4188  158.0146 H   0  0  0  0  0  0  0  0  0  0  0  0
  150.8408  142.8464  158.4775 H   0  0  0  0  0  0  0  0  0  0  0  0
  153.6905  142.6316  158.7108 H   0  0  0  0  0  0  0  0  0  0  0  0
  152.1054  140.8846  160.4954 H   0  0  0  0  0  0  0  0  0  0  0  0
  154.1824  142.8301  161.7489 H   0  0  0  0  0  0  0  0  0  0  0  0
  153.3451  141.4161  162.5745 H   0  0  0  0  0  0  0  0  0  0  0  0
  154.3267  139.8469  160.8630 H   0  0  0  0  0  0  0  0  0  0  0  0
  155.1575  141.2684  160.0435 H   0  0  0  0  0  0  0  0  0  0  0  0
  153.4098  144.2419  160.5945 H   0  0  0  0  0  0  0  0  0  0  0  0
  150.3711  143.8633  160.0660 H   0  0  0  0  0  0  0  0  0  0  0  0
  151.1529  145.0589  161.2248 H   0  0  0  0  0  0  0  0  0  0  0  0
  152.4030  146.1023  159.2998 H   0  0  0  0  0  0  0  0  0  0  0  0
  151.6100  144.9090  158.1471 H   0  0  0  0  0  0  0  0  0  0  0  0
  151.4295  140.2300  154.9900 H   0  0  0  0  0  0  0  0  0  0  0  0
  149.4086  140.0159  153.6701 H   0  0  0  0  0  0  0  0  0  0  0  0
  1  2  1  0  0  0  0
  1 22  1  0  0  0  0
  1 23  1  0  0  0  0
  1 24  1  0  0  0  0
  2  3  1  0  0  0  0
  3  4  1  0  0  0  0
  3 25  1  0  0  0  0
  3 26  1  0  0  0  0
  4  5  1  0  0  0  0
  4 27  1  0  0  0  0
  4 28  1  0  0  0  0
  5 20  1  0  0  0  0
  5  6  1  0  0  0  0
  6  7  2  0  0  0  0
  7  8  1  0  0  0  0
  7 18  1  0  0  0  0
  8  9  2  0  0  0  0
  8 10  1  0  0  0  0
 10 11  1  0  0  0  0
 10 29  1  0  0  0  0
 11 12  1  0  0  0  0
 11 15  1  0  0  0  0
 11 30  1  0  0  0  0
 12 14  1  0  0  0  0
 12 13  1  0  0  0  0
 12 31  1  0  0  0  0
 13 14  1  0  0  0  0
 13 32  1  0  0  0  0
 13 33  1  0  0  0  0
 14 34  1  0  0  0  0
 14 35  1  0  0  0  0
 15 17  1  0  0  0  0
 15 16  1  0  0  0  0
 15 36  1  0  0  0  0
 16 17  1  0  0  0  0
 16 37  1  0  0  0  0
 16 38  1  0  0  0  0
 17 39  1  0  0  0  0
 17 40  1  0  0  0  0
 18 19  2  0  0  0  0
 18 41  1  0  0  0  0
 19 20  1  0  0  0  0
 19 42  1  0  0  0  0
 20 21  2  0  0  0  0
M  END
> <s_m_source_file>
AV-unprocessed.smi

> <i_m_source_file_index>
335

> <i_lp_mmshare_version>
43012

> <i_f3d_flags>
0

> <s_epik_input>
W0NIM11PW0NIMl1bQ0gyXW4xbmMoW2NIXVtjSF1jMT1PKUMoPU8pW05IXVtDSF0oW0NIXTJbQ0gyXVtDSDJdMilbQ0hdM1tDSDJdW0NIMl0z

> <s_epik_cmdline>
J2VwaWtfcHl0aG9uJywgJy1waCcsICc3LjAnLCAnLXRuJywgJzgnLCAnLW1hJywgJzIwMCcsICctbWV0YWxfYmluZGluZycsICctaW1hZScsICc8aW5maWxlLm1hZT4nLCAnLW9tYWUnLCAnPG91dGZpbGUubWFlPic=

> <r_lp_tautomer_probability>
1

> <r_epik_Ionization_Penalty>
5.73468e-07

> <r_epik_Ionization_Penalty_Charging>
6.67133e-09

> <r_epik_Ionization_Penalty_Neutral>
5.66797e-07

> <r_epik_State_Penalty>
-0

> <r_epik_Charging_Adjusted_Penalty>
6.67133e-09

> <i_epik_Tot_Q>
0

> <i_epik_Tot_abs_Q>
0

> <r_epik_Metal_State_Penalty>
-0

> <b_epik_Metal_Only>
0

> <s_lp_Force_Field>
OPLS_2005

> <r_lp_Energy>
44.174

> <b_lp_Chiralities_Consistent>
1

> <s_lp_Variant>
AV-unprocessed.smi:335-1

> <Gold.Version>
5.8.1

> <Gold.Id.Protein>
6NUR|6NUR_protein|mol2

> <Gold.PLP.Fitness>
42.7300

> <Gold.PLP.PLP>
-41.9027

> <Gold.PLP.part.hbond>
-2.0000

> <Gold.PLP.part.metal>
0.0000

> <Gold.PLP.part.buried>
-3.5236

> <Gold.PLP.part.nonpolar>
-35.4772

> <Gold.PLP.part.repulsive>
0.3020

> <Gold.PLP.ligand.clash>
0.0000

> <Gold.PLP.ligand.torsion>
2.3754

> <Gold.PLP.Chemscore.Hbond>
1.1006

> <Gold.PLP.Chemscore.CHOScore>
0.0000

> <Gold.PLP.Chemscore.Metal>
0.0000

> <Gold.Chemscore.Hbonds>
donor molecule, donor type, donor heavy atom, donor atom, acceptor molecule, acceptor atom, score
      P1  H  6934  6946       L1     2  0.29
      P1  H  7997  8010       L1     9  0.85

> <Gold.PLP.Chemscore.Internal.Correction>
2.2765

> <Gold.Rescore>
     Score         DG    S(hbond)    S(metal)    S(lipo)     H(rot)  DE(clash)    DE(int)     intcor
     13.93     -16.16       0.95        0.00     104.54       1.85       0.07       2.17       ----

> <Gold.Chemscore.Fitness>
13.9254

> <Gold.Chemscore.DG>
-16.1650

> <Gold.Chemscore.ZeroCoef>
-5.4800

> <Gold.Chemscore.Hbond>
0.9517

> <Gold.Chemscore.Metal>
0.0000

> <Gold.Chemscore.Lipo>
104.5420

> <Gold.Chemscore.Internal_Hbond>
0.0000

> <Gold.Chemscore.DEClash>
0.0663

> <Gold.Chemscore.DEInternal>
2.1733

> <Gold.Chemscore.Rot>
1.8458

> <Gold.Chemscore.Internal.Correction>
   9.000000E+99

> <Gold.Chemscore.Hbonds>
donor molecule, donor type, donor heavy atom, donor atom, acceptor molecule, acceptor atom, score
      P1  H  6934  6946       L1     2  0.07
      P1  H  7997  8010       L1     9  0.84

> <Gold.Chemscore.Hbond.Weighted>
-3.1788

> <Gold.Chemscore.Metal.Weighted>
-0.0000

> <Gold.Chemscore.Lipo.Weighted>
-12.2314

> <Gold.Chemscore.Internal_Hbond.Weighted>
0.0000

> <Gold.Chemscore.DEClash.Weighted>
0.0663

> <Gold.Chemscore.DEInternal.Weighted>
2.1733

> <Gold.Chemscore.Rot.Weighted>
4.7252

> <Gold.Chemscore.Internal.Correction.Weighted>
   9.000000E+99

> <Gold.Protein.RotatedTorsions>
[ 6907 6896 6895 6894 ] final  120.48 input  -60.11 | X-H torsion
[ 7974 7965 7964 7962 ] final   95.18 input  175.53 | X-H torsion
[ 8008 7997 7996 7995 ] final   55.50 input   59.86 | X-H torsion
[ 10167 10162 10161 10158 ] final -123.32 input  -65.29 | X-H torsion
[ 10718 10713 10712 10709 ] final   76.97 input   66.30 | X-H torsion
[ 10763 10752 10751 10750 ] final -140.66 input  -60.55 | X-H torsion
[ 11005 11000 10999 10996 ] final  178.46 input  -57.11 | X-H torsion

> <Gold.Protein.ActiveResidues>
 VAL166  LYS551  ARG553  GLY616  TRP617  ASP618  TYR619  PRO620  LYS621  CYS622 
 ASP623  PHE694  ASN695  SER759  ASP760  ASP761  ALA762  ILE779  LEU786  VAL792 
 PHE793  MET794  SER795  GLU796  ALA797  LYS798  CYS799  TRP800  GLU811  SER814 

> <Gold.Protein.RotatedAtoms>
  152.4395  133.7422  159.6646 H   0  0  0  0  0  0  0  0  0  0  0  0  # atno 6907 bound_to 6896
  150.8283  133.8123  159.3115 H   0  0  0  0  0  0  0  0  0  0  0  0  # atno 6908 bound_to 6896
  151.5784  135.1062  160.0063 H   0  0  0  0  0  0  0  0  0  0  0  0  # atno 6909 bound_to 6896
  145.4557  139.2290  143.3015 H   0  0  0  0  0  0  0  0  0  0  0  0  # atno 7974 bound_to 7965
  155.5021  140.3474  155.4373 H   0  0  0  0  0  0  0  0  0  0  0  0  # atno 8008 bound_to 7997
  156.0906  140.1410  156.9624 H   0  0  0  0  0  0  0  0  0  0  0  0  # atno 8009 bound_to 7997
  154.4633  140.0927  156.6929 H   0  0  0  0  0  0  0  0  0  0  0  0  # atno 8010 bound_to 7997
  140.0048  143.5503  152.2288 H   0  0  0  0  0  0  0  0  0  0  0  0  # atno 10167 bound_to 10162
  157.6693  130.9799  150.1574 H   0  0  0  0  0  0  0  0  0  0  0  0  # atno 10718 bound_to 10713
  154.8571  135.3547  154.5743 H   0  0  0  0  0  0  0  0  0  0  0  0  # atno 10763 bound_to 10752
  153.6355  135.7000  153.5265 H   0  0  0  0  0  0  0  0  0  0  0  0  # atno 10764 bound_to 10752
  153.3014  135.4205  155.1215 H   0  0  0  0  0  0  0  0  0  0  0  0  # atno 10765 bound_to 10752
  140.3954  134.6825  157.4531 H   0  0  0  0  0  0  0  0  0  0  0  0  # atno 11005 bound_to 11000
  146.2480  140.5320  142.8906 LP  0  0  0  0  0  0  0  0  0  0  0  0  # atno 17320 bound_to 7965
  144.8034  140.6255  143.6463 LP  0  0  0  0  0  0  0  0  0  0  0  0  # atno 17321 bound_to 7965
  139.6246  144.7635  151.2666 LP  0  0  0  0  0  0  0  0  0  0  0  0  # atno 17342 bound_to 10162
  140.7405  143.6587  150.8184 LP  0  0  0  0  0  0  0  0  0  0  0  0  # atno 17343 bound_to 10162
  156.2358  130.3686  149.8393 LP  0  0  0  0  0  0  0  0  0  0  0  0  # atno 17370 bound_to 10713
  156.6206  130.8625  151.3474 LP  0  0  0  0  0  0  0  0  0  0  0  0  # atno 17371 bound_to 10713
  140.0376  134.6315  155.9023 LP  0  0  0  0  0  0  0  0  0  0  0  0  # atno 17394 bound_to 11000
  141.1876  133.6560  156.5288 LP  0  0  0  0  0  0  0  0  0  0  0  0  # atno 17395 bound_to 11000

$$$$
