AV-unprocessed.smi:72|AV-procd|sdf|726|dock10
  -GOLD-   2262017 53D 1   1.00000     0.00000
 Structure written by MMmdl.
 28 29  0  0  0  0  0  0  0  0  2 V2000
  152.1071  135.6581  156.7276 N   0  0  0  0  0  0  0  0  0  0  0  0
  151.7025  136.7961  156.3666 C   0  0  0  0  0  0  0  0  0  0  0  0
  150.3139  137.1627  156.5419 N   0  0  0  0  0  0  0  0  0  0  0  0
  149.9440  138.3390  156.1382 C   0  0  0  0  0  0  0  0  0  0  0  0
  150.8781  139.2663  155.5144 N   0  0  0  0  0  0  0  0  0  0  0  0
  150.4403  140.6439  155.0650 C   0  0  1  0  0  0  0  0  0  0  0  0
  149.4695  140.5201  154.0648 O   0  0  0  0  0  0  0  0  0  0  0  0
  148.3643  141.3733  154.3465 C   0  0  1  0  0  0  0  0  0  0  0  0
  147.0883  140.7998  153.7108 C   0  0  0  0  0  0  0  0  0  0  0  0
  145.9469  141.4255  154.2574 O   0  0  0  0  0  0  0  0  0  0  0  0
  148.3358  141.3820  155.8751 C   0  0  2  0  0  0  0  0  0  0  0  0
  147.6030  142.4651  156.4162 O   0  0  0  0  0  0  0  0  0  0  0  0
  149.8154  141.4135  156.2395 C   0  0  2  0  0  0  0  0  0  0  0  0
  150.3357  142.7281  156.3145 O   0  0  0  0  0  0  0  0  0  0  0  0
  152.2424  138.8937  155.3874 C   0  0  0  0  0  0  0  0  0  0  0  0
  153.0265  139.7121  154.9059 O   0  0  0  0  0  0  0  0  0  0  0  0
  152.6244  137.6569  155.8130 N   0  5  0  0  0  0  0  0  0  0  0  0
  151.3233  141.1214  154.6364 H   0  0  0  0  0  0  0  0  0  0  0  0
  148.5788  142.3783  153.9770 H   0  0  0  0  0  0  0  0  0  0  0  0
  147.9026  140.4478  156.2363 H   0  0  0  0  0  0  0  0  0  0  0  0
  150.0072  140.9130  157.1900 H   0  0  0  0  0  0  0  0  0  0  0  0
  151.3668  135.0953  157.1210 H   0  0  0  0  0  0  0  0  0  0  0  0
  148.9221  138.7045  156.2451 H   0  0  0  0  0  0  0  0  0  0  0  0
  147.1008  140.9119  152.6263 H   0  0  0  0  0  0  0  0  0  0  0  0
  147.0091  139.7337  153.9251 H   0  0  0  0  0  0  0  0  0  0  0  0
  145.2216  141.2968  153.6656 H   0  0  0  0  0  0  0  0  0  0  0  0
  147.9622  143.2687  156.0728 H   0  0  0  0  0  0  0  0  0  0  0  0
  149.6993  143.3207  155.9439 H   0  0  0  0  0  0  0  0  0  0  0  0
  1  2  2  0  0  0  0
  1 22  1  0  0  0  0
  2 17  1  0  0  0  0
  2  3  1  0  0  0  0
  3  4  2  0  0  0  0
  4  5  1  0  0  0  0
  4 23  1  0  0  0  0
  5  6  1  0  0  0  0
  5 15  1  0  0  0  0
  6 18  1  0  0  0  0
  6 13  1  0  0  0  0
  6  7  1  0  0  0  0
  7  8  1  0  0  0  0
  8 19  1  0  0  0  0
  8  9  1  0  0  0  0
  8 11  1  0  0  0  0
  9 10  1  0  0  0  0
  9 24  1  0  0  0  0
  9 25  1  0  0  0  0
 10 26  1  0  0  0  0
 11 20  1  0  0  0  0
 11 12  1  0  0  0  0
 11 13  1  0  0  0  0
 12 27  1  0  0  0  0
 13 21  1  0  0  0  0
 13 14  1  0  0  0  0
 14 28  1  0  0  0  0
 15 16  2  0  0  0  0
 15 17  1  0  0  0  0
M  CHG  1  17  -1
M  END
> <s_m_source_file>
AV-unprocessed.smi

> <i_m_source_file_index>
72

> <i_lp_mmshare_version>
43012

> <i_f3d_flags>
0

> <s_epik_input>
W05IMl1jMW5bY0hdbihjKD1PKW4xKVtDQEBIXTJPW0NASF0oW0NIMl1bT0hdKVtDQEBIXShbT0hdKVtDQEhdMltPSF0=

> <s_epik_cmdline>
J2VwaWtfcHl0aG9uJywgJy1waCcsICc3LjAnLCAnLXRuJywgJzgnLCAnLW1hJywgJzIwMCcsICctbWV0YWxfYmluZGluZycsICctaW1hZScsICc8aW5maWxlLm1hZT4nLCAnLW9tYWUnLCAnPG91dGZpbGUubWFlPic=

> <r_lp_tautomer_probability>
7.17554e-07

> <r_epik_Ionization_Penalty>
12.8705

> <r_epik_Ionization_Penalty_Charging>
5.64144

> <r_epik_Ionization_Penalty_Neutral>
7.22905

> <r_epik_State_Penalty>
3.30104

> <r_epik_Charging_Adjusted_Penalty>
8.94249

> <i_epik_Tot_Q>
-1

> <i_epik_Tot_abs_Q>
1

> <r_epik_Metal_State_Penalty>
0.529074

> <b_epik_Metal_Only>
1

> <s_epik_Chemistry_Notes>
This compound contains an acetal/aminal-like group ( X-CH(R)-Y where X, Y are N, S, or O) that may be acid/base labile, releasing an aldehyde.

> <s_lp_Force_Field>
OPLS_2005

> <r_lp_Energy>
36.315

> <b_lp_Chiralities_Consistent>
1

> <s_lp_Variant>
AV-unprocessed.smi:72-64

> <Gold.Version>
5.8.1

> <Gold.Id.Protein>
6NUR|6NUR_protein|mol2

> <Gold.PLP.Fitness>
39.4191

> <Gold.PLP.PLP>
-23.4627

> <Gold.PLP.part.hbond>
-7.8094

> <Gold.PLP.part.metal>
0.0000

> <Gold.PLP.part.buried>
-2.5328

> <Gold.PLP.part.nonpolar>
-16.2114

> <Gold.PLP.part.repulsive>
1.8126

> <Gold.PLP.ligand.clash>
0.0000

> <Gold.PLP.ligand.torsion>
0.0908

> <Gold.PLP.Chemscore.Hbond>
5.3721

> <Gold.PLP.Chemscore.CHOScore>
0.0000

> <Gold.PLP.Chemscore.Metal>
0.0000

> <Gold.Chemscore.Hbonds>
donor molecule, donor type, donor heavy atom, donor atom, acceptor molecule, acceptor atom, score
      L1  H    10    26       P1 10175  0.84
      L1  H    12    27       P1  8028  1.00
      L1  H    14    28       P1  8028  1.00
      P1  H  7989  7998       L1    16  0.18
      P1  H  7997  8010       L1    16  1.00
      P1  H 10752 10764       L1     1  0.85

> <Gold.PLP.Chemscore.Internal.Correction>
0.0219

> <Gold.Rescore>
     Score         DG    S(hbond)    S(metal)    S(lipo)     H(rot)  DE(clash)    DE(int)     intcor
      8.42      -8.57       3.27        0.00      21.51       4.04       0.04       0.11       ----

> <Gold.Chemscore.Fitness>
8.4177

> <Gold.Chemscore.DG>
-8.5705

> <Gold.Chemscore.ZeroCoef>
-5.4800

> <Gold.Chemscore.Hbond>
3.2687

> <Gold.Chemscore.Metal>
0.0000

> <Gold.Chemscore.Lipo>
21.5058

> <Gold.Chemscore.Internal_Hbond>
0.0000

> <Gold.Chemscore.DEClash>
0.0424

> <Gold.Chemscore.DEInternal>
0.1104

> <Gold.Chemscore.Rot>
4.0403

> <Gold.Chemscore.Internal.Correction>
   9.000000E+99

> <Gold.Chemscore.Hbonds>
donor molecule, donor type, donor heavy atom, donor atom, acceptor molecule, acceptor atom, score
      L1  H    10    26       P1 10175  0.33
      L1  H    12    27       P1  8028  0.30
      L1  H    14    28       P1  8028  0.99
      P1  H  7989  7998       L1    16  0.06
      P1  H  7997  8010       L1    16  0.93
      P1  H 10752 10764       L1     1  0.14

> <Gold.Chemscore.Hbond.Weighted>
-10.9174

> <Gold.Chemscore.Metal.Weighted>
-0.0000

> <Gold.Chemscore.Lipo.Weighted>
-2.5162

> <Gold.Chemscore.Internal_Hbond.Weighted>
0.0000

> <Gold.Chemscore.DEClash.Weighted>
0.0424

> <Gold.Chemscore.DEInternal.Weighted>
0.1104

> <Gold.Chemscore.Rot.Weighted>
10.3431

> <Gold.Chemscore.Internal.Correction.Weighted>
   9.000000E+99

> <Gold.Protein.RotatedTorsions>
[ 6907 6896 6895 6894 ] final -133.06 input  -60.11 | X-H torsion
[ 7974 7965 7964 7962 ] final   35.03 input  175.53 | X-H torsion
[ 8008 7997 7996 7995 ] final   99.52 input   59.86 | X-H torsion
[ 10167 10162 10161 10158 ] final -131.23 input  -65.29 | X-H torsion
[ 10718 10713 10712 10709 ] final   63.46 input   66.30 | X-H torsion
[ 10763 10752 10751 10750 ] final  -10.49 input  -60.55 | X-H torsion
[ 11005 11000 10999 10996 ] final -175.88 input  -57.11 | X-H torsion

> <Gold.Protein.ActiveResidues>
 VAL166  LYS551  ARG553  GLY616  TRP617  ASP618  TYR619  PRO620  LYS621  CYS622 
 ASP623  PHE694  ASN695  SER759  ASP760  ASP761  ALA762  ILE779  LEU786  VAL792 
 PHE793  MET794  SER795  GLU796  ALA797  LYS798  CYS799  TRP800  GLU811  SER814 

> <Gold.Protein.RotatedAtoms>
  150.9696  133.6358  159.2740 H   0  0  0  0  0  0  0  0  0  0  0  0  # atno 6907 bound_to 6896
  151.3651  135.0910  159.9457 H   0  0  0  0  0  0  0  0  0  0  0  0  # atno 6908 bound_to 6896
  152.5178  133.9262  159.7613 H   0  0  0  0  0  0  0  0  0  0  0  0  # atno 6909 bound_to 6896
  146.1312  139.6194  142.9225 H   0  0  0  0  0  0  0  0  0  0  0  0  # atno 7974 bound_to 7965
  156.1113  140.3227  155.8077 H   0  0  0  0  0  0  0  0  0  0  0  0  # atno 8008 bound_to 7997
  155.4667  140.0543  157.3001 H   0  0  0  0  0  0  0  0  0  0  0  0  # atno 8009 bound_to 7997
  154.4762  140.2033  155.9887 H   0  0  0  0  0  0  0  0  0  0  0  0  # atno 8010 bound_to 7997
  139.9211  143.6382  152.2553 H   0  0  0  0  0  0  0  0  0  0  0  0  # atno 10167 bound_to 10162
  157.5973  130.9107  149.9719 H   0  0  0  0  0  0  0  0  0  0  0  0  # atno 10718 bound_to 10713
  153.4699  135.7016  153.5999 H   0  0  0  0  0  0  0  0  0  0  0  0  # atno 10763 bound_to 10752
  153.4258  135.3814  155.2140 H   0  0  0  0  0  0  0  0  0  0  0  0  # atno 10764 bound_to 10752
  154.8725  135.3938  154.4136 H   0  0  0  0  0  0  0  0  0  0  0  0  # atno 10765 bound_to 10752
  140.4584  134.6278  157.4832 H   0  0  0  0  0  0  0  0  0  0  0  0  # atno 11005 bound_to 11000
  145.5257  141.0430  143.2411 LP  0  0  0  0  0  0  0  0  0  0  0  0  # atno 17320 bound_to 7965
  144.7692  139.6774  143.7202 LP  0  0  0  0  0  0  0  0  0  0  0  0  # atno 17321 bound_to 7965
  139.6861  144.7651  151.1521 LP  0  0  0  0  0  0  0  0  0  0  0  0  # atno 17342 bound_to 10162
  140.7662  143.5655  150.9052 LP  0  0  0  0  0  0  0  0  0  0  0  0  # atno 17343 bound_to 10162
  156.1038  130.3654  150.0170 LP  0  0  0  0  0  0  0  0  0  0  0  0  # atno 17370 bound_to 10713
  156.8281  130.9382  151.3638 LP  0  0  0  0  0  0  0  0  0  0  0  0  # atno 17371 bound_to 10713
  139.9961  134.6909  155.9607 LP  0  0  0  0  0  0  0  0  0  0  0  0  # atno 17394 bound_to 11000
  141.1632  133.6538  156.4391 LP  0  0  0  0  0  0  0  0  0  0  0  0  # atno 17395 bound_to 11000

$$$$
