AV-unprocessed.smi:2762|AV-procd|sdf|10636|dock9
  -GOLD-   2272015 83D 1   1.00000     0.00000
 Structure written by MMmdl.
 39 40  0  0  0  0  0  0  0  0  1 V2000
  148.1682  132.9429  155.0564 O   0  0  0  0  0  0  0  0  0  0  0  0
  148.3577  133.7775  154.1711 C   0  0  0  0  0  0  0  0  0  0  0  0
  149.1897  134.8213  154.3020 N   0  0  0  0  0  0  0  0  0  0  0  0
  150.0209  135.0972  155.4697 C   0  0  0  0  0  0  0  0  0  0  0  0
  149.6806  136.4636  156.0971 C   0  0  0  0  0  0  0  0  0  0  0  0
  150.7064  137.4969  155.9555 N   0  0  0  0  0  0  0  0  0  0  0  0
  150.2115  138.8317  156.2857 C   0  0  0  0  0  0  0  0  0  0  0  0
  151.3048  139.9015  156.1229 C   0  0  0  0  0  0  0  0  0  0  0  0
  151.8161  139.8648  154.7943 O   0  0  0  0  0  0  0  0  0  0  0  0
  152.3459  138.5898  154.4459 C   0  0  0  0  0  0  0  0  0  0  0  0
  151.2543  137.5174  154.6042 C   0  0  0  0  0  0  0  0  0  0  0  0
  147.7734  133.7712  152.9601 N   0  0  0  0  0  0  0  0  0  0  0  0
  146.8878  132.8017  152.4184 C   0  0  0  0  0  0  0  0  0  0  0  0
  147.1971  131.4618  152.7434 C   0  0  0  0  0  0  0  0  0  0  0  0
  146.3754  130.4183  152.2632 C   0  0  0  0  0  0  0  0  0  0  0  0
  146.6746  128.9620  152.5828 C   0  0  0  0  0  0  0  0  0  0  0  0
  145.6118  128.3894  153.1486 F   0  0  0  0  0  0  0  0  0  0  0  0
  146.9614  128.3147  151.4539 F   0  0  0  0  0  0  0  0  0  0  0  0
  147.7080  128.8451  153.4176 F   0  0  0  0  0  0  0  0  0  0  0  0
  145.2679  130.7564  151.4604 C   0  0  0  0  0  0  0  0  0  0  0  0
  145.0315  132.1150  151.1842 C   0  0  0  0  0  0  0  0  0  0  0  0
  145.8150  133.1097  151.6486 N   0  0  0  0  0  0  0  0  0  0  0  0
  149.2788  135.4576  153.5235 H   0  0  0  0  0  0  0  0  0  0  0  0
  149.8170  134.3149  156.2009 H   0  0  0  0  0  0  0  0  0  0  0  0
  151.0821  135.0089  155.2346 H   0  0  0  0  0  0  0  0  0  0  0  0
  148.7545  136.8155  155.6404 H   0  0  0  0  0  0  0  0  0  0  0  0
  149.4527  136.3241  157.1549 H   0  0  0  0  0  0  0  0  0  0  0  0
  149.3638  139.0814  155.6459 H   0  0  0  0  0  0  0  0  0  0  0  0
  149.8463  138.8610  157.3111 H   0  0  0  0  0  0  0  0  0  0  0  0
  150.8982  140.8931  156.3220 H   0  0  0  0  0  0  0  0  0  0  0  0
  152.1135  139.7373  156.8368 H   0  0  0  0  0  0  0  0  0  0  0  0
  152.7016  138.6205  153.4160 H   0  0  0  0  0  0  0  0  0  0  0  0
  153.2064  138.3611  155.0765 H   0  0  0  0  0  0  0  0  0  0  0  0
  151.6727  136.5406  154.3595 H   0  0  0  0  0  0  0  0  0  0  0  0
  150.4566  137.7048  153.8837 H   0  0  0  0  0  0  0  0  0  0  0  0
  148.0104  134.5348  152.3445 H   0  0  0  0  0  0  0  0  0  0  0  0
  148.0587  131.2387  153.3557 H   0  0  0  0  0  0  0  0  0  0  0  0
  144.6142  129.9934  151.0644 H   0  0  0  0  0  0  0  0  0  0  0  0
  144.1913  132.4115  150.5739 H   0  0  0  0  0  0  0  0  0  0  0  0
  1  2  2  0  0  0  0
  2  3  1  0  0  0  0
  2 12  1  0  0  0  0
  3  4  1  0  0  0  0
  3 23  1  0  0  0  0
  4  5  1  0  0  0  0
  4 24  1  0  0  0  0
  4 25  1  0  0  0  0
  5  6  1  0  0  0  0
  5 26  1  0  0  0  0
  5 27  1  0  0  0  0
  6 11  1  0  0  0  0
  6  7  1  0  0  0  0
  7  8  1  0  0  0  0
  7 28  1  0  0  0  0
  7 29  1  0  0  0  0
  8  9  1  0  0  0  0
  8 30  1  0  0  0  0
  8 31  1  0  0  0  0
  9 10  1  0  0  0  0
 10 11  1  0  0  0  0
 10 32  1  0  0  0  0
 10 33  1  0  0  0  0
 11 34  1  0  0  0  0
 11 35  1  0  0  0  0
 12 13  1  0  0  0  0
 12 36  1  0  0  0  0
 13 22  1  0  0  0  0
 13 14  2  0  0  0  0
 14 15  1  0  0  0  0
 14 37  1  0  0  0  0
 15 16  1  0  0  0  0
 15 20  2  0  0  0  0
 16 17  1  0  0  0  0
 16 18  1  0  0  0  0
 16 19  1  0  0  0  0
 20 21  1  0  0  0  0
 20 38  1  0  0  0  0
 21 22  2  0  0  0  0
 21 39  1  0  0  0  0
M  END
> <s_m_source_file>
AV-unprocessed.smi

> <i_m_source_file_index>
2762

> <i_lp_mmshare_version>
43012

> <i_f3d_flags>
0

> <s_epik_input>
bjFbY0hdW2NIXWMoQyhGKShGKUYpW2NIXWMxW05IXUMoPU8pW05IXVtDSDJdW0NIMl1OMltDSDJdW0NIMl1PW0NIMl1bQ0gyXTI=

> <s_epik_cmdline>
J2VwaWtfcHl0aG9uJywgJy1waCcsICc3LjAnLCAnLXRuJywgJzgnLCAnLW1hJywgJzIwMCcsICctbWV0YWxfYmluZGluZycsICctaW1hZScsICc8aW5maWxlLm1hZT4nLCAnLW9tYWUnLCAnPG91dGZpbGUubWFlPic=

> <r_epik_Ionization_Penalty>
0.266026

> <r_epik_Ionization_Penalty_Charging>
0

> <r_epik_Ionization_Penalty_Neutral>
0.266026

> <r_epik_State_Penalty>
0.257924

> <r_epik_Charging_Adjusted_Penalty>
0.257924

> <i_epik_Tot_Q>
0

> <i_epik_Tot_abs_Q>
0

> <r_epik_Metal_State_Penalty>
0.257924

> <b_epik_Metal_Only>
0

> <s_lp_Force_Field>
OPLS_2005

> <r_lp_Energy>
26.9092

> <b_lp_Chiralities_Consistent>
1

> <s_lp_Variant>
AV-unprocessed.smi:2762-1

> <Gold.Version>
5.8.1

> <Gold.Id.Protein>
6NUR|6NUR_protein|mol2

> <Gold.PLP.Fitness>
44.5372

> <Gold.PLP.PLP>
-37.0864

> <Gold.PLP.part.hbond>
-3.0000

> <Gold.PLP.part.metal>
0.0000

> <Gold.PLP.part.buried>
-3.5276

> <Gold.PLP.part.nonpolar>
-30.6659

> <Gold.PLP.part.repulsive>
0.2497

> <Gold.PLP.ligand.clash>
0.0000

> <Gold.PLP.ligand.torsion>
0.8037

> <Gold.PLP.Chemscore.Hbond>
2.9920

> <Gold.PLP.Chemscore.CHOScore>
0.0000

> <Gold.PLP.Chemscore.Metal>
0.0000

> <Gold.Chemscore.Hbonds>
donor molecule, donor type, donor heavy atom, donor atom, acceptor molecule, acceptor atom, score
      L1  H     3    23       P1  7948  1.00
      L1  H    12    36       P1  7948  1.00
      P1  H  7989  7998       L1     9  0.99

> <Gold.PLP.Chemscore.Internal.Correction>
0.0822

> <Gold.Rescore>
     Score         DG    S(hbond)    S(metal)    S(lipo)     H(rot)  DE(clash)    DE(int)     intcor
     13.84     -16.09       1.92        0.00      71.54       1.63       0.02       2.23       ----

> <Gold.Chemscore.Fitness>
13.8441

> <Gold.Chemscore.DG>
-16.0896

> <Gold.Chemscore.ZeroCoef>
-5.4800

> <Gold.Chemscore.Hbond>
1.9172

> <Gold.Chemscore.Metal>
0.0000

> <Gold.Chemscore.Lipo>
71.5364

> <Gold.Chemscore.Internal_Hbond>
0.0000

> <Gold.Chemscore.DEClash>
0.0202

> <Gold.Chemscore.DEInternal>
2.2252

> <Gold.Chemscore.Rot>
1.6265

> <Gold.Chemscore.Internal.Correction>
   9.000000E+99

> <Gold.Chemscore.Hbonds>
donor molecule, donor type, donor heavy atom, donor atom, acceptor molecule, acceptor atom, score
      L1  H     3    23       P1  7948  0.34
      L1  H    12    36       P1  7948  0.34
      P1  H  7989  7998       L1     9  0.80

> <Gold.Chemscore.Hbond.Weighted>
-6.4036

> <Gold.Chemscore.Metal.Weighted>
-0.0000

> <Gold.Chemscore.Lipo.Weighted>
-8.3698

> <Gold.Chemscore.Internal_Hbond.Weighted>
0.0000

> <Gold.Chemscore.DEClash.Weighted>
0.0202

> <Gold.Chemscore.DEInternal.Weighted>
2.2252

> <Gold.Chemscore.Rot.Weighted>
4.1638

> <Gold.Chemscore.Internal.Correction.Weighted>
   9.000000E+99

> <Gold.Protein.RotatedTorsions>
[ 6907 6896 6895 6894 ] final   -7.39 input  -60.11 | X-H torsion
[ 7974 7965 7964 7962 ] final  130.68 input  175.53 | X-H torsion
[ 8008 7997 7996 7995 ] final   56.81 input   59.86 | X-H torsion
[ 10167 10162 10161 10158 ] final  117.50 input  -65.29 | X-H torsion
[ 10718 10713 10712 10709 ] final   77.20 input   66.30 | X-H torsion
[ 10763 10752 10751 10750 ] final  -83.31 input  -60.55 | X-H torsion
[ 11005 11000 10999 10996 ] final -124.09 input  -57.11 | X-H torsion

> <Gold.Protein.ActiveResidues>
 VAL166  LYS551  ARG553  GLY616  TRP617  ASP618  TYR619  PRO620  LYS621  CYS622 
 ASP623  PHE694  ASN695  SER759  ASP760  ASP761  ALA762  ILE779  LEU786  VAL792 
 PHE793  MET794  SER795  GLU796  ALA797  LYS798  CYS799  TRP800  GLU811  SER814 

> <Gold.Protein.RotatedAtoms>
  151.4504  135.1029  159.9695 H   0  0  0  0  0  0  0  0  0  0  0  0  # atno 6907 bound_to 6896
  152.4890  133.8445  159.7180 H   0  0  0  0  0  0  0  0  0  0  0  0  # atno 6908 bound_to 6896
  150.9026  133.7039  159.2902 H   0  0  0  0  0  0  0  0  0  0  0  0  # atno 6909 bound_to 6896
  145.0153  139.4182  143.5224 H   0  0  0  0  0  0  0  0  0  0  0  0  # atno 7974 bound_to 7965
  155.5236  140.3480  155.4412 H   0  0  0  0  0  0  0  0  0  0  0  0  # atno 8008 bound_to 7997
  156.0767  140.1376  156.9789 H   0  0  0  0  0  0  0  0  0  0  0  0  # atno 8009 bound_to 7997
  154.4557  140.0954  156.6726 H   0  0  0  0  0  0  0  0  0  0  0  0  # atno 8010 bound_to 7997
  139.6174  144.7094  151.2709 H   0  0  0  0  0  0  0  0  0  0  0  0  # atno 10167 bound_to 10162
  157.6702  130.9810  150.1607 H   0  0  0  0  0  0  0  0  0  0  0  0  # atno 10718 bound_to 10713
  154.5862  135.5560  153.7233 H   0  0  0  0  0  0  0  0  0  0  0  0  # atno 10763 bound_to 10752
  153.0099  135.6332  154.1914 H   0  0  0  0  0  0  0  0  0  0  0  0  # atno 10764 bound_to 10752
  154.1854  135.2885  155.3019 H   0  0  0  0  0  0  0  0  0  0  0  0  # atno 10765 bound_to 10752
  140.9869  134.0595  157.3701 H   0  0  0  0  0  0  0  0  0  0  0  0  # atno 11005 bound_to 11000
  146.3477  139.9620  142.8716 LP  0  0  0  0  0  0  0  0  0  0  0  0  # atno 17320 bound_to 7965
  145.1968  140.9836  143.4179 LP  0  0  0  0  0  0  0  0  0  0  0  0  # atno 17321 bound_to 7965
  140.7360  143.6721  150.8073 LP  0  0  0  0  0  0  0  0  0  0  0  0  # atno 17342 bound_to 10162
  140.0326  143.5428  152.2753 LP  0  0  0  0  0  0  0  0  0  0  0  0  # atno 17343 bound_to 10162
  156.2384  130.3688  149.8365 LP  0  0  0  0  0  0  0  0  0  0  0  0  # atno 17370 bound_to 10713
  156.6172  130.8611  151.3467 LP  0  0  0  0  0  0  0  0  0  0  0  0  # atno 17371 bound_to 10713
  139.8974  135.0150  156.7100 LP  0  0  0  0  0  0  0  0  0  0  0  0  # atno 17394 bound_to 11000
  140.7101  133.9230  155.8079 LP  0  0  0  0  0  0  0  0  0  0  0  0  # atno 17395 bound_to 11000

$$$$
