AV-unprocessed.smi:2418|AV-procd|sdf|9551|dock5
  -GOLD-   2272013183D 1   1.00000     0.00000
 Structure written by MMmdl.
 34 35  0  0  0  0  0  0  0  0  1 V2000
  145.5432  142.1666  156.2691 C   0  0  0  0  0  0  0  0  0  0  0  0
  147.0370  141.9362  156.1256 C   0  0  0  0  0  0  0  0  0  0  0  0
  147.7887  142.1002  157.2928 N   0  0  0  0  0  0  0  0  0  0  0  0
  149.0702  141.9305  157.2638 C   0  0  0  0  0  0  0  0  0  0  0  0
  149.7408  141.5759  156.0819 N   0  0  0  0  0  0  0  0  0  0  0  0
  151.2020  141.4215  156.1814 C   0  0  0  0  0  0  0  0  0  0  0  0
  151.6153  140.5278  157.3718 C   0  0  1  0  0  0  0  0  0  0  0  0
  152.5779  139.5934  156.9215 O   0  0  0  0  0  0  0  0  0  0  0  0
  152.1490  141.3694  158.5242 C   0  0  0  0  0  0  0  0  0  0  0  0
  151.9532  142.7691  158.5396 C   0  0  0  0  0  0  0  0  0  0  0  0
  152.4413  143.5454  159.6084 C   0  0  0  0  0  0  0  0  0  0  0  0
  152.2519  144.8859  159.6131 F   0  0  0  0  0  0  0  0  0  0  0  0
  153.1244  142.9279  160.6728 C   0  0  0  0  0  0  0  0  0  0  0  0
  153.3158  141.5333  160.6689 C   0  0  0  0  0  0  0  0  0  0  0  0
  152.8287  140.7546  159.6008 C   0  0  0  0  0  0  0  0  0  0  0  0
  153.0161  139.4130  159.6190 F   0  0  0  0  0  0  0  0  0  0  0  0
  149.0840  141.3963  154.8995 C   0  0  0  0  0  0  0  0  0  0  0  0
  149.6832  141.0913  153.8664 O   0  0  0  0  0  0  0  0  0  0  0  0
  147.6267  141.5968  154.9468 C   0  0  0  0  0  0  0  0  0  0  0  0
  146.8607  141.4101  153.6431 C   0  0  0  0  0  0  0  0  0  0  0  0
  144.9885  141.2721  155.9847 H   0  0  0  0  0  0  0  0  0  0  0  0
  145.2228  142.9931  155.6340 H   0  0  0  0  0  0  0  0  0  0  0  0
  145.2753  142.4118  157.2978 H   0  0  0  0  0  0  0  0  0  0  0  0
  149.7031  142.0555  158.1441 H   0  0  0  0  0  0  0  0  0  0  0  0
  151.6479  141.0565  155.2536 H   0  0  0  0  0  0  0  0  0  0  0  0
  151.6346  142.4155  156.3128 H   0  0  0  0  0  0  0  0  0  0  0  0
  150.7588  139.9556  157.7291 H   0  0  0  0  0  0  0  0  0  0  0  0
  152.1840  138.7342  156.9224 H   0  0  0  0  0  0  0  0  0  0  0  0
  151.4253  143.2538  157.7312 H   0  0  0  0  0  0  0  0  0  0  0  0
  153.4990  143.5224  161.4930 H   0  0  0  0  0  0  0  0  0  0  0  0
  153.8358  141.0587  161.4880 H   0  0  0  0  0  0  0  0  0  0  0  0
  147.2316  142.1034  152.8871 H   0  0  0  0  0  0  0  0  0  0  0  0
  145.7900  141.5797  153.7452 H   0  0  0  0  0  0  0  0  0  0  0  0
  146.9983  140.3954  153.2680 H   0  0  0  0  0  0  0  0  0  0  0  0
  1  2  1  0  0  0  0
  1 21  1  0  0  0  0
  1 22  1  0  0  0  0
  1 23  1  0  0  0  0
  2 19  2  0  0  0  0
  2  3  1  0  0  0  0
  3  4  2  0  0  0  0
  4  5  1  0  0  0  0
  4 24  1  0  0  0  0
  5  6  1  0  0  0  0
  5 17  1  0  0  0  0
  6  7  1  0  0  0  0
  6 25  1  0  0  0  0
  6 26  1  0  0  0  0
  7  8  1  0  0  0  0
  7  9  1  0  0  0  0
  7 27  1  0  0  0  0
  8 28  1  0  0  0  0
  9 15  1  0  0  0  0
  9 10  2  0  0  0  0
 10 11  1  0  0  0  0
 10 29  1  0  0  0  0
 11 12  1  0  0  0  0
 11 13  2  0  0  0  0
 13 14  1  0  0  0  0
 13 30  1  0  0  0  0
 14 15  2  0  0  0  0
 14 31  1  0  0  0  0
 15 16  1  0  0  0  0
 17 18  2  0  0  0  0
 17 19  1  0  0  0  0
 19 20  1  0  0  0  0
 20 32  1  0  0  0  0
 20 33  1  0  0  0  0
 20 34  1  0  0  0  0
M  END
> <s_m_source_file>
AV-unprocessed.smi

> <i_m_source_file_index>
2418

> <i_lp_mmshare_version>
43012

> <i_f3d_flags>
0

> <s_epik_input>
W0NIM11jMW5bY0hdbihjKD1PKWMxW0NIM10pW0NIMl1bQ0BIXShbT0hdKWMyW2NIXWMoRilbY0hdW2NIXWMyRg==

> <s_epik_cmdline>
J2VwaWtfcHl0aG9uJywgJy1waCcsICc3LjAnLCAnLXRuJywgJzgnLCAnLW1hJywgJzIwMCcsICctbWV0YWxfYmluZGluZycsICctaW1hZScsICc8aW5maWxlLm1hZT4nLCAnLW9tYWUnLCAnPG91dGZpbGUubWFlPic=

> <r_lp_tautomer_probability>
1

> <r_epik_Ionization_Penalty>
5.08222e-05

> <r_epik_Ionization_Penalty_Charging>
7.56727e-08

> <r_epik_Ionization_Penalty_Neutral>
5.07465e-05

> <r_epik_State_Penalty>
-0

> <r_epik_Charging_Adjusted_Penalty>
7.56727e-08

> <i_epik_Tot_Q>
0

> <i_epik_Tot_abs_Q>
0

> <r_epik_Metal_State_Penalty>
-0

> <b_epik_Metal_Only>
0

> <s_lp_Force_Field>
OPLS_2005

> <r_lp_Energy>
18.8119

> <b_lp_Chiralities_Consistent>
1

> <s_lp_Variant>
AV-unprocessed.smi:2418-2

> <Gold.Version>
5.8.1

> <Gold.Id.Protein>
6NUR|6NUR_protein|mol2

> <Gold.PLP.Fitness>
47.1723

> <Gold.PLP.PLP>
-42.6320

> <Gold.PLP.part.hbond>
-3.0000

> <Gold.PLP.part.metal>
0.0000

> <Gold.PLP.part.buried>
-4.9832

> <Gold.PLP.part.nonpolar>
-36.1411

> <Gold.PLP.part.repulsive>
1.8136

> <Gold.PLP.ligand.clash>
0.0000

> <Gold.PLP.ligand.torsion>
1.0818

> <Gold.PLP.Chemscore.Hbond>
2.2320

> <Gold.PLP.Chemscore.CHOScore>
0.0000

> <Gold.PLP.Chemscore.Metal>
0.0000

> <Gold.Chemscore.Hbonds>
donor molecule, donor type, donor heavy atom, donor atom, acceptor molecule, acceptor atom, score
      P1  H  7989  7998       L1    18  0.35
      P1  H  7997  8008       L1     8  1.00
      P1  H  8011  8017       L1    18  0.88

> <Gold.PLP.Chemscore.Internal.Correction>
0.0080

> <Gold.Rescore>
     Score         DG    S(hbond)    S(metal)    S(lipo)     H(rot)  DE(clash)    DE(int)     intcor
     15.06     -18.09       2.13        0.00      93.19       2.11       0.58       2.45       ----

> <Gold.Chemscore.Fitness>
15.0570

> <Gold.Chemscore.DG>
-18.0887

> <Gold.Chemscore.ZeroCoef>
-5.4800

> <Gold.Chemscore.Hbond>
2.1279

> <Gold.Chemscore.Metal>
0.0000

> <Gold.Chemscore.Lipo>
93.1852

> <Gold.Chemscore.Internal_Hbond>
0.0000

> <Gold.Chemscore.DEClash>
0.5790

> <Gold.Chemscore.DEInternal>
2.4527

> <Gold.Chemscore.Rot>
2.1097

> <Gold.Chemscore.Internal.Correction>
   9.000000E+99

> <Gold.Chemscore.Hbonds>
donor molecule, donor type, donor heavy atom, donor atom, acceptor molecule, acceptor atom, score
      P1  H  7989  7998       L1    18  0.35
      P1  H  7997  8008       L1     8  0.99
      P1  H  8011  8017       L1    18  0.79

> <Gold.Chemscore.Hbond.Weighted>
-7.1070

> <Gold.Chemscore.Metal.Weighted>
-0.0000

> <Gold.Chemscore.Lipo.Weighted>
-10.9027

> <Gold.Chemscore.Internal_Hbond.Weighted>
0.0000

> <Gold.Chemscore.DEClash.Weighted>
0.5790

> <Gold.Chemscore.DEInternal.Weighted>
2.4527

> <Gold.Chemscore.Rot.Weighted>
5.4009

> <Gold.Chemscore.Internal.Correction.Weighted>
   9.000000E+99

> <Gold.Protein.RotatedTorsions>
[ 6907 6896 6895 6894 ] final  -42.27 input  -60.11 | X-H torsion
[ 7974 7965 7964 7962 ] final  129.29 input  175.53 | X-H torsion
[ 8008 7997 7996 7995 ] final  -49.52 input   59.86 | X-H torsion
[ 10167 10162 10161 10158 ] final  -58.09 input  -65.29 | X-H torsion
[ 10718 10713 10712 10709 ] final   62.91 input   66.30 | X-H torsion
[ 10763 10752 10751 10750 ] final  104.15 input  -60.55 | X-H torsion
[ 11005 11000 10999 10996 ] final  -85.65 input  -57.11 | X-H torsion

> <Gold.Protein.ActiveResidues>
 VAL166  LYS551  ARG553  GLY616  TRP617  ASP618  TYR619  PRO620  LYS621  CYS622 
 ASP623  PHE694  ASN695  SER759  ASP760  ASP761  ALA762  ILE779  LEU786  VAL792 
 PHE793  MET794  SER795  GLU796  ALA797  LYS798  CYS799  TRP800  GLU811  SER814 

> <Gold.Protein.RotatedAtoms>
  150.9572  134.8964  159.7707 H   0  0  0  0  0  0  0  0  0  0  0  0  # atno 6907 bound_to 6896
  152.5142  134.3724  159.9332 H   0  0  0  0  0  0  0  0  0  0  0  0  # atno 6908 bound_to 6896
  151.3737  133.3805  159.2737 H   0  0  0  0  0  0  0  0  0  0  0  0  # atno 6909 bound_to 6896
  145.0302  139.4053  143.5153 H   0  0  0  0  0  0  0  0  0  0  0  0  # atno 7974 bound_to 7965
  154.4045  140.1295  156.4515 H   0  0  0  0  0  0  0  0  0  0  0  0  # atno 8008 bound_to 7997
  155.7361  140.3490  155.5062 H   0  0  0  0  0  0  0  0  0  0  0  0  # atno 8009 bound_to 7997
  155.9082  140.1031  157.1289 H   0  0  0  0  0  0  0  0  0  0  0  0  # atno 8010 bound_to 7997
  140.6218  143.2422  151.5461 H   0  0  0  0  0  0  0  0  0  0  0  0  # atno 10167 bound_to 10162
  157.5934  130.9076  149.9648 H   0  0  0  0  0  0  0  0  0  0  0  0  # atno 10718 bound_to 10713
  153.3621  135.3953  155.1726 H   0  0  0  0  0  0  0  0  0  0  0  0  # atno 10763 bound_to 10752
  154.8681  135.3682  154.5086 H   0  0  0  0  0  0  0  0  0  0  0  0  # atno 10764 bound_to 10752
  153.5546  135.7082  153.5636 H   0  0  0  0  0  0  0  0  0  0  0  0  # atno 10765 bound_to 10752
  141.1639  133.7411  156.9046 H   0  0  0  0  0  0  0  0  0  0  0  0  # atno 11005 bound_to 11000
  146.3497  139.9848  142.8692 LP  0  0  0  0  0  0  0  0  0  0  0  0  # atno 17320 bound_to 7965
  145.1780  140.9753  143.4283 LP  0  0  0  0  0  0  0  0  0  0  0  0  # atno 17321 bound_to 7965
  139.5445  144.2557  152.1416 LP  0  0  0  0  0  0  0  0  0  0  0  0  # atno 17342 bound_to 10162
  140.1779  144.4873  150.6544 LP  0  0  0  0  0  0  0  0  0  0  0  0  # atno 17343 bound_to 10162
  156.0993  130.3657  150.0248 LP  0  0  0  0  0  0  0  0  0  0  0  0  # atno 17370 bound_to 10713
  156.8366  130.9411  151.3634 LP  0  0  0  0  0  0  0  0  0  0  0  0  # atno 17371 bound_to 10713
  140.1559  134.9199  157.2652 LP  0  0  0  0  0  0  0  0  0  0  0  0  # atno 17394 bound_to 11000
  140.2668  134.3506  155.7387 LP  0  0  0  0  0  0  0  0  0  0  0  0  # atno 17395 bound_to 11000

$$$$
