AV-unprocessed.smi:2323|AV-procd|sdf|9290|dock1
  -GOLD-   2272012513D 1   1.00000     0.00000
 Structure written by MMmdl.
 30 31  0  0  0  0  0  0  0  0  1 V2000
  147.0084  142.2663  154.3097 C   0  0  0  0  0  0  0  0  0  0  0  0
  148.1322  141.9269  155.1687 N   0  0  0  0  0  0  0  0  0  0  0  0
  149.2733  141.3697  154.7354 C   0  0  0  0  0  0  0  0  0  0  0  0
  149.4946  141.1103  153.5521 O   0  0  0  0  0  0  0  0  0  0  0  0
  150.3210  141.1336  155.7855 C   0  0  0  0  0  0  0  0  0  0  0  0
  151.3532  140.1956  155.5665 C   0  0  0  0  0  0  0  0  0  0  0  0
  152.3035  139.9862  156.5837 C   0  0  0  0  0  0  0  0  0  0  0  0
  152.2770  140.6333  157.7670 N   0  0  0  0  0  0  0  0  0  0  0  0
  151.2819  141.5274  157.9873 C   0  0  0  0  0  0  0  0  0  0  0  0
  151.2329  142.1938  159.1958 O   0  0  0  0  0  0  0  0  0  0  0  0
  152.3325  143.0154  159.5939 C   0  0  1  0  0  0  0  0  0  0  0  0
  152.4472  144.2463  158.7031 C   0  0  0  0  0  0  0  0  0  0  0  0
  151.5397  145.2462  159.4039 C   0  0  0  0  0  0  0  0  0  0  0  0
  151.8157  145.0134  160.7742 O   0  0  0  0  0  0  0  0  0  0  0  0
  152.0033  143.6149  160.9697 C   0  0  0  0  0  0  0  0  0  0  0  0
  150.2848  141.8043  157.0300 C   0  0  0  0  0  0  0  0  0  0  0  0
  146.2131  142.7211  154.9001 H   0  0  0  0  0  0  0  0  0  0  0  0
  146.6073  141.3748  153.8260 H   0  0  0  0  0  0  0  0  0  0  0  0
  147.3089  142.9765  153.5383 H   0  0  0  0  0  0  0  0  0  0  0  0
  148.0409  142.1279  156.1541 H   0  0  0  0  0  0  0  0  0  0  0  0
  151.4227  139.6457  154.6388 H   0  0  0  0  0  0  0  0  0  0  0  0
  153.1065  139.2777  156.4437 H   0  0  0  0  0  0  0  0  0  0  0  0
  153.2634  142.4477  159.6416 H   0  0  0  0  0  0  0  0  0  0  0  0
  153.4738  144.6148  158.7138 H   0  0  0  0  0  0  0  0  0  0  0  0
  152.1638  144.0715  157.6650 H   0  0  0  0  0  0  0  0  0  0  0  0
  151.7461  146.2783  159.1199 H   0  0  0  0  0  0  0  0  0  0  0  0
  150.4896  145.0317  159.1988 H   0  0  0  0  0  0  0  0  0  0  0  0
  151.0985  143.1753  161.3922 H   0  0  0  0  0  0  0  0  0  0  0  0
  152.8135  143.4559  161.6821 H   0  0  0  0  0  0  0  0  0  0  0  0
  149.5079  142.5185  157.2609 H   0  0  0  0  0  0  0  0  0  0  0  0
  1  2  1  0  0  0  0
  1 17  1  0  0  0  0
  1 18  1  0  0  0  0
  1 19  1  0  0  0  0
  2  3  1  0  0  0  0
  2 20  1  0  0  0  0
  3  4  2  0  0  0  0
  3  5  1  0  0  0  0
  5 16  1  0  0  0  0
  5  6  2  0  0  0  0
  6  7  1  0  0  0  0
  6 21  1  0  0  0  0
  7  8  2  0  0  0  0
  7 22  1  0  0  0  0
  8  9  1  0  0  0  0
  9 10  1  0  0  0  0
  9 16  2  0  0  0  0
 10 11  1  0  0  0  0
 11 15  1  0  0  0  0
 11 12  1  0  0  0  0
 11 23  1  0  0  0  0
 12 13  1  0  0  0  0
 12 24  1  0  0  0  0
 12 25  1  0  0  0  0
 13 14  1  0  0  0  0
 13 26  1  0  0  0  0
 13 27  1  0  0  0  0
 14 15  1  0  0  0  0
 15 28  1  0  0  0  0
 15 29  1  0  0  0  0
 16 30  1  0  0  0  0
M  END
> <s_m_source_file>
AV-unprocessed.smi

> <i_m_source_file_index>
2323

> <i_lp_mmshare_version>
43012

> <i_f3d_flags>
0

> <s_epik_input>
W0NIM11bTkhdQyg9TyljMVtjSF1bY0hdbmMoW2NIXTEpT1tDQEBIXTJbQ0gyXVtDSDJdT1tDSDJdMg==

> <s_epik_cmdline>
J2VwaWtfcHl0aG9uJywgJy1waCcsICc3LjAnLCAnLXRuJywgJzgnLCAnLW1hJywgJzIwMCcsICctbWV0YWxfYmluZGluZycsICctaW1hZScsICc8aW5maWxlLm1hZT4nLCAnLW9tYWUnLCAnPG91dGZpbGUubWFlPic=

> <r_lp_tautomer_probability>
1

> <r_epik_Ionization_Penalty>
2.2633e-06

> <r_epik_Ionization_Penalty_Charging>
0

> <r_epik_Ionization_Penalty_Neutral>
2.2633e-06

> <r_epik_State_Penalty>
-0

> <r_epik_Charging_Adjusted_Penalty>
0

> <i_epik_Tot_Q>
0

> <i_epik_Tot_abs_Q>
0

> <r_epik_Metal_State_Penalty>
-0

> <b_epik_Metal_Only>
0

> <s_lp_Force_Field>
OPLS_2005

> <r_lp_Energy>
16.8838

> <b_lp_Chiralities_Consistent>
1

> <s_lp_Variant>
AV-unprocessed.smi:2323-2

> <Gold.Version>
5.8.1

> <Gold.Id.Protein>
6NUR|6NUR_protein|mol2

> <Gold.PLP.Fitness>
40.7002

> <Gold.PLP.PLP>
-37.4622

> <Gold.PLP.part.hbond>
-3.0000

> <Gold.PLP.part.metal>
0.0000

> <Gold.PLP.part.buried>
-3.4870

> <Gold.PLP.part.nonpolar>
-33.3725

> <Gold.PLP.part.repulsive>
3.8608

> <Gold.PLP.ligand.clash>
0.0000

> <Gold.PLP.ligand.torsion>
0.2064

> <Gold.PLP.Chemscore.Hbond>
1.2080

> <Gold.PLP.Chemscore.CHOScore>
0.0000

> <Gold.PLP.Chemscore.Metal>
0.0000

> <Gold.Chemscore.Hbonds>
donor molecule, donor type, donor heavy atom, donor atom, acceptor molecule, acceptor atom, score
      P1  H  7989  7998       L1     4  0.19
      P1  H  8011  8017       L1     4  1.00

> <Gold.PLP.Chemscore.Internal.Correction>
0.0268

> <Gold.Rescore>
     Score         DG    S(hbond)    S(metal)    S(lipo)     H(rot)  DE(clash)    DE(int)     intcor
     13.50     -15.21       0.98        0.00      82.55       1.24       1.49       0.22       ----

> <Gold.Chemscore.Fitness>
13.4978

> <Gold.Chemscore.DG>
-15.2093

> <Gold.Chemscore.ZeroCoef>
-5.4800

> <Gold.Chemscore.Hbond>
0.9752

> <Gold.Chemscore.Metal>
0.0000

> <Gold.Chemscore.Lipo>
82.5527

> <Gold.Chemscore.Internal_Hbond>
0.0000

> <Gold.Chemscore.DEClash>
1.4896

> <Gold.Chemscore.DEInternal>
0.2219

> <Gold.Chemscore.Rot>
1.2448

> <Gold.Chemscore.Internal.Correction>
   9.000000E+99

> <Gold.Chemscore.Hbonds>
donor molecule, donor type, donor heavy atom, donor atom, acceptor molecule, acceptor atom, score
      P1  H  7989  7998       L1     4  0.09
      P1  H  8011  8017       L1     4  0.94

> <Gold.Chemscore.Hbond.Weighted>
-3.2572

> <Gold.Chemscore.Metal.Weighted>
-0.0000

> <Gold.Chemscore.Lipo.Weighted>
-9.6587

> <Gold.Chemscore.Internal_Hbond.Weighted>
0.0000

> <Gold.Chemscore.DEClash.Weighted>
1.4896

> <Gold.Chemscore.DEInternal.Weighted>
0.2219

> <Gold.Chemscore.Rot.Weighted>
3.1866

> <Gold.Chemscore.Internal.Correction.Weighted>
   9.000000E+99

> <Gold.Protein.RotatedTorsions>
[ 6907 6896 6895 6894 ] final -139.42 input  -60.11 | X-H torsion
[ 7974 7965 7964 7962 ] final  150.31 input  175.53 | X-H torsion
[ 8008 7997 7996 7995 ] final  -53.23 input   59.86 | X-H torsion
[ 10167 10162 10161 10158 ] final   45.87 input  -65.29 | X-H torsion
[ 10718 10713 10712 10709 ] final  -72.28 input   66.30 | X-H torsion
[ 10763 10752 10751 10750 ] final  104.72 input  -60.55 | X-H torsion
[ 11005 11000 10999 10996 ] final  110.73 input  -57.11 | X-H torsion

> <Gold.Protein.ActiveResidues>
 VAL166  LYS551  ARG553  GLY616  TRP617  ASP618  TYR619  PRO620  LYS621  CYS622 
 ASP623  PHE694  ASN695  SER759  ASP760  ASP761  ALA762  ILE779  LEU786  VAL792 
 PHE793  MET794  SER795  GLU796  ALA797  LYS798  CYS799  TRP800  GLU811  SER814 

> <Gold.Protein.RotatedAtoms>
  151.0476  133.5652  159.2644 H   0  0  0  0  0  0  0  0  0  0  0  0  # atno 6907 bound_to 6896
  151.2674  135.0673  159.9131 H   0  0  0  0  0  0  0  0  0  0  0  0  # atno 6908 bound_to 6896
  152.5376  134.0212  159.8036 H   0  0  0  0  0  0  0  0  0  0  0  0  # atno 6909 bound_to 6896
  144.8373  139.6392  143.6032 H   0  0  0  0  0  0  0  0  0  0  0  0  # atno 7974 bound_to 7965
  154.4128  140.1205  156.5121 H   0  0  0  0  0  0  0  0  0  0  0  0  # atno 8008 bound_to 7997
  155.6789  140.3496  155.4828 H   0  0  0  0  0  0  0  0  0  0  0  0  # atno 8009 bound_to 7997
  155.9569  140.1115  157.0919 H   0  0  0  0  0  0  0  0  0  0  0  0  # atno 8010 bound_to 7997
  140.3197  144.2720  150.6185 H   0  0  0  0  0  0  0  0  0  0  0  0  # atno 10167 bound_to 10162
  156.0327  130.4369  150.2569 H   0  0  0  0  0  0  0  0  0  0  0  0  # atno 10718 bound_to 10713
  153.3697  135.3933  155.1780 H   0  0  0  0  0  0  0  0  0  0  0  0  # atno 10763 bound_to 10752
  154.8692  135.3699  154.4993 H   0  0  0  0  0  0  0  0  0  0  0  0  # atno 10764 bound_to 10752
  153.5460  135.7083  153.5674 H   0  0  0  0  0  0  0  0  0  0  0  0  # atno 10765 bound_to 10752
  139.8888  134.9491  156.6324 H   0  0  0  0  0  0  0  0  0  0  0  0  # atno 11005 bound_to 11000
  146.2671  139.6545  142.9322 LP  0  0  0  0  0  0  0  0  0  0  0  0  # atno 17320 bound_to 7965
  145.4767  141.0437  143.2668 LP  0  0  0  0  0  0  0  0  0  0  0  0  # atno 17321 bound_to 7965
  140.5494  143.2209  151.7952 LP  0  0  0  0  0  0  0  0  0  0  0  0  # atno 17342 bound_to 10162
  139.4877  144.4496  151.9670 LP  0  0  0  0  0  0  0  0  0  0  0  0  # atno 17343 bound_to 10162
  157.0671  131.0106  151.3203 LP  0  0  0  0  0  0  0  0  0  0  0  0  # atno 17370 bound_to 10713
  157.5027  130.7890  149.7622 LP  0  0  0  0  0  0  0  0  0  0  0  0  # atno 17371 bound_to 10713
  140.7656  133.8781  155.8452 LP  0  0  0  0  0  0  0  0  0  0  0  0  # atno 17394 bound_to 11000
  140.9885  134.1311  157.4430 LP  0  0  0  0  0  0  0  0  0  0  0  0  # atno 17395 bound_to 11000

$$$$
