AV-unprocessed.smi:3181|AV-procd|sdf|12141|dock7
  -GOLD-   2272017583D 1   1.00000     0.00000
 Structure written by MMmdl.
 42 43  0  0  0  0  0  0  0  0  2 V2000
  151.2316  140.3532  155.8270 C   0  0  0  0  0  0  0  0  0  0  0  0
  150.1620  141.4532  155.9339 C   0  0  2  0  0  0  0  0  0  0  0  0
  149.4005  141.6846  154.6079 C   0  0  0  0  0  0  0  0  0  0  0  0
  148.5238  140.5822  154.2577 N   0  0  0  0  0  0  0  0  0  0  0  0
  147.2135  140.5630  154.0082 C   0  0  0  0  0  0  0  0  0  0  0  0
  146.7418  139.3588  153.7186 N   0  0  0  0  0  0  0  0  0  0  0  0
  147.8959  138.6329  153.8093 C   0  0  0  0  0  0  0  0  0  0  0  0
  148.9936  139.3194  154.1280 N   0  0  0  0  0  0  0  0  0  0  0  0
  150.7971  142.7010  156.4185 N   0  3  0  0  0  0  0  0  0  0  0  0
  150.9309  142.8396  157.8866 C   0  0  1  0  0  0  0  0  0  0  0  0
  151.9743  141.8443  158.4150 C   0  0  0  0  0  0  0  0  0  0  0  0
  152.1428  141.9813  159.9345 C   0  0  0  0  0  0  0  0  0  0  0  0
  152.5329  143.4153  160.3480 C   0  0  2  0  0  0  0  0  0  0  0  0
  152.6872  143.4928  161.8773 C   0  0  0  0  0  0  0  0  0  0  0  0
  151.5148  144.4454  159.7895 C   0  0  1  0  0  0  0  0  0  0  0  0
  151.8994  145.9007  160.1106 C   0  0  0  0  0  0  0  0  0  0  0  0
  151.3443  144.2737  158.2655 C   0  0  0  0  0  0  0  0  0  0  0  0
  150.7914  139.3841  155.5907 H   0  0  0  0  0  0  0  0  0  0  0  0
  151.7699  140.2377  156.7684 H   0  0  0  0  0  0  0  0  0  0  0  0
  151.9629  140.5853  155.0522 H   0  0  0  0  0  0  0  0  0  0  0  0
  149.4484  141.1302  156.6935 H   0  0  0  0  0  0  0  0  0  0  0  0
  148.7842  142.5814  154.6705 H   0  0  0  0  0  0  0  0  0  0  0  0
  150.1042  141.8462  153.7892 H   0  0  0  0  0  0  0  0  0  0  0  0
  146.5923  141.4461  154.0415 H   0  0  0  0  0  0  0  0  0  0  0  0
  147.9277  137.5672  153.6361 H   0  0  0  0  0  0  0  0  0  0  0  0
  151.7326  142.7169  156.0382 H   0  0  0  0  0  0  0  0  0  0  0  0
  149.9762  142.6071  158.3617 H   0  0  0  0  0  0  0  0  0  0  0  0
  151.6755  140.8237  158.1716 H   0  0  0  0  0  0  0  0  0  0  0  0
  152.9348  142.0114  157.9251 H   0  0  0  0  0  0  0  0  0  0  0  0
  151.2135  141.6949  160.4290 H   0  0  0  0  0  0  0  0  0  0  0  0
  152.9011  141.2762  160.2773 H   0  0  0  0  0  0  0  0  0  0  0  0
  153.5083  143.6312  159.9089 H   0  0  0  0  0  0  0  0  0  0  0  0
  151.7294  143.3573  162.3809 H   0  0  0  0  0  0  0  0  0  0  0  0
  153.1019  144.4489  162.1954 H   0  0  0  0  0  0  0  0  0  0  0  0
  153.3640  142.7194  162.2415 H   0  0  0  0  0  0  0  0  0  0  0  0
  150.5464  144.2526  160.2541 H   0  0  0  0  0  0  0  0  0  0  0  0
  152.8947  146.1403  159.7350 H   0  0  0  0  0  0  0  0  0  0  0  0
  151.8890  146.0957  161.1826 H   0  0  0  0  0  0  0  0  0  0  0  0
  151.1975  146.6011  159.6569 H   0  0  0  0  0  0  0  0  0  0  0  0
  152.2794  144.5292  157.7641 H   0  0  0  0  0  0  0  0  0  0  0  0
  150.6028  144.9847  157.9014 H   0  0  0  0  0  0  0  0  0  0  0  0
  150.2967  143.4988  156.0530 H   0  0  0  0  0  0  0  0  0  0  0  0
  1  2  1  0  0  0  0
  1 18  1  0  0  0  0
  1 19  1  0  0  0  0
  1 20  1  0  0  0  0
  2  3  1  0  0  0  0
  2  9  1  0  0  0  0
  2 21  1  0  0  0  0
  3  4  1  0  0  0  0
  3 22  1  0  0  0  0
  3 23  1  0  0  0  0
  4  8  1  0  0  0  0
  4  5  1  0  0  0  0
  5  6  2  0  0  0  0
  5 24  1  0  0  0  0
  6  7  1  0  0  0  0
  7  8  2  0  0  0  0
  7 25  1  0  0  0  0
  9 10  1  0  0  0  0
  9 26  1  0  0  0  0
  9 42  1  0  0  0  0
 10 17  1  0  0  0  0
 10 11  1  0  0  0  0
 10 27  1  0  0  0  0
 11 12  1  0  0  0  0
 11 28  1  0  0  0  0
 11 29  1  0  0  0  0
 12 13  1  0  0  0  0
 12 30  1  0  0  0  0
 12 31  1  0  0  0  0
 13 14  1  0  0  0  0
 13 15  1  0  0  0  0
 13 32  1  0  0  0  0
 14 33  1  0  0  0  0
 14 34  1  0  0  0  0
 14 35  1  0  0  0  0
 15 16  1  0  0  0  0
 15 17  1  0  0  0  0
 15 36  1  0  0  0  0
 16 37  1  0  0  0  0
 16 38  1  0  0  0  0
 16 39  1  0  0  0  0
 17 40  1  0  0  0  0
 17 41  1  0  0  0  0
M  CHG  1   9   1
M  END
> <s_m_source_file>
AV-unprocessed.smi

> <i_m_source_file_index>
3181

> <i_lp_mmshare_version>
43012

> <i_f3d_flags>
0

> <s_epik_input>
bjFbY0hdbltjSF1uMVtDSDJdW0NAQEhdKFtDSDNdKVtOSF1bQ0BASF0yW0NIMl1bQ0gyXVtDQEBIXShbQ0gzXSlbQ0BASF0oW0NIM10pW0NIMl0y

> <s_epik_cmdline>
J2VwaWtfcHl0aG9uJywgJy1waCcsICc3LjAnLCAnLXRuJywgJzgnLCAnLW1hJywgJzIwMCcsICctbWV0YWxfYmluZGluZycsICctaW1hZScsICc8aW5maWxlLm1hZT4nLCAnLW9tYWUnLCAnPG91dGZpbGUubWFlPic=

> <r_lp_tautomer_probability>
1

> <r_epik_Ionization_Penalty>
0.000617007

> <r_epik_Ionization_Penalty_Charging>
0.000616215

> <r_epik_Ionization_Penalty_Neutral>
7.92544e-07

> <r_epik_State_Penalty>
0.000388807

> <r_epik_Charging_Adjusted_Penalty>
0.00100502

> <i_epik_Tot_Q>
1

> <i_epik_Tot_abs_Q>
1

> <r_epik_Metal_State_Penalty>
-0

> <b_epik_Metal_Only>
0

> <s_lp_Force_Field>
OPLS_2005

> <r_lp_Energy>
19.8131

> <b_lp_Chiralities_Consistent>
1

> <s_lp_Variant>
AV-unprocessed.smi:3181-7

> <Gold.Version>
5.8.1

> <Gold.Id.Protein>
6NUR|6NUR_protein|mol2

> <Gold.PLP.Fitness>
48.6418

> <Gold.PLP.PLP>
-40.5512

> <Gold.PLP.part.hbond>
-1.0000

> <Gold.PLP.part.metal>
0.0000

> <Gold.PLP.part.buried>
-2.7101

> <Gold.PLP.part.nonpolar>
-36.6785

> <Gold.PLP.part.repulsive>
0.4880

> <Gold.PLP.ligand.clash>
0.0000

> <Gold.PLP.ligand.torsion>
0.4655

> <Gold.PLP.Chemscore.Hbond>
2.0000

> <Gold.PLP.Chemscore.CHOScore>
1.0000

> <Gold.PLP.Chemscore.Metal>
0.0000

> <Gold.Chemscore.Hbonds>
donor molecule, donor type, donor heavy atom, donor atom, acceptor molecule, acceptor atom, score
      L1  H     9    42       P1  8028  2.00
      L1  C     7    25       P1  7948  1.00

> <Gold.PLP.Chemscore.Internal.Correction>
0.0217

> <Gold.Rescore>
     Score         DG    S(hbond)    S(metal)    S(lipo)     H(rot)  DE(clash)    DE(int)     intcor
     15.68     -16.34       1.00        0.00     110.53       2.11       0.07       0.59       ----

> <Gold.Chemscore.Fitness>
15.6819

> <Gold.Chemscore.DG>
-16.3448

> <Gold.Chemscore.ZeroCoef>
-5.4800

> <Gold.Chemscore.Hbond>
0.9978

> <Gold.Chemscore.Metal>
0.0000

> <Gold.Chemscore.Lipo>
110.5341

> <Gold.Chemscore.Internal_Hbond>
0.0000

> <Gold.Chemscore.DEClash>
0.0750

> <Gold.Chemscore.DEInternal>
0.5879

> <Gold.Chemscore.Rot>
2.1095

> <Gold.Chemscore.Internal.Correction>
   9.000000E+99

> <Gold.Chemscore.Hbonds>
donor molecule, donor type, donor heavy atom, donor atom, acceptor molecule, acceptor atom, score
      L1  H     9    42       P1  8028  1.00

> <Gold.Chemscore.Hbond.Weighted>
-3.3326

> <Gold.Chemscore.Metal.Weighted>
-0.0000

> <Gold.Chemscore.Lipo.Weighted>
-12.9325

> <Gold.Chemscore.Internal_Hbond.Weighted>
0.0000

> <Gold.Chemscore.DEClash.Weighted>
0.0750

> <Gold.Chemscore.DEInternal.Weighted>
0.5879

> <Gold.Chemscore.Rot.Weighted>
5.4003

> <Gold.Chemscore.Internal.Correction.Weighted>
   9.000000E+99

> <Gold.Protein.RotatedTorsions>
[ 6907 6896 6895 6894 ] final  116.53 input  -60.11 | X-H torsion
[ 7974 7965 7964 7962 ] final  -23.22 input  175.53 | X-H torsion
[ 8008 7997 7996 7995 ] final   39.14 input   59.86 | X-H torsion
[ 10167 10162 10161 10158 ] final  147.85 input  -65.29 | X-H torsion
[ 10718 10713 10712 10709 ] final  118.87 input   66.30 | X-H torsion
[ 10763 10752 10751 10750 ] final  177.63 input  -60.55 | X-H torsion
[ 11005 11000 10999 10996 ] final  -53.11 input  -57.11 | X-H torsion

> <Gold.Protein.ActiveResidues>
 VAL166  LYS551  ARG553  GLY616  TRP617  ASP618  TYR619  PRO620  LYS621  CYS622 
 ASP623  PHE694  ASN695  SER759  ASP760  ASP761  ALA762  ILE779  LEU786  VAL792 
 PHE793  MET794  SER795  GLU796  ALA797  LYS798  CYS799  TRP800  GLU811  SER814 

> <Gold.Protein.RotatedAtoms>
  152.4672  133.7948  159.6921 H   0  0  0  0  0  0  0  0  0  0  0  0  # atno 6907 bound_to 6896
  150.8642  133.7589  159.2988 H   0  0  0  0  0  0  0  0  0  0  0  0  # atno 6908 bound_to 6896
  151.5145  135.1069  159.9914 H   0  0  0  0  0  0  0  0  0  0  0  0  # atno 6909 bound_to 6896
  146.1629  140.4586  142.8564 H   0  0  0  0  0  0  0  0  0  0  0  0  # atno 7974 bound_to 7965
  155.2318  140.3339  155.4302 H   0  0  0  0  0  0  0  0  0  0  0  0  # atno 8008 bound_to 7997
  156.2292  140.1843  156.7332 H   0  0  0  0  0  0  0  0  0  0  0  0  # atno 8009 bound_to 7997
  154.5949  140.0632  156.9275 H   0  0  0  0  0  0  0  0  0  0  0  0  # atno 8010 bound_to 7997
  139.4883  144.5724  151.7029 H   0  0  0  0  0  0  0  0  0  0  0  0  # atno 10167 bound_to 10162
  157.6001  131.1052  150.7816 H   0  0  0  0  0  0  0  0  0  0  0  0  # atno 10718 bound_to 10713
  154.4970  135.2781  155.1451 H   0  0  0  0  0  0  0  0  0  0  0  0  # atno 10763 bound_to 10752
  154.3099  135.6231  153.5465 H   0  0  0  0  0  0  0  0  0  0  0  0  # atno 10764 bound_to 10752
  152.9896  135.5717  154.5405 H   0  0  0  0  0  0  0  0  0  0  0  0  # atno 10765 bound_to 10752
  141.0959  133.6625  156.4124 H   0  0  0  0  0  0  0  0  0  0  0  0  # atno 11005 bound_to 11000
  144.8052  140.6286  143.6452 LP  0  0  0  0  0  0  0  0  0  0  0  0  # atno 17320 bound_to 7965
  145.4542  139.1520  143.3902 LP  0  0  0  0  0  0  0  0  0  0  0  0  # atno 17321 bound_to 7965
  140.5314  144.0725  150.6055 LP  0  0  0  0  0  0  0  0  0  0  0  0  # atno 17342 bound_to 10162
  140.3716  143.2851  152.0272 LP  0  0  0  0  0  0  0  0  0  0  0  0  # atno 17343 bound_to 10162
  156.8217  130.4986  149.5342 LP  0  0  0  0  0  0  0  0  0  0  0  0  # atno 17370 bound_to 10713
  156.1072  130.6013  150.9990 LP  0  0  0  0  0  0  0  0  0  0  0  0  # atno 17371 bound_to 10713
  140.5141  134.6367  157.5295 LP  0  0  0  0  0  0  0  0  0  0  0  0  # atno 17394 bound_to 11000
  139.9796  134.7159  155.9885 LP  0  0  0  0  0  0  0  0  0  0  0  0  # atno 17395 bound_to 11000

$$$$
