AV-unprocessed.smi:679|AV-procd|sdf|3320|dock8
  -GOLD-   22720 0283D 1   1.00000     0.00000
 Structure written by MMmdl.
 41 43  0  0  0  0  0  0  0  0  1 V2000
  152.1133  143.9958  158.5728 C   0  0  0  0  0  0  0  0  0  0  0  0
  152.0590  142.4768  158.7488 C   0  0  0  0  0  0  0  0  0  0  0  0
  150.9940  141.9677  157.9649 O   0  0  0  0  0  0  0  0  0  0  0  0
  151.1186  140.5814  157.6903 C   0  0  1  0  0  0  0  0  0  0  0  0
  150.7603  139.6615  158.8612 C   0  0  0  0  0  0  0  0  0  0  0  0
  150.1336  138.7434  157.8097 C   0  0  1  0  0  0  0  0  0  0  0  0
  148.9193  138.0945  158.2922 N   0  0  0  0  0  0  0  0  0  0  0  0
  148.8944  136.9522  158.9943 C   0  0  0  0  0  0  0  0  0  0  0  0
  149.9094  136.3247  159.2982 O   0  0  0  0  0  0  0  0  0  0  0  0
  147.5127  136.4366  159.4058 C   0  0  0  0  0  0  0  0  0  0  0  0
  147.4277  136.2189  160.8383 N   0  0  0  0  0  0  0  0  0  0  0  0
  147.2288  135.1054  161.5467 C   0  0  0  0  0  0  0  0  0  0  0  0
  147.2295  135.3475  162.8488 N   0  0  0  0  0  0  0  0  0  0  0  0
  147.4465  136.7139  162.9145 N   0  0  0  0  0  0  0  0  0  0  0  0
  147.5656  137.2364  161.7246 N   0  0  0  0  0  0  0  0  0  0  0  0
  149.9064  139.9964  156.9233 C   0  0  0  0  0  0  0  0  0  0  0  0
  148.5799  140.7621  157.0208 C   0  0  0  0  0  0  0  0  0  0  0  0
  148.5473  141.7321  155.8375 C   0  0  0  0  0  0  0  0  0  0  0  0
  149.4648  141.1156  154.7762 C   0  0  0  0  0  0  0  0  0  0  0  0
  150.0576  139.8536  155.4125 C   0  0  0  0  0  0  0  0  0  0  0  0
  152.9214  144.4287  159.1625 H   0  0  0  0  0  0  0  0  0  0  0  0
  151.1797  144.4596  158.8918 H   0  0  0  0  0  0  0  0  0  0  0  0
  152.2801  144.2622  157.5288 H   0  0  0  0  0  0  0  0  0  0  0  0
  153.0040  142.0310  158.4349 H   0  0  0  0  0  0  0  0  0  0  0  0
  151.9095  142.2293  159.8006 H   0  0  0  0  0  0  0  0  0  0  0  0
  152.0709  140.3190  157.2229 H   0  0  0  0  0  0  0  0  0  0  0  0
  151.6163  139.2380  159.3871 H   0  0  0  0  0  0  0  0  0  0  0  0
  150.0374  140.1043  159.5489 H   0  0  0  0  0  0  0  0  0  0  0  0
  150.8685  138.0556  157.3841 H   0  0  0  0  0  0  0  0  0  0  0  0
  148.0417  138.5471  158.0810 H   0  0  0  0  0  0  0  0  0  0  0  0
  146.7311  137.1366  159.1053 H   0  0  0  0  0  0  0  0  0  0  0  0
  147.3144  135.4934  158.8956 H   0  0  0  0  0  0  0  0  0  0  0  0
  147.0888  134.1267  161.1122 H   0  0  0  0  0  0  0  0  0  0  0  0
  147.7355  140.0785  156.9286 H   0  0  0  0  0  0  0  0  0  0  0  0
  148.4575  141.2853  157.9698 H   0  0  0  0  0  0  0  0  0  0  0  0
  147.5327  141.8856  155.4685 H   0  0  0  0  0  0  0  0  0  0  0  0
  148.9371  142.7046  156.1404 H   0  0  0  0  0  0  0  0  0  0  0  0
  148.9239  140.8779  153.8597 H   0  0  0  0  0  0  0  0  0  0  0  0
  150.2569  141.8189  154.5167 H   0  0  0  0  0  0  0  0  0  0  0  0
  151.0945  139.7063  155.1091 H   0  0  0  0  0  0  0  0  0  0  0  0
  149.5045  138.9806  155.0646 H   0  0  0  0  0  0  0  0  0  0  0  0
  1  2  1  0  0  0  0
  1 21  1  0  0  0  0
  1 22  1  0  0  0  0
  1 23  1  0  0  0  0
  2  3  1  0  0  0  0
  2 24  1  0  0  0  0
  2 25  1  0  0  0  0
  3  4  1  0  0  0  0
  4 16  1  0  0  0  0
  4  5  1  0  0  0  0
  4 26  1  0  0  0  0
  5  6  1  0  0  0  0
  5 27  1  0  0  0  0
  5 28  1  0  0  0  0
  6  7  1  0  0  0  0
  6 16  1  0  0  0  0
  6 29  1  0  0  0  0
  7  8  1  0  0  0  0
  7 30  1  0  0  0  0
  8  9  2  0  0  0  0
  8 10  1  0  0  0  0
 10 11  1  0  0  0  0
 10 31  1  0  0  0  0
 10 32  1  0  0  0  0
 11 15  1  0  0  0  0
 11 12  1  0  0  0  0
 12 13  2  0  0  0  0
 12 33  1  0  0  0  0
 13 14  1  0  0  0  0
 14 15  2  0  0  0  0
 16 20  1  0  0  0  0
 16 17  1  0  0  0  0
 17 18  1  0  0  0  0
 17 34  1  0  0  0  0
 17 35  1  0  0  0  0
 18 19  1  0  0  0  0
 18 36  1  0  0  0  0
 18 37  1  0  0  0  0
 19 20  1  0  0  0  0
 19 38  1  0  0  0  0
 19 39  1  0  0  0  0
 20 40  1  0  0  0  0
 20 41  1  0  0  0  0
M  END
> <s_m_source_file>
AV-unprocessed.smi

> <i_m_source_file_index>
679

> <i_lp_mmshare_version>
43012

> <i_f3d_flags>
0

> <s_epik_input>
W0NIMl0xW0NIMl1bQ0gyXVtDSDJdQzEyW0NASF0oT1tDSDJdW0NIM10pW0NIMl1bQ0BIXTJbTkhdQyg9TylbQ0gyXW4zW2NIXW5ubjM=

> <s_epik_cmdline>
J2VwaWtfcHl0aG9uJywgJy1waCcsICc3LjAnLCAnLXRuJywgJzgnLCAnLW1hJywgJzIwMCcsICctbWV0YWxfYmluZGluZycsICctaW1hZScsICc8aW5maWxlLm1hZT4nLCAnLW9tYWUnLCAnPG91dGZpbGUubWFlPic=

> <r_lp_tautomer_probability>
1

> <r_epik_Ionization_Penalty>
7.96741e-07

> <r_epik_Ionization_Penalty_Charging>
0

> <r_epik_Ionization_Penalty_Neutral>
7.96741e-07

> <r_epik_State_Penalty>
-0

> <r_epik_Charging_Adjusted_Penalty>
0

> <i_epik_Tot_Q>
0

> <i_epik_Tot_abs_Q>
0

> <r_epik_Metal_State_Penalty>
-0

> <b_epik_Metal_Only>
0

> <s_lp_Force_Field>
OPLS_2005

> <r_lp_Energy>
38.413

> <b_lp_Chiralities_Consistent>
1

> <s_lp_Variant>
AV-unprocessed.smi:679-2

> <Gold.Version>
5.8.1

> <Gold.Id.Protein>
6NUR|6NUR_protein|mol2

> <Gold.PLP.Fitness>
38.8047

> <Gold.PLP.PLP>
-31.1856

> <Gold.PLP.part.hbond>
-3.6538

> <Gold.PLP.part.metal>
0.0000

> <Gold.PLP.part.buried>
-4.1439

> <Gold.PLP.part.nonpolar>
-23.7695

> <Gold.PLP.part.repulsive>
0.1735

> <Gold.PLP.ligand.clash>
0.0000

> <Gold.PLP.ligand.torsion>
0.3883

> <Gold.PLP.Chemscore.Hbond>
2.6880

> <Gold.PLP.Chemscore.CHOScore>
0.0000

> <Gold.PLP.Chemscore.Metal>
0.0000

> <Gold.Chemscore.Hbonds>
donor molecule, donor type, donor heavy atom, donor atom, acceptor molecule, acceptor atom, score
      P1  H  6896  6908       L1     9  1.00
      P1  H  6931  6943       L1    15  0.94
      P1  H  6934  6947       L1    15  0.75

> <Gold.PLP.Chemscore.Internal.Correction>
0.3317

> <Gold.Rescore>
     Score         DG    S(hbond)    S(metal)    S(lipo)     H(rot)  DE(clash)    DE(int)     intcor
     12.81     -13.15       2.04        0.00      60.09       2.41       0.05       0.29       ----

> <Gold.Chemscore.Fitness>
12.8140

> <Gold.Chemscore.DG>
-13.1527

> <Gold.Chemscore.ZeroCoef>
-5.4800

> <Gold.Chemscore.Hbond>
2.0387

> <Gold.Chemscore.Metal>
0.0000

> <Gold.Chemscore.Lipo>
60.0885

> <Gold.Chemscore.Internal_Hbond>
0.0000

> <Gold.Chemscore.DEClash>
0.0516

> <Gold.Chemscore.DEInternal>
0.2871

> <Gold.Chemscore.Rot>
2.4089

> <Gold.Chemscore.Internal.Correction>
   9.000000E+99

> <Gold.Chemscore.Hbonds>
donor molecule, donor type, donor heavy atom, donor atom, acceptor molecule, acceptor atom, score
      P1  H  6896  6908       L1     9  1.00
      P1  H  6931  6943       L1    15  0.32
      P1  H  6934  6947       L1    15  0.63

> <Gold.Chemscore.Hbond.Weighted>
-6.8091

> <Gold.Chemscore.Metal.Weighted>
-0.0000

> <Gold.Chemscore.Lipo.Weighted>
-7.0304

> <Gold.Chemscore.Internal_Hbond.Weighted>
0.0000

> <Gold.Chemscore.DEClash.Weighted>
0.0516

> <Gold.Chemscore.DEInternal.Weighted>
0.2871

> <Gold.Chemscore.Rot.Weighted>
6.1668

> <Gold.Chemscore.Internal.Correction.Weighted>
   9.000000E+99

> <Gold.Protein.RotatedTorsions>
[ 6907 6896 6895 6894 ] final -149.81 input  -60.11 | X-H torsion
[ 7974 7965 7964 7962 ] final   28.29 input  175.53 | X-H torsion
[ 8008 7997 7996 7995 ] final -176.38 input   59.86 | X-H torsion
[ 10167 10162 10161 10158 ] final -127.97 input  -65.29 | X-H torsion
[ 10718 10713 10712 10709 ] final -153.04 input   66.30 | X-H torsion
[ 10763 10752 10751 10750 ] final -170.39 input  -60.55 | X-H torsion
[ 11005 11000 10999 10996 ] final   94.30 input  -57.11 | X-H torsion

> <Gold.Protein.ActiveResidues>
 VAL166  LYS551  ARG553  GLY616  TRP617  ASP618  TYR619  PRO620  LYS621  CYS622 
 ASP623  PHE694  ASN695  SER759  ASP760  ASP761  ALA762  ILE779  LEU786  VAL792 
 PHE793  MET794  SER795  GLU796  ALA797  LYS798  CYS799  TRP800  GLU811  SER814 

> <Gold.Protein.RotatedAtoms>
  151.1895  133.4676  159.2594 H   0  0  0  0  0  0  0  0  0  0  0  0  # atno 6907 bound_to 6896
  151.1178  135.0062  159.8534 H   0  0  0  0  0  0  0  0  0  0  0  0  # atno 6908 bound_to 6896
  152.5454  134.1808  159.8688 H   0  0  0  0  0  0  0  0  0  0  0  0  # atno 6909 bound_to 6896
  146.1737  139.7076  142.8949 H   0  0  0  0  0  0  0  0  0  0  0  0  # atno 7974 bound_to 7965
  155.9942  140.1207  157.0609 H   0  0  0  0  0  0  0  0  0  0  0  0  # atno 8008 bound_to 7997
  154.4221  140.1119  156.5676 H   0  0  0  0  0  0  0  0  0  0  0  0  # atno 8009 bound_to 7997
  155.6301  140.3473  155.4682 H   0  0  0  0  0  0  0  0  0  0  0  0  # atno 8010 bound_to 7997
  139.9552  143.6011  152.2463 H   0  0  0  0  0  0  0  0  0  0  0  0  # atno 10167 bound_to 10162
  156.4806  130.8301  151.2528 H   0  0  0  0  0  0  0  0  0  0  0  0  # atno 10718 bound_to 10713
  154.6420  135.2900  155.0091 H   0  0  0  0  0  0  0  0  0  0  0  0  # atno 10763 bound_to 10752
  154.1215  135.6547  153.4908 H   0  0  0  0  0  0  0  0  0  0  0  0  # atno 10764 bound_to 10752
  153.0331  135.5289  154.7291 H   0  0  0  0  0  0  0  0  0  0  0  0  # atno 10765 bound_to 10752
  139.8800  134.8837  156.3844 H   0  0  0  0  0  0  0  0  0  0  0  0  # atno 11005 bound_to 11000
  145.4270  141.0412  143.2932 LP  0  0  0  0  0  0  0  0  0  0  0  0  # atno 17320 bound_to 7965
  144.8202  139.5804  143.6990 LP  0  0  0  0  0  0  0  0  0  0  0  0  # atno 17321 bound_to 7965
  139.6597  144.7662  151.1987 LP  0  0  0  0  0  0  0  0  0  0  0  0  # atno 17342 bound_to 10162
  140.7570  143.6030  150.8681 LP  0  0  0  0  0  0  0  0  0  0  0  0  # atno 17343 bound_to 10162
  157.7483  131.0046  150.3083 LP  0  0  0  0  0  0  0  0  0  0  0  0  # atno 17370 bound_to 10713
  156.3526  130.3833  149.7317 LP  0  0  0  0  0  0  0  0  0  0  0  0  # atno 17371 bound_to 10713
  140.9377  133.7536  156.0105 LP  0  0  0  0  0  0  0  0  0  0  0  0  # atno 17394 bound_to 11000
  140.8257  134.3237  157.5366 LP  0  0  0  0  0  0  0  0  0  0  0  0  # atno 17395 bound_to 11000

$$$$
