AV-unprocessed.smi:1142|AV-procd|sdf|4873|dock4
  -GOLD-   22720 3443D 1   1.00000     0.00000
 Structure written by MMmdl.
 33 34  0  0  0  0  0  0  0  0  1 V2000
  153.7191  137.1980  162.7035 C   0  0  0  0  0  0  0  0  0  0  0  0
  153.7568  137.4672  161.5131 C   0  0  0  0  0  0  0  0  0  0  0  0
  153.7897  137.7842  160.0755 C   0  0  0  0  0  0  0  0  0  0  0  0
  153.4355  139.1715  159.7997 N   0  0  0  0  0  0  0  0  0  0  0  0
  152.4195  139.5745  159.0183 C   0  0  0  0  0  0  0  0  0  0  0  0
  151.6520  138.7999  158.4459 O   0  0  0  0  0  0  0  0  0  0  0  0
  152.2492  141.0677  158.9133 C   0  0  0  0  0  0  0  0  0  0  0  0
  152.7427  141.8941  159.9496 C   0  0  0  0  0  0  0  0  0  0  0  0
  152.6309  143.2911  159.8383 C   0  0  0  0  0  0  0  0  0  0  0  0
  152.0330  143.8192  158.6819 C   0  0  0  0  0  0  0  0  0  0  0  0
  151.5588  143.0504  157.6815 N   0  0  0  0  0  0  0  0  0  0  0  0
  151.6569  141.7009  157.7795 C   0  0  0  0  0  0  0  0  0  0  0  0
  151.1027  140.9523  156.7209 N   0  0  0  0  0  0  0  0  0  0  0  0
  151.9862  140.0342  156.0088 C   0  0  0  0  0  0  0  0  0  0  0  0
  151.1599  139.1365  155.0718 C   0  0  0  0  0  0  0  0  0  0  0  0
  150.3893  139.9477  154.1893 O   0  0  0  0  0  0  0  0  0  0  0  0
  149.4771  140.7874  154.8918 C   0  0  0  0  0  0  0  0  0  0  0  0
  150.2549  141.7303  155.8254 C   0  0  0  0  0  0  0  0  0  0  0  0
  153.6839  136.9646  163.7440 H   0  0  0  0  0  0  0  0  0  0  0  0
  154.7790  137.5389  159.6860 H   0  0  0  0  0  0  0  0  0  0  0  0
  153.0766  137.1318  159.5714 H   0  0  0  0  0  0  0  0  0  0  0  0
  154.0043  139.8810  160.2384 H   0  0  0  0  0  0  0  0  0  0  0  0
  153.2152  141.4681  160.8230 H   0  0  0  0  0  0  0  0  0  0  0  0
  153.0018  143.9413  160.6167 H   0  0  0  0  0  0  0  0  0  0  0  0
  151.9318  144.8870  158.5561 H   0  0  0  0  0  0  0  0  0  0  0  0
  152.7154  140.6000  155.4273 H   0  0  0  0  0  0  0  0  0  0  0  0
  152.5399  139.4226  156.7222 H   0  0  0  0  0  0  0  0  0  0  0  0
  151.8197  138.4983  154.4840 H   0  0  0  0  0  0  0  0  0  0  0  0
  150.5039  138.4778  155.6431 H   0  0  0  0  0  0  0  0  0  0  0  0
  148.8982  141.3652  154.1715 H   0  0  0  0  0  0  0  0  0  0  0  0
  148.7683  140.1798  155.4574 H   0  0  0  0  0  0  0  0  0  0  0  0
  149.5582  142.3509  156.3892 H   0  0  0  0  0  0  0  0  0  0  0  0
  150.8798  142.4058  155.2394 H   0  0  0  0  0  0  0  0  0  0  0  0
  1  2  3  0  0  0  0
  1 19  1  0  0  0  0
  2  3  1  0  0  0  0
  3  4  1  0  0  0  0
  3 20  1  0  0  0  0
  3 21  1  0  0  0  0
  4  5  1  0  0  0  0
  4 22  1  0  0  0  0
  5  6  2  0  0  0  0
  5  7  1  0  0  0  0
  7 12  1  0  0  0  0
  7  8  2  0  0  0  0
  8  9  1  0  0  0  0
  8 23  1  0  0  0  0
  9 10  2  0  0  0  0
  9 24  1  0  0  0  0
 10 11  1  0  0  0  0
 10 25  1  0  0  0  0
 11 12  2  0  0  0  0
 12 13  1  0  0  0  0
 13 18  1  0  0  0  0
 13 14  1  0  0  0  0
 14 15  1  0  0  0  0
 14 26  1  0  0  0  0
 14 27  1  0  0  0  0
 15 16  1  0  0  0  0
 15 28  1  0  0  0  0
 15 29  1  0  0  0  0
 16 17  1  0  0  0  0
 17 18  1  0  0  0  0
 17 30  1  0  0  0  0
 17 31  1  0  0  0  0
 18 32  1  0  0  0  0
 18 33  1  0  0  0  0
M  END
> <s_m_source_file>
AV-unprocessed.smi

> <i_m_source_file_index>
1142

> <i_lp_mmshare_version>
43012

> <i_f3d_flags>
0

> <s_epik_input>
W0NIXSNDW0NIMl1bTkhdQyg9TyljMVtjSF1bY0hdW2NIXW5jMU4yW0NIMl1bQ0gyXU9bQ0gyXVtDSDJdMg==

> <s_epik_cmdline>
J2VwaWtfcHl0aG9uJywgJy1waCcsICc3LjAnLCAnLXRuJywgJzgnLCAnLW1hJywgJzIwMCcsICctbWV0YWxfYmluZGluZycsICctaW1hZScsICc8aW5maWxlLm1hZT4nLCAnLW9tYWUnLCAnPG91dGZpbGUubWFlPic=

> <r_lp_tautomer_probability>
1

> <r_epik_Ionization_Penalty>
1.59202e-05

> <r_epik_Ionization_Penalty_Charging>
0

> <r_epik_Ionization_Penalty_Neutral>
1.59202e-05

> <r_epik_State_Penalty>
-0

> <r_epik_Charging_Adjusted_Penalty>
0

> <i_epik_Tot_Q>
0

> <i_epik_Tot_abs_Q>
0

> <r_epik_Metal_State_Penalty>
0.00596736

> <b_epik_Metal_Only>
0

> <s_lp_Force_Field>
OPLS_2005

> <r_lp_Energy>
22.9222

> <b_lp_Chiralities_Consistent>
1

> <s_lp_Variant>
AV-unprocessed.smi:1142-1

> <Gold.Version>
5.8.1

> <Gold.Id.Protein>
6NUR|6NUR_protein|mol2

> <Gold.PLP.Fitness>
40.1154

> <Gold.PLP.PLP>
-37.8057

> <Gold.PLP.part.hbond>
-1.0000

> <Gold.PLP.part.metal>
0.0000

> <Gold.PLP.part.buried>
-5.3062

> <Gold.PLP.part.nonpolar>
-32.3996

> <Gold.PLP.part.repulsive>
0.3635

> <Gold.PLP.ligand.clash>
0.0000

> <Gold.PLP.ligand.torsion>
0.4618

> <Gold.PLP.Chemscore.Hbond>
1.0000

> <Gold.PLP.Chemscore.CHOScore>
0.0000

> <Gold.PLP.Chemscore.Metal>
0.0000

> <Gold.Chemscore.Hbonds>
donor molecule, donor type, donor heavy atom, donor atom, acceptor molecule, acceptor atom, score
      P1  H  7989  7998       L1    16  1.00

> <Gold.PLP.Chemscore.Internal.Correction>
0.2333

> <Gold.Rescore>
     Score         DG    S(hbond)    S(metal)    S(lipo)     H(rot)  DE(clash)    DE(int)     intcor
     12.88     -16.39       0.94        0.00      92.40       1.19       0.16       3.34       ----

> <Gold.Chemscore.Fitness>
12.8841

> <Gold.Chemscore.DG>
-16.3853

> <Gold.Chemscore.ZeroCoef>
-5.4800

> <Gold.Chemscore.Hbond>
0.9394

> <Gold.Chemscore.Metal>
0.0000

> <Gold.Chemscore.Lipo>
92.3998

> <Gold.Chemscore.Internal_Hbond>
0.0000

> <Gold.Chemscore.DEClash>
0.1635

> <Gold.Chemscore.DEInternal>
3.3377

> <Gold.Chemscore.Rot>
1.1887

> <Gold.Chemscore.Internal.Correction>
   9.000000E+99

> <Gold.Chemscore.Hbonds>
donor molecule, donor type, donor heavy atom, donor atom, acceptor molecule, acceptor atom, score
      P1  H  7989  7998       L1    16  0.20

> <Gold.Chemscore.Hbond.Weighted>
-3.1376

> <Gold.Chemscore.Metal.Weighted>
-0.0000

> <Gold.Chemscore.Lipo.Weighted>
-10.8108

> <Gold.Chemscore.Internal_Hbond.Weighted>
0.0000

> <Gold.Chemscore.DEClash.Weighted>
0.1635

> <Gold.Chemscore.DEInternal.Weighted>
3.3377

> <Gold.Chemscore.Rot.Weighted>
3.0432

> <Gold.Chemscore.Internal.Correction.Weighted>
   9.000000E+99

> <Gold.Protein.RotatedTorsions>
[ 6907 6896 6895 6894 ] final    5.58 input  -60.11 | X-H torsion
[ 7974 7965 7964 7962 ] final  -59.72 input  175.53 | X-H torsion
[ 8008 7997 7996 7995 ] final  144.93 input   59.86 | X-H torsion
[ 10167 10162 10161 10158 ] final  103.53 input  -65.29 | X-H torsion
[ 10718 10713 10712 10709 ] final -122.15 input   66.30 | X-H torsion
[ 10763 10752 10751 10750 ] final  136.11 input  -60.55 | X-H torsion
[ 11005 11000 10999 10996 ] final  174.82 input  -57.11 | X-H torsion

> <Gold.Protein.ActiveResidues>
 VAL166  LYS551  ARG553  GLY616  TRP617  ASP618  TYR619  PRO620  LYS621  CYS622 
 ASP623  PHE694  ASN695  SER759  ASP760  ASP761  ALA762  ILE779  LEU786  VAL792 
 PHE793  MET794  SER795  GLU796  ALA797  LYS798  CYS799  TRP800  GLU811  SER814 

> <Gold.Protein.RotatedAtoms>
  151.6598  135.0991  160.0176 H   0  0  0  0  0  0  0  0  0  0  0  0  # atno 6907 bound_to 6896
  152.3953  133.6734  159.6280 H   0  0  0  0  0  0  0  0  0  0  0  0  # atno 6908 bound_to 6896
  150.7861  133.8801  159.3324 H   0  0  0  0  0  0  0  0  0  0  0  0  # atno 6909 bound_to 6896
  145.8241  140.8521  143.0117 H   0  0  0  0  0  0  0  0  0  0  0  0  # atno 7974 bound_to 7965
  156.2896  140.2222  156.5133 H   0  0  0  0  0  0  0  0  0  0  0  0  # atno 8008 bound_to 7997
  154.7590  140.0474  157.0979 H   0  0  0  0  0  0  0  0  0  0  0  0  # atno 8009 bound_to 7997
  155.0014  140.3102  155.4869 H   0  0  0  0  0  0  0  0  0  0  0  0  # atno 8010 bound_to 7997
  139.7255  144.7048  151.0805 H   0  0  0  0  0  0  0  0  0  0  0  0  # atno 10167 bound_to 10162
  156.1395  130.6455  150.9749 H   0  0  0  0  0  0  0  0  0  0  0  0  # atno 10718 bound_to 10713
  153.8512  135.3079  155.3432 H   0  0  0  0  0  0  0  0  0  0  0  0  # atno 10763 bound_to 10752
  154.7890  135.4793  154.0014 H   0  0  0  0  0  0  0  0  0  0  0  0  # atno 10764 bound_to 10752
  153.1517  135.6844  153.8965 H   0  0  0  0  0  0  0  0  0  0  0  0  # atno 10765 bound_to 10752
  140.3554  134.7159  157.4296 H   0  0  0  0  0  0  0  0  0  0  0  0  # atno 11005 bound_to 11000
  144.6745  140.0576  143.7477 LP  0  0  0  0  0  0  0  0  0  0  0  0  # atno 17320 bound_to 7965
  145.9643  139.2823  143.1137 LP  0  0  0  0  0  0  0  0  0  0  0  0  # atno 17321 bound_to 7965
  140.7762  143.5111  150.9652 LP  0  0  0  0  0  0  0  0  0  0  0  0  # atno 17342 bound_to 10162
  139.8798  143.7086  152.3158 LP  0  0  0  0  0  0  0  0  0  0  0  0  # atno 17343 bound_to 10162
  157.6563  131.0889  150.7940 LP  0  0  0  0  0  0  0  0  0  0  0  0  # atno 17370 bound_to 10713
  156.8017  130.4923  149.5369 LP  0  0  0  0  0  0  0  0  0  0  0  0  # atno 17371 bound_to 10713
  140.0669  134.5917  155.8685 LP  0  0  0  0  0  0  0  0  0  0  0  0  # atno 17394 bound_to 11000
  141.2000  133.6610  156.5872 LP  0  0  0  0  0  0  0  0  0  0  0  0  # atno 17395 bound_to 11000

$$$$
