AV-unprocessed.smi:36|AV-procd|sdf|297|dock2
  -GOLD-   2262016 93D 1   1.00000     0.00000
 Structure written by MMmdl.
 63 66  0  0  0  0  0  0  0  0  2 V2000
  142.6065  137.6065  153.1604 C   0  0  0  0  0  0  0  0  0  0  0  0
  143.2776  136.4074  153.8502 C   0  0  0  0  0  0  0  0  0  0  0  0
  142.9652  136.4301  155.3556 C   0  0  0  0  0  0  0  0  0  0  0  0
  142.7655  135.0938  153.2351 C   0  0  0  0  0  0  0  0  0  0  0  0
  145.1700  136.5088  153.6066 Si  0  0  0  0  0  0  0  0  0  0  0  0
  146.0509  135.0531  154.4532 C   0  0  0  0  0  0  0  0  0  0  0  0
  145.6245  136.5515  151.7626 C   0  0  0  0  0  0  0  0  0  0  0  0
  145.7034  137.9470  154.3181 O   0  0  0  0  0  0  0  0  0  0  0  0
  147.0646  138.2887  154.4679 C   0  0  0  0  0  0  0  0  0  0  0  0
  147.2882  139.6941  153.8961 C   0  0  2  0  0  0  0  0  0  0  0  0
  148.6840  139.9769  153.7657 O   0  0  0  0  0  0  0  0  0  0  0  0
  148.9719  141.2589  154.2452 C   0  0  2  0  0  0  0  0  0  0  0  0
  149.6176  141.1285  155.5910 N   0  0  0  0  0  0  0  0  0  0  0  0
  149.2657  141.6809  156.7716 C   0  0  0  0  0  0  0  0  0  0  0  0
  150.0159  141.3913  157.8331 N   0  0  0  0  0  0  0  0  0  0  0  0
  150.9607  140.5371  157.2840 C   0  0  0  0  0  0  0  0  0  0  0  0
  152.0688  139.8442  157.8434 C   0  0  0  0  0  0  0  0  0  0  0  0
  152.3943  139.9272  159.1421 N   0  5  0  0  0  0  0  0  0  0  0  0
  153.3901  140.7598  159.5380 C   0  0  0  0  0  0  0  0  0  0  0  0
  154.5977  140.5195  159.6026 O   0  0  0  0  0  0  0  0  0  0  0  0
  152.8910  142.1002  160.0065 C   0  0  0  0  0  0  0  0  0  0  0  0
  152.5604  143.0949  159.0580 C   0  0  0  0  0  0  0  0  0  0  0  0
  152.0704  144.3477  159.4753 C   0  0  0  0  0  0  0  0  0  0  0  0
  151.8957  144.6156  160.8458 C   0  0  0  0  0  0  0  0  0  0  0  0
  152.2083  143.6283  161.7989 C   0  0  0  0  0  0  0  0  0  0  0  0
  152.6991  142.3753  161.3825 C   0  0  0  0  0  0  0  0  0  0  0  0
  152.7905  139.0583  157.0036 N   0  0  0  0  0  0  0  0  0  0  0  0
  152.4609  138.9695  155.7097 C   0  0  0  0  0  0  0  0  0  0  0  0
  151.4606  139.5665  155.0542 N   0  0  0  0  0  0  0  0  0  0  0  0
  150.7240  140.3538  155.8912 C   0  0  0  0  0  0  0  0  0  0  0  0
  147.6286  141.9763  154.3799 C   0  0  0  0  0  0  0  0  0  0  0  0
  146.7120  140.8289  154.7505 C   0  0  1  0  0  0  0  0  0  0  0  0
  145.3706  141.1272  154.4231 O   0  0  0  0  0  0  0  0  0  0  0  0
  141.5234  137.5783  153.2838 H   0  0  0  0  0  0  0  0  0  0  0  0
  142.8148  137.6185  152.0903 H   0  0  0  0  0  0  0  0  0  0  0  0
  142.9589  138.5512  153.5753 H   0  0  0  0  0  0  0  0  0  0  0  0
  143.3106  137.3543  155.8197 H   0  0  0  0  0  0  0  0  0  0  0  0
  143.4495  135.6013  155.8731 H   0  0  0  0  0  0  0  0  0  0  0  0
  141.8932  136.3519  155.5396 H   0  0  0  0  0  0  0  0  0  0  0  0
  141.6895  134.9834  153.3739 H   0  0  0  0  0  0  0  0  0  0  0  0
  143.2474  134.2284  153.6919 H   0  0  0  0  0  0  0  0  0  0  0  0
  142.9631  135.0519  152.1638 H   0  0  0  0  0  0  0  0  0  0  0  0
  145.7102  134.0955  154.0600 H   0  0  0  0  0  0  0  0  0  0  0  0
  145.8719  135.0468  155.5281 H   0  0  0  0  0  0  0  0  0  0  0  0
  147.1299  135.0975  154.3056 H   0  0  0  0  0  0  0  0  0  0  0  0
  145.2894  135.6522  151.2464 H   0  0  0  0  0  0  0  0  0  0  0  0
  146.7022  136.6249  151.6184 H   0  0  0  0  0  0  0  0  0  0  0  0
  145.1714  137.4043  151.2577 H   0  0  0  0  0  0  0  0  0  0  0  0
  147.3531  138.2370  155.5176 H   0  0  0  0  0  0  0  0  0  0  0  0
  147.6695  137.5620  153.9248 H   0  0  0  0  0  0  0  0  0  0  0  0
  146.8767  139.7472  152.8867 H   0  0  0  0  0  0  0  0  0  0  0  0
  149.7089  141.7805  153.6335 H   0  0  0  0  0  0  0  0  0  0  0  0
  148.4097  142.3312  156.8651 H   0  0  0  0  0  0  0  0  0  0  0  0
  152.6876  142.9042  158.0022 H   0  0  0  0  0  0  0  0  0  0  0  0
  151.8271  145.1026  158.7422 H   0  0  0  0  0  0  0  0  0  0  0  0
  151.5192  145.5760  161.1655 H   0  0  0  0  0  0  0  0  0  0  0  0
  152.0696  143.8297  162.8508 H   0  0  0  0  0  0  0  0  0  0  0  0
  152.9234  141.6273  162.1293 H   0  0  0  0  0  0  0  0  0  0  0  0
  153.0901  138.3259  155.1131 H   0  0  0  0  0  0  0  0  0  0  0  0
  147.6547  142.7811  155.1153 H   0  0  0  0  0  0  0  0  0  0  0  0
  147.3653  142.3948  153.4073 H   0  0  0  0  0  0  0  0  0  0  0  0
  146.7980  140.6042  155.8146 H   0  0  0  0  0  0  0  0  0  0  0  0
  145.1965  140.8069  153.5515 H   0  0  0  0  0  0  0  0  0  0  0  0
  1  2  1  0  0  0  0
  1 34  1  0  0  0  0
  1 35  1  0  0  0  0
  1 36  1  0  0  0  0
  2  3  1  0  0  0  0
  2  4  1  0  0  0  0
  2  5  1  0  0  0  0
  3 37  1  0  0  0  0
  3 38  1  0  0  0  0
  3 39  1  0  0  0  0
  4 40  1  0  0  0  0
  4 41  1  0  0  0  0
  4 42  1  0  0  0  0
  5  6  1  0  0  0  0
  5  7  1  0  0  0  0
  5  8  1  0  0  0  0
  6 43  1  0  0  0  0
  6 44  1  0  0  0  0
  6 45  1  0  0  0  0
  7 46  1  0  0  0  0
  7 47  1  0  0  0  0
  7 48  1  0  0  0  0
  8  9  1  0  0  0  0
  9 10  1  0  0  0  0
  9 49  1  0  0  0  0
  9 50  1  0  0  0  0
 10 32  1  0  0  0  0
 10 11  1  0  0  0  0
 10 51  1  0  0  0  0
 11 12  1  0  0  0  0
 12 13  1  0  0  0  0
 12 31  1  0  0  0  0
 12 52  1  0  0  0  0
 13 30  1  0  0  0  0
 13 14  1  0  0  0  0
 14 15  2  0  0  0  0
 14 53  1  0  0  0  0
 15 16  1  0  0  0  0
 16 30  2  0  0  0  0
 16 17  1  0  0  0  0
 17 18  1  0  0  0  0
 17 27  2  0  0  0  0
 18 19  1  0  0  0  0
 19 20  2  0  0  0  0
 19 21  1  0  0  0  0
 21 26  1  0  0  0  0
 21 22  2  0  0  0  0
 22 23  1  0  0  0  0
 22 54  1  0  0  0  0
 23 24  2  0  0  0  0
 23 55  1  0  0  0  0
 24 25  1  0  0  0  0
 24 56  1  0  0  0  0
 25 26  2  0  0  0  0
 25 57  1  0  0  0  0
 26 58  1  0  0  0  0
 27 28  1  0  0  0  0
 28 29  2  0  0  0  0
 28 59  1  0  0  0  0
 29 30  1  0  0  0  0
 31 32  1  0  0  0  0
 31 60  1  0  0  0  0
 31 61  1  0  0  0  0
 32 33  1  0  0  0  0
 32 62  1  0  0  0  0
 33 63  1  0  0  0  0
M  CHG  1  18  -1
M  END
> <s_m_source_file>
AV-unprocessed.smi

> <i_m_source_file_index>
36

> <i_lp_mmshare_version>
43012

> <i_f3d_flags>
0

> <s_epik_input>
W0NIM11DKFtDSDNdKShbQ0gzXSlbU2ldKFtDSDNdKShbQ0gzXSlPW0NIMl1bQ0BASF0xT1tDQEhdKFtDSDJdW0NASF0xW09IXSluKFtjSF1uMiljKGMyMyluW2NIXW5jM1tOSF1DKD1PKWM0W2NIXVtjSF1bY0hdW2NIXVtjSF00

> <s_epik_cmdline>
J2VwaWtfcHl0aG9uJywgJy1waCcsICc3LjAnLCAnLXRuJywgJzgnLCAnLW1hJywgJzIwMCcsICctbWV0YWxfYmluZGluZycsICctaW1hZScsICc8aW5maWxlLm1hZT4nLCAnLW9tYWUnLCAnPG91dGZpbGUubWFlPic=

> <r_lp_tautomer_probability>
1

> <r_epik_Ionization_Penalty>
4.75685

> <r_epik_Ionization_Penalty_Charging>
3.55822

> <r_epik_Ionization_Penalty_Neutral>
1.19863

> <r_epik_State_Penalty>
3.564

> <r_epik_Charging_Adjusted_Penalty>
7.12222

> <i_epik_Tot_Q>
-1

> <i_epik_Tot_abs_Q>
1

> <r_epik_Metal_State_Penalty>
0.523258

> <b_epik_Metal_Only>
1

> <s_epik_Chemistry_Notes>
This compound contains an acetal/aminal-like group ( X-CH(R)-Y where X, Y are N, S, or O) that may be acid/base labile, releasing an aldehyde.

> <s_lp_Force_Field>
OPLS_2005

> <r_lp_Energy>
31.8386

> <b_lp_Chiralities_Consistent>
1

> <s_lp_Variant>
AV-unprocessed.smi:36-19

> <Gold.Version>
5.8.1

> <Gold.Id.Protein>
6NUR|6NUR_protein|mol2

> <Gold.PLP.Fitness>
63.2938

> <Gold.PLP.PLP>
-60.1981

> <Gold.PLP.part.hbond>
-4.0000

> <Gold.PLP.part.metal>
0.0000

> <Gold.PLP.part.buried>
-5.4584

> <Gold.PLP.part.nonpolar>
-52.4375

> <Gold.PLP.part.repulsive>
3.1653

> <Gold.PLP.ligand.clash>
0.0000

> <Gold.PLP.ligand.torsion>
3.5487

> <Gold.PLP.Chemscore.Hbond>
2.7840

> <Gold.PLP.Chemscore.CHOScore>
0.3859

> <Gold.PLP.Chemscore.Metal>
0.0000

> <Gold.Chemscore.Hbonds>
donor molecule, donor type, donor heavy atom, donor atom, acceptor molecule, acceptor atom, score
      L1  H    33    63       P1 10175  0.74
      P1  H  7989  7998       L1    29  0.94
      P1  H  7997  8010       L1    27  0.55
      L1  C    14    53       P1  8028  0.35

> <Gold.PLP.Chemscore.Internal.Correction>
0.6833

> <Gold.Rescore>
     Score         DG    S(hbond)    S(metal)    S(lipo)     H(rot)  DE(clash)    DE(int)     intcor
     13.33     -17.08       1.69        0.00     109.30       2.67       0.24       3.52       ----

> <Gold.Chemscore.Fitness>
13.3263

> <Gold.Chemscore.DG>
-17.0840

> <Gold.Chemscore.ZeroCoef>
-5.4800

> <Gold.Chemscore.Hbond>
1.6922

> <Gold.Chemscore.Metal>
0.0000

> <Gold.Chemscore.Lipo>
109.2983

> <Gold.Chemscore.Internal_Hbond>
0.0000

> <Gold.Chemscore.DEClash>
0.2424

> <Gold.Chemscore.DEInternal>
3.5153

> <Gold.Chemscore.Rot>
2.6702

> <Gold.Chemscore.Internal.Correction>
   9.000000E+99

> <Gold.Chemscore.Hbonds>
donor molecule, donor type, donor heavy atom, donor atom, acceptor molecule, acceptor atom, score
      L1  H    33    63       P1 10175  0.65
      P1  H  7989  7998       L1    29  0.20
      P1  H  7997  8010       L1    27  0.02

> <Gold.Chemscore.Hbond.Weighted>
-5.6518

> <Gold.Chemscore.Metal.Weighted>
-0.0000

> <Gold.Chemscore.Lipo.Weighted>
-12.7879

> <Gold.Chemscore.Internal_Hbond.Weighted>
0.0000

> <Gold.Chemscore.DEClash.Weighted>
0.2424

> <Gold.Chemscore.DEInternal.Weighted>
3.5153

> <Gold.Chemscore.Rot.Weighted>
6.8358

> <Gold.Chemscore.Internal.Correction.Weighted>
   9.000000E+99

> <Gold.Protein.RotatedTorsions>
[ 6907 6896 6895 6894 ] final -119.53 input  -60.11 | X-H torsion
[ 7974 7965 7964 7962 ] final   77.87 input  175.53 | X-H torsion
[ 8008 7997 7996 7995 ] final   63.68 input   59.86 | X-H torsion
[ 10167 10162 10161 10158 ] final -177.52 input  -65.29 | X-H torsion
[ 10718 10713 10712 10709 ] final  147.15 input   66.30 | X-H torsion
[ 10763 10752 10751 10750 ] final  -89.68 input  -60.55 | X-H torsion
[ 11005 11000 10999 10996 ] final  109.23 input  -57.11 | X-H torsion

> <Gold.Protein.ActiveResidues>
 VAL166  LYS551  ARG553  GLY616  TRP617  ASP618  TYR619  PRO620  LYS621  CYS622 
 ASP623  PHE694  ASN695  SER759  ASP760  ASP761  ALA762  ILE779  LEU786  VAL792 
 PHE793  MET794  SER795  GLU796  ALA797  LYS798  CYS799  TRP800  GLU811  SER814 

> <Gold.Protein.RotatedAtoms>
  150.8313  133.8087  159.3097 H   0  0  0  0  0  0  0  0  0  0  0  0  # atno 6907 bound_to 6896
  151.5816  135.1056  160.0028 H   0  0  0  0  0  0  0  0  0  0  0  0  # atno 6908 bound_to 6896
  152.4392  133.7375  159.6678 H   0  0  0  0  0  0  0  0  0  0  0  0  # atno 6909 bound_to 6896
  145.6845  139.2533  143.1795 H   0  0  0  0  0  0  0  0  0  0  0  0  # atno 7974 bound_to 7965
  155.6341  140.3496  155.4692 H   0  0  0  0  0  0  0  0  0  0  0  0  # atno 8008 bound_to 7997
  155.9979  140.1207  157.0599 H   0  0  0  0  0  0  0  0  0  0  0  0  # atno 8009 bound_to 7997
  154.4239  140.1106  156.5643 H   0  0  0  0  0  0  0  0  0  0  0  0  # atno 8010 bound_to 7997
  139.5476  144.2193  152.1018 H   0  0  0  0  0  0  0  0  0  0  0  0  # atno 10167 bound_to 10162
  157.3244  131.0910  151.1214 H   0  0  0  0  0  0  0  0  0  0  0  0  # atno 10718 bound_to 10713
  154.6578  135.5332  153.7981 H   0  0  0  0  0  0  0  0  0  0  0  0  # atno 10763 bound_to 10752
  153.0424  135.6498  154.0918 H   0  0  0  0  0  0  0  0  0  0  0  0  # atno 10764 bound_to 10752
  154.0829  135.2945  155.3266 H   0  0  0  0  0  0  0  0  0  0  0  0  # atno 10765 bound_to 10752
  139.8858  134.9452  156.6094 H   0  0  0  0  0  0  0  0  0  0  0  0  # atno 11005 bound_to 11000
  146.0935  140.7627  142.9583 LP  0  0  0  0  0  0  0  0  0  0  0  0  # atno 17320 bound_to 7965
  144.7015  140.3675  143.7152 LP  0  0  0  0  0  0  0  0  0  0  0  0  # atno 17321 bound_to 7965
  140.1683  144.4960  150.6594 LP  0  0  0  0  0  0  0  0  0  0  0  0  # atno 17342 bound_to 10162
  140.6729  143.2293  151.5579 LP  0  0  0  0  0  0  0  0  0  0  0  0  # atno 17343 bound_to 10162
  157.2486  130.6603  149.5921 LP  0  0  0  0  0  0  0  0  0  0  0  0  # atno 17370 bound_to 10713
  155.9689  130.4545  150.5854 LP  0  0  0  0  0  0  0  0  0  0  0  0  # atno 17371 bound_to 10713
  140.7823  133.8649  155.8578 LP  0  0  0  0  0  0  0  0  0  0  0  0  # atno 17394 bound_to 11000
  140.9749  134.1482  157.4544 LP  0  0  0  0  0  0  0  0  0  0  0  0  # atno 17395 bound_to 11000

$$$$
