AV-unprocessed.smi:2986|AV-procd|sdf|11381|dock9
  -GOLD-   2272016303D 1   1.00000     0.00000
 Structure written by MMmdl.
 42 44  0  0  0  0  0  0  0  0  1 V2000
  151.1662  138.1438  154.5603 C   0  0  0  0  0  0  0  0  0  0  0  0
  151.2358  139.5526  154.6911 O   0  0  0  0  0  0  0  0  0  0  0  0
  151.9700  139.9553  155.8342 C   0  0  0  0  0  0  0  0  0  0  0  0
  151.0423  139.9166  157.0537 C   0  0  0  0  0  0  0  0  0  0  0  0
  151.6249  140.6068  158.1930 N   0  0  0  0  0  0  0  0  0  0  0  0
  152.0828  140.0685  159.3493 C   0  0  0  0  0  0  0  0  0  0  0  0
  152.0321  138.3314  159.6529 S   0  0  0  0  0  0  0  0  0  0  0  0
  153.5332  138.1917  160.6740 C   0  0  0  0  0  0  0  0  0  0  0  0
  153.7567  136.7927  161.2534 C   0  0  0  0  0  0  0  0  0  0  0  0
  153.7851  135.8253  160.4945 O   0  0  0  0  0  0  0  0  0  0  0  0
  153.9157  136.7266  162.5879 N   0  0  0  0  0  0  0  0  0  0  0  0
  154.0588  135.5774  163.4058 C   0  0  0  0  0  0  0  0  0  0  0  0
  153.6486  135.4508  164.7648 C   0  0  0  0  0  0  0  0  0  0  0  0
  154.0129  134.1714  165.0763 C   0  0  0  0  0  0  0  0  0  0  0  0
  153.8925  133.3562  166.3177 C   0  0  0  0  0  0  0  0  0  0  0  0
  154.5943  133.5697  164.0038 O   0  0  0  0  0  0  0  0  0  0  0  0
  154.6186  134.4769  162.9383 N   0  0  0  0  0  0  0  0  0  0  0  0
  152.5788  140.9335  160.2339 N   0  0  0  0  0  0  0  0  0  0  0  0
  152.4253  142.1470  159.5923 C   0  0  0  0  0  0  0  0  0  0  0  0
  152.7596  143.4556  160.0083 C   0  0  0  0  0  0  0  0  0  0  0  0
  152.5001  144.5593  159.1694 C   0  0  0  0  0  0  0  0  0  0  0  0
  151.9036  144.3709  157.9057 C   0  0  0  0  0  0  0  0  0  0  0  0
  151.5641  143.0753  157.4709 C   0  0  0  0  0  0  0  0  0  0  0  0
  151.8265  141.9774  158.3117 C   0  0  0  0  0  0  0  0  0  0  0  0
  150.6004  137.8868  153.6648 H   0  0  0  0  0  0  0  0  0  0  0  0
  150.6640  137.6931  155.4174 H   0  0  0  0  0  0  0  0  0  0  0  0
  152.1610  137.7064  154.4668 H   0  0  0  0  0  0  0  0  0  0  0  0
  152.8206  139.2890  155.9883 H   0  0  0  0  0  0  0  0  0  0  0  0
  152.3613  140.9637  155.6890 H   0  0  0  0  0  0  0  0  0  0  0  0
  150.0775  140.3634  156.8146 H   0  0  0  0  0  0  0  0  0  0  0  0
  150.8371  138.8840  157.3377 H   0  0  0  0  0  0  0  0  0  0  0  0
  154.3968  138.4846  160.0755 H   0  0  0  0  0  0  0  0  0  0  0  0
  153.4629  138.9056  161.4949 H   0  0  0  0  0  0  0  0  0  0  0  0
  153.8794  137.6060  163.0830 H   0  0  0  0  0  0  0  0  0  0  0  0
  153.1675  136.1646  165.4160 H   0  0  0  0  0  0  0  0  0  0  0  0
  153.3600  133.9058  167.0941 H   0  0  0  0  0  0  0  0  0  0  0  0
  154.8771  133.0932  166.7045 H   0  0  0  0  0  0  0  0  0  0  0  0
  153.3474  132.4325  166.1223 H   0  0  0  0  0  0  0  0  0  0  0  0
  153.2163  143.6107  160.9746 H   0  0  0  0  0  0  0  0  0  0  0  0
  152.7598  145.5551  159.4973 H   0  0  0  0  0  0  0  0  0  0  0  0
  151.7077  145.2218  157.2697 H   0  0  0  0  0  0  0  0  0  0  0  0
  151.1072  142.9280  156.5035 H   0  0  0  0  0  0  0  0  0  0  0  0
  1  2  1  0  0  0  0
  1 25  1  0  0  0  0
  1 26  1  0  0  0  0
  1 27  1  0  0  0  0
  2  3  1  0  0  0  0
  3  4  1  0  0  0  0
  3 28  1  0  0  0  0
  3 29  1  0  0  0  0
  4  5  1  0  0  0  0
  4 30  1  0  0  0  0
  4 31  1  0  0  0  0
  5 24  1  0  0  0  0
  5  6  1  0  0  0  0
  6  7  1  0  0  0  0
  6 18  2  0  0  0  0
  7  8  1  0  0  0  0
  8  9  1  0  0  0  0
  8 32  1  0  0  0  0
  8 33  1  0  0  0  0
  9 10  2  0  0  0  0
  9 11  1  0  0  0  0
 11 12  1  0  0  0  0
 11 34  1  0  0  0  0
 12 17  2  0  0  0  0
 12 13  1  0  0  0  0
 13 14  2  0  0  0  0
 13 35  1  0  0  0  0
 14 15  1  0  0  0  0
 14 16  1  0  0  0  0
 15 36  1  0  0  0  0
 15 37  1  0  0  0  0
 15 38  1  0  0  0  0
 16 17  1  0  0  0  0
 18 19  1  0  0  0  0
 19 24  2  0  0  0  0
 19 20  1  0  0  0  0
 20 21  2  0  0  0  0
 20 39  1  0  0  0  0
 21 22  1  0  0  0  0
 21 40  1  0  0  0  0
 22 23  2  0  0  0  0
 22 41  1  0  0  0  0
 23 24  1  0  0  0  0
 23 42  1  0  0  0  0
M  END
> <s_m_source_file>
AV-unprocessed.smi

> <i_m_source_file_index>
2986

> <i_lp_mmshare_version>
43012

> <i_f3d_flags>
0

> <s_epik_input>
W2NIXTFbY0hdW2NIXVtjSF1jKGMxMiluKFtDSDJdW0NIMl1PW0NIM10pYyhuMilTW0NIMl1DKD1PKVtOSF1jM1tjSF1jKFtDSDNdKW9uMw==

> <s_epik_cmdline>
J2VwaWtfcHl0aG9uJywgJy1waCcsICc3LjAnLCAnLXRuJywgJzgnLCAnLW1hJywgJzIwMCcsICctbWV0YWxfYmluZGluZycsICctaW1hZScsICc8aW5maWxlLm1hZT4nLCAnLW9tYWUnLCAnPG91dGZpbGUubWFlPic=

> <r_epik_Ionization_Penalty>
0.0256487

> <r_epik_Ionization_Penalty_Charging>
0

> <r_epik_Ionization_Penalty_Neutral>
0.0256487

> <r_epik_State_Penalty>
0.0204505

> <r_epik_Charging_Adjusted_Penalty>
0.0204505

> <i_epik_Tot_Q>
0

> <i_epik_Tot_abs_Q>
0

> <r_epik_Metal_State_Penalty>
0.237509

> <b_epik_Metal_Only>
0

> <s_lp_Force_Field>
OPLS_2005

> <r_lp_Energy>
8.97746

> <b_lp_Chiralities_Consistent>
1

> <s_lp_Variant>
AV-unprocessed.smi:2986-1

> <Gold.Version>
5.8.1

> <Gold.Id.Protein>
6NUR|6NUR_protein|mol2

> <Gold.PLP.Fitness>
55.1405

> <Gold.PLP.PLP>
-50.7362

> <Gold.PLP.part.hbond>
-2.0000

> <Gold.PLP.part.metal>
0.0000

> <Gold.PLP.part.buried>
-6.4460

> <Gold.PLP.part.nonpolar>
-42.2457

> <Gold.PLP.part.repulsive>
0.1224

> <Gold.PLP.ligand.clash>
0.0000

> <Gold.PLP.ligand.torsion>
0.8463

> <Gold.PLP.Chemscore.Hbond>
2.0000

> <Gold.PLP.Chemscore.CHOScore>
0.0000

> <Gold.PLP.Chemscore.Metal>
0.0000

> <Gold.Chemscore.Hbonds>
donor molecule, donor type, donor heavy atom, donor atom, acceptor molecule, acceptor atom, score
      P1  H  6896  6908       L1    10  1.00
      P1  H  7989  7998       L1     2  1.00

> <Gold.PLP.Chemscore.Internal.Correction>
0.0970

> <Gold.Rescore>
     Score         DG    S(hbond)    S(metal)    S(lipo)     H(rot)  DE(clash)    DE(int)     intcor
     19.46     -21.09       1.86        0.00     130.14       2.28       0.31       1.31       ----

> <Gold.Chemscore.Fitness>
19.4618

> <Gold.Chemscore.DG>
-21.0860

> <Gold.Chemscore.ZeroCoef>
-5.4800

> <Gold.Chemscore.Hbond>
1.8615

> <Gold.Chemscore.Metal>
0.0000

> <Gold.Chemscore.Lipo>
130.1397

> <Gold.Chemscore.Internal_Hbond>
0.0000

> <Gold.Chemscore.DEClash>
0.3148

> <Gold.Chemscore.DEInternal>
1.3094

> <Gold.Chemscore.Rot>
2.2804

> <Gold.Chemscore.Internal.Correction>
   9.000000E+99

> <Gold.Chemscore.Hbonds>
donor molecule, donor type, donor heavy atom, donor atom, acceptor molecule, acceptor atom, score
      P1  H  6896  6908       L1    10  1.00
      P1  H  7989  7998       L1     2  0.35

> <Gold.Chemscore.Hbond.Weighted>
-6.2175

> <Gold.Chemscore.Metal.Weighted>
-0.0000

> <Gold.Chemscore.Lipo.Weighted>
-15.2263

> <Gold.Chemscore.Internal_Hbond.Weighted>
0.0000

> <Gold.Chemscore.DEClash.Weighted>
0.3148

> <Gold.Chemscore.DEInternal.Weighted>
1.3094

> <Gold.Chemscore.Rot.Weighted>
5.8379

> <Gold.Chemscore.Internal.Correction.Weighted>
   9.000000E+99

> <Gold.Protein.RotatedTorsions>
[ 6907 6896 6895 6894 ] final  -57.74 input  -60.11 | X-H torsion
[ 7974 7965 7964 7962 ] final    2.30 input  175.53 | X-H torsion
[ 8008 7997 7996 7995 ] final   57.72 input   59.86 | X-H torsion
[ 10167 10162 10161 10158 ] final   45.97 input  -65.29 | X-H torsion
[ 10718 10713 10712 10709 ] final -165.19 input   66.30 | X-H torsion
[ 10763 10752 10751 10750 ] final  -11.05 input  -60.55 | X-H torsion
[ 11005 11000 10999 10996 ] final  -26.86 input  -57.11 | X-H torsion

> <Gold.Protein.ActiveResidues>
 VAL166  LYS551  ARG553  GLY616  TRP617  ASP618  TYR619  PRO620  LYS621  CYS622 
 ASP623  PHE694  ASN695  SER759  ASP760  ASP761  ALA762  ILE779  LEU786  VAL792 
 PHE793  MET794  SER795  GLU796  ALA797  LYS798  CYS799  TRP800  GLU811  SER814 

> <Gold.Protein.RotatedAtoms>
  150.8062  134.7188  159.6645 H   0  0  0  0  0  0  0  0  0  0  0  0  # atno 6907 bound_to 6896
  152.4181  134.6001  160.0007 H   0  0  0  0  0  0  0  0  0  0  0  0  # atno 6908 bound_to 6896
  151.6225  133.3301  159.3127 H   0  0  0  0  0  0  0  0  0  0  0  0  # atno 6909 bound_to 6896
  146.2443  140.0856  142.8354 H   0  0  0  0  0  0  0  0  0  0  0  0  # atno 7974 bound_to 7965
  155.5383  140.3483  155.4441 H   0  0  0  0  0  0  0  0  0  0  0  0  # atno 8008 bound_to 7997
  156.0669  140.1353  156.9901 H   0  0  0  0  0  0  0  0  0  0  0  0  # atno 8009 bound_to 7997
  154.4508  140.0973  156.6586 H   0  0  0  0  0  0  0  0  0  0  0  0  # atno 8010 bound_to 7997
  140.3187  144.2732  150.6186 H   0  0  0  0  0  0  0  0  0  0  0  0  # atno 10167 bound_to 10162
  156.6499  130.9003  151.3011 H   0  0  0  0  0  0  0  0  0  0  0  0  # atno 10718 bound_to 10713
  153.4781  135.7017  153.5954 H   0  0  0  0  0  0  0  0  0  0  0  0  # atno 10763 bound_to 10752
  153.4179  135.3832  155.2092 H   0  0  0  0  0  0  0  0  0  0  0  0  # atno 10764 bound_to 10752
  154.8723  135.3920  154.4227 H   0  0  0  0  0  0  0  0  0  0  0  0  # atno 10765 bound_to 10752
  140.9067  133.7488  156.0616 H   0  0  0  0  0  0  0  0  0  0  0  0  # atno 11005 bound_to 11000
  145.0695  140.9145  143.4891 LP  0  0  0  0  0  0  0  0  0  0  0  0  # atno 17320 bound_to 7965
  145.0987  139.2838  143.5697 LP  0  0  0  0  0  0  0  0  0  0  0  0  # atno 17321 bound_to 7965
  140.5503  143.2207  151.7938 LP  0  0  0  0  0  0  0  0  0  0  0  0  # atno 17342 bound_to 10162
  139.4878  144.4485  151.9682 LP  0  0  0  0  0  0  0  0  0  0  0  0  # atno 17343 bound_to 10162
  157.7144  130.9479  150.1203 LP  0  0  0  0  0  0  0  0  0  0  0  0  # atno 17370 bound_to 10713
  156.2093  130.3665  149.8691 LP  0  0  0  0  0  0  0  0  0  0  0  0  # atno 17371 bound_to 10713
  140.8162  134.3342  157.5396 LP  0  0  0  0  0  0  0  0  0  0  0  0  # atno 17394 bound_to 11000
  139.8750  134.9283  156.3446 LP  0  0  0  0  0  0  0  0  0  0  0  0  # atno 17395 bound_to 11000

$$$$
