AV-unprocessed.smi:1413|AV-procd|sdf|5756|dock5
  -GOLD-   22720 5393D 1   1.00000     0.00000
 Structure written by MMmdl.
 53 55  0  0  0  0  0  0  0  0  1 V2000
  152.2566  144.7209  157.5735 C   0  0  0  0  0  0  0  0  0  0  0  0
  151.3527  143.8800  158.4923 C   0  0  1  0  0  0  0  0  0  0  0  0
  150.4330  142.9081  157.7271 C   0  0  0  0  0  0  0  0  0  0  0  0
  151.1801  141.7538  157.2356 N   0  0  0  0  0  0  0  0  0  0  0  0
  150.5022  140.9546  156.2905 C   0  0  0  0  0  0  0  0  0  0  0  0
  149.1313  141.1779  156.0265 C   0  0  0  0  0  0  0  0  0  0  0  0
  148.4734  140.3649  155.0846 C   0  0  0  0  0  0  0  0  0  0  0  0
  149.1920  139.3497  154.4239 C   0  0  0  0  0  0  0  0  0  0  0  0
  148.4833  138.5456  153.4882 N   0  0  0  0  0  0  0  0  0  0  0  0
  147.1617  138.4712  153.2518 C   0  0  0  0  0  0  0  0  0  0  0  0
  146.2900  139.1049  153.8444 O   0  0  0  0  0  0  0  0  0  0  0  0
  146.8982  137.5946  152.2723 N   0  0  0  0  0  0  0  0  0  0  0  0
  145.5685  137.2764  151.7555 C   0  0  2  0  0  0  0  0  0  0  0  0
  144.5666  137.1723  152.9175 C   0  0  0  0  0  0  0  0  0  0  0  0
  145.6249  135.9778  150.9279 C   0  0  2  0  0  0  0  0  0  0  0  0
  144.2584  135.4353  150.4992 C   0  0  0  0  0  0  0  0  0  0  0  0
  144.5466  133.9608  150.3395 C   0  0  0  0  0  0  0  0  0  0  0  0
  145.4954  133.7091  151.5058 C   0  0  0  0  0  0  0  0  0  0  0  0
  146.2155  134.9250  151.6888 O   0  0  0  0  0  0  0  0  0  0  0  0
  150.5614  139.2014  154.7522 C   0  0  0  0  0  0  0  0  0  0  0  0
  151.1963  139.9807  155.6532 N   0  0  0  0  0  0  0  0  0  0  0  0
  151.9472  141.0812  158.2803 C   0  0  0  0  0  0  0  0  0  0  0  0
  152.8717  142.0835  158.9942 C   0  0  2  0  0  0  0  0  0  0  0  0
  153.6014  141.4447  160.1804 C   0  0  0  0  0  0  0  0  0  0  0  0
  152.0998  143.1775  159.4880 O   0  0  0  0  0  0  0  0  0  0  0  0
  151.6576  145.3483  156.9134 H   0  0  0  0  0  0  0  0  0  0  0  0
  152.8936  144.1035  156.9406 H   0  0  0  0  0  0  0  0  0  0  0  0
  152.9000  145.3782  158.1585 H   0  0  0  0  0  0  0  0  0  0  0  0
  150.7152  144.5815  159.0310 H   0  0  0  0  0  0  0  0  0  0  0  0
  149.6508  142.5452  158.3951 H   0  0  0  0  0  0  0  0  0  0  0  0
  149.9301  143.4426  156.9222 H   0  0  0  0  0  0  0  0  0  0  0  0
  148.5853  141.9660  156.5235 H   0  0  0  0  0  0  0  0  0  0  0  0
  147.4260  140.5243  154.8729 H   0  0  0  0  0  0  0  0  0  0  0  0
  149.0605  137.9335  152.9304 H   0  0  0  0  0  0  0  0  0  0  0  0
  147.6758  137.1147  151.8434 H   0  0  0  0  0  0  0  0  0  0  0  0
  145.2451  138.0801  151.0913 H   0  0  0  0  0  0  0  0  0  0  0  0
  143.5627  136.9545  152.5525 H   0  0  0  0  0  0  0  0  0  0  0  0
  144.5125  138.1061  153.4778 H   0  0  0  0  0  0  0  0  0  0  0  0
  144.8461  136.3809  153.6136 H   0  0  0  0  0  0  0  0  0  0  0  0
  146.2400  136.1247  150.0383 H   0  0  0  0  0  0  0  0  0  0  0  0
  143.5193  135.5854  151.2876 H   0  0  0  0  0  0  0  0  0  0  0  0
  143.8826  135.8978  149.5863 H   0  0  0  0  0  0  0  0  0  0  0  0
  143.6511  133.3401  150.3749 H   0  0  0  0  0  0  0  0  0  0  0  0
  145.0551  133.7781  149.3919 H   0  0  0  0  0  0  0  0  0  0  0  0
  144.9318  133.5015  152.4162 H   0  0  0  0  0  0  0  0  0  0  0  0
  146.1673  132.8702  151.3238 H   0  0  0  0  0  0  0  0  0  0  0  0
  151.1877  138.4448  154.3086 H   0  0  0  0  0  0  0  0  0  0  0  0
  151.2590  140.6269  158.9945 H   0  0  0  0  0  0  0  0  0  0  0  0
  152.5479  140.2788  157.8500 H   0  0  0  0  0  0  0  0  0  0  0  0
  153.6233  142.4497  158.2947 H   0  0  0  0  0  0  0  0  0  0  0  0
  154.2131  140.6020  159.8572 H   0  0  0  0  0  0  0  0  0  0  0  0
  152.8962  141.0797  160.9277 H   0  0  0  0  0  0  0  0  0  0  0  0
  154.2591  142.1655  160.6667 H   0  0  0  0  0  0  0  0  0  0  0  0
  1  2  1  0  0  0  0
  1 26  1  0  0  0  0
  1 27  1  0  0  0  0
  1 28  1  0  0  0  0
  2 25  1  0  0  0  0
  2  3  1  0  0  0  0
  2 29  1  0  0  0  0
  3  4  1  0  0  0  0
  3 30  1  0  0  0  0
  3 31  1  0  0  0  0
  4  5  1  0  0  0  0
  4 22  1  0  0  0  0
  5 21  1  0  0  0  0
  5  6  2  0  0  0  0
  6  7  1  0  0  0  0
  6 32  1  0  0  0  0
  7  8  2  0  0  0  0
  7 33  1  0  0  0  0
  8  9  1  0  0  0  0
  8 20  1  0  0  0  0
  9 10  1  0  0  0  0
  9 34  1  0  0  0  0
 10 11  2  0  0  0  0
 10 12  1  0  0  0  0
 12 13  1  0  0  0  0
 12 35  1  0  0  0  0
 13 14  1  0  0  0  0
 13 15  1  0  0  0  0
 13 36  1  0  0  0  0
 14 37  1  0  0  0  0
 14 38  1  0  0  0  0
 14 39  1  0  0  0  0
 15 19  1  0  0  0  0
 15 16  1  0  0  0  0
 15 40  1  0  0  0  0
 16 17  1  0  0  0  0
 16 41  1  0  0  0  0
 16 42  1  0  0  0  0
 17 18  1  0  0  0  0
 17 43  1  0  0  0  0
 17 44  1  0  0  0  0
 18 19  1  0  0  0  0
 18 45  1  0  0  0  0
 18 46  1  0  0  0  0
 20 21  2  0  0  0  0
 20 47  1  0  0  0  0
 22 23  1  0  0  0  0
 22 48  1  0  0  0  0
 22 49  1  0  0  0  0
 23 24  1  0  0  0  0
 23 25  1  0  0  0  0
 23 50  1  0  0  0  0
 24 51  1  0  0  0  0
 24 52  1  0  0  0  0
 24 53  1  0  0  0  0
M  END
> <s_m_source_file>
AV-unprocessed.smi

> <i_m_source_file_index>
1413

> <i_lp_mmshare_version>
43012

> <i_f3d_flags>
0

> <s_epik_input>
W0NIM11bQ0BASF0xW0NIMl1OKFtDSDJdW0NASF0oTzEpW0NIM10pYzJbY0hdW2NIXWMoW2NIXW4yKVtOSF1DKD1PKVtOSF1bQ0BIXShbQ0gzXSlbQ0BASF0zW0NIMl1bQ0gyXVtDSDJdTzM=

> <s_epik_cmdline>
J2VwaWtfcHl0aG9uJywgJy1waCcsICc3LjAnLCAnLXRuJywgJzgnLCAnLW1hJywgJzIwMCcsICctbWV0YWxfYmluZGluZycsICctaW1hZScsICc8aW5maWxlLm1hZT4nLCAnLW9tYWUnLCAnPG91dGZpbGUubWFlPic=

> <r_lp_tautomer_probability>
1

> <r_epik_Ionization_Penalty>
0.00271172

> <r_epik_Ionization_Penalty_Charging>
0

> <r_epik_Ionization_Penalty_Neutral>
0.00271172

> <r_epik_State_Penalty>
0.00186503

> <r_epik_Charging_Adjusted_Penalty>
0.00186503

> <i_epik_Tot_Q>
0

> <i_epik_Tot_abs_Q>
0

> <r_epik_Metal_State_Penalty>
-0

> <b_epik_Metal_Only>
0

> <s_lp_Force_Field>
OPLS_2005

> <r_lp_Energy>
36.1099

> <b_lp_Chiralities_Consistent>
1

> <s_lp_Variant>
AV-unprocessed.smi:1413-9

> <Gold.Version>
5.8.1

> <Gold.Id.Protein>
6NUR|6NUR_protein|mol2

> <Gold.PLP.Fitness>
48.7133

> <Gold.PLP.PLP>
-43.7620

> <Gold.PLP.part.hbond>
-2.9624

> <Gold.PLP.part.metal>
0.0000

> <Gold.PLP.part.buried>
-5.5843

> <Gold.PLP.part.nonpolar>
-37.8317

> <Gold.PLP.part.repulsive>
1.2188

> <Gold.PLP.ligand.clash>
0.0000

> <Gold.PLP.ligand.torsion>
0.4829

> <Gold.PLP.Chemscore.Hbond>
1.8640

> <Gold.PLP.Chemscore.CHOScore>
0.0000

> <Gold.PLP.Chemscore.Metal>
0.0000

> <Gold.Chemscore.Hbonds>
donor molecule, donor type, donor heavy atom, donor atom, acceptor molecule, acceptor atom, score
      L1  H     9    34       P1  7948  0.85
      L1  H    12    35       P1  7948  0.99

> <Gold.PLP.Chemscore.Internal.Correction>
0.3251

> <Gold.Rescore>
     Score         DG    S(hbond)    S(metal)    S(lipo)     H(rot)  DE(clash)    DE(int)     intcor
     18.10     -22.11       1.87        0.00     118.17       1.35       0.76       3.24       ----

> <Gold.Chemscore.Fitness>
18.1048

> <Gold.Chemscore.DG>
-22.1091

> <Gold.Chemscore.ZeroCoef>
-5.4800

> <Gold.Chemscore.Hbond>
1.8716

> <Gold.Chemscore.Metal>
0.0000

> <Gold.Chemscore.Lipo>
118.1749

> <Gold.Chemscore.Internal_Hbond>
0.0000

> <Gold.Chemscore.DEClash>
0.7610

> <Gold.Chemscore.DEInternal>
3.2433

> <Gold.Chemscore.Rot>
1.3471

> <Gold.Chemscore.Internal.Correction>
   9.000000E+99

> <Gold.Chemscore.Hbonds>
donor molecule, donor type, donor heavy atom, donor atom, acceptor molecule, acceptor atom, score
      L1  H     9    34       P1  7948  0.81
      L1  H    12    35       P1  7948  0.91

> <Gold.Chemscore.Hbond.Weighted>
-6.2512

> <Gold.Chemscore.Metal.Weighted>
-0.0000

> <Gold.Chemscore.Lipo.Weighted>
-13.8265

> <Gold.Chemscore.Internal_Hbond.Weighted>
0.0000

> <Gold.Chemscore.DEClash.Weighted>
0.7610

> <Gold.Chemscore.DEInternal.Weighted>
3.2433

> <Gold.Chemscore.Rot.Weighted>
3.4485

> <Gold.Chemscore.Internal.Correction.Weighted>
   9.000000E+99

> <Gold.Protein.RotatedTorsions>
[ 6907 6896 6895 6894 ] final   43.00 input  -60.11 | X-H torsion
[ 7974 7965 7964 7962 ] final   67.17 input  175.53 | X-H torsion
[ 8008 7997 7996 7995 ] final   14.73 input   59.86 | X-H torsion
[ 10167 10162 10161 10158 ] final  107.53 input  -65.29 | X-H torsion
[ 10718 10713 10712 10709 ] final  -45.76 input   66.30 | X-H torsion
[ 10763 10752 10751 10750 ] final   45.64 input  -60.55 | X-H torsion
[ 11005 11000 10999 10996 ] final   84.16 input  -57.11 | X-H torsion

> <Gold.Protein.ActiveResidues>
 VAL166  LYS551  ARG553  GLY616  TRP617  ASP618  TYR619  PRO620  LYS621  CYS622 
 ASP623  PHE694  ASN695  SER759  ASP760  ASP761  ALA762  ILE779  LEU786  VAL792 
 PHE793  MET794  SER795  GLU796  ALA797  LYS798  CYS799  TRP800  GLU811  SER814 

> <Gold.Protein.RotatedAtoms>
  152.2148  134.8468  160.0492 H   0  0  0  0  0  0  0  0  0  0  0  0  # atno 6907 bound_to 6896
  151.9273  133.3596  159.3926 H   0  0  0  0  0  0  0  0  0  0  0  0  # atno 6908 bound_to 6896
  150.6985  134.4498  159.5375 H   0  0  0  0  0  0  0  0  0  0  0  0  # atno 6909 bound_to 6896
  145.8179  139.3068  143.1061 H   0  0  0  0  0  0  0  0  0  0  0  0  # atno 7974 bound_to 7965
  154.8526  140.2932  155.5589 H   0  0  0  0  0  0  0  0  0  0  0  0  # atno 8008 bound_to 7997
  156.3017  140.2493  156.3419 H   0  0  0  0  0  0  0  0  0  0  0  0  # atno 8009 bound_to 7997
  154.9005  140.0391  157.1879 H   0  0  0  0  0  0  0  0  0  0  0  0  # atno 8010 bound_to 7997
  139.6919  144.7106  151.1333 H   0  0  0  0  0  0  0  0  0  0  0  0  # atno 10167 bound_to 10162
  156.2251  130.4168  149.8944 H   0  0  0  0  0  0  0  0  0  0  0  0  # atno 10718 bound_to 10713
  152.9821  135.6033  154.3469 H   0  0  0  0  0  0  0  0  0  0  0  0  # atno 10763 bound_to 10752
  154.3162  135.2770  155.2544 H   0  0  0  0  0  0  0  0  0  0  0  0  # atno 10764 bound_to 10752
  154.4731  135.5936  153.6391 H   0  0  0  0  0  0  0  0  0  0  0  0  # atno 10765 bound_to 10752
  139.9009  134.8197  156.2407 H   0  0  0  0  0  0  0  0  0  0  0  0  # atno 11005 bound_to 11000
  145.9707  140.8762  143.0164 LP  0  0  0  0  0  0  0  0  0  0  0  0  # atno 17320 bound_to 7965
  144.6750  140.1941  143.7393 LP  0  0  0  0  0  0  0  0  0  0  0  0  # atno 17321 bound_to 7965
  140.7685  143.5547  150.9165 LP  0  0  0  0  0  0  0  0  0  0  0  0  # atno 17342 bound_to 10162
  139.9225  143.6589  152.3094 LP  0  0  0  0  0  0  0  0  0  0  0  0  # atno 17343 bound_to 10162
  156.6577  130.8769  151.3542 LP  0  0  0  0  0  0  0  0  0  0  0  0  # atno 17370 bound_to 10713
  157.7106  130.9436  150.1078 LP  0  0  0  0  0  0  0  0  0  0  0  0  # atno 17371 bound_to 10713
  141.0286  133.7001  156.1391 LP  0  0  0  0  0  0  0  0  0  0  0  0  # atno 17394 bound_to 11000
  140.7129  134.4442  157.5580 LP  0  0  0  0  0  0  0  0  0  0  0  0  # atno 17395 bound_to 11000

$$$$
