AV-unprocessed.smi:1041|AV-procd|sdf|4531|dock7
  -GOLD-   22720 2553D 1   1.00000     0.00000
 Structure written by MMmdl.
 53 54  0  0  0  0  0  0  0  0  2 V2000
  152.1794  144.4743  158.2434 C   0  0  0  0  0  0  0  0  0  0  0  0
  151.3357  143.3437  158.3770 O   0  0  0  0  0  0  0  0  0  0  0  0
  151.0364  142.7377  157.1305 C   0  0  0  0  0  0  0  0  0  0  0  0
  149.8718  141.7538  157.3219 C   0  0  0  0  0  0  0  0  0  0  0  0
  148.8510  141.8586  156.2482 N   0  3  2  0  0  0  0  0  0  0  0  0
  147.6017  141.1318  156.5944 C   0  0  0  0  0  0  0  0  0  0  0  0
  146.5104  141.3407  155.5271 C   0  0  0  0  0  0  0  0  0  0  0  0
  146.9905  140.9501  154.1172 C   0  0  2  0  0  0  0  0  0  0  0  0
  147.0776  139.4161  153.9359 C   0  0  0  0  0  0  0  0  0  0  0  0
  145.8077  138.8508  153.4938 N   0  0  0  0  0  0  0  0  0  0  0  0
  145.3143  137.6585  153.8634 C   0  0  0  0  0  0  0  0  0  0  0  0
  145.8507  136.9252  154.6934 O   0  0  0  0  0  0  0  0  0  0  0  0
  144.0426  137.2051  153.1482 C   0  0  0  0  0  0  0  0  0  0  0  0
  144.2267  135.9850  152.2488 C   0  0  0  0  0  0  0  0  0  0  0  0
  145.1105  135.9470  151.2192 C   0  0  0  0  0  0  0  0  0  0  0  0
  146.0350  137.0898  150.8373 C   0  0  0  0  0  0  0  0  0  0  0  0
  145.2291  134.8238  150.4195 N   0  0  0  0  0  0  0  0  0  0  0  0
  144.4091  133.7419  150.6940 C   0  0  0  0  0  0  0  0  0  0  0  0
  144.6141  132.5698  149.7588 C   0  0  0  0  0  0  0  0  0  0  0  0
  143.5328  133.6842  151.6502 N   0  0  0  0  0  0  0  0  0  0  0  0
  143.3779  134.7951  152.4947 C   0  0  0  0  0  0  0  0  0  0  0  0
  142.5499  134.7739  153.4045 O   0  0  0  0  0  0  0  0  0  0  0  0
  148.3030  141.7057  153.8206 C   0  0  0  0  0  0  0  0  0  0  0  0
  149.3628  141.4656  154.9084 C   0  0  0  0  0  0  0  0  0  0  0  0
  145.9044  134.8345  149.6686 H   0  0  0  0  0  0  0  0  0  0  0  0
  152.3848  144.8965  159.2271 H   0  0  0  0  0  0  0  0  0  0  0  0
  151.7079  145.2487  157.6368 H   0  0  0  0  0  0  0  0  0  0  0  0
  153.1329  144.2043  157.7879 H   0  0  0  0  0  0  0  0  0  0  0  0
  150.8082  143.4926  156.3780 H   0  0  0  0  0  0  0  0  0  0  0  0
  151.9117  142.1915  156.7753 H   0  0  0  0  0  0  0  0  0  0  0  0
  150.2429  140.7293  157.3738 H   0  0  0  0  0  0  0  0  0  0  0  0
  149.4123  141.9623  158.2892 H   0  0  0  0  0  0  0  0  0  0  0  0
  147.8191  140.0706  156.7209 H   0  0  0  0  0  0  0  0  0  0  0  0
  147.2276  141.4889  157.5546 H   0  0  0  0  0  0  0  0  0  0  0  0
  145.6149  140.7774  155.7922 H   0  0  0  0  0  0  0  0  0  0  0  0
  146.2152  142.3910  155.5258 H   0  0  0  0  0  0  0  0  0  0  0  0
  146.2429  141.3058  153.4064 H   0  0  0  0  0  0  0  0  0  0  0  0
  147.8833  139.1458  153.2530 H   0  0  0  0  0  0  0  0  0  0  0  0
  147.3284  138.9506  154.8896 H   0  0  0  0  0  0  0  0  0  0  0  0
  145.2921  139.3792  152.8045 H   0  0  0  0  0  0  0  0  0  0  0  0
  143.2899  136.9922  153.9071 H   0  0  0  0  0  0  0  0  0  0  0  0
  143.6255  138.0335  152.5734 H   0  0  0  0  0  0  0  0  0  0  0  0
  146.7209  137.3141  151.6544 H   0  0  0  0  0  0  0  0  0  0  0  0
  145.4602  137.9877  150.6112 H   0  0  0  0  0  0  0  0  0  0  0  0
  146.6323  136.8465  149.9577 H   0  0  0  0  0  0  0  0  0  0  0  0
  143.8113  131.8397  149.8676 H   0  0  0  0  0  0  0  0  0  0  0  0
  145.5598  132.0733  149.9773 H   0  0  0  0  0  0  0  0  0  0  0  0
  144.6295  132.9042  148.7208 H   0  0  0  0  0  0  0  0  0  0  0  0
  148.7010  141.4376  152.8420 H   0  0  0  0  0  0  0  0  0  0  0  0
  148.0924  142.7745  153.7651 H   0  0  0  0  0  0  0  0  0  0  0  0
  150.2517  142.0425  154.6577 H   0  0  0  0  0  0  0  0  0  0  0  0
  149.6654  140.4179  154.9219 H   0  0  0  0  0  0  0  0  0  0  0  0
  148.5987  142.8353  156.1917 H   0  0  0  0  0  0  0  0  0  0  0  0
  1  2  1  0  0  0  0
  1 26  1  0  0  0  0
  1 27  1  0  0  0  0
  1 28  1  0  0  0  0
  2  3  1  0  0  0  0
  3  4  1  0  0  0  0
  3 29  1  0  0  0  0
  3 30  1  0  0  0  0
  4  5  1  0  0  0  0
  4 31  1  0  0  0  0
  4 32  1  0  0  0  0
  5 24  1  0  0  0  0
  5  6  1  0  0  0  0
  5 53  1  0  0  0  0
  6  7  1  0  0  0  0
  6 33  1  0  0  0  0
  6 34  1  0  0  0  0
  7  8  1  0  0  0  0
  7 35  1  0  0  0  0
  7 36  1  0  0  0  0
  8  9  1  0  0  0  0
  8 23  1  0  0  0  0
  8 37  1  0  0  0  0
  9 10  1  0  0  0  0
  9 38  1  0  0  0  0
  9 39  1  0  0  0  0
 10 11  1  0  0  0  0
 10 40  1  0  0  0  0
 11 12  2  0  0  0  0
 11 13  1  0  0  0  0
 13 41  1  0  0  0  0
 13 42  1  0  0  0  0
 13 14  1  0  0  0  0
 14 21  1  0  0  0  0
 14 15  2  0  0  0  0
 15 16  1  0  0  0  0
 15 17  1  0  0  0  0
 16 43  1  0  0  0  0
 16 44  1  0  0  0  0
 16 45  1  0  0  0  0
 17 25  1  0  0  0  0
 17 18  1  0  0  0  0
 18 19  1  0  0  0  0
 18 20  2  0  0  0  0
 19 46  1  0  0  0  0
 19 47  1  0  0  0  0
 19 48  1  0  0  0  0
 20 21  1  0  0  0  0
 21 22  2  0  0  0  0
 23 24  1  0  0  0  0
 23 49  1  0  0  0  0
 23 50  1  0  0  0  0
 24 51  1  0  0  0  0
 24 52  1  0  0  0  0
M  CHG  1   5   1
M  END
> <s_m_source_file>
AV-unprocessed.smi

> <i_m_source_file_index>
1041

> <i_lp_mmshare_version>
43012

> <i_f3d_flags>
0

> <s_epik_input>
W0NIM11PW0NIMl1bQ0gyXU4xW0NIMl1bQ0gyXVtDSF0oW0NIMl1bQ0gyXTEpW0NIMl1bTkhdQyg9TylbQ0gyXWMyYyhbQ0gzXSluYyhbQ0gzXSlbbkhdYzI9Tw==

> <s_epik_cmdline>
J2VwaWtfcHl0aG9uJywgJy1waCcsICc3LjAnLCAnLXRuJywgJzgnLCAnLW1hJywgJzIwMCcsICctbWV0YWxfYmluZGluZycsICctaW1hZScsICc8aW5maWxlLm1hZT4nLCAnLW9tYWUnLCAnPG91dGZpbGUubWFlPic=

> <r_lp_tautomer_probability>
0.156392

> <r_epik_Ionization_Penalty>
0.0240251

> <r_epik_Ionization_Penalty_Charging>
0.0239146

> <r_epik_Ionization_Penalty_Neutral>
0.000110474

> <r_epik_State_Penalty>
1.15942

> <r_epik_Charging_Adjusted_Penalty>
1.18333

> <i_epik_Tot_Q>
1

> <i_epik_Tot_abs_Q>
1

> <r_epik_Metal_State_Penalty>
1.33297

> <b_epik_Metal_Only>
0

> <s_lp_Force_Field>
OPLS_2005

> <r_lp_Energy>
25.6342

> <b_lp_Chiralities_Consistent>
1

> <s_lp_Variant>
AV-unprocessed.smi:1041-4

> <Gold.Version>
5.8.1

> <Gold.Id.Protein>
6NUR|6NUR_protein|mol2

> <Gold.PLP.Fitness>
49.2319

> <Gold.PLP.PLP>
-39.4447

> <Gold.PLP.part.hbond>
-3.0000

> <Gold.PLP.part.metal>
0.0000

> <Gold.PLP.part.buried>
-2.2829

> <Gold.PLP.part.nonpolar>
-35.6954

> <Gold.PLP.part.repulsive>
0.5855

> <Gold.PLP.ligand.clash>
0.0000

> <Gold.PLP.ligand.torsion>
0.9885

> <Gold.PLP.Chemscore.Hbond>
3.8720

> <Gold.PLP.Chemscore.CHOScore>
0.0000

> <Gold.PLP.Chemscore.Metal>
0.0000

> <Gold.Chemscore.Hbonds>
donor molecule, donor type, donor heavy atom, donor atom, acceptor molecule, acceptor atom, score
      L1  H     5    53       P1  8028  2.00
      L1  H    10    40       P1 10175  0.91
      L1  H    17    25       P1  7921  0.89

> <Gold.PLP.Chemscore.Internal.Correction>
0.1482

> <Gold.Rescore>
     Score         DG    S(hbond)    S(metal)    S(lipo)     H(rot)  DE(clash)    DE(int)     intcor
     16.59     -20.11       2.84        0.00      97.20       2.43       2.50       1.02       ----

> <Gold.Chemscore.Fitness>
16.5900

> <Gold.Chemscore.DG>
-20.1112

> <Gold.Chemscore.ZeroCoef>
-5.4800

> <Gold.Chemscore.Hbond>
2.8377

> <Gold.Chemscore.Metal>
0.0000

> <Gold.Chemscore.Lipo>
97.1967

> <Gold.Chemscore.Internal_Hbond>
0.0000

> <Gold.Chemscore.DEClash>
2.4987

> <Gold.Chemscore.DEInternal>
1.0226

> <Gold.Chemscore.Rot>
2.4291

> <Gold.Chemscore.Internal.Correction>
   9.000000E+99

> <Gold.Chemscore.Hbonds>
donor molecule, donor type, donor heavy atom, donor atom, acceptor molecule, acceptor atom, score
      L1  H     5    53       P1  8028  0.94
      L1  H    10    40       P1 10175  0.88
      L1  H    17    25       P1  7921  0.66

> <Gold.Chemscore.Hbond.Weighted>
-9.4778

> <Gold.Chemscore.Metal.Weighted>
-0.0000

> <Gold.Chemscore.Lipo.Weighted>
-11.3720

> <Gold.Chemscore.Internal_Hbond.Weighted>
0.0000

> <Gold.Chemscore.DEClash.Weighted>
2.4987

> <Gold.Chemscore.DEInternal.Weighted>
1.0226

> <Gold.Chemscore.Rot.Weighted>
6.2186

> <Gold.Chemscore.Internal.Correction.Weighted>
   9.000000E+99

> <Gold.Protein.RotatedTorsions>
[ 6907 6896 6895 6894 ] final   35.31 input  -60.11 | X-H torsion
[ 7974 7965 7964 7962 ] final   52.90 input  175.53 | X-H torsion
[ 8008 7997 7996 7995 ] final  113.25 input   59.86 | X-H torsion
[ 10167 10162 10161 10158 ] final   12.51 input  -65.29 | X-H torsion
[ 10718 10713 10712 10709 ] final   38.45 input   66.30 | X-H torsion
[ 10763 10752 10751 10750 ] final   33.45 input  -60.55 | X-H torsion
[ 11005 11000 10999 10996 ] final   62.15 input  -57.11 | X-H torsion

> <Gold.Protein.ActiveResidues>
 VAL166  LYS551  ARG553  GLY616  TRP617  ASP618  TYR619  PRO620  LYS621  CYS622 
 ASP623  PHE694  ASN695  SER759  ASP760  ASP761  ALA762  ILE779  LEU786  VAL792 
 PHE793  MET794  SER795  GLU796  ALA797  LYS798  CYS799  TRP800  GLU811  SER814 

> <Gold.Protein.RotatedAtoms>
  152.1144  134.9251  160.0565 H   0  0  0  0  0  0  0  0  0  0  0  0  # atno 6907 bound_to 6896
  152.0417  133.3975  159.4348 H   0  0  0  0  0  0  0  0  0  0  0  0  # atno 6908 bound_to 6896
  150.6845  134.3328  159.4878 H   0  0  0  0  0  0  0  0  0  0  0  0  # atno 6909 bound_to 6896
  145.9766  139.4201  143.0157 H   0  0  0  0  0  0  0  0  0  0  0  0  # atno 7974 bound_to 7965
  156.2246  140.2983  156.0034 H   0  0  0  0  0  0  0  0  0  0  0  0  # atno 8008 bound_to 7997
  155.2392  140.0422  157.2990 H   0  0  0  0  0  0  0  0  0  0  0  0  # atno 8009 bound_to 7997
  154.5894  140.2397  155.7949 H   0  0  0  0  0  0  0  0  0  0  0  0  # atno 8010 bound_to 7997
  140.6063  143.8501  150.7017 H   0  0  0  0  0  0  0  0  0  0  0  0  # atno 10167 bound_to 10162
  157.3589  130.7639  149.7033 H   0  0  0  0  0  0  0  0  0  0  0  0  # atno 10718 bound_to 10713
  153.0211  135.6386  154.1514 H   0  0  0  0  0  0  0  0  0  0  0  0  # atno 10763 bound_to 10752
  154.1248  135.2844  155.3201 H   0  0  0  0  0  0  0  0  0  0  0  0  # atno 10764 bound_to 10752
  154.6237  135.5516  153.7665 H   0  0  0  0  0  0  0  0  0  0  0  0  # atno 10765 bound_to 10752
  140.0112  134.6293  155.9778 H   0  0  0  0  0  0  0  0  0  0  0  0  # atno 11005 bound_to 11000
  145.7829  140.9848  143.1089 LP  0  0  0  0  0  0  0  0  0  0  0  0  # atno 17320 bound_to 7965
  144.6850  139.9587  143.7480 LP  0  0  0  0  0  0  0  0  0  0  0  0  # atno 17321 bound_to 7965
  140.2058  143.3922  152.1756 LP  0  0  0  0  0  0  0  0  0  0  0  0  # atno 17342 bound_to 10162
  139.5327  144.7177  151.4998 LP  0  0  0  0  0  0  0  0  0  0  0  0  # atno 17343 bound_to 10162
  155.9734  130.4119  150.4006 LP  0  0  0  0  0  0  0  0  0  0  0  0  # atno 17370 bound_to 10713
  157.2080  131.0454  151.2614 LP  0  0  0  0  0  0  0  0  0  0  0  0  # atno 17371 bound_to 10713
  141.1712  133.6537  156.4659 LP  0  0  0  0  0  0  0  0  0  0  0  0  # atno 17394 bound_to 11000
  140.4551  134.6893  157.5058 LP  0  0  0  0  0  0  0  0  0  0  0  0  # atno 17395 bound_to 11000

$$$$
