AV-unprocessed.smi:1412|AV-procd|sdf|5743|dock7
  -GOLD-   22720 5383D 1   1.00000     0.00000
 Structure written by MMmdl.
 42 43  0  0  0  0  0  0  0  0  2 V2000
  144.4161  142.9527  155.0720 C   0  0  0  0  0  0  0  0  0  0  0  0
  145.7862  142.9143  155.7715 C   0  0  0  0  0  0  0  0  0  0  0  0
  146.7307  141.7420  155.3646 C   0  0  2  0  0  0  0  0  0  0  0  0
  146.8469  141.6953  153.8185 C   0  0  0  0  0  0  0  0  0  0  0  0
  146.1120  140.3869  155.8324 C   0  0  0  0  0  0  0  0  0  0  0  0
  144.9638  139.9484  155.0366 N   0  0  0  0  0  0  0  0  0  0  0  0
  144.1454  138.9311  155.3417 C   0  0  0  0  0  0  0  0  0  0  0  0
  144.2544  138.2575  156.3660 O   0  0  0  0  0  0  0  0  0  0  0  0
  143.2103  138.7569  154.3909 N   0  0  0  0  0  0  0  0  0  0  0  0
  142.1723  137.7884  154.3465 C   0  0  0  0  0  0  0  0  0  0  0  0
  142.2071  136.6292  155.0223 N   0  0  0  0  0  0  0  0  0  0  0  0
  141.0678  135.8659  154.8032 N   0  0  0  0  0  0  0  0  0  0  0  0
  140.2193  136.4785  153.9727 C   0  0  0  0  0  0  0  0  0  0  0  0
  140.7274  138.0504  153.3797 S   0  0  0  0  0  0  0  0  0  0  0  0
  148.1040  141.9215  155.9659 N   0  3  0  0  0  0  0  0  0  0  0  0
  148.1829  141.8890  157.4542 C   0  0  0  0  0  0  0  0  0  0  0  0
  149.5929  142.2820  157.9271 C   0  0  0  0  0  0  0  0  0  0  0  0
  150.5568  141.4141  157.3473 O   0  0  0  0  0  0  0  0  0  0  0  0
  150.5530  141.4943  155.9291 C   0  0  0  0  0  0  0  0  0  0  0  0
  149.1786  141.0607  155.3950 C   0  0  0  0  0  0  0  0  0  0  0  0
  143.8377  143.8081  155.4214 H   0  0  0  0  0  0  0  0  0  0  0  0
  143.8261  142.0612  155.2818 H   0  0  0  0  0  0  0  0  0  0  0  0
  144.5113  143.0513  153.9911 H   0  0  0  0  0  0  0  0  0  0  0  0
  146.2752  143.8692  155.5817 H   0  0  0  0  0  0  0  0  0  0  0  0
  145.5969  142.8860  156.8441 H   0  0  0  0  0  0  0  0  0  0  0  0
  145.9363  141.3160  153.3544 H   0  0  0  0  0  0  0  0  0  0  0  0
  147.6606  141.0457  153.4947 H   0  0  0  0  0  0  0  0  0  0  0  0
  147.0208  142.6822  153.3891 H   0  0  0  0  0  0  0  0  0  0  0  0
  146.8579  139.5938  155.7802 H   0  0  0  0  0  0  0  0  0  0  0  0
  145.8330  140.4299  156.8863 H   0  0  0  0  0  0  0  0  0  0  0  0
  144.8048  140.4357  154.1667 H   0  0  0  0  0  0  0  0  0  0  0  0
  143.2509  139.3816  153.5993 H   0  0  0  0  0  0  0  0  0  0  0  0
  139.2875  136.0012  153.7078 H   0  0  0  0  0  0  0  0  0  0  0  0
  147.4789  142.5809  157.9121 H   0  0  0  0  0  0  0  0  0  0  0  0
  147.9420  140.8923  157.8240 H   0  0  0  0  0  0  0  0  0  0  0  0
  149.8153  143.3185  157.6682 H   0  0  0  0  0  0  0  0  0  0  0  0
  149.6586  142.2050  159.0126 H   0  0  0  0  0  0  0  0  0  0  0  0
  150.7967  142.5076  155.6053 H   0  0  0  0  0  0  0  0  0  0  0  0
  151.3316  140.8392  155.5379 H   0  0  0  0  0  0  0  0  0  0  0  0
  149.0077  140.0167  155.6585 H   0  0  0  0  0  0  0  0  0  0  0  0
  149.2038  141.1159  154.3082 H   0  0  0  0  0  0  0  0  0  0  0  0
  148.3605  142.8656  155.7146 H   0  0  0  0  0  0  0  0  0  0  0  0
  1  2  1  0  0  0  0
  1 21  1  0  0  0  0
  1 22  1  0  0  0  0
  1 23  1  0  0  0  0
  2  3  1  0  0  0  0
  2 24  1  0  0  0  0
  2 25  1  0  0  0  0
  3  4  1  0  0  0  0
  3  5  1  0  0  0  0
  3 15  1  0  0  0  0
  4 26  1  0  0  0  0
  4 27  1  0  0  0  0
  4 28  1  0  0  0  0
  5  6  1  0  0  0  0
  5 29  1  0  0  0  0
  5 30  1  0  0  0  0
  6  7  1  0  0  0  0
  6 31  1  0  0  0  0
  7  8  2  0  0  0  0
  7  9  1  0  0  0  0
  9 10  1  0  0  0  0
  9 32  1  0  0  0  0
 10 14  1  0  0  0  0
 10 11  2  0  0  0  0
 11 12  1  0  0  0  0
 12 13  2  0  0  0  0
 13 14  1  0  0  0  0
 13 33  1  0  0  0  0
 15 20  1  0  0  0  0
 15 16  1  0  0  0  0
 15 42  1  0  0  0  0
 16 17  1  0  0  0  0
 16 34  1  0  0  0  0
 16 35  1  0  0  0  0
 17 18  1  0  0  0  0
 17 36  1  0  0  0  0
 17 37  1  0  0  0  0
 18 19  1  0  0  0  0
 19 20  1  0  0  0  0
 19 38  1  0  0  0  0
 19 39  1  0  0  0  0
 20 40  1  0  0  0  0
 20 41  1  0  0  0  0
M  CHG  1  15   1
M  END
> <s_m_source_file>
AV-unprocessed.smi

> <i_m_source_file_index>
1412

> <i_lp_mmshare_version>
43012

> <i_f3d_flags>
0

> <s_epik_input>
W0NIMl0xW0NIMl1PW0NIMl1bQ0gyXU4xW0NAQF0oW0NIM10pKFtDSDJdW0NIM10pW0NIMl1bTkhdQyg9TylbTkhdYzJubltjSF1zMg==

> <s_epik_cmdline>
J2VwaWtfcHl0aG9uJywgJy1waCcsICc3LjAnLCAnLXRuJywgJzgnLCAnLW1hJywgJzIwMCcsICctbWV0YWxfYmluZGluZycsICctaW1hZScsICc8aW5maWxlLm1hZT4nLCAnLW9tYWUnLCAnPG91dGZpbGUubWFlPic=

> <r_lp_tautomer_probability>
1

> <r_epik_Ionization_Penalty>
0.554649

> <r_epik_Ionization_Penalty_Charging>
0.553838

> <r_epik_Ionization_Penalty_Neutral>
0.000811527

> <r_epik_State_Penalty>
0.564424

> <r_epik_Charging_Adjusted_Penalty>
1.11826

> <i_epik_Tot_Q>
1

> <i_epik_Tot_abs_Q>
1

> <r_epik_Metal_State_Penalty>
0.786249

> <b_epik_Metal_Only>
0

> <s_lp_Force_Field>
OPLS_2005

> <r_lp_Energy>
32.8849

> <b_lp_Chiralities_Consistent>
1

> <s_lp_Variant>
AV-unprocessed.smi:1412-4

> <Gold.Version>
5.8.1

> <Gold.Id.Protein>
6NUR|6NUR_protein|mol2

> <Gold.PLP.Fitness>
40.8888

> <Gold.PLP.PLP>
-27.3678

> <Gold.PLP.part.hbond>
-3.9858

> <Gold.PLP.part.metal>
0.0000

> <Gold.PLP.part.buried>
-6.0971

> <Gold.PLP.part.nonpolar>
-18.3347

> <Gold.PLP.part.repulsive>
0.2142

> <Gold.PLP.ligand.clash>
0.0000

> <Gold.PLP.ligand.torsion>
0.5123

> <Gold.PLP.Chemscore.Hbond>
4.5192

> <Gold.PLP.Chemscore.CHOScore>
0.2784

> <Gold.PLP.Chemscore.Metal>
0.0000

> <Gold.Chemscore.Hbonds>
donor molecule, donor type, donor heavy atom, donor atom, acceptor molecule, acceptor atom, score
      L1  H     6    31       P1 10175  0.90
      L1  H     9    32       P1 10175  1.00
      L1  H    15    42       P1  8028  2.00
      P1  H 11000 11005       L1    12  0.59

> <Gold.PLP.Chemscore.Internal.Correction>
0.1528

> <Gold.Rescore>
     Score         DG    S(hbond)    S(metal)    S(lipo)     H(rot)  DE(clash)    DE(int)     intcor
     16.84     -18.65       3.52        0.00      54.04       1.91       0.00       1.80       ----

> <Gold.Chemscore.Fitness>
16.8413

> <Gold.Chemscore.DG>
-18.6480

> <Gold.Chemscore.ZeroCoef>
-5.4800

> <Gold.Chemscore.Hbond>
3.5166

> <Gold.Chemscore.Metal>
0.0000

> <Gold.Chemscore.Lipo>
54.0381

> <Gold.Chemscore.Internal_Hbond>
0.0000

> <Gold.Chemscore.DEClash>
0.0036

> <Gold.Chemscore.DEInternal>
1.8031

> <Gold.Chemscore.Rot>
1.9140

> <Gold.Chemscore.Internal.Correction>
   9.000000E+99

> <Gold.Chemscore.Hbonds>
donor molecule, donor type, donor heavy atom, donor atom, acceptor molecule, acceptor atom, score
      L1  H     6    31       P1 10175  0.83
      L1  H     9    32       P1 10175  0.98
      L1  H    15    42       P1  8028  0.97
      P1  H 11000 11005       L1    12  0.49

> <Gold.Chemscore.Hbond.Weighted>
-11.7454

> <Gold.Chemscore.Metal.Weighted>
-0.0000

> <Gold.Chemscore.Lipo.Weighted>
-6.3225

> <Gold.Chemscore.Internal_Hbond.Weighted>
0.0000

> <Gold.Chemscore.DEClash.Weighted>
0.0036

> <Gold.Chemscore.DEInternal.Weighted>
1.8031

> <Gold.Chemscore.Rot.Weighted>
4.8998

> <Gold.Chemscore.Internal.Correction.Weighted>
   9.000000E+99

> <Gold.Protein.RotatedTorsions>
[ 6907 6896 6895 6894 ] final   57.18 input  -60.11 | X-H torsion
[ 7974 7965 7964 7962 ] final  142.43 input  175.53 | X-H torsion
[ 8008 7997 7996 7995 ] final  -82.21 input   59.86 | X-H torsion
[ 10167 10162 10161 10158 ] final -131.46 input  -65.29 | X-H torsion
[ 10718 10713 10712 10709 ] final  -79.69 input   66.30 | X-H torsion
[ 10763 10752 10751 10750 ] final -116.88 input  -60.55 | X-H torsion
[ 11005 11000 10999 10996 ] final   34.82 input  -57.11 | X-H torsion

> <Gold.Protein.ActiveResidues>
 VAL166  LYS551  ARG553  GLY616  TRP617  ASP618  TYR619  PRO620  LYS621  CYS622 
 ASP623  PHE694  ASN695  SER759  ASP760  ASP761  ALA762  ILE779  LEU786  VAL792 
 PHE793  MET794  SER795  GLU796  ALA797  LYS798  CYS799  TRP800  GLU811  SER814 

> <Gold.Protein.RotatedAtoms>
  152.3707  134.6738  160.0176 H   0  0  0  0  0  0  0  0  0  0  0  0  # atno 6907 bound_to 6896
  151.7032  133.3306  159.3280 H   0  0  0  0  0  0  0  0  0  0  0  0  # atno 6908 bound_to 6896
  150.7671  134.6532  159.6344 H   0  0  0  0  0  0  0  0  0  0  0  0  # atno 6909 bound_to 6896
  144.9008  139.5425  143.5754 H   0  0  0  0  0  0  0  0  0  0  0  0  # atno 7974 bound_to 7965
  154.6062  140.0636  156.9434 H   0  0  0  0  0  0  0  0  0  0  0  0  # atno 8008 bound_to 7997
  155.2049  140.3318  155.4319 H   0  0  0  0  0  0  0  0  0  0  0  0  # atno 8009 bound_to 7997
  156.2349  140.1858  156.7129 H   0  0  0  0  0  0  0  0  0  0  0  0  # atno 8010 bound_to 7997
  139.9187  143.6408  152.2559 H   0  0  0  0  0  0  0  0  0  0  0  0  # atno 10167 bound_to 10162
  156.0087  130.4553  150.3687 H   0  0  0  0  0  0  0  0  0  0  0  0  # atno 10718 bound_to 10713
  154.8535  135.4329  154.1891 H   0  0  0  0  0  0  0  0  0  0  0  0  # atno 10763 bound_to 10752
  153.2964  135.6965  153.7250 H   0  0  0  0  0  0  0  0  0  0  0  0  # atno 10764 bound_to 10752
  153.6397  135.3470  155.3042 H   0  0  0  0  0  0  0  0  0  0  0  0  # atno 10765 bound_to 10752
  140.2490  134.3326  155.7897 H   0  0  0  0  0  0  0  0  0  0  0  0  # atno 11005 bound_to 11000
  146.3107  139.7737  142.9022 LP  0  0  0  0  0  0  0  0  0  0  0  0  # atno 17320 bound_to 7965
  145.3619  141.0327  143.3280 LP  0  0  0  0  0  0  0  0  0  0  0  0  # atno 17321 bound_to 7965
  139.6880  144.7649  151.1489 LP  0  0  0  0  0  0  0  0  0  0  0  0  # atno 17342 bound_to 10162
  140.7668  143.5629  150.9079 LP  0  0  0  0  0  0  0  0  0  0  0  0  # atno 17343 bound_to 10162
  157.1772  131.0383  151.2766 LP  0  0  0  0  0  0  0  0  0  0  0  0  # atno 17370 bound_to 10713
  157.4177  130.7420  149.6889 LP  0  0  0  0  0  0  0  0  0  0  0  0  # atno 17371 bound_to 10713
  141.2203  133.7342  156.9006 LP  0  0  0  0  0  0  0  0  0  0  0  0  # atno 17394 bound_to 11000
  140.1577  134.9187  157.2675 LP  0  0  0  0  0  0  0  0  0  0  0  0  # atno 17395 bound_to 11000

$$$$
