AV-unprocessed.smi:3135|AV-procd|sdf|11946|dock7
  -GOLD-   2272017343D 1   1.00000     0.00000
 Structure written by MMmdl.
 38 39  0  0  0  0  0  0  0  0  2 V2000
  151.0986  142.4020  157.3837 C   0  0  0  0  0  0  0  0  0  0  0  0
  150.8277  141.4102  156.2895 C   0  0  0  0  0  0  0  0  0  0  0  0
  149.8612  141.5006  155.2476 C   0  0  0  0  0  0  0  0  0  0  0  0
  149.8770  140.4535  154.4388 N   0  0  0  0  0  0  0  0  0  0  0  0
  150.8513  139.6598  154.9329 N   0  0  0  0  0  0  0  0  0  0  0  0
  151.1612  138.3988  154.2792 C   0  0  0  0  0  0  0  0  0  0  0  0
  150.8272  137.1894  155.1591 C   0  0  0  0  0  0  0  0  0  0  0  0
  151.3594  137.0697  156.2623 O   0  0  0  0  0  0  0  0  0  0  0  0
  149.9634  136.2889  154.6620 N   0  0  0  0  0  0  0  0  0  0  0  0
  149.5160  135.0885  155.3572 C   0  0  0  0  0  0  0  0  0  0  0  0
  149.2390  133.9367  154.3730 C   0  0  0  0  0  0  0  0  0  0  0  0
  148.0911  134.2059  153.4699 N   0  3  2  0  0  0  0  0  0  0  0  0
  146.8914  134.6131  154.2365 C   0  0  0  0  0  0  0  0  0  0  0  0
  147.7947  133.0790  152.5525 C   0  0  0  0  0  0  0  0  0  0  0  0
  146.3976  133.1024  151.9716 C   0  0  0  0  0  0  0  0  0  0  0  0
  146.7389  132.1256  153.0708 C   0  0  0  0  0  0  0  0  0  0  0  0
  151.4383  140.2112  156.0526 C   0  0  0  0  0  0  0  0  0  0  0  0
  150.9966  143.4289  157.0319 H   0  0  0  0  0  0  0  0  0  0  0  0
  152.1078  142.2994  157.7836 H   0  0  0  0  0  0  0  0  0  0  0  0
  150.4076  142.2770  158.2174 H   0  0  0  0  0  0  0  0  0  0  0  0
  149.1525  142.2929  155.0560 H   0  0  0  0  0  0  0  0  0  0  0  0
  150.5973  138.3346  153.3478 H   0  0  0  0  0  0  0  0  0  0  0  0
  152.2197  138.3894  154.0142 H   0  0  0  0  0  0  0  0  0  0  0  0
  149.5715  136.4632  153.7475 H   0  0  0  0  0  0  0  0  0  0  0  0
  150.2552  134.7895  156.1026 H   0  0  0  0  0  0  0  0  0  0  0  0
  148.6104  135.3532  155.9023 H   0  0  0  0  0  0  0  0  0  0  0  0
  150.1292  133.7224  153.7793 H   0  0  0  0  0  0  0  0  0  0  0  0
  149.0235  133.0332  154.9456 H   0  0  0  0  0  0  0  0  0  0  0  0
  146.5585  133.8087  154.8939 H   0  0  0  0  0  0  0  0  0  0  0  0
  146.0670  134.8714  153.5717 H   0  0  0  0  0  0  0  0  0  0  0  0
  147.1022  135.4901  154.8494 H   0  0  0  0  0  0  0  0  0  0  0  0
  148.6344  132.6933  151.9768 H   0  0  0  0  0  0  0  0  0  0  0  0
  145.7430  133.9330  152.2292 H   0  0  0  0  0  0  0  0  0  0  0  0
  146.2635  132.6988  150.9700 H   0  0  0  0  0  0  0  0  0  0  0  0
  146.8291  131.0772  152.7935 H   0  0  0  0  0  0  0  0  0  0  0  0
  146.3013  132.3105  154.0502 H   0  0  0  0  0  0  0  0  0  0  0  0
  152.2369  139.7116  156.5811 H   0  0  0  0  0  0  0  0  0  0  0  0
  148.3475  134.9969  152.8963 H   0  0  0  0  0  0  0  0  0  0  0  0
  1  2  1  0  0  0  0
  1 18  1  0  0  0  0
  1 19  1  0  0  0  0
  1 20  1  0  0  0  0
  2 17  2  0  0  0  0
  2  3  1  0  0  0  0
  3  4  2  0  0  0  0
  3 21  1  0  0  0  0
  4  5  1  0  0  0  0
  5  6  1  0  0  0  0
  5 17  1  0  0  0  0
  6  7  1  0  0  0  0
  6 22  1  0  0  0  0
  6 23  1  0  0  0  0
  7  8  2  0  0  0  0
  7  9  1  0  0  0  0
  9 10  1  0  0  0  0
  9 24  1  0  0  0  0
 10 11  1  0  0  0  0
 10 25  1  0  0  0  0
 10 26  1  0  0  0  0
 11 12  1  0  0  0  0
 11 27  1  0  0  0  0
 11 28  1  0  0  0  0
 12 13  1  0  0  0  0
 12 14  1  0  0  0  0
 12 38  1  0  0  0  0
 13 29  1  0  0  0  0
 13 30  1  0  0  0  0
 13 31  1  0  0  0  0
 14 16  1  0  0  0  0
 14 15  1  0  0  0  0
 14 32  1  0  0  0  0
 15 16  1  0  0  0  0
 15 33  1  0  0  0  0
 15 34  1  0  0  0  0
 16 35  1  0  0  0  0
 16 36  1  0  0  0  0
 17 37  1  0  0  0  0
M  CHG  1  12   1
M  END
> <s_m_source_file>
AV-unprocessed.smi

> <i_m_source_file_index>
3135

> <i_lp_mmshare_version>
43012

> <i_f3d_flags>
0

> <s_epik_input>
W0NIM11jMVtjSF1ubihbY0hdMSlbQ0gyXUMoPU8pW05IXVtDSDJdW0NIMl1OKFtDSDNdKVtDSF0yW0NIMl1bQ0gyXTI=

> <s_epik_cmdline>
J2VwaWtfcHl0aG9uJywgJy1waCcsICc3LjAnLCAnLXRuJywgJzgnLCAnLW1hJywgJzIwMCcsICctbWV0YWxfYmluZGluZycsICctaW1hZScsICc8aW5maWxlLm1hZT4nLCAnLW9tYWUnLCAnPG91dGZpbGUubWFlPic=

> <r_lp_tautomer_probability>
1

> <r_epik_Ionization_Penalty>
0.174318

> <r_epik_Ionization_Penalty_Charging>
0.174302

> <r_epik_Ionization_Penalty_Neutral>
1.62778e-05

> <r_epik_State_Penalty>
0.163722

> <r_epik_Charging_Adjusted_Penalty>
0.338024

> <i_epik_Tot_Q>
1

> <i_epik_Tot_abs_Q>
1

> <r_epik_Metal_State_Penalty>
0.163727

> <b_epik_Metal_Only>
0

> <s_lp_Force_Field>
OPLS_2005

> <r_lp_Energy>
17.5594

> <b_lp_Chiralities_Consistent>
1

> <s_lp_Variant>
AV-unprocessed.smi:3135-2

> <Gold.Version>
5.8.1

> <Gold.Id.Protein>
6NUR|6NUR_protein|mol2

> <Gold.PLP.Fitness>
45.3788

> <Gold.PLP.PLP>
-33.8532

> <Gold.PLP.part.hbond>
-3.0927

> <Gold.PLP.part.metal>
0.0000

> <Gold.PLP.part.buried>
-2.8319

> <Gold.PLP.part.nonpolar>
-28.3854

> <Gold.PLP.part.repulsive>
0.1771

> <Gold.PLP.ligand.clash>
0.0000

> <Gold.PLP.ligand.torsion>
0.8848

> <Gold.PLP.Chemscore.Hbond>
3.0000

> <Gold.PLP.Chemscore.CHOScore>
1.0000

> <Gold.PLP.Chemscore.Metal>
0.0000

> <Gold.Chemscore.Hbonds>
donor molecule, donor type, donor heavy atom, donor atom, acceptor molecule, acceptor atom, score
      L1  H     9    24       P1  7948  1.00
      L1  H    12    38       P1  7948  2.00
      L1  C     3    21       P1  8028  1.00

> <Gold.PLP.Chemscore.Internal.Correction>
1.2952

> <Gold.Rescore>
     Score         DG    S(hbond)    S(metal)    S(lipo)     H(rot)  DE(clash)    DE(int)     intcor
     13.34     -14.24       1.82        0.00      65.58       1.96       0.01       0.89       ----

> <Gold.Chemscore.Fitness>
13.3351

> <Gold.Chemscore.DG>
-14.2365

> <Gold.Chemscore.ZeroCoef>
-5.4800

> <Gold.Chemscore.Hbond>
1.8232

> <Gold.Chemscore.Metal>
0.0000

> <Gold.Chemscore.Lipo>
65.5808

> <Gold.Chemscore.Internal_Hbond>
0.0000

> <Gold.Chemscore.DEClash>
0.0102

> <Gold.Chemscore.DEInternal>
0.8912

> <Gold.Chemscore.Rot>
1.9555

> <Gold.Chemscore.Internal.Correction>
   9.000000E+99

> <Gold.Chemscore.Hbonds>
donor molecule, donor type, donor heavy atom, donor atom, acceptor molecule, acceptor atom, score
      L1  H     9    24       P1  7948  0.69
      L1  H    12    38       P1  7948  0.78

> <Gold.Chemscore.Hbond.Weighted>
-6.0895

> <Gold.Chemscore.Metal.Weighted>
-0.0000

> <Gold.Chemscore.Lipo.Weighted>
-7.6729

> <Gold.Chemscore.Internal_Hbond.Weighted>
0.0000

> <Gold.Chemscore.DEClash.Weighted>
0.0102

> <Gold.Chemscore.DEInternal.Weighted>
0.8912

> <Gold.Chemscore.Rot.Weighted>
5.0060

> <Gold.Chemscore.Internal.Correction.Weighted>
   9.000000E+99

> <Gold.Protein.RotatedTorsions>
[ 6907 6896 6895 6894 ] final   58.93 input  -60.11 | X-H torsion
[ 7974 7965 7964 7962 ] final   88.64 input  175.53 | X-H torsion
[ 8008 7997 7996 7995 ] final   65.13 input   59.86 | X-H torsion
[ 10167 10162 10161 10158 ] final  -58.35 input  -65.29 | X-H torsion
[ 10718 10713 10712 10709 ] final    6.35 input   66.30 | X-H torsion
[ 10763 10752 10751 10750 ] final   90.66 input  -60.55 | X-H torsion
[ 11005 11000 10999 10996 ] final -110.23 input  -57.11 | X-H torsion

> <Gold.Protein.ActiveResidues>
 VAL166  LYS551  ARG553  GLY616  TRP617  ASP618  TYR619  PRO620  LYS621  CYS622 
 ASP623  PHE694  ASN695  SER759  ASP760  ASP761  ALA762  ILE779  LEU786  VAL792 
 PHE793  MET794  SER795  GLU796  ALA797  LYS798  CYS799  TRP800  GLU811  SER814 

> <Gold.Protein.RotatedAtoms>
  152.3869  134.6503  160.0121 H   0  0  0  0  0  0  0  0  0  0  0  0  # atno 6907 bound_to 6896
  151.6749  133.3307  159.3213 H   0  0  0  0  0  0  0  0  0  0  0  0  # atno 6908 bound_to 6896
  150.7793  134.6767  159.6466 H   0  0  0  0  0  0  0  0  0  0  0  0  # atno 6909 bound_to 6896
  145.5430  139.2290  143.2555 H   0  0  0  0  0  0  0  0  0  0  0  0  # atno 7974 bound_to 7965
  155.6570  140.3497  155.4768 H   0  0  0  0  0  0  0  0  0  0  0  0  # atno 8008 bound_to 7997
  155.9800  140.1172  157.0758 H   0  0  0  0  0  0  0  0  0  0  0  0  # atno 8009 bound_to 7997
  154.4189  140.1140  156.5409 H   0  0  0  0  0  0  0  0  0  0  0  0  # atno 8010 bound_to 7997
  140.6202  143.2417  151.5498 H   0  0  0  0  0  0  0  0  0  0  0  0  # atno 10167 bound_to 10162
  156.9208  130.5790  149.5648 H   0  0  0  0  0  0  0  0  0  0  0  0  # atno 10718 bound_to 10713
  153.2000  135.4425  155.0254 H   0  0  0  0  0  0  0  0  0  0  0  0  # atno 10763 bound_to 10752
  154.8141  135.3307  154.7227 H   0  0  0  0  0  0  0  0  0  0  0  0  # atno 10764 bound_to 10752
  153.7673  135.6987  153.4969 H   0  0  0  0  0  0  0  0  0  0  0  0  # atno 10765 bound_to 10752
  141.0804  133.9230  157.2302 H   0  0  0  0  0  0  0  0  0  0  0  0  # atno 11005 bound_to 11000
  146.1968  140.6251  142.9120 LP  0  0  0  0  0  0  0  0  0  0  0  0  # atno 17320 bound_to 7965
  144.7567  140.5325  143.6764 LP  0  0  0  0  0  0  0  0  0  0  0  0  # atno 17321 bound_to 7965
  139.5433  144.2590  152.1393 LP  0  0  0  0  0  0  0  0  0  0  0  0  # atno 17342 bound_to 10162
  140.1808  144.4846  150.6529 LP  0  0  0  0  0  0  0  0  0  0  0  0  # atno 17343 bound_to 10162
  156.0492  130.5564  150.8950 LP  0  0  0  0  0  0  0  0  0  0  0  0  # atno 17370 bound_to 10713
  157.5909  131.0944  150.9121 LP  0  0  0  0  0  0  0  0  0  0  0  0  # atno 17371 bound_to 10713
  139.9617  135.0152  156.9279 LP  0  0  0  0  0  0  0  0  0  0  0  0  # atno 17394 bound_to 11000
  140.5482  134.0653  155.7361 LP  0  0  0  0  0  0  0  0  0  0  0  0  # atno 17395 bound_to 11000

$$$$
