AV-unprocessed.smi:241|AV-procd|sdf|1840|dock4
  -GOLD-   2262020453D 1   1.00000     0.00000
 Structure written by MMmdl.
 54 57  0  0  0  0  0  0  0  0  1 V2000
  150.1045  139.6548  154.2870 C   0  0  0  0  0  0  0  0  0  0  0  0
  150.3176  140.7257  155.1887 O   0  0  0  0  0  0  0  0  0  0  0  0
  151.4315  140.5069  156.0398 C   0  0  0  0  0  0  0  0  0  0  0  0
  151.2621  141.3073  157.3451 C   0  0  2  0  0  0  0  0  0  0  0  0
  151.2898  142.8314  157.1619 C   0  0  0  0  0  0  0  0  0  0  0  0
  151.9312  143.3706  158.4489 C   0  0  1  0  0  0  0  0  0  0  0  0
  151.0629  144.2967  159.0862 O   0  0  0  0  0  0  0  0  0  0  0  0
  151.6725  144.9995  160.1570 C   0  0  0  0  0  0  0  0  0  0  0  0
  152.1779  142.1198  159.3037 C   0  0  0  0  0  0  0  0  0  0  0  0
  152.2741  141.0215  158.3543 N   0  0  0  0  0  0  0  0  0  0  0  0
  152.2511  139.7693  158.8680 C   0  0  0  0  0  0  0  0  0  0  0  0
  151.4351  138.8195  158.3390 N   0  0  0  0  0  0  0  0  0  0  0  0
  151.4366  137.5812  158.8424 C   0  0  0  0  0  0  0  0  0  0  0  0
  152.1625  137.0895  159.8493 N   0  0  0  0  0  0  0  0  0  0  0  0
  152.9843  138.0404  160.3800 C   0  0  0  0  0  0  0  0  0  0  0  0
  153.0904  139.3925  159.9498 C   0  0  0  0  0  0  0  0  0  0  0  0
  154.0361  140.0627  160.7137 N   0  0  0  0  0  0  0  0  0  0  0  0
  154.4726  139.1557  161.5439 C   0  0  0  0  0  0  0  0  0  0  0  0
  153.8822  137.9158  161.4273 N   0  0  0  0  0  0  0  0  0  0  0  0
  154.1792  136.7375  162.1927 C   0  0  0  0  0  0  0  0  0  0  0  0
  154.0976  136.7172  163.7220 C   0  0  0  0  0  0  0  0  0  0  0  0
  155.2657  135.7056  163.7605 C   0  0  0  0  0  0  0  0  0  0  0  0
  156.3153  135.9554  164.8567 C   0  0  0  0  0  0  0  0  0  0  0  0
  156.6558  137.3244  164.9434 O   0  0  0  0  0  0  0  0  0  0  0  0
  154.8457  134.2217  163.7905 C   0  0  0  0  0  0  0  0  0  0  0  0
  154.2919  133.8659  165.0410 O   0  0  0  0  0  0  0  0  0  0  0  0
  155.6215  136.2622  162.3619 C   0  0  0  0  0  0  0  0  0  0  0  0
  150.2941  141.0441  157.7756 H   0  0  0  0  0  0  0  0  0  0  0  0
  152.8797  143.8460  158.1923 H   0  0  0  0  0  0  0  0  0  0  0  0
  149.2369  139.8690  153.6632 H   0  0  0  0  0  0  0  0  0  0  0  0
  149.9155  138.7219  154.8197 H   0  0  0  0  0  0  0  0  0  0  0  0
  150.9645  139.5172  153.6303 H   0  0  0  0  0  0  0  0  0  0  0  0
  151.5125  139.4438  156.2700 H   0  0  0  0  0  0  0  0  0  0  0  0
  152.3558  140.7931  155.5357 H   0  0  0  0  0  0  0  0  0  0  0  0
  151.8994  143.1193  156.3046 H   0  0  0  0  0  0  0  0  0  0  0  0
  150.2867  143.2254  156.9947 H   0  0  0  0  0  0  0  0  0  0  0  0
  150.9598  145.7071  160.5802 H   0  0  0  0  0  0  0  0  0  0  0  0
  152.5409  145.5635  159.8152 H   0  0  0  0  0  0  0  0  0  0  0  0
  151.9852  144.3244  160.9541 H   0  0  0  0  0  0  0  0  0  0  0  0
  153.0856  142.2105  159.9008 H   0  0  0  0  0  0  0  0  0  0  0  0
  151.3386  141.9680  159.9842 H   0  0  0  0  0  0  0  0  0  0  0  0
  150.7608  136.8842  158.3691 H   0  0  0  0  0  0  0  0  0  0  0  0
  155.2446  139.3746  162.2667 H   0  0  0  0  0  0  0  0  0  0  0  0
  153.5621  135.9367  161.7815 H   0  0  0  0  0  0  0  0  0  0  0  0
  154.3552  137.6718  164.1828 H   0  0  0  0  0  0  0  0  0  0  0  0
  153.1541  136.3395  164.1170 H   0  0  0  0  0  0  0  0  0  0  0  0
  155.9663  135.6155  165.8320 H   0  0  0  0  0  0  0  0  0  0  0  0
  157.2299  135.3988  164.6504 H   0  0  0  0  0  0  0  0  0  0  0  0
  156.9979  137.4956  165.8074 H   0  0  0  0  0  0  0  0  0  0  0  0
  154.1195  133.9966  163.0091 H   0  0  0  0  0  0  0  0  0  0  0  0
  155.6976  133.5669  163.6063 H   0  0  0  0  0  0  0  0  0  0  0  0
  154.1023  134.6572  165.5216 H   0  0  0  0  0  0  0  0  0  0  0  0
  155.9354  135.5157  161.6317 H   0  0  0  0  0  0  0  0  0  0  0  0
  156.3308  137.0913  162.3987 H   0  0  0  0  0  0  0  0  0  0  0  0
  1  2  1  0  0  0  0
  1 30  1  0  0  0  0
  1 31  1  0  0  0  0
  1 32  1  0  0  0  0
  2  3  1  0  0  0  0
  3  4  1  0  0  0  0
  3 33  1  0  0  0  0
  3 34  1  0  0  0  0
  4 28  1  0  0  0  0
  4 10  1  0  0  0  0
  4  5  1  0  0  0  0
  5  6  1  0  0  0  0
  5 35  1  0  0  0  0
  5 36  1  0  0  0  0
  6 29  1  0  0  0  0
  6  7  1  0  0  0  0
  6  9  1  0  0  0  0
  7  8  1  0  0  0  0
  8 37  1  0  0  0  0
  8 38  1  0  0  0  0
  8 39  1  0  0  0  0
  9 10  1  0  0  0  0
  9 40  1  0  0  0  0
  9 41  1  0  0  0  0
 10 11  1  0  0  0  0
 11 16  1  0  0  0  0
 11 12  2  0  0  0  0
 12 13  1  0  0  0  0
 13 14  2  0  0  0  0
 13 42  1  0  0  0  0
 14 15  1  0  0  0  0
 15 19  1  0  0  0  0
 15 16  2  0  0  0  0
 16 17  1  0  0  0  0
 17 18  2  0  0  0  0
 18 19  1  0  0  0  0
 18 43  1  0  0  0  0
 19 20  1  0  0  0  0
 20 27  1  0  0  0  0
 20 21  1  0  0  0  0
 20 44  1  0  0  0  0
 21 22  1  0  0  0  0
 21 45  1  0  0  0  0
 21 46  1  0  0  0  0
 22 23  1  0  0  0  0
 22 25  1  0  0  0  0
 22 27  1  0  0  0  0
 23 24  1  0  0  0  0
 23 47  1  0  0  0  0
 23 48  1  0  0  0  0
 24 49  1  0  0  0  0
 25 26  1  0  0  0  0
 25 50  1  0  0  0  0
 25 51  1  0  0  0  0
 26 52  1  0  0  0  0
 27 53  1  0  0  0  0
 27 54  1  0  0  0  0
M  END
> <s_m_source_file>
AV-unprocessed.smi

> <i_m_source_file_index>
241

> <i_lp_mmshare_version>
43012

> <i_f3d_flags>
0

> <s_epik_input>
W0NIM11PW0NIMl1bQ0BASF0xW0NIMl1bQ0BASF0oT1tDSDNdKVtDSDJdTjFjKG5bY0hdbjIpYyhjMjMpbltjSF1uM1tDSF0oW0NIMl00KVtDSDJdQzQoW0NIMl1bT0hdKVtDSDJdW09IXQ==

> <s_epik_cmdline>
J2VwaWtfcHl0aG9uJywgJy1waCcsICc3LjAnLCAnLXRuJywgJzgnLCAnLW1hJywgJzIwMCcsICctbWV0YWxfYmluZGluZycsICctaW1hZScsICc8aW5maWxlLm1hZT4nLCAnLW9tYWUnLCAnPG91dGZpbGUubWFlPic=

> <r_lp_tautomer_probability>
1

> <r_epik_Ionization_Penalty>
0.00568677

> <r_epik_Ionization_Penalty_Charging>
0

> <r_epik_Ionization_Penalty_Neutral>
0.00568677

> <r_epik_State_Penalty>
0.00400877

> <r_epik_Charging_Adjusted_Penalty>
0.00400877

> <i_epik_Tot_Q>
0

> <i_epik_Tot_abs_Q>
0

> <r_epik_Metal_State_Penalty>
-0

> <b_epik_Metal_Only>
0

> <s_lp_Force_Field>
OPLS_2005

> <r_lp_Energy>
60.5945

> <b_lp_Chiralities_Consistent>
1

> <s_lp_Variant>
AV-unprocessed.smi:241-1

> <Gold.Version>
5.8.1

> <Gold.Id.Protein>
6NUR|6NUR_protein|mol2

> <Gold.PLP.Fitness>
48.3199

> <Gold.PLP.PLP>
-46.1548

> <Gold.PLP.part.hbond>
-2.5553

> <Gold.PLP.part.metal>
0.0000

> <Gold.PLP.part.buried>
-8.1139

> <Gold.PLP.part.nonpolar>
-36.5152

> <Gold.PLP.part.repulsive>
0.1830

> <Gold.PLP.ligand.clash>
0.0000

> <Gold.PLP.ligand.torsion>
0.6436

> <Gold.PLP.Chemscore.Hbond>
0.9588

> <Gold.PLP.Chemscore.CHOScore>
0.0000

> <Gold.PLP.Chemscore.Metal>
0.0000

> <Gold.Chemscore.Hbonds>
donor molecule, donor type, donor heavy atom, donor atom, acceptor molecule, acceptor atom, score
      P1  H  6896  6907       L1    14  1.00

> <Gold.PLP.Chemscore.Internal.Correction>
0.5762

> <Gold.Rescore>
     Score         DG    S(hbond)    S(metal)    S(lipo)     H(rot)  DE(clash)    DE(int)     intcor
      8.76     -10.71       0.82        0.00     108.25       3.97       0.02       1.94       ----

> <Gold.Chemscore.Fitness>
8.7568

> <Gold.Chemscore.DG>
-10.7135

> <Gold.Chemscore.ZeroCoef>
-5.4800

> <Gold.Chemscore.Hbond>
0.8200

> <Gold.Chemscore.Metal>
0.0000

> <Gold.Chemscore.Lipo>
108.2463

> <Gold.Chemscore.Internal_Hbond>
0.0000

> <Gold.Chemscore.DEClash>
0.0183

> <Gold.Chemscore.DEInternal>
1.9383

> <Gold.Chemscore.Rot>
3.9727

> <Gold.Chemscore.Internal.Correction>
   9.000000E+99

> <Gold.Chemscore.Hbonds>
donor molecule, donor type, donor heavy atom, donor atom, acceptor molecule, acceptor atom, score
      P1  H  6896  6907       L1    14  0.59

> <Gold.Chemscore.Hbond.Weighted>
-2.7389

> <Gold.Chemscore.Metal.Weighted>
-0.0000

> <Gold.Chemscore.Lipo.Weighted>
-12.6648

> <Gold.Chemscore.Internal_Hbond.Weighted>
0.0000

> <Gold.Chemscore.DEClash.Weighted>
0.0183

> <Gold.Chemscore.DEInternal.Weighted>
1.9383

> <Gold.Chemscore.Rot.Weighted>
10.1702

> <Gold.Chemscore.Internal.Correction.Weighted>
   9.000000E+99

> <Gold.Protein.RotatedTorsions>
[ 6907 6896 6895 6894 ] final    8.16 input  -60.11 | X-H torsion
[ 7974 7965 7964 7962 ] final  -60.76 input  175.53 | X-H torsion
[ 8008 7997 7996 7995 ] final -170.99 input   59.86 | X-H torsion
[ 10167 10162 10161 10158 ] final  174.15 input  -65.29 | X-H torsion
[ 10718 10713 10712 10709 ] final  -82.75 input   66.30 | X-H torsion
[ 10763 10752 10751 10750 ] final    9.12 input  -60.55 | X-H torsion
[ 11005 11000 10999 10996 ] final   40.10 input  -57.11 | X-H torsion

> <Gold.Protein.ActiveResidues>
 VAL166  LYS551  ARG553  GLY616  TRP617  ASP618  TYR619  PRO620  LYS621  CYS622 
 ASP623  PHE694  ASN695  SER759  ASP760  ASP761  ALA762  ILE779  LEU786  VAL792 
 PHE793  MET794  SER795  GLU796  ALA797  LYS798  CYS799  TRP800  GLU811  SER814 

> <Gold.Protein.RotatedAtoms>
  151.7015  135.0929  160.0251 H   0  0  0  0  0  0  0  0  0  0  0  0  # atno 6907 bound_to 6896
  152.3718  133.6424  159.6101 H   0  0  0  0  0  0  0  0  0  0  0  0  # atno 6908 bound_to 6896
  150.7679  133.9175  159.3429 H   0  0  0  0  0  0  0  0  0  0  0  0  # atno 6909 bound_to 6896
  145.8116  140.8595  143.0179 H   0  0  0  0  0  0  0  0  0  0  0  0  # atno 7974 bound_to 7965
  155.9257  140.1082  157.1172 H   0  0  0  0  0  0  0  0  0  0  0  0  # atno 8008 bound_to 7997
  154.4062  140.1247  156.4802 H   0  0  0  0  0  0  0  0  0  0  0  0  # atno 8009 bound_to 7997
  155.7142  140.3470  155.4989 H   0  0  0  0  0  0  0  0  0  0  0  0  # atno 8010 bound_to 7997
  139.5132  144.3180  152.0229 H   0  0  0  0  0  0  0  0  0  0  0  0  # atno 10167 bound_to 10162
  156.0028  130.4644  150.4152 H   0  0  0  0  0  0  0  0  0  0  0  0  # atno 10718 bound_to 10713
  153.2175  135.6877  153.8040 H   0  0  0  0  0  0  0  0  0  0  0  0  # atno 10763 bound_to 10752
  153.7250  135.3261  155.3275 H   0  0  0  0  0  0  0  0  0  0  0  0  # atno 10764 bound_to 10752
  154.8253  135.4622  154.1009 H   0  0  0  0  0  0  0  0  0  0  0  0  # atno 10765 bound_to 10752
  140.1964  134.3924  155.8119 H   0  0  0  0  0  0  0  0  0  0  0  0  # atno 11005 bound_to 11000
  144.6757  140.0403  143.7481 LP  0  0  0  0  0  0  0  0  0  0  0  0  # atno 17320 bound_to 7965
  145.9771  139.2913  143.1064 LP  0  0  0  0  0  0  0  0  0  0  0  0  # atno 17321 bound_to 7965
  140.2622  144.4054  150.6181 LP  0  0  0  0  0  0  0  0  0  0  0  0  # atno 17342 bound_to 10162
  140.6149  143.2171  151.6813 LP  0  0  0  0  0  0  0  0  0  0  0  0  # atno 17343 bound_to 10162
  157.2212  131.0483  151.2545 LP  0  0  0  0  0  0  0  0  0  0  0  0  # atno 17370 bound_to 10713
  157.3799  130.7225  149.6623 LP  0  0  0  0  0  0  0  0  0  0  0  0  # atno 17371 bound_to 10713
  141.2227  133.7072  156.8182 LP  0  0  0  0  0  0  0  0  0  0  0  0  # atno 17394 bound_to 11000
  140.2103  134.8832  157.3267 LP  0  0  0  0  0  0  0  0  0  0  0  0  # atno 17395 bound_to 11000

$$$$
