AV-unprocessed.smi:794|AV-procd|sdf|3757|dock2
  -GOLD-   22720 1193D 1   1.00000     0.00000
 Structure written by MMmdl.
 41 43  0  0  0  0  0  0  0  0  1 V2000
  152.3133  144.4861  161.1031 C   0  0  0  0  0  0  0  0  0  0  0  0
  152.1490  143.4597  160.0245 C   0  0  0  0  0  0  0  0  0  0  0  0
  151.2165  143.6725  159.0045 N   0  0  0  0  0  0  0  0  0  0  0  0
  151.1934  142.6683  158.1224 C   0  0  0  0  0  0  0  0  0  0  0  0
  150.3478  142.6206  156.9836 N   0  0  0  0  0  0  0  0  0  0  0  0
  150.1995  141.6196  156.0985 C   0  0  0  0  0  0  0  0  0  0  0  0
  150.8110  140.5511  156.1216 O   0  0  0  0  0  0  0  0  0  0  0  0
  149.2909  141.9332  155.1640 N   0  0  0  0  0  0  0  0  0  0  0  0
  148.8662  141.0641  154.0652 C   0  0  1  0  0  0  0  0  0  0  0  0
  148.8369  139.5709  154.4765 C   0  0  1  0  0  0  0  0  0  0  0  0
  148.0487  139.3628  155.7878 C   0  0  0  0  0  0  0  0  0  0  0  0
  146.5981  139.6385  155.3538 C   0  0  0  0  0  0  0  0  0  0  0  0
  146.7382  139.9327  153.8454 C   0  0  2  0  0  0  0  0  0  0  0  0
  147.8642  138.9801  153.4609 C   0  0  0  0  0  0  0  0  0  0  0  0
  147.4070  141.3038  153.5787 C   0  0  1  0  0  0  0  0  0  0  0  0
  146.6627  142.5394  154.1335 C   0  0  0  0  0  0  0  0  0  0  0  0
  145.2867  142.2592  154.2793 O   0  0  0  0  0  0  0  0  0  0  0  0
  152.3259  141.3799  158.4922 S   0  0  0  0  0  0  0  0  0  0  0  0
  152.8340  142.2725  159.9043 C   0  0  0  0  0  0  0  0  0  0  0  0
  153.8913  141.7349  160.8103 C   0  0  0  0  0  0  0  0  0  0  0  0
  153.3611  144.7600  161.2289 H   0  0  0  0  0  0  0  0  0  0  0  0
  151.9533  144.1090  162.0606 H   0  0  0  0  0  0  0  0  0  0  0  0
  151.7606  145.3995  160.8796 H   0  0  0  0  0  0  0  0  0  0  0  0
  149.7805  143.4415  156.8314 H   0  0  0  0  0  0  0  0  0  0  0  0
  148.8430  142.8358  155.2220 H   0  0  0  0  0  0  0  0  0  0  0  0
  149.5489  141.1784  153.2205 H   0  0  0  0  0  0  0  0  0  0  0  0
  149.8226  139.1047  154.4867 H   0  0  0  0  0  0  0  0  0  0  0  0
  148.1488  138.3322  156.1306 H   0  0  0  0  0  0  0  0  0  0  0  0
  148.3734  140.0053  156.6058 H   0  0  0  0  0  0  0  0  0  0  0  0
  145.9833  138.7518  155.5143 H   0  0  0  0  0  0  0  0  0  0  0  0
  146.1390  140.4533  155.9118 H   0  0  0  0  0  0  0  0  0  0  0  0
  145.8134  139.7851  153.2865 H   0  0  0  0  0  0  0  0  0  0  0  0
  148.1961  139.0924  152.4271 H   0  0  0  0  0  0  0  0  0  0  0  0
  147.6273  137.9307  153.6453 H   0  0  0  0  0  0  0  0  0  0  0  0
  147.4515  141.4337  152.4956 H   0  0  0  0  0  0  0  0  0  0  0  0
  147.0656  142.8699  155.0902 H   0  0  0  0  0  0  0  0  0  0  0  0
  146.7628  143.3768  153.4426 H   0  0  0  0  0  0  0  0  0  0  0  0
  145.0574  141.5608  153.6855 H   0  0  0  0  0  0  0  0  0  0  0  0
  153.5565  141.7487  161.8479 H   0  0  0  0  0  0  0  0  0  0  0  0
  154.7996  142.3339  160.7406 H   0  0  0  0  0  0  0  0  0  0  0  0
  154.1460  140.7060  160.5545 H   0  0  0  0  0  0  0  0  0  0  0  0
  1  2  1  0  0  0  0
  1 21  1  0  0  0  0
  1 22  1  0  0  0  0
  1 23  1  0  0  0  0
  2 19  2  0  0  0  0
  2  3  1  0  0  0  0
  3  4  2  0  0  0  0
  4  5  1  0  0  0  0
  4 18  1  0  0  0  0
  5  6  1  0  0  0  0
  5 24  1  0  0  0  0
  6  7  2  0  0  0  0
  6  8  1  0  0  0  0
  8  9  1  0  0  0  0
  8 25  1  0  0  0  0
  9 15  1  0  0  0  0
  9 10  1  0  0  0  0
  9 26  1  0  0  0  0
 10 14  1  0  0  0  0
 10 11  1  0  0  0  0
 10 27  1  0  0  0  0
 11 12  1  0  0  0  0
 11 28  1  0  0  0  0
 11 29  1  0  0  0  0
 12 13  1  0  0  0  0
 12 30  1  0  0  0  0
 12 31  1  0  0  0  0
 13 14  1  0  0  0  0
 13 15  1  0  0  0  0
 13 32  1  0  0  0  0
 14 33  1  0  0  0  0
 14 34  1  0  0  0  0
 15 16  1  0  0  0  0
 15 35  1  0  0  0  0
 16 17  1  0  0  0  0
 16 36  1  0  0  0  0
 16 37  1  0  0  0  0
 17 38  1  0  0  0  0
 18 19  1  0  0  0  0
 19 20  1  0  0  0  0
 20 39  1  0  0  0  0
 20 40  1  0  0  0  0
 20 41  1  0  0  0  0
M  END
> <s_m_source_file>
AV-unprocessed.smi

> <i_m_source_file_index>
794

> <i_lp_mmshare_version>
43012

> <i_f3d_flags>
0

> <s_epik_input>
W0NIM11jMW5jKHNjMVtDSDNdKVtOSF1DKD1PKVtOSF1bQ0BIXShbQ0BASF0yMylbQ0BIXShbQ0gyXVtPSF0pW0NAQEhdKFtDSDJdMylbQ0gyXVtDSDJdMg==

> <s_epik_cmdline>
J2VwaWtfcHl0aG9uJywgJy1waCcsICc3LjAnLCAnLXRuJywgJzgnLCAnLW1hJywgJzIwMCcsICctbWV0YWxfYmluZGluZycsICctaW1hZScsICc8aW5maWxlLm1hZT4nLCAnLW9tYWUnLCAnPG91dGZpbGUubWFlPic=

> <r_lp_tautomer_probability>
0.999

> <r_epik_Ionization_Penalty>
0.000713029

> <r_epik_Ionization_Penalty_Charging>
0

> <r_epik_Ionization_Penalty_Neutral>
0.000713029

> <r_epik_State_Penalty>
0.000177984

> <r_epik_Charging_Adjusted_Penalty>
0.000177984

> <i_epik_Tot_Q>
0

> <i_epik_Tot_abs_Q>
0

> <r_epik_Metal_State_Penalty>
-0

> <b_epik_Metal_Only>
0

> <s_lp_Force_Field>
OPLS_2005

> <r_lp_Energy>
49.1423

> <b_lp_Chiralities_Consistent>
1

> <s_lp_Variant>
AV-unprocessed.smi:794-2

> <Gold.Version>
5.8.1

> <Gold.Id.Protein>
6NUR|6NUR_protein|mol2

> <Gold.PLP.Fitness>
46.4420

> <Gold.PLP.PLP>
-39.6029

> <Gold.PLP.part.hbond>
-3.0000

> <Gold.PLP.part.metal>
0.0000

> <Gold.PLP.part.buried>
-4.4148

> <Gold.PLP.part.nonpolar>
-32.6015

> <Gold.PLP.part.repulsive>
0.2883

> <Gold.PLP.ligand.clash>
0.0000

> <Gold.PLP.ligand.torsion>
0.8315

> <Gold.PLP.Chemscore.Hbond>
2.8305

> <Gold.PLP.Chemscore.CHOScore>
0.0000

> <Gold.PLP.Chemscore.Metal>
0.0000

> <Gold.Chemscore.Hbonds>
donor molecule, donor type, donor heavy atom, donor atom, acceptor molecule, acceptor atom, score
      L1  H     5    24       P1  8028  1.00
      L1  H     8    25       P1  8028  1.00
      L1  H    17    38       P1 10175  0.65

> <Gold.PLP.Chemscore.Internal.Correction>
0.0105

> <Gold.Rescore>
     Score         DG    S(hbond)    S(metal)    S(lipo)     H(rot)  DE(clash)    DE(int)     intcor
     15.12     -18.97       2.08        0.00      94.90       1.78       0.43       3.41       ----

> <Gold.Chemscore.Fitness>
15.1235

> <Gold.Chemscore.DG>
-18.9685

> <Gold.Chemscore.ZeroCoef>
-5.4800

> <Gold.Chemscore.Hbond>
2.0782

> <Gold.Chemscore.Metal>
0.0000

> <Gold.Chemscore.Lipo>
94.9007

> <Gold.Chemscore.Internal_Hbond>
0.0000

> <Gold.Chemscore.DEClash>
0.4341

> <Gold.Chemscore.DEInternal>
3.4109

> <Gold.Chemscore.Rot>
1.7798

> <Gold.Chemscore.Internal.Correction>
   9.000000E+99

> <Gold.Chemscore.Hbonds>
donor molecule, donor type, donor heavy atom, donor atom, acceptor molecule, acceptor atom, score
      L1  H     5    24       P1  8028  0.96
      L1  H     8    25       P1  8028  0.96
      L1  H    17    38       P1 10175  0.09

> <Gold.Chemscore.Hbond.Weighted>
-6.9413

> <Gold.Chemscore.Metal.Weighted>
-0.0000

> <Gold.Chemscore.Lipo.Weighted>
-11.1034

> <Gold.Chemscore.Internal_Hbond.Weighted>
0.0000

> <Gold.Chemscore.DEClash.Weighted>
0.4341

> <Gold.Chemscore.DEInternal.Weighted>
3.4109

> <Gold.Chemscore.Rot.Weighted>
4.5562

> <Gold.Chemscore.Internal.Correction.Weighted>
   9.000000E+99

> <Gold.Protein.RotatedTorsions>
[ 6907 6896 6895 6894 ] final -175.48 input  -60.11 | X-H torsion
[ 7974 7965 7964 7962 ] final -150.96 input  175.53 | X-H torsion
[ 8008 7997 7996 7995 ] final   32.54 input   59.86 | X-H torsion
[ 10167 10162 10161 10158 ] final  138.97 input  -65.29 | X-H torsion
[ 10718 10713 10712 10709 ] final  -72.26 input   66.30 | X-H torsion
[ 10763 10752 10751 10750 ] final  -39.58 input  -60.55 | X-H torsion
[ 11005 11000 10999 10996 ] final  142.74 input  -57.11 | X-H torsion

> <Gold.Protein.ActiveResidues>
 VAL166  LYS551  ARG553  GLY616  TRP617  ASP618  TYR619  PRO620  LYS621  CYS622 
 ASP623  PHE694  ASN695  SER759  ASP760  ASP761  ALA762  ILE779  LEU786  VAL792 
 PHE793  MET794  SER795  GLU796  ALA797  LYS798  CYS799  TRP800  GLU811  SER814 

> <Gold.Protein.RotatedAtoms>
  151.5892  133.3368  159.3023 H   0  0  0  0  0  0  0  0  0  0  0  0  # atno 6907 bound_to 6896
  150.8270  134.7508  159.6832 H   0  0  0  0  0  0  0  0  0  0  0  0  # atno 6908 bound_to 6896
  152.4358  134.5695  159.9969 H   0  0  0  0  0  0  0  0  0  0  0  0  # atno 6909 bound_to 6896
  144.7877  140.4862  143.5794 H   0  0  0  0  0  0  0  0  0  0  0  0  # atno 7974 bound_to 7965
  155.1242  140.3251  155.4490 H   0  0  0  0  0  0  0  0  0  0  0  0  # atno 8008 bound_to 7997
  156.2654  140.2022  156.6311 H   0  0  0  0  0  0  0  0  0  0  0  0  # atno 8009 bound_to 7997
  154.6661  140.0541  157.0102 H   0  0  0  0  0  0  0  0  0  0  0  0  # atno 8010 bound_to 7997
  139.5093  144.6322  151.5788 H   0  0  0  0  0  0  0  0  0  0  0  0  # atno 10167 bound_to 10162
  156.0328  130.4368  150.2566 H   0  0  0  0  0  0  0  0  0  0  0  0  # atno 10718 bound_to 10713
  153.9318  135.6771  153.4745 H   0  0  0  0  0  0  0  0  0  0  0  0  # atno 10763 bound_to 10752
  153.0976  135.4844  154.8804 H   0  0  0  0  0  0  0  0  0  0  0  0  # atno 10764 bound_to 10752
  154.7424  135.3164  154.8662 H   0  0  0  0  0  0  0  0  0  0  0  0  # atno 10765 bound_to 10752
  140.0500  134.9260  157.1000 H   0  0  0  0  0  0  0  0  0  0  0  0  # atno 11005 bound_to 11000
  145.5877  139.1493  143.3200 LP  0  0  0  0  0  0  0  0  0  0  0  0  # atno 17320 bound_to 7965
  146.2116  140.6004  142.9057 LP  0  0  0  0  0  0  0  0  0  0  0  0  # atno 17321 bound_to 7965
  140.6059  143.9525  150.6418 LP  0  0  0  0  0  0  0  0  0  0  0  0  # atno 17342 bound_to 10162
  140.2752  143.3428  152.1202 LP  0  0  0  0  0  0  0  0  0  0  0  0  # atno 17343 bound_to 10162
  157.0667  131.0105  151.3204 LP  0  0  0  0  0  0  0  0  0  0  0  0  # atno 17370 bound_to 10713
  157.5030  130.7891  149.7624 LP  0  0  0  0  0  0  0  0  0  0  0  0  # atno 17371 bound_to 10713
  140.3932  134.2162  155.7165 LP  0  0  0  0  0  0  0  0  0  0  0  0  # atno 17394 bound_to 11000
  141.1926  133.8170  157.0834 LP  0  0  0  0  0  0  0  0  0  0  0  0  # atno 17395 bound_to 11000

$$$$
