AV-unprocessed.smi:2772|AV-procd|sdf|10667|dock10
  -GOLD-   2272015113D 1   1.00000     0.00000
 Structure written by MMmdl.
 55 57  0  0  0  0  0  0  0  0  3 V2000
  152.6442  144.5386  162.2966 C   0  0  0  0  0  0  0  0  0  0  0  0
  152.1596  144.0819  160.9367 C   0  0  0  0  0  0  0  0  0  0  0  0
  152.7759  143.0013  160.2731 C   0  0  0  0  0  0  0  0  0  0  0  0
  152.2803  142.6145  159.0129 C   0  0  0  0  0  0  0  0  0  0  0  0
  151.1799  143.3170  158.4649 C   0  0  0  0  0  0  0  0  0  0  0  0
  150.5966  143.0302  157.2008 N   0  0  0  0  0  0  0  0  0  0  0  0
  150.5532  141.8551  156.5494 C   0  0  0  0  0  0  0  0  0  0  0  0
  151.0320  140.7965  156.9555 O   0  0  0  0  0  0  0  0  0  0  0  0
  149.8927  141.9659  155.3873 N   0  0  0  0  0  0  0  0  0  0  0  0
  149.6581  140.8703  154.4504 C   0  0  2  0  0  0  0  0  0  0  0  0
  148.4405  140.0432  154.9013 C   0  0  0  0  0  0  0  0  0  0  0  0
  148.2472  138.8050  154.0034 C   0  0  0  0  0  0  0  0  0  0  0  0
  149.4639  137.9425  153.9709 N   0  3  2  0  0  0  0  0  0  0  0  0
  149.7339  137.1650  155.2314 C   0  0  2  0  0  0  0  0  0  0  0  0
  151.1323  136.5008  155.2646 C   0  0  0  0  0  0  0  0  0  0  0  0
  151.2570  135.3719  154.2244 C   0  0  0  0  0  0  0  0  0  0  0  0
  150.2187  134.3333  154.4408 N   0  3  2  0  0  0  0  0  0  0  0  0
  150.3589  133.1920  153.5108 C   0  0  0  0  0  0  0  0  0  0  0  0
  148.8461  134.8989  154.4406 C   0  0  0  0  0  0  0  0  0  0  0  0
  148.7131  136.0278  155.4799 C   0  0  0  0  0  0  0  0  0  0  0  0
  150.6118  138.7391  153.4495 C   0  0  0  0  0  0  0  0  0  0  0  0
  150.9041  139.9687  154.3303 C   0  0  0  0  0  0  0  0  0  0  0  0
  150.6529  144.3946  159.2077 C   0  0  0  0  0  0  0  0  0  0  0  0
  151.1213  144.7712  160.4167 N   0  0  0  0  0  0  0  0  0  0  0  0
  153.4488  143.9015  162.6646 H   0  0  0  0  0  0  0  0  0  0  0  0
  151.8291  144.5071  163.0201 H   0  0  0  0  0  0  0  0  0  0  0  0
  153.0173  145.5615  162.2422 H   0  0  0  0  0  0  0  0  0  0  0  0
  153.6120  142.4795  160.7151 H   0  0  0  0  0  0  0  0  0  0  0  0
  152.7595  141.8004  158.4920 H   0  0  0  0  0  0  0  0  0  0  0  0
  150.0915  143.7943  156.7765 H   0  0  0  0  0  0  0  0  0  0  0  0
  149.5305  142.8732  155.1325 H   0  0  0  0  0  0  0  0  0  0  0  0
  149.4331  141.2890  153.4673 H   0  0  0  0  0  0  0  0  0  0  0  0
  148.5548  139.7367  155.9416 H   0  0  0  0  0  0  0  0  0  0  0  0
  147.5427  140.6615  154.8662 H   0  0  0  0  0  0  0  0  0  0  0  0
  147.3560  138.2522  154.2907 H   0  0  0  0  0  0  0  0  0  0  0  0
  148.0448  139.1392  152.9846 H   0  0  0  0  0  0  0  0  0  0  0  0
  149.6774  137.8549  156.0729 H   0  0  0  0  0  0  0  0  0  0  0  0
  151.9400  137.2223  155.1551 H   0  0  0  0  0  0  0  0  0  0  0  0
  151.2905  136.0716  156.2553 H   0  0  0  0  0  0  0  0  0  0  0  0
  151.1735  135.7740  153.2137 H   0  0  0  0  0  0  0  0  0  0  0  0
  152.2445  134.9151  154.3013 H   0  0  0  0  0  0  0  0  0  0  0  0
  150.2015  133.5058  152.4781 H   0  0  0  0  0  0  0  0  0  0  0  0
  149.6338  132.4120  153.7459 H   0  0  0  0  0  0  0  0  0  0  0  0
  151.3541  132.7527  153.5871 H   0  0  0  0  0  0  0  0  0  0  0  0
  148.5978  135.2679  153.4442 H   0  0  0  0  0  0  0  0  0  0  0  0
  148.1309  134.1081  154.6707 H   0  0  0  0  0  0  0  0  0  0  0  0
  148.8956  135.6057  156.4692 H   0  0  0  0  0  0  0  0  0  0  0  0
  147.6882  136.3896  155.5281 H   0  0  0  0  0  0  0  0  0  0  0  0
  151.5057  138.1356  153.3097 H   0  0  0  0  0  0  0  0  0  0  0  0
  150.3564  139.0807  152.4454 H   0  0  0  0  0  0  0  0  0  0  0  0
  151.7317  140.5323  153.8982 H   0  0  0  0  0  0  0  0  0  0  0  0
  151.2387  139.6511  155.3185 H   0  0  0  0  0  0  0  0  0  0  0  0
  149.8229  144.9704  158.8251 H   0  0  0  0  0  0  0  0  0  0  0  0
  149.2811  137.2439  153.2648 H   0  0  0  0  0  0  0  0  0  0  0  0
  150.3744  133.9629  155.3680 H   0  0  0  0  0  0  0  0  0  0  0  0
  1  2  1  0  0  0  0
  1 25  1  0  0  0  0
  1 26  1  0  0  0  0
  1 27  1  0  0  0  0
  2 24  1  0  0  0  0
  2  3  2  0  0  0  0
  3  4  1  0  0  0  0
  3 28  1  0  0  0  0
  4  5  2  0  0  0  0
  4 29  1  0  0  0  0
  5  6  1  0  0  0  0
  5 23  1  0  0  0  0
  6  7  1  0  0  0  0
  6 30  1  0  0  0  0
  7  8  2  0  0  0  0
  7  9  1  0  0  0  0
  9 10  1  0  0  0  0
  9 31  1  0  0  0  0
 10 22  1  0  0  0  0
 10 11  1  0  0  0  0
 10 32  1  0  0  0  0
 11 12  1  0  0  0  0
 11 33  1  0  0  0  0
 11 34  1  0  0  0  0
 12 13  1  0  0  0  0
 12 35  1  0  0  0  0
 12 36  1  0  0  0  0
 13 14  1  0  0  0  0
 13 21  1  0  0  0  0
 13 54  1  0  0  0  0
 14 20  1  0  0  0  0
 14 15  1  0  0  0  0
 14 37  1  0  0  0  0
 15 16  1  0  0  0  0
 15 38  1  0  0  0  0
 15 39  1  0  0  0  0
 16 17  1  0  0  0  0
 16 40  1  0  0  0  0
 16 41  1  0  0  0  0
 17 18  1  0  0  0  0
 17 19  1  0  0  0  0
 17 55  1  0  0  0  0
 18 42  1  0  0  0  0
 18 43  1  0  0  0  0
 18 44  1  0  0  0  0
 19 20  1  0  0  0  0
 19 45  1  0  0  0  0
 19 46  1  0  0  0  0
 20 47  1  0  0  0  0
 20 48  1  0  0  0  0
 21 22  1  0  0  0  0
 21 49  1  0  0  0  0
 21 50  1  0  0  0  0
 22 51  1  0  0  0  0
 22 52  1  0  0  0  0
 23 24  2  0  0  0  0
 23 53  1  0  0  0  0
M  CHG  1  13   1
M  CHG  1  17   1
M  END
> <s_m_source_file>
AV-unprocessed.smi

> <i_m_source_file_index>
2772

> <i_lp_mmshare_version>
43012

> <i_f3d_flags>
0

> <s_epik_input>
W0NIM11jMVtjSF1bY0hdYyhbY0hdbjEpW05IXUMoPU8pW05IXVtDSF0yW0NIMl1bQ0gyXU4oW0NIMl1bQ0gyXTIpW0NIXTNbQ0gyXVtDSDJdTihbQ0gzXSlbQ0gyXVtDSDJdMw==

> <s_epik_cmdline>
J2VwaWtfcHl0aG9uJywgJy1waCcsICc3LjAnLCAnLXRuJywgJzgnLCAnLW1hJywgJzIwMCcsICctbWV0YWxfYmluZGluZycsICctaW1hZScsICc8aW5maWxlLm1hZT4nLCAnLW9tYWUnLCAnPG91dGZpbGUubWFlPic=

> <r_epik_Ionization_Penalty>
0.196786

> <r_epik_Ionization_Penalty_Charging>
0.180787

> <r_epik_Ionization_Penalty_Neutral>
0.0159988

> <r_epik_State_Penalty>
0.163322

> <r_epik_Charging_Adjusted_Penalty>
0.344109

> <i_epik_Tot_Q>
2

> <i_epik_Tot_abs_Q>
2

> <r_epik_Metal_State_Penalty>
0.163596

> <b_epik_Metal_Only>
0

> <s_lp_Force_Field>
OPLS_2005

> <r_lp_Energy>
49.9042

> <b_lp_Chiralities_Consistent>
1

> <s_lp_Variant>
AV-unprocessed.smi:2772-4

> <Gold.Version>
5.8.1

> <Gold.Id.Protein>
6NUR|6NUR_protein|mol2

> <Gold.PLP.Fitness>
49.4520

> <Gold.PLP.PLP>
-36.4710

> <Gold.PLP.part.hbond>
-3.0000

> <Gold.PLP.part.metal>
0.0000

> <Gold.PLP.part.buried>
-1.0826

> <Gold.PLP.part.nonpolar>
-33.2628

> <Gold.PLP.part.repulsive>
0.3654

> <Gold.PLP.ligand.clash>
0.0000

> <Gold.PLP.ligand.torsion>
0.6854

> <Gold.PLP.Chemscore.Hbond>
4.0000

> <Gold.PLP.Chemscore.CHOScore>
0.7692

> <Gold.PLP.Chemscore.Metal>
0.0000

> <Gold.Chemscore.Hbonds>
donor molecule, donor type, donor heavy atom, donor atom, acceptor molecule, acceptor atom, score
      L1  H     6    30       P1  8028  1.00
      L1  H     9    31       P1  8028  1.00
      L1  H    13    54       P1  7948  2.00
      L1  C    23    53       P1  8029  0.70

> <Gold.PLP.Chemscore.Internal.Correction>
0.0441

> <Gold.Rescore>
     Score         DG    S(hbond)    S(metal)    S(lipo)     H(rot)  DE(clash)    DE(int)     intcor
     21.21     -26.09       2.91        0.00     119.42       1.21       2.54       2.34       ----

> <Gold.Chemscore.Fitness>
21.2146

> <Gold.Chemscore.DG>
-26.0857

> <Gold.Chemscore.ZeroCoef>
-5.4800

> <Gold.Chemscore.Hbond>
2.9127

> <Gold.Chemscore.Metal>
0.0000

> <Gold.Chemscore.Lipo>
119.4241

> <Gold.Chemscore.Internal_Hbond>
0.0000

> <Gold.Chemscore.DEClash>
2.5361

> <Gold.Chemscore.DEInternal>
2.3350

> <Gold.Chemscore.Rot>
1.2092

> <Gold.Chemscore.Internal.Correction>
   9.000000E+99

> <Gold.Chemscore.Hbonds>
donor molecule, donor type, donor heavy atom, donor atom, acceptor molecule, acceptor atom, score
      L1  H     6    30       P1  8028  0.99
      L1  H     9    31       P1  8028  0.90
      L1  H    13    54       P1  7948  0.98

> <Gold.Chemscore.Hbond.Weighted>
-9.7286

> <Gold.Chemscore.Metal.Weighted>
-0.0000

> <Gold.Chemscore.Lipo.Weighted>
-13.9726

> <Gold.Chemscore.Internal_Hbond.Weighted>
0.0000

> <Gold.Chemscore.DEClash.Weighted>
2.5361

> <Gold.Chemscore.DEInternal.Weighted>
2.3350

> <Gold.Chemscore.Rot.Weighted>
3.0955

> <Gold.Chemscore.Internal.Correction.Weighted>
   9.000000E+99

> <Gold.Protein.RotatedTorsions>
[ 6907 6896 6895 6894 ] final   98.20 input  -60.11 | X-H torsion
[ 7974 7965 7964 7962 ] final   42.15 input  175.53 | X-H torsion
[ 8008 7997 7996 7995 ] final   92.37 input   59.86 | X-H torsion
[ 10167 10162 10161 10158 ] final  -59.04 input  -65.29 | X-H torsion
[ 10718 10713 10712 10709 ] final  -66.27 input   66.30 | X-H torsion
[ 10763 10752 10751 10750 ] final  137.50 input  -60.55 | X-H torsion
[ 11005 11000 10999 10996 ] final -127.58 input  -57.11 | X-H torsion

> <Gold.Protein.ActiveResidues>
 VAL166  LYS551  ARG553  GLY616  TRP617  ASP618  TYR619  PRO620  LYS621  CYS622 
 ASP623  PHE694  ASN695  SER759  ASP760  ASP761  ALA762  ILE779  LEU786  VAL792 
 PHE793  MET794  SER795  GLU796  ALA797  LYS798  CYS799  TRP800  GLU811  SER814 

> <Gold.Protein.RotatedAtoms>
  152.5413  134.0617  159.8154 H   0  0  0  0  0  0  0  0  0  0  0  0  # atno 6907 bound_to 6896
  151.0744  133.5433  159.2632 H   0  0  0  0  0  0  0  0  0  0  0  0  # atno 6908 bound_to 6896
  151.2284  135.0553  159.9031 H   0  0  0  0  0  0  0  0  0  0  0  0  # atno 6909 bound_to 6896
  146.0765  139.5334  142.9564 H   0  0  0  0  0  0  0  0  0  0  0  0  # atno 7974 bound_to 7965
  156.0346  140.3326  155.7176 H   0  0  0  0  0  0  0  0  0  0  0  0  # atno 8008 bound_to 7997
  155.5835  140.0639  157.2795 H   0  0  0  0  0  0  0  0  0  0  0  0  # atno 8009 bound_to 7997
  154.4367  140.1840  156.0989 H   0  0  0  0  0  0  0  0  0  0  0  0  # atno 8010 bound_to 7997
  140.6160  143.2402  151.5597 H   0  0  0  0  0  0  0  0  0  0  0  0  # atno 10167 bound_to 10162
  156.0622  130.4259  150.1685 H   0  0  0  0  0  0  0  0  0  0  0  0  # atno 10718 bound_to 10713
  153.8740  135.3052  155.3443 H   0  0  0  0  0  0  0  0  0  0  0  0  # atno 10763 bound_to 10752
  154.7792  135.4844  153.9812 H   0  0  0  0  0  0  0  0  0  0  0  0  # atno 10764 bound_to 10752
  153.1390  135.6820  153.9154 H   0  0  0  0  0  0  0  0  0  0  0  0  # atno 10765 bound_to 10752
  140.9587  134.0965  157.3990 H   0  0  0  0  0  0  0  0  0  0  0  0  # atno 11005 bound_to 11000
  145.6297  141.0306  143.1870 LP  0  0  0  0  0  0  0  0  0  0  0  0  # atno 17320 bound_to 7965
  144.7265  139.7861  143.7363 LP  0  0  0  0  0  0  0  0  0  0  0  0  # atno 17321 bound_to 7965
  139.5399  144.2677  152.1328 LP  0  0  0  0  0  0  0  0  0  0  0  0  # atno 17342 bound_to 10162
  140.1887  144.4773  150.6490 LP  0  0  0  0  0  0  0  0  0  0  0  0  # atno 17343 bound_to 10162
  156.9751  130.9847  151.3450 LP  0  0  0  0  0  0  0  0  0  0  0  0  # atno 17370 bound_to 10713
  157.5638  130.8264  149.8301 LP  0  0  0  0  0  0  0  0  0  0  0  0  # atno 17371 bound_to 10713
  139.8871  135.0087  156.6539 LP  0  0  0  0  0  0  0  0  0  0  0  0  # atno 17394 bound_to 11000
  140.7498  133.8907  155.8338 LP  0  0  0  0  0  0  0  0  0  0  0  0  # atno 17395 bound_to 11000

$$$$
