AV-unprocessed.smi:2320|AV-procd|sdf|9280|dock2
  -GOLD-   2272012503D 1   1.00000     0.00000
 Structure written by MMmdl.
 41 42  0  0  0  0  0  0  0  0  1 V2000
  151.4285  145.3296  159.2471 C   0  0  0  0  0  0  0  0  0  0  0  0
  151.3322  143.8270  159.0814 C   0  0  0  0  0  0  0  0  0  0  0  0
  152.0069  142.9644  159.9680 C   0  0  0  0  0  0  0  0  0  0  0  0
  151.9109  141.5692  159.8051 C   0  0  0  0  0  0  0  0  0  0  0  0
  151.1449  141.0146  158.7595 C   0  0  0  0  0  0  0  0  0  0  0  0
  151.1076  139.6395  158.6745 O   0  0  0  0  0  0  0  0  0  0  0  0
  150.5535  139.0507  157.5051 C   0  0  0  0  0  0  0  0  0  0  0  0
  150.0399  137.6454  157.8548 C   0  0  1  0  0  0  0  0  0  0  0  0
  150.9143  137.1153  158.8304 O   0  0  0  0  0  0  0  0  0  0  0  0
  148.6037  137.6748  158.4255 C   0  0  0  0  0  0  0  0  0  0  0  0
  148.1263  136.3320  158.7962 N   0  0  0  0  0  0  0  0  0  0  0  0
  148.0733  135.3822  157.7620 C   0  0  0  0  0  0  0  0  0  0  0  0
  147.6665  134.1728  157.9701 N   0  0  0  0  0  0  0  0  0  0  0  0
  147.2680  133.7828  159.2518 C   0  0  0  0  0  0  0  0  0  0  0  0
  146.7985  132.3448  159.3830 C   0  0  0  0  0  0  0  0  0  0  0  0
  147.3045  134.6516  160.2989 C   0  0  0  0  0  0  0  0  0  0  0  0
  146.8798  134.2831  161.7153 C   0  0  0  0  0  0  0  0  0  0  0  0
  147.7685  136.0311  160.0778 C   0  0  0  0  0  0  0  0  0  0  0  0
  147.8307  136.8668  160.9815 O   0  0  0  0  0  0  0  0  0  0  0  0
  150.4680  141.8880  157.8713 C   0  0  0  0  0  0  0  0  0  0  0  0
  150.5633  143.2839  158.0335 C   0  0  0  0  0  0  0  0  0  0  0  0
  152.0325  145.5966  160.1148 H   0  0  0  0  0  0  0  0  0  0  0  0
  150.4352  145.7596  159.3786 H   0  0  0  0  0  0  0  0  0  0  0  0
  151.8841  145.7783  158.3641 H   0  0  0  0  0  0  0  0  0  0  0  0
  152.5997  143.3674  160.7761 H   0  0  0  0  0  0  0  0  0  0  0  0
  152.4321  140.9168  160.4901 H   0  0  0  0  0  0  0  0  0  0  0  0
  149.7265  139.6681  157.1498 H   0  0  0  0  0  0  0  0  0  0  0  0
  151.2991  138.9910  156.7101 H   0  0  0  0  0  0  0  0  0  0  0  0
  150.0948  137.0186  156.9638 H   0  0  0  0  0  0  0  0  0  0  0  0
  151.2580  137.8285  159.3466 H   0  0  0  0  0  0  0  0  0  0  0  0
  148.5344  138.3774  159.2583 H   0  0  0  0  0  0  0  0  0  0  0  0
  147.9237  138.0891  157.6784 H   0  0  0  0  0  0  0  0  0  0  0  0
  148.4012  135.7364  156.7829 H   0  0  0  0  0  0  0  0  0  0  0  0
  145.7667  132.3110  159.7335 H   0  0  0  0  0  0  0  0  0  0  0  0
  147.4259  131.8006  160.0893 H   0  0  0  0  0  0  0  0  0  0  0  0
  146.8433  131.8228  158.4262 H   0  0  0  0  0  0  0  0  0  0  0  0
  147.7034  134.4476  162.4109 H   0  0  0  0  0  0  0  0  0  0  0  0
  146.5724  133.2432  161.8147 H   0  0  0  0  0  0  0  0  0  0  0  0
  146.0415  134.9056  162.0296 H   0  0  0  0  0  0  0  0  0  0  0  0
  149.8671  141.5125  157.0572 H   0  0  0  0  0  0  0  0  0  0  0  0
  150.0424  143.9386  157.3500 H   0  0  0  0  0  0  0  0  0  0  0  0
  1  2  1  0  0  0  0
  1 22  1  0  0  0  0
  1 23  1  0  0  0  0
  1 24  1  0  0  0  0
  2 21  1  0  0  0  0
  2  3  2  0  0  0  0
  3  4  1  0  0  0  0
  3 25  1  0  0  0  0
  4  5  2  0  0  0  0
  4 26  1  0  0  0  0
  5  6  1  0  0  0  0
  5 20  1  0  0  0  0
  6  7  1  0  0  0  0
  7  8  1  0  0  0  0
  7 27  1  0  0  0  0
  7 28  1  0  0  0  0
  8  9  1  0  0  0  0
  8 10  1  0  0  0  0
  8 29  1  0  0  0  0
  9 30  1  0  0  0  0
 10 11  1  0  0  0  0
 10 31  1  0  0  0  0
 10 32  1  0  0  0  0
 11 18  1  0  0  0  0
 11 12  1  0  0  0  0
 12 13  2  0  0  0  0
 12 33  1  0  0  0  0
 13 14  1  0  0  0  0
 14 15  1  0  0  0  0
 14 16  2  0  0  0  0
 15 34  1  0  0  0  0
 15 35  1  0  0  0  0
 15 36  1  0  0  0  0
 16 17  1  0  0  0  0
 16 18  1  0  0  0  0
 17 37  1  0  0  0  0
 17 38  1  0  0  0  0
 17 39  1  0  0  0  0
 18 19  2  0  0  0  0
 20 21  2  0  0  0  0
 20 40  1  0  0  0  0
 21 41  1  0  0  0  0
M  END
> <s_m_source_file>
AV-unprocessed.smi

> <i_m_source_file_index>
2320

> <i_lp_mmshare_version>
43012

> <i_f3d_flags>
0

> <s_epik_input>
W0NIM11jMVtjSF1bY0hdYyhbY0hdW2NIXTEpT1tDSDJdW0NASF0oW09IXSlbQ0gyXW4yW2NIXW5jKFtDSDNdKWMoW0NIM10pYzI9Tw==

> <s_epik_cmdline>
J2VwaWtfcHl0aG9uJywgJy1waCcsICc3LjAnLCAnLXRuJywgJzgnLCAnLW1hJywgJzIwMCcsICctbWV0YWxfYmluZGluZycsICctaW1hZScsICc8aW5maWxlLm1hZT4nLCAnLW9tYWUnLCAnPG91dGZpbGUubWFlPic=

> <r_lp_tautomer_probability>
1

> <r_epik_Ionization_Penalty>
3.74127e-05

> <r_epik_Ionization_Penalty_Charging>
8.43242e-08

> <r_epik_Ionization_Penalty_Neutral>
3.73284e-05

> <r_epik_State_Penalty>
-0

> <r_epik_Charging_Adjusted_Penalty>
8.43242e-08

> <i_epik_Tot_Q>
0

> <i_epik_Tot_abs_Q>
0

> <r_epik_Metal_State_Penalty>
-0

> <b_epik_Metal_Only>
0

> <s_lp_Force_Field>
OPLS_2005

> <r_lp_Energy>
22.1305

> <b_lp_Chiralities_Consistent>
1

> <s_lp_Variant>
AV-unprocessed.smi:2320-2

> <Gold.Version>
5.8.1

> <Gold.Id.Protein>
6NUR|6NUR_protein|mol2

> <Gold.PLP.Fitness>
49.6083

> <Gold.PLP.PLP>
-42.6468

> <Gold.PLP.part.hbond>
-2.8315

> <Gold.PLP.part.metal>
0.0000

> <Gold.PLP.part.buried>
-4.7880

> <Gold.PLP.part.nonpolar>
-35.0486

> <Gold.PLP.part.repulsive>
0.0000

> <Gold.PLP.ligand.clash>
0.0000

> <Gold.PLP.ligand.torsion>
0.5470

> <Gold.PLP.Chemscore.Hbond>
2.6503

> <Gold.PLP.Chemscore.CHOScore>
0.0000

> <Gold.PLP.Chemscore.Metal>
0.0000

> <Gold.Chemscore.Hbonds>
donor molecule, donor type, donor heavy atom, donor atom, acceptor molecule, acceptor atom, score
      P1  H  6896  6907       L1     9  0.14
      P1  H  6931  6943       L1    19  0.94
      P1  H  6934  6947       L1    19  0.40

> <Gold.PLP.Chemscore.Internal.Correction>
0.1047

> <Gold.Rescore>
     Score         DG    S(hbond)    S(metal)    S(lipo)     H(rot)  DE(clash)    DE(int)     intcor
     18.41     -19.27       2.43        0.00      99.77       2.35       0.05       0.81       ----

> <Gold.Chemscore.Fitness>
18.4115

> <Gold.Chemscore.DG>
-19.2695

> <Gold.Chemscore.ZeroCoef>
-5.4800

> <Gold.Chemscore.Hbond>
2.4342

> <Gold.Chemscore.Metal>
0.0000

> <Gold.Chemscore.Lipo>
99.7689

> <Gold.Chemscore.Internal_Hbond>
0.0000

> <Gold.Chemscore.DEClash>
0.0491

> <Gold.Chemscore.DEInternal>
0.8088

> <Gold.Chemscore.Rot>
2.3490

> <Gold.Chemscore.Internal.Correction>
   9.000000E+99

> <Gold.Chemscore.Hbonds>
donor molecule, donor type, donor heavy atom, donor atom, acceptor molecule, acceptor atom, score
      P1  H  6896  6907       L1     9  0.07
      P1  H  6931  6943       L1    19  0.87
      P1  H  6934  6947       L1    19  0.39

> <Gold.Chemscore.Hbond.Weighted>
-8.1301

> <Gold.Chemscore.Metal.Weighted>
-0.0000

> <Gold.Chemscore.Lipo.Weighted>
-11.6730

> <Gold.Chemscore.Internal_Hbond.Weighted>
0.0000

> <Gold.Chemscore.DEClash.Weighted>
0.0491

> <Gold.Chemscore.DEInternal.Weighted>
0.8088

> <Gold.Chemscore.Rot.Weighted>
6.0136

> <Gold.Chemscore.Internal.Correction.Weighted>
   9.000000E+99

> <Gold.Protein.RotatedTorsions>
[ 6907 6896 6895 6894 ] final    2.86 input  -60.11 | X-H torsion
[ 7974 7965 7964 7962 ] final   45.62 input  175.53 | X-H torsion
[ 8008 7997 7996 7995 ] final   80.77 input   59.86 | X-H torsion
[ 10167 10162 10161 10158 ] final   97.96 input  -65.29 | X-H torsion
[ 10718 10713 10712 10709 ] final  -49.17 input   66.30 | X-H torsion
[ 10763 10752 10751 10750 ] final  -81.40 input  -60.55 | X-H torsion
[ 11005 11000 10999 10996 ] final  165.18 input  -57.11 | X-H torsion

> <Gold.Protein.ActiveResidues>
 VAL166  LYS551  ARG553  GLY616  TRP617  ASP618  TYR619  PRO620  LYS621  CYS622 
 ASP623  PHE694  ASN695  SER759  ASP760  ASP761  ALA762  ILE779  LEU786  VAL792 
 PHE793  MET794  SER795  GLU796  ALA797  LYS798  CYS799  TRP800  GLU811  SER814 

> <Gold.Protein.RotatedAtoms>
  151.6158  135.1036  160.0090 H   0  0  0  0  0  0  0  0  0  0  0  0  # atno 6907 bound_to 6896
  152.4184  133.7072  159.6468 H   0  0  0  0  0  0  0  0  0  0  0  0  # atno 6908 bound_to 6896
  150.8072  133.8415  159.3221 H   0  0  0  0  0  0  0  0  0  0  0  0  # atno 6909 bound_to 6896
  146.0464  139.4944  142.9746 H   0  0  0  0  0  0  0  0  0  0  0  0  # atno 7974 bound_to 7965
  155.8880  140.3440  155.5936 H   0  0  0  0  0  0  0  0  0  0  0  0  # atno 8008 bound_to 7997
  155.7643  140.0837  157.2159 H   0  0  0  0  0  0  0  0  0  0  0  0  # atno 8009 bound_to 7997
  154.4030  140.1530  156.2856 H   0  0  0  0  0  0  0  0  0  0  0  0  # atno 8010 bound_to 7997
  139.7753  144.6908  151.0099 H   0  0  0  0  0  0  0  0  0  0  0  0  # atno 10167 bound_to 10162
  156.1919  130.4153  149.9360 H   0  0  0  0  0  0  0  0  0  0  0  0  # atno 10718 bound_to 10713
  154.5631  135.5627  153.7025 H   0  0  0  0  0  0  0  0  0  0  0  0  # atno 10763 bound_to 10752
  153.0024  135.6278  154.2218 H   0  0  0  0  0  0  0  0  0  0  0  0  # atno 10764 bound_to 10752
  154.2156  135.2872  155.2923 H   0  0  0  0  0  0  0  0  0  0  0  0  # atno 10765 bound_to 10752
  140.2535  134.7958  157.3524 H   0  0  0  0  0  0  0  0  0  0  0  0  # atno 11005 bound_to 11000
  145.6799  141.0194  143.1612 LP  0  0  0  0  0  0  0  0  0  0  0  0  # atno 17320 bound_to 7965
  144.7100  139.8409  143.7418 LP  0  0  0  0  0  0  0  0  0  0  0  0  # atno 17321 bound_to 7965
  140.7816  143.4543  151.0368 LP  0  0  0  0  0  0  0  0  0  0  0  0  # atno 17342 bound_to 10162
  139.8225  143.7800  152.3177 LP  0  0  0  0  0  0  0  0  0  0  0  0  # atno 17343 bound_to 10162
  156.7098  130.8965  151.3608 LP  0  0  0  0  0  0  0  0  0  0  0  0  # atno 17370 bound_to 10713
  157.6934  130.9257  150.0576 LP  0  0  0  0  0  0  0  0  0  0  0  0  # atno 17371 bound_to 10713
  140.1535  134.4820  155.7944 LP  0  0  0  0  0  0  0  0  0  0  0  0  # atno 17394 bound_to 11000
  141.2199  133.6872  156.7419 LP  0  0  0  0  0  0  0  0  0  0  0  0  # atno 17395 bound_to 11000

$$$$
