AV-unprocessed.smi:83|AV-procd|sdf|805|dock8
  -GOLD-   2262017193D 1   1.00000     0.00000
 Structure written by MMmdl.
 56 59  0  0  0  0  0  0  0  0  1 V2000
  152.9614  142.3900  160.9554 C   0  0  0  0  0  0  0  0  0  0  0  0
  152.2122  142.5765  159.6350 C   0  0  0  0  0  0  0  0  0  0  0  0
  151.8517  143.7069  159.3074 O   0  0  0  0  0  0  0  0  0  0  0  0
  151.9715  141.4891  158.8752 N   0  0  0  0  0  0  0  0  0  0  0  0
  152.3788  140.1204  159.1888 C   0  0  0  0  0  0  0  0  0  0  0  0
  152.0561  139.3013  157.9376 C   0  0  0  0  0  0  0  0  0  0  0  0
  150.9195  140.0713  157.2743 C   0  0  2  0  0  0  0  0  0  0  0  0
  150.7502  139.7681  155.7728 C   0  0  0  0  0  0  0  0  0  0  0  0
  149.3706  139.9449  155.3143 N   0  0  0  0  0  0  0  0  0  0  0  0
  149.0032  141.2246  154.7220 C   0  0  0  0  0  0  0  0  0  0  0  0
  148.6047  138.8447  155.0720 C   0  0  0  0  0  0  0  0  0  0  0  0
  148.7929  137.7520  155.8591 N   0  0  0  0  0  0  0  0  0  0  0  0
  148.0795  136.6395  155.6687 C   0  0  0  0  0  0  0  0  0  0  0  0
  147.1357  136.4013  154.7586 N   0  0  0  0  0  0  0  0  0  0  0  0
  146.9375  137.4878  153.9598 C   0  0  0  0  0  0  0  0  0  0  0  0
  147.6166  138.7387  154.0449 C   0  0  0  0  0  0  0  0  0  0  0  0
  147.1422  139.5881  153.0493 N   0  0  0  0  0  0  0  0  0  0  0  0
  146.2361  138.8880  152.4246 C   0  0  0  0  0  0  0  0  0  0  0  0
  146.0494  137.6147  152.9066 N   0  0  0  0  0  0  0  0  0  0  0  0
  145.1117  136.6269  152.4025 C   0  0  0  0  0  0  0  0  0  0  0  0
  145.7044  135.7865  151.2546 C   0  0  2  0  0  0  0  0  0  0  0  0
  145.1752  136.2376  150.0223 O   0  0  0  0  0  0  0  0  0  0  0  0
  145.3941  134.2864  151.4108 C   0  0  1  0  0  0  0  0  0  0  0  0
  143.9056  133.9350  151.3422 C   0  0  0  0  0  0  0  0  0  0  0  0
  143.8899  132.5024  150.8297 C   0  0  0  0  0  0  0  0  0  0  0  0
  145.3232  132.2610  150.3514 C   0  0  0  0  0  0  0  0  0  0  0  0
  145.9179  133.5500  150.3163 O   0  0  0  0  0  0  0  0  0  0  0  0
  151.2518  141.5305  157.6057 C   0  0  0  0  0  0  0  0  0  0  0  0
  152.4507  141.6676  161.5926 H   0  0  0  0  0  0  0  0  0  0  0  0
  153.0225  143.3332  161.4993 H   0  0  0  0  0  0  0  0  0  0  0  0
  153.9778  142.0401  160.7736 H   0  0  0  0  0  0  0  0  0  0  0  0
  153.4375  140.0505  159.4416 H   0  0  0  0  0  0  0  0  0  0  0  0
  151.7987  139.7609  160.0399 H   0  0  0  0  0  0  0  0  0  0  0  0
  152.9267  139.2826  157.2803 H   0  0  0  0  0  0  0  0  0  0  0  0
  151.7897  138.2692  158.1676 H   0  0  0  0  0  0  0  0  0  0  0  0
  149.9994  139.8067  157.7979 H   0  0  0  0  0  0  0  0  0  0  0  0
  151.4515  140.3615  155.1862 H   0  0  0  0  0  0  0  0  0  0  0  0
  151.0309  138.7309  155.5878 H   0  0  0  0  0  0  0  0  0  0  0  0
  147.9382  141.4219  154.8478 H   0  0  0  0  0  0  0  0  0  0  0  0
  149.2430  141.2412  153.6585 H   0  0  0  0  0  0  0  0  0  0  0  0
  149.5478  142.0386  155.2011 H   0  0  0  0  0  0  0  0  0  0  0  0
  148.2986  135.8230  156.3407 H   0  0  0  0  0  0  0  0  0  0  0  0
  145.6756  139.2829  151.5898 H   0  0  0  0  0  0  0  0  0  0  0  0
  144.8224  135.9823  153.2332 H   0  0  0  0  0  0  0  0  0  0  0  0
  144.2046  137.1365  152.0758 H   0  0  0  0  0  0  0  0  0  0  0  0
  146.7856  135.9295  151.2267 H   0  0  0  0  0  0  0  0  0  0  0  0
  145.7434  135.9438  149.3267 H   0  0  0  0  0  0  0  0  0  0  0  0
  145.8273  133.8985  152.3352 H   0  0  0  0  0  0  0  0  0  0  0  0
  143.4057  134.0450  152.3049 H   0  0  0  0  0  0  0  0  0  0  0  0
  143.3965  134.5817  150.6260 H   0  0  0  0  0  0  0  0  0  0  0  0
  143.6181  131.7946  151.6136 H   0  0  0  0  0  0  0  0  0  0  0  0
  143.1730  132.3934  150.0152 H   0  0  0  0  0  0  0  0  0  0  0  0
  145.8645  131.6356  151.0627 H   0  0  0  0  0  0  0  0  0  0  0  0
  145.3654  131.7800  149.3740 H   0  0  0  0  0  0  0  0  0  0  0  0
  150.3470  142.1379  157.6652 H   0  0  0  0  0  0  0  0  0  0  0  0
  151.9051  141.9677  156.8491 H   0  0  0  0  0  0  0  0  0  0  0  0
  1  2  1  0  0  0  0
  1 29  1  0  0  0  0
  1 30  1  0  0  0  0
  1 31  1  0  0  0  0
  2  3  2  0  0  0  0
  2  4  1  0  0  0  0
  4 28  1  0  0  0  0
  4  5  1  0  0  0  0
  5  6  1  0  0  0  0
  5 32  1  0  0  0  0
  5 33  1  0  0  0  0
  6  7  1  0  0  0  0
  6 34  1  0  0  0  0
  6 35  1  0  0  0  0
  7  8  1  0  0  0  0
  7 28  1  0  0  0  0
  7 36  1  0  0  0  0
  8  9  1  0  0  0  0
  8 37  1  0  0  0  0
  8 38  1  0  0  0  0
  9 10  1  0  0  0  0
  9 11  1  0  0  0  0
 10 39  1  0  0  0  0
 10 40  1  0  0  0  0
 10 41  1  0  0  0  0
 11 16  1  0  0  0  0
 11 12  2  0  0  0  0
 12 13  1  0  0  0  0
 13 14  2  0  0  0  0
 13 42  1  0  0  0  0
 14 15  1  0  0  0  0
 15 19  1  0  0  0  0
 15 16  2  0  0  0  0
 16 17  1  0  0  0  0
 17 18  2  0  0  0  0
 18 19  1  0  0  0  0
 18 43  1  0  0  0  0
 19 20  1  0  0  0  0
 20 21  1  0  0  0  0
 20 44  1  0  0  0  0
 20 45  1  0  0  0  0
 21 22  1  0  0  0  0
 21 23  1  0  0  0  0
 21 46  1  0  0  0  0
 22 47  1  0  0  0  0
 23 27  1  0  0  0  0
 23 24  1  0  0  0  0
 23 48  1  0  0  0  0
 24 25  1  0  0  0  0
 24 49  1  0  0  0  0
 24 50  1  0  0  0  0
 25 26  1  0  0  0  0
 25 51  1  0  0  0  0
 25 52  1  0  0  0  0
 26 27  1  0  0  0  0
 26 53  1  0  0  0  0
 26 54  1  0  0  0  0
 28 55  1  0  0  0  0
 28 56  1  0  0  0  0
M  END
> <s_m_source_file>
AV-unprocessed.smi

> <i_m_source_file_index>
83

> <i_lp_mmshare_version>
43012

> <i_f3d_flags>
0

> <s_epik_input>
W0NIM11DKD1PKU4xW0NIMl1bQ0gyXVtDQEhdKFtDSDJdMSlbQ0gyXU4oW0NIM10pYyhuW2NIXW4yKWMoYzIzKW5bY0hdbjNbQ0gyXVtDQEhdKFtPSF0pW0NAQEhdNFtDSDJdW0NIMl1bQ0gyXU80

> <s_epik_cmdline>
J2VwaWtfcHl0aG9uJywgJy1waCcsICc3LjAnLCAnLXRuJywgJzgnLCAnLW1hJywgJzIwMCcsICctbWV0YWxfYmluZGluZycsICctaW1hZScsICc8aW5maWxlLm1hZT4nLCAnLW9tYWUnLCAnPG91dGZpbGUubWFlPic=

> <r_lp_tautomer_probability>
1

> <r_epik_Ionization_Penalty>
0.00109752

> <r_epik_Ionization_Penalty_Charging>
0

> <r_epik_Ionization_Penalty_Neutral>
0.00109752

> <r_epik_State_Penalty>
0.000634803

> <r_epik_Charging_Adjusted_Penalty>
0.000634803

> <i_epik_Tot_Q>
0

> <i_epik_Tot_abs_Q>
0

> <r_epik_Metal_State_Penalty>
-0

> <b_epik_Metal_Only>
0

> <s_lp_Force_Field>
OPLS_2005

> <r_lp_Energy>
52.1459

> <b_lp_Chiralities_Consistent>
1

> <s_lp_Variant>
AV-unprocessed.smi:83-6

> <Gold.Version>
5.8.1

> <Gold.Id.Protein>
6NUR|6NUR_protein|mol2

> <Gold.PLP.Fitness>
50.9423

> <Gold.PLP.PLP>
-47.0041

> <Gold.PLP.part.hbond>
-2.0000

> <Gold.PLP.part.metal>
0.0000

> <Gold.PLP.part.buried>
-6.0162

> <Gold.PLP.part.nonpolar>
-41.7493

> <Gold.PLP.part.repulsive>
2.4117

> <Gold.PLP.ligand.clash>
0.0000

> <Gold.PLP.ligand.torsion>
1.9127

> <Gold.PLP.Chemscore.Hbond>
1.0000

> <Gold.PLP.Chemscore.CHOScore>
1.4396

> <Gold.PLP.Chemscore.Metal>
0.0000

> <Gold.Chemscore.Hbonds>
donor molecule, donor type, donor heavy atom, donor atom, acceptor molecule, acceptor atom, score
      L1  H    22    47       P1  7921  0.94
      L1  C    18    43       P1 10171  0.81
      L1  C    18    43       P1 10175  0.59

> <Gold.PLP.Chemscore.Internal.Correction>
0.4449

> <Gold.Rescore>
     Score         DG    S(hbond)    S(metal)    S(lipo)     H(rot)  DE(clash)    DE(int)     intcor
     10.02     -13.15       0.99        0.00      94.41       2.62       0.14       2.99       ----

> <Gold.Chemscore.Fitness>
10.0225

> <Gold.Chemscore.DG>
-13.1513

> <Gold.Chemscore.ZeroCoef>
-5.4800

> <Gold.Chemscore.Hbond>
0.9941

> <Gold.Chemscore.Metal>
0.0000

> <Gold.Chemscore.Lipo>
94.4092

> <Gold.Chemscore.Internal_Hbond>
0.0000

> <Gold.Chemscore.DEClash>
0.1381

> <Gold.Chemscore.DEInternal>
2.9908

> <Gold.Chemscore.Rot>
2.6152

> <Gold.Chemscore.Internal.Correction>
   9.000000E+99

> <Gold.Chemscore.Hbonds>
donor molecule, donor type, donor heavy atom, donor atom, acceptor molecule, acceptor atom, score
      L1  H    22    47       P1  7921  0.87

> <Gold.Chemscore.Hbond.Weighted>
-3.3203

> <Gold.Chemscore.Metal.Weighted>
-0.0000

> <Gold.Chemscore.Lipo.Weighted>
-11.0459

> <Gold.Chemscore.Internal_Hbond.Weighted>
0.0000

> <Gold.Chemscore.DEClash.Weighted>
0.1381

> <Gold.Chemscore.DEInternal.Weighted>
2.9908

> <Gold.Chemscore.Rot.Weighted>
6.6949

> <Gold.Chemscore.Internal.Correction.Weighted>
   9.000000E+99

> <Gold.Protein.RotatedTorsions>
[ 6907 6896 6895 6894 ] final  -88.76 input  -60.11 | X-H torsion
[ 7974 7965 7964 7962 ] final   45.04 input  175.53 | X-H torsion
[ 8008 7997 7996 7995 ] final  139.37 input   59.86 | X-H torsion
[ 10167 10162 10161 10158 ] final -140.90 input  -65.29 | X-H torsion
[ 10718 10713 10712 10709 ] final  152.96 input   66.30 | X-H torsion
[ 10763 10752 10751 10750 ] final   86.84 input  -60.55 | X-H torsion
[ 11005 11000 10999 10996 ] final  137.21 input  -57.11 | X-H torsion

> <Gold.Protein.ActiveResidues>
 VAL166  LYS551  ARG553  GLY616  TRP617  ASP618  TYR619  PRO620  LYS621  CYS622 
 ASP623  PHE694  ASN695  SER759  ASP760  ASP761  ALA762  ILE779  LEU786  VAL792 
 PHE793  MET794  SER795  GLU796  ALA797  LYS798  CYS799  TRP800  GLU811  SER814 

> <Gold.Protein.RotatedAtoms>
  150.6870  134.2691  159.4580 H   0  0  0  0  0  0  0  0  0  0  0  0  # atno 6907 bound_to 6896
  152.0615  134.9589  160.0584 H   0  0  0  0  0  0  0  0  0  0  0  0  # atno 6908 bound_to 6896
  152.1014  133.4217  159.4626 H   0  0  0  0  0  0  0  0  0  0  0  0  # atno 6909 bound_to 6896
  146.0515  139.5008  142.9715 H   0  0  0  0  0  0  0  0  0  0  0  0  # atno 7974 bound_to 7965
  156.2990  140.2369  156.4227 H   0  0  0  0  0  0  0  0  0  0  0  0  # atno 8008 bound_to 7997
  154.8341  140.0431  157.1517 H   0  0  0  0  0  0  0  0  0  0  0  0  # atno 8009 bound_to 7997
  154.9175  140.2999  155.5237 H   0  0  0  0  0  0  0  0  0  0  0  0  # atno 8010 bound_to 7997
  139.8237  143.7540  152.2666 H   0  0  0  0  0  0  0  0  0  0  0  0  # atno 10167 bound_to 10162
  157.2510  131.0779  151.1730 H   0  0  0  0  0  0  0  0  0  0  0  0  # atno 10718 bound_to 10713
  153.1610  135.4565  154.9771 H   0  0  0  0  0  0  0  0  0  0  0  0  # atno 10763 bound_to 10752
  154.7897  135.3216  154.7808 H   0  0  0  0  0  0  0  0  0  0  0  0  # atno 10764 bound_to 10752
  153.8298  135.6939  153.4870 H   0  0  0  0  0  0  0  0  0  0  0  0  # atno 10765 bound_to 10752
  140.0099  134.9443  157.0254 H   0  0  0  0  0  0  0  0  0  0  0  0  # atno 11005 bound_to 11000
  145.6716  141.0215  143.1654 LP  0  0  0  0  0  0  0  0  0  0  0  0  # atno 17320 bound_to 7965
  144.7125  139.8317  143.7410 LP  0  0  0  0  0  0  0  0  0  0  0  0  # atno 17321 bound_to 7965
  139.7726  144.7471  151.0203 LP  0  0  0  0  0  0  0  0  0  0  0  0  # atno 17342 bound_to 10162
  140.7811  143.4628  151.0253 LP  0  0  0  0  0  0  0  0  0  0  0  0  # atno 17343 bound_to 10162
  157.3278  130.6969  149.6306 LP  0  0  0  0  0  0  0  0  0  0  0  0  # atno 17370 bound_to 10713
  155.9666  130.4316  150.4929 LP  0  0  0  0  0  0  0  0  0  0  0  0  # atno 17371 bound_to 10713
  140.4574  134.1519  155.7187 LP  0  0  0  0  0  0  0  0  0  0  0  0  # atno 17394 bound_to 11000
  141.1703  133.8621  157.1590 LP  0  0  0  0  0  0  0  0  0  0  0  0  # atno 17395 bound_to 11000

$$$$
