AV-unprocessed.smi:2063|AV-procd|sdf|8413|dock2
  -GOLD-   2272011103D 1   1.00000     0.00000
 Structure written by MMmdl.
 38 39  0  0  0  0  0  0  0  0  2 V2000
  151.9006  145.3479  159.9084 C   0  0  0  0  0  0  0  0  0  0  0  0
  151.5617  143.9797  160.5178 C   0  0  0  0  0  0  0  0  0  0  0  0
  152.4203  143.6361  161.7435 C   0  0  0  0  0  0  0  0  0  0  0  0
  151.5760  142.8885  159.4934 C   0  0  0  0  0  0  0  0  0  0  0  0
  150.5027  142.5477  158.7733 N   0  0  0  0  0  0  0  0  0  0  0  0
  150.7676  141.5039  157.8989 N   0  0  0  0  0  0  0  0  0  0  0  0
  152.0307  141.0617  157.9751 C   0  0  0  0  0  0  0  0  0  0  0  0
  152.4891  140.0531  157.2153 N   0  5  0  0  0  0  0  0  0  0  0  0
  151.8778  139.7586  156.0448 C   0  0  0  0  0  0  0  0  0  0  0  0
  152.3659  139.8727  154.9180 O   0  0  0  0  0  0  0  0  0  0  0  0
  150.6243  139.3041  156.1887 N   0  0  0  0  0  0  0  0  0  0  0  0
  149.7168  138.9173  155.1100 C   0  0  1  0  0  0  0  0  0  0  0  0
  149.2422  137.4694  155.3279 C   0  0  0  0  0  0  0  0  0  0  0  0
  148.5424  139.9139  155.0536 C   0  0  2  0  0  0  0  0  0  0  0  0
  147.5509  139.6685  153.9157 C   0  0  0  0  0  0  0  0  0  0  0  0
  146.9083  141.0287  153.7709 C   0  0  0  0  0  0  0  0  0  0  0  0
  148.0861  141.9672  154.0190 C   0  0  0  0  0  0  0  0  0  0  0  0
  149.0177  141.2368  154.8137 O   0  0  0  0  0  0  0  0  0  0  0  0
  153.0146  141.9435  159.1426 S   0  0  0  0  0  0  0  0  0  0  0  0
  151.2179  145.5937  159.0943 H   0  0  0  0  0  0  0  0  0  0  0  0
  152.9150  145.3638  159.5086 H   0  0  0  0  0  0  0  0  0  0  0  0
  151.8247  146.1397  160.6538 H   0  0  0  0  0  0  0  0  0  0  0  0
  150.5337  144.0507  160.8752 H   0  0  0  0  0  0  0  0  0  0  0  0
  152.0964  142.6996  162.1985 H   0  0  0  0  0  0  0  0  0  0  0  0
  152.3492  144.4147  162.5037 H   0  0  0  0  0  0  0  0  0  0  0  0
  153.4717  143.5301  161.4741 H   0  0  0  0  0  0  0  0  0  0  0  0
  150.2655  139.2334  157.1297 H   0  0  0  0  0  0  0  0  0  0  0  0
  150.2512  138.9708  154.1597 H   0  0  0  0  0  0  0  0  0  0  0  0
  148.5927  137.1362  154.5187 H   0  0  0  0  0  0  0  0  0  0  0  0
  148.6889  137.3708  156.2623 H   0  0  0  0  0  0  0  0  0  0  0  0
  150.0854  136.7792  155.3677 H   0  0  0  0  0  0  0  0  0  0  0  0
  148.0037  139.9190  156.0030 H   0  0  0  0  0  0  0  0  0  0  0  0
  148.0770  139.4041  152.9974 H   0  0  0  0  0  0  0  0  0  0  0  0
  146.8307  138.8809  154.1384 H   0  0  0  0  0  0  0  0  0  0  0  0
  146.4382  141.1816  152.7991 H   0  0  0  0  0  0  0  0  0  0  0  0
  146.1501  141.1657  154.5430 H   0  0  0  0  0  0  0  0  0  0  0  0
  148.5695  142.2359  153.0794 H   0  0  0  0  0  0  0  0  0  0  0  0
  147.7786  142.8873  154.5163 H   0  0  0  0  0  0  0  0  0  0  0  0
  1  2  1  0  0  0  0
  1 20  1  0  0  0  0
  1 21  1  0  0  0  0
  1 22  1  0  0  0  0
  2  3  1  0  0  0  0
  2  4  1  0  0  0  0
  2 23  1  0  0  0  0
  3 24  1  0  0  0  0
  3 25  1  0  0  0  0
  3 26  1  0  0  0  0
  4 19  1  0  0  0  0
  4  5  2  0  0  0  0
  5  6  1  0  0  0  0
  6  7  2  0  0  0  0
  7  8  1  0  0  0  0
  7 19  1  0  0  0  0
  8  9  1  0  0  0  0
  9 10  2  0  0  0  0
  9 11  1  0  0  0  0
 11 12  1  0  0  0  0
 11 27  1  0  0  0  0
 12 13  1  0  0  0  0
 12 14  1  0  0  0  0
 12 28  1  0  0  0  0
 13 29  1  0  0  0  0
 13 30  1  0  0  0  0
 13 31  1  0  0  0  0
 14 18  1  0  0  0  0
 14 15  1  0  0  0  0
 14 32  1  0  0  0  0
 15 16  1  0  0  0  0
 15 33  1  0  0  0  0
 15 34  1  0  0  0  0
 16 17  1  0  0  0  0
 16 35  1  0  0  0  0
 16 36  1  0  0  0  0
 17 18  1  0  0  0  0
 17 37  1  0  0  0  0
 17 38  1  0  0  0  0
M  CHG  1   8  -1
M  END
> <s_m_source_file>
AV-unprocessed.smi

> <i_m_source_file_index>
2063

> <i_lp_mmshare_version>
43012

> <i_f3d_flags>
0

> <s_epik_input>
W0NIM11bQ0hdKFtDSDNdKWMxbm5jKHMxKVtOSF1DKD1PKVtOSF1bQ0BIXShbQ0gzXSlbQ0BASF0yW0NIMl1bQ0gyXVtDSDJdTzI=

> <s_epik_cmdline>
J2VwaWtfcHl0aG9uJywgJy1waCcsICc3LjAnLCAnLXRuJywgJzgnLCAnLW1hJywgJzIwMCcsICctbWV0YWxfYmluZGluZycsICctaW1hZScsICc8aW5maWxlLm1hZT4nLCAnLW9tYWUnLCAnPG91dGZpbGUubWFlPic=

> <r_lp_tautomer_probability>
1

> <r_epik_Ionization_Penalty>
4.37022

> <r_epik_Ionization_Penalty_Charging>
4.21437

> <r_epik_Ionization_Penalty_Neutral>
0.15585

> <r_epik_State_Penalty>
4.21389

> <r_epik_Charging_Adjusted_Penalty>
8.42826

> <i_epik_Tot_Q>
-1

> <i_epik_Tot_abs_Q>
1

> <r_epik_Metal_State_Penalty>
0.693772

> <b_epik_Metal_Only>
1

> <s_lp_Force_Field>
OPLS_2005

> <r_lp_Energy>
10.2416

> <b_lp_Chiralities_Consistent>
1

> <s_lp_Variant>
AV-unprocessed.smi:2063-6

> <Gold.Version>
5.8.1

> <Gold.Id.Protein>
6NUR|6NUR_protein|mol2

> <Gold.PLP.Fitness>
39.9697

> <Gold.PLP.PLP>
-34.8047

> <Gold.PLP.part.hbond>
-2.0000

> <Gold.PLP.part.metal>
0.0000

> <Gold.PLP.part.buried>
-6.0243

> <Gold.PLP.part.nonpolar>
-26.6584

> <Gold.PLP.part.repulsive>
0.3074

> <Gold.PLP.ligand.clash>
0.0000

> <Gold.PLP.ligand.torsion>
1.4784

> <Gold.PLP.Chemscore.Hbond>
2.6720

> <Gold.PLP.Chemscore.CHOScore>
0.0000

> <Gold.PLP.Chemscore.Metal>
0.0000

> <Gold.Chemscore.Hbonds>
donor molecule, donor type, donor heavy atom, donor atom, acceptor molecule, acceptor atom, score
      P1  H  7989  7998       L1    10  0.67
      P1  H  7997  8009       L1     8  2.00

> <Gold.PLP.Chemscore.Internal.Correction>
0.1058

> <Gold.Rescore>
     Score         DG    S(hbond)    S(metal)    S(lipo)     H(rot)  DE(clash)    DE(int)     intcor
     15.75     -16.86       1.46        0.00      85.95       1.39       0.01       1.10       ----

> <Gold.Chemscore.Fitness>
15.7468

> <Gold.Chemscore.DG>
-16.8573

> <Gold.Chemscore.ZeroCoef>
-5.4800

> <Gold.Chemscore.Hbond>
1.4603

> <Gold.Chemscore.Metal>
0.0000

> <Gold.Chemscore.Lipo>
85.9542

> <Gold.Chemscore.Internal_Hbond>
0.0000

> <Gold.Chemscore.DEClash>
0.0108

> <Gold.Chemscore.DEInternal>
1.0998

> <Gold.Chemscore.Rot>
1.3893

> <Gold.Chemscore.Internal.Correction>
   9.000000E+99

> <Gold.Chemscore.Hbonds>
donor molecule, donor type, donor heavy atom, donor atom, acceptor molecule, acceptor atom, score
      P1  H  7989  7998       L1    10  0.66
      P1  H  7997  8009       L1     8  0.24

> <Gold.Chemscore.Hbond.Weighted>
-4.8774

> <Gold.Chemscore.Metal.Weighted>
-0.0000

> <Gold.Chemscore.Lipo.Weighted>
-10.0566

> <Gold.Chemscore.Internal_Hbond.Weighted>
0.0000

> <Gold.Chemscore.DEClash.Weighted>
0.0108

> <Gold.Chemscore.DEInternal.Weighted>
1.0998

> <Gold.Chemscore.Rot.Weighted>
3.5567

> <Gold.Chemscore.Internal.Correction.Weighted>
   9.000000E+99

> <Gold.Protein.RotatedTorsions>
[ 6907 6896 6895 6894 ] final  162.37 input  -60.11 | X-H torsion
[ 7974 7965 7964 7962 ] final  167.47 input  175.53 | X-H torsion
[ 8008 7997 7996 7995 ] final -178.43 input   59.86 | X-H torsion
[ 10167 10162 10161 10158 ] final -112.82 input  -65.29 | X-H torsion
[ 10718 10713 10712 10709 ] final  168.71 input   66.30 | X-H torsion
[ 10763 10752 10751 10750 ] final  169.73 input  -60.55 | X-H torsion
[ 11005 11000 10999 10996 ] final  175.44 input  -57.11 | X-H torsion

> <Gold.Protein.ActiveResidues>
 VAL166  LYS551  ARG553  GLY616  TRP617  ASP618  TYR619  PRO620  LYS621  CYS622 
 ASP623  PHE694  ASN695  SER759  ASP760  ASP761  ALA762  ILE779  LEU786  VAL792 
 PHE793  MET794  SER795  GLU796  ALA797  LYS798  CYS799  TRP800  GLU811  SER814 

> <Gold.Protein.RotatedAtoms>
  151.9414  133.3639  159.3966 H   0  0  0  0  0  0  0  0  0  0  0  0  # atno 6907 bound_to 6896
  150.6997  134.4435  159.5312 H   0  0  0  0  0  0  0  0  0  0  0  0  # atno 6908 bound_to 6896
  152.2093  134.8516  160.0550 H   0  0  0  0  0  0  0  0  0  0  0  0  # atno 6909 bound_to 6896
  144.7423  139.8765  143.6393 H   0  0  0  0  0  0  0  0  0  0  0  0  # atno 7974 bound_to 7965
  156.0187  140.1256  157.0379 H   0  0  0  0  0  0  0  0  0  0  0  0  # atno 8008 bound_to 7997
  154.4303  140.1073  156.6003 H   0  0  0  0  0  0  0  0  0  0  0  0  # atno 8009 bound_to 7997
  155.5975  140.3470  155.4586 H   0  0  0  0  0  0  0  0  0  0  0  0  # atno 8010 bound_to 7997
  140.1186  143.4463  152.1706 H   0  0  0  0  0  0  0  0  0  0  0  0  # atno 10167 bound_to 10162
  157.0332  131.0265  151.2738 H   0  0  0  0  0  0  0  0  0  0  0  0  # atno 10718 bound_to 10713
  154.3874  135.2754  155.2175 H   0  0  0  0  0  0  0  0  0  0  0  0  # atno 10763 bound_to 10752
  154.4256  135.5989  153.6040 H   0  0  0  0  0  0  0  0  0  0  0  0  # atno 10764 bound_to 10752
  152.9833  135.5983  154.4125 H   0  0  0  0  0  0  0  0  0  0  0  0  # atno 10765 bound_to 10752
  140.3622  134.7103  157.4338 H   0  0  0  0  0  0  0  0  0  0  0  0  # atno 11005 bound_to 11000
  146.1242  139.4265  143.0209 LP  0  0  0  0  0  0  0  0  0  0  0  0  # atno 17320 bound_to 7965
  145.7259  141.0059  143.1377 LP  0  0  0  0  0  0  0  0  0  0  0  0  # atno 17321 bound_to 7965
  139.5581  144.7387  151.4236 LP  0  0  0  0  0  0  0  0  0  0  0  0  # atno 17342 bound_to 10162
  140.6885  143.7918  150.7220 LP  0  0  0  0  0  0  0  0  0  0  0  0  # atno 17343 bound_to 10162
  157.5162  130.7969  149.7758 LP  0  0  0  0  0  0  0  0  0  0  0  0  # atno 17370 bound_to 10713
  156.0062  130.3854  150.2422 LP  0  0  0  0  0  0  0  0  0  0  0  0  # atno 17371 bound_to 10713
  140.0618  134.5986  155.8741 LP  0  0  0  0  0  0  0  0  0  0  0  0  # atno 17394 bound_to 11000
  141.1980  133.6599  156.5772 LP  0  0  0  0  0  0  0  0  0  0  0  0  # atno 17395 bound_to 11000

$$$$
