AV-unprocessed.smi:2171|AV-procd|sdf|8827|dock4
  -GOLD-   2272012 23D 1   1.00000     0.00000
 Structure written by MMmdl.
 39 41  0  0  0  0  0  0  0  0  2 V2000
  150.3843  140.4981  154.5019 O   0  0  0  0  0  0  0  0  0  0  0  0
  150.9996  140.1132  155.4957 C   0  0  0  0  0  0  0  0  0  0  0  0
  151.8155  138.8224  155.4436 C   0  0  0  0  0  0  0  0  0  0  0  0
  150.9372  137.6684  155.3655 N   0  0  0  0  0  0  0  0  0  0  0  0
  149.5597  137.6449  155.3003 C   0  0  0  0  0  0  0  0  0  0  0  0
  149.1792  136.3362  155.2180 C   0  0  0  0  0  0  0  0  0  0  0  0
  150.4107  135.6235  155.2385 C   0  0  0  0  0  0  0  0  0  0  0  0
  151.4615  136.4231  155.3244 N   0  0  0  0  0  0  0  0  0  0  0  0
  151.0316  140.7896  156.6538 N   0  0  0  0  0  0  0  0  0  0  0  0
  150.4366  142.1043  156.8681 C   0  0  1  0  0  0  0  0  0  0  0  0
  149.2232  142.0752  157.8076 C   0  0  0  0  0  0  0  0  0  0  0  0
  149.2592  143.4220  158.5523 C   0  0  0  0  0  0  0  0  0  0  0  0
  150.4554  144.1369  158.0537 N   0  3  1  0  0  0  0  0  0  0  0  0
  151.0458  145.1538  158.9612 C   0  0  0  0  0  0  0  0  0  0  0  0
  151.8995  144.5297  160.0778 C   0  0  0  0  0  0  0  0  0  0  0  0
  152.9604  143.5942  159.4892 C   0  0  0  0  0  0  0  0  0  0  0  0
  152.2804  142.5084  158.6488 C   0  0  0  0  0  0  0  0  0  0  0  0
  151.3890  143.1139  157.5326 C   0  0  1  0  0  0  0  0  0  0  0  0
  152.4861  138.8308  154.5828 H   0  0  0  0  0  0  0  0  0  0  0  0
  152.4363  138.7342  156.3363 H   0  0  0  0  0  0  0  0  0  0  0  0
  148.9729  138.5517  155.3145 H   0  0  0  0  0  0  0  0  0  0  0  0
  148.1740  135.9470  155.1527 H   0  0  0  0  0  0  0  0  0  0  0  0
  150.5709  134.5563  155.1924 H   0  0  0  0  0  0  0  0  0  0  0  0
  151.5638  140.3946  157.4164 H   0  0  0  0  0  0  0  0  0  0  0  0
  150.1083  142.5117  155.9095 H   0  0  0  0  0  0  0  0  0  0  0  0
  148.2927  141.9353  157.2562 H   0  0  0  0  0  0  0  0  0  0  0  0
  149.3042  141.2575  158.5254 H   0  0  0  0  0  0  0  0  0  0  0  0
  148.3645  144.0165  158.3653 H   0  0  0  0  0  0  0  0  0  0  0  0
  149.3263  143.2501  159.6270 H   0  0  0  0  0  0  0  0  0  0  0  0
  151.6728  145.8129  158.3595 H   0  0  0  0  0  0  0  0  0  0  0  0
  150.2559  145.7775  159.3811 H   0  0  0  0  0  0  0  0  0  0  0  0
  152.3806  145.3172  160.6587 H   0  0  0  0  0  0  0  0  0  0  0  0
  151.2664  143.9792  160.7744 H   0  0  0  0  0  0  0  0  0  0  0  0
  153.6594  144.1611  158.8729 H   0  0  0  0  0  0  0  0  0  0  0  0
  153.5451  143.1382  160.2886 H   0  0  0  0  0  0  0  0  0  0  0  0
  153.0425  141.8615  158.2126 H   0  0  0  0  0  0  0  0  0  0  0  0
  151.6839  141.8745  159.3063 H   0  0  0  0  0  0  0  0  0  0  0  0
  152.0335  143.5761  156.7835 H   0  0  0  0  0  0  0  0  0  0  0  0
  150.1314  144.6410  157.2404 H   0  0  0  0  0  0  0  0  0  0  0  0
  1  2  2  0  0  0  0
  2  3  1  0  0  0  0
  2  9  1  0  0  0  0
  3  4  1  0  0  0  0
  3 19  1  0  0  0  0
  3 20  1  0  0  0  0
  4  8  1  0  0  0  0
  4  5  1  0  0  0  0
  5  6  2  0  0  0  0
  5 21  1  0  0  0  0
  6  7  1  0  0  0  0
  6 22  1  0  0  0  0
  7  8  2  0  0  0  0
  7 23  1  0  0  0  0
  9 10  1  0  0  0  0
  9 24  1  0  0  0  0
 10 18  1  0  0  0  0
 10 11  1  0  0  0  0
 10 25  1  0  0  0  0
 11 12  1  0  0  0  0
 11 26  1  0  0  0  0
 11 27  1  0  0  0  0
 12 13  1  0  0  0  0
 12 28  1  0  0  0  0
 12 29  1  0  0  0  0
 13 18  1  0  0  0  0
 13 14  1  0  0  0  0
 13 39  1  0  0  0  0
 14 15  1  0  0  0  0
 14 30  1  0  0  0  0
 14 31  1  0  0  0  0
 15 16  1  0  0  0  0
 15 32  1  0  0  0  0
 15 33  1  0  0  0  0
 16 17  1  0  0  0  0
 16 34  1  0  0  0  0
 16 35  1  0  0  0  0
 17 18  1  0  0  0  0
 17 36  1  0  0  0  0
 17 37  1  0  0  0  0
 18 38  1  0  0  0  0
M  CHG  1  13   1
M  END
> <s_m_source_file>
AV-unprocessed.smi

> <i_m_source_file_index>
2171

> <i_lp_mmshare_version>
43012

> <i_f3d_flags>
0

> <s_epik_input>
bjFbY0hdW2NIXVtjSF1uMVtDSDJdQyg9TylbTkhdW0NASF0oW0NIMl1bQ0gyXTIpW0NAQEhdKE4yMylbQ0gyXVtDSDJdW0NIMl1bQ0gyXTM=

> <s_epik_cmdline>
J2VwaWtfcHl0aG9uJywgJy1waCcsICc3LjAnLCAnLXRuJywgJzgnLCAnLW1hJywgJzIwMCcsICctbWV0YWxfYmluZGluZycsICctaW1hZScsICc8aW5maWxlLm1hZT4nLCAnLW9tYWUnLCAnPG91dGZpbGUubWFlPic=

> <r_lp_tautomer_probability>
1

> <r_epik_Ionization_Penalty>
0.00204179

> <r_epik_Ionization_Penalty_Charging>
0.00203239

> <r_epik_Ionization_Penalty_Neutral>
9.40205e-06

> <r_epik_State_Penalty>
0.00138983

> <r_epik_Charging_Adjusted_Penalty>
0.00342221

> <i_epik_Tot_Q>
1

> <i_epik_Tot_abs_Q>
1

> <r_epik_Metal_State_Penalty>
-0

> <b_epik_Metal_Only>
0

> <s_lp_Force_Field>
OPLS_2005

> <r_lp_Energy>
35.3096

> <b_lp_Chiralities_Consistent>
1

> <s_lp_Variant>
AV-unprocessed.smi:2171-2

> <Gold.Version>
5.8.1

> <Gold.Id.Protein>
6NUR|6NUR_protein|mol2

> <Gold.PLP.Fitness>
47.7449

> <Gold.PLP.PLP>
-36.0870

> <Gold.PLP.part.hbond>
-3.1870

> <Gold.PLP.part.metal>
0.0000

> <Gold.PLP.part.buried>
-5.0175

> <Gold.PLP.part.nonpolar>
-28.3565

> <Gold.PLP.part.repulsive>
0.3366

> <Gold.PLP.ligand.clash>
0.0000

> <Gold.PLP.ligand.torsion>
0.1745

> <Gold.PLP.Chemscore.Hbond>
4.0000

> <Gold.PLP.Chemscore.CHOScore>
0.0000

> <Gold.PLP.Chemscore.Metal>
0.0000

> <Gold.Chemscore.Hbonds>
donor molecule, donor type, donor heavy atom, donor atom, acceptor molecule, acceptor atom, score
      L1  H    13    39       P1  8028  1.98
      P1  H  7989  7998       L1     1  0.98
      P1  H 10752 10765       L1     8  1.00

> <Gold.PLP.Chemscore.Internal.Correction>
0.0068

> <Gold.Rescore>
     Score         DG    S(hbond)    S(metal)    S(lipo)     H(rot)  DE(clash)    DE(int)     intcor
     20.91     -21.33       2.73        0.00      88.98       1.44       0.01       0.40       ----

> <Gold.Chemscore.Fitness>
20.9120

> <Gold.Chemscore.DG>
-21.3271

> <Gold.Chemscore.ZeroCoef>
-5.4800

> <Gold.Chemscore.Hbond>
2.7321

> <Gold.Chemscore.Metal>
0.0000

> <Gold.Chemscore.Lipo>
88.9818

> <Gold.Chemscore.Internal_Hbond>
0.0000

> <Gold.Chemscore.DEClash>
0.0149

> <Gold.Chemscore.DEInternal>
0.4002

> <Gold.Chemscore.Rot>
1.4410

> <Gold.Chemscore.Internal.Correction>
   9.000000E+99

> <Gold.Chemscore.Hbonds>
donor molecule, donor type, donor heavy atom, donor atom, acceptor molecule, acceptor atom, score
      L1  H    13    39       P1  8028  0.32
      P1  H  7989  7998       L1     1  0.28
      P1  H 10752 10765       L1     8  0.78

> <Gold.Chemscore.Hbond.Weighted>
-9.1252

> <Gold.Chemscore.Metal.Weighted>
-0.0000

> <Gold.Chemscore.Lipo.Weighted>
-10.4109

> <Gold.Chemscore.Internal_Hbond.Weighted>
0.0000

> <Gold.Chemscore.DEClash.Weighted>
0.0149

> <Gold.Chemscore.DEInternal.Weighted>
0.4002

> <Gold.Chemscore.Rot.Weighted>
3.6889

> <Gold.Chemscore.Internal.Correction.Weighted>
   9.000000E+99

> <Gold.Protein.RotatedTorsions>
[ 6907 6896 6895 6894 ] final   53.92 input  -60.11 | X-H torsion
[ 7974 7965 7964 7962 ] final   79.69 input  175.53 | X-H torsion
[ 8008 7997 7996 7995 ] final  -31.04 input   59.86 | X-H torsion
[ 10167 10162 10161 10158 ] final   88.75 input  -65.29 | X-H torsion
[ 10718 10713 10712 10709 ] final   90.54 input   66.30 | X-H torsion
[ 10763 10752 10751 10750 ] final -153.50 input  -60.55 | X-H torsion
[ 11005 11000 10999 10996 ] final -153.46 input  -57.11 | X-H torsion

> <Gold.Protein.ActiveResidues>
 VAL166  LYS551  ARG553  GLY616  TRP617  ASP618  TYR619  PRO620  LYS621  CYS622 
 ASP623  PHE694  ASN695  SER759  ASP760  ASP761  ALA762  ILE779  LEU786  VAL792 
 PHE793  MET794  SER795  GLU796  ALA797  LYS798  CYS799  TRP800  GLU811  SER814 

> <Gold.Protein.RotatedAtoms>
  152.3386  134.7165  160.0269 H   0  0  0  0  0  0  0  0  0  0  0  0  # atno 6907 bound_to 6896
  151.7557  133.3325  159.3412 H   0  0  0  0  0  0  0  0  0  0  0  0  # atno 6908 bound_to 6896
  150.7466  134.6084  159.6117 H   0  0  0  0  0  0  0  0  0  0  0  0  # atno 6909 bound_to 6896
  145.6609  139.2471  143.1923 H   0  0  0  0  0  0  0  0  0  0  0  0  # atno 7974 bound_to 7965
  154.4228  140.1775  156.1503 H   0  0  0  0  0  0  0  0  0  0  0  0  # atno 8008 bound_to 7997
  155.9920  140.3368  155.6738 H   0  0  0  0  0  0  0  0  0  0  0  0  # atno 8009 bound_to 7997
  155.6359  140.0675  157.2625 H   0  0  0  0  0  0  0  0  0  0  0  0  # atno 8010 bound_to 7997
  139.8641  144.6528  150.9024 H   0  0  0  0  0  0  0  0  0  0  0  0  # atno 10167 bound_to 10162
  157.6959  131.0374  150.3593 H   0  0  0  0  0  0  0  0  0  0  0  0  # atno 10718 bound_to 10713
  154.7923  135.3211  154.7748 H   0  0  0  0  0  0  0  0  0  0  0  0  # atno 10763 bound_to 10752
  153.8434  135.6869  153.4804 H   0  0  0  0  0  0  0  0  0  0  0  0  # atno 10764 bound_to 10752
  153.1598  135.4665  154.9697 H   0  0  0  0  0  0  0  0  0  0  0  0  # atno 10765 bound_to 10752
  140.7079  134.3865  157.5201 H   0  0  0  0  0  0  0  0  0  0  0  0  # atno 11005 bound_to 11000
  146.1126  140.7410  142.9496 LP  0  0  0  0  0  0  0  0  0  0  0  0  # atno 17320 bound_to 7965
  144.7089  140.3963  143.7096 LP  0  0  0  0  0  0  0  0  0  0  0  0  # atno 17321 bound_to 7965
  140.7771  143.3719  151.1634 LP  0  0  0  0  0  0  0  0  0  0  0  0  # atno 17342 bound_to 10162
  139.7346  143.9019  152.3030 LP  0  0  0  0  0  0  0  0  0  0  0  0  # atno 17343 bound_to 10162
  156.4032  130.3920  149.6945 LP  0  0  0  0  0  0  0  0  0  0  0  0  # atno 17370 bound_to 10713
  156.4255  130.7789  151.2808 LP  0  0  0  0  0  0  0  0  0  0  0  0  # atno 17371 bound_to 10713
  139.8879  134.8870  156.2502 LP  0  0  0  0  0  0  0  0  0  0  0  0  # atno 17394 bound_to 11000
  141.0109  133.7096  156.1110 LP  0  0  0  0  0  0  0  0  0  0  0  0  # atno 17395 bound_to 11000

$$$$
