AV-unprocessed.smi:1389|AV-procd|sdf|5654|dock10
  -GOLD-   22720 5273D 1   1.00000     0.00000
 Structure written by MMmdl.
 52 54  0  0  0  0  0  0  0  0  4 V2000
  146.6894  138.9952  152.0012 C   0  0  0  0  0  0  0  0  0  0  0  0
  146.6975  138.8949  153.5445 C   0  0  2  0  0  0  0  0  0  0  0  0
  146.1118  137.5443  154.0763 C   0  0  0  0  0  0  0  0  0  0  0  0
  144.7561  137.3283  153.5675 N   0  5  0  0  0  0  0  0  0  0  0  0
  144.3862  136.2945  152.7652 C   0  0  0  0  0  0  0  0  0  0  0  0
  143.4463  136.2597  151.9622 O   0  0  0  0  0  0  0  0  0  0  0  0
  145.1902  135.2280  152.9125 N   0  0  0  0  0  0  0  0  0  0  0  0
  145.1773  134.0072  152.1829 C   0  0  0  0  0  0  0  0  0  0  0  0
  144.1593  133.7372  151.2339 C   0  0  0  0  0  0  0  0  0  0  0  0
  144.1244  132.4931  150.5766 C   0  0  0  0  0  0  0  0  0  0  0  0
  145.0978  131.5300  150.8929 C   0  0  0  0  0  0  0  0  0  0  0  0
  146.0441  131.8118  151.8124 N   0  3  0  0  0  0  0  0  0  0  0  0
  146.1398  132.9962  152.4676 C   0  0  0  0  0  0  0  0  0  0  0  0
  147.1918  133.1532  153.3988 N   0  0  0  0  0  0  0  0  0  0  0  0
  147.0572  132.6478  154.7597 C   0  0  0  0  0  0  0  0  0  0  0  0
  148.4706  132.6801  155.3351 C   0  0  0  0  0  0  0  0  0  0  0  0
  149.3278  132.3429  154.1187 C   0  0  0  0  0  0  0  0  0  0  0  0
  148.5713  132.9855  152.9513 C   0  0  0  0  0  0  0  0  0  0  0  0
  146.1114  140.1436  154.1410 N   0  3  0  0  0  0  0  0  0  0  0  0
  145.6651  140.0935  155.5616 C   0  0  0  0  0  0  0  0  0  0  0  0
  144.8616  141.3593  155.9018 C   0  0  0  0  0  0  0  0  0  0  0  0
  145.6514  142.5138  155.6404 O   0  0  0  0  0  0  0  0  0  0  0  0
  146.0137  142.6163  154.2682 C   0  0  0  0  0  0  0  0  0  0  0  0
  146.8594  141.3985  153.8621 C   0  0  0  0  0  0  0  0  0  0  0  0
  147.2860  138.2083  151.5357 H   0  0  0  0  0  0  0  0  0  0  0  0
  147.1189  139.9433  151.6762 H   0  0  0  0  0  0  0  0  0  0  0  0
  145.6849  138.9343  151.5798 H   0  0  0  0  0  0  0  0  0  0  0  0
  147.7505  138.9226  153.8296 H   0  0  0  0  0  0  0  0  0  0  0  0
  146.7760  136.7275  153.7924 H   0  0  0  0  0  0  0  0  0  0  0  0
  146.1303  137.5549  155.1662 H   0  0  0  0  0  0  0  0  0  0  0  0
  145.9858  135.3684  153.5181 H   0  0  0  0  0  0  0  0  0  0  0  0
  143.3903  134.4634  151.0173 H   0  0  0  0  0  0  0  0  0  0  0  0
  143.3538  132.2783  149.8508 H   0  0  0  0  0  0  0  0  0  0  0  0
  145.1458  130.5477  150.4462 H   0  0  0  0  0  0  0  0  0  0  0  0
  146.3676  133.2572  155.3449 H   0  0  0  0  0  0  0  0  0  0  0  0
  146.6882  131.6212  154.7501 H   0  0  0  0  0  0  0  0  0  0  0  0
  148.7069  133.6845  155.6895 H   0  0  0  0  0  0  0  0  0  0  0  0
  148.6095  131.9848  156.1634 H   0  0  0  0  0  0  0  0  0  0  0  0
  150.3538  132.7012  154.2068 H   0  0  0  0  0  0  0  0  0  0  0  0
  149.3605  131.2610  153.9833 H   0  0  0  0  0  0  0  0  0  0  0  0
  148.6419  132.3758  152.0492 H   0  0  0  0  0  0  0  0  0  0  0  0
  148.9911  133.9677  152.7304 H   0  0  0  0  0  0  0  0  0  0  0  0
  145.0467  139.2145  155.7400 H   0  0  0  0  0  0  0  0  0  0  0  0
  146.5236  140.0252  156.2313 H   0  0  0  0  0  0  0  0  0  0  0  0
  143.9352  141.3993  155.3266 H   0  0  0  0  0  0  0  0  0  0  0  0
  144.5820  141.3543  156.9554 H   0  0  0  0  0  0  0  0  0  0  0  0
  145.1188  142.6935  153.6486 H   0  0  0  0  0  0  0  0  0  0  0  0
  146.5829  143.5342  154.1200 H   0  0  0  0  0  0  0  0  0  0  0  0
  147.8017  141.4101  154.4110 H   0  0  0  0  0  0  0  0  0  0  0  0
  147.1048  141.4621  152.8015 H   0  0  0  0  0  0  0  0  0  0  0  0
  145.2546  140.2591  153.6193 H   0  0  0  0  0  0  0  0  0  0  0  0
  146.7353  131.0917  152.0223 H   0  0  0  0  0  0  0  0  0  0  0  0
  1  2  1  0  0  0  0
  1 25  1  0  0  0  0
  1 26  1  0  0  0  0
  1 27  1  0  0  0  0
  2  3  1  0  0  0  0
  2 19  1  0  0  0  0
  2 28  1  0  0  0  0
  3  4  1  0  0  0  0
  3 29  1  0  0  0  0
  3 30  1  0  0  0  0
  4  5  1  0  0  0  0
  5  6  2  0  0  0  0
  5  7  1  0  0  0  0
  7  8  1  0  0  0  0
  7 31  1  0  0  0  0
  8 13  1  0  0  0  0
  8  9  2  0  0  0  0
  9 10  1  0  0  0  0
  9 32  1  0  0  0  0
 10 11  2  0  0  0  0
 10 33  1  0  0  0  0
 11 12  1  0  0  0  0
 11 34  1  0  0  0  0
 12 13  2  0  0  0  0
 12 52  1  0  0  0  0
 13 14  1  0  0  0  0
 14 18  1  0  0  0  0
 14 15  1  0  0  0  0
 15 16  1  0  0  0  0
 15 35  1  0  0  0  0
 15 36  1  0  0  0  0
 16 17  1  0  0  0  0
 16 37  1  0  0  0  0
 16 38  1  0  0  0  0
 17 18  1  0  0  0  0
 17 39  1  0  0  0  0
 17 40  1  0  0  0  0
 18 41  1  0  0  0  0
 18 42  1  0  0  0  0
 19 24  1  0  0  0  0
 19 20  1  0  0  0  0
 19 51  1  0  0  0  0
 20 21  1  0  0  0  0
 20 43  1  0  0  0  0
 20 44  1  0  0  0  0
 21 22  1  0  0  0  0
 21 45  1  0  0  0  0
 21 46  1  0  0  0  0
 22 23  1  0  0  0  0
 23 24  1  0  0  0  0
 23 47  1  0  0  0  0
 23 48  1  0  0  0  0
 24 49  1  0  0  0  0
 24 50  1  0  0  0  0
M  CHG  1   4  -1
M  CHG  1  12   1
M  CHG  1  19   1
M  END
> <s_m_source_file>
AV-unprocessed.smi

> <i_m_source_file_index>
1389

> <i_lp_mmshare_version>
43012

> <i_f3d_flags>
0

> <s_epik_input>
W0NIMl0xW0NIMl1PW0NIMl1bQ0gyXU4xW0NASF0oW0NIM10pW0NIMl1bTkhdQyg9TylbTkhdYzJbY0hdW2NIXVtjSF1uYzJOM1tDSDJdW0NIMl1bQ0gyXVtDSDJdMw==

> <s_epik_cmdline>
J2VwaWtfcHl0aG9uJywgJy1waCcsICc3LjAnLCAnLXRuJywgJzgnLCAnLW1hJywgJzIwMCcsICctbWV0YWxfYmluZGluZycsICctaW1hZScsICc8aW5maWxlLm1hZT4nLCAnLW9tYWUnLCAnPG91dGZpbGUubWFlPic=

> <r_lp_tautomer_probability>
0.999994

> <r_epik_Ionization_Penalty>
8.58362

> <r_epik_Ionization_Penalty_Charging>
8.58361

> <r_epik_Ionization_Penalty_Neutral>
3.55275e-06

> <r_epik_State_Penalty>
8.57766

> <r_epik_Charging_Adjusted_Penalty>
17.1613

> <i_epik_Tot_Q>
1

> <i_epik_Tot_abs_Q>
3

> <r_epik_Metal_State_Penalty>
4.57399

> <b_epik_Metal_Only>
1

> <s_lp_Force_Field>
OPLS_2005

> <r_lp_Energy>
52.6414

> <b_lp_Chiralities_Consistent>
1

> <s_lp_Variant>
AV-unprocessed.smi:1389-9

> <Gold.Version>
5.8.1

> <Gold.Id.Protein>
6NUR|6NUR_protein|mol2

> <Gold.PLP.Fitness>
39.6711

> <Gold.PLP.PLP>
-35.5464

> <Gold.PLP.part.hbond>
-1.0000

> <Gold.PLP.part.metal>
0.0000

> <Gold.PLP.part.buried>
-5.7933

> <Gold.PLP.part.nonpolar>
-29.7453

> <Gold.PLP.part.repulsive>
1.0443

> <Gold.PLP.ligand.clash>
1.0642

> <Gold.PLP.ligand.torsion>
0.7984

> <Gold.PLP.Chemscore.Hbond>
2.0000

> <Gold.PLP.Chemscore.CHOScore>
0.0000

> <Gold.PLP.Chemscore.Metal>
0.0000

> <Gold.Chemscore.Hbonds>
donor molecule, donor type, donor heavy atom, donor atom, acceptor molecule, acceptor atom, score
      L1  H    19    51       P1 10175  2.00

> <Gold.PLP.Chemscore.Internal.Correction>
0.7858

> <Gold.Rescore>
     Score         DG    S(hbond)    S(metal)    S(lipo)     H(rot)  DE(clash)    DE(int)     intcor
     12.83     -15.07       1.00        0.00      89.11       1.63       0.08       2.16       ----

> <Gold.Chemscore.Fitness>
12.8313

> <Gold.Chemscore.DG>
-15.0666

> <Gold.Chemscore.ZeroCoef>
-5.4800

> <Gold.Chemscore.Hbond>
0.9985

> <Gold.Chemscore.Metal>
0.0000

> <Gold.Chemscore.Lipo>
89.1129

> <Gold.Chemscore.Internal_Hbond>
0.0000

> <Gold.Chemscore.DEClash>
0.0777

> <Gold.Chemscore.DEInternal>
2.1577

> <Gold.Chemscore.Rot>
1.6307

> <Gold.Chemscore.Internal.Correction>
   9.000000E+99

> <Gold.Chemscore.Hbonds>
donor molecule, donor type, donor heavy atom, donor atom, acceptor molecule, acceptor atom, score
      L1  H    19    51       P1 10175  0.99

> <Gold.Chemscore.Hbond.Weighted>
-3.3350

> <Gold.Chemscore.Metal.Weighted>
-0.0000

> <Gold.Chemscore.Lipo.Weighted>
-10.4262

> <Gold.Chemscore.Internal_Hbond.Weighted>
0.0000

> <Gold.Chemscore.DEClash.Weighted>
0.0777

> <Gold.Chemscore.DEInternal.Weighted>
2.1577

> <Gold.Chemscore.Rot.Weighted>
4.1746

> <Gold.Chemscore.Internal.Correction.Weighted>
   9.000000E+99

> <Gold.Protein.RotatedTorsions>
[ 6907 6896 6895 6894 ] final  176.93 input  -60.11 | X-H torsion
[ 7974 7965 7964 7962 ] final -174.61 input  175.53 | X-H torsion
[ 8008 7997 7996 7995 ] final  -56.39 input   59.86 | X-H torsion
[ 10167 10162 10161 10158 ] final    6.74 input  -65.29 | X-H torsion
[ 10718 10713 10712 10709 ] final -178.02 input   66.30 | X-H torsion
[ 10763 10752 10751 10750 ] final   38.52 input  -60.55 | X-H torsion
[ 11005 11000 10999 10996 ] final   72.96 input  -57.11 | X-H torsion

> <Gold.Protein.ActiveResidues>
 VAL166  LYS551  ARG553  GLY616  TRP617  ASP618  TYR619  PRO620  LYS621  CYS622 
 ASP623  PHE694  ASN695  SER759  ASP760  ASP761  ALA762  ILE779  LEU786  VAL792 
 PHE793  MET794  SER795  GLU796  ALA797  LYS798  CYS799  TRP800  GLU811  SER814 

> <Gold.Protein.RotatedAtoms>
  151.7122  133.3312  159.3293 H   0  0  0  0  0  0  0  0  0  0  0  0  # atno 6907 bound_to 6896
  150.7689  134.6522  159.6304 H   0  0  0  0  0  0  0  0  0  0  0  0  # atno 6908 bound_to 6896
  152.3704  134.6744  160.0229 H   0  0  0  0  0  0  0  0  0  0  0  0  # atno 6909 bound_to 6896
  144.7131  140.1446  143.6389 H   0  0  0  0  0  0  0  0  0  0  0  0  # atno 7974 bound_to 7965
  154.4228  140.1131  156.5630 H   0  0  0  0  0  0  0  0  0  0  0  0  # atno 8008 bound_to 7997
  155.6291  140.3495  155.4658 H   0  0  0  0  0  0  0  0  0  0  0  0  # atno 8009 bound_to 7997
  155.9962  140.1189  157.0580 H   0  0  0  0  0  0  0  0  0  0  0  0  # atno 8010 bound_to 7997
  140.6411  143.7772  150.7429 H   0  0  0  0  0  0  0  0  0  0  0  0  # atno 10167 bound_to 10162
  156.8381  130.9677  151.3102 H   0  0  0  0  0  0  0  0  0  0  0  0  # atno 10718 bound_to 10713
  152.9998  135.6247  154.2319 H   0  0  0  0  0  0  0  0  0  0  0  0  # atno 10763 bound_to 10752
  154.2060  135.2802  155.2976 H   0  0  0  0  0  0  0  0  0  0  0  0  # atno 10764 bound_to 10752
  154.5645  135.5695  153.7096 H   0  0  0  0  0  0  0  0  0  0  0  0  # atno 10765 bound_to 10752
  139.9464  134.7305  156.0969 H   0  0  0  0  0  0  0  0  0  0  0  0  # atno 11005 bound_to 11000
  145.9171  139.2522  143.1403 LP  0  0  0  0  0  0  0  0  0  0  0  0  # atno 17320 bound_to 7965
  145.9658  140.8800  143.0188 LP  0  0  0  0  0  0  0  0  0  0  0  0  # atno 17321 bound_to 7965
  140.1403  143.4447  152.2198 LP  0  0  0  0  0  0  0  0  0  0  0  0  # atno 17342 bound_to 10162
  139.5620  144.7412  151.4127 LP  0  0  0  0  0  0  0  0  0  0  0  0  # atno 17343 bound_to 10162
  157.6370  130.8775  149.9378 LP  0  0  0  0  0  0  0  0  0  0  0  0  # atno 17370 bound_to 10713
  156.0896  130.3664  150.0421 LP  0  0  0  0  0  0  0  0  0  0  0  0  # atno 17371 bound_to 10713
  141.1115  133.6641  156.2991 LP  0  0  0  0  0  0  0  0  0  0  0  0  # atno 17394 bound_to 11000
  140.5824  134.5732  157.5482 LP  0  0  0  0  0  0  0  0  0  0  0  0  # atno 17395 bound_to 11000

$$$$
