AV-unprocessed.smi:2445|AV-procd|sdf|9635|dock2
  -GOLD-   2272013273D 1   1.00000     0.00000
 Structure written by MMmdl.
 40 41  0  0  0  0  0  0  0  0  1 V2000
  154.5837  140.4882  161.9864 C   0  0  0  0  0  0  0  0  0  0  0  0
  153.6292  141.5803  161.6415 C   0  0  0  0  0  0  0  0  0  0  0  0
  153.0999  142.5301  162.4798 C   0  0  0  0  0  0  0  0  0  0  0  0
  152.2305  143.4206  161.8462 N   0  0  0  0  0  0  0  0  0  0  0  0
  152.0951  143.1620  160.5424 C   0  0  0  0  0  0  0  0  0  0  0  0
  151.2111  143.9494  159.6231 C   0  0  2  0  0  0  0  0  0  0  0  0
  152.0064  144.6410  158.5069 C   0  0  0  0  0  0  0  0  0  0  0  0
  150.2593  144.9118  160.3685 C   0  0  0  0  0  0  0  0  0  0  0  0
  148.9737  145.0780  159.6962 N   0  0  0  0  0  0  0  0  0  0  0  0
  147.7909  144.6838  160.1862 C   0  0  0  0  0  0  0  0  0  0  0  0
  147.6506  144.0989  161.2600 O   0  0  0  0  0  0  0  0  0  0  0  0
  146.7837  145.0173  159.3681 N   0  0  0  0  0  0  0  0  0  0  0  0
  145.3641  144.7574  159.6094 C   0  0  1  0  0  0  0  0  0  0  0  0
  144.5613  146.0562  159.5336 C   0  0  0  0  0  0  0  0  0  0  0  0
  143.4710  145.7666  158.5050 C   0  0  0  0  0  0  0  0  0  0  0  0
  144.0522  144.7789  157.6716 O   0  0  0  0  0  0  0  0  0  0  0  0
  144.7257  143.8652  158.5237 C   0  0  1  0  0  0  0  0  0  0  0  0
  145.6681  142.9634  157.7101 C   0  0  0  0  0  0  0  0  0  0  0  0
  153.0435  141.7775  160.0109 S   0  0  0  0  0  0  0  0  0  0  0  0
  154.8130  140.4886  163.0522 H   0  0  0  0  0  0  0  0  0  0  0  0
  155.5196  140.6073  161.4404 H   0  0  0  0  0  0  0  0  0  0  0  0
  154.1653  139.5142  161.7323 H   0  0  0  0  0  0  0  0  0  0  0  0
  153.2861  142.6456  163.5373 H   0  0  0  0  0  0  0  0  0  0  0  0
  150.5771  143.2166  159.1219 H   0  0  0  0  0  0  0  0  0  0  0  0
  152.5886  143.9182  157.9343 H   0  0  0  0  0  0  0  0  0  0  0  0
  152.6979  145.3802  158.9128 H   0  0  0  0  0  0  0  0  0  0  0  0
  151.3419  145.1543  157.8117 H   0  0  0  0  0  0  0  0  0  0  0  0
  150.0506  144.5172  161.3635 H   0  0  0  0  0  0  0  0  0  0  0  0
  150.7335  145.8833  160.5166 H   0  0  0  0  0  0  0  0  0  0  0  0
  148.9859  145.5517  158.8047 H   0  0  0  0  0  0  0  0  0  0  0  0
  147.0119  145.4958  158.5090 H   0  0  0  0  0  0  0  0  0  0  0  0
  145.2164  144.2862  160.5827 H   0  0  0  0  0  0  0  0  0  0  0  0
  144.1442  146.3463  160.4983 H   0  0  0  0  0  0  0  0  0  0  0  0
  145.1815  146.8829  159.1832 H   0  0  0  0  0  0  0  0  0  0  0  0
  142.5811  145.3582  158.9867 H   0  0  0  0  0  0  0  0  0  0  0  0
  143.1792  146.6514  157.9390 H   0  0  0  0  0  0  0  0  0  0  0  0
  143.9661  143.2381  158.9944 H   0  0  0  0  0  0  0  0  0  0  0  0
  146.2185  142.2840  158.3614 H   0  0  0  0  0  0  0  0  0  0  0  0
  146.3910  143.5458  157.1380 H   0  0  0  0  0  0  0  0  0  0  0  0
  145.1036  142.3577  157.0012 H   0  0  0  0  0  0  0  0  0  0  0  0
  1  2  1  0  0  0  0
  1 20  1  0  0  0  0
  1 21  1  0  0  0  0
  1 22  1  0  0  0  0
  2 19  1  0  0  0  0
  2  3  2  0  0  0  0
  3  4  1  0  0  0  0
  3 23  1  0  0  0  0
  4  5  2  0  0  0  0
  5  6  1  0  0  0  0
  5 19  1  0  0  0  0
  6  7  1  0  0  0  0
  6  8  1  0  0  0  0
  6 24  1  0  0  0  0
  7 25  1  0  0  0  0
  7 26  1  0  0  0  0
  7 27  1  0  0  0  0
  8  9  1  0  0  0  0
  8 28  1  0  0  0  0
  8 29  1  0  0  0  0
  9 10  1  0  0  0  0
  9 30  1  0  0  0  0
 10 11  2  0  0  0  0
 10 12  1  0  0  0  0
 12 13  1  0  0  0  0
 12 31  1  0  0  0  0
 13 17  1  0  0  0  0
 13 14  1  0  0  0  0
 13 32  1  0  0  0  0
 14 15  1  0  0  0  0
 14 33  1  0  0  0  0
 14 34  1  0  0  0  0
 15 16  1  0  0  0  0
 15 35  1  0  0  0  0
 15 36  1  0  0  0  0
 16 17  1  0  0  0  0
 17 18  1  0  0  0  0
 17 37  1  0  0  0  0
 18 38  1  0  0  0  0
 18 39  1  0  0  0  0
 18 40  1  0  0  0  0
M  END
> <s_m_source_file>
AV-unprocessed.smi

> <i_m_source_file_index>
2445

> <i_lp_mmshare_version>
43012

> <i_f3d_flags>
0

> <s_epik_input>
W0NIM11jMVtjSF1uYyhzMSlbQ0BIXShbQ0gzXSlbQ0gyXVtOSF1DKD1PKVtOSF1bQ0BASF0yW0NIMl1bQ0gyXU9bQ0BIXTJbQ0gzXQ==

> <s_epik_cmdline>
J2VwaWtfcHl0aG9uJywgJy1waCcsICc3LjAnLCAnLXRuJywgJzgnLCAnLW1hJywgJzIwMCcsICctbWV0YWxfYmluZGluZycsICctaW1hZScsICc8aW5maWxlLm1hZT4nLCAnLW9tYWUnLCAnPG91dGZpbGUubWFlPic=

> <r_epik_Ionization_Penalty>
0.000649483

> <r_epik_Ionization_Penalty_Charging>
0

> <r_epik_Ionization_Penalty_Neutral>
0.000649483

> <r_epik_State_Penalty>
0.000379895

> <r_epik_Charging_Adjusted_Penalty>
0.000379895

> <i_epik_Tot_Q>
0

> <i_epik_Tot_abs_Q>
0

> <r_epik_Metal_State_Penalty>
-0

> <b_epik_Metal_Only>
0

> <s_lp_Force_Field>
OPLS_2005

> <r_lp_Energy>
6.16207

> <b_lp_Chiralities_Consistent>
1

> <s_lp_Variant>
AV-unprocessed.smi:2445-3

> <Gold.Version>
5.8.1

> <Gold.Id.Protein>
6NUR|6NUR_protein|mol2

> <Gold.PLP.Fitness>
46.7274

> <Gold.PLP.PLP>
-39.0306

> <Gold.PLP.part.hbond>
-2.9451

> <Gold.PLP.part.metal>
0.0000

> <Gold.PLP.part.buried>
-6.5826

> <Gold.PLP.part.nonpolar>
-31.0161

> <Gold.PLP.part.repulsive>
0.6057

> <Gold.PLP.ligand.clash>
0.0000

> <Gold.PLP.ligand.torsion>
0.5124

> <Gold.PLP.Chemscore.Hbond>
2.8640

> <Gold.PLP.Chemscore.CHOScore>
0.0000

> <Gold.PLP.Chemscore.Metal>
0.0000

> <Gold.Chemscore.Hbonds>
donor molecule, donor type, donor heavy atom, donor atom, acceptor molecule, acceptor atom, score
      L1  H     9    30       P1  8029  0.86
      L1  H    12    31       P1  8029  1.00
      P1  H  6933  6944       L1    11  1.00

> <Gold.PLP.Chemscore.Internal.Correction>
0.1296

> <Gold.Rescore>
     Score         DG    S(hbond)    S(metal)    S(lipo)     H(rot)  DE(clash)    DE(int)     intcor
     22.30     -22.66       2.88        0.00      98.18       1.53       0.01       0.36       ----

> <Gold.Chemscore.Fitness>
22.2956

> <Gold.Chemscore.DG>
-22.6635

> <Gold.Chemscore.ZeroCoef>
-5.4800

> <Gold.Chemscore.Hbond>
2.8802

> <Gold.Chemscore.Metal>
0.0000

> <Gold.Chemscore.Lipo>
98.1802

> <Gold.Chemscore.Internal_Hbond>
0.0000

> <Gold.Chemscore.DEClash>
0.0067

> <Gold.Chemscore.DEInternal>
0.3612

> <Gold.Chemscore.Rot>
1.5325

> <Gold.Chemscore.Internal.Correction>
   9.000000E+99

> <Gold.Chemscore.Hbonds>
donor molecule, donor type, donor heavy atom, donor atom, acceptor molecule, acceptor atom, score
      L1  H     9    30       P1  8029  0.85
      L1  H    12    31       P1  8029  0.95
      P1  H  6933  6944       L1    11  0.95

> <Gold.Chemscore.Hbond.Weighted>
-9.6198

> <Gold.Chemscore.Metal.Weighted>
-0.0000

> <Gold.Chemscore.Lipo.Weighted>
-11.4871

> <Gold.Chemscore.Internal_Hbond.Weighted>
0.0000

> <Gold.Chemscore.DEClash.Weighted>
0.0067

> <Gold.Chemscore.DEInternal.Weighted>
0.3612

> <Gold.Chemscore.Rot.Weighted>
3.9233

> <Gold.Chemscore.Internal.Correction.Weighted>
   9.000000E+99

> <Gold.Protein.RotatedTorsions>
[ 6907 6896 6895 6894 ] final  134.08 input  -60.11 | X-H torsion
[ 7974 7965 7964 7962 ] final  137.04 input  175.53 | X-H torsion
[ 8008 7997 7996 7995 ] final   -5.47 input   59.86 | X-H torsion
[ 10167 10162 10161 10158 ] final  -92.08 input  -65.29 | X-H torsion
[ 10718 10713 10712 10709 ] final  178.50 input   66.30 | X-H torsion
[ 10763 10752 10751 10750 ] final   32.24 input  -60.55 | X-H torsion
[ 11005 11000 10999 10996 ] final  -53.27 input  -57.11 | X-H torsion

> <Gold.Protein.ActiveResidues>
 VAL166  LYS551  ARG553  GLY616  TRP617  ASP618  TYR619  PRO620  LYS621  CYS622 
 ASP623  PHE694  ASN695  SER759  ASP760  ASP761  ALA762  ILE779  LEU786  VAL792 
 PHE793  MET794  SER795  GLU796  ALA797  LYS798  CYS799  TRP800  GLU811  SER814 

> <Gold.Protein.RotatedAtoms>
  152.3151  133.5794  159.5706 H   0  0  0  0  0  0  0  0  0  0  0  0  # atno 6907 bound_to 6896
  150.7342  134.0095  159.3673 H   0  0  0  0  0  0  0  0  0  0  0  0  # atno 6908 bound_to 6896
  151.7984  135.0716  160.0448 H   0  0  0  0  0  0  0  0  0  0  0  0  # atno 6909 bound_to 6896
  144.9506  139.4823  143.5527 H   0  0  0  0  0  0  0  0  0  0  0  0  # atno 7974 bound_to 7965
  154.6036  140.2457  155.7760 H   0  0  0  0  0  0  0  0  0  0  0  0  # atno 8008 bound_to 7997
  156.2327  140.2961  156.0181 H   0  0  0  0  0  0  0  0  0  0  0  0  # atno 8009 bound_to 7997
  155.2169  140.0399  157.2933 H   0  0  0  0  0  0  0  0  0  0  0  0  # atno 8010 bound_to 7997
  140.3384  143.2956  151.9863 H   0  0  0  0  0  0  0  0  0  0  0  0  # atno 10167 bound_to 10162
  156.8896  130.9843  151.3051 H   0  0  0  0  0  0  0  0  0  0  0  0  # atno 10718 bound_to 10713
  153.0273  135.6418  154.1324 H   0  0  0  0  0  0  0  0  0  0  0  0  # atno 10763 bound_to 10752
  154.1051  135.2857  155.3244 H   0  0  0  0  0  0  0  0  0  0  0  0  # atno 10764 bound_to 10752
  154.6371  135.5472  153.7809 H   0  0  0  0  0  0  0  0  0  0  0  0  # atno 10765 bound_to 10752
  141.0967  133.6623  156.4147 H   0  0  0  0  0  0  0  0  0  0  0  0  # atno 11005 bound_to 11000
  146.3319  139.8589  142.8860 LP  0  0  0  0  0  0  0  0  0  0  0  0  # atno 17320 bound_to 7965
  145.2850  141.0150  143.3696 LP  0  0  0  0  0  0  0  0  0  0  0  0  # atno 17321 bound_to 7965
  139.4844  144.6177  151.7314 LP  0  0  0  0  0  0  0  0  0  0  0  0  # atno 17342 bound_to 10162
  140.5332  144.0697  150.6061 LP  0  0  0  0  0  0  0  0  0  0  0  0  # atno 17343 bound_to 10162
  157.6092  130.8570  149.8924 LP  0  0  0  0  0  0  0  0  0  0  0  0  # atno 17370 bound_to 10713
  156.0636  130.3696  150.0928 LP  0  0  0  0  0  0  0  0  0  0  0  0  # atno 17371 bound_to 10713
  140.5122  134.6384  157.5288 LP  0  0  0  0  0  0  0  0  0  0  0  0  # atno 17394 bound_to 11000
  139.9806  134.7143  155.9867 LP  0  0  0  0  0  0  0  0  0  0  0  0  # atno 17395 bound_to 11000

$$$$
