AV-unprocessed.smi:290|AV-procd|sdf|2235|dock8
  -GOLD-   2262022103D 1   1.00000     0.00000
 Structure written by MMmdl.
 59 62  0  0  0  0  0  0  0  0  2 V2000
  152.1964  139.7666  156.7468 C   0  0  0  0  0  0  0  0  0  0  0  0
  151.6851  139.4983  155.3238 C   0  0  2  0  0  0  0  0  0  0  0  0
  150.5960  140.3615  155.0077 O   0  0  0  0  0  0  0  0  0  0  0  0
  149.6730  139.6952  154.1507 C   0  0  0  0  0  0  0  0  0  0  0  0
  150.3252  138.3619  153.7969 C   0  0  0  0  0  0  0  0  0  0  0  0
  151.1812  138.0735  155.0243 C   0  0  1  0  0  0  0  0  0  0  0  0
  152.2592  137.2400  154.6437 O   0  0  0  0  0  0  0  0  0  0  0  0
  150.4021  137.4189  156.1986 C   0  0  0  0  0  0  0  0  0  0  0  0
  149.7192  136.1846  155.8445 N   0  0  0  0  0  0  0  0  0  0  0  0
  148.4513  136.0670  155.3221 C   0  0  0  0  0  0  0  0  0  0  0  0
  148.0566  134.8453  155.0889 N   0  0  0  0  0  0  0  0  0  0  0  0
  149.1260  134.0577  155.4998 C   0  0  0  0  0  0  0  0  0  0  0  0
  149.3795  132.6562  155.5344 C   0  0  0  0  0  0  0  0  0  0  0  0
  148.5313  131.6949  155.1058 N   0  0  0  0  0  0  0  0  0  0  0  0
  147.1381  131.7727  155.5411 C   0  0  0  0  0  0  0  0  0  0  0  0
  146.2764  131.6321  154.2808 C   0  0  0  0  0  0  0  0  0  0  0  0
  147.2369  132.0025  153.1435 C   0  0  2  0  0  0  0  0  0  0  0  0
  146.8460  131.5333  151.7814 N   0  3  1  0  0  0  0  0  0  0  0  0
  146.1221  130.2364  151.8067 C   0  0  0  0  0  0  0  0  0  0  0  0
  146.0982  132.5735  151.0215 C   0  0  0  0  0  0  0  0  0  0  0  0
  145.6876  132.1185  149.6093 C   0  0  0  0  0  0  0  0  0  0  0  0
  144.5982  132.8859  149.1449 O   0  0  0  0  0  0  0  0  0  0  0  0
  148.5755  131.4421  153.6699 C   0  0  2  0  0  0  0  0  0  0  0  0
  148.7809  129.9367  153.4136 C   0  0  0  0  0  0  0  0  0  0  0  0
  150.5840  132.2400  155.9950 N   0  0  0  0  0  0  0  0  0  0  0  0
  151.4829  133.1327  156.4200 C   0  0  0  0  0  0  0  0  0  0  0  0
  151.3846  134.4632  156.4586 N   0  0  0  0  0  0  0  0  0  0  0  0
  150.1804  134.8864  155.9775 C   0  0  0  0  0  0  0  0  0  0  0  0
  147.3022  133.0909  153.1075 H   0  0  0  0  0  0  0  0  0  0  0  0
  149.4075  131.9835  153.2164 H   0  0  0  0  0  0  0  0  0  0  0  0
  153.0050  139.0836  157.0083 H   0  0  0  0  0  0  0  0  0  0  0  0
  151.4055  139.6561  157.4886 H   0  0  0  0  0  0  0  0  0  0  0  0
  152.5810  140.7832  156.8308 H   0  0  0  0  0  0  0  0  0  0  0  0
  152.4814  139.7448  154.6186 H   0  0  0  0  0  0  0  0  0  0  0  0
  148.7426  139.5353  154.6964 H   0  0  0  0  0  0  0  0  0  0  0  0
  149.4486  140.2927  153.2668 H   0  0  0  0  0  0  0  0  0  0  0  0
  149.6061  137.5836  153.5455 H   0  0  0  0  0  0  0  0  0  0  0  0
  150.9609  138.5052  152.9212 H   0  0  0  0  0  0  0  0  0  0  0  0
  152.8384  137.7355  154.0847 H   0  0  0  0  0  0  0  0  0  0  0  0
  151.0769  137.1990  157.0267 H   0  0  0  0  0  0  0  0  0  0  0  0
  149.6576  138.1121  156.5923 H   0  0  0  0  0  0  0  0  0  0  0  0
  147.8279  136.9235  155.1104 H   0  0  0  0  0  0  0  0  0  0  0  0
  146.9241  130.9716  156.2490 H   0  0  0  0  0  0  0  0  0  0  0  0
  146.9233  132.7117  156.0509 H   0  0  0  0  0  0  0  0  0  0  0  0
  145.9442  130.5981  154.1801 H   0  0  0  0  0  0  0  0  0  0  0  0
  145.3918  132.2687  154.3173 H   0  0  0  0  0  0  0  0  0  0  0  0
  145.2099  130.3125  152.3998 H   0  0  0  0  0  0  0  0  0  0  0  0
  146.7388  129.4430  152.2282 H   0  0  0  0  0  0  0  0  0  0  0  0
  145.8466  129.9056  150.8069 H   0  0  0  0  0  0  0  0  0  0  0  0
  145.2154  132.8670  151.5912 H   0  0  0  0  0  0  0  0  0  0  0  0
  146.6974  133.4777  150.9171 H   0  0  0  0  0  0  0  0  0  0  0  0
  146.5078  132.1742  148.8953 H   0  0  0  0  0  0  0  0  0  0  0  0
  145.3748  131.0745  149.6405 H   0  0  0  0  0  0  0  0  0  0  0  0
  144.9294  133.5752  148.5890 H   0  0  0  0  0  0  0  0  0  0  0  0
  148.8516  129.7171  152.3494 H   0  0  0  0  0  0  0  0  0  0  0  0
  147.9701  129.3361  153.8261 H   0  0  0  0  0  0  0  0  0  0  0  0
  149.7084  129.5927  153.8724 H   0  0  0  0  0  0  0  0  0  0  0  0
  152.4155  132.7220  156.7785 H   0  0  0  0  0  0  0  0  0  0  0  0
  147.7089  131.3759  151.2799 H   0  0  0  0  0  0  0  0  0  0  0  0
  1  2  1  0  0  0  0
  1 31  1  0  0  0  0
  1 32  1  0  0  0  0
  1 33  1  0  0  0  0
  2  6  1  0  0  0  0
  2  3  1  0  0  0  0
  2 34  1  0  0  0  0
  3  4  1  0  0  0  0
  4  5  1  0  0  0  0
  4 35  1  0  0  0  0
  4 36  1  0  0  0  0
  5  6  1  0  0  0  0
  5 37  1  0  0  0  0
  5 38  1  0  0  0  0
  6  7  1  0  0  0  0
  6  8  1  0  0  0  0
  7 39  1  0  0  0  0
  8  9  1  0  0  0  0
  8 40  1  0  0  0  0
  8 41  1  0  0  0  0
  9 28  1  0  0  0  0
  9 10  1  0  0  0  0
 10 11  2  0  0  0  0
 10 42  1  0  0  0  0
 11 12  1  0  0  0  0
 12 28  2  0  0  0  0
 12 13  1  0  0  0  0
 13 14  1  0  0  0  0
 13 25  2  0  0  0  0
 14 23  1  0  0  0  0
 14 15  1  0  0  0  0
 15 16  1  0  0  0  0
 15 43  1  0  0  0  0
 15 44  1  0  0  0  0
 16 17  1  0  0  0  0
 16 45  1  0  0  0  0
 16 46  1  0  0  0  0
 17 29  1  0  0  0  0
 17 18  1  0  0  0  0
 17 23  1  0  0  0  0
 18 19  1  0  0  0  0
 18 20  1  0  0  0  0
 18 59  1  0  0  0  0
 19 47  1  0  0  0  0
 19 48  1  0  0  0  0
 19 49  1  0  0  0  0
 20 21  1  0  0  0  0
 20 50  1  0  0  0  0
 20 51  1  0  0  0  0
 21 22  1  0  0  0  0
 21 52  1  0  0  0  0
 21 53  1  0  0  0  0
 22 54  1  0  0  0  0
 23 30  1  0  0  0  0
 23 24  1  0  0  0  0
 24 55  1  0  0  0  0
 24 56  1  0  0  0  0
 24 57  1  0  0  0  0
 25 26  1  0  0  0  0
 26 27  2  0  0  0  0
 26 58  1  0  0  0  0
 27 28  1  0  0  0  0
M  CHG  1  18   1
M  END
> <s_m_source_file>
AV-unprocessed.smi

> <i_m_source_file_index>
290

> <i_lp_mmshare_version>
43012

> <i_f3d_flags>
0

> <s_epik_input>
W0NIMl0xW0NIMl1PW0NAQEhdKFtDSDNdKVtDQEBdMShbT0hdKVtDSDJdbihbY0hdbjIpYyhjMjMpbltjSF1uYzNONFtDSDJdW0NIMl1bQ0BIXShbQ0BIXTRbQ0gzXSlOKFtDSDNdKVtDSDJdW0NIMl1bT0hd

> <s_epik_cmdline>
J2VwaWtfcHl0aG9uJywgJy1waCcsICc3LjAnLCAnLXRuJywgJzgnLCAnLW1hJywgJzIwMCcsICctbWV0YWxfYmluZGluZycsICctaW1hZScsICc8aW5maWxlLm1hZT4nLCAnLW9tYWUnLCAnPG91dGZpbGUubWFlPic=

> <r_lp_tautomer_probability>
1

> <r_epik_Ionization_Penalty>
0.0036983

> <r_epik_Ionization_Penalty_Charging>
0.0032725

> <r_epik_Ionization_Penalty_Neutral>
0.000425798

> <r_epik_State_Penalty>
-0

> <r_epik_Charging_Adjusted_Penalty>
0.0032725

> <i_epik_Tot_Q>
1

> <i_epik_Tot_abs_Q>
1

> <r_epik_Metal_State_Penalty>
-0

> <b_epik_Metal_Only>
0

> <s_lp_Force_Field>
OPLS_2005

> <r_lp_Energy>
64.7341

> <b_lp_Chiralities_Consistent>
1

> <s_lp_Variant>
AV-unprocessed.smi:290-21

> <Gold.Version>
5.8.1

> <Gold.Id.Protein>
6NUR|6NUR_protein|mol2

> <Gold.PLP.Fitness>
46.0552

> <Gold.PLP.PLP>
-40.6879

> <Gold.PLP.part.hbond>
-4.0000

> <Gold.PLP.part.metal>
0.0000

> <Gold.PLP.part.buried>
-3.8458

> <Gold.PLP.part.nonpolar>
-32.4998

> <Gold.PLP.part.repulsive>
0.1388

> <Gold.PLP.ligand.clash>
0.0000

> <Gold.PLP.ligand.torsion>
1.7775

> <Gold.PLP.Chemscore.Hbond>
2.8840

> <Gold.PLP.Chemscore.CHOScore>
0.0000

> <Gold.PLP.Chemscore.Metal>
0.0000

> <Gold.Chemscore.Hbonds>
donor molecule, donor type, donor heavy atom, donor atom, acceptor molecule, acceptor atom, score
      L1  H    18    59       P1 10747  1.00
      L1  H    22    54       P1  7921  1.00
      P1  H  7989  7998       L1     3  0.15
      P1  H 10752 10763       L1     7  0.69

> <Gold.PLP.Chemscore.Internal.Correction>
0.2702

> <Gold.Rescore>
     Score         DG    S(hbond)    S(metal)    S(lipo)     H(rot)  DE(clash)    DE(int)     intcor
     13.50     -15.23       2.51        0.00      91.75       3.67       0.08       1.65       ----

> <Gold.Chemscore.Fitness>
13.5017

> <Gold.Chemscore.DG>
-15.2305

> <Gold.Chemscore.ZeroCoef>
-5.4800

> <Gold.Chemscore.Hbond>
2.5149

> <Gold.Chemscore.Metal>
0.0000

> <Gold.Chemscore.Lipo>
91.7530

> <Gold.Chemscore.Internal_Hbond>
0.0000

> <Gold.Chemscore.DEClash>
0.0837

> <Gold.Chemscore.DEInternal>
1.6450

> <Gold.Chemscore.Rot>
3.6658

> <Gold.Chemscore.Internal.Correction>
   9.000000E+99

> <Gold.Chemscore.Hbonds>
donor molecule, donor type, donor heavy atom, donor atom, acceptor molecule, acceptor atom, score
      L1  H    18    59       P1 10747  1.00
      L1  H    22    54       P1  7921  0.87
      P1  H 10752 10763       L1     7  0.28

> <Gold.Chemscore.Hbond.Weighted>
-8.3998

> <Gold.Chemscore.Metal.Weighted>
-0.0000

> <Gold.Chemscore.Lipo.Weighted>
-10.7351

> <Gold.Chemscore.Internal_Hbond.Weighted>
0.0000

> <Gold.Chemscore.DEClash.Weighted>
0.0837

> <Gold.Chemscore.DEInternal.Weighted>
1.6450

> <Gold.Chemscore.Rot.Weighted>
9.3844

> <Gold.Chemscore.Internal.Correction.Weighted>
   9.000000E+99

> <Gold.Protein.RotatedTorsions>
[ 6907 6896 6895 6894 ] final    8.08 input  -60.11 | X-H torsion
[ 7974 7965 7964 7962 ] final   35.89 input  175.53 | X-H torsion
[ 8008 7997 7996 7995 ] final   -4.67 input   59.86 | X-H torsion
[ 10167 10162 10161 10158 ] final   37.41 input  -65.29 | X-H torsion
[ 10718 10713 10712 10709 ] final   20.99 input   66.30 | X-H torsion
[ 10763 10752 10751 10750 ] final   62.51 input  -60.55 | X-H torsion
[ 11005 11000 10999 10996 ] final  122.46 input  -57.11 | X-H torsion

> <Gold.Protein.ActiveResidues>
 VAL166  LYS551  ARG553  GLY616  TRP617  ASP618  TYR619  PRO620  LYS621  CYS622 
 ASP623  PHE694  ASN695  SER759  ASP760  ASP761  ALA762  ILE779  LEU786  VAL792 
 PHE793  MET794  SER795  GLU796  ALA797  LYS798  CYS799  TRP800  GLU811  SER814 

> <Gold.Protein.RotatedAtoms>
  151.7003  135.0931  160.0249 H   0  0  0  0  0  0  0  0  0  0  0  0  # atno 6907 bound_to 6896
  152.3725  133.6433  159.6106 H   0  0  0  0  0  0  0  0  0  0  0  0  # atno 6908 bound_to 6896
  150.7684  133.9164  159.3426 H   0  0  0  0  0  0  0  0  0  0  0  0  # atno 6909 bound_to 6896
  146.1250  139.6085  142.9264 H   0  0  0  0  0  0  0  0  0  0  0  0  # atno 7974 bound_to 7965
  154.6119  140.2478  155.7658 H   0  0  0  0  0  0  0  0  0  0  0  0  # atno 8008 bound_to 7997
  156.2375  140.2945  156.0303 H   0  0  0  0  0  0  0  0  0  0  0  0  # atno 8009 bound_to 7997
  155.2039  140.0395  157.2912 H   0  0  0  0  0  0  0  0  0  0  0  0  # atno 8010 bound_to 7997
  140.4035  144.1691  150.6135 H   0  0  0  0  0  0  0  0  0  0  0  0  # atno 10167 bound_to 10162
  157.1322  130.6596  149.5955 H   0  0  0  0  0  0  0  0  0  0  0  0  # atno 10718 bound_to 10713
  152.9985  135.5462  154.6205 H   0  0  0  0  0  0  0  0  0  0  0  0  # atno 10763 bound_to 10752
  154.5505  135.2826  155.1015 H   0  0  0  0  0  0  0  0  0  0  0  0  # atno 10764 bound_to 10752
  154.2256  135.6443  153.5211 H   0  0  0  0  0  0  0  0  0  0  0  0  # atno 10765 bound_to 10752
  139.9269  134.9641  156.8112 H   0  0  0  0  0  0  0  0  0  0  0  0  # atno 11005 bound_to 11000
  145.5384  141.0422  143.2344 LP  0  0  0  0  0  0  0  0  0  0  0  0  # atno 17320 bound_to 7965
  144.7634  139.6903  143.7225 LP  0  0  0  0  0  0  0  0  0  0  0  0  # atno 17321 bound_to 7965
  140.4714  143.2411  151.9083 LP  0  0  0  0  0  0  0  0  0  0  0  0  # atno 17342 bound_to 10162
  139.4784  144.5365  151.8590 LP  0  0  0  0  0  0  0  0  0  0  0  0  # atno 17343 bound_to 10162
  155.9805  130.4807  150.6778 LP  0  0  0  0  0  0  0  0  0  0  0  0  # atno 17370 bound_to 10713
  157.4382  131.0858  151.0971 LP  0  0  0  0  0  0  0  0  0  0  0  0  # atno 17371 bound_to 10713
  140.6310  133.9906  155.7662 LP  0  0  0  0  0  0  0  0  0  0  0  0  # atno 17394 bound_to 11000
  141.0833  134.0029  157.3352 LP  0  0  0  0  0  0  0  0  0  0  0  0  # atno 17395 bound_to 11000

$$$$
