AV-unprocessed.smi:21|AV-procd|sdf|126|dock2
  -GOLD-   2262015303D 1   1.00000     0.00000
 Structure written by MMmdl.
 62 65  0  0  0  0  0  0  0  0  2 V2000
  146.2411  130.8857  152.4938 C   0  0  0  0  0  0  0  0  0  0  0  0
  145.6920  132.0066  151.8202 O   0  0  0  0  0  0  0  0  0  0  0  0
  146.3690  133.2231  152.0995 C   0  0  2  0  0  0  0  0  0  0  0  0
  145.9889  133.7406  153.4826 C   0  0  0  0  0  0  0  0  0  0  0  0
  146.2079  135.2633  153.4112 C   0  0  1  0  0  0  0  0  0  0  0  0
  147.5112  135.7356  154.0978 C   0  0  0  0  0  0  0  0  0  0  0  0
  147.4685  137.1248  154.5596 N   0  0  0  0  0  0  0  0  0  0  0  0
  146.3065  137.9430  154.2205 C   0  0  0  0  0  0  0  0  0  0  0  0
  148.6319  137.7487  154.8994 C   0  0  0  0  0  0  0  0  0  0  0  0
  149.7431  136.9921  155.1072 N   0  0  0  0  0  0  0  0  0  0  0  0
  150.8869  137.5533  155.5080 C   0  0  0  0  0  0  0  0  0  0  0  0
  151.1376  138.8358  155.7702 N   0  0  0  0  0  0  0  0  0  0  0  0
  150.0378  139.6082  155.5457 C   0  0  0  0  0  0  0  0  0  0  0  0
  148.7637  139.1571  155.0955 C   0  0  0  0  0  0  0  0  0  0  0  0
  147.9090  140.2465  154.9589 N   0  0  0  0  0  0  0  0  0  0  0  0
  148.6231  141.2718  155.3321 C   0  0  0  0  0  0  0  0  0  0  0  0
  149.9007  140.9710  155.7422 N   0  0  0  0  0  0  0  0  0  0  0  0
  150.8902  141.9026  156.2504 C   0  0  0  0  0  0  0  0  0  0  0  0
  151.0244  141.9201  157.8000 C   0  0  1  0  0  0  0  0  0  0  0  0
  151.5545  140.5458  158.2762 C   0  0  0  0  0  0  0  0  0  0  0  0
  152.9068  140.3609  157.9114 O   0  0  0  0  0  0  0  0  0  0  0  0
  151.9061  143.0914  158.3352 C   0  0  2  0  0  0  0  0  0  0  0  0
  151.8756  143.2841  159.8449 C   0  0  0  0  0  0  0  0  0  0  0  0
  152.4049  144.7014  160.0066 C   0  0  0  0  0  0  0  0  0  0  0  0
  151.8462  145.4147  158.9153 O   0  0  0  0  0  0  0  0  0  0  0  0
  151.5005  144.5047  157.8763 C   0  0  0  0  0  0  0  0  0  0  0  0
  146.2502  135.6002  151.9663 N   0  3  2  0  0  0  0  0  0  0  0  0
  145.4341  136.7730  151.5845 C   0  0  0  0  0  0  0  0  0  0  0  0
  145.9393  134.3783  151.1975 C   0  0  0  0  0  0  0  0  0  0  0  0
  147.4516  133.0883  152.0547 H   0  0  0  0  0  0  0  0  0  0  0  0
  145.3459  135.7549  153.8642 H   0  0  0  0  0  0  0  0  0  0  0  0
  145.6587  129.9960  152.2545 H   0  0  0  0  0  0  0  0  0  0  0  0
  146.2134  131.0229  153.5755 H   0  0  0  0  0  0  0  0  0  0  0  0
  147.2718  130.7003  152.1904 H   0  0  0  0  0  0  0  0  0  0  0  0
  144.9318  133.5428  153.6662 H   0  0  0  0  0  0  0  0  0  0  0  0
  146.5497  133.2477  154.2753 H   0  0  0  0  0  0  0  0  0  0  0  0
  147.7227  135.0837  154.9462 H   0  0  0  0  0  0  0  0  0  0  0  0
  148.3635  135.6065  153.4329 H   0  0  0  0  0  0  0  0  0  0  0  0
  146.0884  138.6490  155.0226 H   0  0  0  0  0  0  0  0  0  0  0  0
  145.4197  137.3258  154.0757 H   0  0  0  0  0  0  0  0  0  0  0  0
  146.4780  138.5076  153.3035 H   0  0  0  0  0  0  0  0  0  0  0  0
  151.7156  136.8755  155.6523 H   0  0  0  0  0  0  0  0  0  0  0  0
  148.2245  142.2758  155.3493 H   0  0  0  0  0  0  0  0  0  0  0  0
  151.8406  141.6398  155.7853 H   0  0  0  0  0  0  0  0  0  0  0  0
  150.6407  142.9012  155.8898 H   0  0  0  0  0  0  0  0  0  0  0  0
  150.0288  142.0401  158.2294 H   0  0  0  0  0  0  0  0  0  0  0  0
  151.4544  140.4442  159.3572 H   0  0  0  0  0  0  0  0  0  0  0  0
  151.0007  139.7243  157.8240 H   0  0  0  0  0  0  0  0  0  0  0  0
  153.4102  140.1953  158.6940 H   0  0  0  0  0  0  0  0  0  0  0  0
  152.9436  142.9163  158.0452 H   0  0  0  0  0  0  0  0  0  0  0  0
  150.8523  143.2234  160.2191 H   0  0  0  0  0  0  0  0  0  0  0  0
  152.4840  142.5583  160.3852 H   0  0  0  0  0  0  0  0  0  0  0  0
  152.1307  145.1491  160.9621 H   0  0  0  0  0  0  0  0  0  0  0  0
  153.4924  144.7160  159.9205 H   0  0  0  0  0  0  0  0  0  0  0  0
  152.0026  144.8005  156.9570 H   0  0  0  0  0  0  0  0  0  0  0  0
  150.4246  144.5764  157.7140 H   0  0  0  0  0  0  0  0  0  0  0  0
  144.3759  136.6009  151.7874 H   0  0  0  0  0  0  0  0  0  0  0  0
  145.5494  136.9867  150.5217 H   0  0  0  0  0  0  0  0  0  0  0  0
  145.7497  137.6558  152.1406 H   0  0  0  0  0  0  0  0  0  0  0  0
  146.4449  134.3739  150.2315 H   0  0  0  0  0  0  0  0  0  0  0  0
  144.8641  134.3217  151.0176 H   0  0  0  0  0  0  0  0  0  0  0  0
  147.2136  135.8242  151.7615 H   0  0  0  0  0  0  0  0  0  0  0  0
  1  2  1  0  0  0  0
  1 32  1  0  0  0  0
  1 33  1  0  0  0  0
  1 34  1  0  0  0  0
  2  3  1  0  0  0  0
  3 30  1  0  0  0  0
  3 29  1  0  0  0  0
  3  4  1  0  0  0  0
  4  5  1  0  0  0  0
  4 35  1  0  0  0  0
  4 36  1  0  0  0  0
  5 31  1  0  0  0  0
  5  6  1  0  0  0  0
  5 27  1  0  0  0  0
  6  7  1  0  0  0  0
  6 37  1  0  0  0  0
  6 38  1  0  0  0  0
  7  8  1  0  0  0  0
  7  9  1  0  0  0  0
  8 39  1  0  0  0  0
  8 40  1  0  0  0  0
  8 41  1  0  0  0  0
  9 14  1  0  0  0  0
  9 10  2  0  0  0  0
 10 11  1  0  0  0  0
 11 12  2  0  0  0  0
 11 42  1  0  0  0  0
 12 13  1  0  0  0  0
 13 17  1  0  0  0  0
 13 14  2  0  0  0  0
 14 15  1  0  0  0  0
 15 16  2  0  0  0  0
 16 17  1  0  0  0  0
 16 43  1  0  0  0  0
 17 18  1  0  0  0  0
 18 19  1  0  0  0  0
 18 44  1  0  0  0  0
 18 45  1  0  0  0  0
 19 20  1  0  0  0  0
 19 22  1  0  0  0  0
 19 46  1  0  0  0  0
 20 21  1  0  0  0  0
 20 47  1  0  0  0  0
 20 48  1  0  0  0  0
 21 49  1  0  0  0  0
 22 26  1  0  0  0  0
 22 23  1  0  0  0  0
 22 50  1  0  0  0  0
 23 24  1  0  0  0  0
 23 51  1  0  0  0  0
 23 52  1  0  0  0  0
 24 25  1  0  0  0  0
 24 53  1  0  0  0  0
 24 54  1  0  0  0  0
 25 26  1  0  0  0  0
 26 55  1  0  0  0  0
 26 56  1  0  0  0  0
 27 28  1  0  0  0  0
 27 29  1  0  0  0  0
 27 62  1  0  0  0  0
 28 57  1  0  0  0  0
 28 58  1  0  0  0  0
 28 59  1  0  0  0  0
 29 60  1  0  0  0  0
 29 61  1  0  0  0  0
M  CHG  1  27   1
M  END
> <s_m_source_file>
AV-unprocessed.smi

> <i_m_source_file_index>
21

> <i_lp_mmshare_version>
43012

> <i_f3d_flags>
0

> <s_epik_input>
W0NIM11PW0NASF0xW0NIMl1bQ0BIXShOKFtDSDNdKVtDSDJdMSlbQ0gyXU4oW0NIM10pYyhuW2NIXW4yKWMoYzIzKW5bY0hdbjNbQ0gyXVtDQEhdKFtDSDJdW09IXSlbQ0BASF00W0NIMl1bQ0gyXU9bQ0gyXTQ=

> <s_epik_cmdline>
J2VwaWtfcHl0aG9uJywgJy1waCcsICc3LjAnLCAnLXRuJywgJzgnLCAnLW1hJywgJzIwMCcsICctbWV0YWxfYmluZGluZycsICctaW1hZScsICc8aW5maWxlLm1hZT4nLCAnLW9tYWUnLCAnPG91dGZpbGUubWFlPic=

> <r_lp_tautomer_probability>
1

> <r_epik_Ionization_Penalty>
0.0157465

> <r_epik_Ionization_Penalty_Charging>
0.015354

> <r_epik_Ionization_Penalty_Neutral>
0.000392529

> <r_epik_State_Penalty>
0.0120612

> <r_epik_Charging_Adjusted_Penalty>
0.0274152

> <i_epik_Tot_Q>
1

> <i_epik_Tot_abs_Q>
1

> <r_epik_Metal_State_Penalty>
0.0121253

> <b_epik_Metal_Only>
0

> <s_lp_Force_Field>
OPLS_2005

> <r_lp_Energy>
57.6991

> <b_lp_Chiralities_Consistent>
1

> <s_lp_Variant>
AV-unprocessed.smi:21-6

> <Gold.Version>
5.8.1

> <Gold.Id.Protein>
6NUR|6NUR_protein|mol2

> <Gold.PLP.Fitness>
48.9141

> <Gold.PLP.PLP>
-38.5914

> <Gold.PLP.part.hbond>
-2.1965

> <Gold.PLP.part.metal>
0.0000

> <Gold.PLP.part.buried>
-3.3600

> <Gold.PLP.part.nonpolar>
-32.9727

> <Gold.PLP.part.repulsive>
0.4451

> <Gold.PLP.ligand.clash>
0.0000

> <Gold.PLP.ligand.torsion>
0.9532

> <Gold.PLP.Chemscore.Hbond>
2.8960

> <Gold.PLP.Chemscore.CHOScore>
0.8649

> <Gold.PLP.Chemscore.Metal>
0.0000

> <Gold.Chemscore.Hbonds>
donor molecule, donor type, donor heavy atom, donor atom, acceptor molecule, acceptor atom, score
      L1  H    27    62       P1  7948  2.00
      P1  H  7997  8009       L1    21  0.52
      L1  C    16    43       P1  8028  0.99

> <Gold.PLP.Chemscore.Internal.Correction>
0.9465

> <Gold.Rescore>
     Score         DG    S(hbond)    S(metal)    S(lipo)     H(rot)  DE(clash)    DE(int)     intcor
      9.67     -14.10       1.43        0.00     100.27       3.08       1.07       3.37       ----

> <Gold.Chemscore.Fitness>
9.6661

> <Gold.Chemscore.DG>
-14.1015

> <Gold.Chemscore.ZeroCoef>
-5.4800

> <Gold.Chemscore.Hbond>
1.4263

> <Gold.Chemscore.Metal>
0.0000

> <Gold.Chemscore.Lipo>
100.2729

> <Gold.Chemscore.Internal_Hbond>
0.0000

> <Gold.Chemscore.DEClash>
1.0688

> <Gold.Chemscore.DEInternal>
3.3666

> <Gold.Chemscore.Rot>
3.0758

> <Gold.Chemscore.Internal.Correction>
   9.000000E+99

> <Gold.Chemscore.Hbonds>
donor molecule, donor type, donor heavy atom, donor atom, acceptor molecule, acceptor atom, score
      L1  H    27    62       P1  7948  1.00
      P1  H  7997  8009       L1    21  0.04

> <Gold.Chemscore.Hbond.Weighted>
-4.7637

> <Gold.Chemscore.Metal.Weighted>
-0.0000

> <Gold.Chemscore.Lipo.Weighted>
-11.7319

> <Gold.Chemscore.Internal_Hbond.Weighted>
0.0000

> <Gold.Chemscore.DEClash.Weighted>
1.0688

> <Gold.Chemscore.DEInternal.Weighted>
3.3666

> <Gold.Chemscore.Rot.Weighted>
7.8741

> <Gold.Chemscore.Internal.Correction.Weighted>
   9.000000E+99

> <Gold.Protein.RotatedTorsions>
[ 6907 6896 6895 6894 ] final -154.93 input  -60.11 | X-H torsion
[ 7974 7965 7964 7962 ] final -165.44 input  175.53 | X-H torsion
[ 8008 7997 7996 7995 ] final  172.29 input   59.86 | X-H torsion
[ 10167 10162 10161 10158 ] final  127.98 input  -65.29 | X-H torsion
[ 10718 10713 10712 10709 ] final   72.87 input   66.30 | X-H torsion
[ 10763 10752 10751 10750 ] final   40.20 input  -60.55 | X-H torsion
[ 11005 11000 10999 10996 ] final  -88.20 input  -57.11 | X-H torsion

> <Gold.Protein.ActiveResidues>
 VAL166  LYS551  ARG553  GLY616  TRP617  ASP618  TYR619  PRO620  LYS621  CYS622 
 ASP623  PHE694  ASN695  SER759  ASP760  ASP761  ALA762  ILE779  LEU786  VAL792 
 PHE793  MET794  SER795  GLU796  ALA797  LYS798  CYS799  TRP800  GLU811  SER814 

> <Gold.Protein.RotatedAtoms>
  151.2649  133.4283  159.2617 H   0  0  0  0  0  0  0  0  0  0  0  0  # atno 6907 bound_to 6896
  151.0497  134.9665  159.8215 H   0  0  0  0  0  0  0  0  0  0  0  0  # atno 6908 bound_to 6896
  152.5380  134.2604  159.8985 H   0  0  0  0  0  0  0  0  0  0  0  0  # atno 6909 bound_to 6896
  144.7270  140.2813  143.6235 H   0  0  0  0  0  0  0  0  0  0  0  0  # atno 7974 bound_to 7965
  156.1188  140.1489  156.9234 H   0  0  0  0  0  0  0  0  0  0  0  0  # atno 8008 bound_to 7997
  154.4820  140.0876  156.7442 H   0  0  0  0  0  0  0  0  0  0  0  0  # atno 8009 bound_to 7997
  155.4465  140.3433  155.4298 H   0  0  0  0  0  0  0  0  0  0  0  0  # atno 8010 bound_to 7997
  139.5550  144.6842  151.4209 H   0  0  0  0  0  0  0  0  0  0  0  0  # atno 10167 bound_to 10162
  157.6521  130.9600  150.0989 H   0  0  0  0  0  0  0  0  0  0  0  0  # atno 10718 bound_to 10713
  152.9943  135.6198  154.2588 H   0  0  0  0  0  0  0  0  0  0  0  0  # atno 10763 bound_to 10752
  154.2324  135.2791  155.2886 H   0  0  0  0  0  0  0  0  0  0  0  0  # atno 10764 bound_to 10752
  154.5438  135.5753  153.6920 H   0  0  0  0  0  0  0  0  0  0  0  0  # atno 10765 bound_to 10752
  141.1605  133.7556  156.9417 H   0  0  0  0  0  0  0  0  0  0  0  0  # atno 11005 bound_to 11000
  145.7946  139.1940  143.2083 LP  0  0  0  0  0  0  0  0  0  0  0  0  # atno 17320 bound_to 7965
  146.0727  140.7851  142.9680 LP  0  0  0  0  0  0  0  0  0  0  0  0  # atno 17321 bound_to 7965
  140.6821  143.8057  150.7136 LP  0  0  0  0  0  0  0  0  0  0  0  0  # atno 17342 bound_to 10162
  140.1514  143.4354  152.2129 LP  0  0  0  0  0  0  0  0  0  0  0  0  # atno 17343 bound_to 10162
  156.1917  130.3655  149.8901 LP  0  0  0  0  0  0  0  0  0  0  0  0  # atno 17370 bound_to 10713
  156.6828  130.8865  151.3578 LP  0  0  0  0  0  0  0  0  0  0  0  0  # atno 17371 bound_to 10713
  140.1317  134.9351  157.2346 LP  0  0  0  0  0  0  0  0  0  0  0  0  # atno 17394 bound_to 11000
  140.2945  134.3202  155.7306 LP  0  0  0  0  0  0  0  0  0  0  0  0  # atno 17395 bound_to 11000

$$$$
