AV-unprocessed.smi:1793|AV-procd|sdf|7226|dock7
  -GOLD-   22720 8473D 1   1.00000     0.00000
 Structure written by MMmdl.
 46 48  0  0  0  0  0  0  0  0  1 V2000
  157.1047  139.6581  161.6579 C   0  0  0  0  0  0  0  0  0  0  0  0
  156.0139  138.5845  161.5336 C   0  0  2  0  0  0  0  0  0  0  0  0
  155.1035  138.9638  160.4545 N   0  0  0  0  0  0  0  0  0  0  0  0
  154.3369  140.0636  160.4227 C   0  0  0  0  0  0  0  0  0  0  0  0
  154.3073  140.9033  161.3222 O   0  0  0  0  0  0  0  0  0  0  0  0
  153.6363  140.1302  159.2788 N   0  0  0  0  0  0  0  0  0  0  0  0
  152.8075  141.1928  158.8213 C   0  0  0  0  0  0  0  0  0  0  0  0
  152.5900  142.3506  159.6076 C   0  0  0  0  0  0  0  0  0  0  0  0
  151.7119  143.3451  159.1439 C   0  0  0  0  0  0  0  0  0  0  0  0
  151.0660  143.1392  157.9139 C   0  0  0  0  0  0  0  0  0  0  0  0
  151.2498  142.0363  157.1611 N   0  0  0  0  0  0  0  0  0  0  0  0
  152.1056  141.0745  157.5869 C   0  0  0  0  0  0  0  0  0  0  0  0
  152.2669  139.9483  156.7464 N   0  0  0  0  0  0  0  0  0  0  0  0
  151.9979  138.6052  157.2490 C   0  0  0  0  0  0  0  0  0  0  0  0
  151.9094  137.7277  156.0039 C   0  0  0  0  0  0  0  0  0  0  0  0
  151.2550  138.6639  154.9928 C   0  0  0  0  0  0  0  0  0  0  0  0
  151.8109  140.0432  155.3625 C   0  0  0  0  0  0  0  0  0  0  0  0
  155.2420  138.4001  162.8570 C   0  0  1  0  0  0  0  0  0  0  0  0
  154.2436  137.2421  162.8758 C   0  0  0  0  0  0  0  0  0  0  0  0
  154.0902  136.9388  164.3558 C   0  0  0  0  0  0  0  0  0  0  0  0
  155.3455  137.5449  164.9902 C   0  0  0  0  0  0  0  0  0  0  0  0
  156.1250  138.0344  163.9061 O   0  0  0  0  0  0  0  0  0  0  0  0
  157.8277  139.3979  162.4313 H   0  0  0  0  0  0  0  0  0  0  0  0
  156.6799  140.6294  161.9141 H   0  0  0  0  0  0  0  0  0  0  0  0
  157.6534  139.7707  160.7223 H   0  0  0  0  0  0  0  0  0  0  0  0
  156.5069  137.6431  161.2839 H   0  0  0  0  0  0  0  0  0  0  0  0
  155.0605  138.3377  159.6638 H   0  0  0  0  0  0  0  0  0  0  0  0
  153.8246  139.4070  158.5999 H   0  0  0  0  0  0  0  0  0  0  0  0
  153.0644  142.4819  160.5680 H   0  0  0  0  0  0  0  0  0  0  0  0
  151.5291  144.2376  159.7238 H   0  0  0  0  0  0  0  0  0  0  0  0
  150.3783  143.8761  157.5264 H   0  0  0  0  0  0  0  0  0  0  0  0
  152.7824  138.2693  157.9273 H   0  0  0  0  0  0  0  0  0  0  0  0
  151.0464  138.5754  157.7816 H   0  0  0  0  0  0  0  0  0  0  0  0
  152.9102  137.4544  155.6666 H   0  0  0  0  0  0  0  0  0  0  0  0
  151.3430  136.8108  156.1690 H   0  0  0  0  0  0  0  0  0  0  0  0
  151.4614  138.3870  153.9585 H   0  0  0  0  0  0  0  0  0  0  0  0
  150.1733  138.6545  155.1335 H   0  0  0  0  0  0  0  0  0  0  0  0
  151.0611  140.8243  155.2288 H   0  0  0  0  0  0  0  0  0  0  0  0
  152.6641  140.2802  154.7265 H   0  0  0  0  0  0  0  0  0  0  0  0
  154.7342  139.3269  163.1323 H   0  0  0  0  0  0  0  0  0  0  0  0
  153.2971  137.4873  162.3928 H   0  0  0  0  0  0  0  0  0  0  0  0
  154.6667  136.3737  162.3687 H   0  0  0  0  0  0  0  0  0  0  0  0
  153.1953  137.4131  164.7601 H   0  0  0  0  0  0  0  0  0  0  0  0
  154.0135  135.8660  164.5363 H   0  0  0  0  0  0  0  0  0  0  0  0
  155.0810  138.3730  165.6490 H   0  0  0  0  0  0  0  0  0  0  0  0
  155.9112  136.8162  165.5710 H   0  0  0  0  0  0  0  0  0  0  0  0
  1  2  1  0  0  0  0
  1 23  1  0  0  0  0
  1 24  1  0  0  0  0
  1 25  1  0  0  0  0
  2  3  1  0  0  0  0
  2 18  1  0  0  0  0
  2 26  1  0  0  0  0
  3  4  1  0  0  0  0
  3 27  1  0  0  0  0
  4  5  2  0  0  0  0
  4  6  1  0  0  0  0
  6  7  1  0  0  0  0
  6 28  1  0  0  0  0
  7 12  1  0  0  0  0
  7  8  2  0  0  0  0
  8  9  1  0  0  0  0
  8 29  1  0  0  0  0
  9 10  2  0  0  0  0
  9 30  1  0  0  0  0
 10 11  1  0  0  0  0
 10 31  1  0  0  0  0
 11 12  2  0  0  0  0
 12 13  1  0  0  0  0
 13 17  1  0  0  0  0
 13 14  1  0  0  0  0
 14 15  1  0  0  0  0
 14 32  1  0  0  0  0
 14 33  1  0  0  0  0
 15 16  1  0  0  0  0
 15 34  1  0  0  0  0
 15 35  1  0  0  0  0
 16 17  1  0  0  0  0
 16 36  1  0  0  0  0
 16 37  1  0  0  0  0
 17 38  1  0  0  0  0
 17 39  1  0  0  0  0
 18 22  1  0  0  0  0
 18 19  1  0  0  0  0
 18 40  1  0  0  0  0
 19 20  1  0  0  0  0
 19 41  1  0  0  0  0
 19 42  1  0  0  0  0
 20 21  1  0  0  0  0
 20 43  1  0  0  0  0
 20 44  1  0  0  0  0
 21 22  1  0  0  0  0
 21 45  1  0  0  0  0
 21 46  1  0  0  0  0
M  END
> <s_m_source_file>
AV-unprocessed.smi

> <i_m_source_file_index>
1793

> <i_lp_mmshare_version>
43012

> <i_f3d_flags>
0

> <s_epik_input>
TzFbQ0gyXVtDSDJdW0NIMl1bQ0BIXTFbQ0BIXShbQ0gzXSlbTkhdQyg9TylbTkhdYzJbY0hdW2NIXVtjSF1uYzJOM1tDSDJdW0NIMl1bQ0gyXVtDSDJdMw==

> <s_epik_cmdline>
J2VwaWtfcHl0aG9uJywgJy1waCcsICc3LjAnLCAnLXRuJywgJzgnLCAnLW1hJywgJzIwMCcsICctbWV0YWxfYmluZGluZycsICctaW1hZScsICc8aW5maWxlLm1hZT4nLCAnLW9tYWUnLCAnPG91dGZpbGUubWFlPic=

> <r_lp_tautomer_probability>
1

> <r_epik_Ionization_Penalty>
0.0992086

> <r_epik_Ionization_Penalty_Charging>
0

> <r_epik_Ionization_Penalty_Neutral>
0.0992086

> <r_epik_State_Penalty>
0.0887141

> <r_epik_Charging_Adjusted_Penalty>
0.0887141

> <i_epik_Tot_Q>
0

> <i_epik_Tot_abs_Q>
0

> <r_epik_Metal_State_Penalty>
0.075945

> <b_epik_Metal_Only>
0

> <s_lp_Force_Field>
OPLS_2005

> <r_lp_Energy>
46.1922

> <b_lp_Chiralities_Consistent>
1

> <s_lp_Variant>
AV-unprocessed.smi:1793-3

> <Gold.Version>
5.8.1

> <Gold.Id.Protein>
6NUR|6NUR_protein|mol2

> <Gold.PLP.Fitness>
39.7814

> <Gold.PLP.PLP>
-34.2101

> <Gold.PLP.part.hbond>
-1.0000

> <Gold.PLP.part.metal>
0.0000

> <Gold.PLP.part.buried>
-2.4927

> <Gold.PLP.part.nonpolar>
-29.7122

> <Gold.PLP.part.repulsive>
0.2003

> <Gold.PLP.ligand.clash>
0.0000

> <Gold.PLP.ligand.torsion>
0.2367

> <Gold.PLP.Chemscore.Hbond>
0.8921

> <Gold.PLP.Chemscore.CHOScore>
1.0000

> <Gold.PLP.Chemscore.Metal>
0.0000

> <Gold.Chemscore.Hbonds>
donor molecule, donor type, donor heavy atom, donor atom, acceptor molecule, acceptor atom, score
      P1  H  7997  8009       L1    13  0.67
      L1  C    10    31       P1  8028  1.00

> <Gold.PLP.Chemscore.Internal.Correction>
0.3683

> <Gold.Rescore>
     Score         DG    S(hbond)    S(metal)    S(lipo)     H(rot)  DE(clash)    DE(int)     intcor
     10.74     -14.08       0.01        0.00     102.92       1.36       0.05       3.29       ----

> <Gold.Chemscore.Fitness>
10.7424

> <Gold.Chemscore.DG>
-14.0775

> <Gold.Chemscore.ZeroCoef>
-5.4800

> <Gold.Chemscore.Hbond>
0.0100

> <Gold.Chemscore.Metal>
0.0000

> <Gold.Chemscore.Lipo>
102.9168

> <Gold.Chemscore.Internal_Hbond>
0.0000

> <Gold.Chemscore.DEClash>
0.0465

> <Gold.Chemscore.DEInternal>
3.2886

> <Gold.Chemscore.Rot>
1.3582

> <Gold.Chemscore.Internal.Correction>
   9.000000E+99

> <Gold.Chemscore.Hbonds>
donor molecule, donor type, donor heavy atom, donor atom, acceptor molecule, acceptor atom, score
      P1  H  7997  8009       L1    13  0.02

> <Gold.Chemscore.Hbond.Weighted>
-0.0333

> <Gold.Chemscore.Metal.Weighted>
-0.0000

> <Gold.Chemscore.Lipo.Weighted>
-12.0413

> <Gold.Chemscore.Internal_Hbond.Weighted>
0.0000

> <Gold.Chemscore.DEClash.Weighted>
0.0465

> <Gold.Chemscore.DEInternal.Weighted>
3.2886

> <Gold.Chemscore.Rot.Weighted>
3.4771

> <Gold.Chemscore.Internal.Correction.Weighted>
   9.000000E+99

> <Gold.Protein.RotatedTorsions>
[ 6907 6896 6895 6894 ] final -103.50 input  -60.11 | X-H torsion
[ 7974 7965 7964 7962 ] final  162.41 input  175.53 | X-H torsion
[ 8008 7997 7996 7995 ] final -165.68 input   59.86 | X-H torsion
[ 10167 10162 10161 10158 ] final  159.86 input  -65.29 | X-H torsion
[ 10718 10713 10712 10709 ] final  -57.73 input   66.30 | X-H torsion
[ 10763 10752 10751 10750 ] final  130.33 input  -60.55 | X-H torsion
[ 11005 11000 10999 10996 ] final   58.24 input  -57.11 | X-H torsion

> <Gold.Protein.ActiveResidues>
 VAL166  LYS551  ARG553  GLY616  TRP617  ASP618  TYR619  PRO620  LYS621  CYS622 
 ASP623  PHE694  ASN695  SER759  ASP760  ASP761  ALA762  ILE779  LEU786  VAL792 
 PHE793  MET794  SER795  GLU796  ALA797  LYS798  CYS799  TRP800  GLU811  SER814 

> <Gold.Protein.RotatedAtoms>
  150.7243  134.0420  159.3768 H   0  0  0  0  0  0  0  0  0  0  0  0  # atno 6907 bound_to 6896
  151.8394  135.0593  160.0455 H   0  0  0  0  0  0  0  0  0  0  0  0  # atno 6908 bound_to 6896
  152.2874  133.5492  159.5572 H   0  0  0  0  0  0  0  0  0  0  0  0  # atno 6909 bound_to 6896
  144.7638  139.8036  143.6323 H   0  0  0  0  0  0  0  0  0  0  0  0  # atno 7974 bound_to 7965
  155.8532  140.0966  157.1661 H   0  0  0  0  0  0  0  0  0  0  0  0  # atno 8008 bound_to 7997
  154.3986  140.1379  156.3932 H   0  0  0  0  0  0  0  0  0  0  0  0  # atno 8009 bound_to 7997
  155.7938  140.3455  155.5366 H   0  0  0  0  0  0  0  0  0  0  0  0  # atno 8010 bound_to 7997
  139.4835  144.4690  151.8602 H   0  0  0  0  0  0  0  0  0  0  0  0  # atno 10167 bound_to 10162
  156.1188  130.4168  150.0481 H   0  0  0  0  0  0  0  0  0  0  0  0  # atno 10718 bound_to 10713
  153.7562  135.3202  155.3329 H   0  0  0  0  0  0  0  0  0  0  0  0  # atno 10763 bound_to 10752
  154.8246  135.4579  154.0883 H   0  0  0  0  0  0  0  0  0  0  0  0  # atno 10764 bound_to 10752
  153.2100  135.6934  153.8209 H   0  0  0  0  0  0  0  0  0  0  0  0  # atno 10765 bound_to 10752
  140.0393  134.5897  155.9403 H   0  0  0  0  0  0  0  0  0  0  0  0  # atno 11005 bound_to 11000
  146.1727  139.4884  142.9917 LP  0  0  0  0  0  0  0  0  0  0  0  0  # atno 17320 bound_to 7965
  145.6534  141.0258  143.1748 LP  0  0  0  0  0  0  0  0  0  0  0  0  # atno 17321 bound_to 7965
  140.4157  144.2310  150.5888 LP  0  0  0  0  0  0  0  0  0  0  0  0  # atno 17342 bound_to 10162
  140.4923  143.2343  151.8801 LP  0  0  0  0  0  0  0  0  0  0  0  0  # atno 17343 bound_to 10162
  156.8424  130.9430  151.3631 LP  0  0  0  0  0  0  0  0  0  0  0  0  # atno 17370 bound_to 10713
  157.6372  130.8776  149.9380 LP  0  0  0  0  0  0  0  0  0  0  0  0  # atno 17371 bound_to 10713
  141.1874  133.6560  156.5280 LP  0  0  0  0  0  0  0  0  0  0  0  0  # atno 17394 bound_to 11000
  140.4096  134.7284  157.4828 LP  0  0  0  0  0  0  0  0  0  0  0  0  # atno 17395 bound_to 11000

$$$$
