AV-unprocessed.smi:500|AV-procd|sdf|2735|dock6
  -GOLD-   2262023193D 1   1.00000     0.00000
 Structure written by MMmdl.
 45 47  0  0  0  0  0  0  0  0  1 V2000
  151.0521  141.8768  157.1143 C   0  0  0  0  0  0  0  0  0  0  0  0
  151.2258  140.4454  157.6270 C   0  0  0  0  0  0  0  0  0  0  0  0
  149.9512  139.9281  157.9789 O   0  0  0  0  0  0  0  0  0  0  0  0
  149.9681  138.5607  158.3612 C   0  0  0  0  0  0  0  0  0  0  0  0
  148.5473  138.0298  158.6159 C   0  0  0  0  0  0  0  0  0  0  0  0
  148.5577  136.6102  158.9310 N   0  0  0  0  0  0  0  0  0  0  0  0
  149.0278  135.5815  158.1789 C   0  0  0  0  0  0  0  0  0  0  0  0
  149.6472  135.7953  156.8193 C   0  0  1  0  0  0  0  0  0  0  0  0
  151.1271  136.1876  156.9195 C   0  0  0  0  0  0  0  0  0  0  0  0
  149.5063  134.5676  156.0381 N   0  0  0  0  0  0  0  0  0  0  0  0
  150.1858  133.4285  156.2482 C   0  0  0  0  0  0  0  0  0  0  0  0
  150.9910  133.2768  157.1666 O   0  0  0  0  0  0  0  0  0  0  0  0
  149.9059  132.3320  155.3025 C   0  0  0  0  0  0  0  0  0  0  0  0
  150.2486  131.0052  155.3266 C   0  0  0  0  0  0  0  0  0  0  0  0
  149.6880  130.4189  154.1583 C   0  0  0  0  0  0  0  0  0  0  0  0
  149.0384  131.4275  153.5065 C   0  0  0  0  0  0  0  0  0  0  0  0
  149.1577  132.5968  154.1921 O   0  0  0  0  0  0  0  0  0  0  0  0
  148.9297  134.3715  158.7379 N   0  0  0  0  0  0  0  0  0  0  0  0
  148.3141  134.6375  159.9441 C   0  0  0  0  0  0  0  0  0  0  0  0
  147.9222  133.7675  160.9865 C   0  0  0  0  0  0  0  0  0  0  0  0
  147.2965  134.2764  162.1434 C   0  0  0  0  0  0  0  0  0  0  0  0
  147.0552  135.6594  162.2745 C   0  0  0  0  0  0  0  0  0  0  0  0
  147.4403  136.5435  161.2483 C   0  0  0  0  0  0  0  0  0  0  0  0
  148.0644  136.0302  160.0954 C   0  0  0  0  0  0  0  0  0  0  0  0
  152.0118  142.3066  156.8270 H   0  0  0  0  0  0  0  0  0  0  0  0
  150.6152  142.5170  157.8812 H   0  0  0  0  0  0  0  0  0  0  0  0
  150.3986  141.9034  156.2418 H   0  0  0  0  0  0  0  0  0  0  0  0
  151.6800  139.8278  156.8507 H   0  0  0  0  0  0  0  0  0  0  0  0
  151.8983  140.4431  158.4849 H   0  0  0  0  0  0  0  0  0  0  0  0
  150.4143  137.9978  157.5408 H   0  0  0  0  0  0  0  0  0  0  0  0
  150.6151  138.4073  159.2254 H   0  0  0  0  0  0  0  0  0  0  0  0
  148.0500  138.5682  159.4214 H   0  0  0  0  0  0  0  0  0  0  0  0
  147.9317  138.1844  157.7295 H   0  0  0  0  0  0  0  0  0  0  0  0
  149.1229  136.5924  156.2921 H   0  0  0  0  0  0  0  0  0  0  0  0
  151.2471  137.1122  157.4845 H   0  0  0  0  0  0  0  0  0  0  0  0
  151.5592  136.3466  155.9310 H   0  0  0  0  0  0  0  0  0  0  0  0
  151.7114  135.4143  157.4196 H   0  0  0  0  0  0  0  0  0  0  0  0
  148.8681  134.5987  155.2563 H   0  0  0  0  0  0  0  0  0  0  0  0
  150.8303  130.5134  156.0923 H   0  0  0  0  0  0  0  0  0  0  0  0
  149.7496  129.3897  153.8370 H   0  0  0  0  0  0  0  0  0  0  0  0
  148.4666  131.4849  152.5919 H   0  0  0  0  0  0  0  0  0  0  0  0
  148.1014  132.7065  160.8950 H   0  0  0  0  0  0  0  0  0  0  0  0
  146.9994  133.6024  162.9334 H   0  0  0  0  0  0  0  0  0  0  0  0
  146.5741  136.0407  163.1633 H   0  0  0  0  0  0  0  0  0  0  0  0
  147.2557  137.6031  161.3453 H   0  0  0  0  0  0  0  0  0  0  0  0
  1  2  1  0  0  0  0
  1 25  1  0  0  0  0
  1 26  1  0  0  0  0
  1 27  1  0  0  0  0
  2  3  1  0  0  0  0
  2 28  1  0  0  0  0
  2 29  1  0  0  0  0
  3  4  1  0  0  0  0
  4  5  1  0  0  0  0
  4 30  1  0  0  0  0
  4 31  1  0  0  0  0
  5  6  1  0  0  0  0
  5 32  1  0  0  0  0
  5 33  1  0  0  0  0
  6 24  1  0  0  0  0
  6  7  1  0  0  0  0
  7  8  1  0  0  0  0
  7 18  2  0  0  0  0
  8  9  1  0  0  0  0
  8 10  1  0  0  0  0
  8 34  1  0  0  0  0
  9 35  1  0  0  0  0
  9 36  1  0  0  0  0
  9 37  1  0  0  0  0
 10 11  1  0  0  0  0
 10 38  1  0  0  0  0
 11 12  2  0  0  0  0
 11 13  1  0  0  0  0
 13 17  1  0  0  0  0
 13 14  2  0  0  0  0
 14 15  1  0  0  0  0
 14 39  1  0  0  0  0
 15 16  2  0  0  0  0
 15 40  1  0  0  0  0
 16 17  1  0  0  0  0
 16 41  1  0  0  0  0
 18 19  1  0  0  0  0
 19 24  2  0  0  0  0
 19 20  1  0  0  0  0
 20 21  2  0  0  0  0
 20 42  1  0  0  0  0
 21 22  1  0  0  0  0
 21 43  1  0  0  0  0
 22 23  2  0  0  0  0
 22 44  1  0  0  0  0
 23 24  1  0  0  0  0
 23 45  1  0  0  0  0
M  END
> <s_m_source_file>
AV-unprocessed.smi

> <i_m_source_file_index>
500

> <i_lp_mmshare_version>
43012

> <i_f3d_flags>
0

> <s_epik_input>
W0NIM11bQ0gyXU9bQ0gyXVtDSDJdbihjKGMxMilbY0hdW2NIXVtjSF1bY0hdMiljKG4xKVtDQEhdKFtDSDNdKVtOSF1DKD1PKWMzW2NIXVtjSF1bY0hdbzM=

> <s_epik_cmdline>
J2VwaWtfcHl0aG9uJywgJy1waCcsICc3LjAnLCAnLXRuJywgJzgnLCAnLW1hJywgJzIwMCcsICctbWV0YWxfYmluZGluZycsICctaW1hZScsICc8aW5maWxlLm1hZT4nLCAnLW9tYWUnLCAnPG91dGZpbGUubWFlPic=

> <r_epik_Ionization_Penalty>
0.109801

> <r_epik_Ionization_Penalty_Charging>
0

> <r_epik_Ionization_Penalty_Neutral>
0.109801

> <r_epik_State_Penalty>
0.0995533

> <r_epik_Charging_Adjusted_Penalty>
0.0995533

> <i_epik_Tot_Q>
0

> <i_epik_Tot_abs_Q>
0

> <r_epik_Metal_State_Penalty>
0.0918163

> <b_epik_Metal_Only>
0

> <s_lp_Force_Field>
OPLS_2005

> <r_lp_Energy>
7.77682

> <b_lp_Chiralities_Consistent>
1

> <s_lp_Variant>
AV-unprocessed.smi:500-2

> <Gold.Version>
5.8.1

> <Gold.Id.Protein>
6NUR|6NUR_protein|mol2

> <Gold.PLP.Fitness>
40.9368

> <Gold.PLP.PLP>
-36.6279

> <Gold.PLP.part.hbond>
-2.0000

> <Gold.PLP.part.metal>
0.0000

> <Gold.PLP.part.buried>
-4.3977

> <Gold.PLP.part.nonpolar>
-29.6954

> <Gold.PLP.part.repulsive>
0.1252

> <Gold.PLP.ligand.clash>
0.0000

> <Gold.PLP.ligand.torsion>
0.8538

> <Gold.PLP.Chemscore.Hbond>
1.0000

> <Gold.PLP.Chemscore.CHOScore>
0.9838

> <Gold.PLP.Chemscore.Metal>
0.0000

> <Gold.Chemscore.Hbonds>
donor molecule, donor type, donor heavy atom, donor atom, acceptor molecule, acceptor atom, score
      P1  H  6896  6907       L1    18  1.00
      L1  C    16    41       P1 10747  1.00

> <Gold.PLP.Chemscore.Internal.Correction>
0.0652

> <Gold.Rescore>
     Score         DG    S(hbond)    S(metal)    S(lipo)     H(rot)  DE(clash)    DE(int)     intcor
     10.06     -12.73       0.57        0.00      87.67       1.92       0.05       2.62       ----

> <Gold.Chemscore.Fitness>
10.0625

> <Gold.Chemscore.DG>
-12.7284

> <Gold.Chemscore.ZeroCoef>
-5.4800

> <Gold.Chemscore.Hbond>
0.5673

> <Gold.Chemscore.Metal>
0.0000

> <Gold.Chemscore.Lipo>
87.6726

> <Gold.Chemscore.Internal_Hbond>
0.0000

> <Gold.Chemscore.DEClash>
0.0454

> <Gold.Chemscore.DEInternal>
2.6205

> <Gold.Chemscore.Rot>
1.9156

> <Gold.Chemscore.Internal.Correction>
   9.000000E+99

> <Gold.Chemscore.Hbonds>
donor molecule, donor type, donor heavy atom, donor atom, acceptor molecule, acceptor atom, score
      P1  H  6896  6907       L1    12  0.23

> <Gold.Chemscore.Hbond.Weighted>
-1.8948

> <Gold.Chemscore.Metal.Weighted>
-0.0000

> <Gold.Chemscore.Lipo.Weighted>
-10.2577

> <Gold.Chemscore.Internal_Hbond.Weighted>
0.0000

> <Gold.Chemscore.DEClash.Weighted>
0.0454

> <Gold.Chemscore.DEInternal.Weighted>
2.6205

> <Gold.Chemscore.Rot.Weighted>
4.9041

> <Gold.Chemscore.Internal.Correction.Weighted>
   9.000000E+99

> <Gold.Protein.RotatedTorsions>
[ 6907 6896 6895 6894 ] final -109.15 input  -60.11 | X-H torsion
[ 7974 7965 7964 7962 ] final -148.32 input  175.53 | X-H torsion
[ 8008 7997 7996 7995 ] final   70.79 input   59.86 | X-H torsion
[ 10167 10162 10161 10158 ] final  -78.13 input  -65.29 | X-H torsion
[ 10718 10713 10712 10709 ] final  138.41 input   66.30 | X-H torsion
[ 10763 10752 10751 10750 ] final  -35.70 input  -60.55 | X-H torsion
[ 11005 11000 10999 10996 ] final  135.75 input  -57.11 | X-H torsion

> <Gold.Protein.ActiveResidues>
 VAL166  LYS551  ARG553  GLY616  TRP617  ASP618  TYR619  PRO620  LYS621  CYS622 
 ASP623  PHE694  ASN695  SER759  ASP760  ASP761  ALA762  ILE779  LEU786  VAL792 
 PHE793  MET794  SER795  GLU796  ALA797  LYS798  CYS799  TRP800  GLU811  SER814 

> <Gold.Protein.RotatedAtoms>
  150.7544  133.9572  159.3504 H   0  0  0  0  0  0  0  0  0  0  0  0  # atno 6907 bound_to 6896
  151.7495  135.0834  160.0338 H   0  0  0  0  0  0  0  0  0  0  0  0  # atno 6908 bound_to 6896
  152.3476  133.6103  159.5957 H   0  0  0  0  0  0  0  0  0  0  0  0  # atno 6909 bound_to 6896
  144.8037  140.5212  143.5690 H   0  0  0  0  0  0  0  0  0  0  0  0  # atno 7974 bound_to 7965
  155.7441  140.3490  155.5118 H   0  0  0  0  0  0  0  0  0  0  0  0  # atno 8008 bound_to 7997
  155.9066  140.1043  157.1332 H   0  0  0  0  0  0  0  0  0  0  0  0  # atno 8009 bound_to 7997
  154.4050  140.1276  156.4491 H   0  0  0  0  0  0  0  0  0  0  0  0  # atno 8010 bound_to 7997
  140.4709  143.2427  151.8206 H   0  0  0  0  0  0  0  0  0  0  0  0  # atno 10167 bound_to 10162
  157.4256  131.1043  151.0306 H   0  0  0  0  0  0  0  0  0  0  0  0  # atno 10718 bound_to 10713
  153.8675  135.6834  153.4777 H   0  0  0  0  0  0  0  0  0  0  0  0  # atno 10763 bound_to 10752
  153.1306  135.4699  154.9340 H   0  0  0  0  0  0  0  0  0  0  0  0  # atno 10764 bound_to 10752
  154.7729  135.3244  154.8101 H   0  0  0  0  0  0  0  0  0  0  0  0  # atno 10765 bound_to 10752
  140.0000  134.9482  157.0050 H   0  0  0  0  0  0  0  0  0  0  0  0  # atno 11005 bound_to 11000
  145.5491  139.1476  143.3404 LP  0  0  0  0  0  0  0  0  0  0  0  0  # atno 17320 bound_to 7965
  146.2324  140.5629  142.8969 LP  0  0  0  0  0  0  0  0  0  0  0  0  # atno 17321 bound_to 7965
  139.4818  144.4893  151.9206 LP  0  0  0  0  0  0  0  0  0  0  0  0  # atno 17342 bound_to 10162
  140.3978  144.2532  150.5895 LP  0  0  0  0  0  0  0  0  0  0  0  0  # atno 17343 bound_to 10162
  157.1220  130.6066  149.5507 LP  0  0  0  0  0  0  0  0  0  0  0  0  # atno 17370 bound_to 10713
  155.9895  130.4943  150.7218 LP  0  0  0  0  0  0  0  0  0  0  0  0  # atno 17371 bound_to 10713
  140.4746  134.1352  155.7208 LP  0  0  0  0  0  0  0  0  0  0  0  0  # atno 17394 bound_to 11000
  141.1634  133.8749  157.1783 LP  0  0  0  0  0  0  0  0  0  0  0  0  # atno 17395 bound_to 11000

$$$$
