AV-unprocessed.smi:1867|AV-procd|sdf|7571|dock3
  -GOLD-   22720 9283D 1   1.00000     0.00000
 Structure written by MMmdl.
 53 56  0  0  0  0  0  0  0  0  3 V2000
  146.3485  137.2077  155.4639 O   0  0  0  0  0  0  0  0  0  0  0  0
  146.9955  136.9094  154.4633 C   0  0  0  0  0  0  0  0  0  0  0  0
  148.1835  137.4499  154.1258 N   0  0  0  0  0  0  0  0  0  0  0  0
  148.9518  138.4197  154.8260 C   0  0  0  0  0  0  0  0  0  0  0  0
  150.3403  138.4596  154.5783 C   0  0  0  0  0  0  0  0  0  0  0  0
  151.1483  139.3945  155.2572 C   0  0  0  0  0  0  0  0  0  0  0  0
  150.5613  140.2792  156.1920 C   0  0  0  0  0  0  0  0  0  0  0  0
  151.3034  141.2408  156.9033 N   0  0  0  0  0  0  0  0  0  0  0  0
  150.7783  142.5725  157.1589 C   0  0  0  0  0  0  0  0  0  0  0  0
  151.8102  143.2223  158.0791 C   0  0  0  0  0  0  0  0  0  0  0  0
  152.3410  142.0415  158.8926 C   0  0  0  0  0  0  0  0  0  0  0  0
  152.2673  140.8547  157.9244 C   0  0  0  0  0  0  0  0  0  0  0  0
  149.2259  140.2012  156.4037 N   0  3  0  0  0  0  0  0  0  0  0  0
  148.4154  139.3230  155.7749 C   0  0  0  0  0  0  0  0  0  0  0  0
  146.5294  136.0061  153.5821 N   0  0  0  0  0  0  0  0  0  0  0  0
  145.2831  135.2386  153.6419 C   0  0  1  0  0  0  0  0  0  0  0  0
  144.1204  135.9402  152.9511 C   0  0  0  0  0  0  0  0  0  0  0  0
  143.1194  134.8054  152.7141 C   0  0  0  0  0  0  0  0  0  0  0  0
  143.9075  133.5525  152.6163 N   0  3  1  0  0  0  0  0  0  0  0  0
  143.6881  132.7982  151.3532 C   0  0  0  0  0  0  0  0  0  0  0  0
  144.7874  131.7461  151.1443 C   0  0  0  0  0  0  0  0  0  0  0  0
  146.1776  132.3981  151.0209 C   0  0  0  0  0  0  0  0  0  0  0  0
  146.2385  133.7877  151.6831 C   0  0  0  0  0  0  0  0  0  0  0  0
  145.3298  133.8690  152.9343 C   0  0  1  0  0  0  0  0  0  0  0  0
  148.5645  137.1565  153.2386 H   0  0  0  0  0  0  0  0  0  0  0  0
  150.7889  137.7822  153.8662 H   0  0  0  0  0  0  0  0  0  0  0  0
  152.2077  139.4247  155.0490 H   0  0  0  0  0  0  0  0  0  0  0  0
  150.6468  143.1392  156.2366 H   0  0  0  0  0  0  0  0  0  0  0  0
  149.8120  142.4935  157.6592 H   0  0  0  0  0  0  0  0  0  0  0  0
  152.6177  143.6518  157.4845 H   0  0  0  0  0  0  0  0  0  0  0  0
  151.3888  144.0149  158.6978 H   0  0  0  0  0  0  0  0  0  0  0  0
  153.3461  142.2093  159.2802 H   0  0  0  0  0  0  0  0  0  0  0  0
  151.6813  141.8606  159.7422 H   0  0  0  0  0  0  0  0  0  0  0  0
  151.9742  139.9438  158.4474 H   0  0  0  0  0  0  0  0  0  0  0  0
  153.2338  140.6829  157.4494 H   0  0  0  0  0  0  0  0  0  0  0  0
  147.3783  139.3789  156.0691 H   0  0  0  0  0  0  0  0  0  0  0  0
  147.1005  135.8482  152.7639 H   0  0  0  0  0  0  0  0  0  0  0  0
  144.9990  135.0902  154.6858 H   0  0  0  0  0  0  0  0  0  0  0  0
  143.7016  136.7545  153.5437 H   0  0  0  0  0  0  0  0  0  0  0  0
  144.4421  136.3532  151.9935 H   0  0  0  0  0  0  0  0  0  0  0  0
  142.4506  134.7131  153.5705 H   0  0  0  0  0  0  0  0  0  0  0  0
  142.4986  134.9938  151.8371 H   0  0  0  0  0  0  0  0  0  0  0  0
  142.7060  132.3256  151.3881 H   0  0  0  0  0  0  0  0  0  0  0  0
  143.6798  133.4815  150.5021 H   0  0  0  0  0  0  0  0  0  0  0  0
  144.7818  131.0560  151.9892 H   0  0  0  0  0  0  0  0  0  0  0  0
  144.5786  131.1443  150.2591 H   0  0  0  0  0  0  0  0  0  0  0  0
  146.9202  131.7371  151.4692 H   0  0  0  0  0  0  0  0  0  0  0  0
  146.4543  132.4950  149.9705 H   0  0  0  0  0  0  0  0  0  0  0  0
  147.2753  134.0151  151.9316 H   0  0  0  0  0  0  0  0  0  0  0  0
  145.9271  134.5452  150.9622 H   0  0  0  0  0  0  0  0  0  0  0  0
  145.6856  133.1201  153.6434 H   0  0  0  0  0  0  0  0  0  0  0  0
  143.5833  132.9571  153.3650 H   0  0  0  0  0  0  0  0  0  0  0  0
  148.8070  140.8399  157.0799 H   0  0  0  0  0  0  0  0  0  0  0  0
  1  2  2  0  0  0  0
  2  3  1  0  0  0  0
  2 15  1  0  0  0  0
  3  4  1  0  0  0  0
  3 25  1  0  0  0  0
  4 14  1  0  0  0  0
  4  5  2  0  0  0  0
  5  6  1  0  0  0  0
  5 26  1  0  0  0  0
  6  7  2  0  0  0  0
  6 27  1  0  0  0  0
  7  8  1  0  0  0  0
  7 13  1  0  0  0  0
  8 12  1  0  0  0  0
  8  9  1  0  0  0  0
  9 10  1  0  0  0  0
  9 28  1  0  0  0  0
  9 29  1  0  0  0  0
 10 11  1  0  0  0  0
 10 30  1  0  0  0  0
 10 31  1  0  0  0  0
 11 12  1  0  0  0  0
 11 32  1  0  0  0  0
 11 33  1  0  0  0  0
 12 34  1  0  0  0  0
 12 35  1  0  0  0  0
 13 14  2  0  0  0  0
 13 53  1  0  0  0  0
 14 36  1  0  0  0  0
 15 16  1  0  0  0  0
 15 37  1  0  0  0  0
 16 24  1  0  0  0  0
 16 17  1  0  0  0  0
 16 38  1  0  0  0  0
 17 18  1  0  0  0  0
 17 39  1  0  0  0  0
 17 40  1  0  0  0  0
 18 19  1  0  0  0  0
 18 41  1  0  0  0  0
 18 42  1  0  0  0  0
 19 24  1  0  0  0  0
 19 20  1  0  0  0  0
 19 52  1  0  0  0  0
 20 21  1  0  0  0  0
 20 43  1  0  0  0  0
 20 44  1  0  0  0  0
 21 22  1  0  0  0  0
 21 45  1  0  0  0  0
 21 46  1  0  0  0  0
 22 23  1  0  0  0  0
 22 47  1  0  0  0  0
 22 48  1  0  0  0  0
 23 24  1  0  0  0  0
 23 49  1  0  0  0  0
 23 50  1  0  0  0  0
 24 51  1  0  0  0  0
M  CHG  1  13   1
M  CHG  1  19   1
M  END
> <s_m_source_file>
AV-unprocessed.smi

> <i_m_source_file_index>
1867

> <i_lp_mmshare_version>
43012

> <i_f3d_flags>
0

> <s_epik_input>
W0NIMl0xW0NIMl1bQ0gyXVtDSDJdW0NASF0oTjEyKVtDQEBIXShbQ0gyXVtDSDJdMilbTkhdQyg9TylbTkhdYzNbY0hdW2NIXWMobltjSF0zKU40W0NIMl1bQ0gyXVtDSDJdW0NIMl00

> <s_epik_cmdline>
J2VwaWtfcHl0aG9uJywgJy1waCcsICc3LjAnLCAnLXRuJywgJzgnLCAnLW1hJywgJzIwMCcsICctbWV0YWxfYmluZGluZycsICctaW1hZScsICc8aW5maWxlLm1hZT4nLCAnLW9tYWUnLCAnPG91dGZpbGUubWFlPic=

> <r_lp_tautomer_probability>
0.999994

> <r_epik_Ionization_Penalty>
1.27347

> <r_epik_Ionization_Penalty_Charging>
1.27345

> <r_epik_Ionization_Penalty_Neutral>
1.96458e-05

> <r_epik_State_Penalty>
1.34393

> <r_epik_Charging_Adjusted_Penalty>
2.61738

> <i_epik_Tot_Q>
2

> <i_epik_Tot_abs_Q>
2

> <r_epik_Metal_State_Penalty>
1.41094

> <b_epik_Metal_Only>
0

> <s_lp_Force_Field>
OPLS_2005

> <r_lp_Energy>
85.1711

> <b_lp_Chiralities_Consistent>
1

> <s_lp_Variant>
AV-unprocessed.smi:1867-12

> <Gold.Version>
5.8.1

> <Gold.Id.Protein>
6NUR|6NUR_protein|mol2

> <Gold.PLP.Fitness>
45.7706

> <Gold.PLP.PLP>
-37.1503

> <Gold.PLP.part.hbond>
-2.9459

> <Gold.PLP.part.metal>
0.0000

> <Gold.PLP.part.buried>
-5.7795

> <Gold.PLP.part.nonpolar>
-29.8666

> <Gold.PLP.part.repulsive>
0.0342

> <Gold.PLP.ligand.clash>
0.0000

> <Gold.PLP.ligand.torsion>
1.4358

> <Gold.PLP.Chemscore.Hbond>
3.7643

> <Gold.PLP.Chemscore.CHOScore>
0.0000

> <Gold.PLP.Chemscore.Metal>
0.0000

> <Gold.Chemscore.Hbonds>
donor molecule, donor type, donor heavy atom, donor atom, acceptor molecule, acceptor atom, score
      L1  H     3    25       P1  7948  1.00
      L1  H    15    37       P1  7948  0.80
      L1  H    19    52       P1 10957  1.85

> <Gold.PLP.Chemscore.Internal.Correction>
0.1990

> <Gold.Rescore>
     Score         DG    S(hbond)    S(metal)    S(lipo)     H(rot)  DE(clash)    DE(int)     intcor
     21.29     -23.78       2.82        0.00      97.88       1.00       0.03       2.46       ----

> <Gold.Chemscore.Fitness>
21.2898

> <Gold.Chemscore.DG>
-23.7807

> <Gold.Chemscore.ZeroCoef>
-5.4800

> <Gold.Chemscore.Hbond>
2.8169

> <Gold.Chemscore.Metal>
0.0000

> <Gold.Chemscore.Lipo>
97.8825

> <Gold.Chemscore.Internal_Hbond>
0.0000

> <Gold.Chemscore.DEClash>
0.0343

> <Gold.Chemscore.DEInternal>
2.4566

> <Gold.Chemscore.Rot>
1.0000

> <Gold.Chemscore.Internal.Correction>
   9.000000E+99

> <Gold.Chemscore.Hbonds>
donor molecule, donor type, donor heavy atom, donor atom, acceptor molecule, acceptor atom, score
      L1  H     3    25       P1  7948  1.00
      L1  H    15    37       P1  7948  0.75
      L1  H    19    52       P1 10957  0.66

> <Gold.Chemscore.Hbond.Weighted>
-9.4084

> <Gold.Chemscore.Metal.Weighted>
-0.0000

> <Gold.Chemscore.Lipo.Weighted>
-11.4523

> <Gold.Chemscore.Internal_Hbond.Weighted>
0.0000

> <Gold.Chemscore.DEClash.Weighted>
0.0343

> <Gold.Chemscore.DEInternal.Weighted>
2.4566

> <Gold.Chemscore.Rot.Weighted>
2.5600

> <Gold.Chemscore.Internal.Correction.Weighted>
   9.000000E+99

> <Gold.Protein.RotatedTorsions>
[ 6907 6896 6895 6894 ] final  124.53 input  -60.11 | X-H torsion
[ 7974 7965 7964 7962 ] final -153.59 input  175.53 | X-H torsion
[ 8008 7997 7996 7995 ] final  -99.01 input   59.86 | X-H torsion
[ 10167 10162 10161 10158 ] final  -42.00 input  -65.29 | X-H torsion
[ 10718 10713 10712 10709 ] final  -26.35 input   66.30 | X-H torsion
[ 10763 10752 10751 10750 ] final  -45.11 input  -60.55 | X-H torsion
[ 11005 11000 10999 10996 ] final  -72.71 input  -57.11 | X-H torsion

> <Gold.Protein.ActiveResidues>
 VAL166  LYS551  ARG553  GLY616  TRP617  ASP618  TYR619  PRO620  LYS621  CYS622 
 ASP623  PHE694  ASN695  SER759  ASP760  ASP761  ALA762  ILE779  LEU786  VAL792 
 PHE793  MET794  SER795  GLU796  ALA797  LYS798  CYS799  TRP800  GLU811  SER814 

> <Gold.Protein.RotatedAtoms>
  152.4070  133.6904  159.6364 H   0  0  0  0  0  0  0  0  0  0  0  0  # atno 6907 bound_to 6896
  150.7954  133.8691  159.3262 H   0  0  0  0  0  0  0  0  0  0  0  0  # atno 6908 bound_to 6896
  151.6443  135.1011  160.0199 H   0  0  0  0  0  0  0  0  0  0  0  0  # atno 6909 bound_to 6896
  144.7733  140.4505  143.5891 H   0  0  0  0  0  0  0  0  0  0  0  0  # atno 7974 bound_to 7965
  154.8090  140.0451  157.1329 H   0  0  0  0  0  0  0  0  0  0  0  0  # atno 8008 bound_to 7997
  154.9390  140.3050  155.5110 H   0  0  0  0  0  0  0  0  0  0  0  0  # atno 8009 bound_to 7997
  156.2970  140.2309  156.4458 H   0  0  0  0  0  0  0  0  0  0  0  0  # atno 8010 bound_to 7997
  140.6984  143.3062  151.3146 H   0  0  0  0  0  0  0  0  0  0  0  0  # atno 10167 bound_to 10162
  156.4523  130.4486  149.6982 H   0  0  0  0  0  0  0  0  0  0  0  0  # atno 10718 bound_to 10713
  154.0231  135.6666  153.4774 H   0  0  0  0  0  0  0  0  0  0  0  0  # atno 10763 bound_to 10752
  153.0572  135.5049  154.8004 H   0  0  0  0  0  0  0  0  0  0  0  0  # atno 10764 bound_to 10752
  154.6925  135.3064  154.9424 H   0  0  0  0  0  0  0  0  0  0  0  0  # atno 10765 bound_to 10752
  141.1612  133.6855  156.7100 H   0  0  0  0  0  0  0  0  0  0  0  0  # atno 11005 bound_to 11000
  145.6260  139.1530  143.2996 LP  0  0  0  0  0  0  0  0  0  0  0  0  # atno 17320 bound_to 7965
  146.1895  140.6367  142.9152 LP  0  0  0  0  0  0  0  0  0  0  0  0  # atno 17321 bound_to 7965
  139.6469  144.0434  152.2597 LP  0  0  0  0  0  0  0  0  0  0  0  0  # atno 17342 bound_to 10162
  139.9958  144.6329  150.7773 LP  0  0  0  0  0  0  0  0  0  0  0  0  # atno 17343 bound_to 10162
  156.3803  130.7575  151.2567 LP  0  0  0  0  0  0  0  0  0  0  0  0  # atno 17370 bound_to 10713
  157.7502  131.0297  150.4107 LP  0  0  0  0  0  0  0  0  0  0  0  0  # atno 17371 bound_to 10713
  140.2894  134.8252  157.4004 LP  0  0  0  0  0  0  0  0  0  0  0  0  # atno 17394 bound_to 11000
  140.1360  134.5033  155.8068 LP  0  0  0  0  0  0  0  0  0  0  0  0  # atno 17395 bound_to 11000

$$$$
