AV-unprocessed.smi:2072|AV-procd|sdf|8446|dock3
  -GOLD-   2272011143D 1   1.00000     0.00000
 Structure written by MMmdl.
 40 42  0  0  0  0  0  0  0  0  2 V2000
  149.5641  134.7539  156.0649 O   0  0  0  0  0  0  0  0  0  0  0  0
  149.2049  135.1306  154.9502 C   0  0  0  0  0  0  0  0  0  0  0  0
  149.4697  136.3305  154.4056 N   0  0  0  0  0  0  0  0  0  0  0  0
  150.1896  137.4248  154.9587 C   0  0  0  0  0  0  0  0  0  0  0  0
  150.9909  137.3557  156.1249 C   0  0  0  0  0  0  0  0  0  0  0  0
  151.6602  138.5158  156.5596 C   0  0  0  0  0  0  0  0  0  0  0  0
  151.5116  139.6994  155.8119 C   0  0  0  0  0  0  0  0  0  0  0  0
  150.7615  139.7776  154.6928 N   0  0  0  0  0  0  0  0  0  0  0  0
  150.1226  138.6616  154.2822 C   0  0  0  0  0  0  0  0  0  0  0  0
  148.4624  134.3785  154.1250 N   0  0  0  0  0  0  0  0  0  0  0  0
  148.0068  133.0176  154.4052 C   0  0  2  0  0  0  0  0  0  0  0  0
  149.1344  131.9729  154.2991 C   0  0  0  0  0  0  0  0  0  0  0  0
  148.4818  130.7655  153.6181 C   0  0  0  0  0  0  0  0  0  0  0  0
  147.5020  131.3865  152.7193 N   0  3  1  0  0  0  0  0  0  0  0  0
  146.4999  130.5235  152.0619 C   0  0  0  0  0  0  0  0  0  0  0  0
  145.7203  131.3750  151.0370 C   0  0  0  0  0  0  0  0  0  0  0  0
  145.1402  132.6619  151.6662 C   0  0  0  0  0  0  0  0  0  0  0  0
  146.2115  133.4524  152.4483 C   0  0  0  0  0  0  0  0  0  0  0  0
  146.8947  132.5090  153.4554 C   0  0  2  0  0  0  0  0  0  0  0  0
  149.0575  136.5048  153.5006 H   0  0  0  0  0  0  0  0  0  0  0  0
  151.1174  136.4447  156.6876 H   0  0  0  0  0  0  0  0  0  0  0  0
  152.2772  138.4974  157.4458 H   0  0  0  0  0  0  0  0  0  0  0  0
  152.0117  140.6062  156.1186 H   0  0  0  0  0  0  0  0  0  0  0  0
  149.5330  138.7620  153.3827 H   0  0  0  0  0  0  0  0  0  0  0  0
  148.2076  134.7698  153.2297 H   0  0  0  0  0  0  0  0  0  0  0  0
  147.6222  132.9852  155.4269 H   0  0  0  0  0  0  0  0  0  0  0  0
  149.9405  132.3482  153.6666 H   0  0  0  0  0  0  0  0  0  0  0  0
  149.5676  131.7209  155.2678 H   0  0  0  0  0  0  0  0  0  0  0  0
  149.1989  130.1475  153.0770 H   0  0  0  0  0  0  0  0  0  0  0  0
  147.9677  130.1415  154.3508 H   0  0  0  0  0  0  0  0  0  0  0  0
  146.9995  129.6944  151.5597 H   0  0  0  0  0  0  0  0  0  0  0  0
  145.8263  130.0949  152.8054 H   0  0  0  0  0  0  0  0  0  0  0  0
  146.3887  131.6504  150.2204 H   0  0  0  0  0  0  0  0  0  0  0  0
  144.9204  130.7833  150.5905 H   0  0  0  0  0  0  0  0  0  0  0  0
  144.7000  133.2921  150.8928 H   0  0  0  0  0  0  0  0  0  0  0  0
  144.3271  132.3940  152.3422 H   0  0  0  0  0  0  0  0  0  0  0  0
  146.9462  133.8712  151.7591 H   0  0  0  0  0  0  0  0  0  0  0  0
  145.7422  134.2910  152.9631 H   0  0  0  0  0  0  0  0  0  0  0  0
  146.1159  132.0929  154.0984 H   0  0  0  0  0  0  0  0  0  0  0  0
  148.0474  131.8043  151.9790 H   0  0  0  0  0  0  0  0  0  0  0  0
  1  2  2  0  0  0  0
  2  3  1  0  0  0  0
  2 10  1  0  0  0  0
  3  4  1  0  0  0  0
  3 20  1  0  0  0  0
  4  9  1  0  0  0  0
  4  5  2  0  0  0  0
  5  6  1  0  0  0  0
  5 21  1  0  0  0  0
  6  7  2  0  0  0  0
  6 22  1  0  0  0  0
  7  8  1  0  0  0  0
  7 23  1  0  0  0  0
  8  9  2  0  0  0  0
  9 24  1  0  0  0  0
 10 11  1  0  0  0  0
 10 25  1  0  0  0  0
 11 19  1  0  0  0  0
 11 12  1  0  0  0  0
 11 26  1  0  0  0  0
 12 13  1  0  0  0  0
 12 27  1  0  0  0  0
 12 28  1  0  0  0  0
 13 14  1  0  0  0  0
 13 29  1  0  0  0  0
 13 30  1  0  0  0  0
 14 19  1  0  0  0  0
 14 15  1  0  0  0  0
 14 40  1  0  0  0  0
 15 16  1  0  0  0  0
 15 31  1  0  0  0  0
 15 32  1  0  0  0  0
 16 17  1  0  0  0  0
 16 33  1  0  0  0  0
 16 34  1  0  0  0  0
 17 18  1  0  0  0  0
 17 35  1  0  0  0  0
 17 36  1  0  0  0  0
 18 19  1  0  0  0  0
 18 37  1  0  0  0  0
 18 38  1  0  0  0  0
 19 39  1  0  0  0  0
M  CHG  1  14   1
M  END
> <s_m_source_file>
AV-unprocessed.smi

> <i_m_source_file_index>
2072

> <i_lp_mmshare_version>
43012

> <i_f3d_flags>
0

> <s_epik_input>
W0NIMl0xW0NIMl1bQ0gyXVtDSDJdW0NASF0oTjEyKVtDQEBIXShbQ0gyXVtDSDJdMilbTkhdQyg9TylbTkhdYzNbY0hdW2NIXVtjSF1uW2NIXTM=

> <s_epik_cmdline>
J2VwaWtfcHl0aG9uJywgJy1waCcsICc3LjAnLCAnLXRuJywgJzgnLCAnLW1hJywgJzIwMCcsICctbWV0YWxfYmluZGluZycsICctaW1hZScsICc8aW5maWxlLm1hZT4nLCAnLW9tYWUnLCAnPG91dGZpbGUubWFlPic=

> <r_lp_tautomer_probability>
1

> <r_epik_Ionization_Penalty>
0.00482425

> <r_epik_Ionization_Penalty_Charging>
0.000974069

> <r_epik_Ionization_Penalty_Neutral>
0.00385018

> <r_epik_State_Penalty>
-0

> <r_epik_Charging_Adjusted_Penalty>
0.000974069

> <i_epik_Tot_Q>
1

> <i_epik_Tot_abs_Q>
1

> <r_epik_Metal_State_Penalty>
-0

> <b_epik_Metal_Only>
0

> <s_lp_Force_Field>
OPLS_2005

> <r_lp_Energy>
44.3747

> <b_lp_Chiralities_Consistent>
1

> <s_lp_Variant>
AV-unprocessed.smi:2072-5

> <Gold.Version>
5.8.1

> <Gold.Id.Protein>
6NUR|6NUR_protein|mol2

> <Gold.PLP.Fitness>
44.7750

> <Gold.PLP.PLP>
-31.1611

> <Gold.PLP.part.hbond>
-4.9341

> <Gold.PLP.part.metal>
0.0000

> <Gold.PLP.part.buried>
-0.9836

> <Gold.PLP.part.nonpolar>
-25.3075

> <Gold.PLP.part.repulsive>
0.1970

> <Gold.PLP.ligand.clash>
0.0000

> <Gold.PLP.ligand.torsion>
0.1995

> <Gold.PLP.Chemscore.Hbond>
3.5040

> <Gold.PLP.Chemscore.CHOScore>
1.1668

> <Gold.PLP.Chemscore.Metal>
0.0000

> <Gold.Chemscore.Hbonds>
donor molecule, donor type, donor heavy atom, donor atom, acceptor molecule, acceptor atom, score
      L1  H     3    20       P1  7948  1.00
      L1  H    10    25       P1  7948  0.62
      L1  H    14    40       P1 10747  0.40
      P1  H  7989  7998       L1     8  1.00
      L1  C     9    24       P1  7957  0.94

> <Gold.PLP.Chemscore.Internal.Correction>
0.0005

> <Gold.Rescore>
     Score         DG    S(hbond)    S(metal)    S(lipo)     H(rot)  DE(clash)    DE(int)     intcor
     18.39     -19.87       2.44        0.00      75.12       1.00       0.03       1.45       ----

> <Gold.Chemscore.Fitness>
18.3871

> <Gold.Chemscore.DG>
-19.8660

> <Gold.Chemscore.ZeroCoef>
-5.4800

> <Gold.Chemscore.Hbond>
2.4422

> <Gold.Chemscore.Metal>
0.0000

> <Gold.Chemscore.Lipo>
75.1199

> <Gold.Chemscore.Internal_Hbond>
0.0000

> <Gold.Chemscore.DEClash>
0.0285

> <Gold.Chemscore.DEInternal>
1.4503

> <Gold.Chemscore.Rot>
1.0000

> <Gold.Chemscore.Internal.Correction>
   9.000000E+99

> <Gold.Chemscore.Hbonds>
donor molecule, donor type, donor heavy atom, donor atom, acceptor molecule, acceptor atom, score
      L1  H     3    20       P1  7948  0.93
      L1  H    10    25       P1  7948  0.50
      L1  H    14    40       P1 10747  0.40
      P1  H  7989  7998       L1     8  0.64

> <Gold.Chemscore.Hbond.Weighted>
-8.1569

> <Gold.Chemscore.Metal.Weighted>
-0.0000

> <Gold.Chemscore.Lipo.Weighted>
-8.7890

> <Gold.Chemscore.Internal_Hbond.Weighted>
0.0000

> <Gold.Chemscore.DEClash.Weighted>
0.0285

> <Gold.Chemscore.DEInternal.Weighted>
1.4503

> <Gold.Chemscore.Rot.Weighted>
2.5600

> <Gold.Chemscore.Internal.Correction.Weighted>
   9.000000E+99

> <Gold.Protein.RotatedTorsions>
[ 6907 6896 6895 6894 ] final   -4.05 input  -60.11 | X-H torsion
[ 7974 7965 7964 7962 ] final  120.06 input  175.53 | X-H torsion
[ 8008 7997 7996 7995 ] final -167.43 input   59.86 | X-H torsion
[ 10167 10162 10161 10158 ] final  173.85 input  -65.29 | X-H torsion
[ 10718 10713 10712 10709 ] final   76.88 input   66.30 | X-H torsion
[ 10763 10752 10751 10750 ] final  -52.64 input  -60.55 | X-H torsion
[ 11005 11000 10999 10996 ] final -129.09 input  -57.11 | X-H torsion

> <Gold.Protein.ActiveResidues>
 VAL166  LYS551  ARG553  GLY616  TRP617  ASP618  TYR619  PRO620  LYS621  CYS622 
 ASP623  PHE694  ASN695  SER759  ASP760  ASP761  ALA762  ILE779  LEU786  VAL792 
 PHE793  MET794  SER795  GLU796  ALA797  LYS798  CYS799  TRP800  GLU811  SER814 

> <Gold.Protein.RotatedAtoms>
  151.5039  135.1063  159.9835 H   0  0  0  0  0  0  0  0  0  0  0  0  # atno 6907 bound_to 6896
  152.4690  133.7983  159.6949 H   0  0  0  0  0  0  0  0  0  0  0  0  # atno 6908 bound_to 6896
  150.8689  133.7471  159.2993 H   0  0  0  0  0  0  0  0  0  0  0  0  # atno 6909 bound_to 6896
  145.1357  139.3299  143.4642 H   0  0  0  0  0  0  0  0  0  0  0  0  # atno 7974 bound_to 7965
  155.8775  140.1003  157.1508 H   0  0  0  0  0  0  0  0  0  0  0  0  # atno 8008 bound_to 7997
  154.4002  140.1335  156.4218 H   0  0  0  0  0  0  0  0  0  0  0  0  # atno 8009 bound_to 7997
  155.7680  140.3461  155.5234 H   0  0  0  0  0  0  0  0  0  0  0  0  # atno 8010 bound_to 7997
  139.5122  144.3214  152.0199 H   0  0  0  0  0  0  0  0  0  0  0  0  # atno 10167 bound_to 10162
  157.6690  130.9795  150.1560 H   0  0  0  0  0  0  0  0  0  0  0  0  # atno 10718 bound_to 10713
  154.1460  135.6497  153.4952 H   0  0  0  0  0  0  0  0  0  0  0  0  # atno 10763 bound_to 10752
  153.0152  135.5327  154.6857 H   0  0  0  0  0  0  0  0  0  0  0  0  # atno 10764 bound_to 10752
  154.6131  135.2956  155.0381 H   0  0  0  0  0  0  0  0  0  0  0  0  # atno 10765 bound_to 10752
  140.9461  134.1128  157.4106 H   0  0  0  0  0  0  0  0  0  0  0  0  # atno 11005 bound_to 11000
  146.3510  140.1374  142.8595 LP  0  0  0  0  0  0  0  0  0  0  0  0  # atno 17320 bound_to 7965
  145.0587  140.9071  143.4952 LP  0  0  0  0  0  0  0  0  0  0  0  0  # atno 17321 bound_to 7965
  140.2656  144.4020  150.6169 LP  0  0  0  0  0  0  0  0  0  0  0  0  # atno 17342 bound_to 10162
  140.6126  143.2170  151.6856 LP  0  0  0  0  0  0  0  0  0  0  0  0  # atno 17343 bound_to 10162
  156.2348  130.3685  149.8404 LP  0  0  0  0  0  0  0  0  0  0  0  0  # atno 17370 bound_to 10713
  156.6220  130.8630  151.3477 LP  0  0  0  0  0  0  0  0  0  0  0  0  # atno 17371 bound_to 10713
  139.8834  135.0051  156.6295 LP  0  0  0  0  0  0  0  0  0  0  0  0  # atno 17394 bound_to 11000
  140.7668  133.8772  155.8460 LP  0  0  0  0  0  0  0  0  0  0  0  0  # atno 17395 bound_to 11000

$$$$
