AV-unprocessed.smi:246|AV-procd|sdf|1883|dock9
  -GOLD-   2262020533D 1   1.00000     0.00000
 Structure written by MMmdl.
 57 60  0  0  0  0  0  0  0  0  1 V2000
  152.2580  144.5259  159.0654 C   0  0  0  0  0  0  0  0  0  0  0  0
  151.9475  144.3117  160.5535 C   0  0  0  0  0  0  0  0  0  0  0  0
  151.6191  142.9588  160.8377 O   0  0  0  0  0  0  0  0  0  0  0  0
  152.6697  142.0358  160.5899 C   0  0  0  0  0  0  0  0  0  0  0  0
  152.2703  141.1391  159.4150 C   0  0  0  0  0  0  0  0  0  0  0  0
  151.4102  141.8661  158.5506 O   0  0  0  0  0  0  0  0  0  0  0  0
  151.2862  141.2907  157.2586 C   0  0  2  0  0  0  0  0  0  0  0  0
  150.4740  142.1986  156.3333 C   0  0  0  0  0  0  0  0  0  0  0  0
  149.9128  141.2374  155.2817 C   0  0  0  0  0  0  0  0  0  0  0  0
  149.8427  139.9456  155.9505 N   0  0  0  0  0  0  0  0  0  0  0  0
  149.0743  138.9179  155.5083 C   0  0  0  0  0  0  0  0  0  0  0  0
  149.1902  137.7167  156.1338 N   0  0  0  0  0  0  0  0  0  0  0  0
  148.4502  136.6745  155.7462 C   0  0  0  0  0  0  0  0  0  0  0  0
  147.5445  136.6131  154.7700 N   0  0  0  0  0  0  0  0  0  0  0  0
  147.4233  137.8119  154.1320 C   0  0  0  0  0  0  0  0  0  0  0  0
  148.1406  139.0061  154.4326 C   0  0  0  0  0  0  0  0  0  0  0  0
  147.7418  140.0170  153.5638 N   0  0  0  0  0  0  0  0  0  0  0  0
  146.8484  139.4547  152.7975 C   0  0  0  0  0  0  0  0  0  0  0  0
  146.5979  138.1297  153.0672 N   0  0  0  0  0  0  0  0  0  0  0  0
  145.6568  137.2652  152.3722 C   0  0  0  0  0  0  0  0  0  0  0  0
  145.7708  135.7764  152.7686 C   0  0  1  0  0  0  0  0  0  0  0  0
  144.7075  135.4479  153.6422 O   0  0  0  0  0  0  0  0  0  0  0  0
  145.7458  134.8069  151.5693 C   0  0  2  0  0  0  0  0  0  0  0  0
  144.4251  134.7782  150.7978 C   0  0  0  0  0  0  0  0  0  0  0  0
  144.4035  133.3908  150.1727 C   0  0  0  0  0  0  0  0  0  0  0  0
  145.5015  132.6283  150.9185 C   0  0  0  0  0  0  0  0  0  0  0  0
  145.8450  133.4632  152.0142 O   0  0  0  0  0  0  0  0  0  0  0  0
  150.4768  139.9887  157.2571 C   0  0  0  0  0  0  0  0  0  0  0  0
  152.2673  141.1235  156.8099 H   0  0  0  0  0  0  0  0  0  0  0  0
  152.4021  145.5851  158.8515 H   0  0  0  0  0  0  0  0  0  0  0  0
  151.4390  144.1697  158.4401 H   0  0  0  0  0  0  0  0  0  0  0  0
  153.1653  144.0057  158.7600 H   0  0  0  0  0  0  0  0  0  0  0  0
  152.7724  144.6534  161.1805 H   0  0  0  0  0  0  0  0  0  0  0  0
  151.0835  144.9197  160.8222 H   0  0  0  0  0  0  0  0  0  0  0  0
  153.6109  142.5419  160.3746 H   0  0  0  0  0  0  0  0  0  0  0  0
  152.8227  141.4197  161.4770 H   0  0  0  0  0  0  0  0  0  0  0  0
  153.1628  140.8426  158.8621 H   0  0  0  0  0  0  0  0  0  0  0  0
  151.7952  140.2283  159.7818 H   0  0  0  0  0  0  0  0  0  0  0  0
  149.6493  142.6466  156.8896 H   0  0  0  0  0  0  0  0  0  0  0  0
  151.0646  143.0063  155.9003 H   0  0  0  0  0  0  0  0  0  0  0  0
  148.9387  141.5707  154.9217 H   0  0  0  0  0  0  0  0  0  0  0  0
  150.5880  141.1579  154.4288 H   0  0  0  0  0  0  0  0  0  0  0  0
  148.6053  135.7591  156.2978 H   0  0  0  0  0  0  0  0  0  0  0  0
  146.3471  139.9927  152.0060 H   0  0  0  0  0  0  0  0  0  0  0  0
  144.6474  137.6265  152.5712 H   0  0  0  0  0  0  0  0  0  0  0  0
  145.8129  137.3807  151.2990 H   0  0  0  0  0  0  0  0  0  0  0  0
  146.7018  135.6395  153.3201 H   0  0  0  0  0  0  0  0  0  0  0  0
  143.9130  135.8322  153.3042 H   0  0  0  0  0  0  0  0  0  0  0  0
  146.5667  135.0152  150.8804 H   0  0  0  0  0  0  0  0  0  0  0  0
  143.5835  134.8807  151.4842 H   0  0  0  0  0  0  0  0  0  0  0  0
  144.3544  135.5762  150.0580 H   0  0  0  0  0  0  0  0  0  0  0  0
  143.4276  132.9218  150.3046 H   0  0  0  0  0  0  0  0  0  0  0  0
  144.6180  133.4265  149.1038 H   0  0  0  0  0  0  0  0  0  0  0  0
  145.1744  131.6457  151.2591 H   0  0  0  0  0  0  0  0  0  0  0  0
  146.3777  132.4946  150.2823 H   0  0  0  0  0  0  0  0  0  0  0  0
  151.1169  139.1229  157.4277 H   0  0  0  0  0  0  0  0  0  0  0  0
  149.7042  140.0115  158.0268 H   0  0  0  0  0  0  0  0  0  0  0  0
  1  2  1  0  0  0  0
  1 30  1  0  0  0  0
  1 31  1  0  0  0  0
  1 32  1  0  0  0  0
  2  3  1  0  0  0  0
  2 33  1  0  0  0  0
  2 34  1  0  0  0  0
  3  4  1  0  0  0  0
  4  5  1  0  0  0  0
  4 35  1  0  0  0  0
  4 36  1  0  0  0  0
  5  6  1  0  0  0  0
  5 37  1  0  0  0  0
  5 38  1  0  0  0  0
  6  7  1  0  0  0  0
  7 29  1  0  0  0  0
  7 28  1  0  0  0  0
  7  8  1  0  0  0  0
  8  9  1  0  0  0  0
  8 39  1  0  0  0  0
  8 40  1  0  0  0  0
  9 10  1  0  0  0  0
  9 41  1  0  0  0  0
  9 42  1  0  0  0  0
 10 11  1  0  0  0  0
 10 28  1  0  0  0  0
 11 16  1  0  0  0  0
 11 12  2  0  0  0  0
 12 13  1  0  0  0  0
 13 14  2  0  0  0  0
 13 43  1  0  0  0  0
 14 15  1  0  0  0  0
 15 19  1  0  0  0  0
 15 16  2  0  0  0  0
 16 17  1  0  0  0  0
 17 18  2  0  0  0  0
 18 19  1  0  0  0  0
 18 44  1  0  0  0  0
 19 20  1  0  0  0  0
 20 21  1  0  0  0  0
 20 45  1  0  0  0  0
 20 46  1  0  0  0  0
 21 22  1  0  0  0  0
 21 23  1  0  0  0  0
 21 47  1  0  0  0  0
 22 48  1  0  0  0  0
 23 27  1  0  0  0  0
 23 24  1  0  0  0  0
 23 49  1  0  0  0  0
 24 25  1  0  0  0  0
 24 50  1  0  0  0  0
 24 51  1  0  0  0  0
 25 26  1  0  0  0  0
 25 52  1  0  0  0  0
 25 53  1  0  0  0  0
 26 27  1  0  0  0  0
 26 54  1  0  0  0  0
 26 55  1  0  0  0  0
 28 56  1  0  0  0  0
 28 57  1  0  0  0  0
M  END
> <s_m_source_file>
AV-unprocessed.smi

> <i_m_source_file_index>
246

> <i_lp_mmshare_version>
43012

> <i_f3d_flags>
0

> <s_epik_input>
W0NIM11bQ0gyXU9bQ0gyXVtDSDJdT1tDQEhdMVtDSDJdW0NIMl1OKFtDSDJdMSljKG5bY0hdbjIpYyhjMjMpbltjSF1uM1tDSDJdW0NASF0oW09IXSlbQ0BASF00W0NIMl1bQ0gyXVtDSDJdTzQ=

> <s_epik_cmdline>
J2VwaWtfcHl0aG9uJywgJy1waCcsICc3LjAnLCAnLXRuJywgJzgnLCAnLW1hJywgJzIwMCcsICctbWV0YWxfYmluZGluZycsICctaW1hZScsICc8aW5maWxlLm1hZT4nLCAnLW9tYWUnLCAnPG91dGZpbGUubWFlPic=

> <r_lp_tautomer_probability>
1

> <r_epik_Ionization_Penalty>
0.0024631

> <r_epik_Ionization_Penalty_Charging>
0

> <r_epik_Ionization_Penalty_Neutral>
0.0024631

> <r_epik_State_Penalty>
0.00162428

> <r_epik_Charging_Adjusted_Penalty>
0.00162428

> <i_epik_Tot_Q>
0

> <i_epik_Tot_abs_Q>
0

> <r_epik_Metal_State_Penalty>
-0

> <b_epik_Metal_Only>
0

> <s_lp_Force_Field>
OPLS_2005

> <r_lp_Energy>
48.0332

> <b_lp_Chiralities_Consistent>
1

> <s_lp_Variant>
AV-unprocessed.smi:246-4

> <Gold.Version>
5.8.1

> <Gold.Id.Protein>
6NUR|6NUR_protein|mol2

> <Gold.PLP.Fitness>
41.8134

> <Gold.PLP.PLP>
-41.9503

> <Gold.PLP.part.hbond>
-0.6202

> <Gold.PLP.part.metal>
0.0000

> <Gold.PLP.part.buried>
-4.1414

> <Gold.PLP.part.nonpolar>
-39.1513

> <Gold.PLP.part.repulsive>
0.5949

> <Gold.PLP.ligand.clash>
0.0000

> <Gold.PLP.ligand.torsion>
1.4777

> <Gold.PLP.Chemscore.Hbond>
0.0000

> <Gold.PLP.Chemscore.CHOScore>
0.8130

> <Gold.PLP.Chemscore.Metal>
0.0000

> <Gold.Chemscore.Hbonds>
donor molecule, donor type, donor heavy atom, donor atom, acceptor molecule, acceptor atom, score
      P1  H  6933  6945       L1     3  0.01
      L1  C    18    44       P1 10175  0.35

> <Gold.PLP.Chemscore.Internal.Correction>
0.3795

> <Gold.Rescore>
     Score         DG    S(hbond)    S(metal)    S(lipo)     H(rot)  DE(clash)    DE(int)     intcor
      6.07     -10.31       0.00        0.00     109.20       3.10       0.28       3.97       ----

> <Gold.Chemscore.Fitness>
6.0728

> <Gold.Chemscore.DG>
-10.3135

> <Gold.Chemscore.ZeroCoef>
-5.4800

> <Gold.Chemscore.Hbond>
0.0000

> <Gold.Chemscore.Metal>
0.0000

> <Gold.Chemscore.Lipo>
109.1980

> <Gold.Chemscore.Internal_Hbond>
0.0000

> <Gold.Chemscore.DEClash>
0.2754

> <Gold.Chemscore.DEInternal>
3.9653

> <Gold.Chemscore.Rot>
3.1026

> <Gold.Chemscore.Internal.Correction>
   9.000000E+99

> <Gold.Chemscore.Hbonds>
donor molecule, donor type, donor heavy atom, donor atom, acceptor molecule, acceptor atom, score
      P1  H  6933  6945       L1     3  0.02

> <Gold.Chemscore.Hbond.Weighted>
-0.0000

> <Gold.Chemscore.Metal.Weighted>
-0.0000

> <Gold.Chemscore.Lipo.Weighted>
-12.7762

> <Gold.Chemscore.Internal_Hbond.Weighted>
0.0000

> <Gold.Chemscore.DEClash.Weighted>
0.2754

> <Gold.Chemscore.DEInternal.Weighted>
3.9653

> <Gold.Chemscore.Rot.Weighted>
7.9426

> <Gold.Chemscore.Internal.Correction.Weighted>
   9.000000E+99

> <Gold.Protein.RotatedTorsions>
[ 6907 6896 6895 6894 ] final   13.64 input  -60.11 | X-H torsion
[ 7974 7965 7964 7962 ] final -121.58 input  175.53 | X-H torsion
[ 8008 7997 7996 7995 ] final  -77.54 input   59.86 | X-H torsion
[ 10167 10162 10161 10158 ] final  -25.33 input  -65.29 | X-H torsion
[ 10718 10713 10712 10709 ] final -128.87 input   66.30 | X-H torsion
[ 10763 10752 10751 10750 ] final  140.66 input  -60.55 | X-H torsion
[ 11005 11000 10999 10996 ] final -151.54 input  -57.11 | X-H torsion

> <Gold.Protein.ActiveResidues>
 VAL166  LYS551  ARG553  GLY616  TRP617  ASP618  TYR619  PRO620  LYS621  CYS622 
 ASP623  PHE694  ASN695  SER759  ASP760  ASP761  ALA762  ILE779  LEU786  VAL792 
 PHE793  MET794  SER795  GLU796  ALA797  LYS798  CYS799  TRP800  GLU811  SER814 

> <Gold.Protein.RotatedAtoms>
  151.7895  135.0740  160.0384 H   0  0  0  0  0  0  0  0  0  0  0  0  # atno 6907 bound_to 6896
  152.3167  133.5805  159.5725 H   0  0  0  0  0  0  0  0  0  0  0  0  # atno 6908 bound_to 6896
  150.7348  133.9989  159.3673 H   0  0  0  0  0  0  0  0  0  0  0  0  # atno 6909 bound_to 6896
  145.0388  140.8127  143.4279 H   0  0  0  0  0  0  0  0  0  0  0  0  # atno 7974 bound_to 7965
  154.5605  140.0709  156.8812 H   0  0  0  0  0  0  0  0  0  0  0  0  # atno 8008 bound_to 7997
  155.2819  140.3372  155.4239 H   0  0  0  0  0  0  0  0  0  0  0  0  # atno 8009 bound_to 7997
  156.2038  140.1732  156.7828 H   0  0  0  0  0  0  0  0  0  0  0  0  # atno 8010 bound_to 7997
  140.7286  143.4274  151.0855 H   0  0  0  0  0  0  0  0  0  0  0  0  # atno 10167 bound_to 10162
  156.1992  130.6846  151.0518 H   0  0  0  0  0  0  0  0  0  0  0  0  # atno 10718 bound_to 10713
  153.9263  135.2995  155.3447 H   0  0  0  0  0  0  0  0  0  0  0  0  # atno 10763 bound_to 10752
  154.7550  135.4962  153.9360 H   0  0  0  0  0  0  0  0  0  0  0  0  # atno 10764 bound_to 10752
  153.1115  135.6760  153.9596 H   0  0  0  0  0  0  0  0  0  0  0  0  # atno 10765 bound_to 10752
  140.7285  134.3647  157.5171 H   0  0  0  0  0  0  0  0  0  0  0  0  # atno 11005 bound_to 11000
  145.1675  139.2423  143.5359 LP  0  0  0  0  0  0  0  0  0  0  0  0  # atno 17320 bound_to 7965
  146.3507  140.1417  142.8594 LP  0  0  0  0  0  0  0  0  0  0  0  0  # atno 17321 bound_to 7965
  139.7927  143.8195  152.3154 LP  0  0  0  0  0  0  0  0  0  0  0  0  # atno 17342 bound_to 10162
  139.8185  144.7306  150.9604 LP  0  0  0  0  0  0  0  0  0  0  0  0  # atno 17343 bound_to 10162
  157.6975  131.0788  150.6922 LP  0  0  0  0  0  0  0  0  0  0  0  0  # atno 17370 bound_to 10713
  156.6979  130.4614  149.5581 LP  0  0  0  0  0  0  0  0  0  0  0  0  # atno 17371 bound_to 10713
  139.8831  134.9002  156.2784 LP  0  0  0  0  0  0  0  0  0  0  0  0  # atno 17394 bound_to 11000
  140.9941  133.7190  156.0859 LP  0  0  0  0  0  0  0  0  0  0  0  0  # atno 17395 bound_to 11000

$$$$
