AV-unprocessed.smi:2944|AV-procd|sdf|11272|dock6
  -GOLD-   2272016163D 1   1.00000     0.00000
 Structure written by MMmdl.
 44 46  0  0  0  0  0  0  0  0  1 V2000
  154.4105  138.7327  159.6247 C   0  0  0  0  0  0  0  0  0  0  0  0
  154.2488  138.9657  158.2375 O   0  0  0  0  0  0  0  0  0  0  0  0
  152.9087  138.7908  157.8082 C   0  0  0  0  0  0  0  0  0  0  0  0
  151.9734  139.6513  158.6687 C   0  0  0  0  0  0  0  0  0  0  0  0
  151.6998  140.9411  158.0522 N   0  0  0  0  0  0  0  0  0  0  0  0
  151.2070  141.1961  156.8145 C   0  0  0  0  0  0  0  0  0  0  0  0
  150.7843  139.8960  155.6964 S   0  0  0  0  0  0  0  0  0  0  0  0
  148.9689  139.9912  155.7916 C   0  0  2  0  0  0  0  0  0  0  0  0
  148.4949  141.4492  155.6401 C   0  0  0  0  0  0  0  0  0  0  0  0
  148.4596  139.3400  157.0940 C   0  0  0  0  0  0  0  0  0  0  0  0
  147.7648  140.0267  157.8481 O   0  0  0  0  0  0  0  0  0  0  0  0
  148.8100  138.0504  157.3633 N   0  0  0  0  0  0  0  0  0  0  0  0
  149.6151  137.2127  156.4700 C   0  0  0  0  0  0  0  0  0  0  0  0
  149.7746  135.8962  157.2203 C   0  0  0  0  0  0  0  0  0  0  0  0
  149.0110  136.1398  158.4175 N   0  0  0  0  0  0  0  0  0  0  0  0
  148.4756  137.3610  158.4816 C   0  0  0  0  0  0  0  0  0  0  0  0
  147.7973  137.7518  159.4326 O   0  0  0  0  0  0  0  0  0  0  0  0
  151.0548  142.4862  156.5115 N   0  0  0  0  0  0  0  0  0  0  0  0
  151.4849  143.1248  157.6574 C   0  0  0  0  0  0  0  0  0  0  0  0
  151.5674  144.5012  157.9676 C   0  0  0  0  0  0  0  0  0  0  0  0
  152.0452  144.9212  159.2265 C   0  0  0  0  0  0  0  0  0  0  0  0
  152.4453  143.9735  160.1908 C   0  0  0  0  0  0  0  0  0  0  0  0
  152.3707  142.5977  159.9017 C   0  0  0  0  0  0  0  0  0  0  0  0
  151.8947  142.1844  158.6431 C   0  0  0  0  0  0  0  0  0  0  0  0
  155.4530  138.8874  159.9019 H   0  0  0  0  0  0  0  0  0  0  0  0
  154.1409  137.7086  159.8863 H   0  0  0  0  0  0  0  0  0  0  0  0
  153.7995  139.4181  160.2136 H   0  0  0  0  0  0  0  0  0  0  0  0
  152.8135  139.0738  156.7587 H   0  0  0  0  0  0  0  0  0  0  0  0
  152.6243  137.7409  157.8901 H   0  0  0  0  0  0  0  0  0  0  0  0
  151.0256  139.1337  158.8191 H   0  0  0  0  0  0  0  0  0  0  0  0
  152.3972  139.7996  159.6616 H   0  0  0  0  0  0  0  0  0  0  0  0
  148.5466  139.4457  154.9493 H   0  0  0  0  0  0  0  0  0  0  0  0
  147.4107  141.5256  155.7299 H   0  0  0  0  0  0  0  0  0  0  0  0
  148.7667  141.8528  154.6651 H   0  0  0  0  0  0  0  0  0  0  0  0
  148.9403  142.0969  156.3961 H   0  0  0  0  0  0  0  0  0  0  0  0
  149.1018  137.0476  155.5215 H   0  0  0  0  0  0  0  0  0  0  0  0
  150.5881  137.6602  156.2667 H   0  0  0  0  0  0  0  0  0  0  0  0
  149.3649  135.0520  156.6648 H   0  0  0  0  0  0  0  0  0  0  0  0
  150.8164  135.6892  157.4676 H   0  0  0  0  0  0  0  0  0  0  0  0
  148.9024  135.4427  159.1399 H   0  0  0  0  0  0  0  0  0  0  0  0
  151.2618  145.2350  157.2365 H   0  0  0  0  0  0  0  0  0  0  0  0
  152.1040  145.9756  159.4540 H   0  0  0  0  0  0  0  0  0  0  0  0
  152.8092  144.3034  161.1529 H   0  0  0  0  0  0  0  0  0  0  0  0
  152.6743  141.8693  160.6390 H   0  0  0  0  0  0  0  0  0  0  0  0
  1  2  1  0  0  0  0
  1 25  1  0  0  0  0
  1 26  1  0  0  0  0
  1 27  1  0  0  0  0
  2  3  1  0  0  0  0
  3  4  1  0  0  0  0
  3 28  1  0  0  0  0
  3 29  1  0  0  0  0
  4  5  1  0  0  0  0
  4 30  1  0  0  0  0
  4 31  1  0  0  0  0
  5 24  1  0  0  0  0
  5  6  1  0  0  0  0
  6  7  1  0  0  0  0
  6 18  2  0  0  0  0
  7  8  1  0  0  0  0
  8  9  1  0  0  0  0
  8 10  1  0  0  0  0
  8 32  1  0  0  0  0
  9 33  1  0  0  0  0
  9 34  1  0  0  0  0
  9 35  1  0  0  0  0
 10 11  2  0  0  0  0
 10 12  1  0  0  0  0
 12 16  1  0  0  0  0
 12 13  1  0  0  0  0
 13 14  1  0  0  0  0
 13 36  1  0  0  0  0
 13 37  1  0  0  0  0
 14 15  1  0  0  0  0
 14 38  1  0  0  0  0
 14 39  1  0  0  0  0
 15 16  1  0  0  0  0
 15 40  1  0  0  0  0
 16 17  2  0  0  0  0
 18 19  1  0  0  0  0
 19 24  2  0  0  0  0
 19 20  1  0  0  0  0
 20 21  2  0  0  0  0
 20 41  1  0  0  0  0
 21 22  1  0  0  0  0
 21 42  1  0  0  0  0
 22 23  2  0  0  0  0
 22 43  1  0  0  0  0
 23 24  1  0  0  0  0
 23 44  1  0  0  0  0
M  END
> <s_m_source_file>
AV-unprocessed.smi

> <i_m_source_file_index>
2944

> <i_lp_mmshare_version>
43012

> <i_f3d_flags>
0

> <s_epik_input>
W2NIXTFbY0hdW2NIXVtjSF1jKGMxMiluKFtDSDJdW0NIMl1PW0NIM10pYyhuMilTW0NASF0oW0NIM10pQyg9TylOM1tDSDJdW0NIMl1bTkhdQzM9Tw==

> <s_epik_cmdline>
J2VwaWtfcHl0aG9uJywgJy1waCcsICc3LjAnLCAnLXRuJywgJzgnLCAnLW1hJywgJzIwMCcsICctbWV0YWxfYmluZGluZycsICctaW1hZScsICc8aW5maWxlLm1hZT4nLCAnLW9tYWUnLCAnPG91dGZpbGUubWFlPic=

> <r_lp_tautomer_probability>
0.9999

> <r_epik_Ionization_Penalty>
0.0250226

> <r_epik_Ionization_Penalty_Charging>
0

> <r_epik_Ionization_Penalty_Neutral>
0.0250226

> <r_epik_State_Penalty>
0.0203222

> <r_epik_Charging_Adjusted_Penalty>
0.0203222

> <i_epik_Tot_Q>
0

> <i_epik_Tot_abs_Q>
0

> <r_epik_Metal_State_Penalty>
0.0194901

> <b_epik_Metal_Only>
0

> <s_lp_Force_Field>
OPLS_2005

> <r_lp_Energy>
42.2169

> <b_lp_Chiralities_Consistent>
1

> <s_lp_Variant>
AV-unprocessed.smi:2944-1

> <Gold.Version>
5.8.1

> <Gold.Id.Protein>
6NUR|6NUR_protein|mol2

> <Gold.PLP.Fitness>
42.8570

> <Gold.PLP.PLP>
-39.2052

> <Gold.PLP.part.hbond>
-3.4881

> <Gold.PLP.part.metal>
0.0000

> <Gold.PLP.part.buried>
-5.0053

> <Gold.PLP.part.nonpolar>
-31.2548

> <Gold.PLP.part.repulsive>
0.2168

> <Gold.PLP.ligand.clash>
0.0000

> <Gold.PLP.ligand.torsion>
0.5525

> <Gold.PLP.Chemscore.Hbond>
1.5600

> <Gold.PLP.Chemscore.CHOScore>
0.0000

> <Gold.PLP.Chemscore.Metal>
0.0000

> <Gold.Chemscore.Hbonds>
donor molecule, donor type, donor heavy atom, donor atom, acceptor molecule, acceptor atom, score
      P1  H  6934  6947       L1    17  0.52
      P1  H  7997  8008       L1     2  1.00

> <Gold.PLP.Chemscore.Internal.Correction>
0.0769

> <Gold.Rescore>
     Score         DG    S(hbond)    S(metal)    S(lipo)     H(rot)  DE(clash)    DE(int)     intcor
     12.99     -16.05       1.33        0.00     101.31       2.24       0.01       3.05       ----

> <Gold.Chemscore.Fitness>
12.9924

> <Gold.Chemscore.DG>
-16.0478

> <Gold.Chemscore.ZeroCoef>
-5.4800

> <Gold.Chemscore.Hbond>
1.3286

> <Gold.Chemscore.Metal>
0.0000

> <Gold.Chemscore.Lipo>
101.3131

> <Gold.Chemscore.Internal_Hbond>
0.0000

> <Gold.Chemscore.DEClash>
0.0088

> <Gold.Chemscore.DEInternal>
3.0465

> <Gold.Chemscore.Rot>
2.2357

> <Gold.Chemscore.Internal.Correction>
   9.000000E+99

> <Gold.Chemscore.Hbonds>
donor molecule, donor type, donor heavy atom, donor atom, acceptor molecule, acceptor atom, score
      P1  H  6934  6947       L1    17  0.50
      P1  H  7997  8008       L1     2  0.64

> <Gold.Chemscore.Hbond.Weighted>
-4.4376

> <Gold.Chemscore.Metal.Weighted>
-0.0000

> <Gold.Chemscore.Lipo.Weighted>
-11.8536

> <Gold.Chemscore.Internal_Hbond.Weighted>
0.0000

> <Gold.Chemscore.DEClash.Weighted>
0.0088

> <Gold.Chemscore.DEInternal.Weighted>
3.0465

> <Gold.Chemscore.Rot.Weighted>
5.7234

> <Gold.Chemscore.Internal.Correction.Weighted>
   9.000000E+99

> <Gold.Protein.RotatedTorsions>
[ 6907 6896 6895 6894 ] final   62.46 input  -60.11 | X-H torsion
[ 7974 7965 7964 7962 ] final -121.54 input  175.53 | X-H torsion
[ 8008 7997 7996 7995 ] final -109.97 input   59.86 | X-H torsion
[ 10167 10162 10161 10158 ] final  -26.99 input  -65.29 | X-H torsion
[ 10718 10713 10712 10709 ] final  -31.29 input   66.30 | X-H torsion
[ 10763 10752 10751 10750 ] final  135.58 input  -60.55 | X-H torsion
[ 11005 11000 10999 10996 ] final    1.03 input  -57.11 | X-H torsion

> <Gold.Protein.ActiveResidues>
 VAL166  LYS551  ARG553  GLY616  TRP617  ASP618  TYR619  PRO620  LYS621  CYS622 
 ASP623  PHE694  ASN695  SER759  ASP760  ASP761  ALA762  ILE779  LEU786  VAL792 
 PHE793  MET794  SER795  GLU796  ALA797  LYS798  CYS799  TRP800  GLU811  SER814 

> <Gold.Protein.RotatedAtoms>
  152.4173  134.6018  160.0001 H   0  0  0  0  0  0  0  0  0  0  0  0  # atno 6907 bound_to 6896
  151.6178  133.3336  159.3089 H   0  0  0  0  0  0  0  0  0  0  0  0  # atno 6908 bound_to 6896
  150.8062  134.7227  159.6712 H   0  0  0  0  0  0  0  0  0  0  0  0  # atno 6909 bound_to 6896
  145.0392  140.8131  143.4276 H   0  0  0  0  0  0  0  0  0  0  0  0  # atno 7974 bound_to 7965
  154.9674  140.0398  157.2218 H   0  0  0  0  0  0  0  0  0  0  0  0  # atno 8008 bound_to 7997
  154.7832  140.2822  155.6025 H   0  0  0  0  0  0  0  0  0  0  0  0  # atno 8009 bound_to 7997
  156.2939  140.2587  156.2663 H   0  0  0  0  0  0  0  0  0  0  0  0  # atno 8010 bound_to 7997
  140.7280  143.4131  151.1073 H   0  0  0  0  0  0  0  0  0  0  0  0  # atno 10167 bound_to 10162
  156.3891  130.4369  149.7409 H   0  0  0  0  0  0  0  0  0  0  0  0  # atno 10718 bound_to 10713
  153.8424  135.3090  155.3427 H   0  0  0  0  0  0  0  0  0  0  0  0  # atno 10763 bound_to 10752
  154.7927  135.4773  154.0092 H   0  0  0  0  0  0  0  0  0  0  0  0  # atno 10764 bound_to 10752
  153.1568  135.6853  153.8893 H   0  0  0  0  0  0  0  0  0  0  0  0  # atno 10765 bound_to 10752
  140.6199  133.9670  155.8220 H   0  0  0  0  0  0  0  0  0  0  0  0  # atno 11005 bound_to 11000
  145.1670  139.2426  143.5362 LP  0  0  0  0  0  0  0  0  0  0  0  0  # atno 17320 bound_to 7965
  146.3507  140.1411  142.8594 LP  0  0  0  0  0  0  0  0  0  0  0  0  # atno 17321 bound_to 7965
  139.7767  143.8415  152.3130 LP  0  0  0  0  0  0  0  0  0  0  0  0  # atno 17342 bound_to 10162
  139.8352  144.7235  150.9400 LP  0  0  0  0  0  0  0  0  0  0  0  0  # atno 17343 bound_to 10162
  156.4469  130.7888  151.2909 LP  0  0  0  0  0  0  0  0  0  0  0  0  # atno 17370 bound_to 10713
  157.7498  131.0107  150.3318 LP  0  0  0  0  0  0  0  0  0  0  0  0  # atno 17371 bound_to 10713
  141.0749  134.0149  157.3472 LP  0  0  0  0  0  0  0  0  0  0  0  0  # atno 17394 bound_to 11000
  139.9157  135.0196  156.7873 LP  0  0  0  0  0  0  0  0  0  0  0  0  # atno 17395 bound_to 11000

$$$$
