AV-unprocessed.smi:1562|AV-procd|sdf|6287|dock8
  -GOLD-   22720 6483D 1   1.00000     0.00000
 Structure written by MMmdl.
 40 41  0  0  0  0  0  0  0  0  1 V2000
  146.8159  137.0342  152.7708 N   0  0  0  0  0  0  0  0  0  0  0  0
  146.5552  138.1560  153.4468 C   0  0  0  0  0  0  0  0  0  0  0  0
  145.4699  138.3529  153.9904 O   0  0  0  0  0  0  0  0  0  0  0  0
  147.6737  139.2042  153.5221 C   0  0  0  0  0  0  0  0  0  0  0  0
  148.8962  138.6599  154.2997 C   0  0  0  0  0  0  0  0  0  0  0  0
  149.9611  139.7542  154.4965 C   0  0  0  0  0  0  0  0  0  0  0  0
  149.3424  140.8946  155.1935 N   0  0  0  0  0  0  0  0  0  0  0  0
  149.5097  141.2236  156.4998 C   0  0  0  0  0  0  0  0  0  0  0  0
  148.8522  142.0987  157.0651 O   0  0  0  0  0  0  0  0  0  0  0  0
  150.4780  140.5415  157.1328 N   0  0  0  0  0  0  0  0  0  0  0  0
  150.8471  140.7329  158.5287 C   0  0  0  0  0  0  0  0  0  0  0  0
  152.1882  141.4715  158.6399 C   0  0  0  0  0  0  0  0  0  0  0  0
  152.0237  142.8824  159.1740 C   0  0  0  0  0  0  0  0  0  0  0  0
  152.2248  143.9997  158.3353 C   0  0  0  0  0  0  0  0  0  0  0  0
  152.0684  145.2875  158.8843 C   0  0  0  0  0  0  0  0  0  0  0  0
  151.7194  145.4080  160.2434 C   0  0  0  0  0  0  0  0  0  0  0  0
  151.5414  144.2301  160.9962 C   0  0  0  0  0  0  0  0  0  0  0  0
  151.6881  142.9909  160.4795 N   0  0  0  0  0  0  0  0  0  0  0  0
  148.3082  141.5228  154.3621 C   0  0  0  0  0  0  0  0  0  0  0  0
  147.1591  140.5190  154.1542 C   0  0  0  0  0  0  0  0  0  0  0  0
  146.1062  136.3199  152.6948 H   0  0  0  0  0  0  0  0  0  0  0  0
  147.7179  136.9040  152.3363 H   0  0  0  0  0  0  0  0  0  0  0  0
  148.0029  139.4319  152.5065 H   0  0  0  0  0  0  0  0  0  0  0  0
  148.5895  138.2819  155.2765 H   0  0  0  0  0  0  0  0  0  0  0  0
  149.3334  137.8155  153.7654 H   0  0  0  0  0  0  0  0  0  0  0  0
  150.8277  139.3380  155.0102 H   0  0  0  0  0  0  0  0  0  0  0  0
  150.3349  140.0870  153.5272 H   0  0  0  0  0  0  0  0  0  0  0  0
  150.9887  139.8437  156.6117 H   0  0  0  0  0  0  0  0  0  0  0  0
  150.0658  141.2999  159.0380 H   0  0  0  0  0  0  0  0  0  0  0  0
  150.9120  139.7599  159.0179 H   0  0  0  0  0  0  0  0  0  0  0  0
  152.8665  140.9178  159.2906 H   0  0  0  0  0  0  0  0  0  0  0  0
  152.6713  141.5182  157.6626 H   0  0  0  0  0  0  0  0  0  0  0  0
  152.4949  143.8753  157.2970 H   0  0  0  0  0  0  0  0  0  0  0  0
  152.2144  146.1667  158.2741 H   0  0  0  0  0  0  0  0  0  0  0  0
  151.5918  146.3791  160.6986 H   0  0  0  0  0  0  0  0  0  0  0  0
  151.2748  144.2848  162.0413 H   0  0  0  0  0  0  0  0  0  0  0  0
  147.9232  142.4467  154.7963 H   0  0  0  0  0  0  0  0  0  0  0  0
  148.7380  141.8072  153.4007 H   0  0  0  0  0  0  0  0  0  0  0  0
  146.3937  140.9654  153.5181 H   0  0  0  0  0  0  0  0  0  0  0  0
  146.6824  140.3186  155.1154 H   0  0  0  0  0  0  0  0  0  0  0  0
  1  2  1  0  0  0  0
  1 21  1  0  0  0  0
  1 22  1  0  0  0  0
  2  3  2  0  0  0  0
  2  4  1  0  0  0  0
  4 20  1  0  0  0  0
  4  5  1  0  0  0  0
  4 23  1  0  0  0  0
  5  6  1  0  0  0  0
  5 24  1  0  0  0  0
  5 25  1  0  0  0  0
  6  7  1  0  0  0  0
  6 26  1  0  0  0  0
  6 27  1  0  0  0  0
  7  8  1  0  0  0  0
  7 19  1  0  0  0  0
  8  9  2  0  0  0  0
  8 10  1  0  0  0  0
 10 11  1  0  0  0  0
 10 28  1  0  0  0  0
 11 12  1  0  0  0  0
 11 29  1  0  0  0  0
 11 30  1  0  0  0  0
 12 13  1  0  0  0  0
 12 31  1  0  0  0  0
 12 32  1  0  0  0  0
 13 18  1  0  0  0  0
 13 14  2  0  0  0  0
 14 15  1  0  0  0  0
 14 33  1  0  0  0  0
 15 16  2  0  0  0  0
 15 34  1  0  0  0  0
 16 17  1  0  0  0  0
 16 35  1  0  0  0  0
 17 18  2  0  0  0  0
 17 36  1  0  0  0  0
 19 20  1  0  0  0  0
 19 37  1  0  0  0  0
 19 38  1  0  0  0  0
 20 39  1  0  0  0  0
 20 40  1  0  0  0  0
M  END
> <s_m_source_file>
AV-unprocessed.smi

> <i_m_source_file_index>
1562

> <i_lp_mmshare_version>
43012

> <i_f3d_flags>
0

> <s_epik_input>
W05IMl1DKD1PKVtDSF0xW0NIMl1bQ0gyXU4oW0NIMl1bQ0gyXTEpQyg9TylbTkhdW0NIMl1bQ0gyXWMyW2NIXVtjSF1bY0hdW2NIXW4y

> <s_epik_cmdline>
J2VwaWtfcHl0aG9uJywgJy1waCcsICc3LjAnLCAnLXRuJywgJzgnLCAnLW1hJywgJzIwMCcsICctbWV0YWxfYmluZGluZycsICctaW1hZScsICc8aW5maWxlLm1hZT4nLCAnLW9tYWUnLCAnPG91dGZpbGUubWFlPic=

> <r_epik_Ionization_Penalty>
0.0445602

> <r_epik_Ionization_Penalty_Charging>
0

> <r_epik_Ionization_Penalty_Neutral>
0.0445602

> <r_epik_State_Penalty>
0.0377204

> <r_epik_Charging_Adjusted_Penalty>
0.0377204

> <i_epik_Tot_Q>
0

> <i_epik_Tot_abs_Q>
0

> <r_epik_Metal_State_Penalty>
0.0350723

> <b_epik_Metal_Only>
0

> <s_lp_Force_Field>
OPLS_2005

> <r_lp_Energy>
26.805

> <b_lp_Chiralities_Consistent>
1

> <s_lp_Variant>
AV-unprocessed.smi:1562-1

> <Gold.Version>
5.8.1

> <Gold.Id.Protein>
6NUR|6NUR_protein|mol2

> <Gold.PLP.Fitness>
43.2718

> <Gold.PLP.PLP>
-41.4767

> <Gold.PLP.part.hbond>
-1.0155

> <Gold.PLP.part.metal>
0.0000

> <Gold.PLP.part.buried>
-4.8961

> <Gold.PLP.part.nonpolar>
-36.0043

> <Gold.PLP.part.repulsive>
1.2253

> <Gold.PLP.ligand.clash>
0.0000

> <Gold.PLP.ligand.torsion>
0.6334

> <Gold.PLP.Chemscore.Hbond>
1.0000

> <Gold.PLP.Chemscore.CHOScore>
0.0000

> <Gold.PLP.Chemscore.Metal>
0.0000

> <Gold.Chemscore.Hbonds>
donor molecule, donor type, donor heavy atom, donor atom, acceptor molecule, acceptor atom, score
      L1  H     1    22       P1  7948  0.86

> <Gold.PLP.Chemscore.Internal.Correction>
0.0619

> <Gold.Rescore>
     Score         DG    S(hbond)    S(metal)    S(lipo)     H(rot)  DE(clash)    DE(int)     intcor
     15.69     -16.33       1.00        0.00     106.86       1.95       0.10       0.54       ----

> <Gold.Chemscore.Fitness>
15.6895

> <Gold.Chemscore.DG>
-16.3261

> <Gold.Chemscore.ZeroCoef>
-5.4800

> <Gold.Chemscore.Hbond>
0.9979

> <Gold.Chemscore.Metal>
0.0000

> <Gold.Chemscore.Lipo>
106.8632

> <Gold.Chemscore.Internal_Hbond>
0.0000

> <Gold.Chemscore.DEClash>
0.0983

> <Gold.Chemscore.DEInternal>
0.5382

> <Gold.Chemscore.Rot>
1.9492

> <Gold.Chemscore.Internal.Correction>
   9.000000E+99

> <Gold.Chemscore.Hbonds>
donor molecule, donor type, donor heavy atom, donor atom, acceptor molecule, acceptor atom, score
      L1  H     1    22       P1  7948  0.84

> <Gold.Chemscore.Hbond.Weighted>
-3.3330

> <Gold.Chemscore.Metal.Weighted>
-0.0000

> <Gold.Chemscore.Lipo.Weighted>
-12.5030

> <Gold.Chemscore.Internal_Hbond.Weighted>
0.0000

> <Gold.Chemscore.DEClash.Weighted>
0.0983

> <Gold.Chemscore.DEInternal.Weighted>
0.5382

> <Gold.Chemscore.Rot.Weighted>
4.9900

> <Gold.Chemscore.Internal.Correction.Weighted>
   9.000000E+99

> <Gold.Protein.RotatedTorsions>
[ 6907 6896 6895 6894 ] final   31.53 input  -60.11 | X-H torsion
[ 7974 7965 7964 7962 ] final -125.40 input  175.53 | X-H torsion
[ 8008 7997 7996 7995 ] final   86.44 input   59.86 | X-H torsion
[ 10167 10162 10161 10158 ] final   36.01 input  -65.29 | X-H torsion
[ 10718 10713 10712 10709 ] final  166.56 input   66.30 | X-H torsion
[ 10763 10752 10751 10750 ] final -103.88 input  -60.55 | X-H torsion
[ 11005 11000 10999 10996 ] final  174.72 input  -57.11 | X-H torsion

> <Gold.Protein.ActiveResidues>
 VAL166  LYS551  ARG553  GLY616  TRP617  ASP618  TYR619  PRO620  LYS621  CYS622 
 ASP623  PHE694  ASN695  SER759  ASP760  ASP761  ALA762  ILE779  LEU786  VAL792 
 PHE793  MET794  SER795  GLU796  ALA797  LYS798  CYS799  TRP800  GLU811  SER814 

> <Gold.Protein.RotatedAtoms>
  152.0616  134.9590  160.0574 H   0  0  0  0  0  0  0  0  0  0  0  0  # atno 6907 bound_to 6896
  152.0951  133.4216  159.4570 H   0  0  0  0  0  0  0  0  0  0  0  0  # atno 6908 bound_to 6896
  150.6838  134.2745  159.4645 H   0  0  0  0  0  0  0  0  0  0  0  0  # atno 6909 bound_to 6896
  144.9980  140.7794  143.4513 H   0  0  0  0  0  0  0  0  0  0  0  0  # atno 7974 bound_to 7965
  155.9628  140.3392  155.6506 H   0  0  0  0  0  0  0  0  0  0  0  0  # atno 8008 bound_to 7997
  155.6775  140.0734  157.2515 H   0  0  0  0  0  0  0  0  0  0  0  0  # atno 8009 bound_to 7997
  154.4147  140.1680  156.1934 H   0  0  0  0  0  0  0  0  0  0  0  0  # atno 8010 bound_to 7997
  140.4168  144.1516  150.6144 H   0  0  0  0  0  0  0  0  0  0  0  0  # atno 10167 bound_to 10162
  157.0641  131.0348  151.2636 H   0  0  0  0  0  0  0  0  0  0  0  0  # atno 10718 bound_to 10713
  154.7838  135.4807  153.9902 H   0  0  0  0  0  0  0  0  0  0  0  0  # atno 10763 bound_to 10752
  153.1532  135.6795  153.8859 H   0  0  0  0  0  0  0  0  0  0  0  0  # atno 10764 bound_to 10752
  153.8496  135.3169  155.3410 H   0  0  0  0  0  0  0  0  0  0  0  0  # atno 10765 bound_to 10752
  140.3543  134.7168  157.4289 H   0  0  0  0  0  0  0  0  0  0  0  0  # atno 11005 bound_to 11000
  145.2193  139.2167  143.5101 LP  0  0  0  0  0  0  0  0  0  0  0  0  # atno 17320 bound_to 7965
  146.3446  140.2047  142.8589 LP  0  0  0  0  0  0  0  0  0  0  0  0  # atno 17321 bound_to 7965
  140.4578  143.2461  151.9261 LP  0  0  0  0  0  0  0  0  0  0  0  0  # atno 17342 bound_to 10162
  139.4782  144.5498  151.8403 LP  0  0  0  0  0  0  0  0  0  0  0  0  # atno 17343 bound_to 10162
  157.4931  130.7834  149.7527 LP  0  0  0  0  0  0  0  0  0  0  0  0  # atno 17370 bound_to 10713
  155.9969  130.3903  150.2759 LP  0  0  0  0  0  0  0  0  0  0  0  0  # atno 17371 bound_to 10713
  140.0677  134.5906  155.8676 LP  0  0  0  0  0  0  0  0  0  0  0  0  # atno 17394 bound_to 11000
  141.2003  133.6611  156.5888 LP  0  0  0  0  0  0  0  0  0  0  0  0  # atno 17395 bound_to 11000

$$$$
