AV-unprocessed.smi:34|AV-procd|sdf|221|dock4
  -GOLD-   2262015543D 1   1.00000     0.00000
 Structure written by MMmdl.
 55 59  0  0  0  0  0  0  0  0  1 V2000
  145.3350  143.6082  158.0879 O   0  0  0  0  0  0  0  0  0  0  0  0
  144.9445  143.4970  156.9255 C   0  0  0  0  0  0  0  0  0  0  0  0
  145.2577  142.3345  156.1129 N   0  0  0  0  0  0  0  0  0  0  0  0
  145.8994  141.2020  156.4856 C   0  0  0  0  0  0  0  0  0  0  0  0
  145.4986  140.4518  157.5457 N   0  0  0  0  0  0  0  0  0  0  0  0
  146.1602  139.3371  157.8698 C   0  0  0  0  0  0  0  0  0  0  0  0
  147.2284  138.8001  157.2776 N   0  0  0  0  0  0  0  0  0  0  0  0
  147.6378  139.5474  156.2123 C   0  0  0  0  0  0  0  0  0  0  0  0
  147.0310  140.7511  155.7571 C   0  0  0  0  0  0  0  0  0  0  0  0
  147.7155  141.2322  154.6483 N   0  0  0  0  0  0  0  0  0  0  0  0
  148.6690  140.3590  154.4617 C   0  0  0  0  0  0  0  0  0  0  0  0
  148.6968  139.3147  155.3590 N   0  0  0  0  0  0  0  0  0  0  0  0
  149.6526  138.1681  155.3975 C   0  0  2  0  0  0  0  0  0  0  0  0
  150.1614  138.0803  156.6905 O   0  0  0  0  0  0  0  0  0  0  0  0
  151.4969  137.6092  156.6125 C   0  0  2  0  0  0  0  0  0  0  0  0
  152.2609  137.9115  157.9072 C   0  0  0  0  0  0  0  0  0  0  0  0
  152.0202  139.2564  158.2865 O   0  0  0  0  0  0  0  0  0  0  0  0
  153.0471  140.0473  158.6540 C   0  0  0  0  0  0  0  0  0  0  0  0
  154.2089  139.6500  158.7642 O   0  0  0  0  0  0  0  0  0  0  0  0
  152.6303  141.4555  158.9152 C   0  0  0  0  0  0  0  0  0  0  0  0
  151.3536  141.8910  158.4893 C   0  0  0  0  0  0  0  0  0  0  0  0
  150.9320  143.2143  158.7235 C   0  0  0  0  0  0  0  0  0  0  0  0
  151.7817  144.1182  159.3875 C   0  0  0  0  0  0  0  0  0  0  0  0
  153.0537  143.6973  159.8168 C   0  0  0  0  0  0  0  0  0  0  0  0
  153.4773  142.3745  159.5829 C   0  0  0  0  0  0  0  0  0  0  0  0
  152.0443  138.3217  155.3737 C   0  0  2  0  0  0  0  0  0  0  0  0
  152.4513  139.5562  155.6734 F   0  0  0  0  0  0  0  0  0  0  0  0
  150.8388  138.3964  154.4427 C   0  0  1  0  0  0  0  0  0  0  0  0
  150.9301  137.3816  153.4630 O   0  0  0  0  0  0  0  0  0  0  0  0
  144.1899  144.5983  156.2383 C   0  0  0  0  0  0  0  0  0  0  0  0
  143.7370  144.4233  154.9111 C   0  0  0  0  0  0  0  0  0  0  0  0
  143.0434  145.4570  154.2520 C   0  0  0  0  0  0  0  0  0  0  0  0
  142.8025  146.6770  154.9118 C   0  0  0  0  0  0  0  0  0  0  0  0
  143.2610  146.8647  156.2293 C   0  0  0  0  0  0  0  0  0  0  0  0
  143.9552  145.8320  156.8894 C   0  0  0  0  0  0  0  0  0  0  0  0
  144.9349  142.3647  155.1569 H   0  0  0  0  0  0  0  0  0  0  0  0
  145.7792  138.7988  158.7250 H   0  0  0  0  0  0  0  0  0  0  0  0
  149.3841  140.4538  153.6572 H   0  0  0  0  0  0  0  0  0  0  0  0
  149.0563  137.2867  155.1561 H   0  0  0  0  0  0  0  0  0  0  0  0
  151.4793  136.5339  156.4252 H   0  0  0  0  0  0  0  0  0  0  0  0
  151.9160  137.2513  158.7042 H   0  0  0  0  0  0  0  0  0  0  0  0
  153.3292  137.7365  157.7713 H   0  0  0  0  0  0  0  0  0  0  0  0
  150.6837  141.2151  157.9775 H   0  0  0  0  0  0  0  0  0  0  0  0
  149.9552  143.5357  158.3929 H   0  0  0  0  0  0  0  0  0  0  0  0
  151.4583  145.1329  159.5673 H   0  0  0  0  0  0  0  0  0  0  0  0
  153.7067  144.3899  160.3272 H   0  0  0  0  0  0  0  0  0  0  0  0
  154.4592  142.0839  159.9272 H   0  0  0  0  0  0  0  0  0  0  0  0
  152.9044  137.8096  154.9405 H   0  0  0  0  0  0  0  0  0  0  0  0
  150.7686  139.3663  153.9476 H   0  0  0  0  0  0  0  0  0  0  0  0
  150.0792  137.2704  153.0672 H   0  0  0  0  0  0  0  0  0  0  0  0
  143.9148  143.4934  154.3900 H   0  0  0  0  0  0  0  0  0  0  0  0
  142.6971  145.3137  153.2391 H   0  0  0  0  0  0  0  0  0  0  0  0
  142.2706  147.4695  154.4064 H   0  0  0  0  0  0  0  0  0  0  0  0
  143.0824  147.8031  156.7335 H   0  0  0  0  0  0  0  0  0  0  0  0
  144.3068  146.0018  157.8968 H   0  0  0  0  0  0  0  0  0  0  0  0
  1  2  2  0  0  0  0
  2  3  1  0  0  0  0
  2 30  1  0  0  0  0
  3  4  1  0  0  0  0
  3 36  1  0  0  0  0
  4  9  1  0  0  0  0
  4  5  2  0  0  0  0
  5  6  1  0  0  0  0
  6  7  2  0  0  0  0
  6 37  1  0  0  0  0
  7  8  1  0  0  0  0
  8 12  1  0  0  0  0
  8  9  2  0  0  0  0
  9 10  1  0  0  0  0
 10 11  2  0  0  0  0
 11 12  1  0  0  0  0
 11 38  1  0  0  0  0
 12 13  1  0  0  0  0
 13 28  1  0  0  0  0
 13 14  1  0  0  0  0
 13 39  1  0  0  0  0
 14 15  1  0  0  0  0
 15 16  1  0  0  0  0
 15 26  1  0  0  0  0
 15 40  1  0  0  0  0
 16 17  1  0  0  0  0
 16 41  1  0  0  0  0
 16 42  1  0  0  0  0
 17 18  1  0  0  0  0
 18 19  2  0  0  0  0
 18 20  1  0  0  0  0
 20 25  1  0  0  0  0
 20 21  2  0  0  0  0
 21 22  1  0  0  0  0
 21 43  1  0  0  0  0
 22 23  2  0  0  0  0
 22 44  1  0  0  0  0
 23 24  1  0  0  0  0
 23 45  1  0  0  0  0
 24 25  2  0  0  0  0
 24 46  1  0  0  0  0
 25 47  1  0  0  0  0
 26 27  1  0  0  0  0
 26 28  1  0  0  0  0
 26 48  1  0  0  0  0
 28 29  1  0  0  0  0
 28 49  1  0  0  0  0
 29 50  1  0  0  0  0
 30 35  1  0  0  0  0
 30 31  2  0  0  0  0
 31 32  1  0  0  0  0
 31 51  1  0  0  0  0
 32 33  2  0  0  0  0
 32 52  1  0  0  0  0
 33 34  1  0  0  0  0
 33 53  1  0  0  0  0
 34 35  2  0  0  0  0
 34 54  1  0  0  0  0
 35 55  1  0  0  0  0
M  END
> <s_m_source_file>
AV-unprocessed.smi

> <i_m_source_file_index>
34

> <i_lp_mmshare_version>
43012

> <i_f3d_flags>
0

> <s_epik_input>
W2NIXTFbY0hdW2NIXVtjSF1bY0hdYzFDKD1PKVtOSF1jKG5bY0hdbjIpYyhjMjMpbltjSF1uM1tDQEBIXTRPW0NASF0oW0NAQEhdKEYpW0NASF00W09IXSlbQ0gyXU9DKD1PKWM1W2NIXVtjSF1bY0hdW2NIXVtjSF01

> <s_epik_cmdline>
J2VwaWtfcHl0aG9uJywgJy1waCcsICc3LjAnLCAnLXRuJywgJzgnLCAnLW1hJywgJzIwMCcsICctbWV0YWxfYmluZGluZycsICctaW1hZScsICc8aW5maWxlLm1hZT4nLCAnLW9tYWUnLCAnPG91dGZpbGUubWFlPic=

> <r_lp_tautomer_probability>
1

> <r_epik_Ionization_Penalty>
0.00257489

> <r_epik_Ionization_Penalty_Charging>
0

> <r_epik_Ionization_Penalty_Neutral>
0.00257489

> <r_epik_State_Penalty>
0.00519398

> <r_epik_Charging_Adjusted_Penalty>
0.00519398

> <i_epik_Tot_Q>
0

> <i_epik_Tot_abs_Q>
0

> <r_epik_Metal_State_Penalty>
0.335891

> <b_epik_Metal_Only>
0

> <s_epik_Chemistry_Notes>
This compound has an ester and may undergo hydrolysis at high or low pH. This compound contains an acetal/aminal-like group ( X-CH(R)-Y where X, Y are N, S, or O) that may be acid/base labile, releasing an aldehyde.

> <s_lp_Force_Field>
OPLS_2005

> <r_lp_Energy>
45.7986

> <b_lp_Chiralities_Consistent>
1

> <s_lp_Variant>
AV-unprocessed.smi:34-7

> <Gold.Version>
5.8.1

> <Gold.Id.Protein>
6NUR|6NUR_protein|mol2

> <Gold.PLP.Fitness>
52.3204

> <Gold.PLP.PLP>
-46.4609

> <Gold.PLP.part.hbond>
-2.7024

> <Gold.PLP.part.metal>
0.0000

> <Gold.PLP.part.buried>
-4.2187

> <Gold.PLP.part.nonpolar>
-40.9546

> <Gold.PLP.part.repulsive>
0.2450

> <Gold.PLP.ligand.clash>
0.0000

> <Gold.PLP.ligand.torsion>
1.1798

> <Gold.PLP.Chemscore.Hbond>
1.6520

> <Gold.PLP.Chemscore.CHOScore>
1.0000

> <Gold.PLP.Chemscore.Metal>
0.0000

> <Gold.Chemscore.Hbonds>
donor molecule, donor type, donor heavy atom, donor atom, acceptor molecule, acceptor atom, score
      L1  H    29    50       P1  7948  0.73
      P1  H  7997  8008       L1    19  0.93
      L1  C    11    38       P1  7957  0.98

> <Gold.PLP.Chemscore.Internal.Correction>
0.2631

> <Gold.Rescore>
     Score         DG    S(hbond)    S(metal)    S(lipo)     H(rot)  DE(clash)    DE(int)     intcor
     13.84     -17.10       1.41        0.00     118.63       2.72       0.51       2.75       ----

> <Gold.Chemscore.Fitness>
13.8439

> <Gold.Chemscore.DG>
-17.1047

> <Gold.Chemscore.ZeroCoef>
-5.4800

> <Gold.Chemscore.Hbond>
1.4109

> <Gold.Chemscore.Metal>
0.0000

> <Gold.Chemscore.Lipo>
118.6272

> <Gold.Chemscore.Internal_Hbond>
0.0000

> <Gold.Chemscore.DEClash>
0.5075

> <Gold.Chemscore.DEInternal>
2.7533

> <Gold.Chemscore.Rot>
2.7215

> <Gold.Chemscore.Internal.Correction>
   9.000000E+99

> <Gold.Chemscore.Hbonds>
donor molecule, donor type, donor heavy atom, donor atom, acceptor molecule, acceptor atom, score
      L1  H    29    50       P1  7948  0.11
      P1  H  7997  8008       L1    19  0.78

> <Gold.Chemscore.Hbond.Weighted>
-4.7124

> <Gold.Chemscore.Metal.Weighted>
-0.0000

> <Gold.Chemscore.Lipo.Weighted>
-13.8794

> <Gold.Chemscore.Internal_Hbond.Weighted>
0.0000

> <Gold.Chemscore.DEClash.Weighted>
0.5075

> <Gold.Chemscore.DEInternal.Weighted>
2.7533

> <Gold.Chemscore.Rot.Weighted>
6.9670

> <Gold.Chemscore.Internal.Correction.Weighted>
   9.000000E+99

> <Gold.Protein.RotatedTorsions>
[ 6907 6896 6895 6894 ] final   98.58 input  -60.11 | X-H torsion
[ 7974 7965 7964 7962 ] final  -68.93 input  175.53 | X-H torsion
[ 8008 7997 7996 7995 ] final -128.48 input   59.86 | X-H torsion
[ 10167 10162 10161 10158 ] final -177.51 input  -65.29 | X-H torsion
[ 10718 10713 10712 10709 ] final -105.45 input   66.30 | X-H torsion
[ 10763 10752 10751 10750 ] final  -91.44 input  -60.55 | X-H torsion
[ 11005 11000 10999 10996 ] final -126.47 input  -57.11 | X-H torsion

> <Gold.Protein.ActiveResidues>
 VAL166  LYS551  ARG553  GLY616  TRP617  ASP618  TYR619  PRO620  LYS621  CYS622 
 ASP623  PHE694  ASN695  SER759  ASP760  ASP761  ALA762  ILE779  LEU786  VAL792 
 PHE793  MET794  SER795  GLU796  ALA797  LYS798  CYS799  TRP800  GLU811  SER814 

> <Gold.Protein.RotatedAtoms>
  152.5407  134.0559  159.8130 H   0  0  0  0  0  0  0  0  0  0  0  0  # atno 6907 bound_to 6896
  151.0694  133.5471  159.2635 H   0  0  0  0  0  0  0  0  0  0  0  0  # atno 6908 bound_to 6896
  151.2340  135.0573  159.9053 H   0  0  0  0  0  0  0  0  0  0  0  0  # atno 6909 bound_to 6896
  145.7103  140.9081  143.0684 H   0  0  0  0  0  0  0  0  0  0  0  0  # atno 7974 bound_to 7965
  155.2633  140.0437  157.2999 H   0  0  0  0  0  0  0  0  0  0  0  0  # atno 8008 bound_to 7997
  154.5697  140.2370  155.8179 H   0  0  0  0  0  0  0  0  0  0  0  0  # atno 8009 bound_to 7997
  156.2113  140.2998  155.9747 H   0  0  0  0  0  0  0  0  0  0  0  0  # atno 8010 bound_to 7997
  139.5477  144.2192  152.1019 H   0  0  0  0  0  0  0  0  0  0  0  0  # atno 10167 bound_to 10162
  156.0346  130.5564  150.7540 H   0  0  0  0  0  0  0  0  0  0  0  0  # atno 10718 bound_to 10713
  154.6761  135.5267  153.8201 H   0  0  0  0  0  0  0  0  0  0  0  0  # atno 10763 bound_to 10752
  153.0533  135.6541  154.0649 H   0  0  0  0  0  0  0  0  0  0  0  0  # atno 10764 bound_to 10752
  154.0542  135.2967  155.3315 H   0  0  0  0  0  0  0  0  0  0  0  0  # atno 10765 bound_to 10752
  140.9678  134.0847  157.3901 H   0  0  0  0  0  0  0  0  0  0  0  0  # atno 11005 bound_to 11000
  144.6944  139.9065  143.7461 LP  0  0  0  0  0  0  0  0  0  0  0  0  # atno 17320 bound_to 7965
  146.0719  139.3707  143.0518 LP  0  0  0  0  0  0  0  0  0  0  0  0  # atno 17321 bound_to 7965
  140.1682  144.4961  150.6594 LP  0  0  0  0  0  0  0  0  0  0  0  0  # atno 17342 bound_to 10162
  140.6730  143.2293  151.5578 LP  0  0  0  0  0  0  0  0  0  0  0  0  # atno 17343 bound_to 10162
  157.5077  131.0923  151.0236 LP  0  0  0  0  0  0  0  0  0  0  0  0  # atno 17370 bound_to 10713
  157.0600  130.5821  149.5384 LP  0  0  0  0  0  0  0  0  0  0  0  0  # atno 17371 bound_to 10713
  139.8901  135.0109  156.6717 LP  0  0  0  0  0  0  0  0  0  0  0  0  # atno 17394 bound_to 11000
  140.7373  133.9008  155.8253 LP  0  0  0  0  0  0  0  0  0  0  0  0  # atno 17395 bound_to 11000

$$$$
