AV-unprocessed.smi:527|AV-procd|sdf|2817|dock4
  -GOLD-   2262023293D 1   1.00000     0.00000
 Structure written by MMmdl.
 42 43  0  0  0  0  0  0  0  0  1 V2000
  145.9551  131.5697  150.8419 C   0  0  0  0  0  0  0  0  0  0  0  0
  145.3797  132.6869  151.7321 C   0  0  2  0  0  0  0  0  0  0  0  0
  144.0527  133.1910  151.1309 C   0  0  0  0  0  0  0  0  0  0  0  0
  143.4122  134.2784  151.9995 C   0  0  0  0  0  0  0  0  0  0  0  0
  144.3748  135.4548  152.1830 C   0  0  0  0  0  0  0  0  0  0  0  0
  145.7142  134.9963  152.7903 C   0  0  2  0  0  0  0  0  0  0  0  0
  146.6079  136.1499  152.8873 N   0  0  0  0  0  0  0  0  0  0  0  0
  146.4421  137.1990  153.7067 C   0  0  0  0  0  0  0  0  0  0  0  0
  145.4707  137.3284  154.4550 O   0  0  0  0  0  0  0  0  0  0  0  0
  147.4646  138.0682  153.5893 N   0  0  0  0  0  0  0  0  0  0  0  0
  147.6367  139.2299  154.2524 C   0  0  0  0  0  0  0  0  0  0  0  0
  146.8675  139.6732  155.1095 O   0  0  0  0  0  0  0  0  0  0  0  0
  148.9038  140.0057  153.8685 C   0  0  0  0  0  0  0  0  0  0  0  0
  150.1214  139.3825  154.3589 N   0  0  0  0  0  0  0  0  0  0  0  0
  151.2008  140.0124  154.9657 C   0  0  0  0  0  0  0  0  0  0  0  0
  152.1147  139.0268  155.2631 C   0  0  0  0  0  0  0  0  0  0  0  0
  151.6221  137.7907  154.8512 N   0  0  0  0  0  0  0  0  0  0  0  0
  150.4377  138.0802  154.3278 C   0  0  0  0  0  0  0  0  0  0  0  0
  146.3736  133.8618  151.9594 C   0  0  1  0  0  0  0  0  0  0  0  0
  147.6873  133.3872  152.6185 C   0  0  0  0  0  0  0  0  0  0  0  0
  146.2885  131.9606  149.8799 H   0  0  0  0  0  0  0  0  0  0  0  0
  145.2054  130.8027  150.6447 H   0  0  0  0  0  0  0  0  0  0  0  0
  146.7987  131.0665  151.3129 H   0  0  0  0  0  0  0  0  0  0  0  0
  145.1520  132.2452  152.7034 H   0  0  0  0  0  0  0  0  0  0  0  0
  144.2274  133.5832  150.1280 H   0  0  0  0  0  0  0  0  0  0  0  0
  143.3531  132.3618  151.0197 H   0  0  0  0  0  0  0  0  0  0  0  0
  142.4854  134.6242  151.5407 H   0  0  0  0  0  0  0  0  0  0  0  0
  143.1430  133.8651  152.9724 H   0  0  0  0  0  0  0  0  0  0  0  0
  144.5486  135.9334  151.2180 H   0  0  0  0  0  0  0  0  0  0  0  0
  143.9109  136.2074  152.8220 H   0  0  0  0  0  0  0  0  0  0  0  0
  145.5181  134.6025  153.7898 H   0  0  0  0  0  0  0  0  0  0  0  0
  147.4124  136.1470  152.2775 H   0  0  0  0  0  0  0  0  0  0  0  0
  148.1840  137.8246  152.9249 H   0  0  0  0  0  0  0  0  0  0  0  0
  148.9634  140.0883  152.7824 H   0  0  0  0  0  0  0  0  0  0  0  0
  148.8486  141.0194  154.2678 H   0  0  0  0  0  0  0  0  0  0  0  0
  151.2271  141.0792  155.1332 H   0  0  0  0  0  0  0  0  0  0  0  0
  153.0806  139.1117  155.7388 H   0  0  0  0  0  0  0  0  0  0  0  0
  149.7842  137.3273  153.9121 H   0  0  0  0  0  0  0  0  0  0  0  0
  146.6285  134.2727  150.9811 H   0  0  0  0  0  0  0  0  0  0  0  0
  147.4963  132.9148  153.5825 H   0  0  0  0  0  0  0  0  0  0  0  0
  148.3793  134.2119  152.7885 H   0  0  0  0  0  0  0  0  0  0  0  0
  148.2185  132.6700  151.9942 H   0  0  0  0  0  0  0  0  0  0  0  0
  1  2  1  0  0  0  0
  1 21  1  0  0  0  0
  1 22  1  0  0  0  0
  1 23  1  0  0  0  0
  2 19  1  0  0  0  0
  2  3  1  0  0  0  0
  2 24  1  0  0  0  0
  3  4  1  0  0  0  0
  3 25  1  0  0  0  0
  3 26  1  0  0  0  0
  4  5  1  0  0  0  0
  4 27  1  0  0  0  0
  4 28  1  0  0  0  0
  5  6  1  0  0  0  0
  5 29  1  0  0  0  0
  5 30  1  0  0  0  0
  6  7  1  0  0  0  0
  6 19  1  0  0  0  0
  6 31  1  0  0  0  0
  7  8  1  0  0  0  0
  7 32  1  0  0  0  0
  8  9  2  0  0  0  0
  8 10  1  0  0  0  0
 10 11  1  0  0  0  0
 10 33  1  0  0  0  0
 11 12  2  0  0  0  0
 11 13  1  0  0  0  0
 13 14  1  0  0  0  0
 13 34  1  0  0  0  0
 13 35  1  0  0  0  0
 14 18  1  0  0  0  0
 14 15  1  0  0  0  0
 15 16  2  0  0  0  0
 15 36  1  0  0  0  0
 16 17  1  0  0  0  0
 16 37  1  0  0  0  0
 17 18  2  0  0  0  0
 18 38  1  0  0  0  0
 19 20  1  0  0  0  0
 19 39  1  0  0  0  0
 20 40  1  0  0  0  0
 20 41  1  0  0  0  0
 20 42  1  0  0  0  0
M  END
> <s_m_source_file>
AV-unprocessed.smi

> <i_m_source_file_index>
527

> <i_lp_mmshare_version>
43012

> <i_f3d_flags>
0

> <s_epik_input>
W0NIM11bQ0BASF0xW0NIMl1bQ0gyXVtDSDJdW0NASF0oW0NASF0xW0NIM10pW05IXUMoPU8pW05IXUMoPU8pW0NIMl1uMltjSF1bY0hdbltjSF0y

> <s_epik_cmdline>
J2VwaWtfcHl0aG9uJywgJy1waCcsICc3LjAnLCAnLXRuJywgJzgnLCAnLW1hJywgJzIwMCcsICctbWV0YWxfYmluZGluZycsICctaW1hZScsICc8aW5maWxlLm1hZT4nLCAnLW9tYWUnLCAnPG91dGZpbGUubWFlPic=

> <r_lp_tautomer_probability>
1

> <r_epik_Ionization_Penalty>
0.172132

> <r_epik_Ionization_Penalty_Charging>
0.172105

> <r_epik_Ionization_Penalty_Neutral>
2.71747e-05

> <r_epik_State_Penalty>
0.161503

> <r_epik_Charging_Adjusted_Penalty>
0.333607

> <i_epik_Tot_Q>
0

> <i_epik_Tot_abs_Q>
0

> <r_epik_Metal_State_Penalty>
0.124763

> <b_epik_Metal_Only>
0

> <s_lp_Force_Field>
OPLS_2005

> <r_lp_Energy>
15.8984

> <b_lp_Chiralities_Consistent>
1

> <s_lp_Variant>
AV-unprocessed.smi:527-3

> <Gold.Version>
5.8.1

> <Gold.Id.Protein>
6NUR|6NUR_protein|mol2

> <Gold.PLP.Fitness>
45.2388

> <Gold.PLP.PLP>
-34.4506

> <Gold.PLP.part.hbond>
-3.0000

> <Gold.PLP.part.metal>
0.0000

> <Gold.PLP.part.buried>
-4.4014

> <Gold.PLP.part.nonpolar>
-28.1354

> <Gold.PLP.part.repulsive>
0.1562

> <Gold.PLP.ligand.clash>
0.0000

> <Gold.PLP.ligand.torsion>
0.4315

> <Gold.PLP.Chemscore.Hbond>
2.8720

> <Gold.PLP.Chemscore.CHOScore>
1.0037

> <Gold.PLP.Chemscore.Metal>
0.0000

> <Gold.Chemscore.Hbonds>
donor molecule, donor type, donor heavy atom, donor atom, acceptor molecule, acceptor atom, score
      L1  H     7    32       P1  7948  1.00
      L1  H    10    33       P1  7948  0.83
      L1  C    18    38       P1  7948  1.00

> <Gold.PLP.Chemscore.Internal.Correction>
0.0241

> <Gold.Rescore>
     Score         DG    S(hbond)    S(metal)    S(lipo)     H(rot)  DE(clash)    DE(int)     intcor
     16.69     -18.52       2.79        0.00      68.15       1.66       0.01       1.82       ----

> <Gold.Chemscore.Fitness>
16.6869

> <Gold.Chemscore.DG>
-18.5245

> <Gold.Chemscore.ZeroCoef>
-5.4800

> <Gold.Chemscore.Hbond>
2.7927

> <Gold.Chemscore.Metal>
0.0000

> <Gold.Chemscore.Lipo>
68.1534

> <Gold.Chemscore.Internal_Hbond>
0.0000

> <Gold.Chemscore.DEClash>
0.0149

> <Gold.Chemscore.DEInternal>
1.8228

> <Gold.Chemscore.Rot>
1.6629

> <Gold.Chemscore.Internal.Correction>
   9.000000E+99

> <Gold.Chemscore.Hbonds>
donor molecule, donor type, donor heavy atom, donor atom, acceptor molecule, acceptor atom, score
      L1  H     7    32       P1  7948  0.97
      L1  H    10    33       P1  7948  0.76

> <Gold.Chemscore.Hbond.Weighted>
-9.3275

> <Gold.Chemscore.Metal.Weighted>
-0.0000

> <Gold.Chemscore.Lipo.Weighted>
-7.9740

> <Gold.Chemscore.Internal_Hbond.Weighted>
0.0000

> <Gold.Chemscore.DEClash.Weighted>
0.0149

> <Gold.Chemscore.DEInternal.Weighted>
1.8228

> <Gold.Chemscore.Rot.Weighted>
4.2569

> <Gold.Chemscore.Internal.Correction.Weighted>
   9.000000E+99

> <Gold.Protein.RotatedTorsions>
[ 6907 6896 6895 6894 ] final  150.44 input  -60.11 | X-H torsion
[ 7974 7965 7964 7962 ] final   57.62 input  175.53 | X-H torsion
[ 8008 7997 7996 7995 ] final   93.56 input   59.86 | X-H torsion
[ 10167 10162 10161 10158 ] final   47.88 input  -65.29 | X-H torsion
[ 10718 10713 10712 10709 ] final   59.16 input   66.30 | X-H torsion
[ 10763 10752 10751 10750 ] final  166.09 input  -60.55 | X-H torsion
[ 11005 11000 10999 10996 ] final -153.29 input  -57.11 | X-H torsion

> <Gold.Protein.ActiveResidues>
 VAL166  LYS551  ARG553  GLY616  TRP617  ASP618  TYR619  PRO620  LYS621  CYS622 
 ASP623  PHE694  ASN695  SER759  ASP760  ASP761  ALA762  ILE779  LEU786  VAL792 
 PHE793  MET794  SER795  GLU796  ALA797  LYS798  CYS799  TRP800  GLU811  SER814 

> <Gold.Protein.RotatedAtoms>
  152.1144  133.4318  159.4645 H   0  0  0  0  0  0  0  0  0  0  0  0  # atno 6907 bound_to 6896
  150.6869  134.2609  159.4558 H   0  0  0  0  0  0  0  0  0  0  0  0  # atno 6908 bound_to 6896
  152.0481  134.9670  160.0625 H   0  0  0  0  0  0  0  0  0  0  0  0  # atno 6909 bound_to 6896
  145.9271  139.3776  143.0443 H   0  0  0  0  0  0  0  0  0  0  0  0  # atno 7974 bound_to 7965
  156.0482  140.3311  155.7320 H   0  0  0  0  0  0  0  0  0  0  0  0  # atno 8008 bound_to 7997
  155.5642  140.0622  157.2839 H   0  0  0  0  0  0  0  0  0  0  0  0  # atno 8009 bound_to 7997
  154.4423  140.1872  156.0801 H   0  0  0  0  0  0  0  0  0  0  0  0  # atno 8010 bound_to 7997
  140.2991  144.2955  150.6223 H   0  0  0  0  0  0  0  0  0  0  0  0  # atno 10167 bound_to 10162
  157.5654  130.8867  149.9178 H   0  0  0  0  0  0  0  0  0  0  0  0  # atno 10718 bound_to 10713
  154.3337  135.2754  155.2458 H   0  0  0  0  0  0  0  0  0  0  0  0  # atno 10763 bound_to 10752
  154.4759  135.5871  153.6358 H   0  0  0  0  0  0  0  0  0  0  0  0  # atno 10764 bound_to 10752
  152.9864  135.6099  154.3532 H   0  0  0  0  0  0  0  0  0  0  0  0  # atno 10765 bound_to 10752
  140.7097  134.3846  157.5199 H   0  0  0  0  0  0  0  0  0  0  0  0  # atno 11005 bound_to 11000
  145.8475  140.9547  143.0767 LP  0  0  0  0  0  0  0  0  0  0  0  0  # atno 17320 bound_to 7965
  144.6760  140.0364  143.7481 LP  0  0  0  0  0  0  0  0  0  0  0  0  # atno 17321 bound_to 7965
  140.5667  143.2185  151.7672 LP  0  0  0  0  0  0  0  0  0  0  0  0  # atno 17342 bound_to 10162
  139.4919  144.4274  151.9910 LP  0  0  0  0  0  0  0  0  0  0  0  0  # atno 17343 bound_to 10162
  156.0702  130.3686  150.0791 LP  0  0  0  0  0  0  0  0  0  0  0  0  # atno 17370 bound_to 10713
  156.8950  130.9601  151.3583 LP  0  0  0  0  0  0  0  0  0  0  0  0  # atno 17371 bound_to 10713
  139.8875  134.8881  156.2526 LP  0  0  0  0  0  0  0  0  0  0  0  0  # atno 17394 bound_to 11000
  141.0095  133.7104  156.1088 LP  0  0  0  0  0  0  0  0  0  0  0  0  # atno 17395 bound_to 11000

$$$$
