AV-unprocessed.smi:2650|AV-procd|sdf|10291|dock1
  -GOLD-   2272014303D 1   1.00000     0.00000
 Structure written by MMmdl.
 33 34  0  0  0  0  0  0  0  0  1 V2000
  144.6267  136.8010  152.3563 O   0  0  0  0  0  0  0  0  0  0  0  0
  145.8290  136.5692  152.2249 C   0  0  0  0  0  0  0  0  0  0  0  0
  146.7908  137.4175  152.6166 N   0  0  0  0  0  0  0  0  0  0  0  0
  146.5549  138.7087  153.2504 C   0  0  0  0  0  0  0  0  0  0  0  0
  147.6890  139.7028  152.9396 C   0  0  0  0  0  0  0  0  0  0  0  0
  148.1068  140.4298  154.1415 N   0  0  0  0  0  0  0  0  0  0  0  0
  149.3669  140.4679  154.5967 C   0  0  0  0  0  0  0  0  0  0  0  0
  150.3409  139.9086  154.0936 O   0  0  0  0  0  0  0  0  0  0  0  0
  149.4680  141.3211  155.8539 C   0  0  0  0  0  0  0  0  0  0  0  0
  148.0274  141.7975  156.0660 C   0  0  0  0  0  0  0  0  0  0  0  0
  147.2799  141.1616  154.9017 C   0  0  0  0  0  0  0  0  0  0  0  0
  146.0749  141.3279  154.7169 O   0  0  0  0  0  0  0  0  0  0  0  0
  146.3521  135.4546  151.6841 N   0  0  0  0  0  0  0  0  0  0  0  0
  145.6646  134.3257  151.1640 C   0  0  0  0  0  0  0  0  0  0  0  0
  146.4926  133.3224  150.6114 C   0  0  0  0  0  0  0  0  0  0  0  0
  145.9073  132.1618  150.0694 C   0  0  0  0  0  0  0  0  0  0  0  0
  144.5069  132.0341  150.0941 C   0  0  0  0  0  0  0  0  0  0  0  0
  143.7558  133.0788  150.6630 C   0  0  0  0  0  0  0  0  0  0  0  0
  144.3147  134.1919  151.1827 N   0  0  0  0  0  0  0  0  0  0  0  0
  147.7535  137.1502  152.4716 H   0  0  0  0  0  0  0  0  0  0  0  0
  145.6053  139.0971  152.8816 H   0  0  0  0  0  0  0  0  0  0  0  0
  146.4396  138.5787  154.3280 H   0  0  0  0  0  0  0  0  0  0  0  0
  148.5451  139.1772  152.5124 H   0  0  0  0  0  0  0  0  0  0  0  0
  147.3660  140.4065  152.1703 H   0  0  0  0  0  0  0  0  0  0  0  0
  149.8272  140.7245  156.6931 H   0  0  0  0  0  0  0  0  0  0  0  0
  150.1526  142.1549  155.6950 H   0  0  0  0  0  0  0  0  0  0  0  0
  147.6201  141.4502  157.0161 H   0  0  0  0  0  0  0  0  0  0  0  0
  147.9471  142.8842  156.0239 H   0  0  0  0  0  0  0  0  0  0  0  0
  147.3593  135.4059  151.6434 H   0  0  0  0  0  0  0  0  0  0  0  0
  147.5670  133.4363  150.6010 H   0  0  0  0  0  0  0  0  0  0  0  0
  146.5228  131.3834  149.6431 H   0  0  0  0  0  0  0  0  0  0  0  0
  144.0214  131.1590  149.6881 H   0  0  0  0  0  0  0  0  0  0  0  0
  142.6781  133.0203  150.7025 H   0  0  0  0  0  0  0  0  0  0  0  0
  1  2  2  0  0  0  0
  2  3  1  0  0  0  0
  2 13  1  0  0  0  0
  3  4  1  0  0  0  0
  3 20  1  0  0  0  0
  4  5  1  0  0  0  0
  4 21  1  0  0  0  0
  4 22  1  0  0  0  0
  5  6  1  0  0  0  0
  5 23  1  0  0  0  0
  5 24  1  0  0  0  0
  6 11  1  0  0  0  0
  6  7  1  0  0  0  0
  7  8  2  0  0  0  0
  7  9  1  0  0  0  0
  9 10  1  0  0  0  0
  9 25  1  0  0  0  0
  9 26  1  0  0  0  0
 10 11  1  0  0  0  0
 10 27  1  0  0  0  0
 10 28  1  0  0  0  0
 11 12  2  0  0  0  0
 13 14  1  0  0  0  0
 13 29  1  0  0  0  0
 14 19  1  0  0  0  0
 14 15  2  0  0  0  0
 15 16  1  0  0  0  0
 15 30  1  0  0  0  0
 16 17  2  0  0  0  0
 16 31  1  0  0  0  0
 17 18  1  0  0  0  0
 17 32  1  0  0  0  0
 18 19  2  0  0  0  0
 18 33  1  0  0  0  0
M  END
> <s_m_source_file>
AV-unprocessed.smi

> <i_m_source_file_index>
2650

> <i_lp_mmshare_version>
43012

> <i_f3d_flags>
0

> <s_epik_input>
bjFbY0hdW2NIXVtjSF1bY0hdYzFbTkhdQyg9TylbTkhdW0NIMl1bQ0gyXU4yQyg9TylbQ0gyXVtDSDJdQzI9Tw==

> <s_epik_cmdline>
J2VwaWtfcHl0aG9uJywgJy1waCcsICc3LjAnLCAnLXRuJywgJzgnLCAnLW1hJywgJzIwMCcsICctbWV0YWxfYmluZGluZycsICctaW1hZScsICc8aW5maWxlLm1hZT4nLCAnLW9tYWUnLCAnPG91dGZpbGUubWFlPic=

> <r_lp_tautomer_probability>
1

> <r_epik_Ionization_Penalty>
4.11926e-05

> <r_epik_Ionization_Penalty_Charging>
0

> <r_epik_Ionization_Penalty_Neutral>
4.11926e-05

> <r_epik_State_Penalty>
-0

> <r_epik_Charging_Adjusted_Penalty>
0

> <i_epik_Tot_Q>
0

> <i_epik_Tot_abs_Q>
0

> <r_epik_Metal_State_Penalty>
-0

> <b_epik_Metal_Only>
0

> <s_lp_Force_Field>
OPLS_2005

> <r_lp_Energy>
11.0549

> <b_lp_Chiralities_Consistent>
1

> <s_lp_Variant>
AV-unprocessed.smi:2650-1

> <Gold.Version>
5.8.1

> <Gold.Id.Protein>
6NUR|6NUR_protein|mol2

> <Gold.PLP.Fitness>
41.1346

> <Gold.PLP.PLP>
-30.1619

> <Gold.PLP.part.hbond>
-3.0000

> <Gold.PLP.part.metal>
0.0000

> <Gold.PLP.part.buried>
-0.9783

> <Gold.PLP.part.nonpolar>
-27.2895

> <Gold.PLP.part.repulsive>
1.3882

> <Gold.PLP.ligand.clash>
0.0000

> <Gold.PLP.ligand.torsion>
0.5202

> <Gold.PLP.Chemscore.Hbond>
2.9920

> <Gold.PLP.Chemscore.CHOScore>
1.0000

> <Gold.PLP.Chemscore.Metal>
0.0000

> <Gold.Chemscore.Hbonds>
donor molecule, donor type, donor heavy atom, donor atom, acceptor molecule, acceptor atom, score
      L1  H     3    20       P1  7948  1.00
      L1  H    13    29       P1  7948  0.99
      P1  H  7989  7998       L1     8  1.00
      L1  C    18    33       P1 10186  0.99

> <Gold.PLP.Chemscore.Internal.Correction>
0.0371

> <Gold.Rescore>
     Score         DG    S(hbond)    S(metal)    S(lipo)     H(rot)  DE(clash)    DE(int)     intcor
     15.38     -17.23       2.93        0.00      56.24       1.80       0.07       1.78       ----

> <Gold.Chemscore.Fitness>
15.3755

> <Gold.Chemscore.DG>
-17.2343

> <Gold.Chemscore.ZeroCoef>
-5.4800

> <Gold.Chemscore.Hbond>
2.9265

> <Gold.Chemscore.Metal>
0.0000

> <Gold.Chemscore.Lipo>
56.2379

> <Gold.Chemscore.Internal_Hbond>
0.0000

> <Gold.Chemscore.DEClash>
0.0747

> <Gold.Chemscore.DEInternal>
1.7842

> <Gold.Chemscore.Rot>
1.7968

> <Gold.Chemscore.Internal.Correction>
   9.000000E+99

> <Gold.Chemscore.Hbonds>
donor molecule, donor type, donor heavy atom, donor atom, acceptor molecule, acceptor atom, score
      L1  H     3    20       P1  7948  0.97
      L1  H    13    29       P1  7948  0.91
      P1  H  7989  7998       L1     8  0.94

> <Gold.Chemscore.Hbond.Weighted>
-9.7744

> <Gold.Chemscore.Metal.Weighted>
-0.0000

> <Gold.Chemscore.Lipo.Weighted>
-6.5798

> <Gold.Chemscore.Internal_Hbond.Weighted>
0.0000

> <Gold.Chemscore.DEClash.Weighted>
0.0747

> <Gold.Chemscore.DEInternal.Weighted>
1.7842

> <Gold.Chemscore.Rot.Weighted>
4.5999

> <Gold.Chemscore.Internal.Correction.Weighted>
   9.000000E+99

> <Gold.Protein.RotatedTorsions>
[ 6907 6896 6895 6894 ] final  167.05 input  -60.11 | X-H torsion
[ 7974 7965 7964 7962 ] final  -80.43 input  175.53 | X-H torsion
[ 8008 7997 7996 7995 ] final   78.32 input   59.86 | X-H torsion
[ 10167 10162 10161 10158 ] final -160.05 input  -65.29 | X-H torsion
[ 10718 10713 10712 10709 ] final  -55.42 input   66.30 | X-H torsion
[ 10763 10752 10751 10750 ] final  -44.18 input  -60.55 | X-H torsion
[ 11005 11000 10999 10996 ] final -156.50 input  -57.11 | X-H torsion

> <Gold.Protein.ActiveResidues>
 VAL166  LYS551  ARG553  GLY616  TRP617  ASP618  TYR619  PRO620  LYS621  CYS622 
 ASP623  PHE694  ASN695  SER759  ASP760  ASP761  ALA762  ILE779  LEU786  VAL792 
 PHE793  MET794  SER795  GLU796  ALA797  LYS798  CYS799  TRP800  GLU811  SER814 

> <Gold.Protein.RotatedAtoms>
  151.8693  133.3472  159.3729 H   0  0  0  0  0  0  0  0  0  0  0  0  # atno 6907 bound_to 6896
  150.7157  134.5128  159.5625 H   0  0  0  0  0  0  0  0  0  0  0  0  # atno 6908 bound_to 6896
  152.2658  134.7986  160.0474 H   0  0  0  0  0  0  0  0  0  0  0  0  # atno 6909 bound_to 6896
  145.5601  140.9483  143.1452 H   0  0  0  0  0  0  0  0  0  0  0  0  # atno 7974 bound_to 7965
  155.8541  140.3457  155.5713 H   0  0  0  0  0  0  0  0  0  0  0  0  # atno 8008 bound_to 7997
  155.8005  140.0884  157.1979 H   0  0  0  0  0  0  0  0  0  0  0  0  # atno 8009 bound_to 7997
  154.4009  140.1466  156.3256 H   0  0  0  0  0  0  0  0  0  0  0  0  # atno 8010 bound_to 7997
  139.6569  143.9983  152.2199 H   0  0  0  0  0  0  0  0  0  0  0  0  # atno 10167 bound_to 10162
  156.1370  130.4156  150.0168 H   0  0  0  0  0  0  0  0  0  0  0  0  # atno 10718 bound_to 10713
  154.0078  135.6685  153.4763 H   0  0  0  0  0  0  0  0  0  0  0  0  # atno 10763 bound_to 10752
  153.0634  135.5015  154.8141 H   0  0  0  0  0  0  0  0  0  0  0  0  # atno 10764 bound_to 10752
  154.7014  135.3079  154.9299 H   0  0  0  0  0  0  0  0  0  0  0  0  # atno 10765 bound_to 10752
  140.6749  134.4208  157.5230 H   0  0  0  0  0  0  0  0  0  0  0  0  # atno 11005 bound_to 11000
  144.7487  139.7251  143.7282 LP  0  0  0  0  0  0  0  0  0  0  0  0  # atno 17320 bound_to 7965
  146.1857  139.5071  142.9837 LP  0  0  0  0  0  0  0  0  0  0  0  0  # atno 17321 bound_to 7965
  139.9712  144.6492  150.7988 LP  0  0  0  0  0  0  0  0  0  0  0  0  # atno 17342 bound_to 10162
  140.7563  143.3063  151.2954 LP  0  0  0  0  0  0  0  0  0  0  0  0  # atno 17343 bound_to 10162
  156.8065  130.9309  151.3645 LP  0  0  0  0  0  0  0  0  0  0  0  0  # atno 17370 bound_to 10713
  157.6541  130.8909  149.9693 LP  0  0  0  0  0  0  0  0  0  0  0  0  # atno 17371 bound_to 10713
  139.8970  134.8647  156.2064 LP  0  0  0  0  0  0  0  0  0  0  0  0  # atno 17394 bound_to 11000
  141.0363  133.6961  156.1519 LP  0  0  0  0  0  0  0  0  0  0  0  0  # atno 17395 bound_to 11000

$$$$
