AV-unprocessed.smi:1097|AV-procd|sdf|4751|dock10
  -GOLD-   22720 3283D 1   1.00000     0.00000
 Structure written by MMmdl.
 40 41  0  0  0  0  0  0  0  0  1 V2000
  150.5754  138.7279  154.4141 C   0  0  0  0  0  0  0  0  0  0  0  0
  150.8995  140.0641  154.7558 O   0  0  0  0  0  0  0  0  0  0  0  0
  151.9094  140.1404  155.7478 C   0  0  0  0  0  0  0  0  0  0  0  0
  151.2561  140.0849  157.1313 C   0  0  0  0  0  0  0  0  0  0  0  0
  152.1905  140.5646  158.0930 O   0  0  0  0  0  0  0  0  0  0  0  0
  152.1610  141.9006  158.4474 C   0  0  0  0  0  0  0  0  0  0  0  0
  151.4357  142.7471  157.6724 N   0  0  0  0  0  0  0  0  0  0  0  0
  151.3848  144.0520  158.0081 C   0  0  0  0  0  0  0  0  0  0  0  0
  152.0499  144.5845  159.1268 C   0  0  0  0  0  0  0  0  0  0  0  0
  152.8031  143.7117  159.9328 C   0  0  0  0  0  0  0  0  0  0  0  0
  152.8624  142.3381  159.6014 C   0  0  0  0  0  0  0  0  0  0  0  0
  153.6801  141.3897  160.4340 C   0  0  0  0  0  0  0  0  0  0  0  0
  154.1172  141.7189  161.5370 O   0  0  0  0  0  0  0  0  0  0  0  0
  153.9198  140.1947  159.8706 N   0  0  0  0  0  0  0  0  0  0  0  0
  154.7042  139.1249  160.4804 C   0  0  2  0  0  0  0  0  0  0  0  0
  154.5004  137.7863  159.7534 C   0  0  0  0  0  0  0  0  0  0  0  0
  154.2578  136.7984  160.8819 C   0  0  0  0  0  0  0  0  0  0  0  0
  154.1595  135.5861  160.6988 O   0  0  0  0  0  0  0  0  0  0  0  0
  154.1743  137.4261  162.0586 N   0  0  0  0  0  0  0  0  0  0  0  0
  153.9424  136.7905  163.3482 C   0  0  0  0  0  0  0  0  0  0  0  0
  154.2875  138.8692  161.9429 C   0  0  0  0  0  0  0  0  0  0  0  0
  149.7907  138.7233  153.6577 H   0  0  0  0  0  0  0  0  0  0  0  0
  150.2090  138.1770  155.2814 H   0  0  0  0  0  0  0  0  0  0  0  0
  151.4404  138.2037  154.0057 H   0  0  0  0  0  0  0  0  0  0  0  0
  152.6081  139.3101  155.6338 H   0  0  0  0  0  0  0  0  0  0  0  0
  152.4758  141.0666  155.6385 H   0  0  0  0  0  0  0  0  0  0  0  0
  150.3530  140.6977  157.1373 H   0  0  0  0  0  0  0  0  0  0  0  0
  150.9708  139.0566  157.3603 H   0  0  0  0  0  0  0  0  0  0  0  0
  150.7971  144.6908  157.3655 H   0  0  0  0  0  0  0  0  0  0  0  0
  151.9871  145.6375  159.3584 H   0  0  0  0  0  0  0  0  0  0  0  0
  153.3306  144.1018  160.7912 H   0  0  0  0  0  0  0  0  0  0  0  0
  153.5366  140.0157  158.9537 H   0  0  0  0  0  0  0  0  0  0  0  0
  155.7649  139.3810  160.4433 H   0  0  0  0  0  0  0  0  0  0  0  0
  153.6296  137.7973  159.0963 H   0  0  0  0  0  0  0  0  0  0  0  0
  155.3745  137.5037  159.1656 H   0  0  0  0  0  0  0  0  0  0  0  0
  154.7064  136.0379  163.5479 H   0  0  0  0  0  0  0  0  0  0  0  0
  152.9669  136.3032  163.3632 H   0  0  0  0  0  0  0  0  0  0  0  0
  153.9685  137.5214  164.1573 H   0  0  0  0  0  0  0  0  0  0  0  0
  155.0244  139.2648  162.6430 H   0  0  0  0  0  0  0  0  0  0  0  0
  153.3209  139.3172  162.1795 H   0  0  0  0  0  0  0  0  0  0  0  0
  1  2  1  0  0  0  0
  1 22  1  0  0  0  0
  1 23  1  0  0  0  0
  1 24  1  0  0  0  0
  2  3  1  0  0  0  0
  3  4  1  0  0  0  0
  3 25  1  0  0  0  0
  3 26  1  0  0  0  0
  4  5  1  0  0  0  0
  4 27  1  0  0  0  0
  4 28  1  0  0  0  0
  5  6  1  0  0  0  0
  6 11  1  0  0  0  0
  6  7  2  0  0  0  0
  7  8  1  0  0  0  0
  8  9  2  0  0  0  0
  8 29  1  0  0  0  0
  9 10  1  0  0  0  0
  9 30  1  0  0  0  0
 10 11  2  0  0  0  0
 10 31  1  0  0  0  0
 11 12  1  0  0  0  0
 12 13  2  0  0  0  0
 12 14  1  0  0  0  0
 14 15  1  0  0  0  0
 14 32  1  0  0  0  0
 15 21  1  0  0  0  0
 15 16  1  0  0  0  0
 15 33  1  0  0  0  0
 16 17  1  0  0  0  0
 16 34  1  0  0  0  0
 16 35  1  0  0  0  0
 17 18  2  0  0  0  0
 17 19  1  0  0  0  0
 19 20  1  0  0  0  0
 19 21  1  0  0  0  0
 20 36  1  0  0  0  0
 20 37  1  0  0  0  0
 20 38  1  0  0  0  0
 21 39  1  0  0  0  0
 21 40  1  0  0  0  0
M  END
> <s_m_source_file>
AV-unprocessed.smi

> <i_m_source_file_index>
1097

> <i_lp_mmshare_version>
43012

> <i_f3d_flags>
0

> <s_epik_input>
W0NIM11PW0NIMl1bQ0gyXU9jMW5bY0hdW2NIXVtjSF1jMUMoPU8pW05IXVtDQEBIXTJbQ0gyXUMoPU8pTihbQ0gzXSlbQ0gyXTI=

> <s_epik_cmdline>
J2VwaWtfcHl0aG9uJywgJy1waCcsICc3LjAnLCAnLXRuJywgJzgnLCAnLW1hJywgJzIwMCcsICctbWV0YWxfYmluZGluZycsICctaW1hZScsICc8aW5maWxlLm1hZT4nLCAnLW9tYWUnLCAnPG91dGZpbGUubWFlPic=

> <r_lp_tautomer_probability>
1

> <r_epik_Ionization_Penalty>
2.30122e-06

> <r_epik_Ionization_Penalty_Charging>
0

> <r_epik_Ionization_Penalty_Neutral>
2.30122e-06

> <r_epik_State_Penalty>
-0

> <r_epik_Charging_Adjusted_Penalty>
0

> <i_epik_Tot_Q>
0

> <i_epik_Tot_abs_Q>
0

> <r_epik_Metal_State_Penalty>
-0

> <b_epik_Metal_Only>
0

> <s_lp_Force_Field>
OPLS_2005

> <r_lp_Energy>
19.8502

> <b_lp_Chiralities_Consistent>
1

> <s_lp_Variant>
AV-unprocessed.smi:1097-1

> <Gold.Version>
5.8.1

> <Gold.Id.Protein>
6NUR|6NUR_protein|mol2

> <Gold.PLP.Fitness>
51.6407

> <Gold.PLP.PLP>
-44.2921

> <Gold.PLP.part.hbond>
-2.9322

> <Gold.PLP.part.metal>
0.0000

> <Gold.PLP.part.buried>
-5.3680

> <Gold.PLP.part.nonpolar>
-36.1335

> <Gold.PLP.part.repulsive>
0.2166

> <Gold.PLP.ligand.clash>
0.0000

> <Gold.PLP.ligand.torsion>
0.8484

> <Gold.PLP.Chemscore.Hbond>
1.9913

> <Gold.PLP.Chemscore.CHOScore>
1.0000

> <Gold.PLP.Chemscore.Metal>
0.0000

> <Gold.Chemscore.Hbonds>
donor molecule, donor type, donor heavy atom, donor atom, acceptor molecule, acceptor atom, score
      P1  H  6896  6909       L1    18  0.96
      P1  H  7989  7998       L1     2  1.00
      L1  C     8    29       P1  8028  1.00

> <Gold.PLP.Chemscore.Internal.Correction>
0.0717

> <Gold.Rescore>
     Score         DG    S(hbond)    S(metal)    S(lipo)     H(rot)  DE(clash)    DE(int)     intcor
     15.61     -17.82       1.91        0.00      93.65       1.95       0.00       2.21       ----

> <Gold.Chemscore.Fitness>
15.6079

> <Gold.Chemscore.DG>
-17.8201

> <Gold.Chemscore.ZeroCoef>
-5.4800

> <Gold.Chemscore.Hbond>
1.9064

> <Gold.Chemscore.Metal>
0.0000

> <Gold.Chemscore.Lipo>
93.6454

> <Gold.Chemscore.Internal_Hbond>
0.0000

> <Gold.Chemscore.DEClash>
0.0004

> <Gold.Chemscore.DEInternal>
2.2118

> <Gold.Chemscore.Rot>
1.9468

> <Gold.Chemscore.Internal.Correction>
   9.000000E+99

> <Gold.Chemscore.Hbonds>
donor molecule, donor type, donor heavy atom, donor atom, acceptor molecule, acceptor atom, score
      P1  H  6896  6909       L1    18  0.91
      P1  H  7989  7998       L1     2  0.25

> <Gold.Chemscore.Hbond.Weighted>
-6.3675

> <Gold.Chemscore.Metal.Weighted>
-0.0000

> <Gold.Chemscore.Lipo.Weighted>
-10.9565

> <Gold.Chemscore.Internal_Hbond.Weighted>
0.0000

> <Gold.Chemscore.DEClash.Weighted>
0.0004

> <Gold.Chemscore.DEInternal.Weighted>
2.2118

> <Gold.Chemscore.Rot.Weighted>
4.9839

> <Gold.Chemscore.Internal.Correction.Weighted>
   9.000000E+99

> <Gold.Protein.RotatedTorsions>
[ 6907 6896 6895 6894 ] final -179.08 input  -60.11 | X-H torsion
[ 7974 7965 7964 7962 ] final   71.98 input  175.53 | X-H torsion
[ 8008 7997 7996 7995 ] final   21.46 input   59.86 | X-H torsion
[ 10167 10162 10161 10158 ] final  130.84 input  -65.29 | X-H torsion
[ 10718 10713 10712 10709 ] final  119.33 input   66.30 | X-H torsion
[ 10763 10752 10751 10750 ] final   30.58 input  -60.55 | X-H torsion
[ 11005 11000 10999 10996 ] final   18.14 input  -57.11 | X-H torsion

> <Gold.Protein.ActiveResidues>
 VAL166  LYS551  ARG553  GLY616  TRP617  ASP618  TYR619  PRO620  LYS621  CYS622 
 ASP623  PHE694  ASN695  SER759  ASP760  ASP761  ALA762  ILE779  LEU786  VAL792 
 PHE793  MET794  SER795  GLU796  ALA797  LYS798  CYS799  TRP800  GLU811  SER814 

> <Gold.Protein.RotatedAtoms>
  151.6477  133.3322  159.3144 H   0  0  0  0  0  0  0  0  0  0  0  0  # atno 6907 bound_to 6896
  150.7976  134.7050  159.6581 H   0  0  0  0  0  0  0  0  0  0  0  0  # atno 6908 bound_to 6896
  152.4065  134.6203  160.0100 H   0  0  0  0  0  0  0  0  0  0  0  0  # atno 6909 bound_to 6896
  145.7590  139.2792  143.1387 H   0  0  0  0  0  0  0  0  0  0  0  0  # atno 7974 bound_to 7965
  154.9509  140.3065  155.5076 H   0  0  0  0  0  0  0  0  0  0  0  0  # atno 8008 bound_to 7997
  156.2987  140.2319  156.4524 H   0  0  0  0  0  0  0  0  0  0  0  0  # atno 8009 bound_to 7997
  154.8056  140.0431  157.1293 H   0  0  0  0  0  0  0  0  0  0  0  0  # atno 8010 bound_to 7997
  139.5411  144.6731  151.4621 H   0  0  0  0  0  0  0  0  0  0  0  0  # atno 10167 bound_to 10162
  157.5969  131.1057  150.7881 H   0  0  0  0  0  0  0  0  0  0  0  0  # atno 10718 bound_to 10713
  153.0364  135.6460  154.1066 H   0  0  0  0  0  0  0  0  0  0  0  0  # atno 10763 bound_to 10752
  154.0780  135.2875  155.3297 H   0  0  0  0  0  0  0  0  0  0  0  0  # atno 10764 bound_to 10752
  154.6549  135.5412  153.8011 H   0  0  0  0  0  0  0  0  0  0  0  0  # atno 10765 bound_to 10752
  140.4282  134.1448  155.7678 H   0  0  0  0  0  0  0  0  0  0  0  0  # atno 11005 bound_to 11000
  146.0282  140.8283  142.9889 LP  0  0  0  0  0  0  0  0  0  0  0  0  # atno 17320 bound_to 7965
  144.6834  140.2730  143.7303 LP  0  0  0  0  0  0  0  0  0  0  0  0  # atno 17321 bound_to 7965
  140.6641  143.8435  150.6922 LP  0  0  0  0  0  0  0  0  0  0  0  0  # atno 17342 bound_to 10162
  140.1838  143.4092  152.1913 LP  0  0  0  0  0  0  0  0  0  0  0  0  # atno 17343 bound_to 10162
  156.8290  130.5009  149.5334 LP  0  0  0  0  0  0  0  0  0  0  0  0  # atno 17370 bound_to 10713
  156.1033  130.5985  150.9930 LP  0  0  0  0  0  0  0  0  0  0  0  0  # atno 17371 bound_to 10713
  141.1756  133.8520  157.1430 LP  0  0  0  0  0  0  0  0  0  0  0  0  # atno 17394 bound_to 11000
  140.0153  134.9970  157.0480 LP  0  0  0  0  0  0  0  0  0  0  0  0  # atno 17395 bound_to 11000

$$$$
