AV-unprocessed.smi:1617|AV-procd|sdf|6485|dock7
  -GOLD-   22720 7143D 1   1.00000     0.00000
 Structure written by MMmdl.
 47 49  0  0  0  0  0  0  0  0  1 V2000
  146.3883  138.0173  155.0714 O   0  0  0  0  0  0  0  0  0  0  0  0
  147.1569  137.6735  154.1736 C   0  0  0  0  0  0  0  0  0  0  0  0
  148.4401  138.0554  154.0585 N   0  0  0  0  0  0  0  0  0  0  0  0
  149.1974  138.8858  154.9278 C   0  0  0  0  0  0  0  0  0  0  0  0
  148.9773  138.7684  156.3135 C   0  0  0  0  0  0  0  0  0  0  0  0
  149.7010  139.5894  157.1984 C   0  0  0  0  0  0  0  0  0  0  0  0
  150.6277  140.5206  156.6739 C   0  0  0  0  0  0  0  0  0  0  0  0
  151.3670  141.3530  157.5422 N   0  0  0  0  0  0  0  0  0  0  0  0
  151.0586  142.7790  157.4673 C   0  0  0  0  0  0  0  0  0  0  0  0
  152.1251  143.5975  158.2155 C   0  0  0  0  0  0  0  0  0  0  0  0
  152.2445  143.1269  159.5538 O   0  0  0  0  0  0  0  0  0  0  0  0
  152.6562  141.7647  159.6006 C   0  0  0  0  0  0  0  0  0  0  0  0
  151.6058  140.8823  158.9054 C   0  0  0  0  0  0  0  0  0  0  0  0
  150.8230  140.6486  155.3386 N   0  0  0  0  0  0  0  0  0  0  0  0
  150.1299  139.8570  154.4929 C   0  0  0  0  0  0  0  0  0  0  0  0
  146.7995  136.8687  153.1616 N   0  0  0  0  0  0  0  0  0  0  0  0
  145.4795  136.2576  152.9882 C   0  0  1  0  0  0  0  0  0  0  0  0
  145.5335  135.3821  151.7152 C   0  0  0  0  0  0  0  0  0  0  0  0
  144.1539  135.1100  151.0907 C   0  0  0  0  0  0  0  0  0  0  0  0
  143.2022  134.2732  151.9588 C   0  0  0  0  0  0  0  0  0  0  0  0
  142.8305  134.9436  153.2925 C   0  0  0  0  0  0  0  0  0  0  0  0
  143.8971  134.8321  154.2786 N   0  0  0  0  0  0  0  0  0  0  0  0
  145.1248  135.3678  154.2024 C   0  0  0  0  0  0  0  0  0  0  0  0
  145.9546  135.1472  155.0845 O   0  0  0  0  0  0  0  0  0  0  0  0
  148.9191  137.7543  153.2224 H   0  0  0  0  0  0  0  0  0  0  0  0
  148.2625  138.0562  156.6990 H   0  0  0  0  0  0  0  0  0  0  0  0
  149.5265  139.5063  158.2605 H   0  0  0  0  0  0  0  0  0  0  0  0
  151.0026  143.1277  156.4372 H   0  0  0  0  0  0  0  0  0  0  0  0
  150.0780  142.9494  157.9134 H   0  0  0  0  0  0  0  0  0  0  0  0
  153.0894  143.5340  157.7085 H   0  0  0  0  0  0  0  0  0  0  0  0
  151.8447  144.6507  158.2331 H   0  0  0  0  0  0  0  0  0  0  0  0
  153.6335  141.6521  159.1282 H   0  0  0  0  0  0  0  0  0  0  0  0
  152.7697  141.4629  160.6418 H   0  0  0  0  0  0  0  0  0  0  0  0
  150.6697  140.9048  159.4651 H   0  0  0  0  0  0  0  0  0  0  0  0
  151.9546  139.8488  158.8922 H   0  0  0  0  0  0  0  0  0  0  0  0
  150.3254  140.0364  153.4474 H   0  0  0  0  0  0  0  0  0  0  0  0
  147.4975  136.6388  152.4698 H   0  0  0  0  0  0  0  0  0  0  0  0
  144.7343  137.0467  152.8706 H   0  0  0  0  0  0  0  0  0  0  0  0
  146.1299  135.8931  150.9574 H   0  0  0  0  0  0  0  0  0  0  0  0
  146.0531  134.4417  151.9083 H   0  0  0  0  0  0  0  0  0  0  0  0
  143.6765  136.0583  150.8407 H   0  0  0  0  0  0  0  0  0  0  0  0
  144.2989  134.5934  150.1415 H   0  0  0  0  0  0  0  0  0  0  0  0
  142.2869  134.1051  151.3906 H   0  0  0  0  0  0  0  0  0  0  0  0
  143.6270  133.2846  152.1393 H   0  0  0  0  0  0  0  0  0  0  0  0
  142.5507  135.9879  153.1467 H   0  0  0  0  0  0  0  0  0  0  0  0
  141.9549  134.4471  153.7107 H   0  0  0  0  0  0  0  0  0  0  0  0
  143.6948  134.2666  155.0904 H   0  0  0  0  0  0  0  0  0  0  0  0
  1  2  2  0  0  0  0
  2  3  1  0  0  0  0
  2 16  1  0  0  0  0
  3  4  1  0  0  0  0
  3 25  1  0  0  0  0
  4 15  1  0  0  0  0
  4  5  2  0  0  0  0
  5  6  1  0  0  0  0
  5 26  1  0  0  0  0
  6  7  2  0  0  0  0
  6 27  1  0  0  0  0
  7  8  1  0  0  0  0
  7 14  1  0  0  0  0
  8 13  1  0  0  0  0
  8  9  1  0  0  0  0
  9 10  1  0  0  0  0
  9 28  1  0  0  0  0
  9 29  1  0  0  0  0
 10 11  1  0  0  0  0
 10 30  1  0  0  0  0
 10 31  1  0  0  0  0
 11 12  1  0  0  0  0
 12 13  1  0  0  0  0
 12 32  1  0  0  0  0
 12 33  1  0  0  0  0
 13 34  1  0  0  0  0
 13 35  1  0  0  0  0
 14 15  2  0  0  0  0
 15 36  1  0  0  0  0
 16 17  1  0  0  0  0
 16 37  1  0  0  0  0
 17 23  1  0  0  0  0
 17 18  1  0  0  0  0
 17 38  1  0  0  0  0
 18 19  1  0  0  0  0
 18 39  1  0  0  0  0
 18 40  1  0  0  0  0
 19 20  1  0  0  0  0
 19 41  1  0  0  0  0
 19 42  1  0  0  0  0
 20 21  1  0  0  0  0
 20 43  1  0  0  0  0
 20 44  1  0  0  0  0
 21 22  1  0  0  0  0
 21 45  1  0  0  0  0
 21 46  1  0  0  0  0
 22 23  1  0  0  0  0
 22 47  1  0  0  0  0
 23 24  2  0  0  0  0
M  END
> <s_m_source_file>
AV-unprocessed.smi

> <i_m_source_file_index>
1617

> <i_lp_mmshare_version>
43012

> <i_f3d_flags>
0

> <s_epik_input>
Tz1DMVtOSF1bQ0gyXVtDSDJdW0NIMl1bQ0gyXVtDQEhdMVtOSF1DKD1PKVtOSF1jMltjSF1bY0hdYyhuW2NIXTIpTjNbQ0gyXVtDSDJdT1tDSDJdW0NIMl0z

> <s_epik_cmdline>
J2VwaWtfcHl0aG9uJywgJy1waCcsICc3LjAnLCAnLXRuJywgJzgnLCAnLW1hJywgJzIwMCcsICctbWV0YWxfYmluZGluZycsICctaW1hZScsICc8aW5maWxlLm1hZT4nLCAnLW9tYWUnLCAnPG91dGZpbGUubWFlPic=

> <r_lp_tautomer_probability>
1

> <r_epik_Ionization_Penalty>
0.00171733

> <r_epik_Ionization_Penalty_Charging>
0

> <r_epik_Ionization_Penalty_Neutral>
0.00171733

> <r_epik_State_Penalty>
0.00113787

> <r_epik_Charging_Adjusted_Penalty>
0.00113787

> <i_epik_Tot_Q>
0

> <i_epik_Tot_abs_Q>
0

> <r_epik_Metal_State_Penalty>
-0

> <b_epik_Metal_Only>
0

> <s_lp_Force_Field>
OPLS_2005

> <r_lp_Energy>
26.8457

> <b_lp_Chiralities_Consistent>
1

> <s_lp_Variant>
AV-unprocessed.smi:1617-2

> <Gold.Version>
5.8.1

> <Gold.Id.Protein>
6NUR|6NUR_protein|mol2

> <Gold.PLP.Fitness>
39.4617

> <Gold.PLP.PLP>
-31.9504

> <Gold.PLP.part.hbond>
-3.1066

> <Gold.PLP.part.metal>
0.0000

> <Gold.PLP.part.buried>
-5.0312

> <Gold.PLP.part.nonpolar>
-24.6989

> <Gold.PLP.part.repulsive>
0.1674

> <Gold.PLP.ligand.clash>
0.0000

> <Gold.PLP.ligand.torsion>
0.6866

> <Gold.PLP.Chemscore.Hbond>
1.8480

> <Gold.PLP.Chemscore.CHOScore>
1.0000

> <Gold.PLP.Chemscore.Metal>
0.0000

> <Gold.Chemscore.Hbonds>
donor molecule, donor type, donor heavy atom, donor atom, acceptor molecule, acceptor atom, score
      L1  H     3    25       P1  7948  0.86
      L1  H    16    37       P1  7948  1.00
      L1  C    15    36       P1  7957  1.00

> <Gold.PLP.Chemscore.Internal.Correction>
0.3405

> <Gold.Rescore>
     Score         DG    S(hbond)    S(metal)    S(lipo)     H(rot)  DE(clash)    DE(int)     intcor
     16.66     -18.67       2.37        0.00      72.96       1.27       0.10       1.91       ----

> <Gold.Chemscore.Fitness>
16.6650

> <Gold.Chemscore.DG>
-18.6715

> <Gold.Chemscore.ZeroCoef>
-5.4800

> <Gold.Chemscore.Hbond>
2.3658

> <Gold.Chemscore.Metal>
0.0000

> <Gold.Chemscore.Lipo>
72.9625

> <Gold.Chemscore.Internal_Hbond>
0.0000

> <Gold.Chemscore.DEClash>
0.1007

> <Gold.Chemscore.DEInternal>
1.9058

> <Gold.Chemscore.Rot>
1.2684

> <Gold.Chemscore.Internal.Correction>
   9.000000E+99

> <Gold.Chemscore.Hbonds>
donor molecule, donor type, donor heavy atom, donor atom, acceptor molecule, acceptor atom, score
      L1  H     3    25       P1  7948  0.80
      L1  H    16    37       P1  7948  0.99

> <Gold.Chemscore.Hbond.Weighted>
-7.9019

> <Gold.Chemscore.Metal.Weighted>
-0.0000

> <Gold.Chemscore.Lipo.Weighted>
-8.5366

> <Gold.Chemscore.Internal_Hbond.Weighted>
0.0000

> <Gold.Chemscore.DEClash.Weighted>
0.1007

> <Gold.Chemscore.DEInternal.Weighted>
1.9058

> <Gold.Chemscore.Rot.Weighted>
3.2471

> <Gold.Chemscore.Internal.Correction.Weighted>
   9.000000E+99

> <Gold.Protein.RotatedTorsions>
[ 6907 6896 6895 6894 ] final -149.88 input  -60.11 | X-H torsion
[ 7974 7965 7964 7962 ] final   33.25 input  175.53 | X-H torsion
[ 8008 7997 7996 7995 ] final -171.81 input   59.86 | X-H torsion
[ 10167 10162 10161 10158 ] final   85.73 input  -65.29 | X-H torsion
[ 10718 10713 10712 10709 ] final  -23.64 input   66.30 | X-H torsion
[ 10763 10752 10751 10750 ] final  -66.75 input  -60.55 | X-H torsion
[ 11005 11000 10999 10996 ] final -131.85 input  -57.11 | X-H torsion

> <Gold.Protein.ActiveResidues>
 VAL166  LYS551  ARG553  GLY616  TRP617  ASP618  TYR619  PRO620  LYS621  CYS622 
 ASP623  PHE694  ASN695  SER759  ASP760  ASP761  ALA762  ILE779  LEU786  VAL792 
 PHE793  MET794  SER795  GLU796  ALA797  LYS798  CYS799  TRP800  GLU811  SER814 

> <Gold.Protein.RotatedAtoms>
  151.1905  133.4670  159.2594 H   0  0  0  0  0  0  0  0  0  0  0  0  # atno 6907 bound_to 6896
  151.1169  135.0057  159.8530 H   0  0  0  0  0  0  0  0  0  0  0  0  # atno 6908 bound_to 6896
  152.5454  134.1819  159.8692 H   0  0  0  0  0  0  0  0  0  0  0  0  # atno 6909 bound_to 6896
  146.1433  139.6420  142.9148 H   0  0  0  0  0  0  0  0  0  0  0  0  # atno 7974 bound_to 7965
  155.9364  140.1100  157.1091 H   0  0  0  0  0  0  0  0  0  0  0  0  # atno 8008 bound_to 7997
  154.4080  140.1227  156.4935 H   0  0  0  0  0  0  0  0  0  0  0  0  # atno 8009 bound_to 7997
  155.7016  140.3472  155.4938 H   0  0  0  0  0  0  0  0  0  0  0  0  # atno 8010 bound_to 7997
  139.8947  144.6365  150.8701 H   0  0  0  0  0  0  0  0  0  0  0  0  # atno 10167 bound_to 10162
  156.4883  130.4560  149.6770 H   0  0  0  0  0  0  0  0  0  0  0  0  # atno 10718 bound_to 10713
  154.3644  135.6109  153.5707 H   0  0  0  0  0  0  0  0  0  0  0  0  # atno 10763 bound_to 10752
  152.9792  135.5823  154.4596 H   0  0  0  0  0  0  0  0  0  0  0  0  # atno 10764 bound_to 10752
  154.4339  135.2848  155.1871 H   0  0  0  0  0  0  0  0  0  0  0  0  # atno 10765 bound_to 10752
  140.9222  134.1429  157.4304 H   0  0  0  0  0  0  0  0  0  0  0  0  # atno 11005 bound_to 11000
  145.4997  141.0438  143.2547 LP  0  0  0  0  0  0  0  0  0  0  0  0  # atno 17320 bound_to 7965
  144.7817  139.6512  143.7151 LP  0  0  0  0  0  0  0  0  0  0  0  0  # atno 17321 bound_to 7965
  140.7719  143.3482  151.2067 LP  0  0  0  0  0  0  0  0  0  0  0  0  # atno 17342 bound_to 10162
  139.7078  143.9426  152.2934 LP  0  0  0  0  0  0  0  0  0  0  0  0  # atno 17343 bound_to 10162
  156.3452  130.7403  151.2354 LP  0  0  0  0  0  0  0  0  0  0  0  0  # atno 17370 bound_to 10713
  157.7476  131.0392  150.4541 LP  0  0  0  0  0  0  0  0  0  0  0  0  # atno 17371 bound_to 10713
  139.8778  134.9975  156.5852 LP  0  0  0  0  0  0  0  0  0  0  0  0  # atno 17394 bound_to 11000
  140.7973  133.8534  155.8696 LP  0  0  0  0  0  0  0  0  0  0  0  0  # atno 17395 bound_to 11000

$$$$
