AV-unprocessed.smi:263|AV-procd|sdf|2006|dock7
  -GOLD-   2262021203D 1   1.00000     0.00000
 Structure written by MMmdl.
 57 61  0  0  0  0  0  0  0  0  1 V2000
  145.1754  132.2200  161.7875 O   0  0  0  0  0  0  0  0  0  0  0  0
  145.5471  133.5695  161.5662 C   0  0  0  0  0  0  0  0  0  0  0  0
  147.0928  133.6317  161.4824 C   0  0  0  0  0  0  0  0  0  0  0  0
  147.6126  134.9186  161.0455 N   0  0  0  0  0  0  0  0  0  0  0  0
  147.4849  136.1250  161.6963 C   0  0  0  0  0  0  0  0  0  0  0  0
  148.0390  137.1426  161.0957 N   0  0  0  0  0  0  0  0  0  0  0  0
  148.5888  136.5985  159.9404 C   0  0  0  0  0  0  0  0  0  0  0  0
  149.3201  137.1341  158.8423 C   0  0  0  0  0  0  0  0  0  0  0  0
  149.6600  138.4460  158.7542 N   0  0  0  0  0  0  0  0  0  0  0  0
  149.0079  139.2459  157.7150 C   0  0  0  0  0  0  0  0  0  0  0  0
  149.2174  140.7536  157.9537 C   0  0  0  0  0  0  0  0  0  0  0  0
  150.7089  141.1086  158.1288 C   0  0  1  0  0  0  0  0  0  0  0  0
  151.3553  140.8619  156.8903 O   0  0  0  0  0  0  0  0  0  0  0  0
  150.9042  142.6031  158.4690 C   0  0  0  0  0  0  0  0  0  0  0  0
  152.3769  142.9503  158.7606 C   0  0  0  0  0  0  0  0  0  0  0  0
  152.9673  142.0448  159.8534 C   0  0  0  0  0  0  0  0  0  0  0  0
  152.7953  140.5570  159.5054 C   0  0  0  0  0  0  0  0  0  0  0  0
  151.3147  140.2182  159.2447 C   0  0  2  0  0  0  0  0  0  0  0  0
  151.0825  138.7218  158.9587 C   0  0  0  0  0  0  0  0  0  0  0  0
  149.6810  136.2721  157.8536 N   0  0  0  0  0  0  0  0  0  0  0  0
  149.3587  134.9779  157.9334 C   0  0  0  0  0  0  0  0  0  0  0  0
  148.6878  134.3428  158.8960 N   0  0  0  0  0  0  0  0  0  0  0  0
  148.3187  135.2014  159.8892 C   0  0  0  0  0  0  0  0  0  0  0  0
  144.9182  134.0362  160.2378 C   0  0  0  0  0  0  0  0  0  0  0  0
  143.3866  134.1552  160.3305 C   0  0  0  0  0  0  0  0  0  0  0  0
  143.0310  135.0219  161.4005 O   0  0  0  0  0  0  0  0  0  0  0  0
  143.4457  134.5261  162.6676 C   0  0  0  0  0  0  0  0  0  0  0  0
  144.9807  134.4247  162.7211 C   0  0  0  0  0  0  0  0  0  0  0  0
  145.0238  131.8078  160.9506 H   0  0  0  0  0  0  0  0  0  0  0  0
  147.5340  133.3967  162.4520 H   0  0  0  0  0  0  0  0  0  0  0  0
  147.4595  132.8706  160.7924 H   0  0  0  0  0  0  0  0  0  0  0  0
  146.9676  136.2268  162.6394 H   0  0  0  0  0  0  0  0  0  0  0  0
  149.4057  138.9628  156.7394 H   0  0  0  0  0  0  0  0  0  0  0  0
  147.9383  139.0323  157.6973 H   0  0  0  0  0  0  0  0  0  0  0  0
  148.7815  141.3235  157.1321 H   0  0  0  0  0  0  0  0  0  0  0  0
  148.6685  141.0459  158.8499 H   0  0  0  0  0  0  0  0  0  0  0  0
  150.9332  141.3826  156.2243 H   0  0  0  0  0  0  0  0  0  0  0  0
  150.5305  143.2291  157.6574 H   0  0  0  0  0  0  0  0  0  0  0  0
  150.3058  142.8553  159.3454 H   0  0  0  0  0  0  0  0  0  0  0  0
  152.9667  142.8523  157.8485 H   0  0  0  0  0  0  0  0  0  0  0  0
  152.4560  143.9947  159.0630 H   0  0  0  0  0  0  0  0  0  0  0  0
  154.0241  142.2735  159.9947 H   0  0  0  0  0  0  0  0  0  0  0  0
  152.4766  142.2559  160.8043 H   0  0  0  0  0  0  0  0  0  0  0  0
  153.3973  140.3106  158.6298 H   0  0  0  0  0  0  0  0  0  0  0  0
  153.1781  139.9458  160.3233 H   0  0  0  0  0  0  0  0  0  0  0  0
  150.7775  140.4428  160.1682 H   0  0  0  0  0  0  0  0  0  0  0  0
  151.4825  138.1350  159.7846 H   0  0  0  0  0  0  0  0  0  0  0  0
  151.6324  138.4150  158.0682 H   0  0  0  0  0  0  0  0  0  0  0  0
  149.6861  134.3633  157.1078 H   0  0  0  0  0  0  0  0  0  0  0  0
  145.3227  135.0139  159.9716 H   0  0  0  0  0  0  0  0  0  0  0  0
  145.1924  133.3621  159.4252 H   0  0  0  0  0  0  0  0  0  0  0  0
  142.9890  134.5651  159.4020 H   0  0  0  0  0  0  0  0  0  0  0  0
  142.9218  133.1777  160.4674 H   0  0  0  0  0  0  0  0  0  0  0  0
  143.0907  135.2057  163.4425 H   0  0  0  0  0  0  0  0  0  0  0  0
  142.9813  133.5582  162.8624 H   0  0  0  0  0  0  0  0  0  0  0  0
  145.2849  134.0237  163.6883 H   0  0  0  0  0  0  0  0  0  0  0  0
  145.3977  135.4309  162.6609 H   0  0  0  0  0  0  0  0  0  0  0  0
  1  2  1  0  0  0  0
  1 29  1  0  0  0  0
  2 28  1  0  0  0  0
  2  3  1  0  0  0  0
  2 24  1  0  0  0  0
  3  4  1  0  0  0  0
  3 30  1  0  0  0  0
  3 31  1  0  0  0  0
  4 23  1  0  0  0  0
  4  5  1  0  0  0  0
  5  6  2  0  0  0  0
  5 32  1  0  0  0  0
  6  7  1  0  0  0  0
  7 23  2  0  0  0  0
  7  8  1  0  0  0  0
  8  9  1  0  0  0  0
  8 20  2  0  0  0  0
  9 19  1  0  0  0  0
  9 10  1  0  0  0  0
 10 11  1  0  0  0  0
 10 33  1  0  0  0  0
 10 34  1  0  0  0  0
 11 12  1  0  0  0  0
 11 35  1  0  0  0  0
 11 36  1  0  0  0  0
 12 18  1  0  0  0  0
 12 13  1  0  0  0  0
 12 14  1  0  0  0  0
 13 37  1  0  0  0  0
 14 15  1  0  0  0  0
 14 38  1  0  0  0  0
 14 39  1  0  0  0  0
 15 16  1  0  0  0  0
 15 40  1  0  0  0  0
 15 41  1  0  0  0  0
 16 17  1  0  0  0  0
 16 42  1  0  0  0  0
 16 43  1  0  0  0  0
 17 18  1  0  0  0  0
 17 44  1  0  0  0  0
 17 45  1  0  0  0  0
 18 19  1  0  0  0  0
 18 46  1  0  0  0  0
 19 47  1  0  0  0  0
 19 48  1  0  0  0  0
 20 21  1  0  0  0  0
 21 22  2  0  0  0  0
 21 49  1  0  0  0  0
 22 23  1  0  0  0  0
 24 25  1  0  0  0  0
 24 50  1  0  0  0  0
 24 51  1  0  0  0  0
 25 26  1  0  0  0  0
 25 52  1  0  0  0  0
 25 53  1  0  0  0  0
 26 27  1  0  0  0  0
 27 28  1  0  0  0  0
 27 54  1  0  0  0  0
 27 55  1  0  0  0  0
 28 56  1  0  0  0  0
 28 57  1  0  0  0  0
M  END
> <s_m_source_file>
AV-unprocessed.smi

> <i_m_source_file_index>
263

> <i_lp_mmshare_version>
43012

> <i_f3d_flags>
0

> <s_epik_input>
W0NIMl0xW0NIMl1PW0NIMl1bQ0gyXUMxKFtPSF0pW0NIMl1uKFtjSF1uMiljKGMyMyluW2NIXW5jM04oW0NIMl1bQ0gyXTQpW0NIMl1bQ0BASF0oW0NAXTQ1W09IXSlbQ0gyXVtDSDJdW0NIMl1bQ0gyXTU=

> <s_epik_cmdline>
J2VwaWtfcHl0aG9uJywgJy1waCcsICc3LjAnLCAnLXRuJywgJzgnLCAnLW1hJywgJzIwMCcsICctbWV0YWxfYmluZGluZycsICctaW1hZScsICc8aW5maWxlLm1hZT4nLCAnLW9tYWUnLCAnPG91dGZpbGUubWFlPic=

> <r_lp_tautomer_probability>
1

> <r_epik_Ionization_Penalty>
0.00747493

> <r_epik_Ionization_Penalty_Charging>
0

> <r_epik_Ionization_Penalty_Neutral>
0.00747493

> <r_epik_State_Penalty>
0.00549307

> <r_epik_Charging_Adjusted_Penalty>
0.00549307

> <i_epik_Tot_Q>
0

> <i_epik_Tot_abs_Q>
0

> <r_epik_Metal_State_Penalty>
-0

> <b_epik_Metal_Only>
0

> <s_lp_Force_Field>
OPLS_2005

> <r_lp_Energy>
38.115

> <b_lp_Chiralities_Consistent>
1

> <s_lp_Variant>
AV-unprocessed.smi:263-4

> <Gold.Version>
5.8.1

> <Gold.Id.Protein>
6NUR|6NUR_protein|mol2

> <Gold.PLP.Fitness>
45.9473

> <Gold.PLP.PLP>
-41.0612

> <Gold.PLP.part.hbond>
-2.8441

> <Gold.PLP.part.metal>
0.0000

> <Gold.PLP.part.buried>
-5.4664

> <Gold.PLP.part.nonpolar>
-32.0926

> <Gold.PLP.part.repulsive>
0.0000

> <Gold.PLP.ligand.clash>
0.0000

> <Gold.PLP.ligand.torsion>
0.2737

> <Gold.PLP.Chemscore.Hbond>
1.6800

> <Gold.PLP.Chemscore.CHOScore>
0.0000

> <Gold.PLP.Chemscore.Metal>
0.0000

> <Gold.Chemscore.Hbonds>
donor molecule, donor type, donor heavy atom, donor atom, acceptor molecule, acceptor atom, score
      P1  H  6931  6943       L1     6  1.00
      P1  H  6934  6947       L1     6  0.66

> <Gold.PLP.Chemscore.Internal.Correction>
0.3935

> <Gold.Rescore>
     Score         DG    S(hbond)    S(metal)    S(lipo)     H(rot)  DE(clash)    DE(int)     intcor
     14.37     -14.78       1.48        0.00      94.74       2.62       0.05       0.36       ----

> <Gold.Chemscore.Fitness>
14.3668

> <Gold.Chemscore.DG>
-14.7806

> <Gold.Chemscore.ZeroCoef>
-5.4800

> <Gold.Chemscore.Hbond>
1.4766

> <Gold.Chemscore.Metal>
0.0000

> <Gold.Chemscore.Lipo>
94.7372

> <Gold.Chemscore.Internal_Hbond>
0.0000

> <Gold.Chemscore.DEClash>
0.0515

> <Gold.Chemscore.DEInternal>
0.3624

> <Gold.Chemscore.Rot>
2.6232

> <Gold.Chemscore.Internal.Correction>
   9.000000E+99

> <Gold.Chemscore.Hbonds>
donor molecule, donor type, donor heavy atom, donor atom, acceptor molecule, acceptor atom, score
      P1  H  6931  6943       L1     6  0.86
      P1  H  6934  6947       L1     6  0.59

> <Gold.Chemscore.Hbond.Weighted>
-4.9319

> <Gold.Chemscore.Metal.Weighted>
-0.0000

> <Gold.Chemscore.Lipo.Weighted>
-11.0843

> <Gold.Chemscore.Internal_Hbond.Weighted>
0.0000

> <Gold.Chemscore.DEClash.Weighted>
0.0515

> <Gold.Chemscore.DEInternal.Weighted>
0.3624

> <Gold.Chemscore.Rot.Weighted>
6.7155

> <Gold.Chemscore.Internal.Correction.Weighted>
   9.000000E+99

> <Gold.Protein.RotatedTorsions>
[ 6907 6896 6895 6894 ] final  171.21 input  -60.11 | X-H torsion
[ 7974 7965 7964 7962 ] final  105.54 input  175.53 | X-H torsion
[ 8008 7997 7996 7995 ] final  119.38 input   59.86 | X-H torsion
[ 10167 10162 10161 10158 ] final   64.93 input  -65.29 | X-H torsion
[ 10718 10713 10712 10709 ] final   29.03 input   66.30 | X-H torsion
[ 10763 10752 10751 10750 ] final   20.91 input  -60.55 | X-H torsion
[ 11005 11000 10999 10996 ] final  131.29 input  -57.11 | X-H torsion

> <Gold.Protein.ActiveResidues>
 VAL166  LYS551  ARG553  GLY616  TRP617  ASP618  TYR619  PRO620  LYS621  CYS622 
 ASP623  PHE694  ASN695  SER759  ASP760  ASP761  ALA762  ILE779  LEU786  VAL792 
 PHE793  MET794  SER795  GLU796  ALA797  LYS798  CYS799  TRP800  GLU811  SER814 

> <Gold.Protein.RotatedAtoms>
  151.8039  133.3373  159.3534 H   0  0  0  0  0  0  0  0  0  0  0  0  # atno 6907 bound_to 6896
  150.7349  134.5727  159.5908 H   0  0  0  0  0  0  0  0  0  0  0  0  # atno 6908 bound_to 6896
  152.3123  134.7483  160.0385 H   0  0  0  0  0  0  0  0  0  0  0  0  # atno 6909 bound_to 6896
  145.3184  139.2520  143.3725 H   0  0  0  0  0  0  0  0  0  0  0  0  # atno 7974 bound_to 7965
  156.2593  140.2854  156.0983 H   0  0  0  0  0  0  0  0  0  0  0  0  # atno 8008 bound_to 7997
  155.1388  140.0395  157.2810 H   0  0  0  0  0  0  0  0  0  0  0  0  # atno 8009 bound_to 7997
  154.6545  140.2552  155.7183 H   0  0  0  0  0  0  0  0  0  0  0  0  # atno 8010 bound_to 7997
  140.1168  144.4767  150.6944 H   0  0  0  0  0  0  0  0  0  0  0  0  # atno 10167 bound_to 10162
  157.2413  130.7070  149.6360 H   0  0  0  0  0  0  0  0  0  0  0  0  # atno 10718 bound_to 10713
  153.1038  135.6679  153.9624 H   0  0  0  0  0  0  0  0  0  0  0  0  # atno 10763 bound_to 10752
  153.9187  135.3017  155.3449 H   0  0  0  0  0  0  0  0  0  0  0  0  # atno 10764 bound_to 10752
  154.7459  135.5058  153.9279 H   0  0  0  0  0  0  0  0  0  0  0  0  # atno 10765 bound_to 10752
  139.9722  134.9574  156.9417 H   0  0  0  0  0  0  0  0  0  0  0  0  # atno 11005 bound_to 11000
  146.3092  140.3735  142.8676 LP  0  0  0  0  0  0  0  0  0  0  0  0  # atno 17320 bound_to 7965
  144.8959  140.7583  143.5897 LP  0  0  0  0  0  0  0  0  0  0  0  0  # atno 17321 bound_to 7965
  140.6894  143.2368  151.5171 LP  0  0  0  0  0  0  0  0  0  0  0  0  # atno 17342 bound_to 10162
  139.5589  144.2205  152.1659 LP  0  0  0  0  0  0  0  0  0  0  0  0  # atno 17343 bound_to 10162
  155.9670  130.4457  150.5513 LP  0  0  0  0  0  0  0  0  0  0  0  0  # atno 17370 bound_to 10713
  157.3376  131.0711  151.1813 LP  0  0  0  0  0  0  0  0  0  0  0  0  # atno 17371 bound_to 10713
  140.5270  134.0851  155.7306 LP  0  0  0  0  0  0  0  0  0  0  0  0  # atno 17394 bound_to 11000
  141.1401  133.9154  157.2346 LP  0  0  0  0  0  0  0  0  0  0  0  0  # atno 17395 bound_to 11000

$$$$
