AV-unprocessed.smi:910|AV-procd|sdf|4122|dock4
  -GOLD-   22720 2 23D 1   1.00000     0.00000
 Structure written by MMmdl.
 46 47  0  0  0  0  0  0  0  0  1 V2000
  145.8048  132.0949  149.3544 C   0  0  0  0  0  0  0  0  0  0  0  0
  146.1492  132.7437  150.6770 C   0  0  0  0  0  0  0  0  0  0  0  0
  147.2832  132.4184  151.3708 N   0  0  0  0  0  0  0  0  0  0  0  0
  147.3085  133.1702  152.5350 C   0  0  0  0  0  0  0  0  0  0  0  0
  148.2139  133.1691  153.4633 N   0  0  0  0  0  0  0  0  0  0  0  0
  148.0291  133.9980  154.5571 C   0  0  0  0  0  0  0  0  0  0  0  0
  147.4681  133.7233  155.6228 O   0  0  0  0  0  0  0  0  0  0  0  0
  148.5015  135.2270  154.2991 N   0  0  0  0  0  0  0  0  0  0  0  0
  148.3916  136.3815  155.1849 C   0  0  0  0  0  0  0  0  0  0  0  0
  149.6005  137.3149  155.0319 C   0  0  0  0  0  0  0  0  0  0  0  0
  149.1654  138.6621  155.1309 O   0  0  0  0  0  0  0  0  0  0  0  0
  149.9790  139.6016  154.4395 C   0  0  2  0  0  0  0  0  0  0  0  0
  151.4354  139.3757  154.8862 C   0  0  0  0  0  0  0  0  0  0  0  0
  151.6421  139.7193  156.3713 C   0  0  0  0  0  0  0  0  0  0  0  0
  151.1847  141.1523  156.6805 C   0  0  0  0  0  0  0  0  0  0  0  0
  149.7261  141.3719  156.2526 C   0  0  0  0  0  0  0  0  0  0  0  0
  149.5140  141.0421  154.7625 C   0  0  2  0  0  0  0  0  0  0  0  0
  148.0656  141.3128  154.3275 C   0  0  0  0  0  0  0  0  0  0  0  0
  146.1735  133.9482  152.5200 O   0  0  0  0  0  0  0  0  0  0  0  0
  145.4907  133.6644  151.3769 C   0  0  0  0  0  0  0  0  0  0  0  0
  144.1847  134.3800  151.1144 C   0  0  0  0  0  0  0  0  0  0  0  0
  144.8389  131.5940  149.4209 H   0  0  0  0  0  0  0  0  0  0  0  0
  146.5564  131.3572  149.0729 H   0  0  0  0  0  0  0  0  0  0  0  0
  145.7499  132.8478  148.5681 H   0  0  0  0  0  0  0  0  0  0  0  0
  147.9566  131.7375  151.0520 H   0  0  0  0  0  0  0  0  0  0  0  0
  148.9387  135.3828  153.4023 H   0  0  0  0  0  0  0  0  0  0  0  0
  147.4597  136.9237  155.0158 H   0  0  0  0  0  0  0  0  0  0  0  0
  148.3498  136.0081  156.2081 H   0  0  0  0  0  0  0  0  0  0  0  0
  150.3287  137.1162  155.8192 H   0  0  0  0  0  0  0  0  0  0  0  0
  150.0953  137.1304  154.0774 H   0  0  0  0  0  0  0  0  0  0  0  0
  149.9289  139.4384  153.3609 H   0  0  0  0  0  0  0  0  0  0  0  0
  151.7256  138.3412  154.7004 H   0  0  0  0  0  0  0  0  0  0  0  0
  152.0984  139.9935  154.2794 H   0  0  0  0  0  0  0  0  0  0  0  0
  151.0841  139.0172  156.9924 H   0  0  0  0  0  0  0  0  0  0  0  0
  152.6923  139.5988  156.6379 H   0  0  0  0  0  0  0  0  0  0  0  0
  151.2929  141.3554  157.7464 H   0  0  0  0  0  0  0  0  0  0  0  0
  151.8298  141.8630  156.1625 H   0  0  0  0  0  0  0  0  0  0  0  0
  149.0748  140.7470  156.8632 H   0  0  0  0  0  0  0  0  0  0  0  0
  149.4384  142.4047  156.4510 H   0  0  0  0  0  0  0  0  0  0  0  0
  150.1456  141.7204  154.1869 H   0  0  0  0  0  0  0  0  0  0  0  0
  147.3583  140.7075  154.8946 H   0  0  0  0  0  0  0  0  0  0  0  0
  147.9246  141.0919  153.2693 H   0  0  0  0  0  0  0  0  0  0  0  0
  147.7999  142.3585  154.4836 H   0  0  0  0  0  0  0  0  0  0  0  0
  143.9536  134.3825  150.0491 H   0  0  0  0  0  0  0  0  0  0  0  0
  144.2403  135.4127  151.4572 H   0  0  0  0  0  0  0  0  0  0  0  0
  143.3719  133.8840  151.6447 H   0  0  0  0  0  0  0  0  0  0  0  0
  1 22  1  0  0  0  0
  1 23  1  0  0  0  0
  1 24  1  0  0  0  0
  1  2  1  0  0  0  0
  2  3  1  0  0  0  0
  2 20  2  0  0  0  0
  3 25  1  0  0  0  0
  3  4  1  0  0  0  0
  4 19  1  0  0  0  0
  4  5  2  0  0  0  0
  5  6  1  0  0  0  0
  6  8  1  0  0  0  0
  6  7  2  0  0  0  0
  8  9  1  0  0  0  0
  8 26  1  0  0  0  0
  9 10  1  0  0  0  0
  9 27  1  0  0  0  0
  9 28  1  0  0  0  0
 10 11  1  0  0  0  0
 10 29  1  0  0  0  0
 10 30  1  0  0  0  0
 11 12  1  0  0  0  0
 12 17  1  0  0  0  0
 12 13  1  0  0  0  0
 12 31  1  0  0  0  0
 13 14  1  0  0  0  0
 13 32  1  0  0  0  0
 13 33  1  0  0  0  0
 14 15  1  0  0  0  0
 14 34  1  0  0  0  0
 14 35  1  0  0  0  0
 15 16  1  0  0  0  0
 15 36  1  0  0  0  0
 15 37  1  0  0  0  0
 16 17  1  0  0  0  0
 16 38  1  0  0  0  0
 16 39  1  0  0  0  0
 17 18  1  0  0  0  0
 17 40  1  0  0  0  0
 18 41  1  0  0  0  0
 18 42  1  0  0  0  0
 18 43  1  0  0  0  0
 19 20  1  0  0  0  0
 20 21  1  0  0  0  0
 21 44  1  0  0  0  0
 21 45  1  0  0  0  0
 21 46  1  0  0  0  0
M  END
> <s_m_source_file>
AV-unprocessed.smi

> <i_m_source_file_index>
910

> <i_lp_mmshare_version>
43012

> <i_f3d_flags>
0

> <s_epik_input>
W0NIM11jMW5jKG9jMVtDSDNdKVtOSF1DKD1PKVtOSF1bQ0gyXVtDSDJdT1tDQEBIXTJbQ0gyXVtDSDJdW0NIMl1bQ0gyXVtDQEhdMltDSDNd

> <s_epik_cmdline>
J2VwaWtfcHl0aG9uJywgJy1waCcsICc3LjAnLCAnLXRuJywgJzgnLCAnLW1hJywgJzIwMCcsICctbWV0YWxfYmluZGluZycsICctaW1hZScsICc8aW5maWxlLm1hZT4nLCAnLW9tYWUnLCAnPG91dGZpbGUubWFlPic=

> <r_lp_tautomer_probability>
0.107061

> <r_epik_Ionization_Penalty>
0.727192

> <r_epik_Ionization_Penalty_Charging>
0.726719

> <r_epik_Ionization_Penalty_Neutral>
0.000473387

> <r_epik_State_Penalty>
2.53712

> <r_epik_Charging_Adjusted_Penalty>
3.26383

> <i_epik_Tot_Q>
0

> <i_epik_Tot_abs_Q>
0

> <r_epik_Metal_State_Penalty>
3.71015

> <b_epik_Metal_Only>
0

> <s_lp_Force_Field>
OPLS_2005

> <r_lp_Energy>
29.3715

> <b_lp_Chiralities_Consistent>
1

> <s_lp_Variant>
AV-unprocessed.smi:910-7

> <Gold.Version>
5.8.1

> <Gold.Id.Protein>
6NUR|6NUR_protein|mol2

> <Gold.PLP.Fitness>
39.6937

> <Gold.PLP.PLP>
-36.4143

> <Gold.PLP.part.hbond>
-1.9619

> <Gold.PLP.part.metal>
0.0000

> <Gold.PLP.part.buried>
-3.0260

> <Gold.PLP.part.nonpolar>
-31.0684

> <Gold.PLP.part.repulsive>
0.4136

> <Gold.PLP.ligand.clash>
0.0000

> <Gold.PLP.ligand.torsion>
1.3831

> <Gold.PLP.Chemscore.Hbond>
1.9920

> <Gold.PLP.Chemscore.CHOScore>
0.0000

> <Gold.PLP.Chemscore.Metal>
0.0000

> <Gold.Chemscore.Hbonds>
donor molecule, donor type, donor heavy atom, donor atom, acceptor molecule, acceptor atom, score
      L1  H     3    25       P1 10747  1.00
      L1  H     8    26       P1  7948  1.00

> <Gold.PLP.Chemscore.Internal.Correction>
0.0697

> <Gold.Rescore>
     Score         DG    S(hbond)    S(metal)    S(lipo)     H(rot)  DE(clash)    DE(int)     intcor
     16.36     -17.78       1.94        0.00      86.11       1.66       0.09       1.34       ----

> <Gold.Chemscore.Fitness>
16.3568

> <Gold.Chemscore.DG>
-17.7848

> <Gold.Chemscore.ZeroCoef>
-5.4800

> <Gold.Chemscore.Hbond>
1.9383

> <Gold.Chemscore.Metal>
0.0000

> <Gold.Chemscore.Lipo>
86.1074

> <Gold.Chemscore.Internal_Hbond>
0.0000

> <Gold.Chemscore.DEClash>
0.0877

> <Gold.Chemscore.DEInternal>
1.3404

> <Gold.Chemscore.Rot>
1.6576

> <Gold.Chemscore.Internal.Correction>
   9.000000E+99

> <Gold.Chemscore.Hbonds>
donor molecule, donor type, donor heavy atom, donor atom, acceptor molecule, acceptor atom, score
      L1  H     3    25       P1 10747  0.95
      L1  H     8    26       P1  7948  0.62

> <Gold.Chemscore.Hbond.Weighted>
-6.4738

> <Gold.Chemscore.Metal.Weighted>
-0.0000

> <Gold.Chemscore.Lipo.Weighted>
-10.0746

> <Gold.Chemscore.Internal_Hbond.Weighted>
0.0000

> <Gold.Chemscore.DEClash.Weighted>
0.0877

> <Gold.Chemscore.DEInternal.Weighted>
1.3404

> <Gold.Chemscore.Rot.Weighted>
4.2436

> <Gold.Chemscore.Internal.Correction.Weighted>
   9.000000E+99

> <Gold.Protein.RotatedTorsions>
[ 6907 6896 6895 6894 ] final   12.02 input  -60.11 | X-H torsion
[ 7974 7965 7964 7962 ] final   62.75 input  175.53 | X-H torsion
[ 8008 7997 7996 7995 ] final -179.64 input   59.86 | X-H torsion
[ 10167 10162 10161 10158 ] final  -94.08 input  -65.29 | X-H torsion
[ 10718 10713 10712 10709 ] final  151.28 input   66.30 | X-H torsion
[ 10763 10752 10751 10750 ] final -158.89 input  -60.55 | X-H torsion
[ 11005 11000 10999 10996 ] final -114.93 input  -57.11 | X-H torsion

> <Gold.Protein.ActiveResidues>
 VAL166  LYS551  ARG553  GLY616  TRP617  ASP618  TYR619  PRO620  LYS621  CYS622 
 ASP623  PHE694  ASN695  SER759  ASP760  ASP761  ALA762  ILE779  LEU786  VAL792 
 PHE793  MET794  SER795  GLU796  ALA797  LYS798  CYS799  TRP800  GLU811  SER814 

> <Gold.Protein.RotatedAtoms>
  151.7637  135.0804  160.0349 H   0  0  0  0  0  0  0  0  0  0  0  0  # atno 6907 bound_to 6896
  152.3336  133.5982  159.5835 H   0  0  0  0  0  0  0  0  0  0  0  0  # atno 6908 bound_to 6896
  150.7437  133.9746  159.3598 H   0  0  0  0  0  0  0  0  0  0  0  0  # atno 6909 bound_to 6896
  145.8698  139.3370  143.0769 H   0  0  0  0  0  0  0  0  0  0  0  0  # atno 7974 bound_to 7965
  156.0328  140.1286  157.0240 H   0  0  0  0  0  0  0  0  0  0  0  0  # atno 8008 bound_to 7997
  154.4357  140.1046  156.6195 H   0  0  0  0  0  0  0  0  0  0  0  0  # atno 8009 bound_to 7997
  155.5782  140.3467  155.4535 H   0  0  0  0  0  0  0  0  0  0  0  0  # atno 8010 bound_to 7997
  140.3181  143.3065  152.0076 H   0  0  0  0  0  0  0  0  0  0  0  0  # atno 10167 bound_to 10162
  157.2728  131.0820  151.1588 H   0  0  0  0  0  0  0  0  0  0  0  0  # atno 10718 bound_to 10713
  154.7520  135.3095  154.8540 H   0  0  0  0  0  0  0  0  0  0  0  0  # atno 10763 bound_to 10752
  153.9325  135.6784  153.4749 H   0  0  0  0  0  0  0  0  0  0  0  0  # atno 10764 bound_to 10752
  153.1116  135.4864  154.8973 H   0  0  0  0  0  0  0  0  0  0  0  0  # atno 10765 bound_to 10752
  141.0520  133.9672  157.2820 H   0  0  0  0  0  0  0  0  0  0  0  0  # atno 11005 bound_to 11000
  145.9151  140.9154  143.0434 LP  0  0  0  0  0  0  0  0  0  0  0  0  # atno 17320 bound_to 7965
  144.6726  140.1212  143.7449 LP  0  0  0  0  0  0  0  0  0  0  0  0  # atno 17321 bound_to 7965
  139.4880  144.6333  151.7027 LP  0  0  0  0  0  0  0  0  0  0  0  0  # atno 17342 bound_to 10162
  140.5509  144.0427  150.6126 LP  0  0  0  0  0  0  0  0  0  0  0  0  # atno 17343 bound_to 10162
  157.3053  130.6863  149.6186 LP  0  0  0  0  0  0  0  0  0  0  0  0  # atno 17370 bound_to 10713
  155.9663  130.4380  150.5198 LP  0  0  0  0  0  0  0  0  0  0  0  0  # atno 17371 bound_to 10713
  139.9358  135.0196  156.8551 LP  0  0  0  0  0  0  0  0  0  0  0  0  # atno 17394 bound_to 11000
  140.6037  134.0148  155.7548 LP  0  0  0  0  0  0  0  0  0  0  0  0  # atno 17395 bound_to 11000

$$$$
