AV-unprocessed.smi:216|AV-procd|sdf|1659|dock5
  -GOLD-   2262020 53D 1   1.00000     0.00000
 Structure written by MMmdl.
 65 69  0  0  0  0  0  0  0  0  1 V2000
  153.9181  141.3434  160.4047 C   0  0  0  0  0  0  0  0  0  0  0  0
  153.0301  141.4117  159.1433 C   0  0  1  0  0  0  0  0  0  0  0  0
  152.1085  140.1762  159.0979 C   0  0  0  0  0  0  0  0  0  0  0  0
  151.2850  140.1362  157.8080 C   0  0  0  0  0  0  0  0  0  0  0  0
  150.5514  141.3855  157.6287 N   0  0  0  0  0  0  0  0  0  0  0  0
  149.5610  141.3915  156.6992 C   0  0  0  0  0  0  0  0  0  0  0  0
  149.8476  141.1122  155.3988 N   0  0  0  0  0  0  0  0  0  0  0  0
  148.8819  141.1201  154.4758 C   0  0  0  0  0  0  0  0  0  0  0  0
  147.5813  141.3710  154.6322 N   0  0  0  0  0  0  0  0  0  0  0  0
  147.2835  141.6449  155.9345 C   0  0  0  0  0  0  0  0  0  0  0  0
  148.2046  141.6820  157.0197 C   0  0  0  0  0  0  0  0  0  0  0  0
  147.5337  141.9962  158.1947 N   0  0  0  0  0  0  0  0  0  0  0  0
  146.2920  142.1486  157.8247 C   0  0  0  0  0  0  0  0  0  0  0  0
  146.0473  141.9344  156.4869 N   0  0  0  0  0  0  0  0  0  0  0  0
  144.7618  142.0226  155.8088 C   0  0  0  0  0  0  0  0  0  0  0  0
  144.3113  143.4709  155.4506 C   0  0  0  0  0  0  0  0  0  0  0  0
  145.1075  144.0123  154.2282 C   0  0  0  0  0  0  0  0  0  0  0  0
  145.1157  143.1011  153.1471 O   0  0  0  0  0  0  0  0  0  0  0  0
  142.7882  143.4535  155.1669 C   0  0  0  0  0  0  0  0  0  0  0  0
  142.1753  144.8635  155.0847 C   0  0  0  0  0  0  0  0  0  0  0  0
  142.4428  145.5795  156.2833 O   0  0  0  0  0  0  0  0  0  0  0  0
  143.8324  145.7689  156.5143 C   0  0  0  0  0  0  0  0  0  0  0  0
  144.5333  144.4065  156.6660 C   0  0  0  0  0  0  0  0  0  0  0  0
  151.3859  142.5875  157.6325 C   0  0  0  0  0  0  0  0  0  0  0  0
  152.2228  142.7424  158.9382 C   0  0  0  0  0  0  0  0  0  0  0  0
  151.2961  143.0568  160.1517 C   0  0  0  0  0  0  0  0  0  0  0  0
  150.6161  144.4373  160.0782 C   0  0  0  0  0  0  0  0  0  0  0  0
  151.6415  145.5623  159.8910 C   0  0  0  0  0  0  0  0  0  0  0  0
  152.5185  145.3047  158.6592 C   0  0  0  0  0  0  0  0  0  0  0  0
  153.2087  143.9317  158.7509 C   0  0  0  0  0  0  0  0  0  0  0  0
  153.3320  141.3713  161.3225 H   0  0  0  0  0  0  0  0  0  0  0  0
  154.6531  142.1451  160.4463 H   0  0  0  0  0  0  0  0  0  0  0  0
  154.4818  140.4102  160.4210 H   0  0  0  0  0  0  0  0  0  0  0  0
  153.7086  141.3211  158.2934 H   0  0  0  0  0  0  0  0  0  0  0  0
  152.7015  139.2636  159.1685 H   0  0  0  0  0  0  0  0  0  0  0  0
  151.4413  140.1700  159.9601 H   0  0  0  0  0  0  0  0  0  0  0  0
  151.9433  139.9761  156.9529 H   0  0  0  0  0  0  0  0  0  0  0  0
  150.5920  139.2944  157.8463 H   0  0  0  0  0  0  0  0  0  0  0  0
  149.1961  140.8924  153.4681 H   0  0  0  0  0  0  0  0  0  0  0  0
  145.5129  142.4110  158.5255 H   0  0  0  0  0  0  0  0  0  0  0  0
  144.8129  141.4058  154.9106 H   0  0  0  0  0  0  0  0  0  0  0  0
  144.0169  141.5449  156.4468 H   0  0  0  0  0  0  0  0  0  0  0  0
  144.6941  144.9498  153.8606 H   0  0  0  0  0  0  0  0  0  0  0  0
  146.1393  144.2319  154.5022 H   0  0  0  0  0  0  0  0  0  0  0  0
  144.6391  142.3264  153.4040 H   0  0  0  0  0  0  0  0  0  0  0  0
  142.5713  142.9011  154.2522 H   0  0  0  0  0  0  0  0  0  0  0  0
  142.2779  142.9142  155.9661 H   0  0  0  0  0  0  0  0  0  0  0  0
  142.5486  145.4157  154.2218 H   0  0  0  0  0  0  0  0  0  0  0  0
  141.0949  144.7895  154.9609 H   0  0  0  0  0  0  0  0  0  0  0  0
  144.2714  146.3607  155.7105 H   0  0  0  0  0  0  0  0  0  0  0  0
  143.9549  146.3501  157.4283 H   0  0  0  0  0  0  0  0  0  0  0  0
  144.1454  143.9284  157.5663 H   0  0  0  0  0  0  0  0  0  0  0  0
  145.5979  144.5652  156.8414 H   0  0  0  0  0  0  0  0  0  0  0  0
  152.0584  142.5216  156.7758 H   0  0  0  0  0  0  0  0  0  0  0  0
  150.7764  143.4716  157.4572 H   0  0  0  0  0  0  0  0  0  0  0  0
  150.5284  142.2908  160.2606 H   0  0  0  0  0  0  0  0  0  0  0  0
  151.8729  143.0340  161.0751 H   0  0  0  0  0  0  0  0  0  0  0  0
  149.8953  144.4636  159.2635 H   0  0  0  0  0  0  0  0  0  0  0  0
  150.0435  144.6118  160.9894 H   0  0  0  0  0  0  0  0  0  0  0  0
  151.1311  146.5208  159.7929 H   0  0  0  0  0  0  0  0  0  0  0  0
  152.2698  145.6349  160.7797 H   0  0  0  0  0  0  0  0  0  0  0  0
  151.9173  145.3716  157.7524 H   0  0  0  0  0  0  0  0  0  0  0  0
  153.2725  146.0881  158.5779 H   0  0  0  0  0  0  0  0  0  0  0  0
  153.9026  143.9836  159.5880 H   0  0  0  0  0  0  0  0  0  0  0  0
  153.8239  143.7743  157.8643 H   0  0  0  0  0  0  0  0  0  0  0  0
  1  2  1  0  0  0  0
  1 31  1  0  0  0  0
  1 32  1  0  0  0  0
  1 33  1  0  0  0  0
  2 25  1  0  0  0  0
  2  3  1  0  0  0  0
  2 34  1  0  0  0  0
  3  4  1  0  0  0  0
  3 35  1  0  0  0  0
  3 36  1  0  0  0  0
  4  5  1  0  0  0  0
  4 37  1  0  0  0  0
  4 38  1  0  0  0  0
  5  6  1  0  0  0  0
  5 24  1  0  0  0  0
  6 11  1  0  0  0  0
  6  7  2  0  0  0  0
  7  8  1  0  0  0  0
  8  9  2  0  0  0  0
  8 39  1  0  0  0  0
  9 10  1  0  0  0  0
 10 14  1  0  0  0  0
 10 11  2  0  0  0  0
 11 12  1  0  0  0  0
 12 13  2  0  0  0  0
 13 14  1  0  0  0  0
 13 40  1  0  0  0  0
 14 15  1  0  0  0  0
 15 16  1  0  0  0  0
 15 41  1  0  0  0  0
 15 42  1  0  0  0  0
 16 23  1  0  0  0  0
 16 17  1  0  0  0  0
 16 19  1  0  0  0  0
 17 18  1  0  0  0  0
 17 43  1  0  0  0  0
 17 44  1  0  0  0  0
 18 45  1  0  0  0  0
 19 20  1  0  0  0  0
 19 46  1  0  0  0  0
 19 47  1  0  0  0  0
 20 21  1  0  0  0  0
 20 48  1  0  0  0  0
 20 49  1  0  0  0  0
 21 22  1  0  0  0  0
 22 23  1  0  0  0  0
 22 50  1  0  0  0  0
 22 51  1  0  0  0  0
 23 52  1  0  0  0  0
 23 53  1  0  0  0  0
 24 25  1  0  0  0  0
 24 54  1  0  0  0  0
 24 55  1  0  0  0  0
 25 30  1  0  0  0  0
 25 26  1  0  0  0  0
 26 27  1  0  0  0  0
 26 56  1  0  0  0  0
 26 57  1  0  0  0  0
 27 28  1  0  0  0  0
 27 58  1  0  0  0  0
 27 59  1  0  0  0  0
 28 29  1  0  0  0  0
 28 60  1  0  0  0  0
 28 61  1  0  0  0  0
 29 30  1  0  0  0  0
 29 62  1  0  0  0  0
 29 63  1  0  0  0  0
 30 64  1  0  0  0  0
 30 65  1  0  0  0  0
M  END
> <s_m_source_file>
AV-unprocessed.smi

> <i_m_source_file_index>
216

> <i_lp_mmshare_version>
43012

> <i_f3d_flags>
0

> <s_epik_input>
W0NIMl0xW0NIMl1bQ0gyXVtDSDJdW0NIMl1DMTJbQ0BIXShbQ0gzXSlbQ0gyXVtDSDJdTihbQ0gyXTIpYyhuW2NIXW4zKWMoYzM0KW5bY0hdbjRbQ0gyXUM1KFtDSDJdW09IXSlbQ0gyXVtDSDJdT1tDSDJdW0NIMl01

> <s_epik_cmdline>
J2VwaWtfcHl0aG9uJywgJy1waCcsICc3LjAnLCAnLXRuJywgJzgnLCAnLW1hJywgJzIwMCcsICctbWV0YWxfYmluZGluZycsICctaW1hZScsICc8aW5maWxlLm1hZT4nLCAnLW9tYWUnLCAnPG91dGZpbGUubWFlPic=

> <r_lp_tautomer_probability>
1

> <r_epik_Ionization_Penalty>
0.00291566

> <r_epik_Ionization_Penalty_Charging>
0

> <r_epik_Ionization_Penalty_Neutral>
0.00291566

> <r_epik_State_Penalty>
0.00199166

> <r_epik_Charging_Adjusted_Penalty>
0.00199166

> <i_epik_Tot_Q>
0

> <i_epik_Tot_abs_Q>
0

> <r_epik_Metal_State_Penalty>
-0

> <b_epik_Metal_Only>
0

> <s_lp_Force_Field>
OPLS_2005

> <r_lp_Energy>
50.0726

> <b_lp_Chiralities_Consistent>
1

> <s_lp_Variant>
AV-unprocessed.smi:216-2

> <Gold.Version>
5.8.1

> <Gold.Id.Protein>
6NUR|6NUR_protein|mol2

> <Gold.PLP.Fitness>
47.5771

> <Gold.PLP.PLP>
-45.9063

> <Gold.PLP.part.hbond>
-1.8719

> <Gold.PLP.part.metal>
0.0000

> <Gold.PLP.part.buried>
-6.2013

> <Gold.PLP.part.nonpolar>
-39.1213

> <Gold.PLP.part.repulsive>
0.3763

> <Gold.PLP.ligand.clash>
0.0000

> <Gold.PLP.ligand.torsion>
0.8170

> <Gold.PLP.Chemscore.Hbond>
0.0000

> <Gold.PLP.Chemscore.CHOScore>
0.9936

> <Gold.PLP.Chemscore.Metal>
0.0000

> <Gold.Chemscore.Hbonds>
donor molecule, donor type, donor heavy atom, donor atom, acceptor molecule, acceptor atom, score
      L1  C     8    39       P1  7957  1.00

> <Gold.PLP.Chemscore.Internal.Correction>
0.3239

> <Gold.Rescore>
     Score         DG    S(hbond)    S(metal)    S(lipo)     H(rot)  DE(clash)    DE(int)     intcor
     14.39     -16.32       0.00        0.00     140.79       2.20       1.20       0.72       ----

> <Gold.Chemscore.Fitness>
14.3910

> <Gold.Chemscore.DG>
-16.3158

> <Gold.Chemscore.ZeroCoef>
-5.4800

> <Gold.Chemscore.Hbond>
0.0000

> <Gold.Chemscore.Metal>
0.0000

> <Gold.Chemscore.Lipo>
140.7918

> <Gold.Chemscore.Internal_Hbond>
0.0000

> <Gold.Chemscore.DEClash>
1.2008

> <Gold.Chemscore.DEInternal>
0.7240

> <Gold.Chemscore.Rot>
2.2019

> <Gold.Chemscore.Internal.Correction>
   9.000000E+99

> <Gold.Chemscore.Hbond.Weighted>
-0.0001

> <Gold.Chemscore.Metal.Weighted>
-0.0000

> <Gold.Chemscore.Lipo.Weighted>
-16.4726

> <Gold.Chemscore.Internal_Hbond.Weighted>
0.0000

> <Gold.Chemscore.DEClash.Weighted>
1.2008

> <Gold.Chemscore.DEInternal.Weighted>
0.7240

> <Gold.Chemscore.Rot.Weighted>
5.6370

> <Gold.Chemscore.Internal.Correction.Weighted>
   9.000000E+99

> <Gold.Protein.RotatedTorsions>
[ 6907 6896 6895 6894 ] final -136.07 input  -60.11 | X-H torsion
[ 7974 7965 7964 7962 ] final   82.37 input  175.53 | X-H torsion
[ 8008 7997 7996 7995 ] final  135.22 input   59.86 | X-H torsion
[ 10167 10162 10161 10158 ] final  108.19 input  -65.29 | X-H torsion
[ 10718 10713 10712 10709 ] final  -75.13 input   66.30 | X-H torsion
[ 10763 10752 10751 10750 ] final  148.60 input  -60.55 | X-H torsion
[ 11005 11000 10999 10996 ] final -106.83 input  -57.11 | X-H torsion

> <Gold.Protein.ActiveResidues>
 VAL166  LYS551  ARG553  GLY616  TRP617  ASP618  TYR619  PRO620  LYS621  CYS622 
 ASP623  PHE694  ASN695  SER759  ASP760  ASP761  ALA762  ILE779  LEU786  VAL792 
 PHE793  MET794  SER795  GLU796  ALA797  LYS798  CYS799  TRP800  GLU811  SER814 

> <Gold.Protein.RotatedAtoms>
  151.0055  133.6015  159.2689 H   0  0  0  0  0  0  0  0  0  0  0  0  # atno 6907 bound_to 6896
  151.3185  135.0811  159.9307 H   0  0  0  0  0  0  0  0  0  0  0  0  # atno 6908 bound_to 6896
  152.5285  133.9707  159.7815 H   0  0  0  0  0  0  0  0  0  0  0  0  # atno 6909 bound_to 6896
  145.6260  139.2395  143.2111 H   0  0  0  0  0  0  0  0  0  0  0  0  # atno 7974 bound_to 7965
  156.3002  140.2476  156.3546 H   0  0  0  0  0  0  0  0  0  0  0  0  # atno 8008 bound_to 7997
  154.8933  140.0408  157.1871 H   0  0  0  0  0  0  0  0  0  0  0  0  # atno 8009 bound_to 7997
  154.8575  140.2915  155.5564 H   0  0  0  0  0  0  0  0  0  0  0  0  # atno 8010 bound_to 7997
  139.6866  144.7113  151.1422 H   0  0  0  0  0  0  0  0  0  0  0  0  # atno 10167 bound_to 10162
  156.0218  130.4433  150.2997 H   0  0  0  0  0  0  0  0  0  0  0  0  # atno 10718 bound_to 10713
  154.0574  135.2877  155.3330 H   0  0  0  0  0  0  0  0  0  0  0  0  # atno 10763 bound_to 10752
  154.6830  135.5256  153.8292 H   0  0  0  0  0  0  0  0  0  0  0  0  # atno 10764 bound_to 10752
  153.0536  135.6586  154.0765 H   0  0  0  0  0  0  0  0  0  0  0  0  # atno 10765 bound_to 10752
  141.0985  133.8927  157.1903 H   0  0  0  0  0  0  0  0  0  0  0  0  # atno 11005 bound_to 11000
  146.1394  140.7078  142.9374 LP  0  0  0  0  0  0  0  0  0  0  0  0  # atno 17320 bound_to 7965
  144.7212  140.4379  143.7007 LP  0  0  0  0  0  0  0  0  0  0  0  0  # atno 17321 bound_to 7965
  140.7669  143.5620  150.9088 LP  0  0  0  0  0  0  0  0  0  0  0  0  # atno 17342 bound_to 10162
  139.9296  143.6509  152.3079 LP  0  0  0  0  0  0  0  0  0  0  0  0  # atno 17343 bound_to 10162
  157.1099  131.0218  151.3052 LP  0  0  0  0  0  0  0  0  0  0  0  0  # atno 17370 bound_to 10713
  157.4712  130.7710  149.7325 LP  0  0  0  0  0  0  0  0  0  0  0  0  # atno 17371 bound_to 10713
  139.9829  135.0092  156.9792 LP  0  0  0  0  0  0  0  0  0  0  0  0  # atno 17394 bound_to 11000
  140.5081  134.1030  155.7264 LP  0  0  0  0  0  0  0  0  0  0  0  0  # atno 17395 bound_to 11000

$$$$
