AV-unprocessed.smi:1199|AV-procd|sdf|5019|dock9
  -GOLD-   22720 4 43D 1   1.00000     0.00000
 Structure written by MMmdl.
 41 42  0  0  0  0  0  0  0  0  1 V2000
  154.9629  137.9156  160.4761 C   0  0  0  0  0  0  0  0  0  0  0  0
  154.0751  139.1671  160.4041 C   0  0  1  0  0  0  0  0  0  0  0  0
  154.9135  140.4538  160.2361 C   0  0  0  0  0  0  0  0  0  0  0  0
  154.2325  141.7049  160.5812 N   0  0  0  0  0  0  0  0  0  0  0  0
  153.5817  141.6604  161.8901 C   0  0  0  0  0  0  0  0  0  0  0  0
  152.8342  142.9655  162.2129 C   0  0  0  0  0  0  0  0  0  0  0  0
  151.8923  143.2470  161.1838 O   0  0  0  0  0  0  0  0  0  0  0  0
  152.5019  143.3581  159.9022 C   0  0  0  0  0  0  0  0  0  0  0  0
  153.2377  142.0485  159.5700 C   0  0  0  0  0  0  0  0  0  0  0  0
  153.1579  139.0295  159.2754 N   0  0  0  0  0  0  0  0  0  0  0  0
  152.1768  138.1202  159.1735 C   0  0  0  0  0  0  0  0  0  0  0  0
  152.0007  137.2169  159.9912 O   0  0  0  0  0  0  0  0  0  0  0  0
  151.2470  138.2632  157.9630 C   0  0  0  0  0  0  0  0  0  0  0  0
  150.0715  137.3906  158.0853 N   0  0  0  0  0  0  0  0  0  0  0  0
  149.2673  137.6897  159.1761 N   0  0  0  0  0  0  0  0  0  0  0  0
  148.2275  136.9696  159.4283 C   0  0  0  0  0  0  0  0  0  0  0  0
  147.4653  137.2973  160.5225 O   0  0  0  0  0  0  0  0  0  0  0  0
  147.8708  135.8497  158.5859 C   0  0  0  0  0  0  0  0  0  0  0  0
  148.6561  135.5694  157.5227 C   0  0  0  0  0  0  0  0  0  0  0  0
  149.8471  136.3618  157.2109 C   0  0  0  0  0  0  0  0  0  0  0  0
  150.5835  136.1212  156.2547 O   0  0  0  0  0  0  0  0  0  0  0  0
  147.4162  136.5082  161.0399 H   0  0  0  0  0  0  0  0  0  0  0  0
  155.6465  137.9681  161.3240 H   0  0  0  0  0  0  0  0  0  0  0  0
  155.5616  137.7985  159.5723 H   0  0  0  0  0  0  0  0  0  0  0  0
  154.3616  137.0140  160.5982 H   0  0  0  0  0  0  0  0  0  0  0  0
  153.5251  139.2335  161.3448 H   0  0  0  0  0  0  0  0  0  0  0  0
  155.7814  140.3634  160.8907 H   0  0  0  0  0  0  0  0  0  0  0  0
  155.3215  140.5106  159.2254 H   0  0  0  0  0  0  0  0  0  0  0  0
  152.8839  140.8226  161.9302 H   0  0  0  0  0  0  0  0  0  0  0  0
  154.3201  141.4949  162.6724 H   0  0  0  0  0  0  0  0  0  0  0  0
  152.3094  142.8751  163.1643 H   0  0  0  0  0  0  0  0  0  0  0  0
  153.5345  143.7966  162.3112 H   0  0  0  0  0  0  0  0  0  0  0  0
  151.7320  143.5606  159.1575 H   0  0  0  0  0  0  0  0  0  0  0  0
  153.1916  144.2037  159.8898 H   0  0  0  0  0  0  0  0  0  0  0  0
  153.7180  142.1443  158.5955 H   0  0  0  0  0  0  0  0  0  0  0  0
  152.5089  141.2415  159.4799 H   0  0  0  0  0  0  0  0  0  0  0  0
  153.2321  139.7241  158.5465 H   0  0  0  0  0  0  0  0  0  0  0  0
  150.9213  139.3007  157.8617 H   0  0  0  0  0  0  0  0  0  0  0  0
  151.8146  138.0483  157.0563 H   0  0  0  0  0  0  0  0  0  0  0  0
  146.9955  135.2578  158.8091 H   0  0  0  0  0  0  0  0  0  0  0  0
  148.4016  134.7351  156.8858 H   0  0  0  0  0  0  0  0  0  0  0  0
  1  2  1  0  0  0  0
  1 23  1  0  0  0  0
  1 24  1  0  0  0  0
  1 25  1  0  0  0  0
  2  3  1  0  0  0  0
  2 10  1  0  0  0  0
  2 26  1  0  0  0  0
  3  4  1  0  0  0  0
  3 27  1  0  0  0  0
  3 28  1  0  0  0  0
  4  9  1  0  0  0  0
  4  5  1  0  0  0  0
  5  6  1  0  0  0  0
  5 29  1  0  0  0  0
  5 30  1  0  0  0  0
  6  7  1  0  0  0  0
  6 31  1  0  0  0  0
  6 32  1  0  0  0  0
  7  8  1  0  0  0  0
  8  9  1  0  0  0  0
  8 33  1  0  0  0  0
  8 34  1  0  0  0  0
  9 35  1  0  0  0  0
  9 36  1  0  0  0  0
 10 11  1  0  0  0  0
 10 37  1  0  0  0  0
 11 12  2  0  0  0  0
 11 13  1  0  0  0  0
 13 38  1  0  0  0  0
 13 39  1  0  0  0  0
 13 14  1  0  0  0  0
 14 15  1  0  0  0  0
 14 20  1  0  0  0  0
 15 16  2  0  0  0  0
 16 17  1  0  0  0  0
 16 18  1  0  0  0  0
 17 22  1  0  0  0  0
 18 40  1  0  0  0  0
 18 19  2  0  0  0  0
 19 41  1  0  0  0  0
 19 20  1  0  0  0  0
 20 21  2  0  0  0  0
M  END
> <s_m_source_file>
AV-unprocessed.smi

> <i_m_source_file_index>
1199

> <i_lp_mmshare_version>
43012

> <i_f3d_flags>
0

> <s_epik_input>
W0NIMl0xW0NIMl1PW0NIMl1bQ0gyXU4xW0NIMl1bQ0BASF0oW0NIM10pW05IXUMoPU8pW0NIMl1uMltuSF1jKD1PKVtjSF1bY0hdYzI9Tw==

> <s_epik_cmdline>
J2VwaWtfcHl0aG9uJywgJy1waCcsICc3LjAnLCAnLXRuJywgJzgnLCAnLW1hJywgJzIwMCcsICctbWV0YWxfYmluZGluZycsICctaW1hZScsICc8aW5maWxlLm1hZT4nLCAnLW9tYWUnLCAnPG91dGZpbGUubWFlPic=

> <r_epik_Ionization_Penalty>
2.36432

> <r_epik_Ionization_Penalty_Charging>
3.67277e-08

> <r_epik_Ionization_Penalty_Neutral>
2.36432

> <r_epik_State_Penalty>
1.96081

> <r_epik_Charging_Adjusted_Penalty>
1.96081

> <i_epik_Tot_Q>
0

> <i_epik_Tot_abs_Q>
0

> <r_epik_Metal_State_Penalty>
1.96081

> <b_epik_Metal_Only>
0

> <s_lp_Force_Field>
OPLS_2005

> <r_lp_Energy>
38.3542

> <b_lp_Chiralities_Consistent>
1

> <s_lp_Variant>
AV-unprocessed.smi:1199-6

> <Gold.Version>
5.8.1

> <Gold.Id.Protein>
6NUR|6NUR_protein|mol2

> <Gold.PLP.Fitness>
43.2746

> <Gold.PLP.PLP>
-35.5841

> <Gold.PLP.part.hbond>
-4.5057

> <Gold.PLP.part.metal>
0.0000

> <Gold.PLP.part.buried>
-6.0885

> <Gold.PLP.part.nonpolar>
-24.4855

> <Gold.PLP.part.repulsive>
0.2091

> <Gold.PLP.ligand.clash>
0.0000

> <Gold.PLP.ligand.torsion>
0.3942

> <Gold.PLP.Chemscore.Hbond>
2.8225

> <Gold.PLP.Chemscore.CHOScore>
0.0000

> <Gold.PLP.Chemscore.Metal>
0.0000

> <Gold.Chemscore.Hbonds>
donor molecule, donor type, donor heavy atom, donor atom, acceptor molecule, acceptor atom, score
      P1  H  6896  6908       L1    12  0.89
      P1  H  6931  6943       L1    17  0.16
      P1  H  6934  6947       L1    17  1.00

> <Gold.PLP.Chemscore.Internal.Correction>
0.0114

> <Gold.Rescore>
     Score         DG    S(hbond)    S(metal)    S(lipo)     H(rot)  DE(clash)    DE(int)     intcor
     11.52     -12.94       1.94        0.00      72.81       2.94       0.00       1.42       ----

> <Gold.Chemscore.Fitness>
11.5153

> <Gold.Chemscore.DG>
-12.9350

> <Gold.Chemscore.ZeroCoef>
-5.4800

> <Gold.Chemscore.Hbond>
1.9378

> <Gold.Chemscore.Metal>
0.0000

> <Gold.Chemscore.Lipo>
72.8091

> <Gold.Chemscore.Internal_Hbond>
0.0000

> <Gold.Chemscore.DEClash>
0.0029

> <Gold.Chemscore.DEInternal>
1.4168

> <Gold.Chemscore.Rot>
2.9437

> <Gold.Chemscore.Internal.Correction>
   9.000000E+99

> <Gold.Chemscore.Hbonds>
donor molecule, donor type, donor heavy atom, donor atom, acceptor molecule, acceptor atom, score
      P1  H  6896  6908       L1    12  0.86
      P1  H  6931  6943       L1    17  0.01
      P1  H  6934  6947       L1    17  0.93

> <Gold.Chemscore.Hbond.Weighted>
-6.4723

> <Gold.Chemscore.Metal.Weighted>
-0.0000

> <Gold.Chemscore.Lipo.Weighted>
-8.5187

> <Gold.Chemscore.Internal_Hbond.Weighted>
0.0000

> <Gold.Chemscore.DEClash.Weighted>
0.0029

> <Gold.Chemscore.DEInternal.Weighted>
1.4168

> <Gold.Chemscore.Rot.Weighted>
7.5359

> <Gold.Chemscore.Internal.Correction.Weighted>
   9.000000E+99

> <Gold.Protein.RotatedTorsions>
[ 6907 6896 6895 6894 ] final -112.19 input  -60.11 | X-H torsion
[ 7974 7965 7964 7962 ] final  -48.87 input  175.53 | X-H torsion
[ 8008 7997 7996 7995 ] final  -19.36 input   59.86 | X-H torsion
[ 10167 10162 10161 10158 ] final  132.64 input  -65.29 | X-H torsion
[ 10718 10713 10712 10709 ] final    4.98 input   66.30 | X-H torsion
[ 10763 10752 10751 10750 ] final  112.16 input  -60.55 | X-H torsion
[ 11005 11000 10999 10996 ] final    0.36 input  -57.11 | X-H torsion

> <Gold.Protein.ActiveResidues>
 VAL166  LYS551  ARG553  GLY616  TRP617  ASP618  TYR619  PRO620  LYS621  CYS622 
 ASP623  PHE694  ASN695  SER759  ASP760  ASP761  ALA762  ILE779  LEU786  VAL792 
 PHE793  MET794  SER795  GLU796  ALA797  LYS798  CYS799  TRP800  GLU811  SER814 

> <Gold.Protein.RotatedAtoms>
  150.7741  133.9126  159.3373 H   0  0  0  0  0  0  0  0  0  0  0  0  # atno 6907 bound_to 6896
  151.7005  135.0929  160.0259 H   0  0  0  0  0  0  0  0  0  0  0  0  # atno 6908 bound_to 6896
  152.3771  133.6457  159.6167 H   0  0  0  0  0  0  0  0  0  0  0  0  # atno 6909 bound_to 6896
  145.9466  140.7612  142.9525 H   0  0  0  0  0  0  0  0  0  0  0  0  # atno 7974 bound_to 7965
  154.4842  140.2091  155.9693 H   0  0  0  0  0  0  0  0  0  0  0  0  # atno 8008 bound_to 7997
  156.1211  140.3213  155.8179 H   0  0  0  0  0  0  0  0  0  0  0  0  # atno 8009 bound_to 7997
  155.4465  140.0514  157.2996 H   0  0  0  0  0  0  0  0  0  0  0  0  # atno 8010 bound_to 7997
  139.5331  144.6653  151.4881 H   0  0  0  0  0  0  0  0  0  0  0  0  # atno 10167 bound_to 10162
  156.9007  130.5720  149.5648 H   0  0  0  0  0  0  0  0  0  0  0  0  # atno 10718 bound_to 10713
  153.4738  135.3695  155.2405 H   0  0  0  0  0  0  0  0  0  0  0  0  # atno 10763 bound_to 10752
  154.8756  135.3938  154.3781 H   0  0  0  0  0  0  0  0  0  0  0  0  # atno 10764 bound_to 10752
  153.4373  135.7083  153.6256 H   0  0  0  0  0  0  0  0  0  0  0  0  # atno 10765 bound_to 10752
  140.6275  133.9605  155.8256 H   0  0  0  0  0  0  0  0  0  0  0  0  # atno 11005 bound_to 11000
  144.6788  140.2366  143.7349 LP  0  0  0  0  0  0  0  0  0  0  0  0  # atno 17320 bound_to 7965
  145.8228  139.2051  143.1928 LP  0  0  0  0  0  0  0  0  0  0  0  0  # atno 17321 bound_to 7965
  140.6521  143.8675  150.6797 LP  0  0  0  0  0  0  0  0  0  0  0  0  # atno 17342 bound_to 10162
  140.2043  143.3934  152.1768 LP  0  0  0  0  0  0  0  0  0  0  0  0  # atno 17343 bound_to 10162
  156.0583  130.5641  150.9139 LP  0  0  0  0  0  0  0  0  0  0  0  0  # atno 17370 bound_to 10713
  157.6028  131.0940  150.8931 LP  0  0  0  0  0  0  0  0  0  0  0  0  # atno 17371 bound_to 10713
  141.0699  134.0221  157.3541 LP  0  0  0  0  0  0  0  0  0  0  0  0  # atno 17394 bound_to 11000
  139.9129  135.0193  156.7765 LP  0  0  0  0  0  0  0  0  0  0  0  0  # atno 17395 bound_to 11000

$$$$
