AV-unprocessed.smi:845|AV-procd|sdf|3928|dock4
  -GOLD-   22720 1393D 1   1.00000     0.00000
 Structure written by MMmdl.
 43 44  0  0  0  0  0  0  0  0  2 V2000
  145.4926  139.4054  156.6352 C   0  0  0  0  0  0  0  0  0  0  0  0
  147.0000  139.7221  156.6876 C   0  0  0  0  0  0  0  0  0  0  0  0
  147.1880  141.1874  157.1239 C   0  0  0  0  0  0  0  0  0  0  0  0
  147.7076  139.4159  155.3344 C   0  0  1  0  0  0  0  0  0  0  0  0
  147.0970  140.1335  154.0971 C   0  0  0  0  0  0  0  0  0  0  0  0
  145.9373  139.4440  153.5318 N   0  0  0  0  0  0  0  0  0  0  0  0
  145.8119  138.1171  153.3868 C   0  0  0  0  0  0  0  0  0  0  0  0
  146.6900  137.3137  153.7015 O   0  0  0  0  0  0  0  0  0  0  0  0
  144.6203  137.7966  152.8530 N   0  0  0  0  0  0  0  0  0  0  0  0
  144.1265  136.5071  152.5220 C   0  0  0  0  0  0  0  0  0  0  0  0
  143.3352  135.7758  153.3155 N   0  0  0  0  0  0  0  0  0  0  0  0
  143.0052  134.5469  152.7382 C   0  0  0  0  0  0  0  0  0  0  0  0
  143.5599  134.3569  151.4969 C   0  0  0  0  0  0  0  0  0  0  0  0
  144.5243  135.7221  151.0006 S   0  0  0  0  0  0  0  0  0  0  0  0
  149.1914  139.5708  155.4395 N   0  3  0  0  0  0  0  0  0  0  0  0
  149.9665  138.7606  154.4683 C   0  0  0  0  0  0  0  0  0  0  0  0
  151.4638  138.8171  154.8166 C   0  0  0  0  0  0  0  0  0  0  0  0
  151.9020  140.1707  154.8389 O   0  0  0  0  0  0  0  0  0  0  0  0
  151.2137  140.9435  155.8159 C   0  0  0  0  0  0  0  0  0  0  0  0
  149.7115  140.9595  155.4911 C   0  0  0  0  0  0  0  0  0  0  0  0
  144.9926  139.9826  155.8568 H   0  0  0  0  0  0  0  0  0  0  0  0
  145.0092  139.6434  157.5833 H   0  0  0  0  0  0  0  0  0  0  0  0
  145.3036  138.3493  156.4420 H   0  0  0  0  0  0  0  0  0  0  0  0
  147.4330  139.0952  157.4672 H   0  0  0  0  0  0  0  0  0  0  0  0
  146.8023  141.8774  156.3725 H   0  0  0  0  0  0  0  0  0  0  0  0
  148.2358  141.4331  157.2945 H   0  0  0  0  0  0  0  0  0  0  0  0
  146.6617  141.3892  158.0573 H   0  0  0  0  0  0  0  0  0  0  0  0
  147.5453  138.3504  155.1634 H   0  0  0  0  0  0  0  0  0  0  0  0
  146.8800  141.1778  154.3214 H   0  0  0  0  0  0  0  0  0  0  0  0
  147.8461  140.1679  153.3058 H   0  0  0  0  0  0  0  0  0  0  0  0
  145.1614  140.0245  153.2480 H   0  0  0  0  0  0  0  0  0  0  0  0
  143.9928  138.5626  152.6579 H   0  0  0  0  0  0  0  0  0  0  0  0
  142.3681  133.8655  153.2824 H   0  0  0  0  0  0  0  0  0  0  0  0
  143.4600  133.4999  150.8473 H   0  0  0  0  0  0  0  0  0  0  0  0
  149.6289  137.7238  154.4861 H   0  0  0  0  0  0  0  0  0  0  0  0
  149.8104  139.1333  153.4556 H   0  0  0  0  0  0  0  0  0  0  0  0
  151.6570  138.3459  155.7818 H   0  0  0  0  0  0  0  0  0  0  0  0
  152.0435  138.2690  154.0736 H   0  0  0  0  0  0  0  0  0  0  0  0
  151.3937  140.5394  156.8132 H   0  0  0  0  0  0  0  0  0  0  0  0
  151.6108  141.9586  155.8068 H   0  0  0  0  0  0  0  0  0  0  0  0
  149.5664  141.4495  154.5293 H   0  0  0  0  0  0  0  0  0  0  0  0
  149.1788  141.5435  156.2409 H   0  0  0  0  0  0  0  0  0  0  0  0
  149.4171  139.1710  156.3391 H   0  0  0  0  0  0  0  0  0  0  0  0
  1  2  1  0  0  0  0
  1 21  1  0  0  0  0
  1 22  1  0  0  0  0
  1 23  1  0  0  0  0
  2  3  1  0  0  0  0
  2  4  1  0  0  0  0
  2 24  1  0  0  0  0
  3 25  1  0  0  0  0
  3 26  1  0  0  0  0
  3 27  1  0  0  0  0
  4  5  1  0  0  0  0
  4 15  1  0  0  0  0
  4 28  1  0  0  0  0
  5  6  1  0  0  0  0
  5 29  1  0  0  0  0
  5 30  1  0  0  0  0
  6  7  1  0  0  0  0
  6 31  1  0  0  0  0
  7  8  2  0  0  0  0
  7  9  1  0  0  0  0
  9 10  1  0  0  0  0
  9 32  1  0  0  0  0
 10 14  1  0  0  0  0
 10 11  2  0  0  0  0
 11 12  1  0  0  0  0
 12 13  2  0  0  0  0
 12 33  1  0  0  0  0
 13 14  1  0  0  0  0
 13 34  1  0  0  0  0
 15 20  1  0  0  0  0
 15 16  1  0  0  0  0
 15 43  1  0  0  0  0
 16 17  1  0  0  0  0
 16 35  1  0  0  0  0
 16 36  1  0  0  0  0
 17 18  1  0  0  0  0
 17 37  1  0  0  0  0
 17 38  1  0  0  0  0
 18 19  1  0  0  0  0
 19 20  1  0  0  0  0
 19 39  1  0  0  0  0
 19 40  1  0  0  0  0
 20 41  1  0  0  0  0
 20 42  1  0  0  0  0
M  CHG  1  15   1
M  END
> <s_m_source_file>
AV-unprocessed.smi

> <i_m_source_file_index>
845

> <i_lp_mmshare_version>
43012

> <i_f3d_flags>
0

> <s_epik_input>
W0NIMl0xW0NIMl1PW0NIMl1bQ0gyXU4xW0NASF0oW0NIXShbQ0gzXSlbQ0gzXSlbQ0gyXVtOSF1DKD1PKVtOSF1jMm5bY0hdW2NIXXMy

> <s_epik_cmdline>
J2VwaWtfcHl0aG9uJywgJy1waCcsICc3LjAnLCAnLXRuJywgJzgnLCAnLW1hJywgJzIwMCcsICctbWV0YWxfYmluZGluZycsICctaW1hZScsICc8aW5maWxlLm1hZT4nLCAnLW9tYWUnLCAnPG91dGZpbGUubWFlPic=

> <r_lp_tautomer_probability>
0.999

> <r_epik_Ionization_Penalty>
0.398341

> <r_epik_Ionization_Penalty_Charging>
0.398119

> <r_epik_Ionization_Penalty_Neutral>
0.000222117

> <r_epik_State_Penalty>
0.397286

> <r_epik_Charging_Adjusted_Penalty>
0.795404

> <i_epik_Tot_Q>
1

> <i_epik_Tot_abs_Q>
1

> <r_epik_Metal_State_Penalty>
0.407542

> <b_epik_Metal_Only>
0

> <s_lp_Force_Field>
OPLS_2005

> <r_lp_Energy>
31.69

> <b_lp_Chiralities_Consistent>
1

> <s_lp_Variant>
AV-unprocessed.smi:845-2

> <Gold.Version>
5.8.1

> <Gold.Id.Protein>
6NUR|6NUR_protein|mol2

> <Gold.PLP.Fitness>
35.9573

> <Gold.PLP.PLP>
-27.7538

> <Gold.PLP.part.hbond>
-3.6042

> <Gold.PLP.part.metal>
0.0000

> <Gold.PLP.part.buried>
-5.2424

> <Gold.PLP.part.nonpolar>
-20.2280

> <Gold.PLP.part.repulsive>
1.0755

> <Gold.PLP.ligand.clash>
0.0000

> <Gold.PLP.ligand.torsion>
1.5050

> <Gold.PLP.Chemscore.Hbond>
2.8320

> <Gold.PLP.Chemscore.CHOScore>
0.8128

> <Gold.PLP.Chemscore.Metal>
0.0000

> <Gold.Chemscore.Hbonds>
donor molecule, donor type, donor heavy atom, donor atom, acceptor molecule, acceptor atom, score
      L1  H     6    31       P1 10175  1.00
      L1  H     9    32       P1 10175  1.00
      P1  H  7989  7998       L1    18  0.83
      L1  C    12    33       P1 10957  0.86
      L1  C    13    34       P1 10186  0.01

> <Gold.PLP.Chemscore.Internal.Correction>
0.2790

> <Gold.Rescore>
     Score         DG    S(hbond)    S(metal)    S(lipo)     H(rot)  DE(clash)    DE(int)     intcor
     12.42     -15.09       2.44        0.00      51.97       1.80       0.01       2.66       ----

> <Gold.Chemscore.Fitness>
12.4199

> <Gold.Chemscore.DG>
-15.0935

> <Gold.Chemscore.ZeroCoef>
-5.4800

> <Gold.Chemscore.Hbond>
2.4410

> <Gold.Chemscore.Metal>
0.0000

> <Gold.Chemscore.Lipo>
51.9682

> <Gold.Chemscore.Internal_Hbond>
0.0000

> <Gold.Chemscore.DEClash>
0.0120

> <Gold.Chemscore.DEInternal>
2.6616

> <Gold.Chemscore.Rot>
1.8046

> <Gold.Chemscore.Internal.Correction>
   9.000000E+99

> <Gold.Chemscore.Hbonds>
donor molecule, donor type, donor heavy atom, donor atom, acceptor molecule, acceptor atom, score
      L1  H     6    31       P1 10175  0.99
      L1  H     9    32       P1 10175  0.95
      P1  H  7989  7998       L1    18  0.36

> <Gold.Chemscore.Hbond.Weighted>
-8.1530

> <Gold.Chemscore.Metal.Weighted>
-0.0000

> <Gold.Chemscore.Lipo.Weighted>
-6.0803

> <Gold.Chemscore.Internal_Hbond.Weighted>
0.0000

> <Gold.Chemscore.DEClash.Weighted>
0.0120

> <Gold.Chemscore.DEInternal.Weighted>
2.6616

> <Gold.Chemscore.Rot.Weighted>
4.6197

> <Gold.Chemscore.Internal.Correction.Weighted>
   9.000000E+99

> <Gold.Protein.RotatedTorsions>
[ 6907 6896 6895 6894 ] final  161.35 input  -60.11 | X-H torsion
[ 7974 7965 7964 7962 ] final -106.13 input  175.53 | X-H torsion
[ 8008 7997 7996 7995 ] final  -81.96 input   59.86 | X-H torsion
[ 10167 10162 10161 10158 ] final   31.42 input  -65.29 | X-H torsion
[ 10718 10713 10712 10709 ] final  -49.73 input   66.30 | X-H torsion
[ 10763 10752 10751 10750 ] final  158.32 input  -60.55 | X-H torsion
[ 11005 11000 10999 10996 ] final  171.02 input  -57.11 | X-H torsion

> <Gold.Protein.ActiveResidues>
 VAL166  LYS551  ARG553  GLY616  TRP617  ASP618  TYR619  PRO620  LYS621  CYS622 
 ASP623  PHE694  ASN695  SER759  ASP760  ASP761  ALA762  ILE779  LEU786  VAL792 
 PHE793  MET794  SER795  GLU796  ALA797  LYS798  CYS799  TRP800  GLU811  SER814 

> <Gold.Protein.RotatedAtoms>
  151.9568  133.3683  159.4020 H   0  0  0  0  0  0  0  0  0  0  0  0  # atno 6907 bound_to 6896
  150.6971  134.4282  159.5245 H   0  0  0  0  0  0  0  0  0  0  0  0  # atno 6908 bound_to 6896
  152.1964  134.8626  160.0563 H   0  0  0  0  0  0  0  0  0  0  0  0  # atno 6909 bound_to 6896
  145.2217  140.9137  143.3256 H   0  0  0  0  0  0  0  0  0  0  0  0  # atno 7974 bound_to 7965
  154.6037  140.0640  156.9402 H   0  0  0  0  0  0  0  0  0  0  0  0  # atno 8008 bound_to 7997
  155.2089  140.3321  155.4313 H   0  0  0  0  0  0  0  0  0  0  0  0  # atno 8009 bound_to 7997
  156.2334  140.1851  156.7166 H   0  0  0  0  0  0  0  0  0  0  0  0  # atno 8010 bound_to 7997
  140.4590  144.0935  150.6208 H   0  0  0  0  0  0  0  0  0  0  0  0  # atno 10167 bound_to 10162
  156.1866  130.4151  149.9430 H   0  0  0  0  0  0  0  0  0  0  0  0  # atno 10718 bound_to 10713
  154.2142  135.2785  155.2947 H   0  0  0  0  0  0  0  0  0  0  0  0  # atno 10763 bound_to 10752
  154.5754  135.5606  153.7137 H   0  0  0  0  0  0  0  0  0  0  0  0  # atno 10764 bound_to 10752
  153.0057  135.6331  154.2282 H   0  0  0  0  0  0  0  0  0  0  0  0  # atno 10765 bound_to 10752
  140.3146  134.7488  157.4017 H   0  0  0  0  0  0  0  0  0  0  0  0  # atno 11005 bound_to 11000
  144.9759  139.3832  143.6286 LP  0  0  0  0  0  0  0  0  0  0  0  0  # atno 17320 bound_to 7965
  146.3374  139.8878  142.8814 LP  0  0  0  0  0  0  0  0  0  0  0  0  # atno 17321 bound_to 7965
  140.4116  143.2654  151.9825 LP  0  0  0  0  0  0  0  0  0  0  0  0  # atno 17342 bound_to 10162
  139.4804  144.5910  151.7772 LP  0  0  0  0  0  0  0  0  0  0  0  0  # atno 17343 bound_to 10162
  156.7184  130.8997  151.3616 LP  0  0  0  0  0  0  0  0  0  0  0  0  # atno 17370 bound_to 10713
  157.6903  130.9226  150.0495 LP  0  0  0  0  0  0  0  0  0  0  0  0  # atno 17371 bound_to 10713
  140.0995  134.5492  155.8366 LP  0  0  0  0  0  0  0  0  0  0  0  0  # atno 17394 bound_to 11000
  141.2100  133.6690  156.6482 LP  0  0  0  0  0  0  0  0  0  0  0  0  # atno 17395 bound_to 11000

$$$$
