AV-unprocessed.smi:1867|AV-procd|sdf|7583|dock3
  -GOLD-   22720 9293D 1   1.00000     0.00000
 Structure written by MMmdl.
 52 55  0  0  0  0  0  0  0  0  4 V2000
  146.9982  140.3475  154.4967 O   0  0  0  0  0  0  0  0  0  0  0  0
  147.5035  139.2299  154.5864 C   0  0  0  0  0  0  0  0  0  0  0  0
  148.6926  139.0974  155.2252 N   0  0  0  0  0  0  0  0  0  0  0  0
  149.4467  140.0814  155.9187 C   0  0  0  0  0  0  0  0  0  0  0  0
  150.4402  139.6432  156.8183 C   0  0  0  0  0  0  0  0  0  0  0  0
  151.1952  140.5891  157.5416 C   0  0  0  0  0  0  0  0  0  0  0  0
  150.9377  141.9700  157.3704 C   0  0  0  0  0  0  0  0  0  0  0  0
  151.6552  142.9704  158.0530 N   0  0  0  0  0  0  0  0  0  0  0  0
  151.2143  144.3560  158.0590 C   0  0  0  0  0  0  0  0  0  0  0  0
  152.1691  145.0586  159.0227 C   0  0  0  0  0  0  0  0  0  0  0  0
  152.4911  143.9699  160.0469 C   0  0  0  0  0  0  0  0  0  0  0  0
  152.4422  142.6669  159.2398 C   0  0  0  0  0  0  0  0  0  0  0  0
  149.9641  142.3442  156.5066 N   0  3  0  0  0  0  0  0  0  0  0  0
  149.2200  141.4722  155.7928 C   0  0  0  0  0  0  0  0  0  0  0  0
  146.9011  138.1344  154.0323 N   0  5  0  0  0  0  0  0  0  0  0  0
  145.8889  138.0704  152.9688 C   0  0  1  0  0  0  0  0  0  0  0  0
  146.4353  138.5981  151.6277 C   0  0  0  0  0  0  0  0  0  0  0  0
  145.8151  137.6956  150.5435 C   0  0  0  0  0  0  0  0  0  0  0  0
  144.9740  136.7248  151.2698 N   0  3  1  0  0  0  0  0  0  0  0  0
  144.7560  135.4071  150.6326 C   0  0  0  0  0  0  0  0  0  0  0  0
  143.7717  134.5842  151.4885 C   0  0  0  0  0  0  0  0  0  0  0  0
  144.2279  134.4911  152.9594 C   0  0  0  0  0  0  0  0  0  0  0  0
  144.5199  135.8880  153.5425 C   0  0  0  0  0  0  0  0  0  0  0  0
  145.5262  136.6195  152.6299 C   0  0  2  0  0  0  0  0  0  0  0  0
  149.1212  138.1859  155.1603 H   0  0  0  0  0  0  0  0  0  0  0  0
  150.6317  138.5880  156.9490 H   0  0  0  0  0  0  0  0  0  0  0  0
  151.9656  140.2432  158.2146 H   0  0  0  0  0  0  0  0  0  0  0  0
  151.2509  144.7965  157.0620 H   0  0  0  0  0  0  0  0  0  0  0  0
  150.1881  144.4102  158.4253 H   0  0  0  0  0  0  0  0  0  0  0  0
  153.0792  145.3486  158.4957 H   0  0  0  0  0  0  0  0  0  0  0  0
  151.7379  145.9542  159.4707 H   0  0  0  0  0  0  0  0  0  0  0  0
  153.4494  144.1237  160.5441 H   0  0  0  0  0  0  0  0  0  0  0  0
  151.7161  143.9536  160.8145 H   0  0  0  0  0  0  0  0  0  0  0  0
  152.0066  141.8597  159.8296 H   0  0  0  0  0  0  0  0  0  0  0  0
  153.4435  142.3654  158.9308 H   0  0  0  0  0  0  0  0  0  0  0  0
  148.4679  141.9218  155.1613 H   0  0  0  0  0  0  0  0  0  0  0  0
  144.9739  138.6113  153.2174 H   0  0  0  0  0  0  0  0  0  0  0  0
  146.1768  139.6473  151.4818 H   0  0  0  0  0  0  0  0  0  0  0  0
  147.5231  138.5224  151.5802 H   0  0  0  0  0  0  0  0  0  0  0  0
  145.2158  138.2581  149.8269 H   0  0  0  0  0  0  0  0  0  0  0  0
  146.6018  137.1785  149.9912 H   0  0  0  0  0  0  0  0  0  0  0  0
  144.3553  135.5476  149.6283 H   0  0  0  0  0  0  0  0  0  0  0  0
  145.7071  134.8821  150.5315 H   0  0  0  0  0  0  0  0  0  0  0  0
  142.7854  135.0486  151.4488 H   0  0  0  0  0  0  0  0  0  0  0  0
  143.6573  133.5843  151.0687 H   0  0  0  0  0  0  0  0  0  0  0  0
  143.4687  133.9860  153.5569 H   0  0  0  0  0  0  0  0  0  0  0  0
  145.1281  133.8781  153.0210 H   0  0  0  0  0  0  0  0  0  0  0  0
  143.5860  136.4480  153.6243 H   0  0  0  0  0  0  0  0  0  0  0  0
  144.9153  135.7872  154.5551 H   0  0  0  0  0  0  0  0  0  0  0  0
  146.4457  136.0311  152.5741 H   0  0  0  0  0  0  0  0  0  0  0  0
  144.0695  137.1614  151.3746 H   0  0  0  0  0  0  0  0  0  0  0  0
  149.7782  143.3402  156.3889 H   0  0  0  0  0  0  0  0  0  0  0  0
  1  2  2  0  0  0  0
  2  3  1  0  0  0  0
  2 15  1  0  0  0  0
  3  4  1  0  0  0  0
  3 25  1  0  0  0  0
  4 14  1  0  0  0  0
  4  5  2  0  0  0  0
  5  6  1  0  0  0  0
  5 26  1  0  0  0  0
  6  7  2  0  0  0  0
  6 27  1  0  0  0  0
  7  8  1  0  0  0  0
  7 13  1  0  0  0  0
  8 12  1  0  0  0  0
  8  9  1  0  0  0  0
  9 10  1  0  0  0  0
  9 28  1  0  0  0  0
  9 29  1  0  0  0  0
 10 11  1  0  0  0  0
 10 30  1  0  0  0  0
 10 31  1  0  0  0  0
 11 12  1  0  0  0  0
 11 32  1  0  0  0  0
 11 33  1  0  0  0  0
 12 34  1  0  0  0  0
 12 35  1  0  0  0  0
 13 14  2  0  0  0  0
 13 52  1  0  0  0  0
 14 36  1  0  0  0  0
 15 16  1  0  0  0  0
 16 24  1  0  0  0  0
 16 17  1  0  0  0  0
 16 37  1  0  0  0  0
 17 18  1  0  0  0  0
 17 38  1  0  0  0  0
 17 39  1  0  0  0  0
 18 19  1  0  0  0  0
 18 40  1  0  0  0  0
 18 41  1  0  0  0  0
 19 24  1  0  0  0  0
 19 20  1  0  0  0  0
 19 51  1  0  0  0  0
 20 21  1  0  0  0  0
 20 42  1  0  0  0  0
 20 43  1  0  0  0  0
 21 22  1  0  0  0  0
 21 44  1  0  0  0  0
 21 45  1  0  0  0  0
 22 23  1  0  0  0  0
 22 46  1  0  0  0  0
 22 47  1  0  0  0  0
 23 24  1  0  0  0  0
 23 48  1  0  0  0  0
 23 49  1  0  0  0  0
 24 50  1  0  0  0  0
M  CHG  1  13   1
M  CHG  1  15  -1
M  CHG  1  19   1
M  END
> <s_m_source_file>
AV-unprocessed.smi

> <i_m_source_file_index>
1867

> <i_lp_mmshare_version>
43012

> <i_f3d_flags>
0

> <s_epik_input>
W0NIMl0xW0NIMl1bQ0gyXVtDSDJdW0NASF0oTjEyKVtDQEBIXShbQ0gyXVtDSDJdMilbTkhdQyg9TylbTkhdYzNbY0hdW2NIXWMobltjSF0zKU40W0NIMl1bQ0gyXVtDSDJdW0NIMl00

> <s_epik_cmdline>
J2VwaWtfcHl0aG9uJywgJy1waCcsICc3LjAnLCAnLXRuJywgJzgnLCAnLW1hJywgJzIwMCcsICctbWV0YWxfYmluZGluZycsICctaW1hZScsICc8aW5maWxlLm1hZT4nLCAnLW9tYWUnLCAnPG91dGZpbGUubWFlPic=

> <r_lp_tautomer_probability>
0.999994

> <r_epik_Ionization_Penalty>
8.56137

> <r_epik_Ionization_Penalty_Charging>
8.56136

> <r_epik_Ionization_Penalty_Neutral>
3.91889e-06

> <r_epik_State_Penalty>
8.16255

> <r_epik_Charging_Adjusted_Penalty>
16.7239

> <i_epik_Tot_Q>
1

> <i_epik_Tot_abs_Q>
3

> <r_epik_Metal_State_Penalty>
4.14279

> <b_epik_Metal_Only>
1

> <s_lp_Force_Field>
OPLS_2005

> <r_lp_Energy>
66.3104

> <b_lp_Chiralities_Consistent>
1

> <s_lp_Variant>
AV-unprocessed.smi:1867-24

> <Gold.Version>
5.8.1

> <Gold.Id.Protein>
6NUR|6NUR_protein|mol2

> <Gold.PLP.Fitness>
48.3169

> <Gold.PLP.PLP>
-41.3839

> <Gold.PLP.part.hbond>
-2.0000

> <Gold.PLP.part.metal>
0.0000

> <Gold.PLP.part.buried>
1.5240

> <Gold.PLP.part.nonpolar>
-42.8868

> <Gold.PLP.part.repulsive>
0.4097

> <Gold.PLP.ligand.clash>
0.0000

> <Gold.PLP.ligand.torsion>
0.2664

> <Gold.PLP.Chemscore.Hbond>
2.4160

> <Gold.PLP.Chemscore.CHOScore>
0.0000

> <Gold.PLP.Chemscore.Metal>
0.0000

> <Gold.Chemscore.Hbonds>
donor molecule, donor type, donor heavy atom, donor atom, acceptor molecule, acceptor atom, score
      L1  H    13    52       P1  8028  2.00
      L1  H    19    51       P1 10171  0.12

> <Gold.PLP.Chemscore.Internal.Correction>
0.2177

> <Gold.Rescore>
     Score         DG    S(hbond)    S(metal)    S(lipo)     H(rot)  DE(clash)    DE(int)     intcor
     18.70     -22.26       1.53        0.00     121.59       1.00       1.90       1.65       ----

> <Gold.Chemscore.Fitness>
18.7015

> <Gold.Chemscore.DG>
-22.2550

> <Gold.Chemscore.ZeroCoef>
-5.4800

> <Gold.Chemscore.Hbond>
1.5296

> <Gold.Chemscore.Metal>
0.0000

> <Gold.Chemscore.Lipo>
121.5908

> <Gold.Chemscore.Internal_Hbond>
0.0000

> <Gold.Chemscore.DEClash>
1.9038

> <Gold.Chemscore.DEInternal>
1.6498

> <Gold.Chemscore.Rot>
1.0000

> <Gold.Chemscore.Internal.Correction>
   9.000000E+99

> <Gold.Chemscore.Hbonds>
donor molecule, donor type, donor heavy atom, donor atom, acceptor molecule, acceptor atom, score
      L1  H    13    52       P1  8028  0.97
      L1  H    19    51       P1 10171  0.13

> <Gold.Chemscore.Hbond.Weighted>
-5.1089

> <Gold.Chemscore.Metal.Weighted>
-0.0000

> <Gold.Chemscore.Lipo.Weighted>
-14.2261

> <Gold.Chemscore.Internal_Hbond.Weighted>
0.0000

> <Gold.Chemscore.DEClash.Weighted>
1.9038

> <Gold.Chemscore.DEInternal.Weighted>
1.6498

> <Gold.Chemscore.Rot.Weighted>
2.5600

> <Gold.Chemscore.Internal.Correction.Weighted>
   9.000000E+99

> <Gold.Protein.RotatedTorsions>
[ 6907 6896 6895 6894 ] final  125.76 input  -60.11 | X-H torsion
[ 7974 7965 7964 7962 ] final  119.04 input  175.53 | X-H torsion
[ 8008 7997 7996 7995 ] final    3.41 input   59.86 | X-H torsion
[ 10167 10162 10161 10158 ] final   11.36 input  -65.29 | X-H torsion
[ 10718 10713 10712 10709 ] final  125.01 input   66.30 | X-H torsion
[ 10763 10752 10751 10750 ] final    6.66 input  -60.55 | X-H torsion
[ 11005 11000 10999 10996 ] final   36.93 input  -57.11 | X-H torsion

> <Gold.Protein.ActiveResidues>
 VAL166  LYS551  ARG553  GLY616  TRP617  ASP618  TYR619  PRO620  LYS621  CYS622 
 ASP623  PHE694  ASN695  SER759  ASP760  ASP761  ALA762  ILE779  LEU786  VAL792 
 PHE793  MET794  SER795  GLU796  ALA797  LYS798  CYS799  TRP800  GLU811  SER814 

> <Gold.Protein.RotatedAtoms>
  152.3964  133.6752  159.6279 H   0  0  0  0  0  0  0  0  0  0  0  0  # atno 6907 bound_to 6896
  150.7862  133.8867  159.3310 H   0  0  0  0  0  0  0  0  0  0  0  0  # atno 6908 bound_to 6896
  151.6643  135.0986  160.0237 H   0  0  0  0  0  0  0  0  0  0  0  0  # atno 6909 bound_to 6896
  145.1479  139.3228  143.4582 H   0  0  0  0  0  0  0  0  0  0  0  0  # atno 7974 bound_to 7965
  154.7033  140.2677  155.6698 H   0  0  0  0  0  0  0  0  0  0  0  0  # atno 8008 bound_to 7997
  156.2772  140.2768  156.1575 H   0  0  0  0  0  0  0  0  0  0  0  0  # atno 8009 bound_to 7997
  155.0734  140.0372  157.2606 H   0  0  0  0  0  0  0  0  0  0  0  0  # atno 8010 bound_to 7997
  140.6137  143.8354  150.7094 H   0  0  0  0  0  0  0  0  0  0  0  0  # atno 10167 bound_to 10162
  157.5538  131.1093  150.8657 H   0  0  0  0  0  0  0  0  0  0  0  0  # atno 10718 bound_to 10713
  153.2452  135.6908  153.7740 H   0  0  0  0  0  0  0  0  0  0  0  0  # atno 10763 bound_to 10752
  153.6855  135.3321  155.3190 H   0  0  0  0  0  0  0  0  0  0  0  0  # atno 10764 bound_to 10752
  154.8372  135.4532  154.1388 H   0  0  0  0  0  0  0  0  0  0  0  0  # atno 10765 bound_to 10752
  140.2276  134.3565  155.7977 H   0  0  0  0  0  0  0  0  0  0  0  0  # atno 11005 bound_to 11000
  146.3498  140.1542  142.8592 LP  0  0  0  0  0  0  0  0  0  0  0  0  # atno 17320 bound_to 7965
  145.0462  140.8983  143.5023 LP  0  0  0  0  0  0  0  0  0  0  0  0  # atno 17321 bound_to 7965
  140.1928  143.4022  152.1850 LP  0  0  0  0  0  0  0  0  0  0  0  0  # atno 17342 bound_to 10162
  139.5381  144.7230  151.4824 LP  0  0  0  0  0  0  0  0  0  0  0  0  # atno 17343 bound_to 10162
  156.9174  130.5302  149.5279 LP  0  0  0  0  0  0  0  0  0  0  0  0  # atno 17370 bound_to 10713
  156.0600  130.5654  150.9173 LP  0  0  0  0  0  0  0  0  0  0  0  0  # atno 17371 bound_to 10713
  141.2219  133.7228  156.8679 LP  0  0  0  0  0  0  0  0  0  0  0  0  # atno 17394 bound_to 11000
  140.1784  134.9051  157.2918 LP  0  0  0  0  0  0  0  0  0  0  0  0  # atno 17395 bound_to 11000

$$$$
