AV-unprocessed.smi:766|AV-procd|sdf|3656|dock6
  -GOLD-   22720 1 63D 1   1.00000     0.00000
 Structure written by MMmdl.
 46 48  0  0  0  0  0  0  0  0  1 V2000
  153.0593  142.8738  161.7394 C   0  0  0  0  0  0  0  0  0  0  0  0
  152.5646  142.3949  160.3861 C   0  0  0  0  0  0  0  0  0  0  0  0
  153.0270  141.1575  159.8840 C   0  0  0  0  0  0  0  0  0  0  0  0
  152.5949  140.6785  158.6280 C   0  0  0  0  0  0  0  0  0  0  0  0
  152.9173  139.5152  157.9506 N   0  0  0  0  0  0  0  0  0  0  0  0
  152.2011  139.6479  156.8382 C   0  0  0  0  0  0  0  0  0  0  0  0
  151.4482  140.7584  156.7164 N   0  0  0  0  0  0  0  0  0  0  0  0
  150.5924  141.1203  155.6005 C   0  0  0  0  0  0  0  0  0  0  0  0
  149.0895  140.9979  155.9338 C   0  0  1  0  0  0  0  0  0  0  0  0
  148.6779  142.0964  156.7205 O   0  0  0  0  0  0  0  0  0  0  0  0
  148.1451  140.8492  154.7237 C   0  0  0  0  0  0  0  0  0  0  0  0
  148.5918  139.8078  153.8027 N   0  0  0  0  0  0  0  0  0  0  0  0
  147.6438  138.7075  153.6593 C   0  0  0  0  0  0  0  0  0  0  0  0
  146.8072  138.8514  152.3777 C   0  0  0  0  0  0  0  0  0  0  0  0
  145.8524  137.7683  152.2186 N   0  0  0  0  0  0  0  0  0  0  0  0
  145.9068  136.6967  151.3520 C   0  0  0  0  0  0  0  0  0  0  0  0
  144.7886  135.9427  151.5671 C   0  0  0  0  0  0  0  0  0  0  0  0
  144.1002  136.6449  152.5956 C   0  0  0  0  0  0  0  0  0  0  0  0
  144.7367  137.7396  152.9797 N   0  0  0  0  0  0  0  0  0  0  0  0
  151.6787  141.4773  157.8830 C   0  0  0  0  0  0  0  0  0  0  0  0
  151.2088  142.7082  158.3730 C   0  0  0  0  0  0  0  0  0  0  0  0
  151.6518  143.1726  159.6290 C   0  0  0  0  0  0  0  0  0  0  0  0
  151.1412  144.5053  160.1476 C   0  0  0  0  0  0  0  0  0  0  0  0
  153.7755  142.1748  162.1725 H   0  0  0  0  0  0  0  0  0  0  0  0
  152.2264  142.9745  162.4354 H   0  0  0  0  0  0  0  0  0  0  0  0
  153.5528  143.8414  161.6461 H   0  0  0  0  0  0  0  0  0  0  0  0
  153.7221  140.5643  160.4598 H   0  0  0  0  0  0  0  0  0  0  0  0
  152.2202  138.8929  156.0669 H   0  0  0  0  0  0  0  0  0  0  0  0
  150.8306  142.1423  155.3031 H   0  0  0  0  0  0  0  0  0  0  0  0
  150.8482  140.4852  154.7511 H   0  0  0  0  0  0  0  0  0  0  0  0
  148.9548  140.1144  156.5588 H   0  0  0  0  0  0  0  0  0  0  0  0
  148.9842  142.8904  156.3095 H   0  0  0  0  0  0  0  0  0  0  0  0
  147.1452  140.6045  155.0851 H   0  0  0  0  0  0  0  0  0  0  0  0
  148.0549  141.8033  154.2031 H   0  0  0  0  0  0  0  0  0  0  0  0
  148.7906  140.2155  152.8945 H   0  0  0  0  0  0  0  0  0  0  0  0
  148.1720  137.7533  153.6482 H   0  0  0  0  0  0  0  0  0  0  0  0
  146.9783  138.6828  154.5227 H   0  0  0  0  0  0  0  0  0  0  0  0
  146.2544  139.7915  152.3987 H   0  0  0  0  0  0  0  0  0  0  0  0
  147.4523  138.8879  151.4986 H   0  0  0  0  0  0  0  0  0  0  0  0
  146.7298  136.5586  150.6663 H   0  0  0  0  0  0  0  0  0  0  0  0
  144.5064  135.0275  151.0682 H   0  0  0  0  0  0  0  0  0  0  0  0
  143.1636  136.3936  153.0709 H   0  0  0  0  0  0  0  0  0  0  0  0
  150.5150  143.2900  157.7843 H   0  0  0  0  0  0  0  0  0  0  0  0
  150.4334  144.9573  159.4523 H   0  0  0  0  0  0  0  0  0  0  0  0
  151.9677  145.2030  160.2852 H   0  0  0  0  0  0  0  0  0  0  0  0
  150.6340  144.3753  161.1037 H   0  0  0  0  0  0  0  0  0  0  0  0
  1  2  1  0  0  0  0
  1 24  1  0  0  0  0
  1 25  1  0  0  0  0
  1 26  1  0  0  0  0
  2 22  1  0  0  0  0
  2  3  2  0  0  0  0
  3  4  1  0  0  0  0
  3 27  1  0  0  0  0
  4 20  2  0  0  0  0
  4  5  1  0  0  0  0
  5  6  2  0  0  0  0
  6  7  1  0  0  0  0
  6 28  1  0  0  0  0
  7  8  1  0  0  0  0
  7 20  1  0  0  0  0
  8  9  1  0  0  0  0
  8 29  1  0  0  0  0
  8 30  1  0  0  0  0
  9 10  1  0  0  0  0
  9 11  1  0  0  0  0
  9 31  1  0  0  0  0
 10 32  1  0  0  0  0
 11 12  1  0  0  0  0
 11 33  1  0  0  0  0
 11 34  1  0  0  0  0
 12 13  1  0  0  0  0
 12 35  1  0  0  0  0
 13 14  1  0  0  0  0
 13 36  1  0  0  0  0
 13 37  1  0  0  0  0
 14 15  1  0  0  0  0
 14 38  1  0  0  0  0
 14 39  1  0  0  0  0
 15 19  1  0  0  0  0
 15 16  1  0  0  0  0
 16 17  2  0  0  0  0
 16 40  1  0  0  0  0
 17 18  1  0  0  0  0
 17 41  1  0  0  0  0
 18 19  2  0  0  0  0
 18 42  1  0  0  0  0
 20 21  1  0  0  0  0
 21 22  2  0  0  0  0
 21 43  1  0  0  0  0
 22 23  1  0  0  0  0
 23 44  1  0  0  0  0
 23 45  1  0  0  0  0
 23 46  1  0  0  0  0
M  END
> <s_m_source_file>
AV-unprocessed.smi

> <i_m_source_file_index>
766

> <i_lp_mmshare_version>
43012

> <i_f3d_flags>
0

> <s_epik_input>
W0NIM11jKFtjSF0xKWMoW0NIM10pW2NIXWMoYzEyKW4oW2NIXW4yKVtDSDJdW0NASF0oW09IXSlbQ0gyXVtOSF1bQ0gyXVtDSDJdbjNbY0hdW2NIXVtjSF1uMw==

> <s_epik_cmdline>
J2VwaWtfcHl0aG9uJywgJy1waCcsICc3LjAnLCAnLXRuJywgJzgnLCAnLW1hJywgJzIwMCcsICctbWV0YWxfYmluZGluZycsICctaW1hZScsICc8aW5maWxlLm1hZT4nLCAnLW9tYWUnLCAnPG91dGZpbGUubWFlPic=

> <r_lp_tautomer_probability>
1

> <r_epik_Ionization_Penalty>
1.68727

> <r_epik_Ionization_Penalty_Charging>
0

> <r_epik_Ionization_Penalty_Neutral>
1.68727

> <r_epik_State_Penalty>
1.78741

> <r_epik_Charging_Adjusted_Penalty>
1.78741

> <i_epik_Tot_Q>
0

> <i_epik_Tot_abs_Q>
0

> <r_epik_Metal_State_Penalty>
1.73664

> <b_epik_Metal_Only>
0

> <s_lp_Force_Field>
OPLS_2005

> <r_lp_Energy>
18.4914

> <b_lp_Chiralities_Consistent>
1

> <s_lp_Variant>
AV-unprocessed.smi:766-6

> <Gold.Version>
5.8.1

> <Gold.Id.Protein>
6NUR|6NUR_protein|mol2

> <Gold.PLP.Fitness>
54.5670

> <Gold.PLP.PLP>
-46.2657

> <Gold.PLP.part.hbond>
-3.0000

> <Gold.PLP.part.metal>
0.0000

> <Gold.PLP.part.buried>
-3.1775

> <Gold.PLP.part.nonpolar>
-41.0757

> <Gold.PLP.part.repulsive>
1.2649

> <Gold.PLP.ligand.clash>
0.0000

> <Gold.PLP.ligand.torsion>
1.1842

> <Gold.PLP.Chemscore.Hbond>
2.7920

> <Gold.PLP.Chemscore.CHOScore>
0.6915

> <Gold.PLP.Chemscore.Metal>
0.0000

> <Gold.Chemscore.Hbonds>
donor molecule, donor type, donor heavy atom, donor atom, acceptor molecule, acceptor atom, score
      L1  H    10    32       P1  8028  1.00
      L1  H    12    35       P1  7957  0.98
      P1  H  7997  8008       L1     5  0.80
      L1  C    16    40       P1  7948  0.68

> <Gold.PLP.Chemscore.Internal.Correction>
0.2193

> <Gold.Rescore>
     Score         DG    S(hbond)    S(metal)    S(lipo)     H(rot)  DE(clash)    DE(int)     intcor
     18.10     -19.39       1.99        0.00     124.17       2.83       0.16       1.13       ----

> <Gold.Chemscore.Fitness>
18.0963

> <Gold.Chemscore.DG>
-19.3854

> <Gold.Chemscore.ZeroCoef>
-5.4800

> <Gold.Chemscore.Hbond>
1.9864

> <Gold.Chemscore.Metal>
0.0000

> <Gold.Chemscore.Lipo>
124.1720

> <Gold.Chemscore.Internal_Hbond>
0.0000

> <Gold.Chemscore.DEClash>
0.1596

> <Gold.Chemscore.DEInternal>
1.1295

> <Gold.Chemscore.Rot>
2.8348

> <Gold.Chemscore.Internal.Correction>
   9.000000E+99

> <Gold.Chemscore.Hbonds>
donor molecule, donor type, donor heavy atom, donor atom, acceptor molecule, acceptor atom, score
      L1  H    10    32       P1  8028  0.98
      L1  H    12    35       P1  7957  0.93
      P1  H  7997  8008       L1     5  0.03

> <Gold.Chemscore.Hbond.Weighted>
-6.6345

> <Gold.Chemscore.Metal.Weighted>
-0.0000

> <Gold.Chemscore.Lipo.Weighted>
-14.5281

> <Gold.Chemscore.Internal_Hbond.Weighted>
0.0000

> <Gold.Chemscore.DEClash.Weighted>
0.1596

> <Gold.Chemscore.DEInternal.Weighted>
1.1295

> <Gold.Chemscore.Rot.Weighted>
7.2572

> <Gold.Chemscore.Internal.Correction.Weighted>
   9.000000E+99

> <Gold.Protein.RotatedTorsions>
[ 6907 6896 6895 6894 ] final -131.87 input  -60.11 | X-H torsion
[ 7974 7965 7964 7962 ] final  161.64 input  175.53 | X-H torsion
[ 8008 7997 7996 7995 ] final  -95.03 input   59.86 | X-H torsion
[ 10167 10162 10161 10158 ] final -175.60 input  -65.29 | X-H torsion
[ 10718 10713 10712 10709 ] final -179.87 input   66.30 | X-H torsion
[ 10763 10752 10751 10750 ] final  -47.75 input  -60.55 | X-H torsion
[ 11005 11000 10999 10996 ] final -176.67 input  -57.11 | X-H torsion

> <Gold.Protein.ActiveResidues>
 VAL166  LYS551  ARG553  GLY616  TRP617  ASP618  TYR619  PRO620  LYS621  CYS622 
 ASP623  PHE694  ASN695  SER759  ASP760  ASP761  ALA762  ILE779  LEU786  VAL792 
 PHE793  MET794  SER795  GLU796  ALA797  LYS798  CYS799  TRP800  GLU811  SER814 

> <Gold.Protein.RotatedAtoms>
  150.9559  133.6498  159.2763 H   0  0  0  0  0  0  0  0  0  0  0  0  # atno 6907 bound_to 6896
  151.3838  135.0943  159.9514 H   0  0  0  0  0  0  0  0  0  0  0  0  # atno 6908 bound_to 6896
  152.5128  133.9087  159.7532 H   0  0  0  0  0  0  0  0  0  0  0  0  # atno 6909 bound_to 6896
  144.7676  139.7926  143.6309 H   0  0  0  0  0  0  0  0  0  0  0  0  # atno 7974 bound_to 7965
  154.7560  140.0484  157.0934 H   0  0  0  0  0  0  0  0  0  0  0  0  # atno 8008 bound_to 7997
  154.9997  140.3123  155.4853 H   0  0  0  0  0  0  0  0  0  0  0  0  # atno 8009 bound_to 7997
  156.2895  140.2203  156.5106 H   0  0  0  0  0  0  0  0  0  0  0  0  # atno 8010 bound_to 7997
  139.5572  144.1959  152.1179 H   0  0  0  0  0  0  0  0  0  0  0  0  # atno 10167 bound_to 10162
  156.8655  130.9766  151.3079 H   0  0  0  0  0  0  0  0  0  0  0  0  # atno 10718 bound_to 10713
  154.0666  135.6610  153.4818 H   0  0  0  0  0  0  0  0  0  0  0  0  # atno 10763 bound_to 10752
  153.0407  135.5147  154.7608 H   0  0  0  0  0  0  0  0  0  0  0  0  # atno 10764 bound_to 10752
  154.6660  135.3022  154.9771 H   0  0  0  0  0  0  0  0  0  0  0  0  # atno 10765 bound_to 10752
  140.4495  134.6356  157.4795 H   0  0  0  0  0  0  0  0  0  0  0  0  # atno 11005 bound_to 11000
  146.1796  139.4982  142.9875 LP  0  0  0  0  0  0  0  0  0  0  0  0  # atno 17320 bound_to 7965
  145.6422  141.0281  143.1805 LP  0  0  0  0  0  0  0  0  0  0  0  0  # atno 17321 bound_to 7965
  140.1465  144.5154  150.6712 LP  0  0  0  0  0  0  0  0  0  0  0  0  # atno 17342 bound_to 10162
  140.6847  143.2344  151.5292 LP  0  0  0  0  0  0  0  0  0  0  0  0  # atno 17343 bound_to 10162
  157.6226  130.8667  149.9134 LP  0  0  0  0  0  0  0  0  0  0  0  0  # atno 17370 bound_to 10713
  156.0754  130.3679  150.0688 LP  0  0  0  0  0  0  0  0  0  0  0  0  # atno 17371 bound_to 10713
  140.0016  134.6827  155.9521 LP  0  0  0  0  0  0  0  0  0  0  0  0  # atno 17394 bound_to 11000
  141.1670  133.6537  156.4516 LP  0  0  0  0  0  0  0  0  0  0  0  0  # atno 17395 bound_to 11000

$$$$
