AV-unprocessed.smi:37|AV-procd|sdf|318|dock10
  -GOLD-   2262016143D 1   1.00000     0.00000
 Structure written by MMmdl.
 44 45  0  0  0  0  0  0  0  0  1 V2000
  146.0847  134.8459  161.6081 C   0  0  0  0  0  0  0  0  0  0  0  0
  147.1273  134.6820  160.4922 C   0  0  0  0  0  0  0  0  0  0  0  0
  147.6138  136.0098  159.9080 C   0  0  0  0  0  0  0  0  0  0  0  0
  147.0784  137.0866  160.1775 O   0  0  0  0  0  0  0  0  0  0  0  0
  148.6633  135.8411  159.0902 O   0  0  0  0  0  0  0  0  0  0  0  0
  148.9701  136.8308  158.1196 C   0  0  0  0  0  0  0  0  0  0  0  0
  150.0503  137.7801  158.6542 C   0  0  1  0  0  0  0  0  0  0  0  0
  151.0427  137.0667  159.3912 O   0  0  0  0  0  0  0  0  0  0  0  0
  152.3110  137.4277  158.9342 C   0  0  2  0  0  0  0  0  0  0  0  0
  153.2862  137.4749  160.0869 N   0  0  0  0  0  0  0  0  0  0  0  0
  152.9019  137.2021  161.3945 C   0  0  0  0  0  0  0  0  0  0  0  0
  153.7641  137.2462  162.4376 C   0  0  0  0  0  0  0  0  0  0  0  0
  153.3203  136.9754  163.6767 F   0  0  0  0  0  0  0  0  0  0  0  0
  155.1679  137.5907  162.2302 C   0  0  0  0  0  0  0  0  0  0  0  0
  156.0240  137.6529  163.1103 O   0  0  0  0  0  0  0  0  0  0  0  0
  155.5056  137.8634  160.9011 N   0  0  0  0  0  0  0  0  0  0  0  0
  154.6266  137.8237  159.8177 C   0  0  0  0  0  0  0  0  0  0  0  0
  155.0286  138.0885  158.6854 O   0  0  0  0  0  0  0  0  0  0  0  0
  152.1553  138.7808  158.2320 C   0  0  2  0  0  0  0  0  0  0  0  0
  152.0840  140.2951  159.5385 Br  0  0  0  0  0  0  0  0  0  0  0  0
  150.7978  138.5800  157.5792 C   0  0  2  0  0  0  0  0  0  0  0  0
  150.1379  139.7996  157.2652 O   0  0  0  0  0  0  0  0  0  0  0  0
  150.6541  140.6272  156.3401 C   0  0  0  0  0  0  0  0  0  0  0  0
  151.3254  140.2836  155.3656 O   0  0  0  0  0  0  0  0  0  0  0  0
  150.3165  142.0910  156.6305 C   0  0  0  0  0  0  0  0  0  0  0  0
  150.9037  142.6064  157.9527 C   0  0  0  0  0  0  0  0  0  0  0  0
  156.4653  138.1115  160.7101 H   0  0  0  0  0  0  0  0  0  0  0  0
  145.7680  133.8724  161.9826 H   0  0  0  0  0  0  0  0  0  0  0  0
  145.1956  135.3652  161.2483 H   0  0  0  0  0  0  0  0  0  0  0  0
  146.4875  135.4082  162.4512 H   0  0  0  0  0  0  0  0  0  0  0  0
  147.9901  134.1355  160.8733 H   0  0  0  0  0  0  0  0  0  0  0  0
  146.7071  134.0833  159.6838 H   0  0  0  0  0  0  0  0  0  0  0  0
  149.3335  136.3558  157.2069 H   0  0  0  0  0  0  0  0  0  0  0  0
  148.0674  137.3860  157.8615 H   0  0  0  0  0  0  0  0  0  0  0  0
  149.5911  138.4720  159.3618 H   0  0  0  0  0  0  0  0  0  0  0  0
  152.6616  136.6374  158.2665 H   0  0  0  0  0  0  0  0  0  0  0  0
  151.8739  136.9528  161.6128 H   0  0  0  0  0  0  0  0  0  0  0  0
  152.9638  138.9640  157.5237 H   0  0  0  0  0  0  0  0  0  0  0  0
  150.9201  137.9623  156.6883 H   0  0  0  0  0  0  0  0  0  0  0  0
  150.6844  142.6997  155.8043 H   0  0  0  0  0  0  0  0  0  0  0  0
  149.2319  142.1996  156.6442 H   0  0  0  0  0  0  0  0  0  0  0  0
  150.6292  143.6490  158.1134 H   0  0  0  0  0  0  0  0  0  0  0  0
  151.9926  142.5486  157.9544 H   0  0  0  0  0  0  0  0  0  0  0  0
  150.5323  142.0338  158.8033 H   0  0  0  0  0  0  0  0  0  0  0  0
  1  2  1  0  0  0  0
  1 28  1  0  0  0  0
  1 29  1  0  0  0  0
  1 30  1  0  0  0  0
  2  3  1  0  0  0  0
  2 31  1  0  0  0  0
  2 32  1  0  0  0  0
  3  4  2  0  0  0  0
  3  5  1  0  0  0  0
  5  6  1  0  0  0  0
  6  7  1  0  0  0  0
  6 33  1  0  0  0  0
  6 34  1  0  0  0  0
  7 21  1  0  0  0  0
  7  8  1  0  0  0  0
  7 35  1  0  0  0  0
  8  9  1  0  0  0  0
  9 10  1  0  0  0  0
  9 19  1  0  0  0  0
  9 36  1  0  0  0  0
 10 17  1  0  0  0  0
 10 11  1  0  0  0  0
 11 12  2  0  0  0  0
 11 37  1  0  0  0  0
 12 13  1  0  0  0  0
 12 14  1  0  0  0  0
 14 15  2  0  0  0  0
 14 16  1  0  0  0  0
 16 27  1  0  0  0  0
 16 17  1  0  0  0  0
 17 18  2  0  0  0  0
 19 20  1  0  0  0  0
 19 21  1  0  0  0  0
 19 38  1  0  0  0  0
 21 22  1  0  0  0  0
 21 39  1  0  0  0  0
 22 23  1  0  0  0  0
 23 24  2  0  0  0  0
 23 25  1  0  0  0  0
 25 26  1  0  0  0  0
 25 40  1  0  0  0  0
 25 41  1  0  0  0  0
 26 42  1  0  0  0  0
 26 43  1  0  0  0  0
 26 44  1  0  0  0  0
M  END
> <s_m_source_file>
AV-unprocessed.smi

> <i_m_source_file_index>
37

> <i_lp_mmshare_version>
43012

> <i_f3d_flags>
0

> <s_epik_input>
W0NIM11bQ0gyXUMoPU8pT1tDSDJdW0NAQEhdMU9bQ0BASF0objJbY0hdYyhGKWMoPU8pW25IXWMyPU8pW0NAQEhdKEJyKVtDQEhdMU9DKD1PKVtDSDJdW0NIM10=

> <s_epik_cmdline>
J2VwaWtfcHl0aG9uJywgJy1waCcsICc3LjAnLCAnLXRuJywgJzgnLCAnLW1hJywgJzIwMCcsICctbWV0YWxfYmluZGluZycsICctaW1hZScsICc8aW5maWxlLm1hZT4nLCAnLW9tYWUnLCAnPG91dGZpbGUubWFlPic=

> <r_lp_tautomer_probability>
0.999537

> <r_epik_Ionization_Penalty>
0.104106

> <r_epik_Ionization_Penalty_Charging>
0.104106

> <r_epik_Ionization_Penalty_Neutral>
3.94675e-16

> <r_epik_State_Penalty>
0.0940182

> <r_epik_Charging_Adjusted_Penalty>
0.198124

> <i_epik_Tot_Q>
0

> <i_epik_Tot_abs_Q>
0

> <r_epik_Metal_State_Penalty>
3.05314

> <b_epik_Metal_Only>
0

> <s_epik_Chemistry_Notes>
This compound has an ester and may undergo hydrolysis at high or low pH. This compound contains an acetal/aminal-like group ( X-CH(R)-Y where X, Y are N, S, or O) that may be acid/base labile, releasing an aldehyde.

> <s_lp_Force_Field>
OPLS_2005

> <r_lp_Energy>
25.1984

> <b_lp_Chiralities_Consistent>
1

> <s_lp_Variant>
AV-unprocessed.smi:37-16

> <Gold.Version>
5.8.1

> <Gold.Id.Protein>
6NUR|6NUR_protein|mol2

> <Gold.PLP.Fitness>
51.2256

> <Gold.PLP.PLP>
-40.2388

> <Gold.PLP.part.hbond>
-6.0000

> <Gold.PLP.part.metal>
0.0000

> <Gold.PLP.part.buried>
-5.7042

> <Gold.PLP.part.nonpolar>
-28.1315

> <Gold.PLP.part.repulsive>
0.0470

> <Gold.PLP.ligand.clash>
0.0000

> <Gold.PLP.ligand.torsion>
1.2200

> <Gold.PLP.Chemscore.Hbond>
4.4373

> <Gold.PLP.Chemscore.CHOScore>
0.0000

> <Gold.PLP.Chemscore.Metal>
0.0000

> <Gold.Chemscore.Hbonds>
donor molecule, donor type, donor heavy atom, donor atom, acceptor molecule, acceptor atom, score
      P1  H  6896  6908       L1     8  1.00
      P1  H  6934  6947       L1     4  0.89
      P1  H  7989  7998       L1    24  0.99
      P1  H  7997  8010       L1    18  0.09

> <Gold.PLP.Chemscore.Internal.Correction>
0.1152

> <Gold.Rescore>
     Score         DG    S(hbond)    S(metal)    S(lipo)     H(rot)  DE(clash)    DE(int)     intcor
     13.72     -15.83       3.34        0.00      66.11       3.33       0.00       2.11       ----

> <Gold.Chemscore.Fitness>
13.7200

> <Gold.Chemscore.DG>
-15.8323

> <Gold.Chemscore.ZeroCoef>
-5.4800

> <Gold.Chemscore.Hbond>
3.3363

> <Gold.Chemscore.Metal>
0.0000

> <Gold.Chemscore.Lipo>
66.1071

> <Gold.Chemscore.Internal_Hbond>
0.0000

> <Gold.Chemscore.DEClash>
0.0045

> <Gold.Chemscore.DEInternal>
2.1079

> <Gold.Chemscore.Rot>
3.3303

> <Gold.Chemscore.Internal.Correction>
   9.000000E+99

> <Gold.Chemscore.Hbonds>
donor molecule, donor type, donor heavy atom, donor atom, acceptor molecule, acceptor atom, score
      P1  H  6896  6908       L1     8  0.29
      P1  H  6934  6947       L1     4  0.85
      P1  H  7989  7998       L1    24  0.91
      P1  H  7997  8010       L1    18  0.11

> <Gold.Chemscore.Hbond.Weighted>
-11.1434

> <Gold.Chemscore.Metal.Weighted>
-0.0000

> <Gold.Chemscore.Lipo.Weighted>
-7.7345

> <Gold.Chemscore.Internal_Hbond.Weighted>
0.0000

> <Gold.Chemscore.DEClash.Weighted>
0.0045

> <Gold.Chemscore.DEInternal.Weighted>
2.1079

> <Gold.Chemscore.Rot.Weighted>
8.5256

> <Gold.Chemscore.Internal.Correction.Weighted>
   9.000000E+99

> <Gold.Protein.RotatedTorsions>
[ 6907 6896 6895 6894 ] final -132.68 input  -60.11 | X-H torsion
[ 7974 7965 7964 7962 ] final   43.02 input  175.53 | X-H torsion
[ 8008 7997 7996 7995 ] final  -23.31 input   59.86 | X-H torsion
[ 10167 10162 10161 10158 ] final -169.57 input  -65.29 | X-H torsion
[ 10718 10713 10712 10709 ] final -158.77 input   66.30 | X-H torsion
[ 10763 10752 10751 10750 ] final  -44.01 input  -60.55 | X-H torsion
[ 11005 11000 10999 10996 ] final   45.24 input  -57.11 | X-H torsion

> <Gold.Protein.ActiveResidues>
 VAL166  LYS551  ARG553  GLY616  TRP617  ASP618  TYR619  PRO620  LYS621  CYS622 
 ASP623  PHE694  ASN695  SER759  ASP760  ASP761  ALA762  ILE779  LEU786  VAL792 
 PHE793  MET794  SER795  GLU796  ALA797  LYS798  CYS799  TRP800  GLU811  SER814 

> <Gold.Protein.RotatedAtoms>
  150.9652  133.6402  159.2747 H   0  0  0  0  0  0  0  0  0  0  0  0  # atno 6907 bound_to 6896
  151.3710  135.0921  159.9475 H   0  0  0  0  0  0  0  0  0  0  0  0  # atno 6908 bound_to 6896
  152.5163  133.9206  159.7587 H   0  0  0  0  0  0  0  0  0  0  0  0  # atno 6909 bound_to 6896
  146.0691  139.5234  142.9609 H   0  0  0  0  0  0  0  0  0  0  0  0  # atno 7974 bound_to 7965
  154.4593  140.1984  156.0290 H   0  0  0  0  0  0  0  0  0  0  0  0  # atno 8008 bound_to 7997
  156.0808  140.3272  155.7663 H   0  0  0  0  0  0  0  0  0  0  0  0  # atno 8009 bound_to 7997
  155.5114  140.0562  157.2913 H   0  0  0  0  0  0  0  0  0  0  0  0  # atno 8010 bound_to 7997
  139.5915  144.1204  152.1639 H   0  0  0  0  0  0  0  0  0  0  0  0  # atno 10167 bound_to 10162
  156.5588  130.8638  151.2803 H   0  0  0  0  0  0  0  0  0  0  0  0  # atno 10718 bound_to 10713
  154.0050  135.6689  153.4761 H   0  0  0  0  0  0  0  0  0  0  0  0  # atno 10763 bound_to 10752
  153.0646  135.5008  154.8166 H   0  0  0  0  0  0  0  0  0  0  0  0  # atno 10764 bound_to 10752
  154.7030  135.3082  154.9276 H   0  0  0  0  0  0  0  0  0  0  0  0  # atno 10765 bound_to 10752
  140.1478  134.4501  155.8403 H   0  0  0  0  0  0  0  0  0  0  0  0  # atno 11005 bound_to 11000
  145.6423  141.0281  143.1805 LP  0  0  0  0  0  0  0  0  0  0  0  0  # atno 17320 bound_to 7965
  144.7221  139.7997  143.7378 LP  0  0  0  0  0  0  0  0  0  0  0  0  # atno 17321 bound_to 7965
  140.0779  144.5725  150.7143 LP  0  0  0  0  0  0  0  0  0  0  0  0  # atno 17342 bound_to 10162
  140.7177  143.2559  151.4382 LP  0  0  0  0  0  0  0  0  0  0  0  0  # atno 17343 bound_to 10162
  157.7373  130.9793  150.2183 LP  0  0  0  0  0  0  0  0  0  0  0  0  # atno 17370 bound_to 10713
  156.2817  130.3734  149.7928 LP  0  0  0  0  0  0  0  0  0  0  0  0  # atno 17371 bound_to 10713
  141.2195  133.6859  156.7365 LP  0  0  0  0  0  0  0  0  0  0  0  0  # atno 17394 bound_to 11000
  140.2642  134.8443  157.3787 LP  0  0  0  0  0  0  0  0  0  0  0  0  # atno 17395 bound_to 11000

$$$$
