AV-unprocessed.smi:2939|AV-procd|sdf|11261|dock9
  -GOLD-   2272016153D 1   1.00000     0.00000
 Structure written by MMmdl.
 30 31  0  0  0  0  0  0  0  0  2 V2000
  151.3298  136.3800  154.7581 O   0  0  0  0  0  0  0  0  0  0  0  0
  150.6709  137.4388  154.6675 C   0  0  0  0  0  0  0  0  0  0  0  0
  149.4238  137.5183  154.6253 O   0  5  0  0  0  0  0  0  0  0  0  0
  151.4586  138.7509  154.6048 C   0  0  0  0  0  0  0  0  0  0  0  0
  151.0223  139.7177  155.6028 N   0  0  0  0  0  0  0  0  0  0  0  0
  149.7952  140.3925  155.3745 C   0  0  0  0  0  0  0  0  0  0  0  0
  149.0408  140.0928  154.4481 O   0  0  0  0  0  0  0  0  0  0  0  0
  149.4969  141.4615  156.3202 C   0  0  0  0  0  0  0  0  0  0  0  0
  150.3560  141.7686  157.3151 C   0  0  0  0  0  0  0  0  0  0  0  0
  151.5551  141.1094  157.5014 N   0  0  0  0  0  0  0  0  0  0  0  0
  152.4640  141.4605  158.5637 C   0  0  0  0  0  0  0  0  0  0  0  0
  152.2359  142.8232  159.2074 C   0  0  0  0  0  0  0  0  0  0  0  0
  152.1520  143.9683  158.3876 C   0  0  0  0  0  0  0  0  0  0  0  0
  151.9466  145.2392  158.9591 C   0  0  0  0  0  0  0  0  0  0  0  0
  151.8296  145.3732  160.3558 C   0  0  0  0  0  0  0  0  0  0  0  0
  151.9195  144.2357  161.1804 C   0  0  0  0  0  0  0  0  0  0  0  0
  152.1244  142.9646  160.6092 C   0  0  0  0  0  0  0  0  0  0  0  0
  151.9332  140.0592  156.6329 C   0  0  0  0  0  0  0  0  0  0  0  0
  153.0081  139.4695  156.7765 O   0  0  0  0  0  0  0  0  0  0  0  0
  152.5269  138.5729  154.7382 H   0  0  0  0  0  0  0  0  0  0  0  0
  151.3747  139.2099  153.6184 H   0  0  0  0  0  0  0  0  0  0  0  0
  148.5762  142.0170  156.2189 H   0  0  0  0  0  0  0  0  0  0  0  0
  150.0929  142.5710  157.9890 H   0  0  0  0  0  0  0  0  0  0  0  0
  152.3582  140.6833  159.3215 H   0  0  0  0  0  0  0  0  0  0  0  0
  153.4725  141.3656  158.1557 H   0  0  0  0  0  0  0  0  0  0  0  0
  152.2407  143.8743  157.3151 H   0  0  0  0  0  0  0  0  0  0  0  0
  151.8794  146.1114  158.3255 H   0  0  0  0  0  0  0  0  0  0  0  0
  151.6723  146.3476  160.7941 H   0  0  0  0  0  0  0  0  0  0  0  0
  151.8319  144.3374  162.2520 H   0  0  0  0  0  0  0  0  0  0  0  0
  152.1942  142.1018  161.2549 H   0  0  0  0  0  0  0  0  0  0  0  0
  1  2  2  0  0  0  0
  2  3  1  0  0  0  0
  2  4  1  0  0  0  0
  4  5  1  0  0  0  0
  4 20  1  0  0  0  0
  4 21  1  0  0  0  0
  5 18  1  0  0  0  0
  5  6  1  0  0  0  0
  6  7  2  0  0  0  0
  6  8  1  0  0  0  0
  8  9  2  0  0  0  0
  8 22  1  0  0  0  0
  9 10  1  0  0  0  0
  9 23  1  0  0  0  0
 10 11  1  0  0  0  0
 10 18  1  0  0  0  0
 11 12  1  0  0  0  0
 11 24  1  0  0  0  0
 11 25  1  0  0  0  0
 12 17  1  0  0  0  0
 12 13  2  0  0  0  0
 13 14  1  0  0  0  0
 13 26  1  0  0  0  0
 14 15  2  0  0  0  0
 14 27  1  0  0  0  0
 15 16  1  0  0  0  0
 15 28  1  0  0  0  0
 16 17  2  0  0  0  0
 16 29  1  0  0  0  0
 17 30  1  0  0  0  0
 18 19  2  0  0  0  0
M  CHG  1   3  -1
M  END
> <s_m_source_file>
AV-unprocessed.smi

> <i_m_source_file_index>
2939

> <i_lp_mmshare_version>
43012

> <i_f3d_flags>
0

> <s_epik_input>
Tz1DKFtPSF0pW0NIMl1uMWMoPU8pW2NIXVtjSF1uKGMxPU8pW0NIMl1jMltjSF1bY0hdW2NIXVtjSF1bY0hdMg==

> <s_epik_cmdline>
J2VwaWtfcHl0aG9uJywgJy1waCcsICc3LjAnLCAnLXRuJywgJzgnLCAnLW1hJywgJzIwMCcsICctbWV0YWxfYmluZGluZycsICctaW1hZScsICc8aW5maWxlLm1hZT4nLCAnLW9tYWUnLCAnPG91dGZpbGUubWFlPic=

> <r_lp_tautomer_probability>
1

> <r_epik_Ionization_Penalty>
0.00125818

> <r_epik_Ionization_Penalty_Charging>
0.00125818

> <r_epik_Ionization_Penalty_Neutral>
0

> <r_epik_State_Penalty>
0.000832915

> <r_epik_Charging_Adjusted_Penalty>
0.00209109

> <i_epik_Tot_Q>
-1

> <i_epik_Tot_abs_Q>
1

> <r_epik_Metal_State_Penalty>
-0

> <b_epik_Metal_Only>
0

> <s_lp_Force_Field>
OPLS_2005

> <r_lp_Energy>
10.7616

> <b_lp_Chiralities_Consistent>
1

> <s_lp_Variant>
AV-unprocessed.smi:2939-1

> <Gold.Version>
5.8.1

> <Gold.Id.Protein>
6NUR|6NUR_protein|mol2

> <Gold.PLP.Fitness>
53.7228

> <Gold.PLP.PLP>
-45.5867

> <Gold.PLP.part.hbond>
-1.7736

> <Gold.PLP.part.metal>
0.0000

> <Gold.PLP.part.buried>
-6.6195

> <Gold.PLP.part.nonpolar>
-38.7164

> <Gold.PLP.part.repulsive>
0.5857

> <Gold.PLP.ligand.clash>
0.0000

> <Gold.PLP.ligand.torsion>
0.4539

> <Gold.PLP.Chemscore.Hbond>
3.0000

> <Gold.PLP.Chemscore.CHOScore>
0.0000

> <Gold.PLP.Chemscore.Metal>
0.0000

> <Gold.Chemscore.Hbonds>
donor molecule, donor type, donor heavy atom, donor atom, acceptor molecule, acceptor atom, score
      P1  H  7997  8009       L1    19  0.99
      P1  H 10752 10765       L1     1  2.00

> <Gold.PLP.Chemscore.Internal.Correction>
0.0439

> <Gold.Rescore>
     Score         DG    S(hbond)    S(metal)    S(lipo)     H(rot)  DE(clash)    DE(int)     intcor
     17.90     -18.52       1.98        0.00     101.60       2.13       0.04       0.58       ----

> <Gold.Chemscore.Fitness>
17.8973

> <Gold.Chemscore.DG>
-18.5213

> <Gold.Chemscore.ZeroCoef>
-5.4800

> <Gold.Chemscore.Hbond>
1.9768

> <Gold.Chemscore.Metal>
0.0000

> <Gold.Chemscore.Lipo>
101.5965

> <Gold.Chemscore.Internal_Hbond>
0.0000

> <Gold.Chemscore.DEClash>
0.0421

> <Gold.Chemscore.DEInternal>
0.5819

> <Gold.Chemscore.Rot>
2.1282

> <Gold.Chemscore.Internal.Correction>
   9.000000E+99

> <Gold.Chemscore.Hbonds>
donor molecule, donor type, donor heavy atom, donor atom, acceptor molecule, acceptor atom, score
      P1  H  7997  8009       L1    19  0.89
      P1  H 10752 10765       L1     1  0.95

> <Gold.Chemscore.Hbond.Weighted>
-6.6026

> <Gold.Chemscore.Metal.Weighted>
-0.0000

> <Gold.Chemscore.Lipo.Weighted>
-11.8868

> <Gold.Chemscore.Internal_Hbond.Weighted>
0.0000

> <Gold.Chemscore.DEClash.Weighted>
0.0421

> <Gold.Chemscore.DEInternal.Weighted>
0.5819

> <Gold.Chemscore.Rot.Weighted>
5.4481

> <Gold.Chemscore.Internal.Correction.Weighted>
   9.000000E+99

> <Gold.Protein.RotatedTorsions>
[ 6907 6896 6895 6894 ] final  -94.61 input  -60.11 | X-H torsion
[ 7974 7965 7964 7962 ] final  -37.85 input  175.53 | X-H torsion
[ 8008 7997 7996 7995 ] final -155.46 input   59.86 | X-H torsion
[ 10167 10162 10161 10158 ] final   49.28 input  -65.29 | X-H torsion
[ 10718 10713 10712 10709 ] final   44.33 input   66.30 | X-H torsion
[ 10763 10752 10751 10750 ] final -165.36 input  -60.55 | X-H torsion
[ 11005 11000 10999 10996 ] final   13.07 input  -57.11 | X-H torsion

> <Gold.Protein.ActiveResidues>
 VAL166  LYS551  ARG553  GLY616  TRP617  ASP618  TYR619  PRO620  LYS621  CYS622 
 ASP623  PHE694  ASN695  SER759  ASP760  ASP761  ALA762  ILE779  LEU786  VAL792 
 PHE793  MET794  SER795  GLU796  ALA797  LYS798  CYS799  TRP800  GLU811  SER814 

> <Gold.Protein.RotatedAtoms>
  150.6945  134.1786  159.4239 H   0  0  0  0  0  0  0  0  0  0  0  0  # atno 6907 bound_to 6896
  151.9761  135.0050  160.0564 H   0  0  0  0  0  0  0  0  0  0  0  0  # atno 6908 bound_to 6896
  152.1797  133.4664  159.4988 H   0  0  0  0  0  0  0  0  0  0  0  0  # atno 6909 bound_to 6896
  146.0539  140.6443  142.9029 H   0  0  0  0  0  0  0  0  0  0  0  0  # atno 7974 bound_to 7965
  155.7021  140.0768  157.2406 H   0  0  0  0  0  0  0  0  0  0  0  0  # atno 8008 bound_to 7997
  154.4071  140.1645  156.2256 H   0  0  0  0  0  0  0  0  0  0  0  0  # atno 8009 bound_to 7997
  155.9358  140.3388  155.6289 H   0  0  0  0  0  0  0  0  0  0  0  0  # atno 8010 bound_to 7997
  140.2845  144.3118  150.6256 H   0  0  0  0  0  0  0  0  0  0  0  0  # atno 10167 bound_to 10162
  157.4256  130.7995  149.7555 H   0  0  0  0  0  0  0  0  0  0  0  0  # atno 10718 bound_to 10713
  154.6939  135.2975  154.9439 H   0  0  0  0  0  0  0  0  0  0  0  0  # atno 10763 bound_to 10752
  154.0394  135.6659  153.4792 H   0  0  0  0  0  0  0  0  0  0  0  0  # atno 10764 bound_to 10752
  153.0632  135.5103  154.8046 H   0  0  0  0  0  0  0  0  0  0  0  0  # atno 10765 bound_to 10752
  140.4849  134.0898  155.7758 H   0  0  0  0  0  0  0  0  0  0  0  0  # atno 11005 bound_to 11000
  144.7137  140.4133  143.7061 LP  0  0  0  0  0  0  0  0  0  0  0  0  # atno 17320 bound_to 7965
  145.6678  139.1593  143.2772 LP  0  0  0  0  0  0  0  0  0  0  0  0  # atno 17321 bound_to 7965
  140.5784  143.2174  151.7473 LP  0  0  0  0  0  0  0  0  0  0  0  0  # atno 17342 bound_to 10162
  139.4954  144.4116  152.0074 LP  0  0  0  0  0  0  0  0  0  0  0  0  # atno 17343 bound_to 10162
  155.9895  130.3951  150.3069 LP  0  0  0  0  0  0  0  0  0  0  0  0  # atno 17370 bound_to 10713
  157.1221  131.0249  151.3005 LP  0  0  0  0  0  0  0  0  0  0  0  0  # atno 17371 bound_to 10713
  141.1513  133.8964  157.2091 LP  0  0  0  0  0  0  0  0  0  0  0  0  # atno 17394 bound_to 11000
  139.9804  135.0100  156.9735 LP  0  0  0  0  0  0  0  0  0  0  0  0  # atno 17395 bound_to 11000

$$$$
