AV-unprocessed.smi:701|AV-procd|sdf|3409|dock2
  -GOLD-   22720 0393D 1   1.00000     0.00000
 Structure written by MMmdl.
 49 51  0  0  0  0  0  0  0  0  1 V2000
  154.2086  140.9522  160.3345 C   0  0  0  0  0  0  0  0  0  0  0  0
  152.7863  141.5150  160.4570 C   0  0  0  0  0  0  0  0  0  0  0  0
  151.8997  140.9814  159.4825 O   0  0  0  0  0  0  0  0  0  0  0  0
  152.2051  141.3318  158.1402 C   0  0  1  0  0  0  0  0  0  0  0  0
  151.4032  140.5440  157.0998 C   0  0  0  0  0  0  0  0  0  0  0  0
  151.3476  141.8497  156.3103 C   0  0  1  0  0  0  0  0  0  0  0  0
  150.0727  142.0364  155.6269 N   0  0  0  0  0  0  0  0  0  0  0  0
  149.5934  141.2180  154.6795 C   0  0  0  0  0  0  0  0  0  0  0  0
  150.1952  140.2168  154.2885 O   0  0  0  0  0  0  0  0  0  0  0  0
  148.2428  141.6128  154.0662 C   0  0  0  0  0  0  0  0  0  0  0  0
  147.2627  140.5175  154.0867 N   0  0  0  0  0  0  0  0  0  0  0  0
  147.4844  139.3653  153.3457 C   0  0  0  0  0  0  0  0  0  0  0  0
  146.6311  138.3141  153.3292 C   0  0  0  0  0  0  0  0  0  0  0  0
  145.4021  138.3480  154.1149 C   0  0  0  0  0  0  0  0  0  0  0  0
  144.5669  137.4479  154.1641 O   0  0  0  0  0  0  0  0  0  0  0  0
  145.2164  139.5229  154.8486 N   0  0  0  0  0  0  0  0  0  0  0  0
  146.0929  140.6087  154.8720 C   0  0  0  0  0  0  0  0  0  0  0  0
  145.8354  141.5965  155.5590 O   0  0  0  0  0  0  0  0  0  0  0  0
  151.4971  142.6256  157.6483 C   0  0  0  0  0  0  0  0  0  0  0  0
  150.1835  143.0308  158.3679 C   0  0  0  0  0  0  0  0  0  0  0  0
  150.4004  143.7044  159.7371 C   0  0  0  0  0  0  0  0  0  0  0  0
  151.3491  144.9040  159.6336 C   0  0  0  0  0  0  0  0  0  0  0  0
  152.6573  144.5128  158.9374 C   0  0  0  0  0  0  0  0  0  0  0  0
  152.3793  143.8815  157.5646 C   0  0  0  0  0  0  0  0  0  0  0  0
  144.3801  139.5912  155.4101 H   0  0  0  0  0  0  0  0  0  0  0  0
  154.8293  141.2914  161.1641 H   0  0  0  0  0  0  0  0  0  0  0  0
  154.6920  141.2778  159.4142 H   0  0  0  0  0  0  0  0  0  0  0  0
  154.2019  139.8621  160.3477 H   0  0  0  0  0  0  0  0  0  0  0  0
  152.3868  141.2508  161.4365 H   0  0  0  0  0  0  0  0  0  0  0  0
  152.7925  142.6050  160.4119 H   0  0  0  0  0  0  0  0  0  0  0  0
  153.2763  141.3504  157.9236 H   0  0  0  0  0  0  0  0  0  0  0  0
  151.9515  139.7420  156.6060 H   0  0  0  0  0  0  0  0  0  0  0  0
  150.4337  140.2052  157.4693 H   0  0  0  0  0  0  0  0  0  0  0  0
  152.2196  141.9579  155.6604 H   0  0  0  0  0  0  0  0  0  0  0  0
  149.5231  142.8420  155.8885 H   0  0  0  0  0  0  0  0  0  0  0  0
  147.8419  142.4882  154.5816 H   0  0  0  0  0  0  0  0  0  0  0  0
  148.4213  141.9404  153.0411 H   0  0  0  0  0  0  0  0  0  0  0  0
  148.3849  139.2945  152.7522 H   0  0  0  0  0  0  0  0  0  0  0  0
  146.8595  137.4430  152.7324 H   0  0  0  0  0  0  0  0  0  0  0  0
  149.6193  143.7223  157.7410 H   0  0  0  0  0  0  0  0  0  0  0  0
  149.5335  142.1661  158.5044 H   0  0  0  0  0  0  0  0  0  0  0  0
  149.4420  144.0277  160.1444 H   0  0  0  0  0  0  0  0  0  0  0  0
  150.8025  142.9878  160.4522 H   0  0  0  0  0  0  0  0  0  0  0  0
  150.8650  145.7030  159.0710 H   0  0  0  0  0  0  0  0  0  0  0  0
  151.5562  145.3050  160.6262 H   0  0  0  0  0  0  0  0  0  0  0  0
  153.2920  145.3918  158.8216 H   0  0  0  0  0  0  0  0  0  0  0  0
  153.2111  143.8090  159.5603 H   0  0  0  0  0  0  0  0  0  0  0  0
  153.3308  143.6447  157.0873 H   0  0  0  0  0  0  0  0  0  0  0  0
  151.9072  144.6235  156.9193 H   0  0  0  0  0  0  0  0  0  0  0  0
  1  2  1  0  0  0  0
  1 26  1  0  0  0  0
  1 27  1  0  0  0  0
  1 28  1  0  0  0  0
  2  3  1  0  0  0  0
  2 29  1  0  0  0  0
  2 30  1  0  0  0  0
  3  4  1  0  0  0  0
  4 19  1  0  0  0  0
  4  5  1  0  0  0  0
  4 31  1  0  0  0  0
  5  6  1  0  0  0  0
  5 32  1  0  0  0  0
  5 33  1  0  0  0  0
  6  7  1  0  0  0  0
  6 19  1  0  0  0  0
  6 34  1  0  0  0  0
  7  8  1  0  0  0  0
  7 35  1  0  0  0  0
  8  9  2  0  0  0  0
  8 10  1  0  0  0  0
 10 11  1  0  0  0  0
 10 36  1  0  0  0  0
 10 37  1  0  0  0  0
 11 17  1  0  0  0  0
 11 12  1  0  0  0  0
 12 13  2  0  0  0  0
 12 38  1  0  0  0  0
 13 14  1  0  0  0  0
 13 39  1  0  0  0  0
 14 15  2  0  0  0  0
 14 16  1  0  0  0  0
 16 25  1  0  0  0  0
 16 17  1  0  0  0  0
 17 18  2  0  0  0  0
 19 24  1  0  0  0  0
 19 20  1  0  0  0  0
 20 21  1  0  0  0  0
 20 40  1  0  0  0  0
 20 41  1  0  0  0  0
 21 22  1  0  0  0  0
 21 42  1  0  0  0  0
 21 43  1  0  0  0  0
 22 23  1  0  0  0  0
 22 44  1  0  0  0  0
 22 45  1  0  0  0  0
 23 24  1  0  0  0  0
 23 46  1  0  0  0  0
 23 47  1  0  0  0  0
 24 48  1  0  0  0  0
 24 49  1  0  0  0  0
M  END
> <s_m_source_file>
AV-unprocessed.smi

> <i_m_source_file_index>
701

> <i_lp_mmshare_version>
43012

> <i_f3d_flags>
0

> <s_epik_input>
W0NIMl0xW0NIMl1bQ0gyXVtDSDJdW0NIMl1DMTJbQ0BIXShPW0NIMl1bQ0gzXSlbQ0gyXVtDQEhdMltOSF1DKD1PKVtDSDJdbjNbY0hdW2NIXWMoPU8pW25IXWMzPU8=

> <s_epik_cmdline>
J2VwaWtfcHl0aG9uJywgJy1waCcsICc3LjAnLCAnLXRuJywgJzgnLCAnLW1hJywgJzIwMCcsICctbWV0YWxfYmluZGluZycsICctaW1hZScsICc8aW5maWxlLm1hZT4nLCAnLW9tYWUnLCAnPG91dGZpbGUubWFlPic=

> <r_lp_tautomer_probability>
0.999537

> <r_epik_Ionization_Penalty>
0.00304597

> <r_epik_Ionization_Penalty_Charging>
0.00304595

> <r_epik_Ionization_Penalty_Neutral>
1.88422e-08

> <r_epik_State_Penalty>
0.00214084

> <r_epik_Charging_Adjusted_Penalty>
0.00518679

> <i_epik_Tot_Q>
0

> <i_epik_Tot_abs_Q>
0

> <r_epik_Metal_State_Penalty>
0.361872

> <b_epik_Metal_Only>
0

> <s_lp_Force_Field>
OPLS_2005

> <r_lp_Energy>
28.8847

> <b_lp_Chiralities_Consistent>
1

> <s_lp_Variant>
AV-unprocessed.smi:701-2

> <Gold.Version>
5.8.1

> <Gold.Id.Protein>
6NUR|6NUR_protein|mol2

> <Gold.PLP.Fitness>
55.5053

> <Gold.PLP.PLP>
-47.3321

> <Gold.PLP.part.hbond>
-3.2821

> <Gold.PLP.part.metal>
0.0000

> <Gold.PLP.part.buried>
-6.7160

> <Gold.PLP.part.nonpolar>
-38.7370

> <Gold.PLP.part.repulsive>
0.4401

> <Gold.PLP.ligand.clash>
0.0000

> <Gold.PLP.ligand.torsion>
0.4497

> <Gold.PLP.Chemscore.Hbond>
1.9040

> <Gold.PLP.Chemscore.CHOScore>
1.0000

> <Gold.PLP.Chemscore.Metal>
0.0000

> <Gold.Chemscore.Hbonds>
donor molecule, donor type, donor heavy atom, donor atom, acceptor molecule, acceptor atom, score
      L1  H     7    35       P1  8028  1.00
      P1  H  7989  7998       L1     9  1.00
      L1  C    12    38       P1  7957  1.00

> <Gold.PLP.Chemscore.Internal.Correction>
0.3606

> <Gold.Rescore>
     Score         DG    S(hbond)    S(metal)    S(lipo)     H(rot)  DE(clash)    DE(int)     intcor
     19.08     -20.17       1.74        0.00     121.70       2.09       0.41       0.68       ----

> <Gold.Chemscore.Fitness>
19.0823

> <Gold.Chemscore.DG>
-20.1671

> <Gold.Chemscore.ZeroCoef>
-5.4800

> <Gold.Chemscore.Hbond>
1.7387

> <Gold.Chemscore.Metal>
0.0000

> <Gold.Chemscore.Lipo>
121.6989

> <Gold.Chemscore.Internal_Hbond>
0.0000

> <Gold.Chemscore.DEClash>
0.4081

> <Gold.Chemscore.DEInternal>
0.6767

> <Gold.Chemscore.Rot>
2.0933

> <Gold.Chemscore.Internal.Correction>
   9.000000E+99

> <Gold.Chemscore.Hbonds>
donor molecule, donor type, donor heavy atom, donor atom, acceptor molecule, acceptor atom, score
      L1  H     7    35       P1  8028  0.94
      P1  H  7989  7998       L1     9  0.37

> <Gold.Chemscore.Hbond.Weighted>
-5.8071

> <Gold.Chemscore.Metal.Weighted>
-0.0000

> <Gold.Chemscore.Lipo.Weighted>
-14.2388

> <Gold.Chemscore.Internal_Hbond.Weighted>
0.0000

> <Gold.Chemscore.DEClash.Weighted>
0.4081

> <Gold.Chemscore.DEInternal.Weighted>
0.6767

> <Gold.Chemscore.Rot.Weighted>
5.3588

> <Gold.Chemscore.Internal.Correction.Weighted>
   9.000000E+99

> <Gold.Protein.RotatedTorsions>
[ 6907 6896 6895 6894 ] final   44.62 input  -60.11 | X-H torsion
[ 7974 7965 7964 7962 ] final  -31.38 input  175.53 | X-H torsion
[ 8008 7997 7996 7995 ] final  -68.23 input   59.86 | X-H torsion
[ 10167 10162 10161 10158 ] final  163.70 input  -65.29 | X-H torsion
[ 10718 10713 10712 10709 ] final  -16.97 input   66.30 | X-H torsion
[ 10763 10752 10751 10750 ] final -117.70 input  -60.55 | X-H torsion
[ 11005 11000 10999 10996 ] final  114.50 input  -57.11 | X-H torsion

> <Gold.Protein.ActiveResidues>
 VAL166  LYS551  ARG553  GLY616  TRP617  ASP618  TYR619  PRO620  LYS621  CYS622 
 ASP623  PHE694  ASN695  SER759  ASP760  ASP761  ALA762  ILE779  LEU786  VAL792 
 PHE793  MET794  SER795  GLU796  ALA797  LYS798  CYS799  TRP800  GLU811  SER814 

> <Gold.Protein.RotatedAtoms>
  152.2347  134.8288  160.0468 H   0  0  0  0  0  0  0  0  0  0  0  0  # atno 6907 bound_to 6896
  151.9024  133.3536  159.3843 H   0  0  0  0  0  0  0  0  0  0  0  0  # atno 6908 bound_to 6896
  150.7036  134.4741  159.5483 H   0  0  0  0  0  0  0  0  0  0  0  0  # atno 6909 bound_to 6896
  146.1072  140.5660  142.8794 H   0  0  0  0  0  0  0  0  0  0  0  0  # atno 7974 bound_to 7965
  154.4854  140.0877  156.7474 H   0  0  0  0  0  0  0  0  0  0  0  0  # atno 8008 bound_to 7997
  155.4364  140.3452  155.4267 H   0  0  0  0  0  0  0  0  0  0  0  0  # atno 8009 bound_to 7997
  156.1253  140.1486  156.9133 H   0  0  0  0  0  0  0  0  0  0  0  0  # atno 8010 bound_to 7997
  139.4878  144.4310  151.9070 H   0  0  0  0  0  0  0  0  0  0  0  0  # atno 10167 bound_to 10162
  156.5801  130.4772  149.6324 H   0  0  0  0  0  0  0  0  0  0  0  0  # atno 10718 bound_to 10713
  154.8563  135.4300  154.2021 H   0  0  0  0  0  0  0  0  0  0  0  0  # atno 10763 bound_to 10752
  153.3066  135.6973  153.7160 H   0  0  0  0  0  0  0  0  0  0  0  0  # atno 10764 bound_to 10752
  153.6269  135.3492  155.3003 H   0  0  0  0  0  0  0  0  0  0  0  0  # atno 10765 bound_to 10752
  139.8982  134.9569  156.6902 H   0  0  0  0  0  0  0  0  0  0  0  0  # atno 11005 bound_to 11000
  144.7480  140.5119  143.6821 LP  0  0  0  0  0  0  0  0  0  0  0  0  # atno 17320 bound_to 7965
  145.5737  139.1485  143.3274 LP  0  0  0  0  0  0  0  0  0  0  0  0  # atno 17321 bound_to 7965
  140.3758  144.2798  150.5914 LP  0  0  0  0  0  0  0  0  0  0  0  0  # atno 17342 bound_to 10162
  140.5278  143.2250  151.8287 LP  0  0  0  0  0  0  0  0  0  0  0  0  # atno 17343 bound_to 10162
  156.2639  130.6978  151.1755 LP  0  0  0  0  0  0  0  0  0  0  0  0  # atno 17370 bound_to 10713
  157.7328  131.0596  150.5608 LP  0  0  0  0  0  0  0  0  0  0  0  0  # atno 17371 bound_to 10713
  140.7231  133.9124  155.8160 LP  0  0  0  0  0  0  0  0  0  0  0  0  # atno 17394 bound_to 11000
  141.0212  134.0886  157.4118 LP  0  0  0  0  0  0  0  0  0  0  0  0  # atno 17395 bound_to 11000

$$$$
