AV-unprocessed.smi:3245|AV-procd|sdf|12407|dock4
  -GOLD-   2272018283D 1   1.00000     0.00000
 Structure written by MMmdl.
 35 36  0  0  0  0  0  0  0  0  3 V2000
  146.7108  140.1526  153.3953 C   0  0  0  0  0  0  0  0  0  0  0  0
  147.0692  138.7534  152.8774 C   0  0  1  0  0  0  0  0  0  0  0  0
  146.4882  138.5294  151.4642 C   0  0  0  0  0  0  0  0  0  0  0  0
  145.6358  137.3568  151.3825 N   0  0  0  0  0  0  0  0  0  0  0  0
  145.6503  136.3482  150.4425 C   0  0  0  0  0  0  0  0  0  0  0  0
  144.6463  135.4804  150.7637 C   0  0  0  0  0  0  0  0  0  0  0  0
  144.0682  136.0486  151.9331 C   0  0  0  0  0  0  0  0  0  0  0  0
  144.6650  137.1704  152.3030 N   0  0  0  0  0  0  0  0  0  0  0  0
  148.5407  138.5875  152.8840 N   0  3  0  0  0  0  0  0  0  0  0  0
  149.1824  138.7935  154.1981 C   0  0  0  0  0  0  0  0  0  0  0  0
  150.6306  138.2859  154.1876 C   0  0  0  0  0  0  0  0  0  0  0  0
  151.2465  138.4352  155.5080 N   0  0  0  0  0  0  0  0  0  0  0  0
  151.6566  137.4167  156.2694 C   0  0  0  0  0  0  0  0  0  0  0  0
  151.5865  136.2128  156.0220 O   0  0  0  0  0  0  0  0  0  0  0  0
  152.2594  138.0018  157.5251 C   0  0  0  0  0  0  0  0  0  0  0  0
  152.1207  139.4233  157.3001 N   0  5  0  0  0  0  0  0  0  0  0  0
  151.5229  139.6122  156.1013 C   0  0  0  0  0  0  0  0  0  0  0  0
  151.2546  140.6910  155.5734 O   0  0  0  0  0  0  0  0  0  0  0  0
  145.6300  140.2921  153.4323 H   0  0  0  0  0  0  0  0  0  0  0  0
  147.1244  140.9326  152.7550 H   0  0  0  0  0  0  0  0  0  0  0  0
  147.0962  140.3097  154.4035 H   0  0  0  0  0  0  0  0  0  0  0  0
  146.6242  138.0306  153.5638 H   0  0  0  0  0  0  0  0  0  0  0  0
  145.8949  139.3936  151.1630 H   0  0  0  0  0  0  0  0  0  0  0  0
  147.2908  138.4358  150.7306 H   0  0  0  0  0  0  0  0  0  0  0  0
  146.3603  136.3356  149.6287 H   0  0  0  0  0  0  0  0  0  0  0  0
  144.3643  134.5782  150.2416 H   0  0  0  0  0  0  0  0  0  0  0  0
  143.2368  135.6838  152.5181 H   0  0  0  0  0  0  0  0  0  0  0  0
  148.7540  137.6548  152.5597 H   0  0  0  0  0  0  0  0  0  0  0  0
  149.1523  139.8554  154.4455 H   0  0  0  0  0  0  0  0  0  0  0  0
  148.6192  138.2723  154.9718 H   0  0  0  0  0  0  0  0  0  0  0  0
  150.6572  137.2367  153.8879 H   0  0  0  0  0  0  0  0  0  0  0  0
  151.2110  138.8240  153.4361 H   0  0  0  0  0  0  0  0  0  0  0  0
  151.7118  137.6484  158.3995 H   0  0  0  0  0  0  0  0  0  0  0  0
  153.2966  137.6801  157.6234 H   0  0  0  0  0  0  0  0  0  0  0  0
  148.9436  139.2528  152.2400 H   0  0  0  0  0  0  0  0  0  0  0  0
  1  2  1  0  0  0  0
  1 19  1  0  0  0  0
  1 20  1  0  0  0  0
  1 21  1  0  0  0  0
  2  3  1  0  0  0  0
  2  9  1  0  0  0  0
  2 22  1  0  0  0  0
  3  4  1  0  0  0  0
  3 23  1  0  0  0  0
  3 24  1  0  0  0  0
  4  8  1  0  0  0  0
  4  5  1  0  0  0  0
  5  6  2  0  0  0  0
  5 25  1  0  0  0  0
  6  7  1  0  0  0  0
  6 26  1  0  0  0  0
  7  8  2  0  0  0  0
  7 27  1  0  0  0  0
  9 10  1  0  0  0  0
  9 28  1  0  0  0  0
  9 35  1  0  0  0  0
 10 11  1  0  0  0  0
 10 29  1  0  0  0  0
 10 30  1  0  0  0  0
 11 12  1  0  0  0  0
 11 31  1  0  0  0  0
 11 32  1  0  0  0  0
 12 17  1  0  0  0  0
 12 13  1  0  0  0  0
 13 14  2  0  0  0  0
 13 15  1  0  0  0  0
 15 16  1  0  0  0  0
 15 33  1  0  0  0  0
 15 34  1  0  0  0  0
 16 17  1  0  0  0  0
 17 18  2  0  0  0  0
M  CHG  1   9   1
M  CHG  1  16  -1
M  END
> <s_m_source_file>
AV-unprocessed.smi

> <i_m_source_file_index>
3245

> <i_lp_mmshare_version>
43012

> <i_f3d_flags>
0

> <s_epik_input>
bjFbY0hdW2NIXVtjSF1uMVtDSDJdW0NAQEhdKFtDSDNdKVtOSF1bQ0gyXVtDSDJdTjJDKD1PKVtDSDJdW05IXUMyPU8=

> <s_epik_cmdline>
J2VwaWtfcHl0aG9uJywgJy1waCcsICc3LjAnLCAnLXRuJywgJzgnLCAnLW1hJywgJzIwMCcsICctbWV0YWxfYmluZGluZycsICctaW1hZScsICc8aW5maWxlLm1hZT4nLCAnLW9tYWUnLCAnPG91dGZpbGUubWFlPic=

> <r_lp_tautomer_probability>
1

> <r_epik_Ionization_Penalty>
5.1873

> <r_epik_Ionization_Penalty_Charging>
5.18729

> <r_epik_Ionization_Penalty_Neutral>
3.83745e-06

> <r_epik_State_Penalty>
5.18822

> <r_epik_Charging_Adjusted_Penalty>
10.3755

> <i_epik_Tot_Q>
0

> <i_epik_Tot_abs_Q>
2

> <r_epik_Metal_State_Penalty>
1.25934

> <b_epik_Metal_Only>
1

> <s_lp_Force_Field>
OPLS_2005

> <r_lp_Energy>
10.2516

> <b_lp_Chiralities_Consistent>
1

> <s_lp_Variant>
AV-unprocessed.smi:3245-6

> <Gold.Version>
5.8.1

> <Gold.Id.Protein>
6NUR|6NUR_protein|mol2

> <Gold.PLP.Fitness>
52.0257

> <Gold.PLP.PLP>
-31.3809

> <Gold.PLP.part.hbond>
-4.9827

> <Gold.PLP.part.metal>
0.0000

> <Gold.PLP.part.buried>
-0.3731

> <Gold.PLP.part.nonpolar>
-27.8316

> <Gold.PLP.part.repulsive>
0.3140

> <Gold.PLP.ligand.clash>
0.0000

> <Gold.PLP.ligand.torsion>
0.9408

> <Gold.PLP.Chemscore.Hbond>
6.7040

> <Gold.PLP.Chemscore.CHOScore>
0.7787

> <Gold.PLP.Chemscore.Metal>
0.0000

> <Gold.Chemscore.Hbonds>
donor molecule, donor type, donor heavy atom, donor atom, acceptor molecule, acceptor atom, score
      L1  H     9    28       P1  7948  2.00
      L1  H     9    35       P1  7957  0.88
      P1  H  7989  7998       L1    18  0.64
      P1  H 10752 10765       L1    14  1.00
      L1  C     5    25       P1  7921  0.89

> <Gold.PLP.Chemscore.Internal.Correction>
0.0782

> <Gold.Rescore>
     Score         DG    S(hbond)    S(metal)    S(lipo)     H(rot)  DE(clash)    DE(int)     intcor
     16.20     -17.39       3.58        0.00      57.74       2.66       0.19       1.00       ----

> <Gold.Chemscore.Fitness>
16.1958

> <Gold.Chemscore.DG>
-17.3903

> <Gold.Chemscore.ZeroCoef>
-5.4800

> <Gold.Chemscore.Hbond>
3.5822

> <Gold.Chemscore.Metal>
0.0000

> <Gold.Chemscore.Lipo>
57.7387

> <Gold.Chemscore.Internal_Hbond>
0.0000

> <Gold.Chemscore.DEClash>
0.1900

> <Gold.Chemscore.DEInternal>
1.0045

> <Gold.Chemscore.Rot>
2.6601

> <Gold.Chemscore.Internal.Correction>
   9.000000E+99

> <Gold.Chemscore.Hbonds>
donor molecule, donor type, donor heavy atom, donor atom, acceptor molecule, acceptor atom, score
      L1  H     9    28       P1  7948  0.97
      L1  H     9    35       P1  7957  0.85
      P1  H  7989  7998       L1    18  0.60
      P1  H 10752 10765       L1    14  0.89

> <Gold.Chemscore.Hbond.Weighted>
-11.9647

> <Gold.Chemscore.Metal.Weighted>
-0.0000

> <Gold.Chemscore.Lipo.Weighted>
-6.7554

> <Gold.Chemscore.Internal_Hbond.Weighted>
0.0000

> <Gold.Chemscore.DEClash.Weighted>
0.1900

> <Gold.Chemscore.DEInternal.Weighted>
1.0045

> <Gold.Chemscore.Rot.Weighted>
6.8098

> <Gold.Chemscore.Internal.Correction.Weighted>
   9.000000E+99

> <Gold.Protein.RotatedTorsions>
[ 6907 6896 6895 6894 ] final -151.76 input  -60.11 | X-H torsion
[ 7974 7965 7964 7962 ] final  -18.78 input  175.53 | X-H torsion
[ 8008 7997 7996 7995 ] final  -46.67 input   59.86 | X-H torsion
[ 10167 10162 10161 10158 ] final  172.17 input  -65.29 | X-H torsion
[ 10718 10713 10712 10709 ] final  152.58 input   66.30 | X-H torsion
[ 10763 10752 10751 10750 ] final -160.34 input  -60.55 | X-H torsion
[ 11005 11000 10999 10996 ] final -173.02 input  -57.11 | X-H torsion

> <Gold.Protein.ActiveResidues>
 VAL166  LYS551  ARG553  GLY616  TRP617  ASP618  TYR619  PRO620  LYS621  CYS622 
 ASP623  PHE694  ASN695  SER759  ASP760  ASP761  ALA762  ILE779  LEU786  VAL792 
 PHE793  MET794  SER795  GLU796  ALA797  LYS798  CYS799  TRP800  GLU811  SER814 

> <Gold.Protein.RotatedAtoms>
  151.2178  133.4519  159.2599 H   0  0  0  0  0  0  0  0  0  0  0  0  # atno 6907 bound_to 6896
  151.0914  134.9918  159.8415 H   0  0  0  0  0  0  0  0  0  0  0  0  # atno 6908 bound_to 6896
  152.5435  134.2111  159.8803 H   0  0  0  0  0  0  0  0  0  0  0  0  # atno 6909 bound_to 6896
  146.1875  140.3969  142.8471 H   0  0  0  0  0  0  0  0  0  0  0  0  # atno 7974 bound_to 7965
  154.4009  140.1365  156.4049 H   0  0  0  0  0  0  0  0  0  0  0  0  # atno 8008 bound_to 7997
  155.7789  140.3482  155.5266 H   0  0  0  0  0  0  0  0  0  0  0  0  # atno 8009 bound_to 7997
  155.8693  140.0969  157.1551 H   0  0  0  0  0  0  0  0  0  0  0  0  # atno 8010 bound_to 7997
  139.5068  144.3404  152.0024 H   0  0  0  0  0  0  0  0  0  0  0  0  # atno 10167 bound_to 10162
  157.2559  131.0788  151.1698 H   0  0  0  0  0  0  0  0  0  0  0  0  # atno 10718 bound_to 10713
  154.7399  135.3066  154.8747 H   0  0  0  0  0  0  0  0  0  0  0  0  # atno 10763 bound_to 10752
  153.9565  135.6758  153.4749 H   0  0  0  0  0  0  0  0  0  0  0  0  # atno 10764 bound_to 10752
  153.0998  135.4917  154.8770 H   0  0  0  0  0  0  0  0  0  0  0  0  # atno 10765 bound_to 10752
  140.4904  134.5990  157.4952 H   0  0  0  0  0  0  0  0  0  0  0  0  # atno 11005 bound_to 11000
  144.8424  140.6877  143.6221 LP  0  0  0  0  0  0  0  0  0  0  0  0  # atno 17320 bound_to 7965
  145.3895  139.1619  143.4237 LP  0  0  0  0  0  0  0  0  0  0  0  0  # atno 17321 bound_to 7965
  140.2842  144.3826  150.6109 LP  0  0  0  0  0  0  0  0  0  0  0  0  # atno 17342 bound_to 10162
  140.5995  143.2167  151.7099 LP  0  0  0  0  0  0  0  0  0  0  0  0  # atno 17343 bound_to 10162
  157.3227  130.6945  149.6278 LP  0  0  0  0  0  0  0  0  0  0  0  0  # atno 17370 bound_to 10713
  155.9665  130.4330  150.4989 LP  0  0  0  0  0  0  0  0  0  0  0  0  # atno 17371 bound_to 10713
  139.9772  134.7195  155.9926 LP  0  0  0  0  0  0  0  0  0  0  0  0  # atno 17394 bound_to 11000
  141.1487  133.6552  156.3946 LP  0  0  0  0  0  0  0  0  0  0  0  0  # atno 17395 bound_to 11000

$$$$
