AV-unprocessed.smi:1585|AV-procd|sdf|6369|dock3
  -GOLD-   22720 6593D 1   1.00000     0.00000
 Structure written by MMmdl.
 43 44  0  0  0  0  0  0  0  0  2 V2000
  151.9421  139.7084  158.3042 C   0  0  0  0  0  0  0  0  0  0  0  0
  151.5110  139.6768  156.8776 C   0  0  0  0  0  0  0  0  0  0  0  0
  150.3185  139.3936  156.2730 C   0  0  0  0  0  0  0  0  0  0  0  0
  150.6155  139.5464  154.8925 C   0  0  0  0  0  0  0  0  0  0  0  0
  149.6195  139.3345  153.9051 N   0  0  0  0  0  0  0  0  0  0  0  0
  148.4152  138.7612  154.0696 C   0  0  0  0  0  0  0  0  0  0  0  0
  147.9794  138.3156  155.1317 O   0  0  0  0  0  0  0  0  0  0  0  0
  147.7265  138.7264  152.9192 N   0  0  0  0  0  0  0  0  0  0  0  0
  146.3755  138.1925  152.7726 C   0  0  0  0  0  0  0  0  0  0  0  0
  146.3261  136.9881  151.8093 C   0  0  2  0  0  0  0  0  0  0  0  0
  146.4534  137.4775  150.4890 O   0  0  0  0  0  0  0  0  0  0  0  0
  144.9788  136.2431  151.9047 C   0  0  0  0  0  0  0  0  0  0  0  0
  145.0040  134.9247  151.2200 N   0  3  0  0  0  0  0  0  0  0  0  0
  143.8143  134.0966  151.5490 C   0  0  0  0  0  0  0  0  0  0  0  0
  143.7887  132.8023  150.7182 C   0  0  0  0  0  0  0  0  0  0  0  0
  145.0827  132.0000  150.9069 C   0  0  0  0  0  0  0  0  0  0  0  0
  146.2967  132.8842  150.5947 C   0  0  0  0  0  0  0  0  0  0  0  0
  146.2702  134.1725  151.4341 C   0  0  0  0  0  0  0  0  0  0  0  0
  151.8747  139.8937  154.6740 N   0  0  0  0  0  0  0  0  0  0  0  0
  152.4552  139.9784  155.9450 O   0  0  0  0  0  0  0  0  0  0  0  0
  151.0928  139.8913  158.9629 H   0  0  0  0  0  0  0  0  0  0  0  0
  152.6753  140.4974  158.4730 H   0  0  0  0  0  0  0  0  0  0  0  0
  152.3948  138.7590  158.5907 H   0  0  0  0  0  0  0  0  0  0  0  0
  149.3867  139.1193  156.7450 H   0  0  0  0  0  0  0  0  0  0  0  0
  149.8469  139.6596  152.9771 H   0  0  0  0  0  0  0  0  0  0  0  0
  148.1563  139.1145  152.0920 H   0  0  0  0  0  0  0  0  0  0  0  0
  146.0211  137.8951  153.7612 H   0  0  0  0  0  0  0  0  0  0  0  0
  145.7047  138.9867  152.4424 H   0  0  0  0  0  0  0  0  0  0  0  0
  147.1500  136.3070  152.0186 H   0  0  0  0  0  0  0  0  0  0  0  0
  145.7408  138.0760  150.3215 H   0  0  0  0  0  0  0  0  0  0  0  0
  144.6940  136.0953  152.9478 H   0  0  0  0  0  0  0  0  0  0  0  0
  144.2037  136.8746  151.4670 H   0  0  0  0  0  0  0  0  0  0  0  0
  143.8160  133.8616  152.6147 H   0  0  0  0  0  0  0  0  0  0  0  0
  142.9038  134.6632  151.3504 H   0  0  0  0  0  0  0  0  0  0  0  0
  142.9292  132.1941  151.0019 H   0  0  0  0  0  0  0  0  0  0  0  0
  143.6597  133.0471  149.6631 H   0  0  0  0  0  0  0  0  0  0  0  0
  145.1452  131.6351  151.9327 H   0  0  0  0  0  0  0  0  0  0  0  0
  145.0796  131.1212  150.2615 H   0  0  0  0  0  0  0  0  0  0  0  0
  147.2180  132.3329  150.7861 H   0  0  0  0  0  0  0  0  0  0  0  0
  146.3031  133.1385  149.5338 H   0  0  0  0  0  0  0  0  0  0  0  0
  147.1302  134.7838  151.1641 H   0  0  0  0  0  0  0  0  0  0  0  0
  146.3774  133.9312  152.4929 H   0  0  0  0  0  0  0  0  0  0  0  0
  144.9420  135.1234  150.2314 H   0  0  0  0  0  0  0  0  0  0  0  0
  1  2  1  0  0  0  0
  1 21  1  0  0  0  0
  1 22  1  0  0  0  0
  1 23  1  0  0  0  0
  2 20  1  0  0  0  0
  2  3  2  0  0  0  0
  3  4  1  0  0  0  0
  3 24  1  0  0  0  0
  4  5  1  0  0  0  0
  4 19  2  0  0  0  0
  5  6  1  0  0  0  0
  5 25  1  0  0  0  0
  6  7  2  0  0  0  0
  6  8  1  0  0  0  0
  8  9  1  0  0  0  0
  8 26  1  0  0  0  0
  9 10  1  0  0  0  0
  9 27  1  0  0  0  0
  9 28  1  0  0  0  0
 10 11  1  0  0  0  0
 10 12  1  0  0  0  0
 10 29  1  0  0  0  0
 11 30  1  0  0  0  0
 12 13  1  0  0  0  0
 12 31  1  0  0  0  0
 12 32  1  0  0  0  0
 13 18  1  0  0  0  0
 13 14  1  0  0  0  0
 13 43  1  0  0  0  0
 14 15  1  0  0  0  0
 14 33  1  0  0  0  0
 14 34  1  0  0  0  0
 15 16  1  0  0  0  0
 15 35  1  0  0  0  0
 15 36  1  0  0  0  0
 16 17  1  0  0  0  0
 16 37  1  0  0  0  0
 16 38  1  0  0  0  0
 17 18  1  0  0  0  0
 17 39  1  0  0  0  0
 17 40  1  0  0  0  0
 18 41  1  0  0  0  0
 18 42  1  0  0  0  0
 19 20  1  0  0  0  0
M  CHG  1  13   1
M  END
> <s_m_source_file>
AV-unprocessed.smi

> <i_m_source_file_index>
1585

> <i_lp_mmshare_version>
43012

> <i_f3d_flags>
0

> <s_epik_input>
W0NIM11jMVtjSF1jKG5vMSlbTkhdQyg9TylbTkhdW0NIMl1bQ0BIXShbT0hdKVtDSDJdTjJbQ0gyXVtDSDJdW0NIMl1bQ0gyXVtDSDJdMg==

> <s_epik_cmdline>
J2VwaWtfcHl0aG9uJywgJy1waCcsICc3LjAnLCAnLXRuJywgJzgnLCAnLW1hJywgJzIwMCcsICctbWV0YWxfYmluZGluZycsICctaW1hZScsICc8aW5maWxlLm1hZT4nLCAnLW9tYWUnLCAnPG91dGZpbGUubWFlPic=

> <r_epik_Ionization_Penalty>
0.00531443

> <r_epik_Ionization_Penalty_Charging>
0.0052814

> <r_epik_Ionization_Penalty_Neutral>
3.3027e-05

> <r_epik_State_Penalty>
0.00385383

> <r_epik_Charging_Adjusted_Penalty>
0.00913523

> <i_epik_Tot_Q>
1

> <i_epik_Tot_abs_Q>
1

> <r_epik_Metal_State_Penalty>
0.0139186

> <b_epik_Metal_Only>
0

> <s_lp_Force_Field>
OPLS_2005

> <r_lp_Energy>
15.3919

> <b_lp_Chiralities_Consistent>
1

> <s_lp_Variant>
AV-unprocessed.smi:1585-1

> <Gold.Version>
5.8.1

> <Gold.Id.Protein>
6NUR|6NUR_protein|mol2

> <Gold.PLP.Fitness>
52.1612

> <Gold.PLP.PLP>
-35.0887

> <Gold.PLP.part.hbond>
-7.7338

> <Gold.PLP.part.metal>
0.0000

> <Gold.PLP.part.buried>
-3.1589

> <Gold.PLP.part.nonpolar>
-24.8873

> <Gold.PLP.part.repulsive>
0.3072

> <Gold.PLP.ligand.clash>
0.0000

> <Gold.PLP.ligand.torsion>
0.3406

> <Gold.PLP.Chemscore.Hbond>
5.8880

> <Gold.PLP.Chemscore.CHOScore>
0.0000

> <Gold.PLP.Chemscore.Metal>
0.0000

> <Gold.Chemscore.Hbonds>
donor molecule, donor type, donor heavy atom, donor atom, acceptor molecule, acceptor atom, score
      L1  H     5    25       P1  7957  1.00
      L1  H     8    26       P1  7957  1.00
      L1  H    11    30       P1 10171  1.00
      P1  H  7954  7966       L1    11  0.93
      P1  H  7989  7998       L1    19  0.96
      P1  H  7997  8009       L1    20  1.00

> <Gold.PLP.Chemscore.Internal.Correction>
0.0898

> <Gold.Rescore>
     Score         DG    S(hbond)    S(metal)    S(lipo)     H(rot)  DE(clash)    DE(int)     intcor
     21.67     -24.67       5.23        0.00      69.28       2.50       1.30       1.70       ----

> <Gold.Chemscore.Fitness>
21.6723

> <Gold.Chemscore.DG>
-24.6659

> <Gold.Chemscore.ZeroCoef>
-5.4800

> <Gold.Chemscore.Hbond>
5.2301

> <Gold.Chemscore.Metal>
0.0000

> <Gold.Chemscore.Lipo>
69.2776

> <Gold.Chemscore.Internal_Hbond>
0.0000

> <Gold.Chemscore.DEClash>
1.2972

> <Gold.Chemscore.DEInternal>
1.6964

> <Gold.Chemscore.Rot>
2.4953

> <Gold.Chemscore.Internal.Correction>
   9.000000E+99

> <Gold.Chemscore.Hbonds>
donor molecule, donor type, donor heavy atom, donor atom, acceptor molecule, acceptor atom, score
      L1  H     5    25       P1  7957  0.99
      L1  H     8    26       P1  7957  0.97
      L1  H    11    30       P1 10171  0.96
      P1  H  7954  7966       L1    11  0.84
      P1  H  7989  7998       L1    19  0.22
      P1  H  7997  8009       L1    20  0.94

> <Gold.Chemscore.Hbond.Weighted>
-17.4685

> <Gold.Chemscore.Metal.Weighted>
-0.0000

> <Gold.Chemscore.Lipo.Weighted>
-8.1055

> <Gold.Chemscore.Internal_Hbond.Weighted>
0.0000

> <Gold.Chemscore.DEClash.Weighted>
1.2972

> <Gold.Chemscore.DEInternal.Weighted>
1.6964

> <Gold.Chemscore.Rot.Weighted>
6.3880

> <Gold.Chemscore.Internal.Correction.Weighted>
   9.000000E+99

> <Gold.Protein.RotatedTorsions>
[ 6907 6896 6895 6894 ] final  101.12 input  -60.11 | X-H torsion
[ 7974 7965 7964 7962 ] final -165.36 input  175.53 | X-H torsion
[ 8008 7997 7996 7995 ] final -144.27 input   59.86 | X-H torsion
[ 10167 10162 10161 10158 ] final -156.51 input  -65.29 | X-H torsion
[ 10718 10713 10712 10709 ] final   -5.90 input   66.30 | X-H torsion
[ 10763 10752 10751 10750 ] final    6.52 input  -60.55 | X-H torsion
[ 11005 11000 10999 10996 ] final  -79.72 input  -57.11 | X-H torsion

> <Gold.Protein.ActiveResidues>
 VAL166  LYS551  ARG553  GLY616  TRP617  ASP618  TYR619  PRO620  LYS621  CYS622 
 ASP623  PHE694  ASN695  SER759  ASP760  ASP761  ALA762  ILE779  LEU786  VAL792 
 PHE793  MET794  SER795  GLU796  ALA797  LYS798  CYS799  TRP800  GLU811  SER814 

> <Gold.Protein.RotatedAtoms>
  152.5357  134.0174  159.7965 H   0  0  0  0  0  0  0  0  0  0  0  0  # atno 6907 bound_to 6896
  151.0366  133.5735  159.2662 H   0  0  0  0  0  0  0  0  0  0  0  0  # atno 6908 bound_to 6896
  151.2721  135.0695  159.9191 H   0  0  0  0  0  0  0  0  0  0  0  0  # atno 6909 bound_to 6896
  144.7272  140.2825  143.6233 H   0  0  0  0  0  0  0  0  0  0  0  0  # atno 7974 bound_to 7965
  155.5241  140.0594  157.2901 H   0  0  0  0  0  0  0  0  0  0  0  0  # atno 8008 bound_to 7997
  154.4507  140.1947  156.0474 H   0  0  0  0  0  0  0  0  0  0  0  0  # atno 8009 bound_to 7997
  156.0698  140.3261  155.7566 H   0  0  0  0  0  0  0  0  0  0  0  0  # atno 8010 bound_to 7997
  139.6844  143.9526  152.2353 H   0  0  0  0  0  0  0  0  0  0  0  0  # atno 10167 bound_to 10162
  156.7398  130.5206  149.5827 H   0  0  0  0  0  0  0  0  0  0  0  0  # atno 10718 bound_to 10713
  153.2468  135.6909  153.7722 H   0  0  0  0  0  0  0  0  0  0  0  0  # atno 10763 bound_to 10752
  153.6831  135.3325  155.3184 H   0  0  0  0  0  0  0  0  0  0  0  0  # atno 10764 bound_to 10752
  154.8378  135.4527  154.1411 H   0  0  0  0  0  0  0  0  0  0  0  0  # atno 10765 bound_to 10752
  141.1667  133.7118  156.8165 H   0  0  0  0  0  0  0  0  0  0  0  0  # atno 11005 bound_to 11000
  145.7935  139.1936  143.2089 LP  0  0  0  0  0  0  0  0  0  0  0  0  # atno 17320 bound_to 7965
  146.0736  140.7842  142.9676 LP  0  0  0  0  0  0  0  0  0  0  0  0  # atno 17321 bound_to 7965
  139.9325  144.6732  150.8348 LP  0  0  0  0  0  0  0  0  0  0  0  0  # atno 17342 bound_to 10162
  140.7663  143.3299  151.2433 LP  0  0  0  0  0  0  0  0  0  0  0  0  # atno 17343 bound_to 10162
  156.1472  130.6285  151.0548 LP  0  0  0  0  0  0  0  0  0  0  0  0  # atno 17370 bound_to 10713
  157.6823  131.0834  150.7336 LP  0  0  0  0  0  0  0  0  0  0  0  0  # atno 17371 bound_to 10713
  140.2150  134.8799  157.3316 LP  0  0  0  0  0  0  0  0  0  0  0  0  # atno 17394 bound_to 11000
  140.2047  134.4212  155.7644 LP  0  0  0  0  0  0  0  0  0  0  0  0  # atno 17395 bound_to 11000

$$$$
