AV-unprocessed.smi:2458|AV-procd|sdf|9709|dock1
  -GOLD-   2272013343D 1   1.00000     0.00000
 Structure written by MMmdl.
 47 48  0  0  0  0  0  0  0  0  1 V2000
  152.4963  143.8746  160.4285 C   0  0  0  0  0  0  0  0  0  0  0  0
  152.5602  143.4621  158.9451 C   0  0  0  0  0  0  0  0  0  0  0  0
  152.2113  144.6861  158.0760 C   0  0  0  0  0  0  0  0  0  0  0  0
  151.6710  142.2244  158.6248 C   0  0  1  0  0  0  0  0  0  0  0  0
  151.0317  142.3075  157.2165 C   0  0  0  0  0  0  0  0  0  0  0  0
  150.1668  141.0797  156.8884 C   0  0  0  0  0  0  0  0  0  0  0  0
  150.9769  139.7760  157.0050 C   0  0  2  0  0  0  0  0  0  0  0  0
  150.1132  138.5481  156.6892 C   0  0  0  0  0  0  0  0  0  0  0  0
  148.9056  138.6714  156.4818 O   0  0  0  0  0  0  0  0  0  0  0  0
  150.7427  137.3637  156.6767 N   0  0  0  0  0  0  0  0  0  0  0  0
  150.0947  136.0707  156.4785 C   0  0  0  0  0  0  0  0  0  0  0  0
  150.0698  135.6302  154.9971 C   0  0  1  0  0  0  0  0  0  0  0  0
  151.2637  136.0674  154.3815 O   0  0  0  0  0  0  0  0  0  0  0  0
  149.8511  134.1330  154.8245 C   0  0  0  0  0  0  0  0  0  0  0  0
  150.6261  133.2034  155.5499 C   0  0  0  0  0  0  0  0  0  0  0  0
  150.4106  131.8277  155.3426 C   0  0  0  0  0  0  0  0  0  0  0  0
  149.4243  131.4362  154.4159 C   0  0  0  0  0  0  0  0  0  0  0  0
  148.6759  132.3146  153.7149 N   0  0  0  0  0  0  0  0  0  0  0  0
  148.8898  133.6322  153.9191 C   0  0  0  0  0  0  0  0  0  0  0  0
  151.5806  139.6679  158.4164 C   0  0  0  0  0  0  0  0  0  0  0  0
  152.4489  140.8909  158.7507 C   0  0  0  0  0  0  0  0  0  0  0  0
  150.8592  142.2013  159.3538 H   0  0  0  0  0  0  0  0  0  0  0  0
  151.7950  139.8168  156.2833 H   0  0  0  0  0  0  0  0  0  0  0  0
  151.4690  144.0550  160.7464 H   0  0  0  0  0  0  0  0  0  0  0  0
  153.0621  144.7894  160.6070 H   0  0  0  0  0  0  0  0  0  0  0  0
  152.9257  143.1169  161.0828 H   0  0  0  0  0  0  0  0  0  0  0  0
  153.5966  143.1988  158.7297 H   0  0  0  0  0  0  0  0  0  0  0  0
  151.1559  144.9458  158.1618 H   0  0  0  0  0  0  0  0  0  0  0  0
  152.4340  144.5176  157.0230 H   0  0  0  0  0  0  0  0  0  0  0  0
  152.7908  145.5597  158.3756 H   0  0  0  0  0  0  0  0  0  0  0  0
  150.3984  143.1896  157.1317 H   0  0  0  0  0  0  0  0  0  0  0  0
  151.8133  142.4134  156.4629 H   0  0  0  0  0  0  0  0  0  0  0  0
  149.3104  141.0556  157.5642 H   0  0  0  0  0  0  0  0  0  0  0  0
  149.7613  141.1801  155.8806 H   0  0  0  0  0  0  0  0  0  0  0  0
  151.7361  137.3522  156.8574 H   0  0  0  0  0  0  0  0  0  0  0  0
  150.5669  135.3092  157.1015 H   0  0  0  0  0  0  0  0  0  0  0  0
  149.0731  136.1771  156.8454 H   0  0  0  0  0  0  0  0  0  0  0  0
  149.2532  136.1503  154.4945 H   0  0  0  0  0  0  0  0  0  0  0  0
  151.1586  136.0034  153.4445 H   0  0  0  0  0  0  0  0  0  0  0  0
  151.3813  133.5362  156.2471 H   0  0  0  0  0  0  0  0  0  0  0  0
  150.9891  131.0903  155.8790 H   0  0  0  0  0  0  0  0  0  0  0  0
  149.2331  130.3894  154.2316 H   0  0  0  0  0  0  0  0  0  0  0  0
  148.2800  134.3068  153.3361 H   0  0  0  0  0  0  0  0  0  0  0  0
  150.7875  139.5757  159.1604 H   0  0  0  0  0  0  0  0  0  0  0  0
  152.1845  138.7631  158.4972 H   0  0  0  0  0  0  0  0  0  0  0  0
  153.3197  140.9092  158.0940 H   0  0  0  0  0  0  0  0  0  0  0  0
  152.8278  140.7587  159.7633 H   0  0  0  0  0  0  0  0  0  0  0  0
  1  2  1  0  0  0  0
  1 24  1  0  0  0  0
  1 25  1  0  0  0  0
  1 26  1  0  0  0  0
  2  3  1  0  0  0  0
  2  4  1  0  0  0  0
  2 27  1  0  0  0  0
  3 28  1  0  0  0  0
  3 29  1  0  0  0  0
  3 30  1  0  0  0  0
  4 22  1  0  0  0  0
  4 21  1  0  0  0  0
  4  5  1  0  0  0  0
  5  6  1  0  0  0  0
  5 31  1  0  0  0  0
  5 32  1  0  0  0  0
  6  7  1  0  0  0  0
  6 33  1  0  0  0  0
  6 34  1  0  0  0  0
  7 23  1  0  0  0  0
  7  8  1  0  0  0  0
  7 20  1  0  0  0  0
  8  9  2  0  0  0  0
  8 10  1  0  0  0  0
 10 11  1  0  0  0  0
 10 35  1  0  0  0  0
 11 12  1  0  0  0  0
 11 36  1  0  0  0  0
 11 37  1  0  0  0  0
 12 13  1  0  0  0  0
 12 14  1  0  0  0  0
 12 38  1  0  0  0  0
 13 39  1  0  0  0  0
 14 19  1  0  0  0  0
 14 15  2  0  0  0  0
 15 16  1  0  0  0  0
 15 40  1  0  0  0  0
 16 17  2  0  0  0  0
 16 41  1  0  0  0  0
 17 18  1  0  0  0  0
 17 42  1  0  0  0  0
 18 19  2  0  0  0  0
 19 43  1  0  0  0  0
 20 21  1  0  0  0  0
 20 44  1  0  0  0  0
 20 45  1  0  0  0  0
 21 46  1  0  0  0  0
 21 47  1  0  0  0  0
M  END
> <s_m_source_file>
AV-unprocessed.smi

> <i_m_source_file_index>
2458

> <i_lp_mmshare_version>
43012

> <i_f3d_flags>
0

> <s_epik_input>
W0NIM11bQ0hdKFtDSDNdKVtDQEhdMVtDSDJdW0NIMl1bQ0BASF0oW0NIMl1bQ0gyXTEpQyg9TylbTkhdW0NIMl1bQ0BIXShbT0hdKWMyW2NIXVtjSF1bY0hdbltjSF0y

> <s_epik_cmdline>
J2VwaWtfcHl0aG9uJywgJy1waCcsICc3LjAnLCAnLXRuJywgJzgnLCAnLW1hJywgJzIwMCcsICctbWV0YWxfYmluZGluZycsICctaW1hZScsICc8aW5maWxlLm1hZT4nLCAnLW9tYWUnLCAnPG91dGZpbGUubWFlPic=

> <r_epik_Ionization_Penalty>
0.00169206

> <r_epik_Ionization_Penalty_Charging>
0

> <r_epik_Ionization_Penalty_Neutral>
0.00169206

> <r_epik_State_Penalty>
0.0011427

> <r_epik_Charging_Adjusted_Penalty>
0.0011427

> <i_epik_Tot_Q>
0

> <i_epik_Tot_abs_Q>
0

> <r_epik_Metal_State_Penalty>
-0

> <b_epik_Metal_Only>
0

> <s_lp_Force_Field>
OPLS_2005

> <r_lp_Energy>
14.1606

> <b_lp_Chiralities_Consistent>
1

> <s_lp_Variant>
AV-unprocessed.smi:2458-2

> <Gold.Version>
5.8.1

> <Gold.Id.Protein>
6NUR|6NUR_protein|mol2

> <Gold.PLP.Fitness>
45.0149

> <Gold.PLP.PLP>
-39.3201

> <Gold.PLP.part.hbond>
-2.0000

> <Gold.PLP.part.metal>
0.0000

> <Gold.PLP.part.buried>
-4.8886

> <Gold.PLP.part.nonpolar>
-32.7994

> <Gold.PLP.part.repulsive>
0.1457

> <Gold.PLP.ligand.clash>
0.0000

> <Gold.PLP.ligand.torsion>
1.6738

> <Gold.PLP.Chemscore.Hbond>
2.0000

> <Gold.PLP.Chemscore.CHOScore>
0.9940

> <Gold.PLP.Chemscore.Metal>
0.0000

> <Gold.Chemscore.Hbonds>
donor molecule, donor type, donor heavy atom, donor atom, acceptor molecule, acceptor atom, score
      L1  H    13    39       P1  7949  1.00
      P1  H 10752 10763       L1    13  1.00
      L1  C    19    43       P1  7948  0.99

> <Gold.PLP.Chemscore.Internal.Correction>
0.0605

> <Gold.Rescore>
     Score         DG    S(hbond)    S(metal)    S(lipo)     H(rot)  DE(clash)    DE(int)     intcor
     17.02     -18.51       1.43        0.00     115.50       2.06       0.06       1.43       ----

> <Gold.Chemscore.Fitness>
17.0206

> <Gold.Chemscore.DG>
-18.5135

> <Gold.Chemscore.ZeroCoef>
-5.4800

> <Gold.Chemscore.Hbond>
1.4343

> <Gold.Chemscore.Metal>
0.0000

> <Gold.Chemscore.Lipo>
115.4998

> <Gold.Chemscore.Internal_Hbond>
0.0000

> <Gold.Chemscore.DEClash>
0.0609

> <Gold.Chemscore.DEInternal>
1.4321

> <Gold.Chemscore.Rot>
2.0588

> <Gold.Chemscore.Internal.Correction>
   9.000000E+99

> <Gold.Chemscore.Hbonds>
donor molecule, donor type, donor heavy atom, donor atom, acceptor molecule, acceptor atom, score
      L1  H    13    39       P1  7949  0.34
      P1  H 10752 10763       L1    13  0.39

> <Gold.Chemscore.Hbond.Weighted>
-4.7905

> <Gold.Chemscore.Metal.Weighted>
-0.0000

> <Gold.Chemscore.Lipo.Weighted>
-13.5135

> <Gold.Chemscore.Internal_Hbond.Weighted>
0.0000

> <Gold.Chemscore.DEClash.Weighted>
0.0609

> <Gold.Chemscore.DEInternal.Weighted>
1.4321

> <Gold.Chemscore.Rot.Weighted>
5.2705

> <Gold.Chemscore.Internal.Correction.Weighted>
   9.000000E+99

> <Gold.Protein.RotatedTorsions>
[ 6907 6896 6895 6894 ] final   -0.71 input  -60.11 | X-H torsion
[ 7974 7965 7964 7962 ] final  169.39 input  175.53 | X-H torsion
[ 8008 7997 7996 7995 ] final    4.14 input   59.86 | X-H torsion
[ 10167 10162 10161 10158 ] final  160.92 input  -65.29 | X-H torsion
[ 10718 10713 10712 10709 ] final   81.41 input   66.30 | X-H torsion
[ 10763 10752 10751 10750 ] final   63.13 input  -60.55 | X-H torsion
[ 11005 11000 10999 10996 ] final  -94.43 input  -57.11 | X-H torsion

> <Gold.Protein.ActiveResidues>
 VAL166  LYS551  ARG553  GLY616  TRP617  ASP618  TYR619  PRO620  LYS621  CYS622 
 ASP623  PHE694  ASN695  SER759  ASP760  ASP761  ALA762  ILE779  LEU786  VAL792 
 PHE793  MET794  SER795  GLU796  ALA797  LYS798  CYS799  TRP800  GLU811  SER814 

> <Gold.Protein.RotatedAtoms>
  151.5579  135.1066  159.9965 H   0  0  0  0  0  0  0  0  0  0  0  0  # atno 6907 bound_to 6896
  152.4460  133.7534  159.6717 H   0  0  0  0  0  0  0  0  0  0  0  0  # atno 6908 bound_to 6896
  150.8376  133.7920  159.3097 H   0  0  0  0  0  0  0  0  0  0  0  0  # atno 6909 bound_to 6896
  144.7357  139.9047  143.6411 H   0  0  0  0  0  0  0  0  0  0  0  0  # atno 7974 bound_to 7965
  154.7123  140.2695  155.6618 H   0  0  0  0  0  0  0  0  0  0  0  0  # atno 8008 bound_to 7997
  156.2799  140.2751  156.1693 H   0  0  0  0  0  0  0  0  0  0  0  0  # atno 8009 bound_to 7997
  155.0618  140.0371  157.2569 H   0  0  0  0  0  0  0  0  0  0  0  0  # atno 8010 bound_to 7997
  139.4844  144.4587  151.8734 H   0  0  0  0  0  0  0  0  0  0  0  0  # atno 10167 bound_to 10162
  157.6832  131.0002  150.2222 H   0  0  0  0  0  0  0  0  0  0  0  0  # atno 10718 bound_to 10713
  153.0007  135.5440  154.6303 H   0  0  0  0  0  0  0  0  0  0  0  0  # atno 10763 bound_to 10752
  154.5582  135.2832  155.0946 H   0  0  0  0  0  0  0  0  0  0  0  0  # atno 10764 bound_to 10752
  154.2159  135.6459  153.5182 H   0  0  0  0  0  0  0  0  0  0  0  0  # atno 10765 bound_to 10752
  141.1471  133.7955  157.0296 H   0  0  0  0  0  0  0  0  0  0  0  0  # atno 11005 bound_to 11000
  146.1046  139.4044  143.0326 LP  0  0  0  0  0  0  0  0  0  0  0  0  # atno 17320 bound_to 7965
  145.7530  140.9965  143.1240 LP  0  0  0  0  0  0  0  0  0  0  0  0  # atno 17321 bound_to 7965
  140.4048  144.2447  150.5891 LP  0  0  0  0  0  0  0  0  0  0  0  0  # atno 17342 bound_to 10162
  140.5023  143.2314  151.8660 LP  0  0  0  0  0  0  0  0  0  0  0  0  # atno 17343 bound_to 10162
  156.2871  130.3741  149.7878 LP  0  0  0  0  0  0  0  0  0  0  0  0  # atno 17370 bound_to 10713
  156.5548  130.8358  151.3311 LP  0  0  0  0  0  0  0  0  0  0  0  0  # atno 17371 bound_to 10713
  140.0762  134.9674  157.1550 LP  0  0  0  0  0  0  0  0  0  0  0  0  # atno 17394 bound_to 11000
  140.3640  134.2463  155.7184 LP  0  0  0  0  0  0  0  0  0  0  0  0  # atno 17395 bound_to 11000

$$$$
