AV-unprocessed.smi:2274|AV-procd|sdf|9169|dock6
  -GOLD-   2272012383D 1   1.00000     0.00000
 Structure written by MMmdl.
 47 48  0  0  0  0  0  0  0  0  1 V2000
  153.8138  141.5296  160.6335 C   0  0  0  0  0  0  0  0  0  0  0  0
  153.5895  142.7881  159.7793 C   0  0  0  0  0  0  0  0  0  0  0  0
  152.1961  143.0008  159.4059 N   0  0  0  0  0  0  0  0  0  0  0  0
  151.5738  142.0899  158.6153 N   0  0  0  0  0  0  0  0  0  0  0  0
  150.3587  142.5674  158.4091 C   0  0  0  0  0  0  0  0  0  0  0  0
  149.3871  141.7944  157.5645 C   0  0  0  0  0  0  0  0  0  0  0  0
  150.1841  143.8050  159.0817 C   0  0  0  0  0  0  0  0  0  0  0  0
  149.0026  144.5862  159.0279 N   0  0  0  0  0  0  0  0  0  0  0  0
  147.9368  144.4877  159.8372 C   0  0  0  0  0  0  0  0  0  0  0  0
  147.8170  143.6665  160.7465 O   0  0  0  0  0  0  0  0  0  0  0  0
  146.9990  145.3917  159.5224 N   0  0  0  0  0  0  0  0  0  0  0  0
  145.7264  145.5553  160.2153 C   0  0  0  0  0  0  0  0  0  0  0  0
  144.8576  146.6400  159.5549 C   0  0  0  0  0  0  0  0  0  0  0  0
  145.5757  147.9934  159.4367 C   0  0  1  0  0  0  0  0  0  0  0  0
  145.3234  148.6607  158.0702 C   0  0  0  0  0  0  0  0  0  0  0  0
  145.9827  150.0435  158.0147 C   0  0  0  0  0  0  0  0  0  0  0  0
  145.5265  150.8801  159.2143 C   0  0  0  0  0  0  0  0  0  0  0  0
  145.7631  150.1085  160.5219 C   0  0  0  0  0  0  0  0  0  0  0  0
  145.0953  148.8513  160.4704 O   0  0  0  0  0  0  0  0  0  0  0  0
  151.3864  144.0965  159.6712 C   0  0  0  0  0  0  0  0  0  0  0  0
  151.8716  145.2908  160.4338 C   0  0  0  0  0  0  0  0  0  0  0  0
  154.8573  141.4538  160.9391 H   0  0  0  0  0  0  0  0  0  0  0  0
  153.5687  140.6201  160.0842 H   0  0  0  0  0  0  0  0  0  0  0  0
  153.2043  141.5536  161.5373 H   0  0  0  0  0  0  0  0  0  0  0  0
  153.9405  143.6554  160.3380 H   0  0  0  0  0  0  0  0  0  0  0  0
  154.1834  142.7354  158.8663 H   0  0  0  0  0  0  0  0  0  0  0  0
  148.5474  142.4160  157.2537 H   0  0  0  0  0  0  0  0  0  0  0  0
  148.9842  140.9443  158.1152 H   0  0  0  0  0  0  0  0  0  0  0  0
  149.8648  141.4116  156.6623 H   0  0  0  0  0  0  0  0  0  0  0  0
  148.9209  145.2131  158.2409 H   0  0  0  0  0  0  0  0  0  0  0  0
  147.1824  146.0209  158.7545 H   0  0  0  0  0  0  0  0  0  0  0  0
  145.2093  144.5959  160.1929 H   0  0  0  0  0  0  0  0  0  0  0  0
  145.8996  145.7899  161.2667 H   0  0  0  0  0  0  0  0  0  0  0  0
  144.5661  146.3057  158.5583 H   0  0  0  0  0  0  0  0  0  0  0  0
  143.9318  146.7661  160.1177 H   0  0  0  0  0  0  0  0  0  0  0  0
  146.6480  147.8362  159.5687 H   0  0  0  0  0  0  0  0  0  0  0  0
  145.7075  148.0333  157.2652 H   0  0  0  0  0  0  0  0  0  0  0  0
  144.2504  148.7626  157.9023 H   0  0  0  0  0  0  0  0  0  0  0  0
  147.0680  149.9349  158.0337 H   0  0  0  0  0  0  0  0  0  0  0  0
  145.7335  150.5480  157.0809 H   0  0  0  0  0  0  0  0  0  0  0  0
  146.0561  151.8329  159.2344 H   0  0  0  0  0  0  0  0  0  0  0  0
  144.4655  151.1127  159.1167 H   0  0  0  0  0  0  0  0  0  0  0  0
  146.8293  149.9586  160.6993 H   0  0  0  0  0  0  0  0  0  0  0  0
  145.3775  150.6777  161.3679 H   0  0  0  0  0  0  0  0  0  0  0  0
  151.2904  146.1785  160.1861 H   0  0  0  0  0  0  0  0  0  0  0  0
  152.9113  145.5170  160.1976 H   0  0  0  0  0  0  0  0  0  0  0  0
  151.7939  145.1219  161.5079 H   0  0  0  0  0  0  0  0  0  0  0  0
  1  2  1  0  0  0  0
  1 22  1  0  0  0  0
  1 23  1  0  0  0  0
  1 24  1  0  0  0  0
  2  3  1  0  0  0  0
  2 25  1  0  0  0  0
  2 26  1  0  0  0  0
  3 20  1  0  0  0  0
  3  4  1  0  0  0  0
  4  5  2  0  0  0  0
  5  6  1  0  0  0  0
  5  7  1  0  0  0  0
  6 27  1  0  0  0  0
  6 28  1  0  0  0  0
  6 29  1  0  0  0  0
  7  8  1  0  0  0  0
  7 20  2  0  0  0  0
  8  9  1  0  0  0  0
  8 30  1  0  0  0  0
  9 10  2  0  0  0  0
  9 11  1  0  0  0  0
 11 12  1  0  0  0  0
 11 31  1  0  0  0  0
 12 13  1  0  0  0  0
 12 32  1  0  0  0  0
 12 33  1  0  0  0  0
 13 14  1  0  0  0  0
 13 34  1  0  0  0  0
 13 35  1  0  0  0  0
 14 19  1  0  0  0  0
 14 15  1  0  0  0  0
 14 36  1  0  0  0  0
 15 16  1  0  0  0  0
 15 37  1  0  0  0  0
 15 38  1  0  0  0  0
 16 17  1  0  0  0  0
 16 39  1  0  0  0  0
 16 40  1  0  0  0  0
 17 18  1  0  0  0  0
 17 41  1  0  0  0  0
 17 42  1  0  0  0  0
 18 19  1  0  0  0  0
 18 43  1  0  0  0  0
 18 44  1  0  0  0  0
 20 21  1  0  0  0  0
 21 45  1  0  0  0  0
 21 46  1  0  0  0  0
 21 47  1  0  0  0  0
M  END
> <s_m_source_file>
AV-unprocessed.smi

> <i_m_source_file_index>
2274

> <i_lp_mmshare_version>
43012

> <i_f3d_flags>
0

> <s_epik_input>
W0NIM11bQ0gyXW4xbmMoW0NIM10pYyhjMVtDSDNdKVtOSF1DKD1PKVtOSF1bQ0gyXVtDSDJdW0NAQEhdMltDSDJdW0NIMl1bQ0gyXVtDSDJdTzI=

> <s_epik_cmdline>
J2VwaWtfcHl0aG9uJywgJy1waCcsICc3LjAnLCAnLXRuJywgJzgnLCAnLW1hJywgJzIwMCcsICctbWV0YWxfYmluZGluZycsICctaW1hZScsICc8aW5maWxlLm1hZT4nLCAnLW9tYWUnLCAnPG91dGZpbGUubWFlPic=

> <r_lp_tautomer_probability>
1

> <r_epik_Ionization_Penalty>
0.00368263

> <r_epik_Ionization_Penalty_Charging>
0

> <r_epik_Ionization_Penalty_Neutral>
0.00368263

> <r_epik_State_Penalty>
0.00259417

> <r_epik_Charging_Adjusted_Penalty>
0.00259417

> <i_epik_Tot_Q>
0

> <i_epik_Tot_abs_Q>
0

> <r_epik_Metal_State_Penalty>
-0

> <b_epik_Metal_Only>
0

> <s_lp_Force_Field>
OPLS_2005

> <r_lp_Energy>
13.1283

> <b_lp_Chiralities_Consistent>
1

> <s_lp_Variant>
AV-unprocessed.smi:2274-2

> <Gold.Version>
5.8.1

> <Gold.Id.Protein>
6NUR|6NUR_protein|mol2

> <Gold.PLP.Fitness>
55.6498

> <Gold.PLP.PLP>
-49.2544

> <Gold.PLP.part.hbond>
-3.4613

> <Gold.PLP.part.metal>
0.0000

> <Gold.PLP.part.buried>
-7.6427

> <Gold.PLP.part.nonpolar>
-39.8205

> <Gold.PLP.part.repulsive>
0.4383

> <Gold.PLP.ligand.clash>
0.0000

> <Gold.PLP.ligand.torsion>
1.3578

> <Gold.PLP.Chemscore.Hbond>
2.9200

> <Gold.PLP.Chemscore.CHOScore>
0.0000

> <Gold.PLP.Chemscore.Metal>
0.0000

> <Gold.Chemscore.Hbonds>
donor molecule, donor type, donor heavy atom, donor atom, acceptor molecule, acceptor atom, score
      L1  H     8    30       P1  8029  0.91
      L1  H    11    31       P1  8029  0.78
      P1  H  6933  6944       L1    10  1.00

> <Gold.PLP.Chemscore.Internal.Correction>
0.3511

> <Gold.Rescore>
     Score         DG    S(hbond)    S(metal)    S(lipo)     H(rot)  DE(clash)    DE(int)     intcor
     22.91     -24.34       2.75        0.00     114.50       1.46       0.11       1.32       ----

> <Gold.Chemscore.Fitness>
22.9110

> <Gold.Chemscore.DG>
-24.3381

> <Gold.Chemscore.ZeroCoef>
-5.4800

> <Gold.Chemscore.Hbond>
2.7547

> <Gold.Chemscore.Metal>
0.0000

> <Gold.Chemscore.Lipo>
114.5001

> <Gold.Chemscore.Internal_Hbond>
0.0000

> <Gold.Chemscore.DEClash>
0.1104

> <Gold.Chemscore.DEInternal>
1.3167

> <Gold.Chemscore.Rot>
1.4606

> <Gold.Chemscore.Internal.Correction>
   9.000000E+99

> <Gold.Chemscore.Hbonds>
donor molecule, donor type, donor heavy atom, donor atom, acceptor molecule, acceptor atom, score
      L1  H     8    30       P1  8029  0.71
      L1  H    11    31       P1  8029  0.77
      P1  H  6933  6944       L1    10  0.99

> <Gold.Chemscore.Hbond.Weighted>
-9.2008

> <Gold.Chemscore.Metal.Weighted>
-0.0000

> <Gold.Chemscore.Lipo.Weighted>
-13.3965

> <Gold.Chemscore.Internal_Hbond.Weighted>
0.0000

> <Gold.Chemscore.DEClash.Weighted>
0.1104

> <Gold.Chemscore.DEInternal.Weighted>
1.3167

> <Gold.Chemscore.Rot.Weighted>
3.7393

> <Gold.Chemscore.Internal.Correction.Weighted>
   9.000000E+99

> <Gold.Protein.RotatedTorsions>
[ 6907 6896 6895 6894 ] final  -12.97 input  -60.11 | X-H torsion
[ 7974 7965 7964 7962 ] final  153.23 input  175.53 | X-H torsion
[ 8008 7997 7996 7995 ] final  -76.75 input   59.86 | X-H torsion
[ 10167 10162 10161 10158 ] final -103.60 input  -65.29 | X-H torsion
[ 10718 10713 10712 10709 ] final   18.83 input   66.30 | X-H torsion
[ 10763 10752 10751 10750 ] final   56.26 input  -60.55 | X-H torsion
[ 11005 11000 10999 10996 ] final  -34.95 input  -57.11 | X-H torsion

> <Gold.Protein.ActiveResidues>
 VAL166  LYS551  ARG553  GLY616  TRP617  ASP618  TYR619  PRO620  LYS621  CYS622 
 ASP623  PHE694  ASN695  SER759  ASP760  ASP761  ALA762  ILE779  LEU786  VAL792 
 PHE793  MET794  SER795  GLU796  ALA797  LYS798  CYS799  TRP800  GLU811  SER814 

> <Gold.Protein.RotatedAtoms>
  151.3622  135.0906  159.9437 H   0  0  0  0  0  0  0  0  0  0  0  0  # atno 6907 bound_to 6896
  152.5158  133.9247  159.7562 H   0  0  0  0  0  0  0  0  0  0  0  0  # atno 6908 bound_to 6896
  150.9643  133.6357  159.2778 H   0  0  0  0  0  0  0  0  0  0  0  0  # atno 6909 bound_to 6896
  144.8168  139.6773  143.6118 H   0  0  0  0  0  0  0  0  0  0  0  0  # atno 7974 bound_to 7965
  154.5533  140.0722  156.8703 H   0  0  0  0  0  0  0  0  0  0  0  0  # atno 8008 bound_to 7997
  155.2950  140.3380  155.4232 H   0  0  0  0  0  0  0  0  0  0  0  0  # atno 8009 bound_to 7997
  156.1980  140.1711  156.7943 H   0  0  0  0  0  0  0  0  0  0  0  0  # atno 8010 bound_to 7997
  140.2182  143.3695  152.0992 H   0  0  0  0  0  0  0  0  0  0  0  0  # atno 10167 bound_to 10162
  157.1019  130.6471  149.5874 H   0  0  0  0  0  0  0  0  0  0  0  0  # atno 10718 bound_to 10713
  152.9829  135.5682  154.5201 H   0  0  0  0  0  0  0  0  0  0  0  0  # atno 10763 bound_to 10752
  154.4690  135.2784  155.1659 H   0  0  0  0  0  0  0  0  0  0  0  0  # atno 10764 bound_to 10752
  154.3215  135.6268  153.5563 H   0  0  0  0  0  0  0  0  0  0  0  0  # atno 10765 bound_to 10752
  140.9757  133.7084  156.1599 H   0  0  0  0  0  0  0  0  0  0  0  0  # atno 11005 bound_to 11000
  146.2472  139.6122  142.9452 LP  0  0  0  0  0  0  0  0  0  0  0  0  # atno 17320 bound_to 7965
  145.5196  141.0432  143.2443 LP  0  0  0  0  0  0  0  0  0  0  0  0  # atno 17321 bound_to 7965
  139.5154  144.6962  151.5623 LP  0  0  0  0  0  0  0  0  0  0  0  0  # atno 17342 bound_to 10162
  140.6274  143.9142  150.6576 LP  0  0  0  0  0  0  0  0  0  0  0  0  # atno 17343 bound_to 10162
  155.9871  130.4909  150.7112 LP  0  0  0  0  0  0  0  0  0  0  0  0  # atno 17370 bound_to 10713
  157.4634  131.0885  151.0721 LP  0  0  0  0  0  0  0  0  0  0  0  0  # atno 17371 bound_to 10713
  140.7262  134.4304  157.5570 LP  0  0  0  0  0  0  0  0  0  0  0  0  # atno 17394 bound_to 11000
  139.8930  134.8742  156.2246 LP  0  0  0  0  0  0  0  0  0  0  0  0  # atno 17395 bound_to 11000

$$$$
