AV-unprocessed.smi:1606|AV-procd|sdf|6462|dock1
  -GOLD-   22720 7113D 1   1.00000     0.00000
 Structure written by MMmdl.
 36 37  0  0  0  0  0  0  0  0  2 V2000
  151.5364  140.5893  155.6159 O   0  0  0  0  0  0  0  0  0  0  0  0
  150.5370  141.2876  155.7864 C   0  0  0  0  0  0  0  0  0  0  0  0
  150.5632  142.4578  156.4426 N   0  0  0  0  0  0  0  0  0  0  0  0
  151.7486  143.0622  157.0444 C   0  0  0  0  0  0  0  0  0  0  0  0
  151.4306  144.0912  158.1508 C   0  0  0  0  0  0  0  0  0  0  0  0
  151.9877  143.7257  159.5163 C   0  0  0  0  0  0  0  0  0  0  0  0
  152.8174  142.6002  159.7109 C   0  0  0  0  0  0  0  0  0  0  0  0
  153.2912  142.3095  161.0075 C   0  0  0  0  0  0  0  0  0  0  0  0
  152.9246  143.1478  162.0811 C   0  0  0  0  0  0  0  0  0  0  0  0
  152.0928  144.2581  161.8306 C   0  0  0  0  0  0  0  0  0  0  0  0
  151.6608  144.5037  160.5744 N   0  3  0  0  0  0  0  0  0  0  0  0
  149.1792  140.8519  155.2210 C   0  0  0  0  0  0  0  0  0  0  0  0
  149.2962  139.5465  154.4131 C   0  0  0  0  0  0  0  0  0  0  0  0
  147.9454  139.1854  153.7737 C   0  0  0  0  0  0  0  0  0  0  0  0
  147.4924  140.2587  152.9549 O   0  0  0  0  0  0  0  0  0  0  0  0
  147.2647  141.4591  153.6853 C   0  0  0  0  0  0  0  0  0  0  0  0
  148.5783  141.9450  154.3193 C   0  0  0  0  0  0  0  0  0  0  0  0
  149.6948  142.9643  156.5400 H   0  0  0  0  0  0  0  0  0  0  0  0
  152.3399  142.2510  157.4701 H   0  0  0  0  0  0  0  0  0  0  0  0
  152.3675  143.5183  156.2701 H   0  0  0  0  0  0  0  0  0  0  0  0
  151.8187  145.0682  157.8604 H   0  0  0  0  0  0  0  0  0  0  0  0
  150.3506  144.2168  158.2382 H   0  0  0  0  0  0  0  0  0  0  0  0
  153.0862  141.9653  158.8791 H   0  0  0  0  0  0  0  0  0  0  0  0
  153.9271  141.4529  161.1769 H   0  0  0  0  0  0  0  0  0  0  0  0
  153.2763  142.9416  163.0815 H   0  0  0  0  0  0  0  0  0  0  0  0
  151.7619  144.9516  162.5900 H   0  0  0  0  0  0  0  0  0  0  0  0
  148.4935  140.6784  156.0528 H   0  0  0  0  0  0  0  0  0  0  0  0
  150.0447  139.6503  153.6256 H   0  0  0  0  0  0  0  0  0  0  0  0
  149.6307  138.7309  155.0557 H   0  0  0  0  0  0  0  0  0  0  0  0
  148.0506  138.2930  153.1567 H   0  0  0  0  0  0  0  0  0  0  0  0
  147.2008  138.9577  154.5382 H   0  0  0  0  0  0  0  0  0  0  0  0
  146.8748  142.2163  153.0049 H   0  0  0  0  0  0  0  0  0  0  0  0
  146.5016  141.2943  154.4478 H   0  0  0  0  0  0  0  0  0  0  0  0
  148.3953  142.8531  154.8950 H   0  0  0  0  0  0  0  0  0  0  0  0
  149.2790  142.2130  153.5267 H   0  0  0  0  0  0  0  0  0  0  0  0
  151.0581  145.3117  160.4154 H   0  0  0  0  0  0  0  0  0  0  0  0
  1  2  2  0  0  0  0
  2  3  1  0  0  0  0
  2 12  1  0  0  0  0
  3  4  1  0  0  0  0
  3 18  1  0  0  0  0
  4  5  1  0  0  0  0
  4 19  1  0  0  0  0
  4 20  1  0  0  0  0
  5  6  1  0  0  0  0
  5 21  1  0  0  0  0
  5 22  1  0  0  0  0
  6 11  1  0  0  0  0
  6  7  2  0  0  0  0
  7  8  1  0  0  0  0
  7 23  1  0  0  0  0
  8  9  2  0  0  0  0
  8 24  1  0  0  0  0
  9 10  1  0  0  0  0
  9 25  1  0  0  0  0
 10 11  2  0  0  0  0
 10 26  1  0  0  0  0
 11 36  1  0  0  0  0
 12 17  1  0  0  0  0
 12 13  1  0  0  0  0
 12 27  1  0  0  0  0
 13 14  1  0  0  0  0
 13 28  1  0  0  0  0
 13 29  1  0  0  0  0
 14 15  1  0  0  0  0
 14 30  1  0  0  0  0
 14 31  1  0  0  0  0
 15 16  1  0  0  0  0
 16 17  1  0  0  0  0
 16 32  1  0  0  0  0
 16 33  1  0  0  0  0
 17 34  1  0  0  0  0
 17 35  1  0  0  0  0
M  CHG  1  11   1
M  END
> <s_m_source_file>
AV-unprocessed.smi

> <i_m_source_file_index>
1606

> <i_lp_mmshare_version>
43012

> <i_f3d_flags>
0

> <s_epik_input>
W0NIMl0xW0NIMl1PW0NIMl1bQ0gyXVtDSF0xQyg9TylbTkhdW0NIMl1bQ0gyXWMyW2NIXVtjSF1bY0hdW2NIXW4y

> <s_epik_cmdline>
J2VwaWtfcHl0aG9uJywgJy1waCcsICc3LjAnLCAnLXRuJywgJzgnLCAnLW1hJywgJzIwMCcsICctbWV0YWxfYmluZGluZycsICctaW1hZScsICc8aW5maWxlLm1hZT4nLCAnLW9tYWUnLCAnPG91dGZpbGUubWFlPic=

> <r_epik_Ionization_Penalty>
1.82741

> <r_epik_Ionization_Penalty_Charging>
1.82741

> <r_epik_Ionization_Penalty_Neutral>
1.59153e-08

> <r_epik_State_Penalty>
1.94311

> <r_epik_Charging_Adjusted_Penalty>
3.77052

> <i_epik_Tot_Q>
1

> <i_epik_Tot_abs_Q>
1

> <r_epik_Metal_State_Penalty>
1.96982

> <b_epik_Metal_Only>
0

> <s_lp_Force_Field>
OPLS_2005

> <r_lp_Energy>
14.6238

> <b_lp_Chiralities_Consistent>
1

> <s_lp_Variant>
AV-unprocessed.smi:1606-2

> <Gold.Version>
5.8.1

> <Gold.Id.Protein>
6NUR|6NUR_protein|mol2

> <Gold.PLP.Fitness>
44.1058

> <Gold.PLP.PLP>
-40.5531

> <Gold.PLP.part.hbond>
-2.0000

> <Gold.PLP.part.metal>
0.0000

> <Gold.PLP.part.buried>
-3.9480

> <Gold.PLP.part.nonpolar>
-33.9965

> <Gold.PLP.part.repulsive>
0.4297

> <Gold.PLP.ligand.clash>
0.0000

> <Gold.PLP.ligand.torsion>
0.5938

> <Gold.PLP.Chemscore.Hbond>
1.5680

> <Gold.PLP.Chemscore.CHOScore>
0.0000

> <Gold.PLP.Chemscore.Metal>
0.0000

> <Gold.Chemscore.Hbonds>
donor molecule, donor type, donor heavy atom, donor atom, acceptor molecule, acceptor atom, score
      L1  H     3    18       P1  8028  0.53
      P1  H  7989  7998       L1     1  0.46

> <Gold.PLP.Chemscore.Internal.Correction>
0.0363

> <Gold.Rescore>
     Score         DG    S(hbond)    S(metal)    S(lipo)     H(rot)  DE(clash)    DE(int)     intcor
     17.25     -19.01       1.22        0.00     114.87       1.56       1.12       0.64       ----

> <Gold.Chemscore.Fitness>
17.2531

> <Gold.Chemscore.DG>
-19.0116

> <Gold.Chemscore.ZeroCoef>
-5.4800

> <Gold.Chemscore.Hbond>
1.2208

> <Gold.Chemscore.Metal>
0.0000

> <Gold.Chemscore.Lipo>
114.8699

> <Gold.Chemscore.Internal_Hbond>
0.0000

> <Gold.Chemscore.DEClash>
1.1209

> <Gold.Chemscore.DEInternal>
0.6377

> <Gold.Chemscore.Rot>
1.5569

> <Gold.Chemscore.Internal.Correction>
   9.000000E+99

> <Gold.Chemscore.Hbonds>
donor molecule, donor type, donor heavy atom, donor atom, acceptor molecule, acceptor atom, score
      L1  H     3    18       P1  8028  0.54
      P1  H  7989  7998       L1     1  0.07

> <Gold.Chemscore.Hbond.Weighted>
-4.0776

> <Gold.Chemscore.Metal.Weighted>
-0.0000

> <Gold.Chemscore.Lipo.Weighted>
-13.4398

> <Gold.Chemscore.Internal_Hbond.Weighted>
0.0000

> <Gold.Chemscore.DEClash.Weighted>
1.1209

> <Gold.Chemscore.DEInternal.Weighted>
0.6377

> <Gold.Chemscore.Rot.Weighted>
3.9857

> <Gold.Chemscore.Internal.Correction.Weighted>
   9.000000E+99

> <Gold.Protein.RotatedTorsions>
[ 6907 6896 6895 6894 ] final  -44.89 input  -60.11 | X-H torsion
[ 7974 7965 7964 7962 ] final   14.57 input  175.53 | X-H torsion
[ 8008 7997 7996 7995 ] final  -65.80 input   59.86 | X-H torsion
[ 10167 10162 10161 10158 ] final  108.98 input  -65.29 | X-H torsion
[ 10718 10713 10712 10709 ] final -157.97 input   66.30 | X-H torsion
[ 10763 10752 10751 10750 ] final   60.13 input  -60.55 | X-H torsion
[ 11005 11000 10999 10996 ] final   69.46 input  -57.11 | X-H torsion

> <Gold.Protein.ActiveResidues>
 VAL166  LYS551  ARG553  GLY616  TRP617  ASP618  TYR619  PRO620  LYS621  CYS622 
 ASP623  PHE694  ASN695  SER759  ASP760  ASP761  ALA762  ILE779  LEU786  VAL792 
 PHE793  MET794  SER795  GLU796  ALA797  LYS798  CYS799  TRP800  GLU811  SER814 

> <Gold.Protein.RotatedAtoms>
  150.9279  134.8695  159.7531 H   0  0  0  0  0  0  0  0  0  0  0  0  # atno 6907 bound_to 6896
  152.5024  134.4122  159.9462 H   0  0  0  0  0  0  0  0  0  0  0  0  # atno 6908 bound_to 6896
  151.4151  133.3675  159.2784 H   0  0  0  0  0  0  0  0  0  0  0  0  # atno 6909 bound_to 6896
  146.2301  139.9022  142.8537 H   0  0  0  0  0  0  0  0  0  0  0  0  # atno 7974 bound_to 7965
  154.4694  140.0926  156.7105 H   0  0  0  0  0  0  0  0  0  0  0  0  # atno 8008 bound_to 7997
  155.4766  140.3466  155.4315 H   0  0  0  0  0  0  0  0  0  0  0  0  # atno 8009 bound_to 7997
  156.1013  140.1423  156.9452 H   0  0  0  0  0  0  0  0  0  0  0  0  # atno 8010 bound_to 7997
  139.6803  144.7119  151.1528 H   0  0  0  0  0  0  0  0  0  0  0  0  # atno 10167 bound_to 10162
  156.5477  130.8591  151.2770 H   0  0  0  0  0  0  0  0  0  0  0  0  # atno 10718 bound_to 10713
  152.9913  135.5547  154.5824 H   0  0  0  0  0  0  0  0  0  0  0  0  # atno 10763 bound_to 10752
  154.5203  135.2807  155.1270 H   0  0  0  0  0  0  0  0  0  0  0  0  # atno 10764 bound_to 10752
  154.2627  135.6378  153.5333 H   0  0  0  0  0  0  0  0  0  0  0  0  # atno 10765 bound_to 10752
  139.9652  134.6992  156.0560 H   0  0  0  0  0  0  0  0  0  0  0  0  # atno 11005 bound_to 11000
  145.2312  140.9973  143.3989 LP  0  0  0  0  0  0  0  0  0  0  0  0  # atno 17320 bound_to 7965
  144.9529  139.4063  143.6394 LP  0  0  0  0  0  0  0  0  0  0  0  0  # atno 17321 bound_to 7965
  140.7650  143.5710  150.8996 LP  0  0  0  0  0  0  0  0  0  0  0  0  # atno 17342 bound_to 10162
  139.9381  143.6414  152.3060 LP  0  0  0  0  0  0  0  0  0  0  0  0  # atno 17343 bound_to 10162
  157.7393  130.9830  150.2307 LP  0  0  0  0  0  0  0  0  0  0  0  0  # atno 17370 bound_to 10713
  156.2913  130.3746  149.7839 LP  0  0  0  0  0  0  0  0  0  0  0  0  # atno 17371 bound_to 10713
  141.1332  133.6581  156.3520 LP  0  0  0  0  0  0  0  0  0  0  0  0  # atno 17394 bound_to 11000
  140.5412  134.6119  157.5380 LP  0  0  0  0  0  0  0  0  0  0  0  0  # atno 17395 bound_to 11000

$$$$
