AV-unprocessed.smi:2909|AV-procd|sdf|11174|dock3
  -GOLD-   2272016 63D 1   1.00000     0.00000
 Structure written by MMmdl.
 44 45  0  0  0  0  0  0  0  0  1 V2000
  147.2414  134.2284  162.8627 C   0  0  0  0  0  0  0  0  0  0  0  0
  147.5754  134.9326  161.5808 C   0  0  0  0  0  0  0  0  0  0  0  0
  147.6613  136.3358  161.3435 C   0  0  0  0  0  0  0  0  0  0  0  0
  147.9923  136.4358  160.0209 C   0  0  0  0  0  0  0  0  0  0  0  0
  148.2242  137.6272  159.1442 C   0  0  0  0  0  0  0  0  0  0  0  0
  149.6821  137.7339  158.6856 C   0  0  0  0  0  0  0  0  0  0  0  0
  150.4949  136.8759  159.0285 O   0  0  0  0  0  0  0  0  0  0  0  0
  149.9965  138.7716  157.8932 N   0  0  0  0  0  0  0  0  0  0  0  0
  151.3131  139.0444  157.3215 C   0  0  2  0  0  0  0  0  0  0  0  0
  152.3384  139.2861  158.4407 C   0  0  0  0  0  0  0  0  0  0  0  0
  152.0828  140.6032  159.1946 C   0  0  0  0  0  0  0  0  0  0  0  0
  152.0363  141.8326  158.2532 C   0  0  2  0  0  0  0  0  0  0  0  0
  151.7491  143.1543  159.0250 C   0  0  0  0  0  0  0  0  0  0  0  0
  151.8229  144.4012  158.1226 C   0  0  0  0  0  0  0  0  0  0  0  0
  152.6912  143.3574  160.2277 C   0  0  0  0  0  0  0  0  0  0  0  0
  151.0073  141.5738  157.1245 C   0  0  0  0  0  0  0  0  0  0  0  0
  151.2689  140.2561  156.3739 C   0  0  0  0  0  0  0  0  0  0  0  0
  148.0913  135.1449  159.5528 N   0  0  0  0  0  0  0  0  0  0  0  0
  147.8365  134.2190  160.4954 N   0  0  0  0  0  0  0  0  0  0  0  0
  148.3291  134.8846  158.6059 H   0  0  0  0  0  0  0  0  0  0  0  0
  146.8834  134.9301  163.6160 H   0  0  0  0  0  0  0  0  0  0  0  0
  148.1167  133.7222  163.2700 H   0  0  0  0  0  0  0  0  0  0  0  0
  146.4630  133.4801  162.7109 H   0  0  0  0  0  0  0  0  0  0  0  0
  147.4997  137.1466  162.0386 H   0  0  0  0  0  0  0  0  0  0  0  0
  147.9560  138.5438  159.6707 H   0  0  0  0  0  0  0  0  0  0  0  0
  147.5747  137.5698  158.2699 H   0  0  0  0  0  0  0  0  0  0  0  0
  149.2629  139.4270  157.6652 H   0  0  0  0  0  0  0  0  0  0  0  0
  151.6338  138.1673  156.7562 H   0  0  0  0  0  0  0  0  0  0  0  0
  152.3341  138.4497  159.1408 H   0  0  0  0  0  0  0  0  0  0  0  0
  153.3396  139.3129  158.0088 H   0  0  0  0  0  0  0  0  0  0  0  0
  151.1489  140.5316  159.7535 H   0  0  0  0  0  0  0  0  0  0  0  0
  152.8738  140.7163  159.9345 H   0  0  0  0  0  0  0  0  0  0  0  0
  153.0179  141.9272  157.7861 H   0  0  0  0  0  0  0  0  0  0  0  0
  150.7326  143.1022  159.4179 H   0  0  0  0  0  0  0  0  0  0  0  0
  152.7840  144.4650  157.6116 H   0  0  0  0  0  0  0  0  0  0  0  0
  151.6971  145.3152  158.7037 H   0  0  0  0  0  0  0  0  0  0  0  0
  151.0368  144.4078  157.3683 H   0  0  0  0  0  0  0  0  0  0  0  0
  153.7373  143.3184  159.9228 H   0  0  0  0  0  0  0  0  0  0  0  0
  152.5358  142.6067  161.0016 H   0  0  0  0  0  0  0  0  0  0  0  0
  152.5225  144.3250  160.7011 H   0  0  0  0  0  0  0  0  0  0  0  0
  149.9988  141.5661  157.5398 H   0  0  0  0  0  0  0  0  0  0  0  0
  151.0308  142.3788  156.3913 H   0  0  0  0  0  0  0  0  0  0  0  0
  152.2205  140.3310  155.8462 H   0  0  0  0  0  0  0  0  0  0  0  0
  150.5100  140.1086  155.6045 H   0  0  0  0  0  0  0  0  0  0  0  0
  1 21  1  0  0  0  0
  1 22  1  0  0  0  0
  1 23  1  0  0  0  0
  1  2  1  0  0  0  0
  2 19  2  0  0  0  0
  2  3  1  0  0  0  0
  3  4  2  0  0  0  0
  3 24  1  0  0  0  0
  4 18  1  0  0  0  0
  4  5  1  0  0  0  0
  5  6  1  0  0  0  0
  5 25  1  0  0  0  0
  5 26  1  0  0  0  0
  6  7  2  0  0  0  0
  6  8  1  0  0  0  0
  8  9  1  0  0  0  0
  8 27  1  0  0  0  0
  9 17  1  0  0  0  0
  9 10  1  0  0  0  0
  9 28  1  0  0  0  0
 10 11  1  0  0  0  0
 10 29  1  0  0  0  0
 10 30  1  0  0  0  0
 11 12  1  0  0  0  0
 11 31  1  0  0  0  0
 11 32  1  0  0  0  0
 12 13  1  0  0  0  0
 12 16  1  0  0  0  0
 12 33  1  0  0  0  0
 13 14  1  0  0  0  0
 13 15  1  0  0  0  0
 13 34  1  0  0  0  0
 14 35  1  0  0  0  0
 14 36  1  0  0  0  0
 14 37  1  0  0  0  0
 15 38  1  0  0  0  0
 15 39  1  0  0  0  0
 15 40  1  0  0  0  0
 16 17  1  0  0  0  0
 16 41  1  0  0  0  0
 16 42  1  0  0  0  0
 17 43  1  0  0  0  0
 17 44  1  0  0  0  0
 18 19  1  0  0  0  0
 18 20  1  0  0  0  0
M  END
> <s_m_source_file>
AV-unprocessed.smi

> <i_m_source_file_index>
2909

> <i_lp_mmshare_version>
43012

> <i_f3d_flags>
0

> <s_epik_input>
W0NIM11jMVtjSF1jKG5bbkhdMSlbQ0gyXUMoPU8pW05IXVtDQEBIXTJbQ0gyXVtDSDJdW0NAQEhdKFtDSF0oW0NIM10pW0NIM10pW0NIMl1bQ0gyXTI=

> <s_epik_cmdline>
J2VwaWtfcHl0aG9uJywgJy1waCcsICc3LjAnLCAnLXRuJywgJzgnLCAnLW1hJywgJzIwMCcsICctbWV0YWxfYmluZGluZycsICctaW1hZScsICc8aW5maWxlLm1hZT4nLCAnLW9tYWUnLCAnPG91dGZpbGUubWFlPic=

> <r_lp_tautomer_probability>
0.5

> <r_epik_Ionization_Penalty>
0.00013296

> <r_epik_Ionization_Penalty_Charging>
0

> <r_epik_Ionization_Penalty_Neutral>
0.00013296

> <r_epik_State_Penalty>
0.41068

> <r_epik_Charging_Adjusted_Penalty>
0.41068

> <i_epik_Tot_Q>
0

> <i_epik_Tot_abs_Q>
0

> <r_epik_Metal_State_Penalty>
0.41066

> <b_epik_Metal_Only>
0

> <s_lp_Force_Field>
OPLS_2005

> <r_lp_Energy>
9.99393

> <b_lp_Chiralities_Consistent>
1

> <s_lp_Variant>
AV-unprocessed.smi:2909-4

> <Gold.Version>
5.8.1

> <Gold.Id.Protein>
6NUR|6NUR_protein|mol2

> <Gold.PLP.Fitness>
40.3563

> <Gold.PLP.PLP>
-37.5169

> <Gold.PLP.part.hbond>
-1.0000

> <Gold.PLP.part.metal>
0.0000

> <Gold.PLP.part.buried>
-5.2582

> <Gold.PLP.part.nonpolar>
-31.5301

> <Gold.PLP.part.repulsive>
0.1549

> <Gold.PLP.ligand.clash>
0.0000

> <Gold.PLP.ligand.torsion>
0.0911

> <Gold.PLP.Chemscore.Hbond>
1.0000

> <Gold.PLP.Chemscore.CHOScore>
0.0000

> <Gold.PLP.Chemscore.Metal>
0.0000

> <Gold.Chemscore.Hbonds>
donor molecule, donor type, donor heavy atom, donor atom, acceptor molecule, acceptor atom, score
      P1  H  6896  6907       L1     7  0.91

> <Gold.PLP.Chemscore.Internal.Correction>
0.0216

> <Gold.Rescore>
     Score         DG    S(hbond)    S(metal)    S(lipo)     H(rot)  DE(clash)    DE(int)     intcor
     17.43     -17.85       1.00        0.00     110.05       1.50       0.03       0.39       ----

> <Gold.Chemscore.Fitness>
17.4270

> <Gold.Chemscore.DG>
-17.8488

> <Gold.Chemscore.ZeroCoef>
-5.4800

> <Gold.Chemscore.Hbond>
0.9988

> <Gold.Chemscore.Metal>
0.0000

> <Gold.Chemscore.Lipo>
110.0480

> <Gold.Chemscore.Internal_Hbond>
0.0000

> <Gold.Chemscore.DEClash>
0.0272

> <Gold.Chemscore.DEInternal>
0.3946

> <Gold.Chemscore.Rot>
1.5011

> <Gold.Chemscore.Internal.Correction>
   9.000000E+99

> <Gold.Chemscore.Hbonds>
donor molecule, donor type, donor heavy atom, donor atom, acceptor molecule, acceptor atom, score
      P1  H  6896  6907       L1     7  0.87

> <Gold.Chemscore.Hbond.Weighted>
-3.3360

> <Gold.Chemscore.Metal.Weighted>
-0.0000

> <Gold.Chemscore.Lipo.Weighted>
-12.8756

> <Gold.Chemscore.Internal_Hbond.Weighted>
0.0000

> <Gold.Chemscore.DEClash.Weighted>
0.0272

> <Gold.Chemscore.DEInternal.Weighted>
0.3946

> <Gold.Chemscore.Rot.Weighted>
3.8429

> <Gold.Chemscore.Internal.Correction.Weighted>
   9.000000E+99

> <Gold.Protein.RotatedTorsions>
[ 6907 6896 6895 6894 ] final  -30.99 input  -60.11 | X-H torsion
[ 7974 7965 7964 7962 ] final  109.16 input  175.53 | X-H torsion
[ 8008 7997 7996 7995 ] final  -32.20 input   59.86 | X-H torsion
[ 10167 10162 10161 10158 ] final -146.64 input  -65.29 | X-H torsion
[ 10718 10713 10712 10709 ] final -117.87 input   66.30 | X-H torsion
[ 10763 10752 10751 10750 ] final  171.31 input  -60.55 | X-H torsion
[ 11005 11000 10999 10996 ] final   33.74 input  -57.11 | X-H torsion

> <Gold.Protein.ActiveResidues>
 VAL166  LYS551  ARG553  GLY616  TRP617  ASP618  TYR619  PRO620  LYS621  CYS622 
 ASP623  PHE694  ASN695  SER759  ASP760  ASP761  ALA762  ILE779  LEU786  VAL792 
 PHE793  MET794  SER795  GLU796  ALA797  LYS798  CYS799  TRP800  GLU811  SER814 

> <Gold.Protein.RotatedAtoms>
  151.0981  134.9956  159.8435 H   0  0  0  0  0  0  0  0  0  0  0  0  # atno 6907 bound_to 6896
  152.5435  134.1983  159.8712 H   0  0  0  0  0  0  0  0  0  0  0  0  # atno 6908 bound_to 6896
  151.2024  133.4559  159.2630 H   0  0  0  0  0  0  0  0  0  0  0  0  # atno 6909 bound_to 6896
  145.2714  139.2665  143.3964 H   0  0  0  0  0  0  0  0  0  0  0  0  # atno 7974 bound_to 7965
  154.4188  140.1744  156.1689 H   0  0  0  0  0  0  0  0  0  0  0  0  # atno 8008 bound_to 7997
  155.9776  140.3380  155.6609 H   0  0  0  0  0  0  0  0  0  0  0  0  # atno 8009 bound_to 7997
  155.6542  140.0694  157.2567 H   0  0  0  0  0  0  0  0  0  0  0  0  # atno 8010 bound_to 7997
  139.7695  143.8258  152.2622 H   0  0  0  0  0  0  0  0  0  0  0  0  # atno 10167 bound_to 10162
  156.1065  130.6214  150.9220 H   0  0  0  0  0  0  0  0  0  0  0  0  # atno 10718 bound_to 10713
  154.4101  135.2756  155.2042 H   0  0  0  0  0  0  0  0  0  0  0  0  # atno 10763 bound_to 10752
  154.4031  135.6040  153.5912 H   0  0  0  0  0  0  0  0  0  0  0  0  # atno 10764 bound_to 10752
  152.9831  135.5931  154.4381 H   0  0  0  0  0  0  0  0  0  0  0  0  # atno 10765 bound_to 10752
  140.2600  134.3203  155.7861 H   0  0  0  0  0  0  0  0  0  0  0  0  # atno 11005 bound_to 11000
  146.3245  140.3157  142.8630 LP  0  0  0  0  0  0  0  0  0  0  0  0  # atno 17320 bound_to 7965
  144.9332  140.7998  143.5676 LP  0  0  0  0  0  0  0  0  0  0  0  0  # atno 17321 bound_to 7965
  139.8288  144.7263  150.9476 LP  0  0  0  0  0  0  0  0  0  0  0  0  # atno 17342 bound_to 10162
  140.7813  143.4089  151.1025 LP  0  0  0  0  0  0  0  0  0  0  0  0  # atno 17343 bound_to 10162
  157.6242  131.0927  150.8564 LP  0  0  0  0  0  0  0  0  0  0  0  0  # atno 17370 bound_to 10713
  156.8683  130.5137  149.5298 LP  0  0  0  0  0  0  0  0  0  0  0  0  # atno 17371 bound_to 10713
  141.2191  133.7404  156.9172 LP  0  0  0  0  0  0  0  0  0  0  0  0  # atno 17394 bound_to 11000
  140.1474  134.9253  157.2547 LP  0  0  0  0  0  0  0  0  0  0  0  0  # atno 17395 bound_to 11000

$$$$
