AV-unprocessed.smi:88|AV-procd|sdf|824|dock8
  -GOLD-   2262017233D 1   1.00000     0.00000
 Structure written by MMmdl.
 56 60  0  0  0  0  0  0  0  0  1 V2000
  152.5680  141.2173  158.7731 C   0  0  0  0  0  0  0  0  0  0  0  0
  151.5307  141.5106  157.7815 N   0  0  0  0  0  0  0  0  0  0  0  0
  151.0732  142.7417  157.5011 C   0  0  0  0  0  0  0  0  0  0  0  0
  151.4328  143.7950  158.0242 O   0  0  0  0  0  0  0  0  0  0  0  0
  150.1510  142.6414  156.5454 N   0  0  0  0  0  0  0  0  0  0  0  0
  149.9247  141.2854  156.1026 C   0  0  0  0  0  0  0  0  0  0  0  0
  150.8939  140.4599  156.9762 C   0  0  0  0  0  0  0  0  0  0  0  0
  151.9315  139.6949  156.1166 C   0  0  0  0  0  0  0  0  0  0  0  0
  151.2808  138.5481  155.3224 C   0  0  0  0  0  0  0  0  0  0  0  0
  150.5433  137.6556  156.2122 N   0  0  0  0  0  0  0  0  0  0  0  0
  150.1072  136.5322  155.6054 C   0  0  0  0  0  0  0  0  0  0  0  0
  151.0474  135.6724  155.1437 N   0  0  0  0  0  0  0  0  0  0  0  0
  150.6758  134.5423  154.5344 C   0  0  0  0  0  0  0  0  0  0  0  0
  149.4432  134.0902  154.2906 N   0  0  0  0  0  0  0  0  0  0  0  0
  148.4962  134.9561  154.7546 C   0  0  0  0  0  0  0  0  0  0  0  0
  148.7379  136.1909  155.4193 C   0  0  0  0  0  0  0  0  0  0  0  0
  147.5314  136.7992  155.7447 N   0  0  0  0  0  0  0  0  0  0  0  0
  146.6276  135.9711  155.2964 C   0  0  0  0  0  0  0  0  0  0  0  0
  147.1190  134.8405  154.6835 N   0  0  0  0  0  0  0  0  0  0  0  0
  146.3415  133.7596  154.0971 C   0  0  0  0  0  0  0  0  0  0  0  0
  145.9975  133.9747  152.6027 C   0  0  0  0  0  0  0  0  0  0  0  0
  147.2097  133.9109  151.8706 O   0  0  0  0  0  0  0  0  0  0  0  0
  145.0354  132.8991  152.0518 C   0  0  0  0  0  0  0  0  0  0  0  0
  144.5382  133.2365  150.6348 C   0  0  0  0  0  0  0  0  0  0  0  0
  143.9453  134.5293  150.6164 O   0  0  0  0  0  0  0  0  0  0  0  0
  144.8653  135.5616  150.9496 C   0  0  0  0  0  0  0  0  0  0  0  0
  145.3727  135.3680  152.3895 C   0  0  0  0  0  0  0  0  0  0  0  0
  149.5235  138.3018  157.0333 C   0  0  0  0  0  0  0  0  0  0  0  0
  150.1358  139.4426  157.8659 C   0  0  0  0  0  0  0  0  0  0  0  0
  152.8962  142.1120  159.3034 H   0  0  0  0  0  0  0  0  0  0  0  0
  153.4479  140.7855  158.2976 H   0  0  0  0  0  0  0  0  0  0  0  0
  152.2056  140.5169  159.5243 H   0  0  0  0  0  0  0  0  0  0  0  0
  149.6542  143.4299  156.1569 H   0  0  0  0  0  0  0  0  0  0  0  0
  148.8781  141.0213  156.2568 H   0  0  0  0  0  0  0  0  0  0  0  0
  150.1409  141.2104  155.0364 H   0  0  0  0  0  0  0  0  0  0  0  0
  152.4437  140.3763  155.4362 H   0  0  0  0  0  0  0  0  0  0  0  0
  152.7027  139.2644  156.7557 H   0  0  0  0  0  0  0  0  0  0  0  0
  150.6099  138.9508  154.5634 H   0  0  0  0  0  0  0  0  0  0  0  0
  152.0514  137.9836  154.7954 H   0  0  0  0  0  0  0  0  0  0  0  0
  151.4821  133.9097  154.1933 H   0  0  0  0  0  0  0  0  0  0  0  0
  145.5694  136.1650  155.3964 H   0  0  0  0  0  0  0  0  0  0  0  0
  146.9047  132.8337  154.2208 H   0  0  0  0  0  0  0  0  0  0  0  0
  145.4294  133.6385  154.6834 H   0  0  0  0  0  0  0  0  0  0  0  0
  147.5175  134.7921  151.7220 H   0  0  0  0  0  0  0  0  0  0  0  0
  145.5088  131.9164  152.0481 H   0  0  0  0  0  0  0  0  0  0  0  0
  144.1709  132.8198  152.7121 H   0  0  0  0  0  0  0  0  0  0  0  0
  145.3523  133.1877  149.9099 H   0  0  0  0  0  0  0  0  0  0  0  0
  143.7930  132.5059  150.3198 H   0  0  0  0  0  0  0  0  0  0  0  0
  145.6921  135.5738  150.2378 H   0  0  0  0  0  0  0  0  0  0  0  0
  144.3596  136.5231  150.8600 H   0  0  0  0  0  0  0  0  0  0  0  0
  144.5290  135.4922  153.0695 H   0  0  0  0  0  0  0  0  0  0  0  0
  146.0871  136.1521  152.6440 H   0  0  0  0  0  0  0  0  0  0  0  0
  148.7267  138.6864  156.3963 H   0  0  0  0  0  0  0  0  0  0  0  0
  149.0687  137.5664  157.6983 H   0  0  0  0  0  0  0  0  0  0  0  0
  150.8166  138.9980  158.5918 H   0  0  0  0  0  0  0  0  0  0  0  0
  149.3577  139.9429  158.4437 H   0  0  0  0  0  0  0  0  0  0  0  0
  1  2  1  0  0  0  0
  1 30  1  0  0  0  0
  1 31  1  0  0  0  0
  1 32  1  0  0  0  0
  2  7  1  0  0  0  0
  2  3  1  0  0  0  0
  3  4  2  0  0  0  0
  3  5  1  0  0  0  0
  5  6  1  0  0  0  0
  5 33  1  0  0  0  0
  6  7  1  0  0  0  0
  6 34  1  0  0  0  0
  6 35  1  0  0  0  0
  7 29  1  0  0  0  0
  7  8  1  0  0  0  0
  8  9  1  0  0  0  0
  8 36  1  0  0  0  0
  8 37  1  0  0  0  0
  9 10  1  0  0  0  0
  9 38  1  0  0  0  0
  9 39  1  0  0  0  0
 10 11  1  0  0  0  0
 10 28  1  0  0  0  0
 11 16  1  0  0  0  0
 11 12  2  0  0  0  0
 12 13  1  0  0  0  0
 13 14  2  0  0  0  0
 13 40  1  0  0  0  0
 14 15  1  0  0  0  0
 15 19  1  0  0  0  0
 15 16  2  0  0  0  0
 16 17  1  0  0  0  0
 17 18  2  0  0  0  0
 18 19  1  0  0  0  0
 18 41  1  0  0  0  0
 19 20  1  0  0  0  0
 20 21  1  0  0  0  0
 20 42  1  0  0  0  0
 20 43  1  0  0  0  0
 21 27  1  0  0  0  0
 21 22  1  0  0  0  0
 21 23  1  0  0  0  0
 22 44  1  0  0  0  0
 23 24  1  0  0  0  0
 23 45  1  0  0  0  0
 23 46  1  0  0  0  0
 24 25  1  0  0  0  0
 24 47  1  0  0  0  0
 24 48  1  0  0  0  0
 25 26  1  0  0  0  0
 26 27  1  0  0  0  0
 26 49  1  0  0  0  0
 26 50  1  0  0  0  0
 27 51  1  0  0  0  0
 27 52  1  0  0  0  0
 28 29  1  0  0  0  0
 28 53  1  0  0  0  0
 28 54  1  0  0  0  0
 29 55  1  0  0  0  0
 29 56  1  0  0  0  0
M  END
> <s_m_source_file>
AV-unprocessed.smi

> <i_m_source_file_index>
88

> <i_lp_mmshare_version>
43012

> <i_f3d_flags>
0

> <s_epik_input>
W0NIMl0xW05IXUMoPU8pTihbQ0gzXSlDMTJbQ0gyXVtDSDJdTihbQ0gyXVtDSDJdMiljKG5bY0hdbjMpYyhjMzQpbltjSF1uNFtDSDJdQzUoW09IXSlbQ0gyXVtDSDJdT1tDSDJdW0NIMl01

> <s_epik_cmdline>
J2VwaWtfcHl0aG9uJywgJy1waCcsICc3LjAnLCAnLXRuJywgJzgnLCAnLW1hJywgJzIwMCcsICctbWV0YWxfYmluZGluZycsICctaW1hZScsICc8aW5maWxlLm1hZT4nLCAnLW9tYWUnLCAnPG91dGZpbGUubWFlPic=

> <r_lp_tautomer_probability>
1

> <r_epik_Ionization_Penalty>
0.00363326

> <r_epik_Ionization_Penalty_Charging>
0

> <r_epik_Ionization_Penalty_Neutral>
0.00363326

> <r_epik_State_Penalty>
0.00246926

> <r_epik_Charging_Adjusted_Penalty>
0.00246926

> <i_epik_Tot_Q>
0

> <i_epik_Tot_abs_Q>
0

> <r_epik_Metal_State_Penalty>
-0

> <b_epik_Metal_Only>
0

> <s_lp_Force_Field>
OPLS_2005

> <r_lp_Energy>
63.3868

> <b_lp_Chiralities_Consistent>
1

> <s_lp_Variant>
AV-unprocessed.smi:88-1

> <Gold.Version>
5.8.1

> <Gold.Id.Protein>
6NUR|6NUR_protein|mol2

> <Gold.PLP.Fitness>
41.4850

> <Gold.PLP.PLP>
-33.8509

> <Gold.PLP.part.hbond>
-3.0000

> <Gold.PLP.part.metal>
0.0000

> <Gold.PLP.part.buried>
-7.6912

> <Gold.PLP.part.nonpolar>
-23.0221

> <Gold.PLP.part.repulsive>
0.7194

> <Gold.PLP.ligand.clash>
0.0000

> <Gold.PLP.ligand.torsion>
0.6893

> <Gold.PLP.Chemscore.Hbond>
2.9417

> <Gold.PLP.Chemscore.CHOScore>
0.0000

> <Gold.PLP.Chemscore.Metal>
0.0000

> <Gold.Chemscore.Hbonds>
donor molecule, donor type, donor heavy atom, donor atom, acceptor molecule, acceptor atom, score
      L1  H     5    33       P1  8028  1.00
      L1  H    22    44       P1  7948  1.00
      P1  H 10752 10765       L1    12  0.90

> <Gold.PLP.Chemscore.Internal.Correction>
0.1877

> <Gold.Rescore>
     Score         DG    S(hbond)    S(metal)    S(lipo)     H(rot)  DE(clash)    DE(int)     intcor
     12.47     -14.82       2.20        0.00      64.87       2.18       0.24       2.12       ----

> <Gold.Chemscore.Fitness>
12.4655

> <Gold.Chemscore.DG>
-14.8185

> <Gold.Chemscore.ZeroCoef>
-5.4800

> <Gold.Chemscore.Hbond>
2.1974

> <Gold.Chemscore.Metal>
0.0000

> <Gold.Chemscore.Lipo>
64.8687

> <Gold.Chemscore.Internal_Hbond>
0.0000

> <Gold.Chemscore.DEClash>
0.2367

> <Gold.Chemscore.DEInternal>
2.1163

> <Gold.Chemscore.Rot>
2.1838

> <Gold.Chemscore.Internal.Correction>
   9.000000E+99

> <Gold.Chemscore.Hbonds>
donor molecule, donor type, donor heavy atom, donor atom, acceptor molecule, acceptor atom, score
      L1  H     5    33       P1  8028  0.98
      L1  H    22    44       P1  7948  0.51
      P1  H 10752 10765       L1    12  0.16

> <Gold.Chemscore.Hbond.Weighted>
-7.3394

> <Gold.Chemscore.Metal.Weighted>
-0.0000

> <Gold.Chemscore.Lipo.Weighted>
-7.5896

> <Gold.Chemscore.Internal_Hbond.Weighted>
0.0000

> <Gold.Chemscore.DEClash.Weighted>
0.2367

> <Gold.Chemscore.DEInternal.Weighted>
2.1163

> <Gold.Chemscore.Rot.Weighted>
5.5905

> <Gold.Chemscore.Internal.Correction.Weighted>
   9.000000E+99

> <Gold.Protein.RotatedTorsions>
[ 6907 6896 6895 6894 ] final  -25.01 input  -60.11 | X-H torsion
[ 7974 7965 7964 7962 ] final -148.63 input  175.53 | X-H torsion
[ 8008 7997 7996 7995 ] final  162.87 input   59.86 | X-H torsion
[ 10167 10162 10161 10158 ] final   29.42 input  -65.29 | X-H torsion
[ 10718 10713 10712 10709 ] final -116.33 input   66.30 | X-H torsion
[ 10763 10752 10751 10750 ] final -161.18 input  -60.55 | X-H torsion
[ 11005 11000 10999 10996 ] final   61.37 input  -57.11 | X-H torsion

> <Gold.Protein.ActiveResidues>
 VAL166  LYS551  ARG553  GLY616  TRP617  ASP618  TYR619  PRO620  LYS621  CYS622 
 ASP623  PHE694  ASN695  SER759  ASP760  ASP761  ALA762  ILE779  LEU786  VAL792 
 PHE793  MET794  SER795  GLU796  ALA797  LYS798  CYS799  TRP800  GLU811  SER814 

> <Gold.Protein.RotatedAtoms>
  151.1813  135.0362  159.8793 H   0  0  0  0  0  0  0  0  0  0  0  0  # atno 6907 bound_to 6896
  152.5444  134.1059  159.8348 H   0  0  0  0  0  0  0  0  0  0  0  0  # atno 6908 bound_to 6896
  151.1177  133.5080  159.2635 H   0  0  0  0  0  0  0  0  0  0  0  0  # atno 6909 bound_to 6896
  144.8018  140.5172  143.5702 H   0  0  0  0  0  0  0  0  0  0  0  0  # atno 7974 bound_to 7965
  156.2000  140.1739  156.7920 H   0  0  0  0  0  0  0  0  0  0  0  0  # atno 8008 bound_to 7997
  154.5579  140.0705  156.8803 H   0  0  0  0  0  0  0  0  0  0  0  0  # atno 8009 bound_to 7997
  155.2904  140.3355  155.4255 H   0  0  0  0  0  0  0  0  0  0  0  0  # atno 8010 bound_to 7997
  140.4767  144.0678  150.6253 H   0  0  0  0  0  0  0  0  0  0  0  0  # atno 10167 bound_to 10162
  156.0956  130.6129  150.9021 H   0  0  0  0  0  0  0  0  0  0  0  0  # atno 10718 bound_to 10713
  154.7326  135.3050  154.8865 H   0  0  0  0  0  0  0  0  0  0  0  0  # atno 10763 bound_to 10752
  153.9703  135.6742  153.4751 H   0  0  0  0  0  0  0  0  0  0  0  0  # atno 10764 bound_to 10752
  153.0933  135.4948  154.8652 H   0  0  0  0  0  0  0  0  0  0  0  0  # atno 10765 bound_to 10752
  140.0166  134.6215  155.9701 H   0  0  0  0  0  0  0  0  0  0  0  0  # atno 11005 bound_to 11000
  145.5535  139.1477  143.3381 LP  0  0  0  0  0  0  0  0  0  0  0  0  # atno 17320 bound_to 7965
  146.2300  140.5673  142.8979 LP  0  0  0  0  0  0  0  0  0  0  0  0  # atno 17321 bound_to 7965
  140.3909  143.2753  152.0061 LP  0  0  0  0  0  0  0  0  0  0  0  0  # atno 17342 bound_to 10162
  139.4827  144.6078  151.7489 LP  0  0  0  0  0  0  0  0  0  0  0  0  # atno 17343 bound_to 10162
  157.6116  131.0936  150.8785 LP  0  0  0  0  0  0  0  0  0  0  0  0  # atno 17370 bound_to 10713
  156.8923  130.5217  149.5286 LP  0  0  0  0  0  0  0  0  0  0  0  0  # atno 17371 bound_to 10713
  141.1747  133.6539  156.4782 LP  0  0  0  0  0  0  0  0  0  0  0  0  # atno 17394 bound_to 11000
  140.4460  134.6972  157.5016 LP  0  0  0  0  0  0  0  0  0  0  0  0  # atno 17395 bound_to 11000

$$$$
