AV-unprocessed.smi:623|AV-procd|sdf|3097|dock8
  -GOLD-   22720 0 13D 1   1.00000     0.00000
 Structure written by MMmdl.
 44 46  0  0  0  0  0  0  0  0  2 V2000
  145.1919  136.2732  160.1787 C   0  0  0  0  0  0  0  0  0  0  0  0
  145.8068  135.4589  161.3520 C   0  0  0  0  0  0  0  0  0  0  0  0
  144.6548  135.3029  162.3844 C   0  0  0  0  0  0  0  0  0  0  0  0
  146.4620  134.1296  160.9264 C   0  0  2  0  0  0  0  0  0  0  0  0
  147.0751  133.5927  162.2397 C   0  0  0  0  0  0  0  0  0  0  0  0
  147.5377  134.8844  162.9463 C   0  0  0  0  0  0  0  0  0  0  0  0
  147.1499  135.9887  161.9292 C   0  0  2  0  0  0  0  0  0  0  0  0
  147.1034  137.3917  162.5679 C   0  0  0  0  0  0  0  0  0  0  0  0
  148.1678  135.8288  160.7585 C   0  0  2  0  0  0  0  0  0  0  0  0
  148.2314  137.0081  159.9039 N   0  0  0  0  0  0  0  0  0  0  0  0
  149.1705  137.2881  158.9876 C   0  0  0  0  0  0  0  0  0  0  0  0
  150.1367  136.5566  158.7742 O   0  0  0  0  0  0  0  0  0  0  0  0
  148.9957  138.5767  158.1642 C   0  0  0  0  0  0  0  0  0  0  0  0
  150.1222  138.8716  157.2576 N   0  0  0  0  0  0  0  0  0  0  0  0
  150.1455  138.2075  156.0183 C   0  0  0  0  0  0  0  0  0  0  0  0
  151.1025  138.4455  155.1017 C   0  0  0  0  0  0  0  0  0  0  0  0
  152.1363  139.4217  155.4216 C   0  0  0  0  0  0  0  0  0  0  0  0
  153.0166  139.6546  154.5958 O   0  0  0  0  0  0  0  0  0  0  0  0
  152.0724  140.0381  156.6379 N   0  5  0  0  0  0  0  0  0  0  0  0
  151.0906  139.7891  157.5587 C   0  0  0  0  0  0  0  0  0  0  0  0
  151.0403  140.3718  158.6419 O   0  0  0  0  0  0  0  0  0  0  0  0
  147.6432  134.5691  160.0312 C   0  0  0  0  0  0  0  0  0  0  0  0
  144.2898  135.7875  159.8060 H   0  0  0  0  0  0  0  0  0  0  0  0
  145.8363  136.4021  159.3140 H   0  0  0  0  0  0  0  0  0  0  0  0
  144.9037  137.2725  160.5072 H   0  0  0  0  0  0  0  0  0  0  0  0
  144.9131  134.7563  163.2885 H   0  0  0  0  0  0  0  0  0  0  0  0
  143.8098  134.7765  161.9392 H   0  0  0  0  0  0  0  0  0  0  0  0
  144.2898  136.2787  162.7061 H   0  0  0  0  0  0  0  0  0  0  0  0
  145.7916  133.4209  160.4395 H   0  0  0  0  0  0  0  0  0  0  0  0
  146.3374  133.0569  162.8373 H   0  0  0  0  0  0  0  0  0  0  0  0
  147.9016  132.9043  162.0594 H   0  0  0  0  0  0  0  0  0  0  0  0
  147.0278  135.0129  163.9012 H   0  0  0  0  0  0  0  0  0  0  0  0
  148.6056  134.8709  163.1669 H   0  0  0  0  0  0  0  0  0  0  0  0
  148.0904  137.6903  162.9219 H   0  0  0  0  0  0  0  0  0  0  0  0
  146.4262  137.4164  163.4215 H   0  0  0  0  0  0  0  0  0  0  0  0
  146.7634  138.1499  161.8621 H   0  0  0  0  0  0  0  0  0  0  0  0
  149.1734  135.6556  161.1470 H   0  0  0  0  0  0  0  0  0  0  0  0
  147.4824  137.6773  160.0113 H   0  0  0  0  0  0  0  0  0  0  0  0
  148.0609  138.5080  157.6059 H   0  0  0  0  0  0  0  0  0  0  0  0
  148.8511  139.4072  158.8567 H   0  0  0  0  0  0  0  0  0  0  0  0
  149.3376  137.5087  155.8571 H   0  0  0  0  0  0  0  0  0  0  0  0
  151.1018  137.9318  154.1517 H   0  0  0  0  0  0  0  0  0  0  0  0
  148.4107  133.7985  159.9523 H   0  0  0  0  0  0  0  0  0  0  0  0
  147.3128  134.7845  159.0147 H   0  0  0  0  0  0  0  0  0  0  0  0
  1  2  1  0  0  0  0
  1 23  1  0  0  0  0
  1 24  1  0  0  0  0
  1 25  1  0  0  0  0
  2  7  1  0  0  0  0
  2  3  1  0  0  0  0
  2  4  1  0  0  0  0
  3 26  1  0  0  0  0
  3 27  1  0  0  0  0
  3 28  1  0  0  0  0
  4 22  1  0  0  0  0
  4  5  1  0  0  0  0
  4 29  1  0  0  0  0
  5  6  1  0  0  0  0
  5 30  1  0  0  0  0
  5 31  1  0  0  0  0
  6  7  1  0  0  0  0
  6 32  1  0  0  0  0
  6 33  1  0  0  0  0
  7  8  1  0  0  0  0
  7  9  1  0  0  0  0
  8 34  1  0  0  0  0
  8 35  1  0  0  0  0
  8 36  1  0  0  0  0
  9 10  1  0  0  0  0
  9 22  1  0  0  0  0
  9 37  1  0  0  0  0
 10 11  1  0  0  0  0
 10 38  1  0  0  0  0
 11 12  2  0  0  0  0
 11 13  1  0  0  0  0
 13 14  1  0  0  0  0
 13 39  1  0  0  0  0
 13 40  1  0  0  0  0
 14 20  1  0  0  0  0
 14 15  1  0  0  0  0
 15 16  2  0  0  0  0
 15 41  1  0  0  0  0
 16 17  1  0  0  0  0
 16 42  1  0  0  0  0
 17 18  2  0  0  0  0
 17 19  1  0  0  0  0
 19 20  1  0  0  0  0
 20 21  2  0  0  0  0
 22 43  1  0  0  0  0
 22 44  1  0  0  0  0
M  CHG  1  19  -1
M  END
> <s_m_source_file>
AV-unprocessed.smi

> <i_m_source_file_index>
623

> <i_lp_mmshare_version>
43012

> <i_f3d_flags>
0

> <s_epik_input>
W0NIM11bQ0BdMTJDKFtDSDNdKShbQ0gzXSlbQ0BIXShbQ0gyXVtDSDJdMSlbQ0gyXVtDQEBIXTJbTkhdQyg9TylbQ0gyXW4zW2NIXVtjSF1jKD1PKVtuSF1jMz1P

> <s_epik_cmdline>
J2VwaWtfcHl0aG9uJywgJy1waCcsICc3LjAnLCAnLXRuJywgJzgnLCAnLW1hJywgJzIwMCcsICctbWV0YWxfYmluZGluZycsICctaW1hZScsICc8aW5maWxlLm1hZT4nLCAnLW9tYWUnLCAnPG91dGZpbGUubWFlPic=

> <r_lp_tautomer_probability>
0.999537

> <r_epik_Ionization_Penalty>
3.12624

> <r_epik_Ionization_Penalty_Charging>
3.01273e-08

> <r_epik_Ionization_Penalty_Neutral>
3.12624

> <r_epik_State_Penalty>
3.12534

> <r_epik_Charging_Adjusted_Penalty>
3.12534

> <i_epik_Tot_Q>
-1

> <i_epik_Tot_abs_Q>
1

> <r_epik_Metal_State_Penalty>
0.46406

> <b_epik_Metal_Only>
1

> <s_lp_Force_Field>
OPLS_2005

> <r_lp_Energy>
63.0451

> <b_lp_Chiralities_Consistent>
1

> <s_lp_Variant>
AV-unprocessed.smi:623-7

> <Gold.Version>
5.8.1

> <Gold.Id.Protein>
6NUR|6NUR_protein|mol2

> <Gold.PLP.Fitness>
40.7811

> <Gold.PLP.PLP>
-35.1453

> <Gold.PLP.part.hbond>
-3.1541

> <Gold.PLP.part.metal>
0.0000

> <Gold.PLP.part.buried>
-4.4043

> <Gold.PLP.part.nonpolar>
-27.7869

> <Gold.PLP.part.repulsive>
0.2441

> <Gold.PLP.ligand.clash>
0.0000

> <Gold.PLP.ligand.torsion>
0.5235

> <Gold.PLP.Chemscore.Hbond>
2.2231

> <Gold.PLP.Chemscore.CHOScore>
0.0000

> <Gold.PLP.Chemscore.Metal>
0.0000

> <Gold.Chemscore.Hbonds>
donor molecule, donor type, donor heavy atom, donor atom, acceptor molecule, acceptor atom, score
      P1  H  6896  6907       L1    12  0.96
      P1  H  7989  7998       L1    18  0.16
      P1  H  7997  8009       L1    18  0.90

> <Gold.PLP.Chemscore.Internal.Correction>
0.0135

> <Gold.Rescore>
     Score         DG    S(hbond)    S(metal)    S(lipo)     H(rot)  DE(clash)    DE(int)     intcor
     17.04     -18.04       2.14        0.00      82.01       1.63       0.44       0.56       ----

> <Gold.Chemscore.Fitness>
17.0442

> <Gold.Chemscore.DG>
-18.0385

> <Gold.Chemscore.ZeroCoef>
-5.4800

> <Gold.Chemscore.Hbond>
2.1381

> <Gold.Chemscore.Metal>
0.0000

> <Gold.Chemscore.Lipo>
82.0127

> <Gold.Chemscore.Internal_Hbond>
0.0000

> <Gold.Chemscore.DEClash>
0.4386

> <Gold.Chemscore.DEInternal>
0.5557

> <Gold.Chemscore.Rot>
1.6322

> <Gold.Chemscore.Internal.Correction>
   9.000000E+99

> <Gold.Chemscore.Hbonds>
donor molecule, donor type, donor heavy atom, donor atom, acceptor molecule, acceptor atom, score
      P1  H  6896  6907       L1    12  0.90
      P1  H  7989  7998       L1    18  0.01
      P1  H  7997  8009       L1    18  0.17

> <Gold.Chemscore.Hbond.Weighted>
-7.1413

> <Gold.Chemscore.Metal.Weighted>
-0.0000

> <Gold.Chemscore.Lipo.Weighted>
-9.5955

> <Gold.Chemscore.Internal_Hbond.Weighted>
0.0000

> <Gold.Chemscore.DEClash.Weighted>
0.4386

> <Gold.Chemscore.DEInternal.Weighted>
0.5557

> <Gold.Chemscore.Rot.Weighted>
4.1783

> <Gold.Chemscore.Internal.Correction.Weighted>
   9.000000E+99

> <Gold.Protein.RotatedTorsions>
[ 6907 6896 6895 6894 ] final  -49.22 input  -60.11 | X-H torsion
[ 7974 7965 7964 7962 ] final   39.60 input  175.53 | X-H torsion
[ 8008 7997 7996 7995 ] final -136.04 input   59.86 | X-H torsion
[ 10167 10162 10161 10158 ] final  -17.18 input  -65.29 | X-H torsion
[ 10718 10713 10712 10709 ] final  -75.90 input   66.30 | X-H torsion
[ 10763 10752 10751 10750 ] final   39.14 input  -60.55 | X-H torsion
[ 11005 11000 10999 10996 ] final  -12.15 input  -57.11 | X-H torsion

> <Gold.Protein.ActiveResidues>
 VAL166  LYS551  ARG553  GLY616  TRP617  ASP618  TYR619  PRO620  LYS621  CYS622 
 ASP623  PHE694  ASN695  SER759  ASP760  ASP761  ALA762  ILE779  LEU786  VAL792 
 PHE793  MET794  SER795  GLU796  ALA797  LYS798  CYS799  TRP800  GLU811  SER814 

> <Gold.Protein.RotatedAtoms>
  150.8827  134.8220  159.7236 H   0  0  0  0  0  0  0  0  0  0  0  0  # atno 6907 bound_to 6896
  152.4788  134.4771  159.9663 H   0  0  0  0  0  0  0  0  0  0  0  0  # atno 6908 bound_to 6896
  151.4844  133.3500  159.2878 H   0  0  0  0  0  0  0  0  0  0  0  0  # atno 6909 bound_to 6896
  146.0971  139.5632  142.9438 H   0  0  0  0  0  0  0  0  0  0  0  0  # atno 7974 bound_to 7965
  155.3886  140.0498  157.3041 H   0  0  0  0  0  0  0  0  0  0  0  0  # atno 8008 bound_to 7997
  154.5047  140.2170  155.9236 H   0  0  0  0  0  0  0  0  0  0  0  0  # atno 8009 bound_to 7997
  156.1511  140.3135  155.8655 H   0  0  0  0  0  0  0  0  0  0  0  0  # atno 8010 bound_to 7997
  140.7244  143.5041  150.9832 H   0  0  0  0  0  0  0  0  0  0  0  0  # atno 10167 bound_to 10162
  156.0192  130.4452  150.3112 H   0  0  0  0  0  0  0  0  0  0  0  0  # atno 10718 bound_to 10713
  152.9977  135.6229  154.2417 H   0  0  0  0  0  0  0  0  0  0  0  0  # atno 10763 bound_to 10752
  154.2158  135.2798  155.2944 H   0  0  0  0  0  0  0  0  0  0  0  0  # atno 10764 bound_to 10752
  154.5569  135.5716  153.7031 H   0  0  0  0  0  0  0  0  0  0  0  0  # atno 10765 bound_to 10752
  140.7627  133.8502  155.9138 H   0  0  0  0  0  0  0  0  0  0  0  0  # atno 11005 bound_to 11000
  145.5927  141.0367  143.2061 LP  0  0  0  0  0  0  0  0  0  0  0  0  # atno 17320 bound_to 7965
  144.7404  139.7466  143.7313 LP  0  0  0  0  0  0  0  0  0  0  0  0  # atno 17321 bound_to 7965
  139.8752  143.7142  152.3162 LP  0  0  0  0  0  0  0  0  0  0  0  0  # atno 17342 bound_to 10162
  139.7405  144.7560  151.0660 LP  0  0  0  0  0  0  0  0  0  0  0  0  # atno 17343 bound_to 10162
  157.1214  131.0247  151.3008 LP  0  0  0  0  0  0  0  0  0  0  0  0  # atno 17370 bound_to 10713
  157.4625  130.7661  149.7249 LP  0  0  0  0  0  0  0  0  0  0  0  0  # atno 17371 bound_to 10713
  140.9648  134.1608  157.4625 LP  0  0  0  0  0  0  0  0  0  0  0  0  # atno 17394 bound_to 11000
  139.8768  134.9958  156.5760 LP  0  0  0  0  0  0  0  0  0  0  0  0  # atno 17395 bound_to 11000

$$$$
