AV-unprocessed.smi:1438|AV-procd|sdf|5868|dock7
  -GOLD-   22720 5543D 1   1.00000     0.00000
 Structure written by MMmdl.
 43 44  0  0  0  0  0  0  0  0  1 V2000
  150.3286  133.9210  154.7071 C   0  0  0  0  0  0  0  0  0  0  0  0
  150.5742  134.8877  155.8767 C   0  0  1  0  0  0  0  0  0  0  0  0
  151.0407  136.2648  155.3882 C   0  0  0  0  0  0  0  0  0  0  0  0
  152.1512  136.6952  155.7005 O   0  0  0  0  0  0  0  0  0  0  0  0
  150.1850  136.9415  154.6063 N   0  0  0  0  0  0  0  0  0  0  0  0
  150.4796  138.2096  153.9519 C   0  0  0  0  0  0  0  0  0  0  0  0
  150.2702  139.3879  154.8842 C   0  0  0  0  0  0  0  0  0  0  0  0
  149.3146  140.3788  154.5891 C   0  0  0  0  0  0  0  0  0  0  0  0
  149.1406  141.4309  155.5063 C   0  0  0  0  0  0  0  0  0  0  0  0
  149.8475  141.5388  156.6509 N   0  0  0  0  0  0  0  0  0  0  0  0
  150.7754  140.5932  156.9428 C   0  0  0  0  0  0  0  0  0  0  0  0
  151.5133  140.7252  158.1396 N   0  0  0  0  0  0  0  0  0  0  0  0
  151.2621  141.9473  158.9004 C   0  0  0  0  0  0  0  0  0  0  0  0
  152.3147  142.1171  160.0097 C   0  0  0  0  0  0  0  0  0  0  0  0
  152.3461  140.9529  160.8285 O   0  0  0  0  0  0  0  0  0  0  0  0
  152.7065  139.7935  160.0852 C   0  0  0  0  0  0  0  0  0  0  0  0
  151.6635  139.5406  158.9835 C   0  0  0  0  0  0  0  0  0  0  0  0
  151.0072  139.4935  156.0818 C   0  0  0  0  0  0  0  0  0  0  0  0
  149.0271  135.0690  156.8837 S   0  0  0  0  0  0  0  0  0  0  0  0
  147.8257  133.9789  156.0083 C   0  0  0  0  0  0  0  0  0  0  0  0
  149.2589  134.5074  158.2236 O   0  0  0  0  0  0  0  0  0  0  0  0
  148.5634  136.4592  156.7565 O   0  0  0  0  0  0  0  0  0  0  0  0
  151.2204  133.8117  154.0888 H   0  0  0  0  0  0  0  0  0  0  0  0
  149.5157  134.2643  154.0660 H   0  0  0  0  0  0  0  0  0  0  0  0
  150.0610  132.9298  155.0735 H   0  0  0  0  0  0  0  0  0  0  0  0
  151.3340  134.4584  156.5308 H   0  0  0  0  0  0  0  0  0  0  0  0
  149.2884  136.5235  154.4050 H   0  0  0  0  0  0  0  0  0  0  0  0
  151.5192  138.1951  153.6241 H   0  0  0  0  0  0  0  0  0  0  0  0
  149.8766  138.3305  153.0502 H   0  0  0  0  0  0  0  0  0  0  0  0
  148.7199  140.3298  153.6886 H   0  0  0  0  0  0  0  0  0  0  0  0
  148.4134  142.2065  155.3169 H   0  0  0  0  0  0  0  0  0  0  0  0
  151.2764  142.8302  158.2632 H   0  0  0  0  0  0  0  0  0  0  0  0
  150.2651  141.8893  159.3393 H   0  0  0  0  0  0  0  0  0  0  0  0
  153.3018  142.3027  159.5833 H   0  0  0  0  0  0  0  0  0  0  0  0
  152.0692  142.9795  160.6296 H   0  0  0  0  0  0  0  0  0  0  0  0
  153.7028  139.9169  159.6575 H   0  0  0  0  0  0  0  0  0  0  0  0
  152.7534  138.9392  160.7606 H   0  0  0  0  0  0  0  0  0  0  0  0
  150.7005  139.2924  159.4325 H   0  0  0  0  0  0  0  0  0  0  0  0
  151.9743  138.6852  158.3819 H   0  0  0  0  0  0  0  0  0  0  0  0
  151.7274  138.7291  156.3334 H   0  0  0  0  0  0  0  0  0  0  0  0
  146.8429  134.0879  156.4662 H   0  0  0  0  0  0  0  0  0  0  0  0
  148.1390  132.9383  156.0892 H   0  0  0  0  0  0  0  0  0  0  0  0
  147.7677  134.2639  154.9583 H   0  0  0  0  0  0  0  0  0  0  0  0
  1  2  1  0  0  0  0
  1 23  1  0  0  0  0
  1 24  1  0  0  0  0
  1 25  1  0  0  0  0
  2  3  1  0  0  0  0
  2 19  1  0  0  0  0
  2 26  1  0  0  0  0
  3  4  2  0  0  0  0
  3  5  1  0  0  0  0
  5  6  1  0  0  0  0
  5 27  1  0  0  0  0
  6  7  1  0  0  0  0
  6 28  1  0  0  0  0
  6 29  1  0  0  0  0
  7 18  1  0  0  0  0
  7  8  2  0  0  0  0
  8  9  1  0  0  0  0
  8 30  1  0  0  0  0
  9 10  2  0  0  0  0
  9 31  1  0  0  0  0
 10 11  1  0  0  0  0
 11 12  1  0  0  0  0
 11 18  2  0  0  0  0
 12 17  1  0  0  0  0
 12 13  1  0  0  0  0
 13 14  1  0  0  0  0
 13 32  1  0  0  0  0
 13 33  1  0  0  0  0
 14 15  1  0  0  0  0
 14 34  1  0  0  0  0
 14 35  1  0  0  0  0
 15 16  1  0  0  0  0
 16 17  1  0  0  0  0
 16 36  1  0  0  0  0
 16 37  1  0  0  0  0
 17 38  1  0  0  0  0
 17 39  1  0  0  0  0
 18 40  1  0  0  0  0
 19 20  1  0  0  0  0
 19 21  2  0  0  0  0
 19 22  2  0  0  0  0
 20 41  1  0  0  0  0
 20 42  1  0  0  0  0
 20 43  1  0  0  0  0
M  END
> <s_m_source_file>
AV-unprocessed.smi

> <i_m_source_file_index>
1438

> <i_lp_mmshare_version>
43012

> <i_f3d_flags>
0

> <s_epik_input>
W0NIM11TKD1PKSg9TylbQ0BIXShbQ0gzXSlDKD1PKVtOSF1bQ0gyXWMxW2NIXVtjSF1uYyhbY0hdMSlOMltDSDJdW0NIMl1PW0NIMl1bQ0gyXTI=

> <s_epik_cmdline>
J2VwaWtfcHl0aG9uJywgJy1waCcsICc3LjAnLCAnLXRuJywgJzgnLCAnLW1hJywgJzIwMCcsICctbWV0YWxfYmluZGluZycsICctaW1hZScsICc8aW5maWxlLm1hZT4nLCAnLW9tYWUnLCAnPG91dGZpbGUubWFlPic=

> <r_lp_tautomer_probability>
1

> <r_epik_Ionization_Penalty>
0.00387635

> <r_epik_Ionization_Penalty_Charging>
0

> <r_epik_Ionization_Penalty_Neutral>
0.00387635

> <r_epik_State_Penalty>
0.0027681

> <r_epik_Charging_Adjusted_Penalty>
0.0027681

> <i_epik_Tot_Q>
0

> <i_epik_Tot_abs_Q>
0

> <r_epik_Metal_State_Penalty>
-0

> <b_epik_Metal_Only>
0

> <s_lp_Force_Field>
OPLS_2005

> <r_lp_Energy>
13.2689

> <b_lp_Chiralities_Consistent>
1

> <s_lp_Variant>
AV-unprocessed.smi:1438-2

> <Gold.Version>
5.8.1

> <Gold.Id.Protein>
6NUR|6NUR_protein|mol2

> <Gold.PLP.Fitness>
42.4523

> <Gold.PLP.PLP>
-33.8614

> <Gold.PLP.part.hbond>
-2.4890

> <Gold.PLP.part.metal>
0.0000

> <Gold.PLP.part.buried>
-2.2111

> <Gold.PLP.part.nonpolar>
-29.1846

> <Gold.PLP.part.repulsive>
0.1747

> <Gold.PLP.ligand.clash>
0.0000

> <Gold.PLP.ligand.torsion>
0.4273

> <Gold.PLP.Chemscore.Hbond>
2.0000

> <Gold.PLP.Chemscore.CHOScore>
0.9903

> <Gold.PLP.Chemscore.Metal>
0.0000

> <Gold.Chemscore.Hbonds>
donor molecule, donor type, donor heavy atom, donor atom, acceptor molecule, acceptor atom, score
      P1  H  6896  6909       L1    21  1.00
      P1  H 10752 10763       L1     4  0.90
      L1  C     9    31       P1  8028  0.81

> <Gold.PLP.Chemscore.Internal.Correction>
0.4746

> <Gold.Rescore>
     Score         DG    S(hbond)    S(metal)    S(lipo)     H(rot)  DE(clash)    DE(int)     intcor
     13.47     -15.68       1.97        0.00      76.49       2.08       0.01       2.21       ----

> <Gold.Chemscore.Fitness>
13.4692

> <Gold.Chemscore.DG>
-15.6835

> <Gold.Chemscore.ZeroCoef>
-5.4800

> <Gold.Chemscore.Hbond>
1.9671

> <Gold.Chemscore.Metal>
0.0000

> <Gold.Chemscore.Lipo>
76.4856

> <Gold.Chemscore.Internal_Hbond>
0.0000

> <Gold.Chemscore.DEClash>
0.0078

> <Gold.Chemscore.DEInternal>
2.2065

> <Gold.Chemscore.Rot>
2.0764

> <Gold.Chemscore.Internal.Correction>
   9.000000E+99

> <Gold.Chemscore.Hbonds>
donor molecule, donor type, donor heavy atom, donor atom, acceptor molecule, acceptor atom, score
      P1  H  6896  6909       L1    21  1.00
      P1  H 10752 10763       L1     4  0.17

> <Gold.Chemscore.Hbond.Weighted>
-6.5702

> <Gold.Chemscore.Metal.Weighted>
-0.0000

> <Gold.Chemscore.Lipo.Weighted>
-8.9488

> <Gold.Chemscore.Internal_Hbond.Weighted>
0.0000

> <Gold.Chemscore.DEClash.Weighted>
0.0078

> <Gold.Chemscore.DEInternal.Weighted>
2.2065

> <Gold.Chemscore.Rot.Weighted>
5.3155

> <Gold.Chemscore.Internal.Correction.Weighted>
   9.000000E+99

> <Gold.Protein.RotatedTorsions>
[ 6907 6896 6895 6894 ] final   28.14 input  -60.11 | X-H torsion
[ 7974 7965 7964 7962 ] final   72.23 input  175.53 | X-H torsion
[ 8008 7997 7996 7995 ] final   12.75 input   59.86 | X-H torsion
[ 10167 10162 10161 10158 ] final -137.87 input  -65.29 | X-H torsion
[ 10718 10713 10712 10709 ] final -126.13 input   66.30 | X-H torsion
[ 10763 10752 10751 10750 ] final   83.06 input  -60.55 | X-H torsion
[ 11005 11000 10999 10996 ] final -166.61 input  -57.11 | X-H torsion

> <Gold.Protein.ActiveResidues>
 VAL166  LYS551  ARG553  GLY616  TRP617  ASP618  TYR619  PRO620  LYS621  CYS622 
 ASP623  PHE694  ASN695  SER759  ASP760  ASP761  ALA762  ILE779  LEU786  VAL792 
 PHE793  MET794  SER795  GLU796  ALA797  LYS798  CYS799  TRP800  GLU811  SER814 

> <Gold.Protein.RotatedAtoms>
  152.0126  134.9868  160.0568 H   0  0  0  0  0  0  0  0  0  0  0  0  # atno 6907 bound_to 6896
  152.1414  133.4462  159.4777 H   0  0  0  0  0  0  0  0  0  0  0  0  # atno 6908 bound_to 6896
  150.6865  134.2218  159.4443 H   0  0  0  0  0  0  0  0  0  0  0  0  # atno 6909 bound_to 6896
  145.7560  139.2780  143.1404 H   0  0  0  0  0  0  0  0  0  0  0  0  # atno 7974 bound_to 7965
  154.8250  140.2890  155.5761 H   0  0  0  0  0  0  0  0  0  0  0  0  # atno 8008 bound_to 7997
  156.3001  140.2543  156.3095 H   0  0  0  0  0  0  0  0  0  0  0  0  # atno 8009 bound_to 7997
  154.9296  140.0384  157.2030 H   0  0  0  0  0  0  0  0  0  0  0  0  # atno 8010 bound_to 7997
  139.8534  143.7169  152.2656 H   0  0  0  0  0  0  0  0  0  0  0  0  # atno 10167 bound_to 10162
  156.1737  130.6685  151.0214 H   0  0  0  0  0  0  0  0  0  0  0  0  # atno 10718 bound_to 10713
  153.1258  135.4705  154.9269 H   0  0  0  0  0  0  0  0  0  0  0  0  # atno 10763 bound_to 10752
  154.7618  135.3133  154.8365 H   0  0  0  0  0  0  0  0  0  0  0  0  # atno 10764 bound_to 10752
  153.8919  135.6884  153.4814 H   0  0  0  0  0  0  0  0  0  0  0  0  # atno 10765 bound_to 10752
  140.5625  134.5319  157.5146 H   0  0  0  0  0  0  0  0  0  0  0  0  # atno 11005 bound_to 11000
  146.0310  140.8257  142.9876 LP  0  0  0  0  0  0  0  0  0  0  0  0  # atno 17320 bound_to 7965
  144.6840  140.2769  143.7298 LP  0  0  0  0  0  0  0  0  0  0  0  0  # atno 17321 bound_to 7965
  139.7443  144.7551  151.0604 LP  0  0  0  0  0  0  0  0  0  0  0  0  # atno 17342 bound_to 10162
  140.7784  143.4935  150.9862 LP  0  0  0  0  0  0  0  0  0  0  0  0  # atno 17343 bound_to 10162
  157.6821  131.0835  150.7343 LP  0  0  0  0  0  0  0  0  0  0  0  0  # atno 17370 bound_to 10713
  156.7401  130.4736  149.5479 LP  0  0  0  0  0  0  0  0  0  0  0  0  # atno 17371 bound_to 10713
  139.9401  134.7803  156.0701 LP  0  0  0  0  0  0  0  0  0  0  0  0  # atno 17394 bound_to 11000
  141.1106  133.6645  156.2968 LP  0  0  0  0  0  0  0  0  0  0  0  0  # atno 17395 bound_to 11000

$$$$
