AV-unprocessed.smi:1033|AV-procd|sdf|4493|dock10
  -GOLD-   22720 2483D 1   1.00000     0.00000
 Structure written by MMmdl.
 56 58  0  0  0  0  0  0  0  0  2 V2000
  153.0707  142.5458  161.1139 C   0  0  0  0  0  0  0  0  0  0  0  0
  152.4124  142.3197  159.7642 C   0  0  0  0  0  0  0  0  0  0  0  0
  152.3321  141.0055  159.2504 C   0  0  0  0  0  0  0  0  0  0  0  0
  151.7277  140.7526  157.9996 C   0  0  0  0  0  0  0  0  0  0  0  0
  151.5425  139.5648  157.3131 N   0  0  0  0  0  0  0  0  0  0  0  0
  150.9209  139.9832  156.2144 C   0  0  0  0  0  0  0  0  0  0  0  0
  150.6881  141.3054  156.1045 N   0  0  0  0  0  0  0  0  0  0  0  0
  150.0385  141.9965  155.0056 C   0  0  0  0  0  0  0  0  0  0  0  0
  148.6428  141.4211  154.7003 C   0  0  1  0  0  0  0  0  0  0  0  0
  148.7794  140.2997  153.8482 O   0  0  0  0  0  0  0  0  0  0  0  0
  147.9097  140.9846  155.9838 C   0  0  0  0  0  0  0  0  0  0  0  0
  147.3944  142.1344  156.7704 N   0  3  0  0  0  0  0  0  0  0  0  0
  147.6995  142.0528  158.2242 C   0  0  0  0  0  0  0  0  0  0  0  0
  147.1841  143.3131  158.9477 C   0  0  0  0  0  0  0  0  0  0  0  0
  145.7494  143.5435  158.7617 N   0  0  0  0  0  0  0  0  0  0  0  0
  144.8784  142.5912  159.4610 C   0  0  0  0  0  0  0  0  0  0  0  0
  145.2782  142.2684  160.9148 C   0  0  1  0  0  0  0  0  0  0  0  0
  145.2478  143.4971  161.8352 C   0  0  0  0  0  0  0  0  0  0  0  0
  144.3640  141.3183  161.4192 O   0  0  0  0  0  0  0  0  0  0  0  0
  145.4734  143.6146  157.3268 C   0  0  0  0  0  0  0  0  0  0  0  0
  145.9428  142.3652  156.5527 C   0  0  0  0  0  0  0  0  0  0  0  0
  151.2025  141.8595  157.2711 C   0  0  0  0  0  0  0  0  0  0  0  0
  151.2751  143.1714  157.7715 C   0  0  0  0  0  0  0  0  0  0  0  0
  151.8817  143.4063  159.0232 C   0  0  0  0  0  0  0  0  0  0  0  0
  151.9546  144.8261  159.5566 C   0  0  0  0  0  0  0  0  0  0  0  0
  153.4500  141.6134  161.5331 H   0  0  0  0  0  0  0  0  0  0  0  0
  152.3549  142.9646  161.8216 H   0  0  0  0  0  0  0  0  0  0  0  0
  153.9100  143.2350  161.0202 H   0  0  0  0  0  0  0  0  0  0  0  0
  152.7350  140.1775  159.8150 H   0  0  0  0  0  0  0  0  0  0  0  0
  150.6228  139.2894  155.4417 H   0  0  0  0  0  0  0  0  0  0  0  0
  149.9738  143.0589  155.2460 H   0  0  0  0  0  0  0  0  0  0  0  0
  150.6815  141.9135  154.1285 H   0  0  0  0  0  0  0  0  0  0  0  0
  148.0657  142.1803  154.1738 H   0  0  0  0  0  0  0  0  0  0  0  0
  149.1792  140.5836  153.0394 H   0  0  0  0  0  0  0  0  0  0  0  0
  147.0802  140.3332  155.7033 H   0  0  0  0  0  0  0  0  0  0  0  0
  148.5668  140.3850  156.6154 H   0  0  0  0  0  0  0  0  0  0  0  0
  147.2591  141.1507  158.6507 H   0  0  0  0  0  0  0  0  0  0  0  0
  148.7744  141.9777  158.3816 H   0  0  0  0  0  0  0  0  0  0  0  0
  147.4312  143.2636  160.0072 H   0  0  0  0  0  0  0  0  0  0  0  0
  147.7299  144.1781  158.5681 H   0  0  0  0  0  0  0  0  0  0  0  0
  143.8638  142.9921  159.4759 H   0  0  0  0  0  0  0  0  0  0  0  0
  144.8148  141.6600  158.8985 H   0  0  0  0  0  0  0  0  0  0  0  0
  146.2647  141.8072  160.9503 H   0  0  0  0  0  0  0  0  0  0  0  0
  145.9722  144.2462  161.5145 H   0  0  0  0  0  0  0  0  0  0  0  0
  145.4932  143.2251  162.8623 H   0  0  0  0  0  0  0  0  0  0  0  0
  144.2641  143.9677  161.8400 H   0  0  0  0  0  0  0  0  0  0  0  0
  144.6446  140.4568  161.1504 H   0  0  0  0  0  0  0  0  0  0  0  0
  144.4072  143.7748  157.1615 H   0  0  0  0  0  0  0  0  0  0  0  0
  145.9716  144.4924  156.9128 H   0  0  0  0  0  0  0  0  0  0  0  0
  145.7528  142.5126  155.4890 H   0  0  0  0  0  0  0  0  0  0  0  0
  145.3759  141.4830  156.8532 H   0  0  0  0  0  0  0  0  0  0  0  0
  150.8666  143.9897  157.1973 H   0  0  0  0  0  0  0  0  0  0  0  0
  151.4940  145.5349  158.8676 H   0  0  0  0  0  0  0  0  0  0  0  0
  152.9924  145.1266  159.7013 H   0  0  0  0  0  0  0  0  0  0  0  0
  151.4349  144.9024  160.5120 H   0  0  0  0  0  0  0  0  0  0  0  0
  147.8654  142.9551  156.4163 H   0  0  0  0  0  0  0  0  0  0  0  0
  1  2  1  0  0  0  0
  1 26  1  0  0  0  0
  1 27  1  0  0  0  0
  1 28  1  0  0  0  0
  2 24  1  0  0  0  0
  2  3  2  0  0  0  0
  3  4  1  0  0  0  0
  3 29  1  0  0  0  0
  4 22  2  0  0  0  0
  4  5  1  0  0  0  0
  5  6  2  0  0  0  0
  6  7  1  0  0  0  0
  6 30  1  0  0  0  0
  7  8  1  0  0  0  0
  7 22  1  0  0  0  0
  8  9  1  0  0  0  0
  8 31  1  0  0  0  0
  8 32  1  0  0  0  0
  9 10  1  0  0  0  0
  9 11  1  0  0  0  0
  9 33  1  0  0  0  0
 10 34  1  0  0  0  0
 11 12  1  0  0  0  0
 11 35  1  0  0  0  0
 11 36  1  0  0  0  0
 12 21  1  0  0  0  0
 12 13  1  0  0  0  0
 12 56  1  0  0  0  0
 13 14  1  0  0  0  0
 13 37  1  0  0  0  0
 13 38  1  0  0  0  0
 14 15  1  0  0  0  0
 14 39  1  0  0  0  0
 14 40  1  0  0  0  0
 15 16  1  0  0  0  0
 15 20  1  0  0  0  0
 16 17  1  0  0  0  0
 16 41  1  0  0  0  0
 16 42  1  0  0  0  0
 17 18  1  0  0  0  0
 17 19  1  0  0  0  0
 17 43  1  0  0  0  0
 18 44  1  0  0  0  0
 18 45  1  0  0  0  0
 18 46  1  0  0  0  0
 19 47  1  0  0  0  0
 20 21  1  0  0  0  0
 20 48  1  0  0  0  0
 20 49  1  0  0  0  0
 21 50  1  0  0  0  0
 21 51  1  0  0  0  0
 22 23  1  0  0  0  0
 23 24  2  0  0  0  0
 23 52  1  0  0  0  0
 24 25  1  0  0  0  0
 25 53  1  0  0  0  0
 25 54  1  0  0  0  0
 25 55  1  0  0  0  0
M  CHG  1  12   1
M  END
> <s_m_source_file>
AV-unprocessed.smi

> <i_m_source_file_index>
1033

> <i_lp_mmshare_version>
43012

> <i_f3d_flags>
0

> <s_epik_input>
W0NIM11jKFtjSF0xKWMoW0NIM10pW2NIXWMoYzEyKW4oW2NIXW4yKVtDSDJdW0NASF0oW09IXSlbQ0gyXU4zW0NIMl1bQ0gyXU4oW0NIMl1bQ0gyXTMpW0NIMl1bQ0BIXShbQ0gzXSlbT0hd

> <s_epik_cmdline>
J2VwaWtfcHl0aG9uJywgJy1waCcsICc3LjAnLCAnLXRuJywgJzgnLCAnLW1hJywgJzIwMCcsICctbWV0YWxfYmluZGluZycsICctaW1hZScsICc8aW5maWxlLm1hZT4nLCAnLW9tYWUnLCAnPG91dGZpbGUubWFlPic=

> <r_epik_Ionization_Penalty>
0.131893

> <r_epik_Ionization_Penalty_Charging>
0.00208556

> <r_epik_Ionization_Penalty_Neutral>
0.129808

> <r_epik_State_Penalty>
0.452125

> <r_epik_Charging_Adjusted_Penalty>
0.454211

> <i_epik_Tot_Q>
1

> <i_epik_Tot_abs_Q>
1

> <r_epik_Metal_State_Penalty>
0.376389

> <b_epik_Metal_Only>
0

> <s_lp_Force_Field>
OPLS_2005

> <r_lp_Energy>
31.8043

> <b_lp_Chiralities_Consistent>
1

> <s_lp_Variant>
AV-unprocessed.smi:1033-4

> <Gold.Version>
5.8.1

> <Gold.Id.Protein>
6NUR|6NUR_protein|mol2

> <Gold.PLP.Fitness>
51.2095

> <Gold.PLP.PLP>
-44.3903

> <Gold.PLP.part.hbond>
-3.5461

> <Gold.PLP.part.metal>
0.0000

> <Gold.PLP.part.buried>
-0.6669

> <Gold.PLP.part.nonpolar>
-38.0922

> <Gold.PLP.part.repulsive>
0.1298

> <Gold.PLP.ligand.clash>
0.0000

> <Gold.PLP.ligand.torsion>
1.1021

> <Gold.PLP.Chemscore.Hbond>
2.9745

> <Gold.PLP.Chemscore.CHOScore>
0.0000

> <Gold.PLP.Chemscore.Metal>
0.0000

> <Gold.Chemscore.Hbonds>
donor molecule, donor type, donor heavy atom, donor atom, acceptor molecule, acceptor atom, score
      L1  H    10    34       P1  7957  0.90
      L1  H    12    56       P1  8028  1.40

> <Gold.PLP.Chemscore.Internal.Correction>
0.1000

> <Gold.Rescore>
     Score         DG    S(hbond)    S(metal)    S(lipo)     H(rot)  DE(clash)    DE(int)     intcor
     12.51     -15.97       1.35        0.00     118.24       3.07       2.44       1.03       ----

> <Gold.Chemscore.Fitness>
12.5079

> <Gold.Chemscore.DG>
-15.9714

> <Gold.Chemscore.ZeroCoef>
-5.4800

> <Gold.Chemscore.Hbond>
1.3483

> <Gold.Chemscore.Metal>
0.0000

> <Gold.Chemscore.Lipo>
118.2441

> <Gold.Chemscore.Internal_Hbond>
0.0000

> <Gold.Chemscore.DEClash>
2.4365

> <Gold.Chemscore.DEInternal>
1.0271

> <Gold.Chemscore.Rot>
3.0650

> <Gold.Chemscore.Internal.Correction>
   9.000000E+99

> <Gold.Chemscore.Hbonds>
donor molecule, donor type, donor heavy atom, donor atom, acceptor molecule, acceptor atom, score
      L1  H    10    34       P1  7957  0.85
      L1  H    12    56       P1  8028  0.18

> <Gold.Chemscore.Hbond.Weighted>
-4.5034

> <Gold.Chemscore.Metal.Weighted>
-0.0000

> <Gold.Chemscore.Lipo.Weighted>
-13.8346

> <Gold.Chemscore.Internal_Hbond.Weighted>
0.0000

> <Gold.Chemscore.DEClash.Weighted>
2.4365

> <Gold.Chemscore.DEInternal.Weighted>
1.0271

> <Gold.Chemscore.Rot.Weighted>
7.8465

> <Gold.Chemscore.Internal.Correction.Weighted>
   9.000000E+99

> <Gold.Protein.RotatedTorsions>
[ 6907 6896 6895 6894 ] final  -36.41 input  -60.11 | X-H torsion
[ 7974 7965 7964 7962 ] final    3.82 input  175.53 | X-H torsion
[ 8008 7997 7996 7995 ] final -142.72 input   59.86 | X-H torsion
[ 10167 10162 10161 10158 ] final  -22.12 input  -65.29 | X-H torsion
[ 10718 10713 10712 10709 ] final   34.77 input   66.30 | X-H torsion
[ 10763 10752 10751 10750 ] final  165.24 input  -60.55 | X-H torsion
[ 11005 11000 10999 10996 ] final   45.81 input  -57.11 | X-H torsion

> <Gold.Protein.ActiveResidues>
 VAL166  LYS551  ARG553  GLY616  TRP617  ASP618  TYR619  PRO620  LYS621  CYS622 
 ASP623  PHE694  ASN695  SER759  ASP760  ASP761  ALA762  ILE779  LEU786  VAL792 
 PHE793  MET794  SER795  GLU796  ALA797  LYS798  CYS799  TRP800  GLU811  SER814 

> <Gold.Protein.RotatedAtoms>
  151.0275  134.9515  159.8092 H   0  0  0  0  0  0  0  0  0  0  0  0  # atno 6907 bound_to 6896
  152.5338  134.2823  159.9022 H   0  0  0  0  0  0  0  0  0  0  0  0  # atno 6908 bound_to 6896
  151.2832  133.4158  159.2662 H   0  0  0  0  0  0  0  0  0  0  0  0  # atno 6909 bound_to 6896
  146.2445  140.0627  142.8367 H   0  0  0  0  0  0  0  0  0  0  0  0  # atno 7974 bound_to 7965
  155.4988  140.0574  157.2942 H   0  0  0  0  0  0  0  0  0  0  0  0  # atno 8008 bound_to 7997
  154.4595  140.1989  156.0235 H   0  0  0  0  0  0  0  0  0  0  0  0  # atno 8009 bound_to 7997
  156.0863  140.3240  155.7762 H   0  0  0  0  0  0  0  0  0  0  0  0  # atno 8010 bound_to 7997
  140.7285  143.4564  151.0442 H   0  0  0  0  0  0  0  0  0  0  0  0  # atno 10167 bound_to 10162
  157.3145  130.7416  149.6746 H   0  0  0  0  0  0  0  0  0  0  0  0  # atno 10718 bound_to 10713
  154.3211  135.2756  155.2519 H   0  0  0  0  0  0  0  0  0  0  0  0  # atno 10763 bound_to 10752
  154.4872  135.5843  153.6436 H   0  0  0  0  0  0  0  0  0  0  0  0  # atno 10764 bound_to 10752
  152.9876  135.6126  154.3395 H   0  0  0  0  0  0  0  0  0  0  0  0  # atno 10765 bound_to 10752
  140.1425  134.4564  155.8439 H   0  0  0  0  0  0  0  0  0  0  0  0  # atno 11005 bound_to 11000
  145.0885  140.9269  143.4783 LP  0  0  0  0  0  0  0  0  0  0  0  0  # atno 17320 bound_to 7965
  145.0795  139.2970  143.5791 LP  0  0  0  0  0  0  0  0  0  0  0  0  # atno 17321 bound_to 7965
  139.8245  143.7775  152.3178 LP  0  0  0  0  0  0  0  0  0  0  0  0  # atno 17342 bound_to 10162
  139.7869  144.7424  151.0009 LP  0  0  0  0  0  0  0  0  0  0  0  0  # atno 17343 bound_to 10162
  155.9680  130.4241  150.4595 LP  0  0  0  0  0  0  0  0  0  0  0  0  # atno 17370 bound_to 10713
  157.2599  131.0564  151.2327 LP  0  0  0  0  0  0  0  0  0  0  0  0  # atno 17371 bound_to 10713
  141.2188  133.6839  156.7274 LP  0  0  0  0  0  0  0  0  0  0  0  0  # atno 17394 bound_to 11000
  140.2704  134.8397  157.3842 LP  0  0  0  0  0  0  0  0  0  0  0  0  # atno 17395 bound_to 11000

$$$$
