AV-unprocessed.smi:1434|AV-procd|sdf|5852|dock8
  -GOLD-   22720 5523D 1   1.00000     0.00000
 Structure written by MMmdl.
 45 46  0  0  0  0  0  0  0  0  2 V2000
  146.5205  135.1348  162.5830 C   0  0  0  0  0  0  0  0  0  0  0  0
  147.3785  136.3430  161.4965 S   0  0  0  0  0  0  0  0  0  0  0  0
  146.4221  137.3808  161.0830 O   0  0  0  0  0  0  0  0  0  0  0  0
  148.6501  136.7202  162.1322 O   0  0  0  0  0  0  0  0  0  0  0  0
  147.7466  135.3944  160.1040 N   0  0  0  0  0  0  0  0  0  0  0  0
  148.5573  135.9960  159.0444 C   0  0  1  0  0  0  0  0  0  0  0  0
  148.7548  134.9959  157.8854 C   0  0  0  0  0  0  0  0  0  0  0  0
  149.4333  135.6586  156.6710 C   0  0  0  0  0  0  0  0  0  0  0  0
  148.7235  136.9703  156.2878 C   0  0  0  0  0  0  0  0  0  0  0  0
  148.7017  137.8571  157.4642 N   0  0  0  0  0  0  0  0  0  0  0  0
  149.5119  138.9251  157.6732 C   0  0  0  0  0  0  0  0  0  0  0  0
  149.5216  139.5719  158.7214 O   0  0  0  0  0  0  0  0  0  0  0  0
  150.2787  139.2626  156.6237 N   0  0  0  0  0  0  0  0  0  0  0  0
  151.2083  140.3834  156.6074 C   0  0  0  0  0  0  0  0  0  0  0  0
  150.4616  141.7112  156.7916 C   0  0  0  0  0  0  0  0  0  0  0  0
  151.2093  142.6646  157.7032 C   0  0  0  0  0  0  0  0  0  0  0  0
  152.2841  142.2402  158.5146 C   0  0  0  0  0  0  0  0  0  0  0  0
  152.9442  143.1819  159.3314 C   0  0  0  0  0  0  0  0  0  0  0  0
  152.5169  144.5260  159.3194 C   0  0  0  0  0  0  0  0  0  0  0  0
  151.4392  144.8951  158.4890 C   0  0  0  0  0  0  0  0  0  0  0  0
  150.8326  143.9638  157.7204 N   0  3  0  0  0  0  0  0  0  0  0  0
  147.8836  137.2875  158.5419 C   0  0  0  0  0  0  0  0  0  0  0  0
  146.2476  135.6212  163.5195 H   0  0  0  0  0  0  0  0  0  0  0  0
  147.1850  134.2967  162.7914 H   0  0  0  0  0  0  0  0  0  0  0  0
  145.6205  134.7718  162.0877 H   0  0  0  0  0  0  0  0  0  0  0  0
  146.9042  134.9668  159.7202 H   0  0  0  0  0  0  0  0  0  0  0  0
  149.5318  136.2588  159.4598 H   0  0  0  0  0  0  0  0  0  0  0  0
  149.3390  134.1366  158.2158 H   0  0  0  0  0  0  0  0  0  0  0  0
  147.7839  134.6064  157.5754 H   0  0  0  0  0  0  0  0  0  0  0  0
  150.4782  135.8661  156.9055 H   0  0  0  0  0  0  0  0  0  0  0  0
  149.4365  134.9707  155.8250 H   0  0  0  0  0  0  0  0  0  0  0  0
  149.2039  137.4077  155.4127 H   0  0  0  0  0  0  0  0  0  0  0  0
  147.6985  136.7604  155.9784 H   0  0  0  0  0  0  0  0  0  0  0  0
  150.2118  138.7026  155.7863 H   0  0  0  0  0  0  0  0  0  0  0  0
  151.9453  140.2599  157.4029 H   0  0  0  0  0  0  0  0  0  0  0  0
  151.7506  140.3810  155.6605 H   0  0  0  0  0  0  0  0  0  0  0  0
  150.3072  142.1932  155.8250 H   0  0  0  0  0  0  0  0  0  0  0  0
  149.4693  141.5268  157.2061 H   0  0  0  0  0  0  0  0  0  0  0  0
  152.6025  141.2078  158.5105 H   0  0  0  0  0  0  0  0  0  0  0  0
  153.7693  142.8770  159.9585 H   0  0  0  0  0  0  0  0  0  0  0  0
  153.0100  145.2626  159.9370 H   0  0  0  0  0  0  0  0  0  0  0  0
  151.0474  145.8991  158.4157 H   0  0  0  0  0  0  0  0  0  0  0  0
  146.8844  137.0720  158.1599 H   0  0  0  0  0  0  0  0  0  0  0  0
  147.7383  137.9867  159.3672 H   0  0  0  0  0  0  0  0  0  0  0  0
  150.0562  144.2542  157.1255 H   0  0  0  0  0  0  0  0  0  0  0  0
  1  2  1  0  0  0  0
  1 23  1  0  0  0  0
  1 24  1  0  0  0  0
  1 25  1  0  0  0  0
  2  3  2  0  0  0  0
  2  4  2  0  0  0  0
  2  5  1  0  0  0  0
  5  6  1  0  0  0  0
  5 26  1  0  0  0  0
  6 22  1  0  0  0  0
  6  7  1  0  0  0  0
  6 27  1  0  0  0  0
  7  8  1  0  0  0  0
  7 28  1  0  0  0  0
  7 29  1  0  0  0  0
  8  9  1  0  0  0  0
  8 30  1  0  0  0  0
  8 31  1  0  0  0  0
  9 10  1  0  0  0  0
  9 32  1  0  0  0  0
  9 33  1  0  0  0  0
 10 11  1  0  0  0  0
 10 22  1  0  0  0  0
 11 12  2  0  0  0  0
 11 13  1  0  0  0  0
 13 14  1  0  0  0  0
 13 34  1  0  0  0  0
 14 15  1  0  0  0  0
 14 35  1  0  0  0  0
 14 36  1  0  0  0  0
 15 16  1  0  0  0  0
 15 37  1  0  0  0  0
 15 38  1  0  0  0  0
 16 21  1  0  0  0  0
 16 17  2  0  0  0  0
 17 18  1  0  0  0  0
 17 39  1  0  0  0  0
 18 19  2  0  0  0  0
 18 40  1  0  0  0  0
 19 20  1  0  0  0  0
 19 41  1  0  0  0  0
 20 21  2  0  0  0  0
 20 42  1  0  0  0  0
 21 45  1  0  0  0  0
 22 43  1  0  0  0  0
 22 44  1  0  0  0  0
M  CHG  1  21   1
M  END
> <s_m_source_file>
AV-unprocessed.smi

> <i_m_source_file_index>
1434

> <i_lp_mmshare_version>
43012

> <i_f3d_flags>
0

> <s_epik_input>
W0NIM11TKD1PKSg9TylbTkhdW0NAQEhdMVtDSDJdW0NIMl1bQ0gyXU4oW0NIMl0xKUMoPU8pW05IXVtDSDJdW0NIMl1jMltjSF1bY0hdW2NIXVtjSF1uMg==

> <s_epik_cmdline>
J2VwaWtfcHl0aG9uJywgJy1waCcsICc3LjAnLCAnLXRuJywgJzgnLCAnLW1hJywgJzIwMCcsICctbWV0YWxfYmluZGluZycsICctaW1hZScsICc8aW5maWxlLm1hZT4nLCAnLW9tYWUnLCAnPG91dGZpbGUubWFlPic=

> <r_epik_Ionization_Penalty>
1.55113

> <r_epik_Ionization_Penalty_Charging>
1.55107

> <r_epik_Ionization_Penalty_Neutral>
6.01346e-05

> <r_epik_State_Penalty>
1.64529

> <r_epik_Charging_Adjusted_Penalty>
3.19637

> <i_epik_Tot_Q>
1

> <i_epik_Tot_abs_Q>
1

> <r_epik_Metal_State_Penalty>
1.69621

> <b_epik_Metal_Only>
0

> <s_lp_Force_Field>
OPLS_2005

> <r_lp_Energy>
28.1725

> <b_lp_Chiralities_Consistent>
1

> <s_lp_Variant>
AV-unprocessed.smi:1434-4

> <Gold.Version>
5.8.1

> <Gold.Id.Protein>
6NUR|6NUR_protein|mol2

> <Gold.PLP.Fitness>
46.1906

> <Gold.PLP.PLP>
-35.1615

> <Gold.PLP.part.hbond>
-3.8453

> <Gold.PLP.part.metal>
0.0000

> <Gold.PLP.part.buried>
-4.1228

> <Gold.PLP.part.nonpolar>
-27.8440

> <Gold.PLP.part.repulsive>
0.0280

> <Gold.PLP.ligand.clash>
0.0000

> <Gold.PLP.ligand.torsion>
0.5554

> <Gold.PLP.Chemscore.Hbond>
3.9913

> <Gold.PLP.Chemscore.CHOScore>
0.0000

> <Gold.PLP.Chemscore.Metal>
0.0000

> <Gold.Chemscore.Hbonds>
donor molecule, donor type, donor heavy atom, donor atom, acceptor molecule, acceptor atom, score
      L1  H    21    45       P1  8028  2.00
      P1  H  6931  6943       L1     4  1.00
      P1  H  6934  6947       L1     3  1.00

> <Gold.PLP.Chemscore.Internal.Correction>
0.1661

> <Gold.Rescore>
     Score         DG    S(hbond)    S(metal)    S(lipo)     H(rot)  DE(clash)    DE(int)     intcor
     17.13     -20.01       2.78        0.00      91.39       2.13       0.50       2.38       ----

> <Gold.Chemscore.Fitness>
17.1291

> <Gold.Chemscore.DG>
-20.0054

> <Gold.Chemscore.ZeroCoef>
-5.4800

> <Gold.Chemscore.Hbond>
2.7820

> <Gold.Chemscore.Metal>
0.0000

> <Gold.Chemscore.Lipo>
91.3923

> <Gold.Chemscore.Internal_Hbond>
0.0000

> <Gold.Chemscore.DEClash>
0.4984

> <Gold.Chemscore.DEInternal>
2.3779

> <Gold.Chemscore.Rot>
2.1326

> <Gold.Chemscore.Internal.Correction>
   9.000000E+99

> <Gold.Chemscore.Hbonds>
donor molecule, donor type, donor heavy atom, donor atom, acceptor molecule, acceptor atom, score
      L1  H    21    45       P1  8028  0.74
      P1  H  6931  6943       L1     4  0.88
      P1  H  6934  6947       L1     3  0.88

> <Gold.Chemscore.Hbond.Weighted>
-9.2920

> <Gold.Chemscore.Metal.Weighted>
-0.0000

> <Gold.Chemscore.Lipo.Weighted>
-10.6929

> <Gold.Chemscore.Internal_Hbond.Weighted>
0.0000

> <Gold.Chemscore.DEClash.Weighted>
0.4984

> <Gold.Chemscore.DEInternal.Weighted>
2.3779

> <Gold.Chemscore.Rot.Weighted>
5.4595

> <Gold.Chemscore.Internal.Correction.Weighted>
   9.000000E+99

> <Gold.Protein.RotatedTorsions>
[ 6907 6896 6895 6894 ] final  100.21 input  -60.11 | X-H torsion
[ 7974 7965 7964 7962 ] final -175.84 input  175.53 | X-H torsion
[ 8008 7997 7996 7995 ] final   29.18 input   59.86 | X-H torsion
[ 10167 10162 10161 10158 ] final   61.76 input  -65.29 | X-H torsion
[ 10718 10713 10712 10709 ] final   34.77 input   66.30 | X-H torsion
[ 10763 10752 10751 10750 ] final  -54.87 input  -60.55 | X-H torsion
[ 11005 11000 10999 10996 ] final -117.20 input  -57.11 | X-H torsion

> <Gold.Protein.ActiveResidues>
 VAL166  LYS551  ARG553  GLY616  TRP617  ASP618  TYR619  PRO620  LYS621  CYS622 
 ASP623  PHE694  ASN695  SER759  ASP760  ASP761  ALA762  ILE779  LEU786  VAL792 
 PHE793  MET794  SER795  GLU796  ALA797  LYS798  CYS799  TRP800  GLU811  SER814 

> <Gold.Protein.RotatedAtoms>
  152.5377  134.0311  159.8024 H   0  0  0  0  0  0  0  0  0  0  0  0  # atno 6907 bound_to 6896
  151.0482  133.5639  159.2652 H   0  0  0  0  0  0  0  0  0  0  0  0  # atno 6908 bound_to 6896
  151.2583  135.0653  159.9142 H   0  0  0  0  0  0  0  0  0  0  0  0  # atno 6909 bound_to 6896
  144.7127  140.1261  143.6402 H   0  0  0  0  0  0  0  0  0  0  0  0  # atno 7974 bound_to 7965
  155.0704  140.3199  155.4632 H   0  0  0  0  0  0  0  0  0  0  0  0  # atno 8008 bound_to 7997
  156.2792  140.2113  156.5777 H   0  0  0  0  0  0  0  0  0  0  0  0  # atno 8009 bound_to 7997
  154.7059  140.0502  157.0491 H   0  0  0  0  0  0  0  0  0  0  0  0  # atno 8010 bound_to 7997
  140.1513  144.4460  150.6758 H   0  0  0  0  0  0  0  0  0  0  0  0  # atno 10167 bound_to 10162
  157.3144  130.7416  149.6745 H   0  0  0  0  0  0  0  0  0  0  0  0  # atno 10718 bound_to 10713
  154.1817  135.6442  153.5036 H   0  0  0  0  0  0  0  0  0  0  0  0  # atno 10763 bound_to 10752
  153.0057  135.5407  154.6508 H   0  0  0  0  0  0  0  0  0  0  0  0  # atno 10764 bound_to 10752
  154.5873  135.2931  155.0644 H   0  0  0  0  0  0  0  0  0  0  0  0  # atno 10765 bound_to 10752
  141.0370  133.9894  157.3054 H   0  0  0  0  0  0  0  0  0  0  0  0  # atno 11005 bound_to 11000
  145.9328  139.2617  143.1315 LP  0  0  0  0  0  0  0  0  0  0  0  0  # atno 17320 bound_to 7965
  145.9505  140.8912  143.0262 LP  0  0  0  0  0  0  0  0  0  0  0  0  # atno 17321 bound_to 7965
  140.6701  143.2282  151.5647 LP  0  0  0  0  0  0  0  0  0  0  0  0  # atno 17342 bound_to 10162
  139.5424  144.2610  152.1378 LP  0  0  0  0  0  0  0  0  0  0  0  0  # atno 17343 bound_to 10162
  155.9680  130.4241  150.4595 LP  0  0  0  0  0  0  0  0  0  0  0  0  # atno 17370 bound_to 10713
  157.2600  131.0565  151.2326 LP  0  0  0  0  0  0  0  0  0  0  0  0  # atno 17371 bound_to 10713
  139.9248  135.0201  156.8195 LP  0  0  0  0  0  0  0  0  0  0  0  0  # atno 17394 bound_to 11000
  140.6303  133.9912  155.7659 LP  0  0  0  0  0  0  0  0  0  0  0  0  # atno 17395 bound_to 11000

$$$$
