AV-unprocessed.smi:1122|AV-procd|sdf|4828|dock3
  -GOLD-   22720 3393D 1   1.00000     0.00000
 Structure written by MMmdl.
 38 39  0  0  0  0  0  0  0  0  1 V2000
  151.7479  138.6828  155.8742 C   0  0  0  0  0  0  0  0  0  0  0  0
  151.6236  138.2801  154.4028 C   0  0  0  0  0  0  0  0  0  0  0  0
  150.2421  138.2230  154.0614 O   0  0  0  0  0  0  0  0  0  0  0  0
  149.4925  139.3823  154.1259 C   0  0  0  0  0  0  0  0  0  0  0  0
  150.0641  140.4921  154.6570 N   0  0  0  0  0  0  0  0  0  0  0  0
  149.3357  141.6257  154.7143 C   0  0  0  0  0  0  0  0  0  0  0  0
  148.0128  141.7152  154.2443 C   0  0  0  0  0  0  0  0  0  0  0  0
  147.4172  140.5652  153.6938 C   0  0  0  0  0  0  0  0  0  0  0  0
  148.1642  139.3631  153.6399 C   0  0  0  0  0  0  0  0  0  0  0  0
  147.6718  138.1463  153.0913 N   0  0  0  0  0  0  0  0  0  0  0  0
  146.4132  137.6761  153.0729 C   0  0  0  0  0  0  0  0  0  0  0  0
  145.4323  138.2428  153.5537 O   0  0  0  0  0  0  0  0  0  0  0  0
  146.3560  136.4800  152.4710 N   0  0  0  0  0  0  0  0  0  0  0  0
  145.1482  135.6825  152.2828 C   0  0  0  0  0  0  0  0  0  0  0  0
  145.2605  134.7442  151.0687 C   0  0  1  0  0  0  0  0  0  0  0  0
  146.4150  133.7422  151.1231 C   0  0  0  0  0  0  0  0  0  0  0  0
  145.9080  132.6455  150.2159 C   0  0  0  0  0  0  0  0  0  0  0  0
  144.4241  132.6155  150.5688 C   0  0  0  0  0  0  0  0  0  0  0  0
  144.0854  133.9449  150.9566 O   0  0  0  0  0  0  0  0  0  0  0  0
  152.7938  138.7315  156.1778 H   0  0  0  0  0  0  0  0  0  0  0  0
  151.2454  137.9629  156.5204 H   0  0  0  0  0  0  0  0  0  0  0  0
  151.3021  139.6619  156.0510 H   0  0  0  0  0  0  0  0  0  0  0  0
  152.1410  139.0099  153.7781 H   0  0  0  0  0  0  0  0  0  0  0  0
  152.0944  137.3077  154.2494 H   0  0  0  0  0  0  0  0  0  0  0  0
  149.8241  142.4887  155.1420 H   0  0  0  0  0  0  0  0  0  0  0  0
  147.4682  142.6460  154.3003 H   0  0  0  0  0  0  0  0  0  0  0  0
  146.4100  140.6356  153.3142 H   0  0  0  0  0  0  0  0  0  0  0  0
  148.3789  137.5287  152.7202 H   0  0  0  0  0  0  0  0  0  0  0  0
  147.2149  136.0894  152.1122 H   0  0  0  0  0  0  0  0  0  0  0  0
  144.9054  135.1174  153.1843 H   0  0  0  0  0  0  0  0  0  0  0  0
  144.3209  136.3753  152.1269 H   0  0  0  0  0  0  0  0  0  0  0  0
  145.3396  135.3307  150.1517 H   0  0  0  0  0  0  0  0  0  0  0  0
  147.3646  134.1653  150.7945 H   0  0  0  0  0  0  0  0  0  0  0  0
  146.5433  133.3555  152.1353 H   0  0  0  0  0  0  0  0  0  0  0  0
  146.0422  132.9312  149.1718 H   0  0  0  0  0  0  0  0  0  0  0  0
  146.4053  131.6886  150.3769 H   0  0  0  0  0  0  0  0  0  0  0  0
  143.8066  132.2723  149.7384 H   0  0  0  0  0  0  0  0  0  0  0  0
  144.2480  131.9540  151.4177 H   0  0  0  0  0  0  0  0  0  0  0  0
  1  2  1  0  0  0  0
  1 20  1  0  0  0  0
  1 21  1  0  0  0  0
  1 22  1  0  0  0  0
  2  3  1  0  0  0  0
  2 23  1  0  0  0  0
  2 24  1  0  0  0  0
  3  4  1  0  0  0  0
  4  9  1  0  0  0  0
  4  5  2  0  0  0  0
  5  6  1  0  0  0  0
  6  7  2  0  0  0  0
  6 25  1  0  0  0  0
  7  8  1  0  0  0  0
  7 26  1  0  0  0  0
  8  9  2  0  0  0  0
  8 27  1  0  0  0  0
  9 10  1  0  0  0  0
 10 11  1  0  0  0  0
 10 28  1  0  0  0  0
 11 12  2  0  0  0  0
 11 13  1  0  0  0  0
 13 14  1  0  0  0  0
 13 29  1  0  0  0  0
 14 15  1  0  0  0  0
 14 30  1  0  0  0  0
 14 31  1  0  0  0  0
 15 19  1  0  0  0  0
 15 16  1  0  0  0  0
 15 32  1  0  0  0  0
 16 17  1  0  0  0  0
 16 33  1  0  0  0  0
 16 34  1  0  0  0  0
 17 18  1  0  0  0  0
 17 35  1  0  0  0  0
 17 36  1  0  0  0  0
 18 19  1  0  0  0  0
 18 37  1  0  0  0  0
 18 38  1  0  0  0  0
M  END
> <s_m_source_file>
AV-unprocessed.smi

> <i_m_source_file_index>
1122

> <i_lp_mmshare_version>
43012

> <i_f3d_flags>
0

> <s_epik_input>
W0NIM11bQ0gyXU9jMW5bY0hdW2NIXVtjSF1jMVtOSF1DKD1PKVtOSF1bQ0gyXVtDQEBIXTJbQ0gyXVtDSDJdW0NIMl1PMg==

> <s_epik_cmdline>
J2VwaWtfcHl0aG9uJywgJy1waCcsICc3LjAnLCAnLXRuJywgJzgnLCAnLW1hJywgJzIwMCcsICctbWV0YWxfYmluZGluZycsICctaW1hZScsICc8aW5maWxlLm1hZT4nLCAnLW9tYWUnLCAnPG91dGZpbGUubWFlPic=

> <r_lp_tautomer_probability>
1

> <r_epik_Ionization_Penalty>
0.000110193

> <r_epik_Ionization_Penalty_Charging>
0

> <r_epik_Ionization_Penalty_Neutral>
0.000110193

> <r_epik_State_Penalty>
-0

> <r_epik_Charging_Adjusted_Penalty>
0

> <i_epik_Tot_Q>
0

> <i_epik_Tot_abs_Q>
0

> <r_epik_Metal_State_Penalty>
-0

> <b_epik_Metal_Only>
0

> <s_lp_Force_Field>
OPLS_2005

> <r_lp_Energy>
19.7185

> <b_lp_Chiralities_Consistent>
1

> <s_lp_Variant>
AV-unprocessed.smi:1122-2

> <Gold.Version>
5.8.1

> <Gold.Id.Protein>
6NUR|6NUR_protein|mol2

> <Gold.PLP.Fitness>
44.1969

> <Gold.PLP.PLP>
-33.3161

> <Gold.PLP.part.hbond>
-3.1185

> <Gold.PLP.part.metal>
0.0000

> <Gold.PLP.part.buried>
-2.4524

> <Gold.PLP.part.nonpolar>
-28.8642

> <Gold.PLP.part.repulsive>
1.2333

> <Gold.PLP.ligand.clash>
0.0000

> <Gold.PLP.ligand.torsion>
0.4358

> <Gold.PLP.Chemscore.Hbond>
2.9120

> <Gold.PLP.Chemscore.CHOScore>
0.9897

> <Gold.PLP.Chemscore.Metal>
0.0000

> <Gold.Chemscore.Hbonds>
donor molecule, donor type, donor heavy atom, donor atom, acceptor molecule, acceptor atom, score
      L1  H    10    28       P1  7948  1.00
      L1  H    13    29       P1  7948  1.00
      P1  H  7989  7998       L1     5  0.91
      L1  C     6    25       P1  8028  0.98

> <Gold.PLP.Chemscore.Internal.Correction>
0.0470

> <Gold.Rescore>
     Score         DG    S(hbond)    S(metal)    S(lipo)     H(rot)  DE(clash)    DE(int)     intcor
     15.01     -17.73       2.30        0.00      74.22       1.61       0.30       2.42       ----

> <Gold.Chemscore.Fitness>
15.0102

> <Gold.Chemscore.DG>
-17.7257

> <Gold.Chemscore.ZeroCoef>
-5.4800

> <Gold.Chemscore.Hbond>
2.3029

> <Gold.Chemscore.Metal>
0.0000

> <Gold.Chemscore.Lipo>
74.2190

> <Gold.Chemscore.Internal_Hbond>
0.0000

> <Gold.Chemscore.DEClash>
0.2970

> <Gold.Chemscore.DEInternal>
2.4184

> <Gold.Chemscore.Rot>
1.6131

> <Gold.Chemscore.Internal.Correction>
   9.000000E+99

> <Gold.Chemscore.Hbonds>
donor molecule, donor type, donor heavy atom, donor atom, acceptor molecule, acceptor atom, score
      L1  H    10    28       P1  7948  0.98
      L1  H    13    29       P1  7948  0.94
      P1  H  7989  7998       L1     5  0.24

> <Gold.Chemscore.Hbond.Weighted>
-7.6917

> <Gold.Chemscore.Metal.Weighted>
-0.0000

> <Gold.Chemscore.Lipo.Weighted>
-8.6836

> <Gold.Chemscore.Internal_Hbond.Weighted>
0.0000

> <Gold.Chemscore.DEClash.Weighted>
0.2970

> <Gold.Chemscore.DEInternal.Weighted>
2.4184

> <Gold.Chemscore.Rot.Weighted>
4.1296

> <Gold.Chemscore.Internal.Correction.Weighted>
   9.000000E+99

> <Gold.Protein.RotatedTorsions>
[ 6907 6896 6895 6894 ] final -123.83 input  -60.11 | X-H torsion
[ 7974 7965 7964 7962 ] final -168.96 input  175.53 | X-H torsion
[ 8008 7997 7996 7995 ] final  162.95 input   59.86 | X-H torsion
[ 10167 10162 10161 10158 ] final   96.17 input  -65.29 | X-H torsion
[ 10718 10713 10712 10709 ] final  -19.46 input   66.30 | X-H torsion
[ 10763 10752 10751 10750 ] final -158.99 input  -60.55 | X-H torsion
[ 11005 11000 10999 10996 ] final  150.39 input  -57.11 | X-H torsion

> <Gold.Protein.ActiveResidues>
 VAL166  LYS551  ARG553  GLY616  TRP617  ASP618  TYR619  PRO620  LYS621  CYS622 
 ASP623  PHE694  ASN695  SER759  ASP760  ASP761  ALA762  ILE779  LEU786  VAL792 
 PHE793  MET794  SER795  GLU796  ALA797  LYS798  CYS799  TRP800  GLU811  SER814 

> <Gold.Protein.RotatedAtoms>
  150.8709  133.7507  159.2961 H   0  0  0  0  0  0  0  0  0  0  0  0  # atno 6907 bound_to 6896
  151.5119  135.1063  159.9866 H   0  0  0  0  0  0  0  0  0  0  0  0  # atno 6908 bound_to 6896
  152.4694  133.7951  159.6978 H   0  0  0  0  0  0  0  0  0  0  0  0  # atno 6909 bound_to 6896
  144.7193  140.2292  143.6306 H   0  0  0  0  0  0  0  0  0  0  0  0  # atno 7974 bound_to 7965
  156.1994  140.1737  156.7931 H   0  0  0  0  0  0  0  0  0  0  0  0  # atno 8008 bound_to 7997
  154.5571  140.0706  156.8792 H   0  0  0  0  0  0  0  0  0  0  0  0  # atno 8009 bound_to 7997
  155.2917  140.3356  155.4254 H   0  0  0  0  0  0  0  0  0  0  0  0  # atno 8010 bound_to 7997
  139.7919  144.6849  150.9881 H   0  0  0  0  0  0  0  0  0  0  0  0  # atno 10167 bound_to 10162
  156.5453  130.4688  149.6478 H   0  0  0  0  0  0  0  0  0  0  0  0  # atno 10718 bound_to 10713
  154.7512  135.3093  154.8555 H   0  0  0  0  0  0  0  0  0  0  0  0  # atno 10763 bound_to 10752
  153.9341  135.6782  153.4749 H   0  0  0  0  0  0  0  0  0  0  0  0  # atno 10764 bound_to 10752
  153.1108  135.4867  154.8959 H   0  0  0  0  0  0  0  0  0  0  0  0  # atno 10765 bound_to 10752
  140.1127  134.8914  157.1960 H   0  0  0  0  0  0  0  0  0  0  0  0  # atno 11005 bound_to 11000
  145.8427  139.2137  143.1818 LP  0  0  0  0  0  0  0  0  0  0  0  0  # atno 17320 bound_to 7965
  146.0332  140.8237  142.9865 LP  0  0  0  0  0  0  0  0  0  0  0  0  # atno 17321 bound_to 7965
  140.7820  143.4372  151.0606 LP  0  0  0  0  0  0  0  0  0  0  0  0  # atno 17342 bound_to 10162
  139.8048  143.8033  152.3166 LP  0  0  0  0  0  0  0  0  0  0  0  0  # atno 17343 bound_to 10162
  156.2934  130.7137  151.1991 LP  0  0  0  0  0  0  0  0  0  0  0  0  # atno 17370 bound_to 10713
  157.7398  131.0525  150.5210 LP  0  0  0  0  0  0  0  0  0  0  0  0  # atno 17371 bound_to 10713
  140.3069  134.3068  155.7276 LP  0  0  0  0  0  0  0  0  0  0  0  0  # atno 17394 bound_to 11000
  141.2134  133.7626  156.9721 LP  0  0  0  0  0  0  0  0  0  0  0  0  # atno 17395 bound_to 11000

$$$$
