AV-unprocessed.smi:787|AV-procd|sdf|3729|dock6
  -GOLD-   22720 1163D 1   1.00000     0.00000
 Structure written by MMmdl.
 46 48  0  0  0  0  0  0  0  0  1 V2000
  150.9892  136.8582  154.6913 C   0  0  0  0  0  0  0  0  0  0  0  0
  149.5393  136.8234  154.5841 N   0  0  0  0  0  0  0  0  0  0  0  0
  148.7444  136.7480  155.7365 C   0  0  0  0  0  0  0  0  0  0  0  0
  148.9014  135.7185  156.6010 N   0  0  0  0  0  0  0  0  0  0  0  0
  148.1108  135.6825  157.6817 C   0  0  0  0  0  0  0  0  0  0  0  0
  147.1484  136.5403  158.0551 N   0  0  0  0  0  0  0  0  0  0  0  0
  146.9896  137.5668  157.2085 C   0  0  0  0  0  0  0  0  0  0  0  0
  146.0769  138.5989  157.3437 N   0  0  0  0  0  0  0  0  0  0  0  0
  146.3335  139.3305  156.2621 C   0  0  0  0  0  0  0  0  0  0  0  0
  147.3004  138.8938  155.4313 N   0  0  0  0  0  0  0  0  0  0  0  0
  147.7422  139.5220  154.1991 C   0  0  0  0  0  0  0  0  0  0  0  0
  148.9253  140.4800  154.4301 C   0  0  2  0  0  0  0  0  0  0  0  0
  149.2009  141.1239  153.2031 O   0  0  0  0  0  0  0  0  0  0  0  0
  150.2057  139.7481  154.8902 C   0  0  0  0  0  0  0  0  0  0  0  0
  151.1051  140.5198  155.7569 N   0  0  0  0  0  0  0  0  0  0  0  0
  152.2350  139.6919  156.1610 C   0  0  0  0  0  0  0  0  0  0  0  0
  150.4423  141.0337  156.9616 C   0  0  0  0  0  0  0  0  0  0  0  0
  151.2210  142.0619  157.7614 C   0  0  0  0  0  0  0  0  0  0  0  0
  152.0347  141.6560  158.8407 C   0  0  0  0  0  0  0  0  0  0  0  0
  152.7433  142.6143  159.5914 C   0  0  0  0  0  0  0  0  0  0  0  0
  152.6294  143.9818  159.2751 C   0  0  0  0  0  0  0  0  0  0  0  0
  151.8092  144.3904  158.2060 C   0  0  0  0  0  0  0  0  0  0  0  0
  151.1108  143.4325  157.4464 C   0  0  0  0  0  0  0  0  0  0  0  0
  147.7685  137.7233  156.0231 C   0  0  0  0  0  0  0  0  0  0  0  0
  151.4341  136.9030  153.6973 H   0  0  0  0  0  0  0  0  0  0  0  0
  151.3617  135.9639  155.1916 H   0  0  0  0  0  0  0  0  0  0  0  0
  151.3163  137.7354  155.2507 H   0  0  0  0  0  0  0  0  0  0  0  0
  149.1199  136.6826  153.6760 H   0  0  0  0  0  0  0  0  0  0  0  0
  148.2659  134.8427  158.3424 H   0  0  0  0  0  0  0  0  0  0  0  0
  145.7813  140.2364  156.0579 H   0  0  0  0  0  0  0  0  0  0  0  0
  148.0078  138.7463  153.4793 H   0  0  0  0  0  0  0  0  0  0  0  0
  146.8925  140.0558  153.7720 H   0  0  0  0  0  0  0  0  0  0  0  0
  148.6178  141.2453  155.1381 H   0  0  0  0  0  0  0  0  0  0  0  0
  149.0200  140.5205  152.4988 H   0  0  0  0  0  0  0  0  0  0  0  0
  149.9439  138.8189  155.3964 H   0  0  0  0  0  0  0  0  0  0  0  0
  150.7353  139.4332  153.9894 H   0  0  0  0  0  0  0  0  0  0  0  0
  152.9323  140.2597  156.7779 H   0  0  0  0  0  0  0  0  0  0  0  0
  152.7876  139.3371  155.2903 H   0  0  0  0  0  0  0  0  0  0  0  0
  151.9040  138.8229  156.7317 H   0  0  0  0  0  0  0  0  0  0  0  0
  149.4640  141.4418  156.7025 H   0  0  0  0  0  0  0  0  0  0  0  0
  150.2462  140.2062  157.6447 H   0  0  0  0  0  0  0  0  0  0  0  0
  152.1207  140.6084  159.0899 H   0  0  0  0  0  0  0  0  0  0  0  0
  153.3713  142.3004  160.4122 H   0  0  0  0  0  0  0  0  0  0  0  0
  153.1720  144.7170  159.8509 H   0  0  0  0  0  0  0  0  0  0  0  0
  151.7225  145.4390  157.9627 H   0  0  0  0  0  0  0  0  0  0  0  0
  150.4892  143.7548  156.6239 H   0  0  0  0  0  0  0  0  0  0  0  0
  1  2  1  0  0  0  0
  1 25  1  0  0  0  0
  1 26  1  0  0  0  0
  1 27  1  0  0  0  0
  2  3  1  0  0  0  0
  2 28  1  0  0  0  0
  3 24  1  0  0  0  0
  3  4  2  0  0  0  0
  4  5  1  0  0  0  0
  5  6  2  0  0  0  0
  5 29  1  0  0  0  0
  6  7  1  0  0  0  0
  7 24  2  0  0  0  0
  7  8  1  0  0  0  0
  8  9  2  0  0  0  0
  9 10  1  0  0  0  0
  9 30  1  0  0  0  0
 10 11  1  0  0  0  0
 10 24  1  0  0  0  0
 11 12  1  0  0  0  0
 11 31  1  0  0  0  0
 11 32  1  0  0  0  0
 12 13  1  0  0  0  0
 12 14  1  0  0  0  0
 12 33  1  0  0  0  0
 13 34  1  0  0  0  0
 14 15  1  0  0  0  0
 14 35  1  0  0  0  0
 14 36  1  0  0  0  0
 15 16  1  0  0  0  0
 15 17  1  0  0  0  0
 16 37  1  0  0  0  0
 16 38  1  0  0  0  0
 16 39  1  0  0  0  0
 17 18  1  0  0  0  0
 17 40  1  0  0  0  0
 17 41  1  0  0  0  0
 18 23  1  0  0  0  0
 18 19  2  0  0  0  0
 19 20  1  0  0  0  0
 19 42  1  0  0  0  0
 20 21  2  0  0  0  0
 20 43  1  0  0  0  0
 21 22  1  0  0  0  0
 21 44  1  0  0  0  0
 22 23  2  0  0  0  0
 22 45  1  0  0  0  0
 23 46  1  0  0  0  0
M  END
> <s_m_source_file>
AV-unprocessed.smi

> <i_m_source_file_index>
787

> <i_lp_mmshare_version>
43012

> <i_f3d_flags>
0

> <s_epik_input>
bjFbY0hdbmMoW05IXVtDSDNdKWMoYzEyKW4oW2NIXW4yKVtDSDJdW0NASF0oW09IXSlbQ0gyXU4oW0NIM10pW0NIMl1jM1tjSF1bY0hdW2NIXVtjSF1bY0hdMw==

> <s_epik_cmdline>
J2VwaWtfcHl0aG9uJywgJy1waCcsICc3LjAnLCAnLXRuJywgJzgnLCAnLW1hJywgJzIwMCcsICctbWV0YWxfYmluZGluZycsICctaW1hZScsICc8aW5maWxlLm1hZT4nLCAnLW9tYWUnLCAnPG91dGZpbGUubWFlPic=

> <r_lp_tautomer_probability>
0.999987

> <r_epik_Ionization_Penalty>
1.52367

> <r_epik_Ionization_Penalty_Charging>
0

> <r_epik_Ionization_Penalty_Neutral>
1.52367

> <r_epik_State_Penalty>
1.60995

> <r_epik_Charging_Adjusted_Penalty>
1.60995

> <i_epik_Tot_Q>
0

> <i_epik_Tot_abs_Q>
0

> <r_epik_Metal_State_Penalty>
1.60969

> <b_epik_Metal_Only>
0

> <s_lp_Force_Field>
OPLS_2005

> <r_lp_Energy>
20.724

> <b_lp_Chiralities_Consistent>
1

> <s_lp_Variant>
AV-unprocessed.smi:787-5

> <Gold.Version>
5.8.1

> <Gold.Id.Protein>
6NUR|6NUR_protein|mol2

> <Gold.PLP.Fitness>
43.1270

> <Gold.PLP.PLP>
-37.8897

> <Gold.PLP.part.hbond>
-3.9237

> <Gold.PLP.part.metal>
0.0000

> <Gold.PLP.part.buried>
-3.7114

> <Gold.PLP.part.nonpolar>
-30.9635

> <Gold.PLP.part.repulsive>
0.0308

> <Gold.PLP.ligand.clash>
0.0000

> <Gold.PLP.ligand.torsion>
1.7332

> <Gold.PLP.Chemscore.Hbond>
2.7891

> <Gold.PLP.Chemscore.CHOScore>
0.0000

> <Gold.PLP.Chemscore.Metal>
0.0000

> <Gold.Chemscore.Hbonds>
donor molecule, donor type, donor heavy atom, donor atom, acceptor molecule, acceptor atom, score
      L1  H     2    28       P1  7948  1.00
      L1  H    13    34       P1  7957  0.82
      P1  H  8011  8017       L1    13  1.00

> <Gold.PLP.Chemscore.Internal.Correction>
0.3364

> <Gold.Rescore>
     Score         DG    S(hbond)    S(metal)    S(lipo)     H(rot)  DE(clash)    DE(int)     intcor
     15.23     -17.04       2.04        0.00     108.47       3.11       0.10       1.72       ----

> <Gold.Chemscore.Fitness>
15.2276

> <Gold.Chemscore.DG>
-17.0433

> <Gold.Chemscore.ZeroCoef>
-5.4800

> <Gold.Chemscore.Hbond>
2.0440

> <Gold.Chemscore.Metal>
0.0000

> <Gold.Chemscore.Lipo>
108.4749

> <Gold.Chemscore.Internal_Hbond>
0.0000

> <Gold.Chemscore.DEClash>
0.0955

> <Gold.Chemscore.DEInternal>
1.7202

> <Gold.Chemscore.Rot>
3.1075

> <Gold.Chemscore.Internal.Correction>
   9.000000E+99

> <Gold.Chemscore.Hbonds>
donor molecule, donor type, donor heavy atom, donor atom, acceptor molecule, acceptor atom, score
      L1  H     2    28       P1  7948  0.99
      L1  H    13    34       P1  7957  0.76
      P1  H  8011  8017       L1    13  0.25

> <Gold.Chemscore.Hbond.Weighted>
-6.8269

> <Gold.Chemscore.Metal.Weighted>
-0.0000

> <Gold.Chemscore.Lipo.Weighted>
-12.6916

> <Gold.Chemscore.Internal_Hbond.Weighted>
0.0000

> <Gold.Chemscore.DEClash.Weighted>
0.0955

> <Gold.Chemscore.DEInternal.Weighted>
1.7202

> <Gold.Chemscore.Rot.Weighted>
7.9551

> <Gold.Chemscore.Internal.Correction.Weighted>
   9.000000E+99

> <Gold.Protein.RotatedTorsions>
[ 6907 6896 6895 6894 ] final -102.45 input  -60.11 | X-H torsion
[ 7974 7965 7964 7962 ] final -110.07 input  175.53 | X-H torsion
[ 8008 7997 7996 7995 ] final -159.58 input   59.86 | X-H torsion
[ 10167 10162 10161 10158 ] final   86.88 input  -65.29 | X-H torsion
[ 10718 10713 10712 10709 ] final -115.38 input   66.30 | X-H torsion
[ 10763 10752 10751 10750 ] final   83.23 input  -60.55 | X-H torsion
[ 11005 11000 10999 10996 ] final    6.48 input  -57.11 | X-H torsion

> <Gold.Protein.ActiveResidues>
 VAL166  LYS551  ARG553  GLY616  TRP617  ASP618  TYR619  PRO620  LYS621  CYS622 
 ASP623  PHE694  ASN695  SER759  ASP760  ASP761  ALA762  ILE779  LEU786  VAL792 
 PHE793  MET794  SER795  GLU796  ALA797  LYS798  CYS799  TRP800  GLU811  SER814 

> <Gold.Protein.RotatedAtoms>
  150.7197  134.0579  159.3820 H   0  0  0  0  0  0  0  0  0  0  0  0  # atno 6907 bound_to 6896
  151.8558  135.0539  160.0473 H   0  0  0  0  0  0  0  0  0  0  0  0  # atno 6908 bound_to 6896
  152.2755  133.5386  159.5502 H   0  0  0  0  0  0  0  0  0  0  0  0  # atno 6909 bound_to 6896
  145.1728  140.8934  143.3525 H   0  0  0  0  0  0  0  0  0  0  0  0  # atno 7974 bound_to 7965
  155.7646  140.0844  157.2138 H   0  0  0  0  0  0  0  0  0  0  0  0  # atno 8008 bound_to 7997
  154.4001  140.1536  156.2929 H   0  0  0  0  0  0  0  0  0  0  0  0  # atno 8009 bound_to 7997
  155.8806  140.3421  155.5888 H   0  0  0  0  0  0  0  0  0  0  0  0  # atno 8010 bound_to 7997
  139.8830  144.6429  150.8822 H   0  0  0  0  0  0  0  0  0  0  0  0  # atno 10167 bound_to 10162
  156.0892  130.6077  150.8898 H   0  0  0  0  0  0  0  0  0  0  0  0  # atno 10718 bound_to 10713
  153.1273  135.4699  154.9292 H   0  0  0  0  0  0  0  0  0  0  0  0  # atno 10763 bound_to 10752
  154.7632  135.3137  154.8341 H   0  0  0  0  0  0  0  0  0  0  0  0  # atno 10764 bound_to 10752
  153.8891  135.6886  153.4815 H   0  0  0  0  0  0  0  0  0  0  0  0  # atno 10765 bound_to 10752
  140.5590  134.0211  155.7964 H   0  0  0  0  0  0  0  0  0  0  0  0  # atno 11005 bound_to 11000
  145.0216  139.3419  143.6070 LP  0  0  0  0  0  0  0  0  0  0  0  0  # atno 17320 bound_to 7965
  146.3466  139.9518  142.8728 LP  0  0  0  0  0  0  0  0  0  0  0  0  # atno 17321 bound_to 7965
  140.7741  143.3571  151.1901 LP  0  0  0  0  0  0  0  0  0  0  0  0  # atno 17342 bound_to 10162
  139.7179  143.9271  152.2974 LP  0  0  0  0  0  0  0  0  0  0  0  0  # atno 17343 bound_to 10162
  157.6036  131.0940  150.8918 LP  0  0  0  0  0  0  0  0  0  0  0  0  # atno 17370 bound_to 10713
  156.9071  130.5267  149.5281 LP  0  0  0  0  0  0  0  0  0  0  0  0  # atno 17371 bound_to 10713
  141.1126  133.9592  157.2882 LP  0  0  0  0  0  0  0  0  0  0  0  0  # atno 17394 bound_to 11000
  139.9417  135.0190  156.8729 LP  0  0  0  0  0  0  0  0  0  0  0  0  # atno 17395 bound_to 11000

$$$$
