AV-unprocessed.smi:1230|AV-procd|sdf|5156|dock2
  -GOLD-   22720 4233D 1   1.00000     0.00000
 Structure written by MMmdl.
 39 40  0  0  0  0  0  0  0  0  1 V2000
  151.3673  145.4517  160.0700 C   0  0  0  0  0  0  0  0  0  0  0  0
  151.7363  144.0111  160.4610 C   0  0  2  0  0  0  0  0  0  0  0  0
  152.4959  143.9909  161.8031 C   0  0  0  0  0  0  0  0  0  0  0  0
  152.8867  142.5642  162.2162 C   0  0  0  0  0  0  0  0  0  0  0  0
  153.7133  141.8809  161.1188 C   0  0  0  0  0  0  0  0  0  0  0  0
  152.9603  141.8826  159.7805 C   0  0  0  0  0  0  0  0  0  0  0  0
  152.5599  143.3118  159.3555 C   0  0  1  0  0  0  0  0  0  0  0  0
  151.7550  143.2540  158.1839 O   0  0  0  0  0  0  0  0  0  0  0  0
  150.6957  142.3112  158.2429 C   0  0  0  0  0  0  0  0  0  0  0  0
  150.4563  141.7619  156.8286 C   0  0  0  0  0  0  0  0  0  0  0  0
  150.9310  140.4107  156.6646 N   0  0  0  0  0  0  0  0  0  0  0  0
  151.3810  139.6464  157.7302 C   0  0  0  0  0  0  0  0  0  0  0  0
  151.8120  138.3708  157.5870 C   0  0  0  0  0  0  0  0  0  0  0  0
  152.2711  137.5969  158.6925 C   0  0  0  0  0  0  0  0  0  0  0  0
  152.6569  136.9535  159.5738 N   0  0  0  0  0  0  0  0  0  0  0  0
  151.8198  137.7277  156.2741 C   0  0  0  0  0  0  0  0  0  0  0  0
  152.1927  136.5796  156.0401 O   0  0  0  0  0  0  0  0  0  0  0  0
  151.3494  138.5358  155.2339 N   0  0  0  0  0  0  0  0  0  0  0  0
  150.8990  139.8511  155.3655 C   0  0  0  0  0  0  0  0  0  0  0  0
  150.4967  140.4635  154.3762 O   0  0  0  0  0  0  0  0  0  0  0  0
  151.3313  138.1326  154.3084 H   0  0  0  0  0  0  0  0  0  0  0  0
  152.2585  146.0568  159.9014 H   0  0  0  0  0  0  0  0  0  0  0  0
  150.7815  145.9328  160.8536 H   0  0  0  0  0  0  0  0  0  0  0  0
  150.7716  145.4762  159.1572 H   0  0  0  0  0  0  0  0  0  0  0  0
  150.8067  143.4554  160.5948 H   0  0  0  0  0  0  0  0  0  0  0  0
  153.3947  144.6042  161.7269 H   0  0  0  0  0  0  0  0  0  0  0  0
  151.8830  144.4404  162.5853 H   0  0  0  0  0  0  0  0  0  0  0  0
  153.4529  142.5887  163.1477 H   0  0  0  0  0  0  0  0  0  0  0  0
  151.9871  141.9805  162.4154 H   0  0  0  0  0  0  0  0  0  0  0  0
  154.6673  142.3968  161.0029 H   0  0  0  0  0  0  0  0  0  0  0  0
  153.9479  140.8575  161.4125 H   0  0  0  0  0  0  0  0  0  0  0  0
  153.5846  141.4154  159.0195 H   0  0  0  0  0  0  0  0  0  0  0  0
  152.0662  141.2637  159.8670 H   0  0  0  0  0  0  0  0  0  0  0  0
  153.4580  143.9039  159.1688 H   0  0  0  0  0  0  0  0  0  0  0  0
  150.9616  141.4959  158.9174 H   0  0  0  0  0  0  0  0  0  0  0  0
  149.7894  142.7762  158.6298 H   0  0  0  0  0  0  0  0  0  0  0  0
  149.4024  141.7824  156.5426 H   0  0  0  0  0  0  0  0  0  0  0  0
  150.9859  142.3632  156.0881 H   0  0  0  0  0  0  0  0  0  0  0  0
  151.3882  140.0811  158.7200 H   0  0  0  0  0  0  0  0  0  0  0  0
  1  2  1  0  0  0  0
  1 22  1  0  0  0  0
  1 23  1  0  0  0  0
  1 24  1  0  0  0  0
  2  7  1  0  0  0  0
  2  3  1  0  0  0  0
  2 25  1  0  0  0  0
  3  4  1  0  0  0  0
  3 26  1  0  0  0  0
  3 27  1  0  0  0  0
  4  5  1  0  0  0  0
  4 28  1  0  0  0  0
  4 29  1  0  0  0  0
  5  6  1  0  0  0  0
  5 30  1  0  0  0  0
  5 31  1  0  0  0  0
  6  7  1  0  0  0  0
  6 32  1  0  0  0  0
  6 33  1  0  0  0  0
  7  8  1  0  0  0  0
  7 34  1  0  0  0  0
  8  9  1  0  0  0  0
  9 10  1  0  0  0  0
  9 35  1  0  0  0  0
  9 36  1  0  0  0  0
 10 11  1  0  0  0  0
 10 37  1  0  0  0  0
 10 38  1  0  0  0  0
 11 19  1  0  0  0  0
 11 12  1  0  0  0  0
 12 13  2  0  0  0  0
 12 39  1  0  0  0  0
 13 14  1  0  0  0  0
 13 16  1  0  0  0  0
 14 15  3  0  0  0  0
 16 17  2  0  0  0  0
 16 18  1  0  0  0  0
 18 21  1  0  0  0  0
 18 19  1  0  0  0  0
 19 20  2  0  0  0  0
M  END
> <s_m_source_file>
AV-unprocessed.smi

> <i_m_source_file_index>
1230

> <i_lp_mmshare_version>
43012

> <i_f3d_flags>
0

> <s_epik_input>
W0NIM11bQ0BASF0xW0NIMl1bQ0gyXVtDSDJdW0NIMl1bQ0BIXTFPW0NIMl1bQ0gyXW4yW2NIXWMoQyNOKWMoPU8pW25IXWMyPU8=

> <s_epik_cmdline>
J2VwaWtfcHl0aG9uJywgJy1waCcsICc3LjAnLCAnLXRuJywgJzgnLCAnLW1hJywgJzIwMCcsICctbWV0YWxfYmluZGluZycsICctaW1hZScsICc8aW5maWxlLm1hZT4nLCAnLW9tYWUnLCAnPG91dGZpbGUubWFlPic=

> <r_epik_Ionization_Penalty>
0.421541

> <r_epik_Ionization_Penalty_Charging>
0.421541

> <r_epik_Ionization_Penalty_Neutral>
2.29267e-11

> <r_epik_State_Penalty>
0.422277

> <r_epik_Charging_Adjusted_Penalty>
0.843818

> <i_epik_Tot_Q>
0

> <i_epik_Tot_abs_Q>
0

> <r_epik_Metal_State_Penalty>
4.11629

> <b_epik_Metal_Only>
0

> <s_lp_Force_Field>
OPLS_2005

> <r_lp_Energy>
13.3679

> <b_lp_Chiralities_Consistent>
1

> <s_lp_Variant>
AV-unprocessed.smi:1230-5

> <Gold.Version>
5.8.1

> <Gold.Id.Protein>
6NUR|6NUR_protein|mol2

> <Gold.PLP.Fitness>
52.6623

> <Gold.PLP.PLP>
-44.9935

> <Gold.PLP.part.hbond>
-2.8148

> <Gold.PLP.part.metal>
0.0000

> <Gold.PLP.part.buried>
-6.9190

> <Gold.PLP.part.nonpolar>
-34.8208

> <Gold.PLP.part.repulsive>
0.2860

> <Gold.PLP.ligand.clash>
0.0000

> <Gold.PLP.ligand.torsion>
0.6725

> <Gold.PLP.Chemscore.Hbond>
3.0000

> <Gold.PLP.Chemscore.CHOScore>
0.0000

> <Gold.PLP.Chemscore.Metal>
0.0000

> <Gold.Chemscore.Hbonds>
donor molecule, donor type, donor heavy atom, donor atom, acceptor molecule, acceptor atom, score
      P1  H  6896  6908       L1    15  0.93
      P1  H  7989  7998       L1    20  0.89
      P1  H 10752 10765       L1    17  1.00

> <Gold.PLP.Chemscore.Internal.Correction>
0.0138

> <Gold.Rescore>
     Score         DG    S(hbond)    S(metal)    S(lipo)     H(rot)  DE(clash)    DE(int)     intcor
     21.34     -22.17       2.95        0.00     101.01       1.94       0.15       0.68       ----

> <Gold.Chemscore.Fitness>
21.3439

> <Gold.Chemscore.DG>
-22.1748

> <Gold.Chemscore.ZeroCoef>
-5.4800

> <Gold.Chemscore.Hbond>
2.9460

> <Gold.Chemscore.Metal>
0.0000

> <Gold.Chemscore.Lipo>
101.0052

> <Gold.Chemscore.Internal_Hbond>
0.0000

> <Gold.Chemscore.DEClash>
0.1461

> <Gold.Chemscore.DEInternal>
0.6848

> <Gold.Chemscore.Rot>
1.9385

> <Gold.Chemscore.Internal.Correction>
   9.000000E+99

> <Gold.Chemscore.Hbonds>
donor molecule, donor type, donor heavy atom, donor atom, acceptor molecule, acceptor atom, score
      P1  H  6896  6908       L1    15  0.86
      P1  H  7989  7998       L1    20  0.66
      P1  H 10752 10765       L1    17  0.98

> <Gold.Chemscore.Hbond.Weighted>
-9.8398

> <Gold.Chemscore.Metal.Weighted>
-0.0000

> <Gold.Chemscore.Lipo.Weighted>
-11.8176

> <Gold.Chemscore.Internal_Hbond.Weighted>
0.0000

> <Gold.Chemscore.DEClash.Weighted>
0.1461

> <Gold.Chemscore.DEInternal.Weighted>
0.6848

> <Gold.Chemscore.Rot.Weighted>
4.9625

> <Gold.Chemscore.Internal.Correction.Weighted>
   9.000000E+99

> <Gold.Protein.RotatedTorsions>
[ 6907 6896 6895 6894 ] final -110.04 input  -60.11 | X-H torsion
[ 7974 7965 7964 7962 ] final  -45.11 input  175.53 | X-H torsion
[ 8008 7997 7996 7995 ] final  -48.25 input   59.86 | X-H torsion
[ 10167 10162 10161 10158 ] final  -63.47 input  -65.29 | X-H torsion
[ 10718 10713 10712 10709 ] final  -70.31 input   66.30 | X-H torsion
[ 10763 10752 10751 10750 ] final -143.52 input  -60.55 | X-H torsion
[ 11005 11000 10999 10996 ] final  -40.46 input  -57.11 | X-H torsion

> <Gold.Protein.ActiveResidues>
 VAL166  LYS551  ARG553  GLY616  TRP617  ASP618  TYR619  PRO620  LYS621  CYS622 
 ASP623  PHE694  ASN695  SER759  ASP760  ASP761  ALA762  ILE779  LEU786  VAL792 
 PHE793  MET794  SER795  GLU796  ALA797  LYS798  CYS799  TRP800  GLU811  SER814 

> <Gold.Protein.RotatedAtoms>
  150.7600  133.9440  159.3464 H   0  0  0  0  0  0  0  0  0  0  0  0  # atno 6907 bound_to 6896
  151.7351  135.0864  160.0316 H   0  0  0  0  0  0  0  0  0  0  0  0  # atno 6908 bound_to 6896
  152.3564  133.6205  159.6019 H   0  0  0  0  0  0  0  0  0  0  0  0  # atno 6909 bound_to 6896
  145.9853  140.7239  142.9343 H   0  0  0  0  0  0  0  0  0  0  0  0  # atno 7974 bound_to 7965
  154.4026  140.1326  156.4308 H   0  0  0  0  0  0  0  0  0  0  0  0  # atno 8008 bound_to 7997
  155.7553  140.3487  155.5150 H   0  0  0  0  0  0  0  0  0  0  0  0  # atno 8009 bound_to 7997
  155.8911  140.1003  157.1408 H   0  0  0  0  0  0  0  0  0  0  0  0  # atno 8010 bound_to 7997
  140.5868  143.2335  151.6225 H   0  0  0  0  0  0  0  0  0  0  0  0  # atno 10167 bound_to 10162
  156.0414  130.4329  150.2277 H   0  0  0  0  0  0  0  0  0  0  0  0  # atno 10718 bound_to 10713
  154.8466  135.3465  154.6200 H   0  0  0  0  0  0  0  0  0  0  0  0  # atno 10763 bound_to 10752
  153.6809  135.6980  153.5123 H   0  0  0  0  0  0  0  0  0  0  0  0  # atno 10764 bound_to 10752
  153.2669  135.4305  155.0905 H   0  0  0  0  0  0  0  0  0  0  0  0  # atno 10765 bound_to 10752
  141.0176  133.6878  156.2325 H   0  0  0  0  0  0  0  0  0  0  0  0  # atno 11005 bound_to 11000
  144.6873  140.2978  143.7268 LP  0  0  0  0  0  0  0  0  0  0  0  0  # atno 17320 bound_to 7965
  145.7709  139.1857  143.2213 LP  0  0  0  0  0  0  0  0  0  0  0  0  # atno 17321 bound_to 7965
  139.5203  144.3228  152.0895 LP  0  0  0  0  0  0  0  0  0  0  0  0  # atno 17342 bound_to 10162
  140.2386  144.4293  150.6269 LP  0  0  0  0  0  0  0  0  0  0  0  0  # atno 17343 bound_to 10162
  157.0372  131.0024  151.3294 LP  0  0  0  0  0  0  0  0  0  0  0  0  # atno 17370 bound_to 10713
  157.5236  130.8013  149.7836 LP  0  0  0  0  0  0  0  0  0  0  0  0  # atno 17371 bound_to 10713
  140.6627  134.4950  157.5584 LP  0  0  0  0  0  0  0  0  0  0  0  0  # atno 17394 bound_to 11000
  139.9126  134.8312  156.1474 LP  0  0  0  0  0  0  0  0  0  0  0  0  # atno 17395 bound_to 11000

$$$$
