AV-unprocessed.smi:1101|AV-procd|sdf|4766|dock10
  -GOLD-   22720 3303D 1   1.00000     0.00000
 Structure written by MMmdl.
 41 42  0  0  0  0  0  0  0  0  1 V2000
  147.4857  139.9183  153.7827 C   0  0  0  0  0  0  0  0  0  0  0  0
  148.7669  140.6487  154.2031 C   0  0  0  0  0  0  0  0  0  0  0  0
  149.7920  139.7230  154.8769 C   0  0  1  0  0  0  0  0  0  0  0  0
  150.1581  138.5179  153.9857 C   0  0  0  0  0  0  0  0  0  0  0  0
  151.1666  137.7117  154.6888 N   0  0  0  0  0  0  0  0  0  0  0  0
  150.9847  136.4883  155.2455 C   0  0  0  0  0  0  0  0  0  0  0  0
  151.7515  136.0068  156.0808 O   0  0  0  0  0  0  0  0  0  0  0  0
  149.9117  135.8181  154.7922 N   0  0  0  0  0  0  0  0  0  0  0  0
  149.5054  134.4857  155.2236 C   0  0  0  0  0  0  0  0  0  0  0  0
  149.3701  133.5216  154.0338 C   0  0  0  0  0  0  0  0  0  0  0  0
  147.9680  133.5082  153.4933 C   0  0  0  0  0  0  0  0  0  0  0  0
  146.8293  134.1991  153.9976 C   0  0  0  0  0  0  0  0  0  0  0  0
  145.7358  133.9769  153.2863 N   0  0  0  0  0  0  0  0  0  0  0  0
  146.1364  133.1396  152.3074 N   0  0  0  0  0  0  0  0  0  0  0  0
  145.1778  132.6790  151.3259 C   0  0  0  0  0  0  0  0  0  0  0  0
  147.4776  132.8384  152.4078 C   0  0  0  0  0  0  0  0  0  0  0  0
  152.3753  138.5075  154.9165 C   0  0  0  0  0  0  0  0  0  0  0  0
  151.9987  139.7177  155.7887 C   0  0  0  0  0  0  0  0  0  0  0  0
  150.9778  140.4734  155.1409 O   0  0  0  0  0  0  0  0  0  0  0  0
  146.7927  140.6021  153.2922 H   0  0  0  0  0  0  0  0  0  0  0  0
  146.9733  139.4894  154.6443 H   0  0  0  0  0  0  0  0  0  0  0  0
  147.7045  139.1093  153.0853 H   0  0  0  0  0  0  0  0  0  0  0  0
  149.2157  141.1012  153.3182 H   0  0  0  0  0  0  0  0  0  0  0  0
  148.5152  141.4709  154.8740 H   0  0  0  0  0  0  0  0  0  0  0  0
  149.3771  139.3629  155.8204 H   0  0  0  0  0  0  0  0  0  0  0  0
  149.2563  137.9650  153.7233 H   0  0  0  0  0  0  0  0  0  0  0  0
  150.5750  138.8637  153.0384 H   0  0  0  0  0  0  0  0  0  0  0  0
  149.3335  136.2678  154.0975 H   0  0  0  0  0  0  0  0  0  0  0  0
  150.2582  134.1135  155.9191 H   0  0  0  0  0  0  0  0  0  0  0  0
  148.5687  134.5426  155.7809 H   0  0  0  0  0  0  0  0  0  0  0  0
  150.0730  133.8067  153.2501 H   0  0  0  0  0  0  0  0  0  0  0  0
  149.6675  132.5201  154.3469 H   0  0  0  0  0  0  0  0  0  0  0  0
  146.7665  134.8528  154.8551 H   0  0  0  0  0  0  0  0  0  0  0  0
  145.6824  132.0967  150.5544 H   0  0  0  0  0  0  0  0  0  0  0  0
  144.6857  133.5328  150.8592 H   0  0  0  0  0  0  0  0  0  0  0  0
  144.4277  132.0525  151.8096 H   0  0  0  0  0  0  0  0  0  0  0  0
  147.9688  132.1806  151.7057 H   0  0  0  0  0  0  0  0  0  0  0  0
  153.1752  137.9393  155.3932 H   0  0  0  0  0  0  0  0  0  0  0  0
  152.7752  138.8432  153.9586 H   0  0  0  0  0  0  0  0  0  0  0  0
  151.6573  139.3969  156.7742 H   0  0  0  0  0  0  0  0  0  0  0  0
  152.8674  140.3576  155.9432 H   0  0  0  0  0  0  0  0  0  0  0  0
  1  2  1  0  0  0  0
  1 20  1  0  0  0  0
  1 21  1  0  0  0  0
  1 22  1  0  0  0  0
  2  3  1  0  0  0  0
  2 23  1  0  0  0  0
  2 24  1  0  0  0  0
  3 19  1  0  0  0  0
  3  4  1  0  0  0  0
  3 25  1  0  0  0  0
  4  5  1  0  0  0  0
  4 26  1  0  0  0  0
  4 27  1  0  0  0  0
  5  6  1  0  0  0  0
  5 17  1  0  0  0  0
  6  7  2  0  0  0  0
  6  8  1  0  0  0  0
  8  9  1  0  0  0  0
  8 28  1  0  0  0  0
  9 10  1  0  0  0  0
  9 29  1  0  0  0  0
  9 30  1  0  0  0  0
 10 11  1  0  0  0  0
 10 31  1  0  0  0  0
 10 32  1  0  0  0  0
 11 16  2  0  0  0  0
 11 12  1  0  0  0  0
 12 13  2  0  0  0  0
 12 33  1  0  0  0  0
 13 14  1  0  0  0  0
 14 15  1  0  0  0  0
 14 16  1  0  0  0  0
 15 34  1  0  0  0  0
 15 35  1  0  0  0  0
 15 36  1  0  0  0  0
 16 37  1  0  0  0  0
 17 18  1  0  0  0  0
 17 38  1  0  0  0  0
 17 39  1  0  0  0  0
 18 19  1  0  0  0  0
 18 40  1  0  0  0  0
 18 41  1  0  0  0  0
M  END
> <s_m_source_file>
AV-unprocessed.smi

> <i_m_source_file_index>
1101

> <i_lp_mmshare_version>
43012

> <i_f3d_flags>
0

> <s_epik_input>
W0NIM11bQ0gyXVtDQEBIXTFbQ0gyXU4oW0NIMl1bQ0gyXU8xKUMoPU8pW05IXVtDSDJdW0NIMl1jMltjSF1ubihbQ0gzXSlbY0hdMg==

> <s_epik_cmdline>
J2VwaWtfcHl0aG9uJywgJy1waCcsICc3LjAnLCAnLXRuJywgJzgnLCAnLW1hJywgJzIwMCcsICctbWV0YWxfYmluZGluZycsICctaW1hZScsICc8aW5maWxlLm1hZT4nLCAnLW9tYWUnLCAnPG91dGZpbGUubWFlPic=

> <r_lp_tautomer_probability>
1

> <r_epik_Ionization_Penalty>
0.000536373

> <r_epik_Ionization_Penalty_Charging>
0

> <r_epik_Ionization_Penalty_Neutral>
0.000536373

> <r_epik_State_Penalty>
-0

> <r_epik_Charging_Adjusted_Penalty>
0

> <i_epik_Tot_Q>
0

> <i_epik_Tot_abs_Q>
0

> <r_epik_Metal_State_Penalty>
-0

> <b_epik_Metal_Only>
0

> <s_lp_Force_Field>
OPLS_2005

> <r_lp_Energy>
24.031

> <b_lp_Chiralities_Consistent>
1

> <s_lp_Variant>
AV-unprocessed.smi:1101-2

> <Gold.Version>
5.8.1

> <Gold.Id.Protein>
6NUR|6NUR_protein|mol2

> <Gold.PLP.Fitness>
47.8198

> <Gold.PLP.PLP>
-37.3866

> <Gold.PLP.part.hbond>
-3.0000

> <Gold.PLP.part.metal>
0.0000

> <Gold.PLP.part.buried>
0.5786

> <Gold.PLP.part.nonpolar>
-33.6998

> <Gold.PLP.part.repulsive>
0.2324

> <Gold.PLP.ligand.clash>
0.0000

> <Gold.PLP.ligand.torsion>
0.3300

> <Gold.PLP.Chemscore.Hbond>
2.6817

> <Gold.PLP.Chemscore.CHOScore>
1.0000

> <Gold.PLP.Chemscore.Metal>
0.0000

> <Gold.Chemscore.Hbonds>
donor molecule, donor type, donor heavy atom, donor atom, acceptor molecule, acceptor atom, score
      L1  H     8    28       P1  7948  0.37
      P1  H  7989  7998       L1    19  1.00
      P1  H 10752 10764       L1     7  0.80
      L1  C    16    37       P1 10747  1.00

> <Gold.PLP.Chemscore.Internal.Correction>
0.0481

> <Gold.Rescore>
     Score         DG    S(hbond)    S(metal)    S(lipo)     H(rot)  DE(clash)    DE(int)     intcor
     12.99     -13.62       0.79        0.00      80.09       1.51       0.25       0.38       ----

> <Gold.Chemscore.Fitness>
12.9946

> <Gold.Chemscore.DG>
-13.6196

> <Gold.Chemscore.ZeroCoef>
-5.4800

> <Gold.Chemscore.Hbond>
0.7857

> <Gold.Chemscore.Metal>
0.0000

> <Gold.Chemscore.Lipo>
80.0950

> <Gold.Chemscore.Internal_Hbond>
0.0000

> <Gold.Chemscore.DEClash>
0.2460

> <Gold.Chemscore.DEInternal>
0.3790

> <Gold.Chemscore.Rot>
1.5062

> <Gold.Chemscore.Internal.Correction>
   9.000000E+99

> <Gold.Chemscore.Hbonds>
donor molecule, donor type, donor heavy atom, donor atom, acceptor molecule, acceptor atom, score
      L1  H     8    28       P1  7948  0.31
      P1  H  7989  7998       L1    19  0.26
      P1  H 10752 10764       L1     7  0.12

> <Gold.Chemscore.Hbond.Weighted>
-2.6243

> <Gold.Chemscore.Metal.Weighted>
-0.0000

> <Gold.Chemscore.Lipo.Weighted>
-9.3711

> <Gold.Chemscore.Internal_Hbond.Weighted>
0.0000

> <Gold.Chemscore.DEClash.Weighted>
0.2460

> <Gold.Chemscore.DEInternal.Weighted>
0.3790

> <Gold.Chemscore.Rot.Weighted>
3.8558

> <Gold.Chemscore.Internal.Correction.Weighted>
   9.000000E+99

> <Gold.Protein.RotatedTorsions>
[ 6907 6896 6895 6894 ] final   51.39 input  -60.11 | X-H torsion
[ 7974 7965 7964 7962 ] final -163.16 input  175.53 | X-H torsion
[ 8008 7997 7996 7995 ] final  -73.67 input   59.86 | X-H torsion
[ 10167 10162 10161 10158 ] final  133.72 input  -65.29 | X-H torsion
[ 10718 10713 10712 10709 ] final   79.95 input   66.30 | X-H torsion
[ 10763 10752 10751 10750 ] final  -41.45 input  -60.55 | X-H torsion
[ 11005 11000 10999 10996 ] final  -24.46 input  -57.11 | X-H torsion

> <Gold.Protein.ActiveResidues>
 VAL166  LYS551  ARG553  GLY616  TRP617  ASP618  TYR619  PRO620  LYS621  CYS622 
 ASP623  PHE694  ASN695  SER759  ASP760  ASP761  ALA762  ILE779  LEU786  VAL792 
 PHE793  MET794  SER795  GLU796  ALA797  LYS798  CYS799  TRP800  GLU811  SER814 

> <Gold.Protein.RotatedAtoms>
  152.3122  134.7484  160.0333 H   0  0  0  0  0  0  0  0  0  0  0  0  # atno 6907 bound_to 6896
  151.7961  133.3359  159.3521 H   0  0  0  0  0  0  0  0  0  0  0  0  # atno 6908 bound_to 6896
  150.7326  134.5728  159.5943 H   0  0  0  0  0  0  0  0  0  0  0  0  # atno 6909 bound_to 6896
  144.7334  140.3147  143.6181 H   0  0  0  0  0  0  0  0  0  0  0  0  # atno 7974 bound_to 7965
  154.5267  140.0775  156.8270 H   0  0  0  0  0  0  0  0  0  0  0  0  # atno 8008 bound_to 7997
  155.3461  140.3410  155.4221 H   0  0  0  0  0  0  0  0  0  0  0  0  # atno 8009 bound_to 7997
  156.1738  140.1629  156.8386 H   0  0  0  0  0  0  0  0  0  0  0  0  # atno 8010 bound_to 7997
  139.5285  144.6602  151.5037 H   0  0  0  0  0  0  0  0  0  0  0  0  # atno 10167 bound_to 10162
  157.6792  130.9937  150.2007 H   0  0  0  0  0  0  0  0  0  0  0  0  # atno 10718 bound_to 10713
  153.9627  135.6737  153.4745 H   0  0  0  0  0  0  0  0  0  0  0  0  # atno 10763 bound_to 10752
  153.0830  135.4913  154.8538 H   0  0  0  0  0  0  0  0  0  0  0  0  # atno 10764 bound_to 10752
  154.7264  135.3128  154.8924 H   0  0  0  0  0  0  0  0  0  0  0  0  # atno 10765 bound_to 10752
  140.8847  133.7629  156.0346 H   0  0  0  0  0  0  0  0  0  0  0  0  # atno 11005 bound_to 11000
  145.7629  139.1831  143.2257 LP  0  0  0  0  0  0  0  0  0  0  0  0  # atno 17320 bound_to 7965
  146.0972  140.7586  142.9566 LP  0  0  0  0  0  0  0  0  0  0  0  0  # atno 17321 bound_to 7965
  140.6447  143.8819  150.6725 LP  0  0  0  0  0  0  0  0  0  0  0  0  # atno 17342 bound_to 10162
  140.2165  143.3842  152.1677 LP  0  0  0  0  0  0  0  0  0  0  0  0  # atno 17343 bound_to 10162
  156.2699  130.3720  149.8043 LP  0  0  0  0  0  0  0  0  0  0  0  0  # atno 17370 bound_to 10713
  156.5763  130.8446  151.3370 LP  0  0  0  0  0  0  0  0  0  0  0  0  # atno 17371 bound_to 10713
  140.8419  134.3056  157.5310 LP  0  0  0  0  0  0  0  0  0  0  0  0  # atno 17394 bound_to 11000
  139.8723  134.9421  156.3814 LP  0  0  0  0  0  0  0  0  0  0  0  0  # atno 17395 bound_to 11000

$$$$
