AV-unprocessed.smi:218|AV-procd|sdf|1662|dock9
  -GOLD-   2262020 63D 1   1.00000     0.00000
 Structure written by MMmdl.
 54 57  0  0  0  0  0  0  0  0  1 V2000
  152.6297  142.1221  160.1609 C   0  0  0  0  0  0  0  0  0  0  0  0
  152.2098  140.9664  159.2446 C   0  0  0  0  0  0  0  0  0  0  0  0
  153.2407  139.8249  159.2806 C   0  0  0  0  0  0  0  0  0  0  0  0
  152.1060  141.5020  157.9237 O   0  0  0  0  0  0  0  0  0  0  0  0
  151.8483  140.6673  156.8533 C   0  0  0  0  0  0  0  0  0  0  0  0
  150.6810  140.8940  156.0957 C   0  0  0  0  0  0  0  0  0  0  0  0
  150.3994  140.0496  155.0025 C   0  0  0  0  0  0  0  0  0  0  0  0
  149.1424  140.2621  154.1791 C   0  0  0  0  0  0  0  0  0  0  0  0
  147.9120  140.2530  154.9603 N   0  0  0  0  0  0  0  0  0  0  0  0
  147.2512  139.0939  155.1656 C   0  0  0  0  0  0  0  0  0  0  0  0
  147.1396  138.5620  156.4113 N   0  0  0  0  0  0  0  0  0  0  0  0
  146.4843  137.4106  156.5904 C   0  0  0  0  0  0  0  0  0  0  0  0
  145.8812  136.6427  155.6796 N   0  0  0  0  0  0  0  0  0  0  0  0
  145.9934  137.1745  154.4281 C   0  0  0  0  0  0  0  0  0  0  0  0
  146.6529  138.3881  154.0904 C   0  0  0  0  0  0  0  0  0  0  0  0
  146.5556  138.6106  152.7229 N   0  0  0  0  0  0  0  0  0  0  0  0
  145.8789  137.5833  152.2826 C   0  0  0  0  0  0  0  0  0  0  0  0
  145.5054  136.6682  153.2442 N   0  0  0  0  0  0  0  0  0  0  0  0
  144.7366  135.3959  153.0920 C   0  0  2  0  0  0  0  0  0  0  0  0
  145.6223  134.3349  153.3042 O   0  0  0  0  0  0  0  0  0  0  0  0
  145.7077  133.5006  152.1497 C   0  0  2  0  0  0  0  0  0  0  0  0
  147.1339  132.9477  152.0059 C   0  0  0  0  0  0  0  0  0  0  0  0
  147.1768  131.9821  150.9775 O   0  0  0  0  0  0  0  0  0  0  0  0
  145.2947  134.4295  151.0077 C   0  0  1  0  0  0  0  0  0  0  0  0
  144.8333  133.7417  149.8609 O   0  0  0  0  0  0  0  0  0  0  0  0
  144.2153  135.2847  151.6544 C   0  0  1  0  0  0  0  0  0  0  0  0
  142.9350  134.6796  151.6269 O   0  0  0  0  0  0  0  0  0  0  0  0
  151.2971  138.9995  154.7159 C   0  0  0  0  0  0  0  0  0  0  0  0
  152.4368  138.8510  155.5295 C   0  0  0  0  0  0  0  0  0  0  0  0
  152.7127  139.6603  156.5737 N   0  0  0  0  0  0  0  0  0  0  0  0
  143.9617  135.4455  153.8582 H   0  0  0  0  0  0  0  0  0  0  0  0
  144.9786  132.6934  152.2429 H   0  0  0  0  0  0  0  0  0  0  0  0
  146.1369  135.0641  150.7274 H   0  0  0  0  0  0  0  0  0  0  0  0
  144.1360  136.2669  151.1858 H   0  0  0  0  0  0  0  0  0  0  0  0
  152.7256  141.7898  161.1949 H   0  0  0  0  0  0  0  0  0  0  0  0
  151.8918  142.9244  160.1383 H   0  0  0  0  0  0  0  0  0  0  0  0
  153.5879  142.5422  159.8539 H   0  0  0  0  0  0  0  0  0  0  0  0
  151.2431  140.6078  159.6012 H   0  0  0  0  0  0  0  0  0  0  0  0
  153.3546  139.4345  160.2922 H   0  0  0  0  0  0  0  0  0  0  0  0
  154.2194  140.1686  158.9450 H   0  0  0  0  0  0  0  0  0  0  0  0
  152.9461  138.9924  158.6423 H   0  0  0  0  0  0  0  0  0  0  0  0
  150.0139  141.7038  156.3533 H   0  0  0  0  0  0  0  0  0  0  0  0
  149.2354  141.2178  153.6613 H   0  0  0  0  0  0  0  0  0  0  0  0
  149.0827  139.4856  153.4152 H   0  0  0  0  0  0  0  0  0  0  0  0
  147.5824  141.1503  155.2862 H   0  0  0  0  0  0  0  0  0  0  0  0
  146.4381  137.0528  157.6086 H   0  0  0  0  0  0  0  0  0  0  0  0
  145.6366  137.4674  151.2366 H   0  0  0  0  0  0  0  0  0  0  0  0
  147.8203  133.7488  151.7300 H   0  0  0  0  0  0  0  0  0  0  0  0
  147.4939  132.5214  152.9425 H   0  0  0  0  0  0  0  0  0  0  0  0
  148.0812  131.7855  150.7870 H   0  0  0  0  0  0  0  0  0  0  0  0
  145.1487  134.1986  149.0956 H   0  0  0  0  0  0  0  0  0  0  0  0
  142.6948  134.5273  150.7256 H   0  0  0  0  0  0  0  0  0  0  0  0
  151.1203  138.3167  153.8978 H   0  0  0  0  0  0  0  0  0  0  0  0
  153.1445  138.0577  155.3386 H   0  0  0  0  0  0  0  0  0  0  0  0
  1  2  1  0  0  0  0
  1 35  1  0  0  0  0
  1 36  1  0  0  0  0
  1 37  1  0  0  0  0
  2  3  1  0  0  0  0
  2  4  1  0  0  0  0
  2 38  1  0  0  0  0
  3 39  1  0  0  0  0
  3 40  1  0  0  0  0
  3 41  1  0  0  0  0
  4  5  1  0  0  0  0
  5 30  1  0  0  0  0
  5  6  2  0  0  0  0
  6  7  1  0  0  0  0
  6 42  1  0  0  0  0
  7  8  1  0  0  0  0
  7 28  2  0  0  0  0
  8  9  1  0  0  0  0
  8 43  1  0  0  0  0
  8 44  1  0  0  0  0
  9 10  1  0  0  0  0
  9 45  1  0  0  0  0
 10 15  1  0  0  0  0
 10 11  2  0  0  0  0
 11 12  1  0  0  0  0
 12 13  2  0  0  0  0
 12 46  1  0  0  0  0
 13 14  1  0  0  0  0
 14 18  1  0  0  0  0
 14 15  2  0  0  0  0
 15 16  1  0  0  0  0
 16 17  2  0  0  0  0
 17 18  1  0  0  0  0
 17 47  1  0  0  0  0
 18 19  1  0  0  0  0
 19 31  1  0  0  0  0
 19 26  1  0  0  0  0
 19 20  1  0  0  0  0
 20 21  1  0  0  0  0
 21 32  1  0  0  0  0
 21 22  1  0  0  0  0
 21 24  1  0  0  0  0
 22 23  1  0  0  0  0
 22 48  1  0  0  0  0
 22 49  1  0  0  0  0
 23 50  1  0  0  0  0
 24 33  1  0  0  0  0
 24 25  1  0  0  0  0
 24 26  1  0  0  0  0
 25 51  1  0  0  0  0
 26 34  1  0  0  0  0
 26 27  1  0  0  0  0
 27 52  1  0  0  0  0
 28 29  1  0  0  0  0
 28 53  1  0  0  0  0
 29 30  2  0  0  0  0
 29 54  1  0  0  0  0
M  END
> <s_m_source_file>
AV-unprocessed.smi

> <i_m_source_file_index>
218

> <i_lp_mmshare_version>
43012

> <i_f3d_flags>
0

> <s_epik_input>
W0NIM11bQ0hdKFtDSDNdKU9jMVtjSF1jKFtjSF1bY0hdbjEpW0NIMl1bTkhdYyhuW2NIXW4yKWMoYzIzKW5bY0hdbjNbQ0BASF00T1tDQEhdKFtDSDJdW09IXSlbQ0BASF0oW09IXSlbQ0BIXTRbT0hd

> <s_epik_cmdline>
J2VwaWtfcHl0aG9uJywgJy1waCcsICc3LjAnLCAnLXRuJywgJzgnLCAnLW1hJywgJzIwMCcsICctbWV0YWxfYmluZGluZycsICctaW1hZScsICc8aW5maWxlLm1hZT4nLCAnLW9tYWUnLCAnPG91dGZpbGUubWFlPic=

> <r_lp_tautomer_probability>
1

> <r_epik_Ionization_Penalty>
0.00457014

> <r_epik_Ionization_Penalty_Charging>
0

> <r_epik_Ionization_Penalty_Neutral>
0.00457014

> <r_epik_State_Penalty>
-0

> <r_epik_Charging_Adjusted_Penalty>
0

> <i_epik_Tot_Q>
0

> <i_epik_Tot_abs_Q>
0

> <r_epik_Metal_State_Penalty>
-0

> <b_epik_Metal_Only>
0

> <s_epik_Chemistry_Notes>
This compound contains an acetal/aminal-like group ( X-CH(R)-Y where X, Y are N, S, or O) that may be acid/base labile, releasing an aldehyde.

> <s_lp_Force_Field>
OPLS_2005

> <r_lp_Energy>
38.2737

> <b_lp_Chiralities_Consistent>
1

> <s_lp_Variant>
AV-unprocessed.smi:218-1

> <Gold.Version>
5.8.1

> <Gold.Id.Protein>
6NUR|6NUR_protein|mol2

> <Gold.PLP.Fitness>
50.4898

> <Gold.PLP.PLP>
-38.7803

> <Gold.PLP.part.hbond>
-3.4123

> <Gold.PLP.part.metal>
0.0000

> <Gold.PLP.part.buried>
-3.5093

> <Gold.PLP.part.nonpolar>
-31.4277

> <Gold.PLP.part.repulsive>
0.3829

> <Gold.PLP.ligand.clash>
0.0000

> <Gold.PLP.ligand.torsion>
1.0611

> <Gold.PLP.Chemscore.Hbond>
3.5464

> <Gold.PLP.Chemscore.CHOScore>
1.0000

> <Gold.PLP.Chemscore.Metal>
0.0000

> <Gold.Chemscore.Hbonds>
donor molecule, donor type, donor heavy atom, donor atom, acceptor molecule, acceptor atom, score
      L1  H    23    50       P1 10747  0.60
      L1  H    25    51       P1  7921  1.00
      L1  H    27    52       P1 10186  0.74
      P1  H  7997  8008       L1    30  1.00
      L1  C    17    47       P1 10171  1.00

> <Gold.PLP.Chemscore.Internal.Correction>
0.1927

> <Gold.Rescore>
     Score         DG    S(hbond)    S(metal)    S(lipo)     H(rot)  DE(clash)    DE(int)     intcor
      9.99     -11.69       2.75        0.00      81.86       4.90       0.43       1.26       ----

> <Gold.Chemscore.Fitness>
9.9948

> <Gold.Chemscore.DG>
-11.6856

> <Gold.Chemscore.ZeroCoef>
-5.4800

> <Gold.Chemscore.Hbond>
2.7484

> <Gold.Chemscore.Metal>
0.0000

> <Gold.Chemscore.Lipo>
81.8593

> <Gold.Chemscore.Internal_Hbond>
0.0000

> <Gold.Chemscore.DEClash>
0.4264

> <Gold.Chemscore.DEInternal>
1.2644

> <Gold.Chemscore.Rot>
4.9029

> <Gold.Chemscore.Internal.Correction>
   9.000000E+99

> <Gold.Chemscore.Hbonds>
donor molecule, donor type, donor heavy atom, donor atom, acceptor molecule, acceptor atom, score
      L1  H    23    50       P1 10747  0.57
      L1  H    25    51       P1  7921  0.99
      L1  H    27    52       P1 10186  0.18
      P1  H  7997  8008       L1    30  0.41

> <Gold.Chemscore.Hbond.Weighted>
-9.1796

> <Gold.Chemscore.Metal.Weighted>
-0.0000

> <Gold.Chemscore.Lipo.Weighted>
-9.5775

> <Gold.Chemscore.Internal_Hbond.Weighted>
0.0000

> <Gold.Chemscore.DEClash.Weighted>
0.4264

> <Gold.Chemscore.DEInternal.Weighted>
1.2644

> <Gold.Chemscore.Rot.Weighted>
12.5515

> <Gold.Chemscore.Internal.Correction.Weighted>
   9.000000E+99

> <Gold.Protein.RotatedTorsions>
[ 6907 6896 6895 6894 ] final  -39.64 input  -60.11 | X-H torsion
[ 7974 7965 7964 7962 ] final -129.57 input  175.53 | X-H torsion
[ 8008 7997 7996 7995 ] final  -39.45 input   59.86 | X-H torsion
[ 10167 10162 10161 10158 ] final   -8.60 input  -65.29 | X-H torsion
[ 10718 10713 10712 10709 ] final    2.60 input   66.30 | X-H torsion
[ 10763 10752 10751 10750 ] final -133.16 input  -60.55 | X-H torsion
[ 11005 11000 10999 10996 ] final   30.07 input  -57.11 | X-H torsion

> <Gold.Protein.ActiveResidues>
 VAL166  LYS551  ARG553  GLY616  TRP617  ASP618  TYR619  PRO620  LYS621  CYS622 
 ASP623  PHE694  ASN695  SER759  ASP760  ASP761  ALA762  ILE779  LEU786  VAL792 
 PHE793  MET794  SER795  GLU796  ALA797  LYS798  CYS799  TRP800  GLU811  SER814 

> <Gold.Protein.RotatedAtoms>
  150.9879  134.9220  159.7881 H   0  0  0  0  0  0  0  0  0  0  0  0  # atno 6907 bound_to 6896
  152.5242  134.3322  159.9197 H   0  0  0  0  0  0  0  0  0  0  0  0  # atno 6908 bound_to 6896
  151.3328  133.3952  159.2698 H   0  0  0  0  0  0  0  0  0  0  0  0  # atno 6909 bound_to 6896
  144.9559  140.7395  143.4759 H   0  0  0  0  0  0  0  0  0  0  0  0  # atno 7974 bound_to 7965
  154.4023  140.1551  156.2865 H   0  0  0  0  0  0  0  0  0  0  0  0  # atno 8008 bound_to 7997
  155.8823  140.3443  155.5875 H   0  0  0  0  0  0  0  0  0  0  0  0  # atno 8009 bound_to 7997
  155.7652  140.0823  157.2126 H   0  0  0  0  0  0  0  0  0  0  0  0  # atno 8010 bound_to 7997
  140.7064  143.5950  150.8855 H   0  0  0  0  0  0  0  0  0  0  0  0  # atno 10167 bound_to 10162
  156.8654  130.5601  149.5660 H   0  0  0  0  0  0  0  0  0  0  0  0  # atno 10718 bound_to 10713
  154.8735  135.3775  154.4528 H   0  0  0  0  0  0  0  0  0  0  0  0  # atno 10763 bound_to 10752
  153.5203  135.7029  153.5740 H   0  0  0  0  0  0  0  0  0  0  0  0  # atno 10764 bound_to 10752
  153.3990  135.3953  155.1940 H   0  0  0  0  0  0  0  0  0  0  0  0  # atno 10765 bound_to 10752
  140.2982  134.2786  155.7760 H   0  0  0  0  0  0  0  0  0  0  0  0  # atno 11005 bound_to 11000
  145.2774  139.1931  143.4809 LP  0  0  0  0  0  0  0  0  0  0  0  0  # atno 17320 bound_to 7965
  146.3337  140.2730  142.8606 LP  0  0  0  0  0  0  0  0  0  0  0  0  # atno 17321 bound_to 7965
  139.9675  143.6094  152.2984 LP  0  0  0  0  0  0  0  0  0  0  0  0  # atno 17342 bound_to 10162
  139.6669  144.7662  151.1857 LP  0  0  0  0  0  0  0  0  0  0  0  0  # atno 17343 bound_to 10162
  156.0755  130.5778  150.9464 LP  0  0  0  0  0  0  0  0  0  0  0  0  # atno 17370 bound_to 10713
  157.6226  131.0928  150.8593 LP  0  0  0  0  0  0  0  0  0  0  0  0  # atno 17371 bound_to 10713
  141.2133  133.7629  156.9728 LP  0  0  0  0  0  0  0  0  0  0  0  0  # atno 17394 bound_to 11000
  140.1133  134.9463  157.2097 LP  0  0  0  0  0  0  0  0  0  0  0  0  # atno 17395 bound_to 11000

$$$$
