AV-unprocessed.smi:725|AV-procd|sdf|3509|dock8
  -GOLD-   22720 0503D 1   1.00000     0.00000
 Structure written by MMmdl.
 47 48  0  0  0  0  0  0  0  0  1 V2000
  152.6950  142.5820  162.0657 C   0  0  0  0  0  0  0  0  0  0  0  0
  152.3504  143.2721  160.7412 C   0  0  0  0  0  0  0  0  0  0  0  0
  151.5744  144.5877  160.9516 C   0  0  0  0  0  0  0  0  0  0  0  0
  150.9713  145.2359  159.6796 C   0  0  2  0  0  0  0  0  0  0  0  0
  151.9702  145.2386  158.5020 C   0  0  0  0  0  0  0  0  0  0  0  0
  150.6494  146.5766  159.9989 O   0  0  0  0  0  0  0  0  0  0  0  0
  149.6380  144.5206  159.3405 C   0  0  0  0  0  0  0  0  0  0  0  0
  149.7627  143.5248  158.2775 N   0  0  0  0  0  0  0  0  0  0  0  0
  150.1307  142.2432  158.4407 C   0  0  0  0  0  0  0  0  0  0  0  0
  150.4044  141.7458  159.5334 O   0  0  0  0  0  0  0  0  0  0  0  0
  150.1598  141.4245  157.1766 C   0  0  0  0  0  0  0  0  0  0  0  0
  151.3428  140.7310  156.8295 C   0  0  0  0  0  0  0  0  0  0  0  0
  151.3650  139.9271  155.6766 C   0  0  0  0  0  0  0  0  0  0  0  0
  150.1926  139.8355  154.9083 C   0  0  0  0  0  0  0  0  0  0  0  0
  149.0536  140.4843  155.2227 N   0  0  0  0  0  0  0  0  0  0  0  0
  149.0212  141.2661  156.3311 C   0  0  0  0  0  0  0  0  0  0  0  0
  147.8149  141.9506  156.5822 N   0  0  0  0  0  0  0  0  0  0  0  0
  147.2121  141.7917  157.9018 C   0  0  0  0  0  0  0  0  0  0  0  0
  146.0556  142.7917  158.0707 C   0  0  0  0  0  0  0  0  0  0  0  0
  145.1140  142.6159  157.0155 O   0  0  0  0  0  0  0  0  0  0  0  0
  145.6948  142.8463  155.7347 C   0  0  0  0  0  0  0  0  0  0  0  0
  146.8431  141.8503  155.5002 C   0  0  0  0  0  0  0  0  0  0  0  0
  153.2392  141.6540  161.8901 H   0  0  0  0  0  0  0  0  0  0  0  0
  151.7939  142.3377  162.6286 H   0  0  0  0  0  0  0  0  0  0  0  0
  153.3193  143.2200  162.6918 H   0  0  0  0  0  0  0  0  0  0  0  0
  153.2731  143.4628  160.1929 H   0  0  0  0  0  0  0  0  0  0  0  0
  151.7657  142.5810  160.1349 H   0  0  0  0  0  0  0  0  0  0  0  0
  150.7739  144.4048  161.6696 H   0  0  0  0  0  0  0  0  0  0  0  0
  152.2404  145.3069  161.4309 H   0  0  0  0  0  0  0  0  0  0  0  0
  152.2434  144.2218  158.2193 H   0  0  0  0  0  0  0  0  0  0  0  0
  152.8874  145.7732  158.7460 H   0  0  0  0  0  0  0  0  0  0  0  0
  151.5598  145.7276  157.6185 H   0  0  0  0  0  0  0  0  0  0  0  0
  150.3390  147.0048  159.2161 H   0  0  0  0  0  0  0  0  0  0  0  0
  149.2340  144.0525  160.2397 H   0  0  0  0  0  0  0  0  0  0  0  0
  148.8881  145.2494  159.0305 H   0  0  0  0  0  0  0  0  0  0  0  0
  149.5429  143.8348  157.3421 H   0  0  0  0  0  0  0  0  0  0  0  0
  152.2290  140.8012  157.4438 H   0  0  0  0  0  0  0  0  0  0  0  0
  152.2569  139.3883  155.3929 H   0  0  0  0  0  0  0  0  0  0  0  0
  150.1678  139.2257  154.0174 H   0  0  0  0  0  0  0  0  0  0  0  0
  146.8375  140.7735  158.0170 H   0  0  0  0  0  0  0  0  0  0  0  0
  147.9637  141.9535  158.6756 H   0  0  0  0  0  0  0  0  0  0  0  0
  145.5549  142.6301  159.0253 H   0  0  0  0  0  0  0  0  0  0  0  0
  146.4262  143.8182  158.0737 H   0  0  0  0  0  0  0  0  0  0  0  0
  144.9285  142.7236  154.9694 H   0  0  0  0  0  0  0  0  0  0  0  0
  146.0531  143.8749  155.6658 H   0  0  0  0  0  0  0  0  0  0  0  0
  147.3132  142.0469  154.5364 H   0  0  0  0  0  0  0  0  0  0  0  0
  146.4541  140.8319  155.4636 H   0  0  0  0  0  0  0  0  0  0  0  0
  1  2  1  0  0  0  0
  1 23  1  0  0  0  0
  1 24  1  0  0  0  0
  1 25  1  0  0  0  0
  2  3  1  0  0  0  0
  2 26  1  0  0  0  0
  2 27  1  0  0  0  0
  3  4  1  0  0  0  0
  3 28  1  0  0  0  0
  3 29  1  0  0  0  0
  4  5  1  0  0  0  0
  4  6  1  0  0  0  0
  4  7  1  0  0  0  0
  5 30  1  0  0  0  0
  5 31  1  0  0  0  0
  5 32  1  0  0  0  0
  6 33  1  0  0  0  0
  7  8  1  0  0  0  0
  7 34  1  0  0  0  0
  7 35  1  0  0  0  0
  8  9  1  0  0  0  0
  8 36  1  0  0  0  0
  9 10  2  0  0  0  0
  9 11  1  0  0  0  0
 11 16  1  0  0  0  0
 11 12  2  0  0  0  0
 12 13  1  0  0  0  0
 12 37  1  0  0  0  0
 13 14  2  0  0  0  0
 13 38  1  0  0  0  0
 14 15  1  0  0  0  0
 14 39  1  0  0  0  0
 15 16  2  0  0  0  0
 16 17  1  0  0  0  0
 17 22  1  0  0  0  0
 17 18  1  0  0  0  0
 18 19  1  0  0  0  0
 18 40  1  0  0  0  0
 18 41  1  0  0  0  0
 19 20  1  0  0  0  0
 19 42  1  0  0  0  0
 19 43  1  0  0  0  0
 20 21  1  0  0  0  0
 21 22  1  0  0  0  0
 21 44  1  0  0  0  0
 21 45  1  0  0  0  0
 22 46  1  0  0  0  0
 22 47  1  0  0  0  0
M  END
> <s_m_source_file>
AV-unprocessed.smi

> <i_m_source_file_index>
725

> <i_lp_mmshare_version>
43012

> <i_f3d_flags>
0

> <s_epik_input>
W0NIM11bQ0gyXVtDSDJdW0NAQF0oW0NIM10pKFtPSF0pW0NIMl1bTkhdQyg9TyljMVtjSF1bY0hdW2NIXW5jMU4yW0NIMl1bQ0gyXU9bQ0gyXVtDSDJdMg==

> <s_epik_cmdline>
J2VwaWtfcHl0aG9uJywgJy1waCcsICc3LjAnLCAnLXRuJywgJzgnLCAnLW1hJywgJzIwMCcsICctbWV0YWxfYmluZGluZycsICctaW1hZScsICc8aW5maWxlLm1hZT4nLCAnLW9tYWUnLCAnPG91dGZpbGUubWFlPic=

> <r_lp_tautomer_probability>
1

> <r_epik_Ionization_Penalty>
1.23446e-05

> <r_epik_Ionization_Penalty_Charging>
0

> <r_epik_Ionization_Penalty_Neutral>
1.23446e-05

> <r_epik_State_Penalty>
-0

> <r_epik_Charging_Adjusted_Penalty>
0

> <i_epik_Tot_Q>
0

> <i_epik_Tot_abs_Q>
0

> <r_epik_Metal_State_Penalty>
-0

> <b_epik_Metal_Only>
0

> <s_lp_Force_Field>
OPLS_2005

> <r_lp_Energy>
29.6434

> <b_lp_Chiralities_Consistent>
1

> <s_lp_Variant>
AV-unprocessed.smi:725-2

> <Gold.Version>
5.8.1

> <Gold.Id.Protein>
6NUR|6NUR_protein|mol2

> <Gold.PLP.Fitness>
46.1174

> <Gold.PLP.PLP>
-44.7069

> <Gold.PLP.part.hbond>
-3.3083

> <Gold.PLP.part.metal>
0.0000

> <Gold.PLP.part.buried>
-4.3968

> <Gold.PLP.part.nonpolar>
-37.8417

> <Gold.PLP.part.repulsive>
1.3407

> <Gold.PLP.ligand.clash>
0.0000

> <Gold.PLP.ligand.torsion>
2.3443

> <Gold.PLP.Chemscore.Hbond>
1.0000

> <Gold.PLP.Chemscore.CHOScore>
0.9302

> <Gold.PLP.Chemscore.Metal>
0.0000

> <Gold.Chemscore.Hbonds>
donor molecule, donor type, donor heavy atom, donor atom, acceptor molecule, acceptor atom, score
      L1  H     8    36       P1  8028  1.00

> <Gold.PLP.Chemscore.Internal.Correction>
0.3085

> <Gold.Rescore>
     Score         DG    S(hbond)    S(metal)    S(lipo)     H(rot)  DE(clash)    DE(int)     intcor
     10.77     -15.56       0.96        0.00     106.63       2.19       1.74       3.05       ----

> <Gold.Chemscore.Fitness>
10.7665

> <Gold.Chemscore.DG>
-15.5607

> <Gold.Chemscore.ZeroCoef>
-5.4800

> <Gold.Chemscore.Hbond>
0.9640

> <Gold.Chemscore.Metal>
0.0000

> <Gold.Chemscore.Lipo>
106.6322

> <Gold.Chemscore.Internal_Hbond>
0.0000

> <Gold.Chemscore.DEClash>
1.7424

> <Gold.Chemscore.DEInternal>
3.0519

> <Gold.Chemscore.Rot>
2.1933

> <Gold.Chemscore.Internal.Correction>
   9.000000E+99

> <Gold.Chemscore.Hbonds>
donor molecule, donor type, donor heavy atom, donor atom, acceptor molecule, acceptor atom, score
      L1  H     8    36       P1  8028  0.53

> <Gold.Chemscore.Hbond.Weighted>
-3.2196

> <Gold.Chemscore.Metal.Weighted>
-0.0000

> <Gold.Chemscore.Lipo.Weighted>
-12.4760

> <Gold.Chemscore.Internal_Hbond.Weighted>
0.0000

> <Gold.Chemscore.DEClash.Weighted>
1.7424

> <Gold.Chemscore.DEInternal.Weighted>
3.0519

> <Gold.Chemscore.Rot.Weighted>
5.6149

> <Gold.Chemscore.Internal.Correction.Weighted>
   9.000000E+99

> <Gold.Protein.RotatedTorsions>
[ 6907 6896 6895 6894 ] final  126.73 input  -60.11 | X-H torsion
[ 7974 7965 7964 7962 ] final  -32.99 input  175.53 | X-H torsion
[ 8008 7997 7996 7995 ] final  -10.96 input   59.86 | X-H torsion
[ 10167 10162 10161 10158 ] final   35.30 input  -65.29 | X-H torsion
[ 10718 10713 10712 10709 ] final  -21.68 input   66.30 | X-H torsion
[ 10763 10752 10751 10750 ] final  123.10 input  -60.55 | X-H torsion
[ 11005 11000 10999 10996 ] final -139.55 input  -57.11 | X-H torsion

> <Gold.Protein.ActiveResidues>
 VAL166  LYS551  ARG553  GLY616  TRP617  ASP618  TYR619  PRO620  LYS621  CYS622 
 ASP623  PHE694  ASN695  SER759  ASP760  ASP761  ALA762  ILE779  LEU786  VAL792 
 PHE793  MET794  SER795  GLU796  ALA797  LYS798  CYS799  TRP800  GLU811  SER814 

> <Gold.Protein.RotatedAtoms>
  152.3877  133.6634  159.6211 H   0  0  0  0  0  0  0  0  0  0  0  0  # atno 6907 bound_to 6896
  150.7792  133.9008  159.3349 H   0  0  0  0  0  0  0  0  0  0  0  0  # atno 6908 bound_to 6896
  151.6801  135.0964  160.0265 H   0  0  0  0  0  0  0  0  0  0  0  0  # atno 6909 bound_to 6896
  146.0946  140.5861  142.8849 H   0  0  0  0  0  0  0  0  0  0  0  0  # atno 7974 bound_to 7965
  154.5507  140.2315  155.8489 H   0  0  0  0  0  0  0  0  0  0  0  0  # atno 8008 bound_to 7997
  156.1944  140.3069  155.9359 H   0  0  0  0  0  0  0  0  0  0  0  0  # atno 8009 bound_to 7997
  155.3075  140.0434  157.3023 H   0  0  0  0  0  0  0  0  0  0  0  0  # atno 8010 bound_to 7997
  140.4235  144.1426  150.6150 H   0  0  0  0  0  0  0  0  0  0  0  0  # atno 10167 bound_to 10162
  156.5148  130.4618  149.6628 H   0  0  0  0  0  0  0  0  0  0  0  0  # atno 10718 bound_to 10713
  153.6402  135.3380  155.3069 H   0  0  0  0  0  0  0  0  0  0  0  0  # atno 10763 bound_to 10752
  154.8561  135.4316  154.2013 H   0  0  0  0  0  0  0  0  0  0  0  0  # atno 10764 bound_to 10752
  153.2930  135.7018  153.7349 H   0  0  0  0  0  0  0  0  0  0  0  0  # atno 10765 bound_to 10752
  140.8508  134.2288  157.4761 H   0  0  0  0  0  0  0  0  0  0  0  0  # atno 11005 bound_to 11000
  144.7386  140.4878  143.6886 LP  0  0  0  0  0  0  0  0  0  0  0  0  # atno 17320 bound_to 7965
  145.5973  139.1500  143.3149 LP  0  0  0  0  0  0  0  0  0  0  0  0  # atno 17321 bound_to 7965
  140.4507  143.2488  151.9351 LP  0  0  0  0  0  0  0  0  0  0  0  0  # atno 17342 bound_to 10162
  139.4783  144.5565  151.8306 LP  0  0  0  0  0  0  0  0  0  0  0  0  # atno 17343 bound_to 10162
  156.3206  130.7278  151.2189 LP  0  0  0  0  0  0  0  0  0  0  0  0  # atno 17370 bound_to 10713
  157.7445  131.0457  150.4855 LP  0  0  0  0  0  0  0  0  0  0  0  0  # atno 17371 bound_to 10713
  139.8704  134.9682  156.4624 LP  0  0  0  0  0  0  0  0  0  0  0  0  # atno 17394 bound_to 11000
  140.8792  133.7931  155.9448 LP  0  0  0  0  0  0  0  0  0  0  0  0  # atno 17395 bound_to 11000

$$$$
