AV-unprocessed.smi:44|AV-procd|sdf|395|dock5
  -GOLD-   2262016253D 1   1.00000     0.00000
 Structure written by MMmdl.
 29 31  0  0  0  0  0  0  0  0  1 V2000
  151.8785  138.4562  155.7200 O   0  0  0  0  0  0  0  0  0  0  0  0
  151.6030  139.5679  156.1665 C   0  0  0  0  0  0  0  0  0  0  0  0
  150.7045  140.4063  155.5949 N   0  0  0  0  0  0  0  0  0  0  0  0
  150.3823  141.6892  156.1046 C   0  0  0  0  0  0  0  0  0  0  0  0
  150.9061  142.2232  157.1776 N   0  0  0  0  0  0  0  0  0  0  0  0
  151.8269  141.3903  157.7812 C   0  0  0  0  0  0  0  0  0  0  0  0
  152.2177  140.1377  157.3885 C   0  0  0  0  0  0  0  0  0  0  0  0
  153.1651  139.6070  158.2546 N   0  0  0  0  0  0  0  0  0  0  0  0
  153.3067  140.5821  159.1499 C   0  0  0  0  0  0  0  0  0  0  0  0
  152.5507  141.6768  158.9372 N   0  0  0  0  0  0  0  0  0  0  0  0
  152.5159  142.9069  159.7859 C   0  0  1  0  0  0  0  0  0  0  0  0
  152.8916  144.1520  158.9711 C   0  0  0  0  0  0  0  0  0  0  0  0
  151.6025  144.9517  158.9691 C   0  0  0  0  0  0  0  0  0  0  0  0
  150.9035  144.4686  160.2380 C   0  0  1  0  0  0  0  0  0  0  0  0
  149.3828  144.6803  160.2132 C   0  0  0  0  0  0  0  0  0  0  0  0
  148.8224  144.0402  159.0869 O   0  0  0  0  0  0  0  0  0  0  0  0
  151.2104  143.0808  160.2438 O   0  0  0  0  0  0  0  0  0  0  0  0
  150.2408  140.0907  154.7553 H   0  0  0  0  0  0  0  0  0  0  0  0
  153.2006  142.7097  160.6120 H   0  0  0  0  0  0  0  0  0  0  0  0
  151.3574  144.9510  161.1061 H   0  0  0  0  0  0  0  0  0  0  0  0
  149.6352  142.2097  155.5039 H   0  0  0  0  0  0  0  0  0  0  0  0
  153.9849  140.4986  159.9864 H   0  0  0  0  0  0  0  0  0  0  0  0
  153.6814  144.6878  159.4988 H   0  0  0  0  0  0  0  0  0  0  0  0
  153.2437  143.9017  157.9692 H   0  0  0  0  0  0  0  0  0  0  0  0
  151.7724  146.0286  158.9642 H   0  0  0  0  0  0  0  0  0  0  0  0
  151.0103  144.7019  158.0883 H   0  0  0  0  0  0  0  0  0  0  0  0
  148.9285  144.2373  161.1000 H   0  0  0  0  0  0  0  0  0  0  0  0
  149.1303  145.7414  160.2149 H   0  0  0  0  0  0  0  0  0  0  0  0
  148.5386  144.7015  158.4746 H   0  0  0  0  0  0  0  0  0  0  0  0
  1  2  2  0  0  0  0
  2  7  1  0  0  0  0
  2  3  1  0  0  0  0
  3 18  1  0  0  0  0
  3  4  1  0  0  0  0
  4  5  2  0  0  0  0
  4 21  1  0  0  0  0
  5  6  1  0  0  0  0
  6 10  1  0  0  0  0
  6  7  2  0  0  0  0
  7  8  1  0  0  0  0
  8  9  2  0  0  0  0
  9 10  1  0  0  0  0
  9 22  1  0  0  0  0
 10 11  1  0  0  0  0
 11 19  1  0  0  0  0
 11 17  1  0  0  0  0
 11 12  1  0  0  0  0
 12 13  1  0  0  0  0
 12 23  1  0  0  0  0
 12 24  1  0  0  0  0
 13 14  1  0  0  0  0
 13 25  1  0  0  0  0
 13 26  1  0  0  0  0
 14 20  1  0  0  0  0
 14 15  1  0  0  0  0
 14 17  1  0  0  0  0
 15 16  1  0  0  0  0
 15 27  1  0  0  0  0
 15 28  1  0  0  0  0
 16 29  1  0  0  0  0
M  END
> <s_m_source_file>
AV-unprocessed.smi

> <i_m_source_file_index>
44

> <i_lp_mmshare_version>
43012

> <i_f3d_flags>
0

> <s_epik_input>
bjFbY0hdW25IXWMoPU8pYyhjMTIpbltjSF1uMltDQEhdM1tDSDJdW0NIMl1bQ0BIXShPMylbQ0gyXVtPSF0=

> <s_epik_cmdline>
J2VwaWtfcHl0aG9uJywgJy1waCcsICc3LjAnLCAnLXRuJywgJzgnLCAnLW1hJywgJzIwMCcsICctbWV0YWxfYmluZGluZycsICctaW1hZScsICc8aW5maWxlLm1hZT4nLCAnLW9tYWUnLCAnPG91dGZpbGUubWFlPic=

> <r_lp_tautomer_probability>
0.85571

> <r_epik_Ionization_Penalty>
0.00801444

> <r_epik_Ionization_Penalty_Charging>
0.00794574

> <r_epik_Ionization_Penalty_Neutral>
6.87072e-05

> <r_epik_State_Penalty>
0.0826172

> <r_epik_Charging_Adjusted_Penalty>
0.090563

> <i_epik_Tot_Q>
0

> <i_epik_Tot_abs_Q>
0

> <r_epik_Metal_State_Penalty>
0.440697

> <b_epik_Metal_Only>
0

> <s_epik_Chemistry_Notes>
This compound contains an acetal/aminal-like group ( X-CH(R)-Y where X, Y are N, S, or O) that may be acid/base labile, releasing an aldehyde.

> <s_lp_Force_Field>
OPLS_2005

> <r_lp_Energy>
43.2881

> <b_lp_Chiralities_Consistent>
1

> <s_lp_Variant>
AV-unprocessed.smi:44-1

> <Gold.Version>
5.8.1

> <Gold.Id.Protein>
6NUR|6NUR_protein|mol2

> <Gold.PLP.Fitness>
42.4190

> <Gold.PLP.PLP>
-34.1439

> <Gold.PLP.part.hbond>
-3.0000

> <Gold.PLP.part.metal>
0.0000

> <Gold.PLP.part.buried>
-6.0004

> <Gold.PLP.part.nonpolar>
-25.5757

> <Gold.PLP.part.repulsive>
0.2839

> <Gold.PLP.ligand.clash>
0.0000

> <Gold.PLP.ligand.torsion>
0.0071

> <Gold.PLP.Chemscore.Hbond>
1.7650

> <Gold.PLP.Chemscore.CHOScore>
0.9935

> <Gold.PLP.Chemscore.Metal>
0.0000

> <Gold.Chemscore.Hbonds>
donor molecule, donor type, donor heavy atom, donor atom, acceptor molecule, acceptor atom, score
      L1  H    16    29       P1  8029  1.00
      P1  H  7997  8009       L1     8  0.76
      L1  C     4    21       P1  8028  0.75

> <Gold.PLP.Chemscore.Internal.Correction>
0.0139

> <Gold.Rescore>
     Score         DG    S(hbond)    S(metal)    S(lipo)     H(rot)  DE(clash)    DE(int)     intcor
      9.13      -9.17       0.98        0.00      53.20       2.27       0.03       0.01       ----

> <Gold.Chemscore.Fitness>
9.1276

> <Gold.Chemscore.DG>
-9.1711

> <Gold.Chemscore.ZeroCoef>
-5.4800

> <Gold.Chemscore.Hbond>
0.9829

> <Gold.Chemscore.Metal>
0.0000

> <Gold.Chemscore.Lipo>
53.2029

> <Gold.Chemscore.Internal_Hbond>
0.0000

> <Gold.Chemscore.DEClash>
0.0341

> <Gold.Chemscore.DEInternal>
0.0095

> <Gold.Chemscore.Rot>
2.2720

> <Gold.Chemscore.Internal.Correction>
   9.000000E+99

> <Gold.Chemscore.Hbonds>
donor molecule, donor type, donor heavy atom, donor atom, acceptor molecule, acceptor atom, score
      L1  H    16    29       P1  8029  0.85
      P1  H  7997  8009       L1     8  0.03

> <Gold.Chemscore.Hbond.Weighted>
-3.2828

> <Gold.Chemscore.Metal.Weighted>
-0.0000

> <Gold.Chemscore.Lipo.Weighted>
-6.2247

> <Gold.Chemscore.Internal_Hbond.Weighted>
0.0000

> <Gold.Chemscore.DEClash.Weighted>
0.0341

> <Gold.Chemscore.DEInternal.Weighted>
0.0095

> <Gold.Chemscore.Rot.Weighted>
5.8164

> <Gold.Chemscore.Internal.Correction.Weighted>
   9.000000E+99

> <Gold.Protein.RotatedTorsions>
[ 6907 6896 6895 6894 ] final -104.90 input  -60.11 | X-H torsion
[ 7974 7965 7964 7962 ] final -101.02 input  175.53 | X-H torsion
[ 8008 7997 7996 7995 ] final  142.51 input   59.86 | X-H torsion
[ 10167 10162 10161 10158 ] final  -94.31 input  -65.29 | X-H torsion
[ 10718 10713 10712 10709 ] final  159.36 input   66.30 | X-H torsion
[ 10763 10752 10751 10750 ] final -169.48 input  -60.55 | X-H torsion
[ 11005 11000 10999 10996 ] final  -63.19 input  -57.11 | X-H torsion

> <Gold.Protein.ActiveResidues>
 VAL166  LYS551  ARG553  GLY616  TRP617  ASP618  TYR619  PRO620  LYS621  CYS622 
 ASP623  PHE694  ASN695  SER759  ASP760  ASP761  ALA762  ILE779  LEU786  VAL792 
 PHE793  MET794  SER795  GLU796  ALA797  LYS798  CYS799  TRP800  GLU811  SER814 

> <Gold.Protein.RotatedAtoms>
  150.7310  134.0208  159.3700 H   0  0  0  0  0  0  0  0  0  0  0  0  # atno 6907 bound_to 6896
  151.8173  135.0660  160.0430 H   0  0  0  0  0  0  0  0  0  0  0  0  # atno 6908 bound_to 6896
  152.3029  133.5638  159.5667 H   0  0  0  0  0  0  0  0  0  0  0  0  # atno 6909 bound_to 6896
  145.2870  140.9342  143.2899 H   0  0  0  0  0  0  0  0  0  0  0  0  # atno 7974 bound_to 7965
  156.2948  140.2287  156.4739 H   0  0  0  0  0  0  0  0  0  0  0  0  # atno 8008 bound_to 7997
  154.7911  140.0454  157.1223 H   0  0  0  0  0  0  0  0  0  0  0  0  # atno 8009 bound_to 7997
  154.9644  140.3058  155.5020 H   0  0  0  0  0  0  0  0  0  0  0  0  # atno 8010 bound_to 7997
  140.3157  143.3078  152.0100 H   0  0  0  0  0  0  0  0  0  0  0  0  # atno 10167 bound_to 10162
  157.1652  131.0597  151.2211 H   0  0  0  0  0  0  0  0  0  0  0  0  # atno 10718 bound_to 10713
  154.6518  135.2912  154.9977 H   0  0  0  0  0  0  0  0  0  0  0  0  # atno 10763 bound_to 10752
  154.1068  135.6568  153.4882 H   0  0  0  0  0  0  0  0  0  0  0  0  # atno 10764 bound_to 10752
  153.0380  135.5255  154.7429 H   0  0  0  0  0  0  0  0  0  0  0  0  # atno 10765 bound_to 10752
  141.1385  133.6649  156.5642 H   0  0  0  0  0  0  0  0  0  0  0  0  # atno 11005 bound_to 11000
  144.9205  139.4417  143.6543 LP  0  0  0  0  0  0  0  0  0  0  0  0  # atno 17320 bound_to 7965
  146.3198  139.8063  142.8955 LP  0  0  0  0  0  0  0  0  0  0  0  0  # atno 17321 bound_to 7965
  139.4884  144.6350  151.6994 LP  0  0  0  0  0  0  0  0  0  0  0  0  # atno 17342 bound_to 10162
  140.5528  144.0397  150.6134 LP  0  0  0  0  0  0  0  0  0  0  0  0  # atno 17343 bound_to 10162
  157.4095  130.7377  149.6828 LP  0  0  0  0  0  0  0  0  0  0  0  0  # atno 17370 bound_to 10713
  155.9747  130.4099  150.3903 LP  0  0  0  0  0  0  0  0  0  0  0  0  # atno 17371 bound_to 10713
  140.3964  134.7395  157.4753 LP  0  0  0  0  0  0  0  0  0  0  0  0  # atno 17394 bound_to 11000
  140.0528  134.6106  155.8841 LP  0  0  0  0  0  0  0  0  0  0  0  0  # atno 17395 bound_to 11000

$$$$
