AV-unprocessed.smi:315|AV-procd|sdf|2322|dock2
  -GOLD-   2262022223D 1   1.00000     0.00000
 Structure written by MMmdl.
 47 49  0  0  0  0  0  0  0  0  2 V2000
  152.3342  138.3552  154.4702 C   0  0  0  0  0  0  0  0  0  0  0  0
  150.9513  137.8327  154.8682 C   0  0  0  0  0  0  0  0  0  0  0  0
  150.0281  138.1846  153.8441 O   0  0  0  0  0  0  0  0  0  0  0  0
  149.3164  139.3632  153.9616 C   0  0  0  0  0  0  0  0  0  0  0  0
  149.8839  140.4018  154.6232 N   0  0  0  0  0  0  0  0  0  0  0  0
  149.1829  141.5497  154.7336 C   0  0  0  0  0  0  0  0  0  0  0  0
  147.8955  141.7234  154.1912 C   0  0  0  0  0  0  0  0  0  0  0  0
  147.3049  140.6457  153.5053 C   0  0  0  0  0  0  0  0  0  0  0  0
  148.0236  139.4323  153.3949 C   0  0  0  0  0  0  0  0  0  0  0  0
  147.5336  138.2902  152.7110 N   0  0  0  0  0  0  0  0  0  0  0  0
  146.2550  137.9652  152.4453 C   0  0  0  0  0  0  0  0  0  0  0  0
  145.2973  138.7223  152.5838 O   0  0  0  0  0  0  0  0  0  0  0  0
  146.0921  136.6995  152.0181 N   0  0  0  0  0  0  0  0  0  0  0  0
  144.8451  136.0235  151.6436 C   0  0  2  0  0  0  0  0  0  0  0  0
  144.1039  135.4246  152.8480 C   0  0  0  0  0  0  0  0  0  0  0  0
  143.3985  134.1672  152.3084 C   0  0  0  0  0  0  0  0  0  0  0  0
  143.7430  134.0889  150.8722 N   0  3  2  0  0  0  0  0  0  0  0  0
  143.6754  132.7448  150.2438 C   0  0  0  0  0  0  0  0  0  0  0  0
  144.9005  131.8741  150.5690 C   0  0  0  0  0  0  0  0  0  0  0  0
  146.1978  132.6130  150.2254 C   0  0  0  0  0  0  0  0  0  0  0  0
  146.2516  133.9400  150.9892 C   0  0  0  0  0  0  0  0  0  0  0  0
  145.0137  134.8234  150.6914 C   0  0  2  0  0  0  0  0  0  0  0  0
  153.0760  138.1125  155.2312 H   0  0  0  0  0  0  0  0  0  0  0  0
  152.3224  139.4385  154.3477 H   0  0  0  0  0  0  0  0  0  0  0  0
  152.6635  137.9148  153.5291 H   0  0  0  0  0  0  0  0  0  0  0  0
  150.9892  136.7492  154.9918 H   0  0  0  0  0  0  0  0  0  0  0  0
  150.6520  138.2733  155.8205 H   0  0  0  0  0  0  0  0  0  0  0  0
  149.6654  142.3560  155.2656 H   0  0  0  0  0  0  0  0  0  0  0  0
  147.3746  142.6636  154.2949 H   0  0  0  0  0  0  0  0  0  0  0  0
  146.3260  140.7697  153.0680 H   0  0  0  0  0  0  0  0  0  0  0  0
  148.2082  137.5515  152.5785 H   0  0  0  0  0  0  0  0  0  0  0  0
  146.9298  136.1382  151.9595 H   0  0  0  0  0  0  0  0  0  0  0  0
  144.1791  136.7499  151.1733 H   0  0  0  0  0  0  0  0  0  0  0  0
  144.8033  135.1401  153.6359 H   0  0  0  0  0  0  0  0  0  0  0  0
  143.3993  136.1368  153.2787 H   0  0  0  0  0  0  0  0  0  0  0  0
  143.7536  133.2849  152.8419 H   0  0  0  0  0  0  0  0  0  0  0  0
  142.3168  134.2187  152.4328 H   0  0  0  0  0  0  0  0  0  0  0  0
  142.7543  132.2429  150.5425 H   0  0  0  0  0  0  0  0  0  0  0  0
  143.6142  132.8855  149.1639 H   0  0  0  0  0  0  0  0  0  0  0  0
  144.8997  131.6010  151.6248 H   0  0  0  0  0  0  0  0  0  0  0  0
  144.8469  130.9387  150.0113 H   0  0  0  0  0  0  0  0  0  0  0  0
  147.0607  131.9972  150.4814 H   0  0  0  0  0  0  0  0  0  0  0  0
  146.2515  132.7980  149.1519 H   0  0  0  0  0  0  0  0  0  0  0  0
  146.3192  133.7322  152.0579 H   0  0  0  0  0  0  0  0  0  0  0  0
  147.1657  134.4711  150.7229 H   0  0  0  0  0  0  0  0  0  0  0  0
  145.0658  135.1591  149.6558 H   0  0  0  0  0  0  0  0  0  0  0  0
  143.0413  134.6497  150.4103 H   0  0  0  0  0  0  0  0  0  0  0  0
  1  2  1  0  0  0  0
  1 23  1  0  0  0  0
  1 24  1  0  0  0  0
  1 25  1  0  0  0  0
  2  3  1  0  0  0  0
  2 26  1  0  0  0  0
  2 27  1  0  0  0  0
  3  4  1  0  0  0  0
  4  9  1  0  0  0  0
  4  5  2  0  0  0  0
  5  6  1  0  0  0  0
  6  7  2  0  0  0  0
  6 28  1  0  0  0  0
  7  8  1  0  0  0  0
  7 29  1  0  0  0  0
  8  9  2  0  0  0  0
  8 30  1  0  0  0  0
  9 10  1  0  0  0  0
 10 11  1  0  0  0  0
 10 31  1  0  0  0  0
 11 12  2  0  0  0  0
 11 13  1  0  0  0  0
 13 14  1  0  0  0  0
 13 32  1  0  0  0  0
 14 22  1  0  0  0  0
 14 15  1  0  0  0  0
 14 33  1  0  0  0  0
 15 16  1  0  0  0  0
 15 34  1  0  0  0  0
 15 35  1  0  0  0  0
 16 17  1  0  0  0  0
 16 36  1  0  0  0  0
 16 37  1  0  0  0  0
 17 22  1  0  0  0  0
 17 18  1  0  0  0  0
 17 47  1  0  0  0  0
 18 19  1  0  0  0  0
 18 38  1  0  0  0  0
 18 39  1  0  0  0  0
 19 20  1  0  0  0  0
 19 40  1  0  0  0  0
 19 41  1  0  0  0  0
 20 21  1  0  0  0  0
 20 42  1  0  0  0  0
 20 43  1  0  0  0  0
 21 22  1  0  0  0  0
 21 44  1  0  0  0  0
 21 45  1  0  0  0  0
 22 46  1  0  0  0  0
M  CHG  1  17   1
M  END
> <s_m_source_file>
AV-unprocessed.smi

> <i_m_source_file_index>
315

> <i_lp_mmshare_version>
43012

> <i_f3d_flags>
0

> <s_epik_input>
W0NIM11bQ0gyXU9jMW5bY0hdW2NIXVtjSF1jMVtOSF1DKD1PKVtOSF1bQ0BIXShbQ0gyXVtDSDJdMilbQ0BASF0oTjIzKVtDSDJdW0NIMl1bQ0gyXVtDSDJdMw==

> <s_epik_cmdline>
J2VwaWtfcHl0aG9uJywgJy1waCcsICc3LjAnLCAnLXRuJywgJzgnLCAnLW1hJywgJzIwMCcsICctbWV0YWxfYmluZGluZycsICctaW1hZScsICc8aW5maWxlLm1hZT4nLCAnLW9tYWUnLCAnPG91dGZpbGUubWFlPic=

> <r_lp_tautomer_probability>
1

> <r_epik_Ionization_Penalty>
0.00106455

> <r_epik_Ionization_Penalty_Charging>
0.000974069

> <r_epik_Ionization_Penalty_Neutral>
9.04821e-05

> <r_epik_State_Penalty>
0.000633842

> <r_epik_Charging_Adjusted_Penalty>
0.00160791

> <i_epik_Tot_Q>
1

> <i_epik_Tot_abs_Q>
1

> <r_epik_Metal_State_Penalty>
-0

> <b_epik_Metal_Only>
0

> <s_lp_Force_Field>
OPLS_2005

> <r_lp_Energy>
48.3447

> <b_lp_Chiralities_Consistent>
1

> <s_lp_Variant>
AV-unprocessed.smi:315-7

> <Gold.Version>
5.8.1

> <Gold.Id.Protein>
6NUR|6NUR_protein|mol2

> <Gold.PLP.Fitness>
50.1610

> <Gold.PLP.PLP>
-38.4987

> <Gold.PLP.part.hbond>
-4.7864

> <Gold.PLP.part.metal>
0.0000

> <Gold.PLP.part.buried>
-1.9266

> <Gold.PLP.part.nonpolar>
-39.5977

> <Gold.PLP.part.repulsive>
6.9131

> <Gold.PLP.ligand.clash>
0.0000

> <Gold.PLP.ligand.torsion>
1.0408

> <Gold.PLP.Chemscore.Hbond>
3.5922

> <Gold.PLP.Chemscore.CHOScore>
0.9880

> <Gold.PLP.Chemscore.Metal>
0.0000

> <Gold.Chemscore.Hbonds>
donor molecule, donor type, donor heavy atom, donor atom, acceptor molecule, acceptor atom, score
      L1  H    10    31       P1  7948  1.00
      L1  H    13    32       P1  7948  0.88
      L1  H    17    47       P1 10186  0.88
      P1  H  7989  7998       L1     5  0.70
      L1  C     6    28       P1  8028  0.99

> <Gold.PLP.Chemscore.Internal.Correction>
0.0030

> <Gold.Rescore>
     Score         DG    S(hbond)    S(metal)    S(lipo)     H(rot)  DE(clash)    DE(int)     intcor
     16.40     -20.88       2.22        0.00      98.28       1.38       2.22       2.26       ----

> <Gold.Chemscore.Fitness>
16.4005

> <Gold.Chemscore.DG>
-20.8845

> <Gold.Chemscore.ZeroCoef>
-5.4800

> <Gold.Chemscore.Hbond>
2.2247

> <Gold.Chemscore.Metal>
0.0000

> <Gold.Chemscore.Lipo>
98.2836

> <Gold.Chemscore.Internal_Hbond>
0.0000

> <Gold.Chemscore.DEClash>
2.2196

> <Gold.Chemscore.DEInternal>
2.2644

> <Gold.Chemscore.Rot>
1.3770

> <Gold.Chemscore.Internal.Correction>
   9.000000E+99

> <Gold.Chemscore.Hbonds>
donor molecule, donor type, donor heavy atom, donor atom, acceptor molecule, acceptor atom, score
      L1  H    10    31       P1  7948  0.99
      L1  H    13    32       P1  7948  0.83
      L1  H    17    47       P1 10186  0.22
      P1  H  7989  7998       L1     5  0.19

> <Gold.Chemscore.Hbond.Weighted>
-7.4304

> <Gold.Chemscore.Metal.Weighted>
-0.0000

> <Gold.Chemscore.Lipo.Weighted>
-11.4992

> <Gold.Chemscore.Internal_Hbond.Weighted>
0.0000

> <Gold.Chemscore.DEClash.Weighted>
2.2196

> <Gold.Chemscore.DEInternal.Weighted>
2.2644

> <Gold.Chemscore.Rot.Weighted>
3.5252

> <Gold.Chemscore.Internal.Correction.Weighted>
   9.000000E+99

> <Gold.Protein.RotatedTorsions>
[ 6907 6896 6895 6894 ] final -147.57 input  -60.11 | X-H torsion
[ 7974 7965 7964 7962 ] final  -94.34 input  175.53 | X-H torsion
[ 8008 7997 7996 7995 ] final -102.07 input   59.86 | X-H torsion
[ 10167 10162 10161 10158 ] final   22.14 input  -65.29 | X-H torsion
[ 10718 10713 10712 10709 ] final   48.78 input   66.30 | X-H torsion
[ 10763 10752 10751 10750 ] final  -64.11 input  -60.55 | X-H torsion
[ 11005 11000 10999 10996 ] final   82.29 input  -57.11 | X-H torsion

> <Gold.Protein.ActiveResidues>
 VAL166  LYS551  ARG553  GLY616  TRP617  ASP618  TYR619  PRO620  LYS621  CYS622 
 ASP623  PHE694  ASN695  SER759  ASP760  ASP761  ALA762  ILE779  LEU786  VAL792 
 PHE793  MET794  SER795  GLU796  ALA797  LYS798  CYS799  TRP800  GLU811  SER814 

> <Gold.Protein.RotatedAtoms>
  151.1576  133.4866  159.2594 H   0  0  0  0  0  0  0  0  0  0  0  0  # atno 6907 bound_to 6896
  151.1488  135.0216  159.8669 H   0  0  0  0  0  0  0  0  0  0  0  0  # atno 6908 bound_to 6896
  152.5463  134.1462  159.8553 H   0  0  0  0  0  0  0  0  0  0  0  0  # atno 6909 bound_to 6896
  145.3746  140.9510  143.2428 H   0  0  0  0  0  0  0  0  0  0  0  0  # atno 7974 bound_to 7965
  154.8514  140.0430  157.1607 H   0  0  0  0  0  0  0  0  0  0  0  0  # atno 8008 bound_to 7997
  154.8938  140.2990  155.5335 H   0  0  0  0  0  0  0  0  0  0  0  0  # atno 8009 bound_to 7997
  156.2996  140.2388  156.3957 H   0  0  0  0  0  0  0  0  0  0  0  0  # atno 8010 bound_to 7997
  140.5372  143.9740  150.6498 H   0  0  0  0  0  0  0  0  0  0  0  0  # atno 10167 bound_to 10162
  157.4721  130.8262  149.7999 H   0  0  0  0  0  0  0  0  0  0  0  0  # atno 10718 bound_to 10713
  154.3251  135.6188  153.5525 H   0  0  0  0  0  0  0  0  0  0  0  0  # atno 10763 bound_to 10752
  152.9816  135.5733  154.5025 H   0  0  0  0  0  0  0  0  0  0  0  0  # atno 10764 bound_to 10752
  154.4701  135.2859  155.1626 H   0  0  0  0  0  0  0  0  0  0  0  0  # atno 10765 bound_to 10752
  139.9069  134.8060  156.2155 H   0  0  0  0  0  0  0  0  0  0  0  0  # atno 11005 bound_to 11000
  144.8552  139.5261  143.6838 LP  0  0  0  0  0  0  0  0  0  0  0  0  # atno 17320 bound_to 7965
  146.2870  139.7031  142.9188 LP  0  0  0  0  0  0  0  0  0  0  0  0  # atno 17321 bound_to 7965
  140.3131  143.3185  152.0859 LP  0  0  0  0  0  0  0  0  0  0  0  0  # atno 17342 bound_to 10162
  139.4975  144.6623  151.6435 LP  0  0  0  0  0  0  0  0  0  0  0  0  # atno 17343 bound_to 10162
  156.0078  130.3847  150.2368 LP  0  0  0  0  0  0  0  0  0  0  0  0  # atno 17370 bound_to 10713
  157.0551  131.0074  151.3241 LP  0  0  0  0  0  0  0  0  0  0  0  0  # atno 17371 bound_to 10713
  141.0439  133.6923  156.1647 LP  0  0  0  0  0  0  0  0  0  0  0  0  # atno 17394 bound_to 11000
  140.6914  134.4662  157.5588 LP  0  0  0  0  0  0  0  0  0  0  0  0  # atno 17395 bound_to 11000

$$$$
