AV-unprocessed.smi:2166|AV-procd|sdf|8814|dock5
  -GOLD-   2272012 03D 1   1.00000     0.00000
 Structure written by MMmdl.
 38 39  0  0  0  0  0  0  0  0  1 V2000
  155.8534  139.9446  166.6237 C   0  0  0  0  0  0  0  0  0  0  0  0
  155.1924  141.3405  167.5755 S   0  0  0  0  0  0  0  0  0  0  0  0
  155.9934  142.7430  166.7402 C   0  0  2  0  0  0  0  0  0  0  0  0
  156.1937  143.9056  167.7258 C   0  0  0  0  0  0  0  0  0  0  0  0
  155.2113  143.1940  165.4996 C   0  0  0  0  0  0  0  0  0  0  0  0
  154.8631  144.3701  165.3895 O   0  0  0  0  0  0  0  0  0  0  0  0
  154.9472  142.2316  164.5954 N   0  0  0  0  0  0  0  0  0  0  0  0
  154.2333  142.3406  163.3731 C   0  0  0  0  0  0  0  0  0  0  0  0
  153.2741  143.3765  163.3340 C   0  0  0  0  0  0  0  0  0  0  0  0
  152.5152  143.5750  162.1650 C   0  0  0  0  0  0  0  0  0  0  0  0
  152.7316  142.7325  161.0580 C   0  0  0  0  0  0  0  0  0  0  0  0
  151.9869  142.9188  159.8848 N   0  0  0  0  0  0  0  0  0  0  0  0
  152.2327  144.2013  159.2370 C   0  0  0  0  0  0  0  0  0  0  0  0
  151.2923  144.3708  158.0306 C   0  0  0  0  0  0  0  0  0  0  0  0
  151.4571  143.2724  157.1379 O   0  0  0  0  0  0  0  0  0  0  0  0
  151.1438  142.0281  157.7580 C   0  0  0  0  0  0  0  0  0  0  0  0
  152.0804  141.7984  158.9574 C   0  0  0  0  0  0  0  0  0  0  0  0
  153.7080  141.7197  161.1857 C   0  0  0  0  0  0  0  0  0  0  0  0
  154.4357  141.5288  162.3062 N   0  0  0  0  0  0  0  0  0  0  0  0
  155.4949  139.0044  167.0427 H   0  0  0  0  0  0  0  0  0  0  0  0
  156.9428  139.9424  166.6541 H   0  0  0  0  0  0  0  0  0  0  0  0
  155.5321  139.9984  165.5837 H   0  0  0  0  0  0  0  0  0  0  0  0
  156.9832  142.4069  166.4271 H   0  0  0  0  0  0  0  0  0  0  0  0
  156.6666  144.7605  167.2406 H   0  0  0  0  0  0  0  0  0  0  0  0
  156.8348  143.6052  168.5548 H   0  0  0  0  0  0  0  0  0  0  0  0
  155.2466  144.2434  168.1486 H   0  0  0  0  0  0  0  0  0  0  0  0
  155.2911  141.3087  164.8164 H   0  0  0  0  0  0  0  0  0  0  0  0
  153.1188  144.0184  164.1891 H   0  0  0  0  0  0  0  0  0  0  0  0
  151.7798  144.3650  162.1211 H   0  0  0  0  0  0  0  0  0  0  0  0
  152.0758  145.0114  159.9502 H   0  0  0  0  0  0  0  0  0  0  0  0
  153.2702  144.2578  158.9051 H   0  0  0  0  0  0  0  0  0  0  0  0
  150.2522  144.4371  158.3539 H   0  0  0  0  0  0  0  0  0  0  0  0
  151.5213  145.2963  157.5023 H   0  0  0  0  0  0  0  0  0  0  0  0
  150.0990  142.0201  158.0731 H   0  0  0  0  0  0  0  0  0  0  0  0
  151.2627  141.2269  157.0287 H   0  0  0  0  0  0  0  0  0  0  0  0
  153.1080  141.6910  158.6075 H   0  0  0  0  0  0  0  0  0  0  0  0
  151.8136  140.8721  159.4680 H   0  0  0  0  0  0  0  0  0  0  0  0
  153.9144  141.0425  160.3700 H   0  0  0  0  0  0  0  0  0  0  0  0
  1  2  1  0  0  0  0
  1 20  1  0  0  0  0
  1 21  1  0  0  0  0
  1 22  1  0  0  0  0
  2  3  1  0  0  0  0
  3  4  1  0  0  0  0
  3  5  1  0  0  0  0
  3 23  1  0  0  0  0
  4 24  1  0  0  0  0
  4 25  1  0  0  0  0
  4 26  1  0  0  0  0
  5  6  2  0  0  0  0
  5  7  1  0  0  0  0
  7  8  1  0  0  0  0
  7 27  1  0  0  0  0
  8 19  1  0  0  0  0
  8  9  2  0  0  0  0
  9 10  1  0  0  0  0
  9 28  1  0  0  0  0
 10 11  2  0  0  0  0
 10 29  1  0  0  0  0
 11 12  1  0  0  0  0
 11 18  1  0  0  0  0
 12 17  1  0  0  0  0
 12 13  1  0  0  0  0
 13 14  1  0  0  0  0
 13 30  1  0  0  0  0
 13 31  1  0  0  0  0
 14 15  1  0  0  0  0
 14 32  1  0  0  0  0
 14 33  1  0  0  0  0
 15 16  1  0  0  0  0
 16 17  1  0  0  0  0
 16 34  1  0  0  0  0
 16 35  1  0  0  0  0
 17 36  1  0  0  0  0
 17 37  1  0  0  0  0
 18 19  2  0  0  0  0
 18 38  1  0  0  0  0
M  END
> <s_m_source_file>
AV-unprocessed.smi

> <i_m_source_file_index>
2166

> <i_lp_mmshare_version>
43012

> <i_f3d_flags>
0

> <s_epik_input>
W0NIM11TW0NASF0oW0NIM10pQyg9TylbTkhdYzFbY0hdW2NIXWMoW2NIXW4xKU4yW0NIMl1bQ0gyXU9bQ0gyXVtDSDJdMg==

> <s_epik_cmdline>
J2VwaWtfcHl0aG9uJywgJy1waCcsICc3LjAnLCAnLXRuJywgJzgnLCAnLW1hJywgJzIwMCcsICctbWV0YWxfYmluZGluZycsICctaW1hZScsICc8aW5maWxlLm1hZT4nLCAnLW9tYWUnLCAnPG91dGZpbGUubWFlPic=

> <r_lp_tautomer_probability>
1

> <r_epik_Ionization_Penalty>
0.0038652

> <r_epik_Ionization_Penalty_Charging>
0

> <r_epik_Ionization_Penalty_Neutral>
0.0038652

> <r_epik_State_Penalty>
0.00681294

> <r_epik_Charging_Adjusted_Penalty>
0.00681294

> <i_epik_Tot_Q>
0

> <i_epik_Tot_abs_Q>
0

> <r_epik_Metal_State_Penalty>
-0

> <b_epik_Metal_Only>
0

> <s_lp_Force_Field>
OPLS_2005

> <r_lp_Energy>
27.7309

> <b_lp_Chiralities_Consistent>
1

> <s_lp_Variant>
AV-unprocessed.smi:2166-1

> <Gold.Version>
5.8.1

> <Gold.Id.Protein>
6NUR|6NUR_protein|mol2

> <Gold.PLP.Fitness>
43.6979

> <Gold.PLP.PLP>
-44.9331

> <Gold.PLP.part.hbond>
-1.5613

> <Gold.PLP.part.metal>
0.0000

> <Gold.PLP.part.buried>
-4.7373

> <Gold.PLP.part.nonpolar>
-38.5045

> <Gold.PLP.part.repulsive>
0.2509

> <Gold.PLP.ligand.clash>
0.0000

> <Gold.PLP.ligand.torsion>
0.6849

> <Gold.PLP.Chemscore.Hbond>
0.0000

> <Gold.PLP.Chemscore.CHOScore>
0.0000

> <Gold.PLP.Chemscore.Metal>
0.0000

> <Gold.PLP.Chemscore.Internal.Correction>
0.1346

> <Gold.Rescore>
     Score         DG    S(hbond)    S(metal)    S(lipo)     H(rot)  DE(clash)    DE(int)     intcor
     12.76     -14.92       0.00        0.00     109.32       1.31       0.17       1.98       ----

> <Gold.Chemscore.Fitness>
12.7628

> <Gold.Chemscore.DG>
-14.9150

> <Gold.Chemscore.ZeroCoef>
-5.4800

> <Gold.Chemscore.Hbond>
0.0000

> <Gold.Chemscore.Metal>
0.0000

> <Gold.Chemscore.Lipo>
109.3161

> <Gold.Chemscore.Internal_Hbond>
0.0000

> <Gold.Chemscore.DEClash>
0.1688

> <Gold.Chemscore.DEInternal>
1.9834

> <Gold.Chemscore.Rot>
1.3105

> <Gold.Chemscore.Internal.Correction>
   9.000000E+99

> <Gold.Chemscore.Hbond.Weighted>
-0.0000

> <Gold.Chemscore.Metal.Weighted>
-0.0000

> <Gold.Chemscore.Lipo.Weighted>
-12.7900

> <Gold.Chemscore.Internal_Hbond.Weighted>
0.0000

> <Gold.Chemscore.DEClash.Weighted>
0.1688

> <Gold.Chemscore.DEInternal.Weighted>
1.9834

> <Gold.Chemscore.Rot.Weighted>
3.3549

> <Gold.Chemscore.Internal.Correction.Weighted>
   9.000000E+99

> <Gold.Protein.RotatedTorsions>
[ 6907 6896 6895 6894 ] final   29.06 input  -60.11 | X-H torsion
[ 7974 7965 7964 7962 ] final  151.57 input  175.53 | X-H torsion
[ 8008 7997 7996 7995 ] final   39.49 input   59.86 | X-H torsion
[ 10167 10162 10161 10158 ] final  117.50 input  -65.29 | X-H torsion
[ 10718 10713 10712 10709 ] final   67.36 input   66.30 | X-H torsion
[ 10763 10752 10751 10750 ] final -168.82 input  -60.55 | X-H torsion
[ 11005 11000 10999 10996 ] final   43.74 input  -57.11 | X-H torsion

> <Gold.Protein.ActiveResidues>
 VAL166  LYS551  ARG553  GLY616  TRP617  ASP618  TYR619  PRO620  LYS621  CYS622 
 ASP623  PHE694  ASN695  SER759  ASP760  ASP761  ALA762  ILE779  LEU786  VAL792 
 PHE793  MET794  SER795  GLU796  ALA797  LYS798  CYS799  TRP800  GLU811  SER814 

> <Gold.Protein.RotatedAtoms>
  152.0260  134.9795  160.0571 H   0  0  0  0  0  0  0  0  0  0  0  0  # atno 6907 bound_to 6896
  152.1291  133.4392  159.4720 H   0  0  0  0  0  0  0  0  0  0  0  0  # atno 6908 bound_to 6896
  150.6855  134.2361  159.4497 H   0  0  0  0  0  0  0  0  0  0  0  0  # atno 6909 bound_to 6896
  144.8283  139.6554  143.6070 H   0  0  0  0  0  0  0  0  0  0  0  0  # atno 7974 bound_to 7965
  155.2374  140.3343  155.4296 H   0  0  0  0  0  0  0  0  0  0  0  0  # atno 8008 bound_to 7997
  156.2270  140.1833  156.7384 H   0  0  0  0  0  0  0  0  0  0  0  0  # atno 8009 bound_to 7997
  154.5915  140.0637  156.9230 H   0  0  0  0  0  0  0  0  0  0  0  0  # atno 8010 bound_to 7997
  139.6174  144.7094  151.2709 H   0  0  0  0  0  0  0  0  0  0  0  0  # atno 10167 bound_to 10162
  157.6225  130.9317  150.0232 H   0  0  0  0  0  0  0  0  0  0  0  0  # atno 10718 bound_to 10713
  154.6589  135.2922  154.9892 H   0  0  0  0  0  0  0  0  0  0  0  0  # atno 10763 bound_to 10752
  154.0959  135.6584  153.4864 H   0  0  0  0  0  0  0  0  0  0  0  0  # atno 10764 bound_to 10752
  153.0418  135.5231  154.7530 H   0  0  0  0  0  0  0  0  0  0  0  0  # atno 10765 bound_to 10752
  140.1617  134.4333  155.8313 H   0  0  0  0  0  0  0  0  0  0  0  0  # atno 11005 bound_to 11000
  146.2587  139.6362  142.9377 LP  0  0  0  0  0  0  0  0  0  0  0  0  # atno 17320 bound_to 7965
  145.4951  141.0438  143.2571 LP  0  0  0  0  0  0  0  0  0  0  0  0  # atno 17321 bound_to 7965
  140.7360  143.6720  150.8073 LP  0  0  0  0  0  0  0  0  0  0  0  0  # atno 17342 bound_to 10162
  140.0325  143.5428  152.2753 LP  0  0  0  0  0  0  0  0  0  0  0  0  # atno 17343 bound_to 10162
  156.1379  130.3642  149.9628 LP  0  0  0  0  0  0  0  0  0  0  0  0  # atno 17370 bound_to 10713
  156.7676  130.9174  151.3643 LP  0  0  0  0  0  0  0  0  0  0  0  0  # atno 17371 bound_to 10713
  141.2210  133.6916  156.7605 LP  0  0  0  0  0  0  0  0  0  0  0  0  # atno 17394 bound_to 11000
  140.2482  134.8561  157.3641 LP  0  0  0  0  0  0  0  0  0  0  0  0  # atno 17395 bound_to 11000

$$$$
