AV-unprocessed.smi:3228|AV-procd|sdf|12324|dock6
  -GOLD-   2272018173D 1   1.00000     0.00000
 Structure written by MMmdl.
 30 31  0  0  0  0  0  0  0  0  2 V2000
  152.9063  140.5069  158.2893 O   0  0  0  0  0  0  0  0  0  0  0  0
  152.2033  141.5051  158.1152 C   0  0  0  0  0  0  0  0  0  0  0  0
  151.3496  141.5467  157.0839 N   0  0  0  0  0  0  0  0  0  0  0  0
  151.1654  140.4838  156.1036 C   0  0  0  0  0  0  0  0  0  0  0  0
  149.7159  140.4580  155.5829 C   0  0  1  0  0  0  0  0  0  0  0  0
  149.2458  141.7493  154.8997 C   0  0  0  0  0  0  0  0  0  0  0  0
  148.0744  141.3392  153.9940 C   0  0  0  0  0  0  0  0  0  0  0  0
  148.0676  139.8026  153.9531 C   0  0  0  0  0  0  0  0  0  0  0  0
  149.4032  139.3575  154.5586 C   0  0  1  0  0  0  0  0  0  0  0  0
  150.3781  139.3079  153.5333 O   0  0  0  0  0  0  0  0  0  0  0  0
  152.1911  142.6214  158.8790 N   0  5  0  0  0  0  0  0  0  0  0  0
  152.6133  142.5687  160.1528 C   0  0  0  0  0  0  0  0  0  0  0  0
  153.3969  141.5906  160.6217 N   0  0  0  0  0  0  0  0  0  0  0  0
  153.7083  141.7295  161.9754 C   0  0  0  0  0  0  0  0  0  0  0  0
  153.1418  142.8344  162.5531 C   0  0  0  0  0  0  0  0  0  0  0  0
  152.1937  143.7388  161.4071 S   0  0  0  0  0  0  0  0  0  0  0  0
  150.7909  142.3799  156.9721 H   0  0  0  0  0  0  0  0  0  0  0  0
  151.8671  140.6357  155.2822 H   0  0  0  0  0  0  0  0  0  0  0  0
  151.4097  139.5251  156.5635 H   0  0  0  0  0  0  0  0  0  0  0  0
  149.0592  140.2880  156.4383 H   0  0  0  0  0  0  0  0  0  0  0  0
  148.9609  142.5154  155.6215 H   0  0  0  0  0  0  0  0  0  0  0  0
  150.0500  142.1610  154.2881 H   0  0  0  0  0  0  0  0  0  0  0  0
  147.1262  141.7154  154.3794 H   0  0  0  0  0  0  0  0  0  0  0  0
  148.2072  141.7553  152.9949 H   0  0  0  0  0  0  0  0  0  0  0  0
  147.2534  139.4355  154.5794 H   0  0  0  0  0  0  0  0  0  0  0  0
  147.9012  139.4089  152.9494 H   0  0  0  0  0  0  0  0  0  0  0  0
  149.3316  138.3744  155.0250 H   0  0  0  0  0  0  0  0  0  0  0  0
  149.9355  139.3359  152.6986 H   0  0  0  0  0  0  0  0  0  0  0  0
  154.3405  140.9928  162.4480 H   0  0  0  0  0  0  0  0  0  0  0  0
  153.2218  143.1697  163.5760 H   0  0  0  0  0  0  0  0  0  0  0  0
  1  2  2  0  0  0  0
  2  3  1  0  0  0  0
  2 11  1  0  0  0  0
  3  4  1  0  0  0  0
  3 17  1  0  0  0  0
  4  5  1  0  0  0  0
  4 18  1  0  0  0  0
  4 19  1  0  0  0  0
  5  9  1  0  0  0  0
  5  6  1  0  0  0  0
  5 20  1  0  0  0  0
  6  7  1  0  0  0  0
  6 21  1  0  0  0  0
  6 22  1  0  0  0  0
  7  8  1  0  0  0  0
  7 23  1  0  0  0  0
  7 24  1  0  0  0  0
  8  9  1  0  0  0  0
  8 25  1  0  0  0  0
  8 26  1  0  0  0  0
  9 10  1  0  0  0  0
  9 27  1  0  0  0  0
 10 28  1  0  0  0  0
 11 12  1  0  0  0  0
 12 16  1  0  0  0  0
 12 13  2  0  0  0  0
 13 14  1  0  0  0  0
 14 15  2  0  0  0  0
 14 29  1  0  0  0  0
 15 16  1  0  0  0  0
 15 30  1  0  0  0  0
M  CHG  1  11  -1
M  END
> <s_m_source_file>
AV-unprocessed.smi

> <i_m_source_file_index>
3228

> <i_lp_mmshare_version>
43012

> <i_f3d_flags>
0

> <s_epik_input>
czFbY0hdW2NIXW5jMVtOSF1DKD1PKVtOSF1bQ0gyXVtDQEBIXTJbQ0gyXVtDSDJdW0NIMl1bQ0BIXTJbT0hd

> <s_epik_cmdline>
J2VwaWtfcHl0aG9uJywgJy1waCcsICc3LjAnLCAnLXRuJywgJzgnLCAnLW1hJywgJzIwMCcsICctbWV0YWxfYmluZGluZycsICctaW1hZScsICc8aW5maWxlLm1hZT4nLCAnLW9tYWUnLCAnPG91dGZpbGUubWFlPic=

> <r_lp_tautomer_probability>
0.999

> <r_epik_Ionization_Penalty>
8.49756

> <r_epik_Ionization_Penalty_Charging>
6.79645

> <r_epik_Ionization_Penalty_Neutral>
1.70111

> <r_epik_State_Penalty>
6.79662

> <r_epik_Charging_Adjusted_Penalty>
13.5931

> <i_epik_Tot_Q>
-1

> <i_epik_Tot_abs_Q>
1

> <r_epik_Metal_State_Penalty>
2.71629

> <b_epik_Metal_Only>
1

> <s_lp_Force_Field>
OPLS_2005

> <r_lp_Energy>
20.5315

> <b_lp_Chiralities_Consistent>
1

> <s_lp_Variant>
AV-unprocessed.smi:3228-6

> <Gold.Version>
5.8.1

> <Gold.Id.Protein>
6NUR|6NUR_protein|mol2

> <Gold.PLP.Fitness>
40.6824

> <Gold.PLP.PLP>
-34.1251

> <Gold.PLP.part.hbond>
-3.0000

> <Gold.PLP.part.metal>
0.0000

> <Gold.PLP.part.buried>
-0.6933

> <Gold.PLP.part.nonpolar>
-29.0630

> <Gold.PLP.part.repulsive>
0.0832

> <Gold.PLP.ligand.clash>
0.0000

> <Gold.PLP.ligand.torsion>
0.3909

> <Gold.PLP.Chemscore.Hbond>
2.4454

> <Gold.PLP.Chemscore.CHOScore>
0.0000

> <Gold.PLP.Chemscore.Metal>
0.0000

> <Gold.Chemscore.Hbonds>
donor molecule, donor type, donor heavy atom, donor atom, acceptor molecule, acceptor atom, score
      L1  H    10    28       P1  7957  1.00
      P1  H  7989  7998       L1    10  0.85
      P1  H  7997  8010       L1     1  0.58

> <Gold.PLP.Chemscore.Internal.Correction>
0.0029

> <Gold.Rescore>
     Score         DG    S(hbond)    S(metal)    S(lipo)     H(rot)  DE(clash)    DE(int)     intcor
     13.27     -15.92       2.01        0.00      72.18       1.85       0.64       2.01       ----

> <Gold.Chemscore.Fitness>
13.2678

> <Gold.Chemscore.DG>
-15.9159

> <Gold.Chemscore.ZeroCoef>
-5.4800

> <Gold.Chemscore.Hbond>
2.0125

> <Gold.Chemscore.Metal>
0.0000

> <Gold.Chemscore.Lipo>
72.1833

> <Gold.Chemscore.Internal_Hbond>
0.0000

> <Gold.Chemscore.DEClash>
0.6406

> <Gold.Chemscore.DEInternal>
2.0074

> <Gold.Chemscore.Rot>
1.8481

> <Gold.Chemscore.Internal.Correction>
   9.000000E+99

> <Gold.Chemscore.Hbonds>
donor molecule, donor type, donor heavy atom, donor atom, acceptor molecule, acceptor atom, score
      L1  H    10    28       P1  7957  0.91
      P1  H  7989  7998       L1    10  0.30
      P1  H  7997  8010       L1     1  0.56

> <Gold.Chemscore.Hbond.Weighted>
-6.7217

> <Gold.Chemscore.Metal.Weighted>
-0.0000

> <Gold.Chemscore.Lipo.Weighted>
-8.4455

> <Gold.Chemscore.Internal_Hbond.Weighted>
0.0000

> <Gold.Chemscore.DEClash.Weighted>
0.6406

> <Gold.Chemscore.DEInternal.Weighted>
2.0074

> <Gold.Chemscore.Rot.Weighted>
4.7313

> <Gold.Chemscore.Internal.Correction.Weighted>
   9.000000E+99

> <Gold.Protein.RotatedTorsions>
[ 6907 6896 6895 6894 ] final  128.77 input  -60.11 | X-H torsion
[ 7974 7965 7964 7962 ] final  -54.48 input  175.53 | X-H torsion
[ 8008 7997 7996 7995 ] final   41.49 input   59.86 | X-H torsion
[ 10167 10162 10161 10158 ] final   16.25 input  -65.29 | X-H torsion
[ 10718 10713 10712 10709 ] final -150.06 input   66.30 | X-H torsion
[ 10763 10752 10751 10750 ] final  -65.11 input  -60.55 | X-H torsion
[ 11005 11000 10999 10996 ] final   35.40 input  -57.11 | X-H torsion

> <Gold.Protein.ActiveResidues>
 VAL166  LYS551  ARG553  GLY616  TRP617  ASP618  TYR619  PRO620  LYS621  CYS622 
 ASP623  PHE694  ASN695  SER759  ASP760  ASP761  ALA762  ILE779  LEU786  VAL792 
 PHE793  MET794  SER795  GLU796  ALA797  LYS798  CYS799  TRP800  GLU811  SER814 

> <Gold.Protein.RotatedAtoms>
  152.3687  133.6391  159.6070 H   0  0  0  0  0  0  0  0  0  0  0  0  # atno 6907 bound_to 6896
  150.7653  133.9305  159.3434 H   0  0  0  0  0  0  0  0  0  0  0  0  # atno 6908 bound_to 6896
  151.7131  135.0910  160.0322 H   0  0  0  0  0  0  0  0  0  0  0  0  # atno 6909 bound_to 6896
  145.8851  140.8114  142.9820 H   0  0  0  0  0  0  0  0  0  0  0  0  # atno 7974 bound_to 7965
  155.2706  140.3365  155.4265 H   0  0  0  0  0  0  0  0  0  0  0  0  # atno 8008 bound_to 7997
  156.2134  140.1779  156.7685 H   0  0  0  0  0  0  0  0  0  0  0  0  # atno 8009 bound_to 7997
  154.5719  140.0668  156.8962 H   0  0  0  0  0  0  0  0  0  0  0  0  # atno 8010 bound_to 7997
  140.5810  143.8980  150.6790 H   0  0  0  0  0  0  0  0  0  0  0  0  # atno 10167 bound_to 10162
  156.4411  130.8122  151.2352 H   0  0  0  0  0  0  0  0  0  0  0  0  # atno 10718 bound_to 10713
  154.3401  135.6158  153.5592 H   0  0  0  0  0  0  0  0  0  0  0  0  # atno 10763 bound_to 10752
  152.9805  135.5767  154.4862 H   0  0  0  0  0  0  0  0  0  0  0  0  # atno 10764 bound_to 10752
  154.4565  135.2854  155.1721 H   0  0  0  0  0  0  0  0  0  0  0  0  # atno 10765 bound_to 10752
  140.2430  134.3392  155.7918 H   0  0  0  0  0  0  0  0  0  0  0  0  # atno 11005 bound_to 11000
  144.6728  140.1444  143.7435 LP  0  0  0  0  0  0  0  0  0  0  0  0  # atno 17320 bound_to 7965
  145.8976  139.2412  143.1512 LP  0  0  0  0  0  0  0  0  0  0  0  0  # atno 17321 bound_to 7965
  140.2479  143.3615  152.1431 LP  0  0  0  0  0  0  0  0  0  0  0  0  # atno 17342 bound_to 10162
  139.5170  144.6985  151.5560 LP  0  0  0  0  0  0  0  0  0  0  0  0  # atno 17343 bound_to 10162
  157.7506  131.0168  150.3558 LP  0  0  0  0  0  0  0  0  0  0  0  0  # atno 17370 bound_to 10713
  156.3916  130.3899  149.7026 LP  0  0  0  0  0  0  0  0  0  0  0  0  # atno 17371 bound_to 10713
  141.2209  133.7310  156.8916 LP  0  0  0  0  0  0  0  0  0  0  0  0  # atno 17394 bound_to 11000
  140.1634  134.9150  157.2743 LP  0  0  0  0  0  0  0  0  0  0  0  0  # atno 17395 bound_to 11000

$$$$
