AV-unprocessed.smi:1965|AV-procd|sdf|7932|dock4
  -GOLD-   2272010103D 1   1.00000     0.00000
 Structure written by MMmdl.
 37 39  0  0  0  0  0  0  0  0  2 V2000
  150.3109  134.4563  155.7322 O   0  0  0  0  0  0  0  0  0  0  0  0
  149.8920  134.9733  154.6983 C   0  0  0  0  0  0  0  0  0  0  0  0
  150.2595  136.2240  154.3467 N   0  0  0  0  0  0  0  0  0  0  0  0
  151.1124  137.1731  154.9824 C   0  0  0  0  0  0  0  0  0  0  0  0
  152.0600  136.8800  155.8827 N   0  0  0  0  0  0  0  0  0  0  0  0
  152.7441  138.0174  156.3193 C   0  0  0  0  0  0  0  0  0  0  0  0
  152.3064  139.1784  155.7330 C   0  0  0  0  0  0  0  0  0  0  0  0
  151.0111  138.8869  154.6034 S   0  0  0  0  0  0  0  0  0  0  0  0
  149.0578  134.3398  153.8576 N   0  0  0  0  0  0  0  0  0  0  0  0
  148.5335  132.9895  154.0346 C   0  0  2  0  0  0  0  0  0  0  0  0
  149.6274  131.9317  154.1151 C   0  0  0  0  0  0  0  0  0  0  0  0
  148.8604  130.6488  153.7906 C   0  0  0  0  0  0  0  0  0  0  0  0
  147.8090  131.0365  152.8221 N   0  3  1  0  0  0  0  0  0  0  0  0
  146.5346  130.2905  152.9638 C   0  0  0  0  0  0  0  0  0  0  0  0
  145.5133  130.7495  151.9064 C   0  0  0  0  0  0  0  0  0  0  0  0
  145.3570  132.2834  151.8413 C   0  0  0  0  0  0  0  0  0  0  0  0
  146.2209  133.0059  152.8867 C   0  0  0  0  0  0  0  0  0  0  0  0
  147.6881  132.5222  152.8377 C   0  0  1  0  0  0  0  0  0  0  0  0
  149.8776  136.5372  153.4657 H   0  0  0  0  0  0  0  0  0  0  0  0
  153.5320  137.9091  157.0505 H   0  0  0  0  0  0  0  0  0  0  0  0
  152.6667  140.1834  155.8956 H   0  0  0  0  0  0  0  0  0  0  0  0
  148.7642  134.8390  153.0295 H   0  0  0  0  0  0  0  0  0  0  0  0
  147.9433  132.9285  154.9517 H   0  0  0  0  0  0  0  0  0  0  0  0
  150.3912  132.1122  153.3569 H   0  0  0  0  0  0  0  0  0  0  0  0
  150.1164  131.8974  155.0893 H   0  0  0  0  0  0  0  0  0  0  0  0
  149.5045  129.8670  153.3874 H   0  0  0  0  0  0  0  0  0  0  0  0
  148.4023  130.2647  154.7036 H   0  0  0  0  0  0  0  0  0  0  0  0
  146.7253  129.2218  152.8595 H   0  0  0  0  0  0  0  0  0  0  0  0
  146.1298  130.4404  153.9662 H   0  0  0  0  0  0  0  0  0  0  0  0
  145.8201  130.3818  150.9264 H   0  0  0  0  0  0  0  0  0  0  0  0
  144.5473  130.2860  152.1104 H   0  0  0  0  0  0  0  0  0  0  0  0
  145.6393  132.6288  150.8459 H   0  0  0  0  0  0  0  0  0  0  0  0
  144.3103  132.5606  151.9707 H   0  0  0  0  0  0  0  0  0  0  0  0
  146.1746  134.0830  152.7237 H   0  0  0  0  0  0  0  0  0  0  0  0
  145.8024  132.8341  153.8793 H   0  0  0  0  0  0  0  0  0  0  0  0
  148.1473  132.8705  151.9109 H   0  0  0  0  0  0  0  0  0  0  0  0
  148.1669  130.8089  151.9055 H   0  0  0  0  0  0  0  0  0  0  0  0
  1  2  2  0  0  0  0
  2  3  1  0  0  0  0
  2  9  1  0  0  0  0
  3  4  1  0  0  0  0
  3 19  1  0  0  0  0
  4  8  1  0  0  0  0
  4  5  2  0  0  0  0
  5  6  1  0  0  0  0
  6  7  2  0  0  0  0
  6 20  1  0  0  0  0
  7  8  1  0  0  0  0
  7 21  1  0  0  0  0
  9 10  1  0  0  0  0
  9 22  1  0  0  0  0
 10 18  1  0  0  0  0
 10 11  1  0  0  0  0
 10 23  1  0  0  0  0
 11 12  1  0  0  0  0
 11 24  1  0  0  0  0
 11 25  1  0  0  0  0
 12 13  1  0  0  0  0
 12 26  1  0  0  0  0
 12 27  1  0  0  0  0
 13 18  1  0  0  0  0
 13 14  1  0  0  0  0
 13 37  1  0  0  0  0
 14 15  1  0  0  0  0
 14 28  1  0  0  0  0
 14 29  1  0  0  0  0
 15 16  1  0  0  0  0
 15 30  1  0  0  0  0
 15 31  1  0  0  0  0
 16 17  1  0  0  0  0
 16 32  1  0  0  0  0
 16 33  1  0  0  0  0
 17 18  1  0  0  0  0
 17 34  1  0  0  0  0
 17 35  1  0  0  0  0
 18 36  1  0  0  0  0
M  CHG  1  13   1
M  END
> <s_m_source_file>
AV-unprocessed.smi

> <i_m_source_file_index>
1965

> <i_lp_mmshare_version>
43012

> <i_f3d_flags>
0

> <s_epik_input>
czFbY0hdW2NIXW5jMVtOSF1DKD1PKVtOSF1bQ0BIXShbQ0gyXVtDSDJdMilbQ0BASF0oTjIzKVtDSDJdW0NIMl1bQ0gyXVtDSDJdMw==

> <s_epik_cmdline>
J2VwaWtfcHl0aG9uJywgJy1waCcsICc3LjAnLCAnLXRuJywgJzgnLCAnLW1hJywgJzIwMCcsICctbWV0YWxfYmluZGluZycsICctaW1hZScsICc8aW5maWxlLm1hZT4nLCAnLW9tYWUnLCAnPG91dGZpbGUubWFlPic=

> <r_lp_tautomer_probability>
1

> <r_epik_Ionization_Penalty>
0.00125962

> <r_epik_Ionization_Penalty_Charging>
0.00107044

> <r_epik_Ionization_Penalty_Neutral>
0.000189176

> <r_epik_State_Penalty>
-0

> <r_epik_Charging_Adjusted_Penalty>
0.00107044

> <i_epik_Tot_Q>
1

> <i_epik_Tot_abs_Q>
1

> <r_epik_Metal_State_Penalty>
0.0179285

> <b_epik_Metal_Only>
0

> <s_lp_Force_Field>
OPLS_2005

> <r_lp_Energy>
40.5282

> <b_lp_Chiralities_Consistent>
1

> <s_lp_Variant>
AV-unprocessed.smi:1965-1

> <Gold.Version>
5.8.1

> <Gold.Id.Protein>
6NUR|6NUR_protein|mol2

> <Gold.PLP.Fitness>
44.6580

> <Gold.PLP.PLP>
-32.8624

> <Gold.PLP.part.hbond>
-5.0000

> <Gold.PLP.part.metal>
0.0000

> <Gold.PLP.part.buried>
-2.8409

> <Gold.PLP.part.nonpolar>
-25.5160

> <Gold.PLP.part.repulsive>
0.1388

> <Gold.PLP.ligand.clash>
0.0000

> <Gold.PLP.ligand.torsion>
0.1060

> <Gold.PLP.Chemscore.Hbond>
4.0000

> <Gold.PLP.Chemscore.CHOScore>
0.0000

> <Gold.PLP.Chemscore.Metal>
0.0000

> <Gold.Chemscore.Hbonds>
donor molecule, donor type, donor heavy atom, donor atom, acceptor molecule, acceptor atom, score
      L1  H     3    19       P1  7948  0.95
      L1  H     9    22       P1  7948  1.00
      L1  H    13    37       P1 10747  1.00
      P1  H 10752 10765       L1     5  1.00

> <Gold.PLP.Chemscore.Internal.Correction>
0.0077

> <Gold.Rescore>
     Score         DG    S(hbond)    S(metal)    S(lipo)     H(rot)  DE(clash)    DE(int)     intcor
     19.37     -21.18       3.18        0.00      65.26       1.00       0.01       1.80       ----

> <Gold.Chemscore.Fitness>
19.3671

> <Gold.Chemscore.DG>
-21.1773

> <Gold.Chemscore.ZeroCoef>
-5.4800

> <Gold.Chemscore.Hbond>
3.1801

> <Gold.Chemscore.Metal>
0.0000

> <Gold.Chemscore.Lipo>
65.2626

> <Gold.Chemscore.Internal_Hbond>
0.0000

> <Gold.Chemscore.DEClash>
0.0081

> <Gold.Chemscore.DEInternal>
1.8021

> <Gold.Chemscore.Rot>
1.0000

> <Gold.Chemscore.Internal.Correction>
   9.000000E+99

> <Gold.Chemscore.Hbonds>
donor molecule, donor type, donor heavy atom, donor atom, acceptor molecule, acceptor atom, score
      L1  H     3    19       P1  7948  0.21
      L1  H     9    22       P1  7948  0.24
      L1  H    13    37       P1 10747  1.00
      P1  H 10752 10765       L1     5  0.47

> <Gold.Chemscore.Hbond.Weighted>
-10.6216

> <Gold.Chemscore.Metal.Weighted>
-0.0000

> <Gold.Chemscore.Lipo.Weighted>
-7.6357

> <Gold.Chemscore.Internal_Hbond.Weighted>
0.0000

> <Gold.Chemscore.DEClash.Weighted>
0.0081

> <Gold.Chemscore.DEInternal.Weighted>
1.8021

> <Gold.Chemscore.Rot.Weighted>
2.5600

> <Gold.Chemscore.Internal.Correction.Weighted>
   9.000000E+99

> <Gold.Protein.RotatedTorsions>
[ 6907 6896 6895 6894 ] final -111.30 input  -60.11 | X-H torsion
[ 7974 7965 7964 7962 ] final -121.15 input  175.53 | X-H torsion
[ 8008 7997 7996 7995 ] final -158.27 input   59.86 | X-H torsion
[ 10167 10162 10161 10158 ] final -120.24 input  -65.29 | X-H torsion
[ 10718 10713 10712 10709 ] final  -75.21 input   66.30 | X-H torsion
[ 10763 10752 10751 10750 ] final -148.26 input  -60.55 | X-H torsion
[ 11005 11000 10999 10996 ] final  124.55 input  -57.11 | X-H torsion

> <Gold.Protein.ActiveResidues>
 VAL166  LYS551  ARG553  GLY616  TRP617  ASP618  TYR619  PRO620  LYS621  CYS622 
 ASP623  PHE694  ASN695  SER759  ASP760  ASP761  ALA762  ILE779  LEU786  VAL792 
 PHE793  MET794  SER795  GLU796  ALA797  LYS798  CYS799  TRP800  GLU811  SER814 

> <Gold.Protein.RotatedAtoms>
  150.7681  133.9255  159.3410 H   0  0  0  0  0  0  0  0  0  0  0  0  # atno 6907 bound_to 6896
  151.7148  135.0904  160.0283 H   0  0  0  0  0  0  0  0  0  0  0  0  # atno 6908 bound_to 6896
  152.3687  133.6352  159.6106 H   0  0  0  0  0  0  0  0  0  0  0  0  # atno 6909 bound_to 6896
  145.0436  140.8163  143.4252 H   0  0  0  0  0  0  0  0  0  0  0  0  # atno 7974 bound_to 7965
  155.7451  140.0819  157.2227 H   0  0  0  0  0  0  0  0  0  0  0  0  # atno 8008 bound_to 7997
  154.4018  140.1571  156.2716 H   0  0  0  0  0  0  0  0  0  0  0  0  # atno 8009 bound_to 7997
  155.8984  140.3411  155.6010 H   0  0  0  0  0  0  0  0  0  0  0  0  # atno 8010 bound_to 7997
  140.0380  143.5182  152.2144 H   0  0  0  0  0  0  0  0  0  0  0  0  # atno 10167 bound_to 10162
  156.0215  130.4435  150.3008 H   0  0  0  0  0  0  0  0  0  0  0  0  # atno 10718 bound_to 10713
  154.8242  135.3339  154.6946 H   0  0  0  0  0  0  0  0  0  0  0  0  # atno 10763 bound_to 10752
  153.7574  135.6935  153.4937 H   0  0  0  0  0  0  0  0  0  0  0  0  # atno 10764 bound_to 10752
  153.2134  135.4474  155.0356 H   0  0  0  0  0  0  0  0  0  0  0  0  # atno 10765 bound_to 10752
  139.9364  134.9639  156.8427 H   0  0  0  0  0  0  0  0  0  0  0  0  # atno 11005 bound_to 11000
  145.1617  139.2455  143.5388 LP  0  0  0  0  0  0  0  0  0  0  0  0  # atno 17320 bound_to 7965
  146.3511  140.1345  142.8596 LP  0  0  0  0  0  0  0  0  0  0  0  0  # atno 17321 bound_to 7965
  139.6032  144.7589  151.3122 LP  0  0  0  0  0  0  0  0  0  0  0  0  # atno 17342 bound_to 10162
  140.7273  143.6967  150.7878 LP  0  0  0  0  0  0  0  0  0  0  0  0  # atno 17343 bound_to 10162
  157.1111  131.0221  151.3047 LP  0  0  0  0  0  0  0  0  0  0  0  0  # atno 17370 bound_to 10713
  157.4704  130.7705  149.7318 LP  0  0  0  0  0  0  0  0  0  0  0  0  # atno 17371 bound_to 10713
  140.6064  134.0123  155.7558 LP  0  0  0  0  0  0  0  0  0  0  0  0  # atno 17394 bound_to 11000
  141.0980  133.9813  157.3128 LP  0  0  0  0  0  0  0  0  0  0  0  0  # atno 17395 bound_to 11000

$$$$
