AV-unprocessed.smi:21|AV-procd|sdf|133|dock4
  -GOLD-   2262015323D 1   1.00000     0.00000
 Structure written by MMmdl.
 62 65  0  0  0  0  0  0  0  0  2 V2000
  145.8008  132.1555  149.5242 C   0  0  0  0  0  0  0  0  0  0  0  0
  146.2309  132.1337  150.8756 O   0  0  0  0  0  0  0  0  0  0  0  0
  145.7490  133.2301  151.6377 C   0  0  1  0  0  0  0  0  0  0  0  0
  146.3445  133.2114  153.0388 C   0  0  0  0  0  0  0  0  0  0  0  0
  146.1895  134.6655  153.4898 C   0  0  1  0  0  0  0  0  0  0  0  0
  147.1601  135.0671  154.6231 C   0  0  0  0  0  0  0  0  0  0  0  0
  147.0117  136.4548  155.0605 N   0  0  0  0  0  0  0  0  0  0  0  0
  145.7019  136.8542  155.5536 C   0  0  0  0  0  0  0  0  0  0  0  0
  148.0199  137.0112  155.7722 C   0  0  0  0  0  0  0  0  0  0  0  0
  148.2464  136.5097  157.0117 N   0  0  0  0  0  0  0  0  0  0  0  0
  149.1990  137.0377  157.7857 C   0  0  0  0  0  0  0  0  0  0  0  0
  150.0217  138.0544  157.5197 N   0  0  0  0  0  0  0  0  0  0  0  0
  149.8089  138.5497  156.2674 C   0  0  0  0  0  0  0  0  0  0  0  0
  148.8426  138.0876  155.3300 C   0  0  0  0  0  0  0  0  0  0  0  0
  148.9256  138.8358  154.1605 N   0  0  0  0  0  0  0  0  0  0  0  0
  149.8747  139.6991  154.3980 C   0  0  0  0  0  0  0  0  0  0  0  0
  150.4456  139.6098  155.6466 N   0  0  0  0  0  0  0  0  0  0  0  0
  151.4928  140.4617  156.1803 C   0  0  0  0  0  0  0  0  0  0  0  0
  151.5119  140.5300  157.7312 C   0  0  1  0  0  0  0  0  0  0  0  0
  152.2941  139.3523  158.3695 C   0  0  0  0  0  0  0  0  0  0  0  0
  153.5839  139.2059  157.8102 O   0  0  0  0  0  0  0  0  0  0  0  0
  152.0799  141.8937  158.2042 C   0  0  1  0  0  0  0  0  0  0  0  0
  151.1958  143.0944  157.9087 C   0  0  0  0  0  0  0  0  0  0  0  0
  151.7465  144.1422  158.8667 C   0  0  0  0  0  0  0  0  0  0  0  0
  152.1161  143.4188  160.0325 O   0  0  0  0  0  0  0  0  0  0  0  0
  152.2450  142.0332  159.7250 C   0  0  0  0  0  0  0  0  0  0  0  0
  146.4111  135.4724  152.2675 N   0  3  2  0  0  0  0  0  0  0  0  0
  145.6302  136.7284  152.2248 C   0  0  0  0  0  0  0  0  0  0  0  0
  146.1978  134.5931  151.0930 C   0  0  0  0  0  0  0  0  0  0  0  0
  144.6606  133.1980  151.7216 H   0  0  0  0  0  0  0  0  0  0  0  0
  145.1519  134.8106  153.7941 H   0  0  0  0  0  0  0  0  0  0  0  0
  146.1955  131.2837  149.0026 H   0  0  0  0  0  0  0  0  0  0  0  0
  146.1563  133.0456  149.0038 H   0  0  0  0  0  0  0  0  0  0  0  0
  144.7126  132.1215  149.4562 H   0  0  0  0  0  0  0  0  0  0  0  0
  145.8434  132.5052  153.7017 H   0  0  0  0  0  0  0  0  0  0  0  0
  147.4004  132.9396  152.9926 H   0  0  0  0  0  0  0  0  0  0  0  0
  146.9930  134.4168  155.4826 H   0  0  0  0  0  0  0  0  0  0  0  0
  148.1931  134.8954  154.3216 H   0  0  0  0  0  0  0  0  0  0  0  0
  145.6089  137.9406  155.5882 H   0  0  0  0  0  0  0  0  0  0  0  0
  145.5332  136.4619  156.5573 H   0  0  0  0  0  0  0  0  0  0  0  0
  144.9145  136.4740  154.9021 H   0  0  0  0  0  0  0  0  0  0  0  0
  149.3132  136.5857  158.7603 H   0  0  0  0  0  0  0  0  0  0  0  0
  150.1763  140.4400  153.6717 H   0  0  0  0  0  0  0  0  0  0  0  0
  152.4549  140.1066  155.8092 H   0  0  0  0  0  0  0  0  0  0  0  0
  151.3468  141.4534  155.7524 H   0  0  0  0  0  0  0  0  0  0  0  0
  150.4803  140.4740  158.0828 H   0  0  0  0  0  0  0  0  0  0  0  0
  152.3758  139.4814  159.4492 H   0  0  0  0  0  0  0  0  0  0  0  0
  151.7838  138.4040  158.2070 H   0  0  0  0  0  0  0  0  0  0  0  0
  153.9996  138.4621  158.2186 H   0  0  0  0  0  0  0  0  0  0  0  0
  153.0505  142.0629  157.7343 H   0  0  0  0  0  0  0  0  0  0  0  0
  151.2439  143.4212  156.8696 H   0  0  0  0  0  0  0  0  0  0  0  0
  150.1552  142.8742  158.1530 H   0  0  0  0  0  0  0  0  0  0  0  0
  152.6375  144.6109  158.4470 H   0  0  0  0  0  0  0  0  0  0  0  0
  151.0238  144.9266  159.0933 H   0  0  0  0  0  0  0  0  0  0  0  0
  151.4584  141.4944  160.2550 H   0  0  0  0  0  0  0  0  0  0  0  0
  153.2054  141.6521  160.0730 H   0  0  0  0  0  0  0  0  0  0  0  0
  144.5582  136.5261  152.2131 H   0  0  0  0  0  0  0  0  0  0  0  0
  145.8804  137.3017  151.3318 H   0  0  0  0  0  0  0  0  0  0  0  0
  145.8513  137.3486  153.0936 H   0  0  0  0  0  0  0  0  0  0  0  0
  147.1521  134.5000  150.5733 H   0  0  0  0  0  0  0  0  0  0  0  0
  145.4759  134.9984  150.3823 H   0  0  0  0  0  0  0  0  0  0  0  0
  147.3892  135.7248  152.2566 H   0  0  0  0  0  0  0  0  0  0  0  0
  1  2  1  0  0  0  0
  1 32  1  0  0  0  0
  1 33  1  0  0  0  0
  1 34  1  0  0  0  0
  2  3  1  0  0  0  0
  3 30  1  0  0  0  0
  3 29  1  0  0  0  0
  3  4  1  0  0  0  0
  4  5  1  0  0  0  0
  4 35  1  0  0  0  0
  4 36  1  0  0  0  0
  5 31  1  0  0  0  0
  5  6  1  0  0  0  0
  5 27  1  0  0  0  0
  6  7  1  0  0  0  0
  6 37  1  0  0  0  0
  6 38  1  0  0  0  0
  7  8  1  0  0  0  0
  7  9  1  0  0  0  0
  8 39  1  0  0  0  0
  8 40  1  0  0  0  0
  8 41  1  0  0  0  0
  9 14  1  0  0  0  0
  9 10  2  0  0  0  0
 10 11  1  0  0  0  0
 11 12  2  0  0  0  0
 11 42  1  0  0  0  0
 12 13  1  0  0  0  0
 13 17  1  0  0  0  0
 13 14  2  0  0  0  0
 14 15  1  0  0  0  0
 15 16  2  0  0  0  0
 16 17  1  0  0  0  0
 16 43  1  0  0  0  0
 17 18  1  0  0  0  0
 18 19  1  0  0  0  0
 18 44  1  0  0  0  0
 18 45  1  0  0  0  0
 19 20  1  0  0  0  0
 19 22  1  0  0  0  0
 19 46  1  0  0  0  0
 20 21  1  0  0  0  0
 20 47  1  0  0  0  0
 20 48  1  0  0  0  0
 21 49  1  0  0  0  0
 22 26  1  0  0  0  0
 22 23  1  0  0  0  0
 22 50  1  0  0  0  0
 23 24  1  0  0  0  0
 23 51  1  0  0  0  0
 23 52  1  0  0  0  0
 24 25  1  0  0  0  0
 24 53  1  0  0  0  0
 24 54  1  0  0  0  0
 25 26  1  0  0  0  0
 26 55  1  0  0  0  0
 26 56  1  0  0  0  0
 27 28  1  0  0  0  0
 27 29  1  0  0  0  0
 27 62  1  0  0  0  0
 28 57  1  0  0  0  0
 28 58  1  0  0  0  0
 28 59  1  0  0  0  0
 29 60  1  0  0  0  0
 29 61  1  0  0  0  0
M  CHG  1  27   1
M  END
> <s_m_source_file>
AV-unprocessed.smi

> <i_m_source_file_index>
21

> <i_lp_mmshare_version>
43012

> <i_f3d_flags>
0

> <s_epik_input>
W0NIM11PW0NASF0xW0NIMl1bQ0BIXShOKFtDSDNdKVtDSDJdMSlbQ0gyXU4oW0NIM10pYyhuW2NIXW4yKWMoYzIzKW5bY0hdbjNbQ0gyXVtDQEhdKFtDSDJdW09IXSlbQ0BASF00W0NIMl1bQ0gyXU9bQ0gyXTQ=

> <s_epik_cmdline>
J2VwaWtfcHl0aG9uJywgJy1waCcsICc3LjAnLCAnLXRuJywgJzgnLCAnLW1hJywgJzIwMCcsICctbWV0YWxfYmluZGluZycsICctaW1hZScsICc8aW5maWxlLm1hZT4nLCAnLW9tYWUnLCAnPG91dGZpbGUubWFlPic=

> <r_lp_tautomer_probability>
1

> <r_epik_Ionization_Penalty>
0.0157465

> <r_epik_Ionization_Penalty_Charging>
0.015354

> <r_epik_Ionization_Penalty_Neutral>
0.000392529

> <r_epik_State_Penalty>
0.0120612

> <r_epik_Charging_Adjusted_Penalty>
0.0274152

> <i_epik_Tot_Q>
1

> <i_epik_Tot_abs_Q>
1

> <r_epik_Metal_State_Penalty>
0.0121253

> <b_epik_Metal_Only>
0

> <s_lp_Force_Field>
OPLS_2005

> <r_lp_Energy>
58.1484

> <b_lp_Chiralities_Consistent>
1

> <s_lp_Variant>
AV-unprocessed.smi:21-13

> <Gold.Version>
5.8.1

> <Gold.Id.Protein>
6NUR|6NUR_protein|mol2

> <Gold.PLP.Fitness>
48.1952

> <Gold.PLP.PLP>
-38.3188

> <Gold.PLP.part.hbond>
-2.0000

> <Gold.PLP.part.metal>
0.0000

> <Gold.PLP.part.buried>
-6.6349

> <Gold.PLP.part.nonpolar>
-30.2375

> <Gold.PLP.part.repulsive>
0.4365

> <Gold.PLP.ligand.clash>
0.0000

> <Gold.PLP.ligand.torsion>
1.1004

> <Gold.PLP.Chemscore.Hbond>
3.0000

> <Gold.PLP.Chemscore.CHOScore>
0.7937

> <Gold.PLP.Chemscore.Metal>
0.0000

> <Gold.Chemscore.Hbonds>
donor molecule, donor type, donor heavy atom, donor atom, acceptor molecule, acceptor atom, score
      L1  H    27    62       P1  7948  2.00
      P1  H  7997  8008       L1    21  0.98
      L1  C    16    43       P1  7957  0.65

> <Gold.PLP.Chemscore.Internal.Correction>
0.6962

> <Gold.Rescore>
     Score         DG    S(hbond)    S(metal)    S(lipo)     H(rot)  DE(clash)    DE(int)     intcor
     10.89     -14.75       1.99        0.00      95.69       3.35       0.02       3.84       ----

> <Gold.Chemscore.Fitness>
10.8905

> <Gold.Chemscore.DG>
-14.7501

> <Gold.Chemscore.ZeroCoef>
-5.4800

> <Gold.Chemscore.Hbond>
1.9873

> <Gold.Chemscore.Metal>
0.0000

> <Gold.Chemscore.Lipo>
95.6927

> <Gold.Chemscore.Internal_Hbond>
0.0000

> <Gold.Chemscore.DEClash>
0.0217

> <Gold.Chemscore.DEInternal>
3.8379

> <Gold.Chemscore.Rot>
3.3452

> <Gold.Chemscore.Internal.Correction>
   9.000000E+99

> <Gold.Chemscore.Hbonds>
donor molecule, donor type, donor heavy atom, donor atom, acceptor molecule, acceptor atom, score
      L1  H    27    62       P1  7948  1.00
      P1  H  7997  8008       L1    21  0.75

> <Gold.Chemscore.Hbond.Weighted>
-6.6377

> <Gold.Chemscore.Metal.Weighted>
-0.0000

> <Gold.Chemscore.Lipo.Weighted>
-11.1960

> <Gold.Chemscore.Internal_Hbond.Weighted>
0.0000

> <Gold.Chemscore.DEClash.Weighted>
0.0217

> <Gold.Chemscore.DEInternal.Weighted>
3.8379

> <Gold.Chemscore.Rot.Weighted>
8.5636

> <Gold.Chemscore.Internal.Correction.Weighted>
   9.000000E+99

> <Gold.Protein.RotatedTorsions>
[ 6907 6896 6895 6894 ] final   55.19 input  -60.11 | X-H torsion
[ 7974 7965 7964 7962 ] final   68.19 input  175.53 | X-H torsion
[ 8008 7997 7996 7995 ] final  -83.69 input   59.86 | X-H torsion
[ 10167 10162 10161 10158 ] final -111.93 input  -65.29 | X-H torsion
[ 10718 10713 10712 10709 ] final  -63.72 input   66.30 | X-H torsion
[ 10763 10752 10751 10750 ] final -164.12 input  -60.55 | X-H torsion
[ 11005 11000 10999 10996 ] final   66.53 input  -57.11 | X-H torsion

> <Gold.Protein.ActiveResidues>
 VAL166  LYS551  ARG553  GLY616  TRP617  ASP618  TYR619  PRO620  LYS621  CYS622 
 ASP623  PHE694  ASN695  SER759  ASP760  ASP761  ALA762  ILE779  LEU786  VAL792 
 PHE793  MET794  SER795  GLU796  ALA797  LYS798  CYS799  TRP800  GLU811  SER814 

> <Gold.Protein.RotatedAtoms>
  152.3514  134.7000  160.0234 H   0  0  0  0  0  0  0  0  0  0  0  0  # atno 6907 bound_to 6896
  151.7353  133.3314  159.3359 H   0  0  0  0  0  0  0  0  0  0  0  0  # atno 6908 bound_to 6896
  150.7542  134.6260  159.6205 H   0  0  0  0  0  0  0  0  0  0  0  0  # atno 6909 bound_to 6896
  145.8056  139.3005  143.1129 H   0  0  0  0  0  0  0  0  0  0  0  0  # atno 7974 bound_to 7965
  154.6218  140.0615  156.9624 H   0  0  0  0  0  0  0  0  0  0  0  0  # atno 8008 bound_to 7997
  155.1805  140.3299  155.4357 H   0  0  0  0  0  0  0  0  0  0  0  0  # atno 8009 bound_to 7997
  156.2436  140.1898  156.6902 H   0  0  0  0  0  0  0  0  0  0  0  0  # atno 8010 bound_to 7997
  140.1283  143.4383  152.1645 H   0  0  0  0  0  0  0  0  0  0  0  0  # atno 10167 bound_to 10162
  156.0773  130.4224  150.1318 H   0  0  0  0  0  0  0  0  0  0  0  0  # atno 10718 bound_to 10713
  154.7058  135.2996  154.9272 H   0  0  0  0  0  0  0  0  0  0  0  0  # atno 10763 bound_to 10752
  154.0190  135.6685  153.4775 H   0  0  0  0  0  0  0  0  0  0  0  0  # atno 10764 bound_to 10752
  153.0716  135.5058  154.8228 H   0  0  0  0  0  0  0  0  0  0  0  0  # atno 10765 bound_to 10752
  139.9826  134.6719  156.0234 H   0  0  0  0  0  0  0  0  0  0  0  0  # atno 11005 bound_to 11000
  145.9831  140.8665  143.0104 LP  0  0  0  0  0  0  0  0  0  0  0  0  # atno 17320 bound_to 7965
  144.6763  140.2109  143.7377 LP  0  0  0  0  0  0  0  0  0  0  0  0  # atno 17321 bound_to 7965
  139.5533  144.7354  151.4370 LP  0  0  0  0  0  0  0  0  0  0  0  0  # atno 17342 bound_to 10162
  140.6832  143.8034  150.7150 LP  0  0  0  0  0  0  0  0  0  0  0  0  # atno 17343 bound_to 10162
  156.9356  130.9728  151.3525 LP  0  0  0  0  0  0  0  0  0  0  0  0  # atno 17370 bound_to 10713
  157.5874  130.8419  149.8610 LP  0  0  0  0  0  0  0  0  0  0  0  0  # atno 17371 bound_to 10713
  141.1496  133.6550  156.3972 LP  0  0  0  0  0  0  0  0  0  0  0  0  # atno 17394 bound_to 11000
  140.5066  134.6435  157.5269 LP  0  0  0  0  0  0  0  0  0  0  0  0  # atno 17395 bound_to 11000

$$$$
