AV-unprocessed.smi:2741|AV-procd|sdf|10560|dock6
  -GOLD-   2272015 13D 1   1.00000     0.00000
 Structure written by MMmdl.
 39 40  0  0  0  0  0  0  0  0  1 V2000
  151.0363  141.8194  156.0738 O   0  0  0  0  0  0  0  0  0  0  0  0
  150.3959  140.8382  156.4541 C   0  0  0  0  0  0  0  0  0  0  0  0
  150.7556  140.1193  157.7626 C   0  0  0  0  0  0  0  0  0  0  0  0
  151.5775  140.9368  158.6710 N   0  0  0  0  0  0  0  0  0  0  0  0
  151.2525  142.3038  158.7751 C   0  0  0  0  0  0  0  0  0  0  0  0
  151.9383  143.1631  159.5530 C   0  0  0  0  0  0  0  0  0  0  0  0
  151.5307  144.6226  159.6806 C   0  0  0  0  0  0  0  0  0  0  0  0
  152.2294  145.2368  160.6355 F   0  0  0  0  0  0  0  0  0  0  0  0
  151.7520  145.2569  158.5302 F   0  0  0  0  0  0  0  0  0  0  0  0
  150.2342  144.7341  159.9727 F   0  0  0  0  0  0  0  0  0  0  0  0
  153.0312  142.6041  160.3241 C   0  0  0  0  0  0  0  0  0  0  0  0
  153.3510  141.2977  160.2412 C   0  0  0  0  0  0  0  0  0  0  0  0
  152.6104  140.3805  159.3721 C   0  0  0  0  0  0  0  0  0  0  0  0
  152.8998  139.1871  159.2801 O   0  0  0  0  0  0  0  0  0  0  0  0
  149.3465  140.3419  155.7816 N   0  0  0  0  0  0  0  0  0  0  0  0
  148.8291  140.8716  154.5246 C   0  0  0  0  0  0  0  0  0  0  0  0
  147.3329  141.2281  154.6161 C   0  0  2  0  0  0  0  0  0  0  0  0
  146.8120  142.1125  153.4669 C   0  0  0  0  0  0  0  0  0  0  0  0
  145.7905  143.0807  154.0857 C   0  0  0  0  0  0  0  0  0  0  0  0
  145.6231  142.6334  155.5409 C   0  0  2  0  0  0  0  0  0  0  0  0
  145.3074  143.7100  156.3980 O   0  0  0  0  0  0  0  0  0  0  0  0
  146.9627  141.9897  155.8912 C   0  0  0  0  0  0  0  0  0  0  0  0
  149.8274  139.8203  158.2514 H   0  0  0  0  0  0  0  0  0  0  0  0
  151.2687  139.1840  157.5308 H   0  0  0  0  0  0  0  0  0  0  0  0
  150.4089  142.6127  158.1750 H   0  0  0  0  0  0  0  0  0  0  0  0
  153.6077  143.2437  160.9759 H   0  0  0  0  0  0  0  0  0  0  0  0
  154.1737  140.9161  160.8279 H   0  0  0  0  0  0  0  0  0  0  0  0
  148.8735  139.5366  156.1660 H   0  0  0  0  0  0  0  0  0  0  0  0
  149.4088  141.7460  154.2239 H   0  0  0  0  0  0  0  0  0  0  0  0
  148.9873  140.1187  153.7518 H   0  0  0  0  0  0  0  0  0  0  0  0
  146.7504  140.3052  154.6140 H   0  0  0  0  0  0  0  0  0  0  0  0
  147.6214  142.6806  153.0069 H   0  0  0  0  0  0  0  0  0  0  0  0
  146.3615  141.5015  152.6839 H   0  0  0  0  0  0  0  0  0  0  0  0
  146.1916  144.0946  154.0450 H   0  0  0  0  0  0  0  0  0  0  0  0
  144.8414  143.0843  153.5487 H   0  0  0  0  0  0  0  0  0  0  0  0
  144.8326  141.8839  155.6030 H   0  0  0  0  0  0  0  0  0  0  0  0
  146.0950  144.2067  156.5591 H   0  0  0  0  0  0  0  0  0  0  0  0
  146.9017  141.3405  156.7651 H   0  0  0  0  0  0  0  0  0  0  0  0
  147.7083  142.7601  156.0967 H   0  0  0  0  0  0  0  0  0  0  0  0
  1  2  2  0  0  0  0
  2  3  1  0  0  0  0
  2 15  1  0  0  0  0
  3  4  1  0  0  0  0
  3 23  1  0  0  0  0
  3 24  1  0  0  0  0
  4 13  1  0  0  0  0
  4  5  1  0  0  0  0
  5  6  2  0  0  0  0
  5 25  1  0  0  0  0
  6  7  1  0  0  0  0
  6 11  1  0  0  0  0
  7  8  1  0  0  0  0
  7  9  1  0  0  0  0
  7 10  1  0  0  0  0
 11 12  2  0  0  0  0
 11 26  1  0  0  0  0
 12 13  1  0  0  0  0
 12 27  1  0  0  0  0
 13 14  2  0  0  0  0
 15 16  1  0  0  0  0
 15 28  1  0  0  0  0
 16 17  1  0  0  0  0
 16 29  1  0  0  0  0
 16 30  1  0  0  0  0
 17 22  1  0  0  0  0
 17 18  1  0  0  0  0
 17 31  1  0  0  0  0
 18 19  1  0  0  0  0
 18 32  1  0  0  0  0
 18 33  1  0  0  0  0
 19 20  1  0  0  0  0
 19 34  1  0  0  0  0
 19 35  1  0  0  0  0
 20 21  1  0  0  0  0
 20 22  1  0  0  0  0
 20 36  1  0  0  0  0
 21 37  1  0  0  0  0
 22 38  1  0  0  0  0
 22 39  1  0  0  0  0
M  END
> <s_m_source_file>
AV-unprocessed.smi

> <i_m_source_file_index>
2741

> <i_lp_mmshare_version>
43012

> <i_f3d_flags>
0

> <s_epik_input>
W09IXVtDQEBIXShbQ0gyXTEpW0NIMl1bQ0gyXVtDQEhdMVtDSDJdW05IXUMoPU8pW0NIMl1uMltjSF1jKEMoRikoRilGKVtjSF1bY0hdYzI9Tw==

> <s_epik_cmdline>
J2VwaWtfcHl0aG9uJywgJy1waCcsICc3LjAnLCAnLXRuJywgJzgnLCAnLW1hJywgJzIwMCcsICctbWV0YWxfYmluZGluZycsICctaW1hZScsICc8aW5maWxlLm1hZT4nLCAnLW9tYWUnLCAnPG91dGZpbGUubWFlPic=

> <r_lp_tautomer_probability>
1

> <r_epik_Ionization_Penalty>
1.17551e-06

> <r_epik_Ionization_Penalty_Charging>
1.78841e-08

> <r_epik_Ionization_Penalty_Neutral>
1.15762e-06

> <r_epik_State_Penalty>
-0

> <r_epik_Charging_Adjusted_Penalty>
1.78841e-08

> <i_epik_Tot_Q>
0

> <i_epik_Tot_abs_Q>
0

> <r_epik_Metal_State_Penalty>
-0

> <b_epik_Metal_Only>
0

> <s_lp_Force_Field>
OPLS_2005

> <r_lp_Energy>
33.0279

> <b_lp_Chiralities_Consistent>
1

> <s_lp_Variant>
AV-unprocessed.smi:2741-3

> <Gold.Version>
5.8.1

> <Gold.Id.Protein>
6NUR|6NUR_protein|mol2

> <Gold.PLP.Fitness>
44.7054

> <Gold.PLP.PLP>
-46.2803

> <Gold.PLP.part.hbond>
0.0000

> <Gold.PLP.part.metal>
0.0000

> <Gold.PLP.part.buried>
-6.8584

> <Gold.PLP.part.nonpolar>
-38.7209

> <Gold.PLP.part.repulsive>
0.1283

> <Gold.PLP.ligand.clash>
0.0000

> <Gold.PLP.ligand.torsion>
0.8184

> <Gold.PLP.Chemscore.Hbond>
0.0000

> <Gold.PLP.Chemscore.CHOScore>
0.0000

> <Gold.PLP.Chemscore.Metal>
0.0000

> <Gold.PLP.Chemscore.Internal.Correction>
0.0620

> <Gold.Rescore>
     Score         DG    S(hbond)    S(metal)    S(lipo)     H(rot)  DE(clash)    DE(int)     intcor
      6.85      -9.45       0.00        0.00      88.24       2.48       0.41       2.19       ----

> <Gold.Chemscore.Fitness>
6.8480

> <Gold.Chemscore.DG>
-9.4530

> <Gold.Chemscore.ZeroCoef>
-5.4800

> <Gold.Chemscore.Hbond>
0.0000

> <Gold.Chemscore.Metal>
0.0000

> <Gold.Chemscore.Lipo>
88.2361

> <Gold.Chemscore.Internal_Hbond>
0.0000

> <Gold.Chemscore.DEClash>
0.4118

> <Gold.Chemscore.DEInternal>
2.1932

> <Gold.Chemscore.Rot>
2.4807

> <Gold.Chemscore.Internal.Correction>
   9.000000E+99

> <Gold.Chemscore.Hbond.Weighted>
-0.0000

> <Gold.Chemscore.Metal.Weighted>
-0.0000

> <Gold.Chemscore.Lipo.Weighted>
-10.3236

> <Gold.Chemscore.Internal_Hbond.Weighted>
0.0000

> <Gold.Chemscore.DEClash.Weighted>
0.4118

> <Gold.Chemscore.DEInternal.Weighted>
2.1932

> <Gold.Chemscore.Rot.Weighted>
6.3507

> <Gold.Chemscore.Internal.Correction.Weighted>
   9.000000E+99

> <Gold.Protein.RotatedTorsions>
[ 6907 6896 6895 6894 ] final  124.16 input  -60.11 | X-H torsion
[ 7974 7965 7964 7962 ] final   91.13 input  175.53 | X-H torsion
[ 8008 7997 7996 7995 ] final  161.17 input   59.86 | X-H torsion
[ 10167 10162 10161 10158 ] final   -7.31 input  -65.29 | X-H torsion
[ 10718 10713 10712 10709 ] final  154.20 input   66.30 | X-H torsion
[ 10763 10752 10751 10750 ] final  -31.95 input  -60.55 | X-H torsion
[ 11005 11000 10999 10996 ] final   10.31 input  -57.11 | X-H torsion

> <Gold.Protein.ActiveResidues>
 VAL166  LYS551  ARG553  GLY616  TRP617  ASP618  TYR619  PRO620  LYS621  CYS622 
 ASP623  PHE694  ASN695  SER759  ASP760  ASP761  ALA762  ILE779  LEU786  VAL792 
 PHE793  MET794  SER795  GLU796  ALA797  LYS798  CYS799  TRP800  GLU811  SER814 

> <Gold.Protein.RotatedAtoms>
  152.4102  133.6951  159.6390 H   0  0  0  0  0  0  0  0  0  0  0  0  # atno 6907 bound_to 6896
  150.7983  133.8638  159.3248 H   0  0  0  0  0  0  0  0  0  0  0  0  # atno 6908 bound_to 6896
  151.6382  135.1017  160.0187 H   0  0  0  0  0  0  0  0  0  0  0  0  # atno 6909 bound_to 6896
  145.5098  139.2277  143.2731 H   0  0  0  0  0  0  0  0  0  0  0  0  # atno 7974 bound_to 7965
  156.2122  140.1784  156.7669 H   0  0  0  0  0  0  0  0  0  0  0  0  # atno 8008 bound_to 7997
  154.5739  140.0678  156.9034 H   0  0  0  0  0  0  0  0  0  0  0  0  # atno 8009 bound_to 7997
  155.2623  140.3336  155.4274 H   0  0  0  0  0  0  0  0  0  0  0  0  # atno 8010 bound_to 7997
  140.7025  143.6095  150.8718 H   0  0  0  0  0  0  0  0  0  0  0  0  # atno 10167 bound_to 10162
  157.2347  131.0746  151.1831 H   0  0  0  0  0  0  0  0  0  0  0  0  # atno 10718 bound_to 10713
  153.8058  135.6886  153.4848 H   0  0  0  0  0  0  0  0  0  0  0  0  # atno 10763 bound_to 10752
  153.1659  135.4561  154.9835 H   0  0  0  0  0  0  0  0  0  0  0  0  # atno 10764 bound_to 10752
  154.7988  135.3329  154.7543 H   0  0  0  0  0  0  0  0  0  0  0  0  # atno 10765 bound_to 10752
  140.5159  134.0607  155.7831 H   0  0  0  0  0  0  0  0  0  0  0  0  # atno 11005 bound_to 11000
  146.2174  140.5904  142.9032 LP  0  0  0  0  0  0  0  0  0  0  0  0  # atno 17320 bound_to 7965
  144.7734  140.5687  143.6655 LP  0  0  0  0  0  0  0  0  0  0  0  0  # atno 17321 bound_to 7965
  139.9818  143.5942  152.2940 LP  0  0  0  0  0  0  0  0  0  0  0  0  # atno 17342 bound_to 10162
  139.6566  144.7662  151.2043 LP  0  0  0  0  0  0  0  0  0  0  0  0  # atno 17343 bound_to 10162
  157.3442  130.7048  149.6400 LP  0  0  0  0  0  0  0  0  0  0  0  0  # atno 17370 bound_to 10713
  155.9673  130.4271  150.4729 LP  0  0  0  0  0  0  0  0  0  0  0  0  # atno 17371 bound_to 10713
  141.1361  133.9220  157.2431 LP  0  0  0  0  0  0  0  0  0  0  0  0  # atno 17394 bound_to 11000
  139.9633  135.0148  156.9319 LP  0  0  0  0  0  0  0  0  0  0  0  0  # atno 17395 bound_to 11000

$$$$
