AV-unprocessed.smi:1346|AV-procd|sdf|5515|dock2
  -GOLD-   22720 5103D 1   1.00000     0.00000
 Structure written by MMmdl.
 47 48  0  0  0  0  0  0  0  0  1 V2000
  146.4082  141.3937  157.3829 C   0  0  0  0  0  0  0  0  0  0  0  0
  146.1331  142.4463  156.3473 C   0  0  0  0  0  0  0  0  0  0  0  0
  145.5268  143.5641  156.7099 N   0  0  0  0  0  0  0  0  0  0  0  0
  145.4008  144.3276  155.5456 O   0  0  0  0  0  0  0  0  0  0  0  0
  145.9397  143.6294  154.5142 C   0  0  0  0  0  0  0  0  0  0  0  0
  145.8961  144.2767  153.1716 C   0  0  0  0  0  0  0  0  0  0  0  0
  146.4258  142.4282  154.9518 C   0  0  0  0  0  0  0  0  0  0  0  0
  147.1002  141.3451  154.1485 C   0  0  0  0  0  0  0  0  0  0  0  0
  148.6132  141.4274  154.3481 C   0  0  0  0  0  0  0  0  0  0  0  0
  149.3513  141.6693  153.3934 O   0  0  0  0  0  0  0  0  0  0  0  0
  149.0595  141.2050  155.5916 N   0  0  0  0  0  0  0  0  0  0  0  0
  150.4617  141.1420  155.9766 C   0  0  0  0  0  0  0  0  0  0  0  0
  150.7798  142.2534  156.9821 C   0  0  0  0  0  0  0  0  0  0  0  0
  151.1722  141.6534  158.2083 O   0  0  0  0  0  0  0  0  0  0  0  0
  151.8527  142.5192  159.1075 C   0  0  1  0  0  0  0  0  0  0  0  0
  151.0556  143.8328  159.2644 C   0  0  0  0  0  0  0  0  0  0  0  0
  151.6699  144.7434  160.3374 C   0  0  0  0  0  0  0  0  0  0  0  0
  151.7820  144.0113  161.6815 C   0  0  0  0  0  0  0  0  0  0  0  0
  152.5854  142.7106  161.5338 C   0  0  0  0  0  0  0  0  0  0  0  0
  151.9798  141.7831  160.4611 C   0  0  2  0  0  0  0  0  0  0  0  0
  152.8052  140.4923  160.3331 C   0  0  0  0  0  0  0  0  0  0  0  0
  147.2342  140.7483  157.0851 H   0  0  0  0  0  0  0  0  0  0  0  0
  145.5324  140.7629  157.5345 H   0  0  0  0  0  0  0  0  0  0  0  0
  146.6687  141.8372  158.3442 H   0  0  0  0  0  0  0  0  0  0  0  0
  145.6567  143.5466  152.3981 H   0  0  0  0  0  0  0  0  0  0  0  0
  146.8599  144.7236  152.9286 H   0  0  0  0  0  0  0  0  0  0  0  0
  145.1398  145.0613  153.1384 H   0  0  0  0  0  0  0  0  0  0  0  0
  146.7601  140.3542  154.4513 H   0  0  0  0  0  0  0  0  0  0  0  0
  146.8649  141.4311  153.0868 H   0  0  0  0  0  0  0  0  0  0  0  0
  148.3804  141.0126  156.3135 H   0  0  0  0  0  0  0  0  0  0  0  0
  150.6875  140.1681  156.4140 H   0  0  0  0  0  0  0  0  0  0  0  0
  151.0836  141.2510  155.0873 H   0  0  0  0  0  0  0  0  0  0  0  0
  151.5900  142.8769  156.6017 H   0  0  0  0  0  0  0  0  0  0  0  0
  149.9082  142.8945  157.1141 H   0  0  0  0  0  0  0  0  0  0  0  0
  152.8550  142.7376  158.7336 H   0  0  0  0  0  0  0  0  0  0  0  0
  151.0138  144.3747  158.3203 H   0  0  0  0  0  0  0  0  0  0  0  0
  150.0236  143.6044  159.5331 H   0  0  0  0  0  0  0  0  0  0  0  0
  152.6582  145.0739  160.0153 H   0  0  0  0  0  0  0  0  0  0  0  0
  151.0644  145.6427  160.4534 H   0  0  0  0  0  0  0  0  0  0  0  0
  152.2551  144.6593  162.4199 H   0  0  0  0  0  0  0  0  0  0  0  0
  150.7846  143.7853  162.0608 H   0  0  0  0  0  0  0  0  0  0  0  0
  153.6175  142.9502  161.2743 H   0  0  0  0  0  0  0  0  0  0  0  0
  152.6215  142.1956  162.4944 H   0  0  0  0  0  0  0  0  0  0  0  0
  150.9779  141.5033  160.7907 H   0  0  0  0  0  0  0  0  0  0  0  0
  153.8191  140.7026  159.9914 H   0  0  0  0  0  0  0  0  0  0  0  0
  152.3524  139.7991  159.6236 H   0  0  0  0  0  0  0  0  0  0  0  0
  152.8769  139.9761  161.2907 H   0  0  0  0  0  0  0  0  0  0  0  0
  1  2  1  0  0  0  0
  1 22  1  0  0  0  0
  1 23  1  0  0  0  0
  1 24  1  0  0  0  0
  2  7  1  0  0  0  0
  2  3  2  0  0  0  0
  3  4  1  0  0  0  0
  4  5  1  0  0  0  0
  5  6  1  0  0  0  0
  5  7  2  0  0  0  0
  6 25  1  0  0  0  0
  6 26  1  0  0  0  0
  6 27  1  0  0  0  0
  7  8  1  0  0  0  0
  8  9  1  0  0  0  0
  8 28  1  0  0  0  0
  8 29  1  0  0  0  0
  9 10  2  0  0  0  0
  9 11  1  0  0  0  0
 11 12  1  0  0  0  0
 11 30  1  0  0  0  0
 12 13  1  0  0  0  0
 12 31  1  0  0  0  0
 12 32  1  0  0  0  0
 13 14  1  0  0  0  0
 13 33  1  0  0  0  0
 13 34  1  0  0  0  0
 14 15  1  0  0  0  0
 15 20  1  0  0  0  0
 15 16  1  0  0  0  0
 15 35  1  0  0  0  0
 16 17  1  0  0  0  0
 16 36  1  0  0  0  0
 16 37  1  0  0  0  0
 17 18  1  0  0  0  0
 17 38  1  0  0  0  0
 17 39  1  0  0  0  0
 18 19  1  0  0  0  0
 18 40  1  0  0  0  0
 18 41  1  0  0  0  0
 19 20  1  0  0  0  0
 19 42  1  0  0  0  0
 19 43  1  0  0  0  0
 20 21  1  0  0  0  0
 20 44  1  0  0  0  0
 21 45  1  0  0  0  0
 21 46  1  0  0  0  0
 21 47  1  0  0  0  0
M  END
> <s_m_source_file>
AV-unprocessed.smi

> <i_m_source_file_index>
1346

> <i_lp_mmshare_version>
43012

> <i_f3d_flags>
0

> <s_epik_input>
W0NIM11jMW5vYyhbQ0gzXSljMVtDSDJdQyg9TylbTkhdW0NIMl1bQ0gyXU9bQ0BASF0yW0NIMl1bQ0gyXVtDSDJdW0NIMl1bQ0BIXTJbQ0gzXQ==

> <s_epik_cmdline>
J2VwaWtfcHl0aG9uJywgJy1waCcsICc3LjAnLCAnLXRuJywgJzgnLCAnLW1hJywgJzIwMCcsICctbWV0YWxfYmluZGluZycsICctaW1hZScsICc8aW5maWxlLm1hZT4nLCAnLW9tYWUnLCAnPG91dGZpbGUubWFlPic=

> <r_lp_tautomer_probability>
1

> <r_epik_Ionization_Penalty>
3.26154e-08

> <r_epik_Ionization_Penalty_Charging>
0

> <r_epik_Ionization_Penalty_Neutral>
3.26154e-08

> <r_epik_State_Penalty>
-0

> <r_epik_Charging_Adjusted_Penalty>
0

> <i_epik_Tot_Q>
0

> <i_epik_Tot_abs_Q>
0

> <r_epik_Metal_State_Penalty>
-0

> <b_epik_Metal_Only>
0

> <s_lp_Force_Field>
OPLS_2005

> <r_lp_Energy>
4.3429

> <b_lp_Chiralities_Consistent>
1

> <s_lp_Variant>
AV-unprocessed.smi:1346-4

> <Gold.Version>
5.8.1

> <Gold.Id.Protein>
6NUR|6NUR_protein|mol2

> <Gold.PLP.Fitness>
45.2506

> <Gold.PLP.PLP>
-44.0588

> <Gold.PLP.part.hbond>
-1.7782

> <Gold.PLP.part.metal>
0.0000

> <Gold.PLP.part.buried>
-6.1856

> <Gold.PLP.part.nonpolar>
-37.8601

> <Gold.PLP.part.repulsive>
3.0316

> <Gold.PLP.ligand.clash>
0.0000

> <Gold.PLP.ligand.torsion>
0.7785

> <Gold.PLP.Chemscore.Hbond>
0.8894

> <Gold.PLP.Chemscore.CHOScore>
0.0000

> <Gold.PLP.Chemscore.Metal>
0.0000

> <Gold.Chemscore.Hbonds>
donor molecule, donor type, donor heavy atom, donor atom, acceptor molecule, acceptor atom, score
      P1  H  8011  8017       L1    10  0.48

> <Gold.PLP.Chemscore.Internal.Correction>
0.0807

> <Gold.Rescore>
     Score         DG    S(hbond)    S(metal)    S(lipo)     H(rot)  DE(clash)    DE(int)     intcor
     14.56     -15.76       0.70        0.00     105.97       1.74       0.40       0.80       ----

> <Gold.Chemscore.Fitness>
14.5550

> <Gold.Chemscore.DG>
-15.7577

> <Gold.Chemscore.ZeroCoef>
-5.4800

> <Gold.Chemscore.Hbond>
0.6951

> <Gold.Chemscore.Metal>
0.0000

> <Gold.Chemscore.Lipo>
105.9679

> <Gold.Chemscore.Internal_Hbond>
0.0000

> <Gold.Chemscore.DEClash>
0.4021

> <Gold.Chemscore.DEInternal>
0.8007

> <Gold.Chemscore.Rot>
1.7352

> <Gold.Chemscore.Internal.Correction>
   9.000000E+99

> <Gold.Chemscore.Hbonds>
donor molecule, donor type, donor heavy atom, donor atom, acceptor molecule, acceptor atom, score
      P1  H  7989  7998       L1    10  0.01
      P1  H  8011  8017       L1    10  0.48

> <Gold.Chemscore.Hbond.Weighted>
-2.3215

> <Gold.Chemscore.Metal.Weighted>
-0.0000

> <Gold.Chemscore.Lipo.Weighted>
-12.3982

> <Gold.Chemscore.Internal_Hbond.Weighted>
0.0000

> <Gold.Chemscore.DEClash.Weighted>
0.4021

> <Gold.Chemscore.DEInternal.Weighted>
0.8007

> <Gold.Chemscore.Rot.Weighted>
4.4420

> <Gold.Chemscore.Internal.Correction.Weighted>
   9.000000E+99

> <Gold.Protein.RotatedTorsions>
[ 6907 6896 6895 6894 ] final -111.74 input  -60.11 | X-H torsion
[ 7974 7965 7964 7962 ] final  -27.34 input  175.53 | X-H torsion
[ 8008 7997 7996 7995 ] final  -49.92 input   59.86 | X-H torsion
[ 10167 10162 10161 10158 ] final   97.76 input  -65.29 | X-H torsion
[ 10718 10713 10712 10709 ] final  -85.04 input   66.30 | X-H torsion
[ 10763 10752 10751 10750 ] final  162.48 input  -60.55 | X-H torsion
[ 11005 11000 10999 10996 ] final   68.32 input  -57.11 | X-H torsion

> <Gold.Protein.ActiveResidues>
 VAL166  LYS551  ARG553  GLY616  TRP617  ASP618  TYR619  PRO620  LYS621  CYS622 
 ASP623  PHE694  ASN695  SER759  ASP760  ASP761  ALA762  ILE779  LEU786  VAL792 
 PHE793  MET794  SER795  GLU796  ALA797  LYS798  CYS799  TRP800  GLU811  SER814 

> <Gold.Protein.RotatedAtoms>
  150.7711  133.9191  159.3392 H   0  0  0  0  0  0  0  0  0  0  0  0  # atno 6907 bound_to 6896
  151.7077  135.0916  160.0271 H   0  0  0  0  0  0  0  0  0  0  0  0  # atno 6908 bound_to 6896
  152.3728  133.6404  159.6136 H   0  0  0  0  0  0  0  0  0  0  0  0  # atno 6909 bound_to 6896
  146.1364  140.5139  142.8671 H   0  0  0  0  0  0  0  0  0  0  0  0  # atno 7974 bound_to 7965
  154.4052  140.1285  156.4581 H   0  0  0  0  0  0  0  0  0  0  0  0  # atno 8008 bound_to 7997
  155.7300  140.3491  155.5035 H   0  0  0  0  0  0  0  0  0  0  0  0  # atno 8009 bound_to 7997
  155.9136  140.1040  157.1251 H   0  0  0  0  0  0  0  0  0  0  0  0  # atno 8010 bound_to 7997
  139.7771  144.6901  151.0074 H   0  0  0  0  0  0  0  0  0  0  0  0  # atno 10167 bound_to 10162
  156.0000  130.4718  150.4502 H   0  0  0  0  0  0  0  0  0  0  0  0  # atno 10718 bound_to 10713
  154.2790  135.2763  155.2705 H   0  0  0  0  0  0  0  0  0  0  0  0  # atno 10763 bound_to 10752
  154.5235  135.5750  153.6703 H   0  0  0  0  0  0  0  0  0  0  0  0  # atno 10764 bound_to 10752
  152.9932  135.6210  154.2949 H   0  0  0  0  0  0  0  0  0  0  0  0  # atno 10765 bound_to 10752
  139.9718  134.6888  156.0432 H   0  0  0  0  0  0  0  0  0  0  0  0  # atno 11005 bound_to 11000
  144.7745  140.5709  143.6648 LP  0  0  0  0  0  0  0  0  0  0  0  0  # atno 17320 bound_to 7965
  145.5146  139.1478  143.3586 LP  0  0  0  0  0  0  0  0  0  0  0  0  # atno 17321 bound_to 7965
  140.7817  143.4523  151.0395 LP  0  0  0  0  0  0  0  0  0  0  0  0  # atno 17342 bound_to 10162
  139.8205  143.7826  152.3176 LP  0  0  0  0  0  0  0  0  0  0  0  0  # atno 17343 bound_to 10162
  157.2536  131.0551  151.2364 LP  0  0  0  0  0  0  0  0  0  0  0  0  # atno 17370 bound_to 10713
  157.3504  130.7079  149.6437 LP  0  0  0  0  0  0  0  0  0  0  0  0  # atno 17371 bound_to 10713
  141.1397  133.6567  156.3695 LP  0  0  0  0  0  0  0  0  0  0  0  0  # atno 17394 bound_to 11000
  140.5277  134.6242  157.5340 LP  0  0  0  0  0  0  0  0  0  0  0  0  # atno 17395 bound_to 11000

$$$$
