AV-unprocessed.smi:2385|AV-procd|sdf|9466|dock4
  -GOLD-   2272013 93D 1   1.00000     0.00000
 Structure written by MMmdl.
 50 52  0  0  0  0  0  0  0  0  2 V2000
  136.6942  137.6420  154.6126 C   0  0  0  0  0  0  0  0  0  0  0  0
  138.1391  137.7826  154.1814 C   0  0  0  0  0  0  0  0  0  0  0  0
  138.6967  139.0429  153.8936 C   0  0  0  0  0  0  0  0  0  0  0  0
  140.0465  139.1134  153.4978 C   0  0  0  0  0  0  0  0  0  0  0  0
  140.8052  137.9253  153.3982 C   0  0  0  0  0  0  0  0  0  0  0  0
  142.1549  138.1055  152.9933 N   0  0  0  0  0  0  0  0  0  0  0  0
  143.1009  137.1664  152.8153 C   0  0  0  0  0  0  0  0  0  0  0  0
  142.9395  135.9544  152.9596 O   0  0  0  0  0  0  0  0  0  0  0  0
  144.2700  137.7160  152.4539 N   0  0  0  0  0  0  0  0  0  0  0  0
  145.4992  136.9761  152.1674 C   0  0  2  0  0  0  0  0  0  0  0  0
  146.2309  136.5493  153.4548 C   0  0  0  0  0  0  0  0  0  0  0  0
  146.8507  137.7500  154.1906 C   0  0  0  0  0  0  0  0  0  0  0  0
  147.7675  138.5145  153.3046 N   0  3  2  0  0  0  0  0  0  0  0  0
  148.4831  139.5948  154.0347 C   0  0  0  0  0  0  0  0  0  0  0  0
  149.6981  139.0808  154.8354 C   0  0  1  0  0  0  0  0  0  0  0  0
  150.6941  138.2232  154.0584 C   0  0  0  0  0  0  0  0  0  0  0  0
  152.0661  138.6220  154.6129 C   0  0  0  0  0  0  0  0  0  0  0  0
  151.7981  139.5347  155.6672 O   0  0  0  0  0  0  0  0  0  0  0  0
  150.5935  140.2069  155.3487 C   0  0  0  0  0  0  0  0  0  0  0  0
  147.0662  138.9905  152.0822 C   0  0  0  0  0  0  0  0  0  0  0  0
  146.4453  137.8200  151.2971 C   0  0  0  0  0  0  0  0  0  0  0  0
  140.2589  136.7158  153.6783 N   0  0  0  0  0  0  0  0  0  0  0  0
  138.9654  136.6490  154.0574 C   0  0  0  0  0  0  0  0  0  0  0  0
  136.2042  138.6135  154.6818 H   0  0  0  0  0  0  0  0  0  0  0  0
  136.6369  137.1608  155.5894 H   0  0  0  0  0  0  0  0  0  0  0  0
  136.1440  137.0320  153.8955 H   0  0  0  0  0  0  0  0  0  0  0  0
  138.1047  139.9430  153.9741 H   0  0  0  0  0  0  0  0  0  0  0  0
  140.4895  140.0731  153.2733 H   0  0  0  0  0  0  0  0  0  0  0  0
  142.4311  139.0612  152.8241 H   0  0  0  0  0  0  0  0  0  0  0  0
  144.3075  138.7197  152.3522 H   0  0  0  0  0  0  0  0  0  0  0  0
  145.2266  136.0820  151.6033 H   0  0  0  0  0  0  0  0  0  0  0  0
  145.5579  136.0090  154.1215 H   0  0  0  0  0  0  0  0  0  0  0  0
  147.0227  135.8445  153.1970 H   0  0  0  0  0  0  0  0  0  0  0  0
  146.0685  138.4112  154.5671 H   0  0  0  0  0  0  0  0  0  0  0  0
  147.3982  137.3821  155.0592 H   0  0  0  0  0  0  0  0  0  0  0  0
  148.7596  140.4051  153.3582 H   0  0  0  0  0  0  0  0  0  0  0  0
  147.7944  140.0373  154.7558 H   0  0  0  0  0  0  0  0  0  0  0  0
  149.3524  138.5190  155.7049 H   0  0  0  0  0  0  0  0  0  0  0  0
  150.4984  137.1603  154.2022 H   0  0  0  0  0  0  0  0  0  0  0  0
  150.6567  138.4299  152.9880 H   0  0  0  0  0  0  0  0  0  0  0  0
  152.6337  137.7659  154.9784 H   0  0  0  0  0  0  0  0  0  0  0  0
  152.6598  139.1209  153.8459 H   0  0  0  0  0  0  0  0  0  0  0  0
  150.7829  140.9514  154.5735 H   0  0  0  0  0  0  0  0  0  0  0  0
  150.1765  140.7136  156.2194 H   0  0  0  0  0  0  0  0  0  0  0  0
  146.2951  139.7104  152.3605 H   0  0  0  0  0  0  0  0  0  0  0  0
  147.7584  139.5143  151.4268 H   0  0  0  0  0  0  0  0  0  0  0  0
  147.2460  137.1828  150.9186 H   0  0  0  0  0  0  0  0  0  0  0  0
  145.9180  138.1953  150.4191 H   0  0  0  0  0  0  0  0  0  0  0  0
  138.5801  135.6621  154.2681 H   0  0  0  0  0  0  0  0  0  0  0  0
  148.4737  137.8574  153.0050 H   0  0  0  0  0  0  0  0  0  0  0  0
  1  2  1  0  0  0  0
  1 24  1  0  0  0  0
  1 25  1  0  0  0  0
  1 26  1  0  0  0  0
  2 23  1  0  0  0  0
  2  3  2  0  0  0  0
  3  4  1  0  0  0  0
  3 27  1  0  0  0  0
  4  5  2  0  0  0  0
  4 28  1  0  0  0  0
  5  6  1  0  0  0  0
  5 22  1  0  0  0  0
  6  7  1  0  0  0  0
  6 29  1  0  0  0  0
  7  8  2  0  0  0  0
  7  9  1  0  0  0  0
  9 10  1  0  0  0  0
  9 30  1  0  0  0  0
 10 21  1  0  0  0  0
 10 11  1  0  0  0  0
 10 31  1  0  0  0  0
 11 12  1  0  0  0  0
 11 32  1  0  0  0  0
 11 33  1  0  0  0  0
 12 13  1  0  0  0  0
 12 34  1  0  0  0  0
 12 35  1  0  0  0  0
 13 14  1  0  0  0  0
 13 20  1  0  0  0  0
 13 50  1  0  0  0  0
 14 15  1  0  0  0  0
 14 36  1  0  0  0  0
 14 37  1  0  0  0  0
 15 19  1  0  0  0  0
 15 16  1  0  0  0  0
 15 38  1  0  0  0  0
 16 17  1  0  0  0  0
 16 39  1  0  0  0  0
 16 40  1  0  0  0  0
 17 18  1  0  0  0  0
 17 41  1  0  0  0  0
 17 42  1  0  0  0  0
 18 19  1  0  0  0  0
 19 43  1  0  0  0  0
 19 44  1  0  0  0  0
 20 21  1  0  0  0  0
 20 45  1  0  0  0  0
 20 46  1  0  0  0  0
 21 47  1  0  0  0  0
 21 48  1  0  0  0  0
 22 23  2  0  0  0  0
 23 49  1  0  0  0  0
M  CHG  1  13   1
M  END
> <s_m_source_file>
AV-unprocessed.smi

> <i_m_source_file_index>
2385

> <i_lp_mmshare_version>
43012

> <i_f3d_flags>
0

> <s_epik_input>
W0NIM11jMVtjSF1bY0hdYyhuW2NIXTEpW05IXUMoPU8pW05IXVtDSF0yW0NIMl1bQ0gyXU4oW0NIMl1bQ0gyXTIpW0NIMl1bQ0BASF0zW0NIMl1bQ0gyXU9bQ0gyXTM=

> <s_epik_cmdline>
J2VwaWtfcHl0aG9uJywgJy1waCcsICc3LjAnLCAnLXRuJywgJzgnLCAnLW1hJywgJzIwMCcsICctbWV0YWxfYmluZGluZycsICctaW1hZScsICc8aW5maWxlLm1hZT4nLCAnLW9tYWUnLCAnPG91dGZpbGUubWFlPic=

> <r_epik_Ionization_Penalty>
0.00752367

> <r_epik_Ionization_Penalty_Charging>
0.00747775

> <r_epik_Ionization_Penalty_Neutral>
4.59207e-05

> <r_epik_State_Penalty>
0.00558817

> <r_epik_Charging_Adjusted_Penalty>
0.0130659

> <i_epik_Tot_Q>
1

> <i_epik_Tot_abs_Q>
1

> <r_epik_Metal_State_Penalty>
-0

> <b_epik_Metal_Only>
0

> <s_lp_Force_Field>
OPLS_2005

> <r_lp_Energy>
36.5339

> <b_lp_Chiralities_Consistent>
1

> <s_lp_Variant>
AV-unprocessed.smi:2385-4

> <Gold.Version>
5.8.1

> <Gold.Id.Protein>
6NUR|6NUR_protein|mol2

> <Gold.PLP.Fitness>
51.7201

> <Gold.PLP.PLP>
-41.0211

> <Gold.PLP.part.hbond>
-4.3658

> <Gold.PLP.part.metal>
0.0000

> <Gold.PLP.part.buried>
2.2951

> <Gold.PLP.part.nonpolar>
-39.7073

> <Gold.PLP.part.repulsive>
0.3733

> <Gold.PLP.ligand.clash>
0.0000

> <Gold.PLP.ligand.torsion>
0.5979

> <Gold.PLP.Chemscore.Hbond>
3.9520

> <Gold.PLP.Chemscore.CHOScore>
0.0000

> <Gold.PLP.Chemscore.Metal>
0.0000

> <Gold.Chemscore.Hbonds>
donor molecule, donor type, donor heavy atom, donor atom, acceptor molecule, acceptor atom, score
      L1  H     6    29       P1 10175  1.00
      L1  H     9    30       P1 10175  1.00
      L1  H    13    50       P1  7948  1.95

> <Gold.PLP.Chemscore.Internal.Correction>
0.0387

> <Gold.Rescore>
     Score         DG    S(hbond)    S(metal)    S(lipo)     H(rot)  DE(clash)    DE(int)     intcor
     19.50     -23.45       2.88        0.00     102.13       1.41       2.19       1.76       ----

> <Gold.Chemscore.Fitness>
19.4954

> <Gold.Chemscore.DG>
-23.4469

> <Gold.Chemscore.ZeroCoef>
-5.4800

> <Gold.Chemscore.Hbond>
2.8790

> <Gold.Chemscore.Metal>
0.0000

> <Gold.Chemscore.Lipo>
102.1305

> <Gold.Chemscore.Internal_Hbond>
0.0000

> <Gold.Chemscore.DEClash>
2.1909

> <Gold.Chemscore.DEInternal>
1.7607

> <Gold.Chemscore.Rot>
1.4056

> <Gold.Chemscore.Internal.Correction>
   9.000000E+99

> <Gold.Chemscore.Hbonds>
donor molecule, donor type, donor heavy atom, donor atom, acceptor molecule, acceptor atom, score
      L1  H     6    29       P1 10175  0.98
      L1  H     9    30       P1 10175  0.98
      L1  H    13    50       P1  7948  0.86

> <Gold.Chemscore.Hbond.Weighted>
-9.6159

> <Gold.Chemscore.Metal.Weighted>
-0.0000

> <Gold.Chemscore.Lipo.Weighted>
-11.9493

> <Gold.Chemscore.Internal_Hbond.Weighted>
0.0000

> <Gold.Chemscore.DEClash.Weighted>
2.1909

> <Gold.Chemscore.DEInternal.Weighted>
1.7607

> <Gold.Chemscore.Rot.Weighted>
3.5982

> <Gold.Chemscore.Internal.Correction.Weighted>
   9.000000E+99

> <Gold.Protein.RotatedTorsions>
[ 6907 6896 6895 6894 ] final   65.49 input  -60.11 | X-H torsion
[ 7974 7965 7964 7962 ] final   -5.36 input  175.53 | X-H torsion
[ 8008 7997 7996 7995 ] final  -92.32 input   59.86 | X-H torsion
[ 10167 10162 10161 10158 ] final -157.71 input  -65.29 | X-H torsion
[ 10718 10713 10712 10709 ] final -109.03 input   66.30 | X-H torsion
[ 10763 10752 10751 10750 ] final   -4.50 input  -60.55 | X-H torsion
[ 11005 11000 10999 10996 ] final   51.42 input  -57.11 | X-H torsion

> <Gold.Protein.ActiveResidues>
 VAL166  LYS551  ARG553  GLY616  TRP617  ASP618  TYR619  PRO620  LYS621  CYS622 
 ASP623  PHE694  ASN695  SER759  ASP760  ASP761  ALA762  ILE779  LEU786  VAL792 
 PHE793  MET794  SER795  GLU796  ALA797  LYS798  CYS799  TRP800  GLU811  SER814 

> <Gold.Protein.RotatedAtoms>
  152.4411  134.5589  159.9888 H   0  0  0  0  0  0  0  0  0  0  0  0  # atno 6907 bound_to 6896
  151.5686  133.3387  159.2993 H   0  0  0  0  0  0  0  0  0  0  0  0  # atno 6908 bound_to 6896
  150.8317  134.7607  159.6923 H   0  0  0  0  0  0  0  0  0  0  0  0  # atno 6909 bound_to 6896
  146.2354  140.2010  142.8333 H   0  0  0  0  0  0  0  0  0  0  0  0  # atno 7974 bound_to 7965
  154.7216  140.0510  157.0645 H   0  0  0  0  0  0  0  0  0  0  0  0  # atno 8008 bound_to 7997
  155.0419  140.3169  155.4702 H   0  0  0  0  0  0  0  0  0  0  0  0  # atno 8009 bound_to 7997
  156.2818  140.2131  156.5543 H   0  0  0  0  0  0  0  0  0  0  0  0  # atno 8010 bound_to 7997
  139.6749  143.9681  152.2304 H   0  0  0  0  0  0  0  0  0  0  0  0  # atno 10167 bound_to 10162
  156.0515  130.5743  150.8043 H   0  0  0  0  0  0  0  0  0  0  0  0  # atno 10718 bound_to 10713
  153.3857  135.7000  153.6532 H   0  0  0  0  0  0  0  0  0  0  0  0  # atno 10763 bound_to 10752
  153.5125  135.3629  155.2594 H   0  0  0  0  0  0  0  0  0  0  0  0  # atno 10764 bound_to 10752
  154.8697  135.4138  154.3164 H   0  0  0  0  0  0  0  0  0  0  0  0  # atno 10765 bound_to 10752
  140.0934  134.5179  155.8830 H   0  0  0  0  0  0  0  0  0  0  0  0  # atno 11005 bound_to 11000
  144.9782  140.8434  143.5413 LP  0  0  0  0  0  0  0  0  0  0  0  0  # atno 17320 bound_to 7965
  145.2000  139.2257  143.5198 LP  0  0  0  0  0  0  0  0  0  0  0  0  # atno 17321 bound_to 7965
  139.9456  144.6654  150.8223 LP  0  0  0  0  0  0  0  0  0  0  0  0  # atno 17342 bound_to 10162
  140.7631  143.3216  151.2609 LP  0  0  0  0  0  0  0  0  0  0  0  0  # atno 17343 bound_to 10162
  157.5447  131.0942  150.9779 LP  0  0  0  0  0  0  0  0  0  0  0  0  # atno 17370 bound_to 10713
  157.0054  130.5616  149.5315 LP  0  0  0  0  0  0  0  0  0  0  0  0  # atno 17371 bound_to 10713
  141.2085  133.6674  156.6373 LP  0  0  0  0  0  0  0  0  0  0  0  0  # atno 17394 bound_to 11000
  140.3320  134.7920  157.4334 LP  0  0  0  0  0  0  0  0  0  0  0  0  # atno 17395 bound_to 11000

$$$$
