AV-unprocessed.smi:3068|AV-procd|sdf|11703|dock1
  -GOLD-   2272017103D 1   1.00000     0.00000
 Structure written by MMmdl.
 40 42  0  0  0  0  0  0  0  0  2 V2000
  153.3407  136.5565  160.0237 N   0  0  0  0  0  0  0  0  0  0  0  0
  153.4040  137.7096  160.0973 C   0  0  0  0  0  0  0  0  0  0  0  0
  153.4850  139.1619  160.1890 C   0  0  0  0  0  0  0  0  0  0  0  0
  154.1846  139.6663  161.2316 N   0  0  0  0  0  0  0  0  0  0  0  0
  154.2656  141.0102  161.3304 C   0  0  0  0  0  0  0  0  0  0  0  0
  153.6482  141.8569  160.3896 C   0  0  0  0  0  0  0  0  0  0  0  0
  152.9473  141.3627  159.3471 N   0  0  0  0  0  0  0  0  0  0  0  0
  152.8579  140.0134  159.2357 C   0  0  0  0  0  0  0  0  0  0  0  0
  152.1306  139.4827  158.1538 N   0  0  0  0  0  0  0  0  0  0  0  0
  152.1103  140.1270  156.8457 C   0  0  0  0  0  0  0  0  0  0  0  0
  150.6811  140.3787  156.3357 C   0  0  1  0  0  0  0  0  0  0  0  0
  150.2929  141.8684  156.4611 C   0  0  0  0  0  0  0  0  0  0  0  0
  148.9654  142.1390  155.8580 N   0  3  2  0  0  0  0  0  0  0  0  0
  147.8268  141.7060  156.7133 C   0  0  0  0  0  0  0  0  0  0  0  0
  146.4789  142.0719  156.0754 C   0  0  0  0  0  0  0  0  0  0  0  0
  146.3597  141.4597  154.6755 C   0  0  0  0  0  0  0  0  0  0  0  0
  147.5382  141.9165  153.8053 C   0  0  0  0  0  0  0  0  0  0  0  0
  148.9056  141.6274  154.4606 C   0  0  2  0  0  0  0  0  0  0  0  0
  149.3256  140.1435  154.4044 C   0  0  0  0  0  0  0  0  0  0  0  0
  150.6274  140.0049  154.9617 O   0  0  0  0  0  0  0  0  0  0  0  0
  154.8247  141.4108  162.1631 H   0  0  0  0  0  0  0  0  0  0  0  0
  153.7163  142.9314  160.4731 H   0  0  0  0  0  0  0  0  0  0  0  0
  151.5221  138.6906  158.3073 H   0  0  0  0  0  0  0  0  0  0  0  0
  152.6662  141.0639  156.8951 H   0  0  0  0  0  0  0  0  0  0  0  0
  152.6493  139.4940  156.1405 H   0  0  0  0  0  0  0  0  0  0  0  0
  149.9820  139.7667  156.9065 H   0  0  0  0  0  0  0  0  0  0  0  0
  150.3025  142.1851  157.5048 H   0  0  0  0  0  0  0  0  0  0  0  0
  151.0328  142.4827  155.9459 H   0  0  0  0  0  0  0  0  0  0  0  0
  147.8650  140.6310  156.8903 H   0  0  0  0  0  0  0  0  0  0  0  0
  147.9073  142.1861  157.6893 H   0  0  0  0  0  0  0  0  0  0  0  0
  145.6607  141.7228  156.7062 H   0  0  0  0  0  0  0  0  0  0  0  0
  146.3819  143.1566  156.0140 H   0  0  0  0  0  0  0  0  0  0  0  0
  146.3414  140.3715  154.7444 H   0  0  0  0  0  0  0  0  0  0  0  0
  145.4171  141.7577  154.2151 H   0  0  0  0  0  0  0  0  0  0  0  0
  147.4832  141.4483  152.8218 H   0  0  0  0  0  0  0  0  0  0  0  0
  147.4492  142.9900  153.6324 H   0  0  0  0  0  0  0  0  0  0  0  0
  149.6506  142.1851  153.8907 H   0  0  0  0  0  0  0  0  0  0  0  0
  148.6207  139.4977  154.9293 H   0  0  0  0  0  0  0  0  0  0  0  0
  149.3554  139.8006  153.3699 H   0  0  0  0  0  0  0  0  0  0  0  0
  148.8821  143.1436  155.7944 H   0  0  0  0  0  0  0  0  0  0  0  0
  1  2  3  0  0  0  0
  2  3  1  0  0  0  0
  3  8  1  0  0  0  0
  3  4  2  0  0  0  0
  4  5  1  0  0  0  0
  5  6  2  0  0  0  0
  5 21  1  0  0  0  0
  6  7  1  0  0  0  0
  6 22  1  0  0  0  0
  7  8  2  0  0  0  0
  8  9  1  0  0  0  0
  9 10  1  0  0  0  0
  9 23  1  0  0  0  0
 10 11  1  0  0  0  0
 10 24  1  0  0  0  0
 10 25  1  0  0  0  0
 11 20  1  0  0  0  0
 11 12  1  0  0  0  0
 11 26  1  0  0  0  0
 12 13  1  0  0  0  0
 12 27  1  0  0  0  0
 12 28  1  0  0  0  0
 13 18  1  0  0  0  0
 13 14  1  0  0  0  0
 13 40  1  0  0  0  0
 14 15  1  0  0  0  0
 14 29  1  0  0  0  0
 14 30  1  0  0  0  0
 15 16  1  0  0  0  0
 15 31  1  0  0  0  0
 15 32  1  0  0  0  0
 16 17  1  0  0  0  0
 16 33  1  0  0  0  0
 16 34  1  0  0  0  0
 17 18  1  0  0  0  0
 17 35  1  0  0  0  0
 17 36  1  0  0  0  0
 18 19  1  0  0  0  0
 18 37  1  0  0  0  0
 19 20  1  0  0  0  0
 19 38  1  0  0  0  0
 19 39  1  0  0  0  0
M  CHG  1  13   1
M  END
> <s_m_source_file>
AV-unprocessed.smi

> <i_m_source_file_index>
3068

> <i_lp_mmshare_version>
43012

> <i_f3d_flags>
0

> <s_epik_input>
TiNDYzFuW2NIXVtjSF1uYzFbTkhdW0NIMl1bQ0BIXShbQ0gyXTIpT1tDSDJdW0NAQEhdKE4yMylbQ0gyXVtDSDJdW0NIMl1bQ0gyXTM=

> <s_epik_cmdline>
J2VwaWtfcHl0aG9uJywgJy1waCcsICc3LjAnLCAnLXRuJywgJzgnLCAnLW1hJywgJzIwMCcsICctbWV0YWxfYmluZGluZycsICctaW1hZScsICc8aW5maWxlLm1hZT4nLCAnLW9tYWUnLCAnPG91dGZpbGUubWFlPic=

> <r_epik_Ionization_Penalty>
0.0804321

> <r_epik_Ionization_Penalty_Charging>
0.0803403

> <r_epik_Ionization_Penalty_Neutral>
9.17277e-05

> <r_epik_State_Penalty>
0.0711481

> <r_epik_Charging_Adjusted_Penalty>
0.151488

> <i_epik_Tot_Q>
1

> <i_epik_Tot_abs_Q>
1

> <r_epik_Metal_State_Penalty>
0.0711481

> <b_epik_Metal_Only>
0

> <s_lp_Force_Field>
OPLS_2005

> <r_lp_Energy>
39.7851

> <b_lp_Chiralities_Consistent>
1

> <s_lp_Variant>
AV-unprocessed.smi:3068-6

> <Gold.Version>
5.8.1

> <Gold.Id.Protein>
6NUR|6NUR_protein|mol2

> <Gold.PLP.Fitness>
44.8192

> <Gold.PLP.PLP>
-34.9096

> <Gold.PLP.part.hbond>
-2.9797

> <Gold.PLP.part.metal>
0.0000

> <Gold.PLP.part.buried>
-3.7921

> <Gold.PLP.part.nonpolar>
-27.7218

> <Gold.PLP.part.repulsive>
0.2468

> <Gold.PLP.ligand.clash>
0.0000

> <Gold.PLP.ligand.torsion>
0.8994

> <Gold.PLP.Chemscore.Hbond>
3.9000

> <Gold.PLP.Chemscore.CHOScore>
0.0000

> <Gold.PLP.Chemscore.Metal>
0.0000

> <Gold.Chemscore.Hbonds>
donor molecule, donor type, donor heavy atom, donor atom, acceptor molecule, acceptor atom, score
      L1  H    13    40       P1  8028  2.00
      P1  H  6896  6909       L1     1  1.00
      P1  H  7989  7998       L1    20  0.90

> <Gold.PLP.Chemscore.Internal.Correction>
0.0083

> <Gold.Rescore>
     Score         DG    S(hbond)    S(metal)    S(lipo)     H(rot)  DE(clash)    DE(int)     intcor
     19.03     -19.90       2.72        0.00      74.47       1.32       0.00       0.87       ----

> <Gold.Chemscore.Fitness>
19.0276

> <Gold.Chemscore.DG>
-19.9046

> <Gold.Chemscore.ZeroCoef>
-5.4800

> <Gold.Chemscore.Hbond>
2.7212

> <Gold.Chemscore.Metal>
0.0000

> <Gold.Chemscore.Lipo>
74.4698

> <Gold.Chemscore.Internal_Hbond>
0.0000

> <Gold.Chemscore.DEClash>
0.0029

> <Gold.Chemscore.DEInternal>
0.8741

> <Gold.Chemscore.Rot>
1.3193

> <Gold.Chemscore.Internal.Correction>
   9.000000E+99

> <Gold.Chemscore.Hbonds>
donor molecule, donor type, donor heavy atom, donor atom, acceptor molecule, acceptor atom, score
      L1  H    13    40       P1  8028  0.97
      P1  H  6896  6909       L1     1  0.98
      P1  H  7989  7998       L1    20  0.17

> <Gold.Chemscore.Hbond.Weighted>
-9.0890

> <Gold.Chemscore.Metal.Weighted>
-0.0000

> <Gold.Chemscore.Lipo.Weighted>
-8.7130

> <Gold.Chemscore.Internal_Hbond.Weighted>
0.0000

> <Gold.Chemscore.DEClash.Weighted>
0.0029

> <Gold.Chemscore.DEInternal.Weighted>
0.8741

> <Gold.Chemscore.Rot.Weighted>
3.3774

> <Gold.Chemscore.Internal.Correction.Weighted>
   9.000000E+99

> <Gold.Protein.RotatedTorsions>
[ 6907 6896 6895 6894 ] final  156.80 input  -60.11 | X-H torsion
[ 7974 7965 7964 7962 ] final  -65.22 input  175.53 | X-H torsion
[ 8008 7997 7996 7995 ] final   91.79 input   59.86 | X-H torsion
[ 10167 10162 10161 10158 ] final  -50.15 input  -65.29 | X-H torsion
[ 10718 10713 10712 10709 ] final  159.24 input   66.30 | X-H torsion
[ 10763 10752 10751 10750 ] final   97.32 input  -60.55 | X-H torsion
[ 11005 11000 10999 10996 ] final -139.30 input  -57.11 | X-H torsion

> <Gold.Protein.ActiveResidues>
 VAL166  LYS551  ARG553  GLY616  TRP617  ASP618  TYR619  PRO620  LYS621  CYS622 
 ASP623  PHE694  ASN695  SER759  ASP760  ASP761  ALA762  ILE779  LEU786  VAL792 
 PHE793  MET794  SER795  GLU796  ALA797  LYS798  CYS799  TRP800  GLU811  SER814 

> <Gold.Protein.RotatedAtoms>
  152.0245  133.3912  159.4271 H   0  0  0  0  0  0  0  0  0  0  0  0  # atno 6907 bound_to 6896
  150.6887  134.3590  159.4951 H   0  0  0  0  0  0  0  0  0  0  0  0  # atno 6908 bound_to 6896
  152.1368  134.9093  160.0606 H   0  0  0  0  0  0  0  0  0  0  0  0  # atno 6909 bound_to 6896
  145.7570  140.8880  143.0450 H   0  0  0  0  0  0  0  0  0  0  0  0  # atno 7974 bound_to 7965
  156.0279  140.3333  155.7108 H   0  0  0  0  0  0  0  0  0  0  0  0  # atno 8008 bound_to 7997
  155.5928  140.0648  157.2772 H   0  0  0  0  0  0  0  0  0  0  0  0  # atno 8009 bound_to 7997
  154.4341  140.1824  156.1080 H   0  0  0  0  0  0  0  0  0  0  0  0  # atno 8010 bound_to 7997
  140.6651  143.2669  151.4317 H   0  0  0  0  0  0  0  0  0  0  0  0  # atno 10167 bound_to 10162
  157.1669  131.0601  151.2203 H   0  0  0  0  0  0  0  0  0  0  0  0  # atno 10718 bound_to 10713
  153.2755  135.4187  155.1029 H   0  0  0  0  0  0  0  0  0  0  0  0  # atno 10763 bound_to 10752
  154.8471  135.3482  154.6184 H   0  0  0  0  0  0  0  0  0  0  0  0  # atno 10764 bound_to 10752
  153.6604  135.7048  153.5237 H   0  0  0  0  0  0  0  0  0  0  0  0  # atno 10765 bound_to 10752
  140.8533  134.2259  157.4748 H   0  0  0  0  0  0  0  0  0  0  0  0  # atno 11005 bound_to 11000
  144.6838  139.9670  143.7481 LP  0  0  0  0  0  0  0  0  0  0  0  0  # atno 17320 bound_to 7965
  146.0301  139.3328  143.0760 LP  0  0  0  0  0  0  0  0  0  0  0  0  # atno 17321 bound_to 7965
  139.5897  144.1525  152.2073 LP  0  0  0  0  0  0  0  0  0  0  0  0  # atno 17342 bound_to 10162
  140.0876  144.5648  150.7077 LP  0  0  0  0  0  0  0  0  0  0  0  0  # atno 17343 bound_to 10162
  157.4080  130.7369  149.6817 LP  0  0  0  0  0  0  0  0  0  0  0  0  # atno 17370 bound_to 10713
  155.9744  130.4103  150.3923 LP  0  0  0  0  0  0  0  0  0  0  0  0  # atno 17371 bound_to 10713
  139.8704  134.9694  156.4664 LP  0  0  0  0  0  0  0  0  0  0  0  0  # atno 17394 bound_to 11000
  140.8766  133.7949  155.9421 LP  0  0  0  0  0  0  0  0  0  0  0  0  # atno 17395 bound_to 11000

$$$$
