AV-unprocessed.smi:283|AV-procd|sdf|2135|dock6
  -GOLD-   2262021453D 1   1.00000     0.00000
 Structure written by MMmdl.
 48 51  0  0  0  0  0  0  0  0  1 V2000
  149.8140  141.2054  157.5674 C   0  0  0  0  0  0  0  0  0  0  0  0
  151.1216  141.9399  157.2427 C   0  0  2  0  0  0  0  0  0  0  0  0
  151.9909  141.0819  156.4392 N   0  0  0  0  0  0  0  0  0  0  0  0
  151.4725  140.0943  155.6755 C   0  0  0  0  0  0  0  0  0  0  0  0
  150.3915  140.3135  154.8823 N   0  0  0  0  0  0  0  0  0  0  0  0
  149.9002  139.3216  154.1349 C   0  0  0  0  0  0  0  0  0  0  0  0
  150.3271  138.0612  154.0385 N   0  0  0  0  0  0  0  0  0  0  0  0
  151.4096  137.8313  154.8369 C   0  0  0  0  0  0  0  0  0  0  0  0
  152.0357  138.7923  155.6796 C   0  0  0  0  0  0  0  0  0  0  0  0
  153.1089  138.2118  156.3417 N   0  0  0  0  0  0  0  0  0  0  0  0
  153.1130  136.9787  155.9129 C   0  0  0  0  0  0  0  0  0  0  0  0
  152.1281  136.6623  155.0035 N   0  0  0  0  0  0  0  0  0  0  0  0
  151.9022  135.3316  154.3484 C   0  0  1  0  0  0  0  0  0  0  0  0
  152.8578  134.4162  154.7970 O   0  0  0  0  0  0  0  0  0  0  0  0
  152.2309  133.3281  155.4750 C   0  0  2  0  0  0  0  0  0  0  0  0
  153.0667  132.0426  155.3500 C   0  0  0  0  0  0  0  0  0  0  0  0
  154.3439  132.2413  155.9172 O   0  0  0  0  0  0  0  0  0  0  0  0
  150.8278  133.2707  154.8570 C   0  0  2  0  0  0  0  0  0  0  0  0
  150.8382  132.5687  153.6269 O   0  0  0  0  0  0  0  0  0  0  0  0
  150.5064  134.7398  154.6321 C   0  0  1  0  0  0  0  0  0  0  0  0
  149.8693  135.2899  155.7718 O   0  0  0  0  0  0  0  0  0  0  0  0
  151.7734  142.4652  158.5238 C   0  0  0  0  0  0  0  0  0  0  0  0
  151.3931  143.7286  159.0329 C   0  0  0  0  0  0  0  0  0  0  0  0
  151.9756  144.2334  160.2104 C   0  0  0  0  0  0  0  0  0  0  0  0
  152.9504  143.4813  160.8899 C   0  0  0  0  0  0  0  0  0  0  0  0
  153.3440  142.2274  160.3871 C   0  0  0  0  0  0  0  0  0  0  0  0
  152.7646  141.7169  159.2078 C   0  0  0  0  0  0  0  0  0  0  0  0
  153.2957  140.1755  158.6319 Cl  0  0  0  0  0  0  0  0  0  0  0  0
  152.0708  135.5185  153.2872 H   0  0  0  0  0  0  0  0  0  0  0  0
  152.1137  133.5885  156.5276 H   0  0  0  0  0  0  0  0  0  0  0  0
  150.1106  132.7817  155.5179 H   0  0  0  0  0  0  0  0  0  0  0  0
  149.8560  134.9003  153.7711 H   0  0  0  0  0  0  0  0  0  0  0  0
  149.1205  141.8584  158.0981 H   0  0  0  0  0  0  0  0  0  0  0  0
  149.9933  140.3307  158.1935 H   0  0  0  0  0  0  0  0  0  0  0  0
  149.3162  140.8681  156.6577 H   0  0  0  0  0  0  0  0  0  0  0  0
  150.8622  142.7833  156.6040 H   0  0  0  0  0  0  0  0  0  0  0  0
  152.9496  141.3879  156.3560 H   0  0  0  0  0  0  0  0  0  0  0  0
  149.0432  139.5737  153.5279 H   0  0  0  0  0  0  0  0  0  0  0  0
  153.8445  136.2584  156.2497 H   0  0  0  0  0  0  0  0  0  0  0  0
  152.5898  131.2289  155.8970 H   0  0  0  0  0  0  0  0  0  0  0  0
  153.1605  131.7270  154.3106 H   0  0  0  0  0  0  0  0  0  0  0  0
  154.7656  131.4001  156.0055 H   0  0  0  0  0  0  0  0  0  0  0  0
  151.3670  133.0516  153.0103 H   0  0  0  0  0  0  0  0  0  0  0  0
  149.0045  134.9155  155.8416 H   0  0  0  0  0  0  0  0  0  0  0  0
  150.6475  144.3191  158.5210 H   0  0  0  0  0  0  0  0  0  0  0  0
  151.6744  145.1980  160.5916 H   0  0  0  0  0  0  0  0  0  0  0  0
  153.3977  143.8666  161.7943 H   0  0  0  0  0  0  0  0  0  0  0  0
  154.0959  141.6543  160.9093 H   0  0  0  0  0  0  0  0  0  0  0  0
  1  2  1  0  0  0  0
  1 33  1  0  0  0  0
  1 34  1  0  0  0  0
  1 35  1  0  0  0  0
  2  3  1  0  0  0  0
  2 22  1  0  0  0  0
  2 36  1  0  0  0  0
  3  4  1  0  0  0  0
  3 37  1  0  0  0  0
  4  9  1  0  0  0  0
  4  5  2  0  0  0  0
  5  6  1  0  0  0  0
  6  7  2  0  0  0  0
  6 38  1  0  0  0  0
  7  8  1  0  0  0  0
  8 12  1  0  0  0  0
  8  9  2  0  0  0  0
  9 10  1  0  0  0  0
 10 11  2  0  0  0  0
 11 12  1  0  0  0  0
 11 39  1  0  0  0  0
 12 13  1  0  0  0  0
 13 29  1  0  0  0  0
 13 20  1  0  0  0  0
 13 14  1  0  0  0  0
 14 15  1  0  0  0  0
 15 30  1  0  0  0  0
 15 16  1  0  0  0  0
 15 18  1  0  0  0  0
 16 17  1  0  0  0  0
 16 40  1  0  0  0  0
 16 41  1  0  0  0  0
 17 42  1  0  0  0  0
 18 31  1  0  0  0  0
 18 19  1  0  0  0  0
 18 20  1  0  0  0  0
 19 43  1  0  0  0  0
 20 32  1  0  0  0  0
 20 21  1  0  0  0  0
 21 44  1  0  0  0  0
 22 27  1  0  0  0  0
 22 23  2  0  0  0  0
 23 24  1  0  0  0  0
 23 45  1  0  0  0  0
 24 25  2  0  0  0  0
 24 46  1  0  0  0  0
 25 26  1  0  0  0  0
 25 47  1  0  0  0  0
 26 27  2  0  0  0  0
 26 48  1  0  0  0  0
 27 28  1  0  0  0  0
M  END
> <s_m_source_file>
AV-unprocessed.smi

> <i_m_source_file_index>
283

> <i_lp_mmshare_version>
43012

> <i_f3d_flags>
0

> <s_epik_input>
Q2xjMVtjSF1bY0hdW2NIXVtjSF1jMVtDQEhdKFtDSDNdKVtOSF1jKG5bY0hdbjIpYyhjMjMpbltjSF1uM1tDQEBIXTRPW0NASF0oW0NIMl1bT0hdKVtDQEBIXShbT0hdKVtDQEhdNFtPSF0=

> <s_epik_cmdline>
J2VwaWtfcHl0aG9uJywgJy1waCcsICc3LjAnLCAnLXRuJywgJzgnLCAnLW1hJywgJzIwMCcsICctbWV0YWxfYmluZGluZycsICctaW1hZScsICc8aW5maWxlLm1hZT4nLCAnLW9tYWUnLCAnPG91dGZpbGUubWFlPic=

> <r_lp_tautomer_probability>
1

> <r_epik_Ionization_Penalty>
0.000266407

> <r_epik_Ionization_Penalty_Charging>
0

> <r_epik_Ionization_Penalty_Neutral>
0.000266407

> <r_epik_State_Penalty>
-0

> <r_epik_Charging_Adjusted_Penalty>
0

> <i_epik_Tot_Q>
0

> <i_epik_Tot_abs_Q>
0

> <r_epik_Metal_State_Penalty>
-0

> <b_epik_Metal_Only>
0

> <s_epik_Chemistry_Notes>
This compound contains an acetal/aminal-like group ( X-CH(R)-Y where X, Y are N, S, or O) that may be acid/base labile, releasing an aldehyde.

> <s_lp_Force_Field>
OPLS_2005

> <r_lp_Energy>
46.2986

> <b_lp_Chiralities_Consistent>
1

> <s_lp_Variant>
AV-unprocessed.smi:283-11

> <Gold.Version>
5.8.1

> <Gold.Id.Protein>
6NUR|6NUR_protein|mol2

> <Gold.PLP.Fitness>
48.4341

> <Gold.PLP.PLP>
-42.3647

> <Gold.PLP.part.hbond>
-2.2875

> <Gold.PLP.part.metal>
0.0000

> <Gold.PLP.part.buried>
-2.8312

> <Gold.PLP.part.nonpolar>
-38.9054

> <Gold.PLP.part.repulsive>
0.8461

> <Gold.PLP.ligand.clash>
0.0000

> <Gold.PLP.ligand.torsion>
1.4890

> <Gold.PLP.Chemscore.Hbond>
2.0000

> <Gold.PLP.Chemscore.CHOScore>
1.0000

> <Gold.PLP.Chemscore.Metal>
0.0000

> <Gold.Chemscore.Hbonds>
donor molecule, donor type, donor heavy atom, donor atom, acceptor molecule, acceptor atom, score
      P1  H  7989  7998       L1     5  0.26
      P1  H  7997  8008       L1    10  0.07
      L1  C     6    38       P1  7957  0.67

> <Gold.PLP.Chemscore.Internal.Correction>
0.0473

> <Gold.Rescore>
     Score         DG    S(hbond)    S(metal)    S(lipo)     H(rot)  DE(clash)    DE(int)     intcor
      5.97     -11.87       1.37        0.00     105.02       4.10       1.40       4.50       ----

> <Gold.Chemscore.Fitness>
5.9653

> <Gold.Chemscore.DG>
-11.8700

> <Gold.Chemscore.ZeroCoef>
-5.4800

> <Gold.Chemscore.Hbond>
1.3743

> <Gold.Chemscore.Metal>
0.0000

> <Gold.Chemscore.Lipo>
105.0227

> <Gold.Chemscore.Internal_Hbond>
0.0000

> <Gold.Chemscore.DEClash>
1.4031

> <Gold.Chemscore.DEInternal>
4.5016

> <Gold.Chemscore.Rot>
4.0968

> <Gold.Chemscore.Internal.Correction>
   9.000000E+99

> <Gold.Chemscore.Hbond.Weighted>
-4.5902

> <Gold.Chemscore.Metal.Weighted>
-0.0000

> <Gold.Chemscore.Lipo.Weighted>
-12.2877

> <Gold.Chemscore.Internal_Hbond.Weighted>
0.0000

> <Gold.Chemscore.DEClash.Weighted>
1.4031

> <Gold.Chemscore.DEInternal.Weighted>
4.5016

> <Gold.Chemscore.Rot.Weighted>
10.4879

> <Gold.Chemscore.Internal.Correction.Weighted>
   9.000000E+99

> <Gold.Protein.RotatedTorsions>
[ 6907 6896 6895 6894 ] final   64.81 input  -60.11 | X-H torsion
[ 7974 7965 7964 7962 ] final  -57.46 input  175.53 | X-H torsion
[ 8008 7997 7996 7995 ] final  -22.52 input   59.86 | X-H torsion
[ 10167 10162 10161 10158 ] final -111.83 input  -65.29 | X-H torsion
[ 10718 10713 10712 10709 ] final  136.20 input   66.30 | X-H torsion
[ 10763 10752 10751 10750 ] final  139.13 input  -60.55 | X-H torsion
[ 11005 11000 10999 10996 ] final   82.93 input  -57.11 | X-H torsion

> <Gold.Protein.ActiveResidues>
 VAL166  LYS551  ARG553  GLY616  TRP617  ASP618  TYR619  PRO620  LYS621  CYS622 
 ASP623  PHE694  ASN695  SER759  ASP760  ASP761  ALA762  ILE779  LEU786  VAL792 
 PHE793  MET794  SER795  GLU796  ALA797  LYS798  CYS799  TRP800  GLU811  SER814 

> <Gold.Protein.RotatedAtoms>
  152.4360  134.5686  159.9914 H   0  0  0  0  0  0  0  0  0  0  0  0  # atno 6907 bound_to 6896
  151.5796  133.3373  159.3014 H   0  0  0  0  0  0  0  0  0  0  0  0  # atno 6908 bound_to 6896
  150.8258  134.7523  159.6876 H   0  0  0  0  0  0  0  0  0  0  0  0  # atno 6909 bound_to 6896
  145.8508  140.8354  142.9987 H   0  0  0  0  0  0  0  0  0  0  0  0  # atno 7974 bound_to 7965
  154.4639  140.2005  156.0169 H   0  0  0  0  0  0  0  0  0  0  0  0  # atno 8008 bound_to 7997
  156.0892  140.3260  155.7764 H   0  0  0  0  0  0  0  0  0  0  0  0  # atno 8009 bound_to 7997
  155.4985  140.0552  157.2933 H   0  0  0  0  0  0  0  0  0  0  0  0  # atno 8010 bound_to 7997
  140.1293  143.4374  152.1638 H   0  0  0  0  0  0  0  0  0  0  0  0  # atno 10167 bound_to 10162
  157.4491  131.1064  151.0054 H   0  0  0  0  0  0  0  0  0  0  0  0  # atno 10718 bound_to 10713
  153.9011  135.3022  155.3448 H   0  0  0  0  0  0  0  0  0  0  0  0  # atno 10763 bound_to 10752
  154.7670  135.4905  153.9576 H   0  0  0  0  0  0  0  0  0  0  0  0  # atno 10764 bound_to 10752
  153.1244  135.6790  153.9381 H   0  0  0  0  0  0  0  0  0  0  0  0  # atno 10765 bound_to 10752
  139.9047  134.8107  156.2240 H   0  0  0  0  0  0  0  0  0  0  0  0  # atno 11005 bound_to 11000
  144.6729  140.0950  143.7463 LP  0  0  0  0  0  0  0  0  0  0  0  0  # atno 17320 bound_to 7965
  145.9360  139.2637  143.1297 LP  0  0  0  0  0  0  0  0  0  0  0  0  # atno 17321 bound_to 7965
  139.5528  144.7350  151.4384 LP  0  0  0  0  0  0  0  0  0  0  0  0  # atno 17342 bound_to 10162
  140.6826  143.8047  150.7142 LP  0  0  0  0  0  0  0  0  0  0  0  0  # atno 17343 bound_to 10162
  157.0890  130.5934  149.5436 LP  0  0  0  0  0  0  0  0  0  0  0  0  # atno 17370 bound_to 10713
  155.9980  130.5052  150.7554 LP  0  0  0  0  0  0  0  0  0  0  0  0  # atno 17371 bound_to 10713
  141.0387  133.6949  156.1559 LP  0  0  0  0  0  0  0  0  0  0  0  0  # atno 17394 bound_to 11000
  140.6987  134.4587  157.5587 LP  0  0  0  0  0  0  0  0  0  0  0  0  # atno 17395 bound_to 11000

$$$$
