AV-unprocessed.smi:2822|AV-procd|sdf|10877|dock1
  -GOLD-   2272015313D 1   1.00000     0.00000
 Structure written by MMmdl.
 40 42  0  0  0  0  0  0  0  0  2 V2000
  146.2561  142.5140  157.6541 Cl  0  0  0  0  0  0  0  0  0  0  0  0
  146.6810  141.7315  156.1719 C   0  0  0  0  0  0  0  0  0  0  0  0
  145.7096  141.6037  155.1575 C   0  0  0  0  0  0  0  0  0  0  0  0
  146.0233  140.9959  153.9937 N   0  3  0  0  0  0  0  0  0  0  0  0
  147.2491  140.4896  153.7434 C   0  0  0  0  0  0  0  0  0  0  0  0
  148.2622  140.5859  154.7185 C   0  0  0  0  0  0  0  0  0  0  0  0
  147.9838  141.2178  155.9564 C   0  0  0  0  0  0  0  0  0  0  0  0
  148.9492  141.3463  156.9665 N   0  0  0  0  0  0  0  0  0  0  0  0
  150.0629  140.4152  157.0637 C   0  0  0  0  0  0  0  0  0  0  0  0
  151.4078  141.1176  156.7986 C   0  0  1  0  0  0  0  0  0  0  0  0
  151.3938  142.6056  157.1966 C   0  0  0  0  0  0  0  0  0  0  0  0
  151.3809  142.8033  158.6410 N   0  0  0  0  0  0  0  0  0  0  0  0
  151.3893  144.2273  158.9751 C   0  0  0  0  0  0  0  0  0  0  0  0
  151.3507  144.4782  160.4906 C   0  0  0  0  0  0  0  0  0  0  0  0
  152.5218  143.7631  161.1785 C   0  0  0  0  0  0  0  0  0  0  0  0
  152.5341  142.2781  160.7860 C   0  0  0  0  0  0  0  0  0  0  0  0
  152.5196  142.1115  159.2520 C   0  0  1  0  0  0  0  0  0  0  0  0
  152.5271  140.6172  158.8734 C   0  0  0  0  0  0  0  0  0  0  0  0
  152.4925  140.4603  157.4569 O   0  0  0  0  0  0  0  0  0  0  0  0
  144.6962  141.9679  155.2423 H   0  0  0  0  0  0  0  0  0  0  0  0
  147.3824  140.0247  152.7774 H   0  0  0  0  0  0  0  0  0  0  0  0
  149.2358  140.1720  154.5016 H   0  0  0  0  0  0  0  0  0  0  0  0
  148.9998  142.2071  157.4935 H   0  0  0  0  0  0  0  0  0  0  0  0
  150.0700  139.9942  158.0698 H   0  0  0  0  0  0  0  0  0  0  0  0
  149.9168  139.5836  156.3745 H   0  0  0  0  0  0  0  0  0  0  0  0
  151.6057  141.0636  155.7274 H   0  0  0  0  0  0  0  0  0  0  0  0
  152.2760  143.0886  156.7735 H   0  0  0  0  0  0  0  0  0  0  0  0
  150.5305  143.0970  156.7463 H   0  0  0  0  0  0  0  0  0  0  0  0
  152.2772  144.7012  158.5533 H   0  0  0  0  0  0  0  0  0  0  0  0
  150.5309  144.7164  158.5130 H   0  0  0  0  0  0  0  0  0  0  0  0
  151.3908  145.5482  160.6959 H   0  0  0  0  0  0  0  0  0  0  0  0
  150.4060  144.1166  160.8985 H   0  0  0  0  0  0  0  0  0  0  0  0
  153.4620  144.2282  160.8796 H   0  0  0  0  0  0  0  0  0  0  0  0
  152.4489  143.8700  162.2610 H   0  0  0  0  0  0  0  0  0  0  0  0
  153.4130  141.7920  161.2111 H   0  0  0  0  0  0  0  0  0  0  0  0
  151.6649  141.7819  161.2198 H   0  0  0  0  0  0  0  0  0  0  0  0
  153.4391  142.5516  158.8621 H   0  0  0  0  0  0  0  0  0  0  0  0
  153.4319  140.1385  159.2485 H   0  0  0  0  0  0  0  0  0  0  0  0
  151.6879  140.0927  159.3309 H   0  0  0  0  0  0  0  0  0  0  0  0
  145.3039  140.9157  153.2744 H   0  0  0  0  0  0  0  0  0  0  0  0
  1  2  1  0  0  0  0
  2  7  1  0  0  0  0
  2  3  2  0  0  0  0
  3  4  1  0  0  0  0
  3 20  1  0  0  0  0
  4  5  2  0  0  0  0
  4 40  1  0  0  0  0
  5  6  1  0  0  0  0
  5 21  1  0  0  0  0
  6  7  2  0  0  0  0
  6 22  1  0  0  0  0
  7  8  1  0  0  0  0
  8  9  1  0  0  0  0
  8 23  1  0  0  0  0
  9 10  1  0  0  0  0
  9 24  1  0  0  0  0
  9 25  1  0  0  0  0
 10 19  1  0  0  0  0
 10 11  1  0  0  0  0
 10 26  1  0  0  0  0
 11 12  1  0  0  0  0
 11 27  1  0  0  0  0
 11 28  1  0  0  0  0
 12 17  1  0  0  0  0
 12 13  1  0  0  0  0
 13 14  1  0  0  0  0
 13 29  1  0  0  0  0
 13 30  1  0  0  0  0
 14 15  1  0  0  0  0
 14 31  1  0  0  0  0
 14 32  1  0  0  0  0
 15 16  1  0  0  0  0
 15 33  1  0  0  0  0
 15 34  1  0  0  0  0
 16 17  1  0  0  0  0
 16 35  1  0  0  0  0
 16 36  1  0  0  0  0
 17 18  1  0  0  0  0
 17 37  1  0  0  0  0
 18 19  1  0  0  0  0
 18 38  1  0  0  0  0
 18 39  1  0  0  0  0
M  CHG  1   4   1
M  END
> <s_m_source_file>
AV-unprocessed.smi

> <i_m_source_file_index>
2822

> <i_lp_mmshare_version>
43012

> <i_f3d_flags>
0

> <s_epik_input>
Q2xjMVtjSF1uW2NIXVtjSF1jMVtOSF1bQ0gyXVtDQEhdKFtDSDJdMilPW0NIMl1bQ0BASF0oTjIzKVtDSDJdW0NIMl1bQ0gyXVtDSDJdMw==

> <s_epik_cmdline>
J2VwaWtfcHl0aG9uJywgJy1waCcsICc3LjAnLCAnLXRuJywgJzgnLCAnLW1hJywgJzIwMCcsICctbWV0YWxfYmluZGluZycsICctaW1hZScsICc8aW5maWxlLm1hZT4nLCAnLW9tYWUnLCAnPG91dGZpbGUubWFlPic=

> <r_epik_Ionization_Penalty>
1.37653

> <r_epik_Ionization_Penalty_Charging>
0.152973

> <r_epik_Ionization_Penalty_Neutral>
1.22356

> <r_epik_State_Penalty>
1.42693

> <r_epik_Charging_Adjusted_Penalty>
1.5799

> <i_epik_Tot_Q>
1

> <i_epik_Tot_abs_Q>
1

> <r_epik_Metal_State_Penalty>
4.59822

> <b_epik_Metal_Only>
0

> <s_lp_Force_Field>
OPLS_2005

> <r_lp_Energy>
45.6855

> <b_lp_Chiralities_Consistent>
1

> <s_lp_Variant>
AV-unprocessed.smi:2822-18

> <Gold.Version>
5.8.1

> <Gold.Id.Protein>
6NUR|6NUR_protein|mol2

> <Gold.PLP.Fitness>
42.3040

> <Gold.PLP.PLP>
-34.7823

> <Gold.PLP.part.hbond>
-2.0000

> <Gold.PLP.part.metal>
0.0000

> <Gold.PLP.part.buried>
-4.9977

> <Gold.PLP.part.nonpolar>
-27.2893

> <Gold.PLP.part.repulsive>
0.0687

> <Gold.PLP.ligand.clash>
0.0000

> <Gold.PLP.ligand.torsion>
0.5068

> <Gold.PLP.Chemscore.Hbond>
2.8430

> <Gold.PLP.Chemscore.CHOScore>
0.0000

> <Gold.PLP.Chemscore.Metal>
0.0000

> <Gold.Chemscore.Hbonds>
donor molecule, donor type, donor heavy atom, donor atom, acceptor molecule, acceptor atom, score
      L1  H     4    40       P1 10175  2.00
      P1  H  7997  8008       L1    19  0.80

> <Gold.PLP.Chemscore.Internal.Correction>
0.0061

> <Gold.Rescore>
     Score         DG    S(hbond)    S(metal)    S(lipo)     H(rot)  DE(clash)    DE(int)     intcor
     19.99     -20.73       1.75        0.00     106.16       1.18       0.28       0.46       ----

> <Gold.Chemscore.Fitness>
19.9913

> <Gold.Chemscore.DG>
-20.7326

> <Gold.Chemscore.ZeroCoef>
-5.4800

> <Gold.Chemscore.Hbond>
1.7513

> <Gold.Chemscore.Metal>
0.0000

> <Gold.Chemscore.Lipo>
106.1630

> <Gold.Chemscore.Internal_Hbond>
0.0000

> <Gold.Chemscore.DEClash>
0.2830

> <Gold.Chemscore.DEInternal>
0.4583

> <Gold.Chemscore.Rot>
1.1788

> <Gold.Chemscore.Internal.Correction>
   9.000000E+99

> <Gold.Chemscore.Hbonds>
donor molecule, donor type, donor heavy atom, donor atom, acceptor molecule, acceptor atom, score
      L1  H     4    40       P1 10175  0.60
      P1  H  7997  8008       L1    19  0.59

> <Gold.Chemscore.Hbond.Weighted>
-5.8492

> <Gold.Chemscore.Metal.Weighted>
-0.0000

> <Gold.Chemscore.Lipo.Weighted>
-12.4211

> <Gold.Chemscore.Internal_Hbond.Weighted>
0.0000

> <Gold.Chemscore.DEClash.Weighted>
0.2830

> <Gold.Chemscore.DEInternal.Weighted>
0.4583

> <Gold.Chemscore.Rot.Weighted>
3.0177

> <Gold.Chemscore.Internal.Correction.Weighted>
   9.000000E+99

> <Gold.Protein.RotatedTorsions>
[ 6907 6896 6895 6894 ] final  -35.03 input  -60.11 | X-H torsion
[ 7974 7965 7964 7962 ] final  -42.33 input  175.53 | X-H torsion
[ 8008 7997 7996 7995 ] final  -63.45 input   59.86 | X-H torsion
[ 10167 10162 10161 10158 ] final -121.27 input  -65.29 | X-H torsion
[ 10718 10713 10712 10709 ] final  -53.30 input   66.30 | X-H torsion
[ 10763 10752 10751 10750 ] final   27.35 input  -60.55 | X-H torsion
[ 11005 11000 10999 10996 ] final -169.45 input  -57.11 | X-H torsion

> <Gold.Protein.ActiveResidues>
 VAL166  LYS551  ARG553  GLY616  TRP617  ASP618  TYR619  PRO620  LYS621  CYS622 
 ASP623  PHE694  ASN695  SER759  ASP760  ASP761  ALA762  ILE779  LEU786  VAL792 
 PHE793  MET794  SER795  GLU796  ALA797  LYS798  CYS799  TRP800  GLU811  SER814 

> <Gold.Protein.RotatedAtoms>
  151.0451  134.9634  159.8181 H   0  0  0  0  0  0  0  0  0  0  0  0  # atno 6907 bound_to 6896
  152.5371  134.2609  159.8945 H   0  0  0  0  0  0  0  0  0  0  0  0  # atno 6908 bound_to 6896
  151.2623  133.4253  159.2650 H   0  0  0  0  0  0  0  0  0  0  0  0  # atno 6909 bound_to 6896
  146.0126  140.6946  142.9217 H   0  0  0  0  0  0  0  0  0  0  0  0  # atno 7974 bound_to 7965
  154.4555  140.0974  156.6744 H   0  0  0  0  0  0  0  0  0  0  0  0  # atno 8008 bound_to 7997
  155.5152  140.3477  155.4377 H   0  0  0  0  0  0  0  0  0  0  0  0  # atno 8009 bound_to 7997
  156.0769  140.1363  156.9750 H   0  0  0  0  0  0  0  0  0  0  0  0  # atno 8010 bound_to 7997
  140.0268  143.5288  152.2195 H   0  0  0  0  0  0  0  0  0  0  0  0  # atno 10167 bound_to 10162
  156.1547  130.4150  149.9888 H   0  0  0  0  0  0  0  0  0  0  0  0  # atno 10718 bound_to 10713
  153.0562  135.6539  154.0573 H   0  0  0  0  0  0  0  0  0  0  0  0  # atno 10763 bound_to 10752
  154.0251  135.2916  155.3377 H   0  0  0  0  0  0  0  0  0  0  0  0  # atno 10764 bound_to 10752
  154.6877  135.5295  153.8417 H   0  0  0  0  0  0  0  0  0  0  0  0  # atno 10765 bound_to 10752
  140.5306  134.5620  157.5073 H   0  0  0  0  0  0  0  0  0  0  0  0  # atno 11005 bound_to 11000
  144.6959  140.3425  143.7196 LP  0  0  0  0  0  0  0  0  0  0  0  0  # atno 17320 bound_to 7965
  145.7318  139.1738  143.2426 LP  0  0  0  0  0  0  0  0  0  0  0  0  # atno 17321 bound_to 7965
  139.6103  144.7607  151.2968 LP  0  0  0  0  0  0  0  0  0  0  0  0  # atno 17342 bound_to 10162
  140.7319  143.6838  150.7978 LP  0  0  0  0  0  0  0  0  0  0  0  0  # atno 17343 bound_to 10162
  156.7735  130.9195  151.3645 LP  0  0  0  0  0  0  0  0  0  0  0  0  # atno 17370 bound_to 10713
  157.6685  130.9030  149.9987 LP  0  0  0  0  0  0  0  0  0  0  0  0  # atno 17371 bound_to 10713
  139.9556  134.7540  156.0349 LP  0  0  0  0  0  0  0  0  0  0  0  0  # atno 17394 bound_to 11000
  141.1283  133.6593  156.3397 LP  0  0  0  0  0  0  0  0  0  0  0  0  # atno 17395 bound_to 11000

$$$$
