AV-unprocessed.smi:811|AV-procd|sdf|3814|dock1
  -GOLD-   22720 1253D 1   1.00000     0.00000
 Structure written by MMmdl.
 46 48  0  0  0  0  0  0  0  0  2 V2000
  143.7004  132.4875  151.3909 C   0  0  0  0  0  0  0  0  0  0  0  0
  144.0087  133.3688  152.5360 N   0  3  2  0  0  0  0  0  0  0  0  0
  143.2718  134.6543  152.5423 C   0  0  0  0  0  0  0  0  0  0  0  0
  144.2341  135.7143  153.1052 C   0  0  0  0  0  0  0  0  0  0  0  0
  145.4379  134.9125  153.6079 C   0  0  2  0  0  0  0  0  0  0  0  0
  146.7052  135.6339  153.5566 N   0  0  0  0  0  0  0  0  0  0  0  0
  147.0900  136.5566  154.4493 C   0  0  0  0  0  0  0  0  0  0  0  0
  146.4038  136.8819  155.4173 O   0  0  0  0  0  0  0  0  0  0  0  0
  148.3027  137.0511  154.1457 N   0  0  0  0  0  0  0  0  0  0  0  0
  149.0642  138.0438  154.8227 C   0  0  0  0  0  0  0  0  0  0  0  0
  150.3100  138.5490  154.3825 C   0  0  0  0  0  0  0  0  0  0  0  0
  150.9625  139.5279  155.1563 C   0  0  0  0  0  0  0  0  0  0  0  0
  150.3656  139.9760  156.3585 C   0  0  0  0  0  0  0  0  0  0  0  0
  151.0003  140.9595  157.1501 N   0  0  0  0  0  0  0  0  0  0  0  0
  151.4973  140.5179  158.4515 C   0  0  0  0  0  0  0  0  0  0  0  0
  152.4350  141.5777  159.0556 C   0  0  0  0  0  0  0  0  0  0  0  0
  151.7681  142.8336  159.1172 O   0  0  0  0  0  0  0  0  0  0  0  0
  151.3959  143.2973  157.8240 C   0  0  0  0  0  0  0  0  0  0  0  0
  150.4192  142.3011  157.1768 C   0  0  0  0  0  0  0  0  0  0  0  0
  149.1734  139.4861  156.7783 N   0  0  0  0  0  0  0  0  0  0  0  0
  148.5510  138.5489  156.0338 C   0  0  0  0  0  0  0  0  0  0  0  0
  145.4373  133.6958  152.6876 C   0  0  0  0  0  0  0  0  0  0  0  0
  143.9747  132.9586  150.4462 H   0  0  0  0  0  0  0  0  0  0  0  0
  142.6347  132.2582  151.3638 H   0  0  0  0  0  0  0  0  0  0  0  0
  144.2464  131.5476  151.4767 H   0  0  0  0  0  0  0  0  0  0  0  0
  142.9511  134.9360  151.5380 H   0  0  0  0  0  0  0  0  0  0  0  0
  142.3785  134.5548  153.1596 H   0  0  0  0  0  0  0  0  0  0  0  0
  144.5359  136.3932  152.3060 H   0  0  0  0  0  0  0  0  0  0  0  0
  143.7798  136.3146  153.8941 H   0  0  0  0  0  0  0  0  0  0  0  0
  145.2465  134.5756  154.6292 H   0  0  0  0  0  0  0  0  0  0  0  0
  147.3285  135.4192  152.7920 H   0  0  0  0  0  0  0  0  0  0  0  0
  148.7568  136.6416  153.3426 H   0  0  0  0  0  0  0  0  0  0  0  0
  150.7860  138.2110  153.4763 H   0  0  0  0  0  0  0  0  0  0  0  0
  151.9024  139.9290  154.8090 H   0  0  0  0  0  0  0  0  0  0  0  0
  150.6467  140.3522  159.1138 H   0  0  0  0  0  0  0  0  0  0  0  0
  152.0339  139.5731  158.3842 H   0  0  0  0  0  0  0  0  0  0  0  0
  152.7325  141.2847  160.0625 H   0  0  0  0  0  0  0  0  0  0  0  0
  153.3499  141.6678  158.4677 H   0  0  0  0  0  0  0  0  0  0  0  0
  150.9248  144.2756  157.9192 H   0  0  0  0  0  0  0  0  0  0  0  0
  152.2838  143.4304  157.2036 H   0  0  0  0  0  0  0  0  0  0  0  0
  150.1859  142.6351  156.1652 H   0  0  0  0  0  0  0  0  0  0  0  0
  149.4836  142.2774  157.7372 H   0  0  0  0  0  0  0  0  0  0  0  0
  147.6066  138.1934  156.4196 H   0  0  0  0  0  0  0  0  0  0  0  0
  145.9993  132.8569  153.0998 H   0  0  0  0  0  0  0  0  0  0  0  0
  145.8645  133.9498  151.7154 H   0  0  0  0  0  0  0  0  0  0  0  0
  143.7381  132.8815  153.3785 H   0  0  0  0  0  0  0  0  0  0  0  0
  1  2  1  0  0  0  0
  1 23  1  0  0  0  0
  1 24  1  0  0  0  0
  1 25  1  0  0  0  0
  2 22  1  0  0  0  0
  2  3  1  0  0  0  0
  2 46  1  0  0  0  0
  3  4  1  0  0  0  0
  3 26  1  0  0  0  0
  3 27  1  0  0  0  0
  4  5  1  0  0  0  0
  4 28  1  0  0  0  0
  4 29  1  0  0  0  0
  5  6  1  0  0  0  0
  5 22  1  0  0  0  0
  5 30  1  0  0  0  0
  6  7  1  0  0  0  0
  6 31  1  0  0  0  0
  7  8  2  0  0  0  0
  7  9  1  0  0  0  0
  9 10  1  0  0  0  0
  9 32  1  0  0  0  0
 10 21  1  0  0  0  0
 10 11  2  0  0  0  0
 11 12  1  0  0  0  0
 11 33  1  0  0  0  0
 12 13  2  0  0  0  0
 12 34  1  0  0  0  0
 13 14  1  0  0  0  0
 13 20  1  0  0  0  0
 14 19  1  0  0  0  0
 14 15  1  0  0  0  0
 15 16  1  0  0  0  0
 15 35  1  0  0  0  0
 15 36  1  0  0  0  0
 16 17  1  0  0  0  0
 16 37  1  0  0  0  0
 16 38  1  0  0  0  0
 17 18  1  0  0  0  0
 18 19  1  0  0  0  0
 18 39  1  0  0  0  0
 18 40  1  0  0  0  0
 19 41  1  0  0  0  0
 19 42  1  0  0  0  0
 20 21  2  0  0  0  0
 21 43  1  0  0  0  0
 22 44  1  0  0  0  0
 22 45  1  0  0  0  0
M  CHG  1   2   1
M  END
> <s_m_source_file>
AV-unprocessed.smi

> <i_m_source_file_index>
811

> <i_lp_mmshare_version>
43012

> <i_f3d_flags>
0

> <s_epik_input>
W0NIM11OMVtDSDJdW0NIMl1bQ0BIXShbQ0gyXTEpW05IXUMoPU8pW05IXWMyW2NIXVtjSF1jKG5bY0hdMilOM1tDSDJdW0NIMl1PW0NIMl1bQ0gyXTM=

> <s_epik_cmdline>
J2VwaWtfcHl0aG9uJywgJy1waCcsICc3LjAnLCAnLXRuJywgJzgnLCAnLW1hJywgJzIwMCcsICctbWV0YWxfYmluZGluZycsICctaW1hZScsICc8aW5maWxlLm1hZT4nLCAnLW9tYWUnLCAnPG91dGZpbGUubWFlPic=

> <r_lp_tautomer_probability>
1

> <r_epik_Ionization_Penalty>
0.00503422

> <r_epik_Ionization_Penalty_Charging>
0.00366104

> <r_epik_Ionization_Penalty_Neutral>
0.00137318

> <r_epik_State_Penalty>
-0

> <r_epik_Charging_Adjusted_Penalty>
0.00366104

> <i_epik_Tot_Q>
1

> <i_epik_Tot_abs_Q>
1

> <r_epik_Metal_State_Penalty>
-0

> <b_epik_Metal_Only>
0

> <s_lp_Force_Field>
OPLS_2005

> <r_lp_Energy>
43.0214

> <b_lp_Chiralities_Consistent>
1

> <s_lp_Variant>
AV-unprocessed.smi:811-4

> <Gold.Version>
5.8.1

> <Gold.Id.Protein>
6NUR|6NUR_protein|mol2

> <Gold.PLP.Fitness>
37.9853

> <Gold.PLP.PLP>
-27.5181

> <Gold.PLP.part.hbond>
-2.8792

> <Gold.PLP.part.metal>
0.0000

> <Gold.PLP.part.buried>
-4.4982

> <Gold.PLP.part.nonpolar>
-21.7571

> <Gold.PLP.part.repulsive>
0.0512

> <Gold.PLP.ligand.clash>
0.0000

> <Gold.PLP.ligand.torsion>
0.4081

> <Gold.PLP.Chemscore.Hbond>
3.6360

> <Gold.PLP.Chemscore.CHOScore>
0.0000

> <Gold.PLP.Chemscore.Metal>
0.0000

> <Gold.Chemscore.Hbonds>
donor molecule, donor type, donor heavy atom, donor atom, acceptor molecule, acceptor atom, score
      L1  H     2    46       P1 10957  1.76
      L1  H     6    31       P1  7948  0.80
      L1  H     9    32       P1  7948  1.00

> <Gold.PLP.Chemscore.Internal.Correction>
0.3754

> <Gold.Rescore>
     Score         DG    S(hbond)    S(metal)    S(lipo)     H(rot)  DE(clash)    DE(int)     intcor
     17.93     -19.91       2.68        0.00      73.76       1.23       0.03       1.95       ----

> <Gold.Chemscore.Fitness>
17.9313

> <Gold.Chemscore.DG>
-19.9069

> <Gold.Chemscore.ZeroCoef>
-5.4800

> <Gold.Chemscore.Hbond>
2.6781

> <Gold.Chemscore.Metal>
0.0000

> <Gold.Chemscore.Lipo>
73.7569

> <Gold.Chemscore.Internal_Hbond>
0.0000

> <Gold.Chemscore.DEClash>
0.0260

> <Gold.Chemscore.DEInternal>
1.9496

> <Gold.Chemscore.Rot>
1.2295

> <Gold.Chemscore.Internal.Correction>
   9.000000E+99

> <Gold.Chemscore.Hbonds>
donor molecule, donor type, donor heavy atom, donor atom, acceptor molecule, acceptor atom, score
      L1  H     2    46       P1 10957  0.56
      L1  H     6    31       P1  7948  0.74
      L1  H     9    32       P1  7948  0.94

> <Gold.Chemscore.Hbond.Weighted>
-8.9447

> <Gold.Chemscore.Metal.Weighted>
-0.0000

> <Gold.Chemscore.Lipo.Weighted>
-8.6296

> <Gold.Chemscore.Internal_Hbond.Weighted>
0.0000

> <Gold.Chemscore.DEClash.Weighted>
0.0260

> <Gold.Chemscore.DEInternal.Weighted>
1.9496

> <Gold.Chemscore.Rot.Weighted>
3.1474

> <Gold.Chemscore.Internal.Correction.Weighted>
   9.000000E+99

> <Gold.Protein.RotatedTorsions>
[ 6907 6896 6895 6894 ] final -120.35 input  -60.11 | X-H torsion
[ 7974 7965 7964 7962 ] final   78.07 input  175.53 | X-H torsion
[ 8008 7997 7996 7995 ] final  129.17 input   59.86 | X-H torsion
[ 10167 10162 10161 10158 ] final -147.36 input  -65.29 | X-H torsion
[ 10718 10713 10712 10709 ] final  -55.05 input   66.30 | X-H torsion
[ 10763 10752 10751 10750 ] final  168.33 input  -60.55 | X-H torsion
[ 11005 11000 10999 10996 ] final    8.59 input  -57.11 | X-H torsion

> <Gold.Protein.ActiveResidues>
 VAL166  LYS551  ARG553  GLY616  TRP617  ASP618  TYR619  PRO620  LYS621  CYS622 
 ASP623  PHE694  ASN695  SER759  ASP760  ASP761  ALA762  ILE779  LEU786  VAL792 
 PHE793  MET794  SER795  GLU796  ALA797  LYS798  CYS799  TRP800  GLU811  SER814 

> <Gold.Protein.RotatedAtoms>
  150.8386  133.7973  159.3069 H   0  0  0  0  0  0  0  0  0  0  0  0  # atno 6907 bound_to 6896
  151.5681  135.1062  159.9998 H   0  0  0  0  0  0  0  0  0  0  0  0  # atno 6908 bound_to 6896
  152.4454  133.7484  159.6736 H   0  0  0  0  0  0  0  0  0  0  0  0  # atno 6909 bound_to 6896
  145.6818  139.2526  143.1809 H   0  0  0  0  0  0  0  0  0  0  0  0  # atno 7974 bound_to 7965
  156.2930  140.2627  156.2555 H   0  0  0  0  0  0  0  0  0  0  0  0  # atno 8008 bound_to 7997
  154.9840  140.0389  157.2308 H   0  0  0  0  0  0  0  0  0  0  0  0  # atno 8009 bound_to 7997
  154.7746  140.2784  155.6116 H   0  0  0  0  0  0  0  0  0  0  0  0  # atno 8010 bound_to 7997
  139.7629  143.8350  152.2610 H   0  0  0  0  0  0  0  0  0  0  0  0  # atno 10167 bound_to 10162
  156.1400  130.4155  150.0119 H   0  0  0  0  0  0  0  0  0  0  0  0  # atno 10718 bound_to 10713
  154.3670  135.2753  155.2288 H   0  0  0  0  0  0  0  0  0  0  0  0  # atno 10763 bound_to 10752
  154.4452  135.5944  153.6158 H   0  0  0  0  0  0  0  0  0  0  0  0  # atno 10764 bound_to 10752
  152.9840  135.6028  154.3897 H   0  0  0  0  0  0  0  0  0  0  0  0  # atno 10765 bound_to 10752
  140.5353  134.0427  155.7886 H   0  0  0  0  0  0  0  0  0  0  0  0  # atno 11005 bound_to 11000
  146.0957  140.7603  142.9573 LP  0  0  0  0  0  0  0  0  0  0  0  0  # atno 17320 bound_to 7965
  144.7023  140.3708  143.7145 LP  0  0  0  0  0  0  0  0  0  0  0  0  # atno 17321 bound_to 7965
  139.8361  144.7231  150.9389 LP  0  0  0  0  0  0  0  0  0  0  0  0  # atno 17342 bound_to 10162
  140.7808  143.4025  151.1125 LP  0  0  0  0  0  0  0  0  0  0  0  0  # atno 17343 bound_to 10162
  156.8007  130.9289  151.3646 LP  0  0  0  0  0  0  0  0  0  0  0  0  # atno 17370 bound_to 10713
  157.6567  130.8931  149.9744 LP  0  0  0  0  0  0  0  0  0  0  0  0  # atno 17371 bound_to 10713
  141.1258  133.9385  157.2637 LP  0  0  0  0  0  0  0  0  0  0  0  0  # atno 17394 bound_to 11000
  139.9532  135.0171  156.9055 LP  0  0  0  0  0  0  0  0  0  0  0  0  # atno 17395 bound_to 11000

$$$$
