AV-unprocessed.smi:2002|AV-procd|sdf|8116|dock9
  -GOLD-   2272010353D 1   1.00000     0.00000
 Structure written by MMmdl.
 39 40  0  0  0  0  0  0  0  0  2 V2000
  144.1706  131.5983  150.8907 C   0  0  0  0  0  0  0  0  0  0  0  0
  144.5814  132.3811  149.6363 C   0  0  0  0  0  0  0  0  0  0  0  0
  145.1626  133.7043  149.9655 N   0  3  2  0  0  0  0  0  0  0  0  0
  146.3105  133.6484  150.9019 C   0  0  0  0  0  0  0  0  0  0  0  0
  146.0499  134.6994  151.9858 C   0  0  0  0  0  0  0  0  0  0  0  0
  145.0353  135.6511  151.3520 C   0  0  2  0  0  0  0  0  0  0  0  0
  144.2038  136.4833  152.3469 C   0  0  0  0  0  0  0  0  0  0  0  0
  144.7694  137.8134  152.5531 N   0  0  0  0  0  0  0  0  0  0  0  0
  145.9880  138.0728  153.0501 C   0  0  0  0  0  0  0  0  0  0  0  0
  146.7827  137.1954  153.3878 O   0  0  0  0  0  0  0  0  0  0  0  0
  146.2154  139.3955  153.1142 N   0  0  0  0  0  0  0  0  0  0  0  0
  147.3675  140.0698  153.5952 C   0  0  0  0  0  0  0  0  0  0  0  0
  148.4621  139.4794  154.2920 C   0  0  0  0  0  0  0  0  0  0  0  0
  149.2814  140.5456  154.5346 C   0  0  0  0  0  0  0  0  0  0  0  0
  150.5970  140.6771  155.2219 C   0  0  0  0  0  0  0  0  0  0  0  0
  148.7380  141.6856  154.0295 O   0  0  0  0  0  0  0  0  0  0  0  0
  147.5116  141.3720  153.4318 N   0  0  0  0  0  0  0  0  0  0  0  0
  144.2011  134.6949  150.4990 C   0  0  0  0  0  0  0  0  0  0  0  0
  143.7023  130.6524  150.6172 H   0  0  0  0  0  0  0  0  0  0  0  0
  143.4540  132.1608  151.4898 H   0  0  0  0  0  0  0  0  0  0  0  0
  145.0293  131.3669  151.5214 H   0  0  0  0  0  0  0  0  0  0  0  0
  145.2874  131.8019  149.0390 H   0  0  0  0  0  0  0  0  0  0  0  0
  143.6968  132.5330  149.0161 H   0  0  0  0  0  0  0  0  0  0  0  0
  146.4430  132.6601  151.3447 H   0  0  0  0  0  0  0  0  0  0  0  0
  147.2183  133.8852  150.3466 H   0  0  0  0  0  0  0  0  0  0  0  0
  145.6101  134.2164  152.8595 H   0  0  0  0  0  0  0  0  0  0  0  0
  146.9615  135.2035  152.3081 H   0  0  0  0  0  0  0  0  0  0  0  0
  145.5696  136.3275  150.6822 H   0  0  0  0  0  0  0  0  0  0  0  0
  143.1937  136.6123  151.9571 H   0  0  0  0  0  0  0  0  0  0  0  0
  144.0965  135.9560  153.2964 H   0  0  0  0  0  0  0  0  0  0  0  0
  144.1840  138.5979  152.3050 H   0  0  0  0  0  0  0  0  0  0  0  0
  145.4763  139.9952  152.7784 H   0  0  0  0  0  0  0  0  0  0  0  0
  148.6325  138.4527  154.5781 H   0  0  0  0  0  0  0  0  0  0  0  0
  150.8587  139.7544  155.7402 H   0  0  0  0  0  0  0  0  0  0  0  0
  150.5711  141.4812  155.9574 H   0  0  0  0  0  0  0  0  0  0  0  0
  151.3872  140.8983  154.5045 H   0  0  0  0  0  0  0  0  0  0  0  0
  143.6710  135.2098  149.6972 H   0  0  0  0  0  0  0  0  0  0  0  0
  143.4604  134.1913  151.1230 H   0  0  0  0  0  0  0  0  0  0  0  0
  145.5282  134.0914  149.1069 H   0  0  0  0  0  0  0  0  0  0  0  0
  1  2  1  0  0  0  0
  1 19  1  0  0  0  0
  1 20  1  0  0  0  0
  1 21  1  0  0  0  0
  2  3  1  0  0  0  0
  2 22  1  0  0  0  0
  2 23  1  0  0  0  0
  3 18  1  0  0  0  0
  3  4  1  0  0  0  0
  3 39  1  0  0  0  0
  4  5  1  0  0  0  0
  4 24  1  0  0  0  0
  4 25  1  0  0  0  0
  5  6  1  0  0  0  0
  5 26  1  0  0  0  0
  5 27  1  0  0  0  0
  6  7  1  0  0  0  0
  6 18  1  0  0  0  0
  6 28  1  0  0  0  0
  7  8  1  0  0  0  0
  7 29  1  0  0  0  0
  7 30  1  0  0  0  0
  8  9  1  0  0  0  0
  8 31  1  0  0  0  0
  9 10  2  0  0  0  0
  9 11  1  0  0  0  0
 11 12  1  0  0  0  0
 11 32  1  0  0  0  0
 12 17  2  0  0  0  0
 12 13  1  0  0  0  0
 13 14  2  0  0  0  0
 13 33  1  0  0  0  0
 14 15  1  0  0  0  0
 14 16  1  0  0  0  0
 15 34  1  0  0  0  0
 15 35  1  0  0  0  0
 15 36  1  0  0  0  0
 16 17  1  0  0  0  0
 18 37  1  0  0  0  0
 18 38  1  0  0  0  0
M  CHG  1   3   1
M  END
> <s_m_source_file>
AV-unprocessed.smi

> <i_m_source_file_index>
2002

> <i_lp_mmshare_version>
43012

> <i_f3d_flags>
0

> <s_epik_input>
W0NIM11bQ0gyXU4xW0NIMl1bQ0gyXVtDQEhdKFtDSDJdMSlbQ0gyXVtOSF1DKD1PKVtOSF1jMltjSF1jKFtDSDNdKW9uMg==

> <s_epik_cmdline>
J2VwaWtfcHl0aG9uJywgJy1waCcsICc3LjAnLCAnLXRuJywgJzgnLCAnLW1hJywgJzIwMCcsICctbWV0YWxfYmluZGluZycsICctaW1hZScsICc8aW5maWxlLm1hZT4nLCAnLW9tYWUnLCAnPG91dGZpbGUubWFlPic=

> <r_epik_Ionization_Penalty>
0.000632871

> <r_epik_Ionization_Penalty_Charging>
0.000610951

> <r_epik_Ionization_Penalty_Neutral>
2.19198e-05

> <r_epik_State_Penalty>
0.000385263

> <r_epik_Charging_Adjusted_Penalty>
0.000996214

> <i_epik_Tot_Q>
1

> <i_epik_Tot_abs_Q>
1

> <r_epik_Metal_State_Penalty>
-0

> <b_epik_Metal_Only>
0

> <s_lp_Force_Field>
OPLS_2005

> <r_lp_Energy>
28.1542

> <b_lp_Chiralities_Consistent>
1

> <s_lp_Variant>
AV-unprocessed.smi:2002-4

> <Gold.Version>
5.8.1

> <Gold.Id.Protein>
6NUR|6NUR_protein|mol2

> <Gold.PLP.Fitness>
41.3393

> <Gold.PLP.PLP>
-32.2221

> <Gold.PLP.part.hbond>
-5.0000

> <Gold.PLP.part.metal>
0.0000

> <Gold.PLP.part.buried>
-3.5191

> <Gold.PLP.part.nonpolar>
-26.1267

> <Gold.PLP.part.repulsive>
2.4724

> <Gold.PLP.ligand.clash>
0.0000

> <Gold.PLP.ligand.torsion>
0.5197

> <Gold.PLP.Chemscore.Hbond>
3.3810

> <Gold.PLP.Chemscore.CHOScore>
0.0000

> <Gold.PLP.Chemscore.Metal>
0.0000

> <Gold.Chemscore.Hbonds>
donor molecule, donor type, donor heavy atom, donor atom, acceptor molecule, acceptor atom, score
      L1  H     3    39       P1  7921  1.00
      L1  H     8    31       P1 10175  1.00
      L1  H    11    32       P1 10175  1.00
      P1  H  8011  8017       L1    16  0.44

> <Gold.PLP.Chemscore.Internal.Correction>
0.0138

> <Gold.Rescore>
     Score         DG    S(hbond)    S(metal)    S(lipo)     H(rot)  DE(clash)    DE(int)     intcor
     16.95     -18.63       2.87        0.00      63.88       1.52       0.01       1.67       ----

> <Gold.Chemscore.Fitness>
16.9546

> <Gold.Chemscore.DG>
-18.6344

> <Gold.Chemscore.ZeroCoef>
-5.4800

> <Gold.Chemscore.Hbond>
2.8675

> <Gold.Chemscore.Metal>
0.0000

> <Gold.Chemscore.Lipo>
63.8811

> <Gold.Chemscore.Internal_Hbond>
0.0000

> <Gold.Chemscore.DEClash>
0.0060

> <Gold.Chemscore.DEInternal>
1.6737

> <Gold.Chemscore.Rot>
1.5223

> <Gold.Chemscore.Internal.Correction>
   9.000000E+99

> <Gold.Chemscore.Hbonds>
donor molecule, donor type, donor heavy atom, donor atom, acceptor molecule, acceptor atom, score
      L1  H     3    39       P1  7921  0.78
      L1  H     8    31       P1 10175  0.97
      L1  H    11    32       P1 10175  0.97
      P1  H  8011  8017       L1    16  0.10

> <Gold.Chemscore.Hbond.Weighted>
-9.5774

> <Gold.Chemscore.Metal.Weighted>
-0.0000

> <Gold.Chemscore.Lipo.Weighted>
-7.4741

> <Gold.Chemscore.Internal_Hbond.Weighted>
0.0000

> <Gold.Chemscore.DEClash.Weighted>
0.0060

> <Gold.Chemscore.DEInternal.Weighted>
1.6737

> <Gold.Chemscore.Rot.Weighted>
3.8971

> <Gold.Chemscore.Internal.Correction.Weighted>
   9.000000E+99

> <Gold.Protein.RotatedTorsions>
[ 6907 6896 6895 6894 ] final   95.94 input  -60.11 | X-H torsion
[ 7974 7965 7964 7962 ] final  -87.29 input  175.53 | X-H torsion
[ 8008 7997 7996 7995 ] final  159.25 input   59.86 | X-H torsion
[ 10167 10162 10161 10158 ] final   61.52 input  -65.29 | X-H torsion
[ 10718 10713 10712 10709 ] final  116.09 input   66.30 | X-H torsion
[ 10763 10752 10751 10750 ] final -106.02 input  -60.55 | X-H torsion
[ 11005 11000 10999 10996 ] final   85.43 input  -57.11 | X-H torsion

> <Gold.Protein.ActiveResidues>
 VAL166  LYS551  ARG553  GLY616  TRP617  ASP618  TYR619  PRO620  LYS621  CYS622 
 ASP623  PHE694  ASN695  SER759  ASP760  ASP761  ALA762  ILE779  LEU786  VAL792 
 PHE793  MET794  SER795  GLU796  ALA797  LYS798  CYS799  TRP800  GLU811  SER814 

> <Gold.Protein.RotatedAtoms>
  152.5439  134.0962  159.8297 H   0  0  0  0  0  0  0  0  0  0  0  0  # atno 6907 bound_to 6896
  151.1045  133.5211  159.2616 H   0  0  0  0  0  0  0  0  0  0  0  0  # atno 6908 bound_to 6896
  151.1953  135.0429  159.8904 H   0  0  0  0  0  0  0  0  0  0  0  0  # atno 6909 bound_to 6896
  145.4686  140.9560  143.1930 H   0  0  0  0  0  0  0  0  0  0  0  0  # atno 7974 bound_to 7965
  156.2251  140.1836  156.7383 H   0  0  0  0  0  0  0  0  0  0  0  0  # atno 8008 bound_to 7997
  154.5928  140.0648  156.9290 H   0  0  0  0  0  0  0  0  0  0  0  0  # atno 8009 bound_to 7997
  155.2308  140.3314  155.4306 H   0  0  0  0  0  0  0  0  0  0  0  0  # atno 8010 bound_to 7997
  140.1539  144.4436  150.6745 H   0  0  0  0  0  0  0  0  0  0  0  0  # atno 10167 bound_to 10162
  157.6182  131.1021  150.7423 H   0  0  0  0  0  0  0  0  0  0  0  0  # atno 10718 bound_to 10713
  154.7985  135.4727  154.0218 H   0  0  0  0  0  0  0  0  0  0  0  0  # atno 10763 bound_to 10752
  153.1742  135.6830  153.8573 H   0  0  0  0  0  0  0  0  0  0  0  0  # atno 10764 bound_to 10752
  153.8145  135.3212  155.3382 H   0  0  0  0  0  0  0  0  0  0  0  0  # atno 10765 bound_to 10752
  139.8972  134.8286  156.2582 H   0  0  0  0  0  0  0  0  0  0  0  0  # atno 11005 bound_to 11000
  144.7959  139.6235  143.7093 LP  0  0  0  0  0  0  0  0  0  0  0  0  # atno 17320 bound_to 7965
  146.2410  139.6001  142.9491 LP  0  0  0  0  0  0  0  0  0  0  0  0  # atno 17321 bound_to 7965
  140.6685  143.2277  151.5683 LP  0  0  0  0  0  0  0  0  0  0  0  0  # atno 17342 bound_to 10162
  139.5413  144.2641  152.1355 LP  0  0  0  0  0  0  0  0  0  0  0  0  # atno 17343 bound_to 10162
  156.7786  130.4852  149.5405 LP  0  0  0  0  0  0  0  0  0  0  0  0  # atno 17370 bound_to 10713
  156.1314  130.6180  151.0339 LP  0  0  0  0  0  0  0  0  0  0  0  0  # atno 17371 bound_to 10713
  141.0180  133.7057  156.1220 LP  0  0  0  0  0  0  0  0  0  0  0  0  # atno 17394 bound_to 11000
  140.7274  134.4292  157.5569 LP  0  0  0  0  0  0  0  0  0  0  0  0  # atno 17395 bound_to 11000

$$$$
