AV-unprocessed.smi:3318|AV-procd|sdf|12763|dock4
  -GOLD-   2272019103D 1   1.00000     0.00000
 Structure written by MMmdl.
 45 46  0  0  0  0  0  0  0  0  3 V2000
  144.5468  134.6790  150.3851 C   0  0  0  0  0  0  0  0  0  0  0  0
  145.3755  135.7635  151.0822 C   0  0  0  0  0  0  0  0  0  0  0  0
  144.5151  136.6696  151.9803 C   0  0  0  0  0  0  0  0  0  0  0  0
  145.2367  137.8902  152.4243 N   0  3  2  0  0  0  0  0  0  0  0  0
  146.2233  138.3861  151.4279 C   0  0  0  0  0  0  0  0  0  0  0  0
  146.8560  139.7145  151.8810 C   0  0  0  0  0  0  0  0  0  0  0  0
  147.5105  139.6066  153.2734 C   0  0  2  0  0  0  0  0  0  0  0  0
  148.7553  138.8010  153.2614 N   0  3  0  0  0  0  0  0  0  0  0  0
  149.5320  138.8158  154.5192 C   0  0  0  0  0  0  0  0  0  0  0  0
  149.9261  140.2488  154.9032 C   0  0  0  0  0  0  0  0  0  0  0  0
  150.5768  140.3167  156.2717 C   0  0  0  0  0  0  0  0  0  0  0  0
  150.8415  141.5596  156.8851 C   0  0  0  0  0  0  0  0  0  0  0  0
  151.4431  141.5637  158.1587 C   0  0  0  0  0  0  0  0  0  0  0  0
  151.7527  140.3317  158.7665 C   0  0  0  0  0  0  0  0  0  0  0  0
  151.4462  139.1449  158.0712 C   0  0  0  0  0  0  0  0  0  0  0  0
  150.8691  139.1301  156.8498 N   0  0  0  0  0  0  0  0  0  0  0  0
  146.4910  139.0241  154.2683 C   0  0  0  0  0  0  0  0  0  0  0  0
  145.8598  137.7137  153.7618 C   0  0  0  0  0  0  0  0  0  0  0  0
  145.1793  134.0490  149.7589 H   0  0  0  0  0  0  0  0  0  0  0  0
  143.7796  135.1169  149.7460 H   0  0  0  0  0  0  0  0  0  0  0  0
  144.0513  134.0340  151.1112 H   0  0  0  0  0  0  0  0  0  0  0  0
  146.1588  135.2773  151.6629 H   0  0  0  0  0  0  0  0  0  0  0  0
  145.8794  136.3675  150.3267 H   0  0  0  0  0  0  0  0  0  0  0  0
  143.6350  136.9670  151.4081 H   0  0  0  0  0  0  0  0  0  0  0  0
  144.1465  136.1191  152.8474 H   0  0  0  0  0  0  0  0  0  0  0  0
  146.9967  137.6327  151.2711 H   0  0  0  0  0  0  0  0  0  0  0  0
  145.7413  138.5439  150.4641 H   0  0  0  0  0  0  0  0  0  0  0  0
  147.5684  140.0647  151.1348 H   0  0  0  0  0  0  0  0  0  0  0  0
  146.0752  140.4758  151.9185 H   0  0  0  0  0  0  0  0  0  0  0  0
  147.7762  140.6072  153.6183 H   0  0  0  0  0  0  0  0  0  0  0  0
  148.4944  137.8400  153.0901 H   0  0  0  0  0  0  0  0  0  0  0  0
  148.9471  138.3716  155.3246 H   0  0  0  0  0  0  0  0  0  0  0  0
  150.4277  138.2054  154.3948 H   0  0  0  0  0  0  0  0  0  0  0  0
  150.6169  140.6591  154.1648 H   0  0  0  0  0  0  0  0  0  0  0  0
  149.0464  140.8940  154.8927 H   0  0  0  0  0  0  0  0  0  0  0  0
  150.5922  142.4894  156.3949 H   0  0  0  0  0  0  0  0  0  0  0  0
  151.6629  142.4950  158.6601 H   0  0  0  0  0  0  0  0  0  0  0  0
  152.2141  140.2963  159.7423 H   0  0  0  0  0  0  0  0  0  0  0  0
  151.6695  138.1825  158.5076 H   0  0  0  0  0  0  0  0  0  0  0  0
  146.9586  138.8641  155.2407 H   0  0  0  0  0  0  0  0  0  0  0  0
  145.6981  139.7551  154.4334 H   0  0  0  0  0  0  0  0  0  0  0  0
  145.1052  137.3854  154.4779 H   0  0  0  0  0  0  0  0  0  0  0  0
  146.6108  136.9238  153.7127 H   0  0  0  0  0  0  0  0  0  0  0  0
  144.5355  138.6098  152.5319 H   0  0  0  0  0  0  0  0  0  0  0  0
  149.3466  139.1108  152.5037 H   0  0  0  0  0  0  0  0  0  0  0  0
  1  2  1  0  0  0  0
  1 19  1  0  0  0  0
  1 20  1  0  0  0  0
  1 21  1  0  0  0  0
  2  3  1  0  0  0  0
  2 22  1  0  0  0  0
  2 23  1  0  0  0  0
  3  4  1  0  0  0  0
  3 24  1  0  0  0  0
  3 25  1  0  0  0  0
  4 18  1  0  0  0  0
  4  5  1  0  0  0  0
  4 44  1  0  0  0  0
  5  6  1  0  0  0  0
  5 26  1  0  0  0  0
  5 27  1  0  0  0  0
  6  7  1  0  0  0  0
  6 28  1  0  0  0  0
  6 29  1  0  0  0  0
  7  8  1  0  0  0  0
  7 17  1  0  0  0  0
  7 30  1  0  0  0  0
  8  9  1  0  0  0  0
  8 31  1  0  0  0  0
  8 45  1  0  0  0  0
  9 10  1  0  0  0  0
  9 32  1  0  0  0  0
  9 33  1  0  0  0  0
 10 11  1  0  0  0  0
 10 34  1  0  0  0  0
 10 35  1  0  0  0  0
 11 16  1  0  0  0  0
 11 12  2  0  0  0  0
 12 13  1  0  0  0  0
 12 36  1  0  0  0  0
 13 14  2  0  0  0  0
 13 37  1  0  0  0  0
 14 15  1  0  0  0  0
 14 38  1  0  0  0  0
 15 16  2  0  0  0  0
 15 39  1  0  0  0  0
 17 18  1  0  0  0  0
 17 40  1  0  0  0  0
 17 41  1  0  0  0  0
 18 42  1  0  0  0  0
 18 43  1  0  0  0  0
M  CHG  1   4   1
M  CHG  1   8   1
M  END
> <s_m_source_file>
AV-unprocessed.smi

> <i_m_source_file_index>
3318

> <i_lp_mmshare_version>
43012

> <i_f3d_flags>
0

> <s_epik_input>
W0NIM11bQ0gyXVtDSDJdTjFbQ0gyXVtDSDJdW0NIXShbQ0gyXVtDSDJdMSlbTkhdW0NIMl1bQ0gyXWMyW2NIXVtjSF1bY0hdW2NIXW4y

> <s_epik_cmdline>
J2VwaWtfcHl0aG9uJywgJy1waCcsICc3LjAnLCAnLXRuJywgJzgnLCAnLW1hJywgJzIwMCcsICctbWV0YWxfYmluZGluZycsICctaW1hZScsICc8aW5maWxlLm1hZT4nLCAnLW9tYWUnLCAnPG91dGZpbGUubWFlPic=

> <r_epik_Ionization_Penalty>
0.0638186

> <r_epik_Ionization_Penalty_Charging>
0.0628538

> <r_epik_Ionization_Penalty_Neutral>
0.000964829

> <r_epik_State_Penalty>
0.0518488

> <r_epik_Charging_Adjusted_Penalty>
0.114703

> <i_epik_Tot_Q>
2

> <i_epik_Tot_abs_Q>
2

> <r_epik_Metal_State_Penalty>
0.0535981

> <b_epik_Metal_Only>
0

> <s_lp_Force_Field>
OPLS_2005

> <r_lp_Energy>
29.7366

> <b_lp_Chiralities_Consistent>
1

> <s_lp_Variant>
AV-unprocessed.smi:3318-2

> <Gold.Version>
5.8.1

> <Gold.Id.Protein>
6NUR|6NUR_protein|mol2

> <Gold.PLP.Fitness>
45.2425

> <Gold.PLP.PLP>
-32.4239

> <Gold.PLP.part.hbond>
-3.7569

> <Gold.PLP.part.metal>
0.0000

> <Gold.PLP.part.buried>
5.1000

> <Gold.PLP.part.nonpolar>
-34.1015

> <Gold.PLP.part.repulsive>
0.0904

> <Gold.PLP.ligand.clash>
0.0000

> <Gold.PLP.ligand.torsion>
0.5541

> <Gold.PLP.Chemscore.Hbond>
4.6145

> <Gold.PLP.Chemscore.CHOScore>
0.0000

> <Gold.PLP.Chemscore.Metal>
0.0000

> <Gold.Chemscore.Hbonds>
donor molecule, donor type, donor heavy atom, donor atom, acceptor molecule, acceptor atom, score
      L1  H     4    44       P1 10175  1.98
      L1  H     8    31       P1  7948  1.48
      L1  H     8    45       P1  7957  1.00

> <Gold.PLP.Chemscore.Internal.Correction>
0.0832

> <Gold.Rescore>
     Score         DG    S(hbond)    S(metal)    S(lipo)     H(rot)  DE(clash)    DE(int)     intcor
     18.29     -21.03       2.63        0.00      91.73       1.55       2.23       0.51       ----

> <Gold.Chemscore.Fitness>
18.2924

> <Gold.Chemscore.DG>
-21.0311

> <Gold.Chemscore.ZeroCoef>
-5.4800

> <Gold.Chemscore.Hbond>
2.6332

> <Gold.Chemscore.Metal>
0.0000

> <Gold.Chemscore.Lipo>
91.7299

> <Gold.Chemscore.Internal_Hbond>
0.0000

> <Gold.Chemscore.DEClash>
2.2330

> <Gold.Chemscore.DEInternal>
0.5056

> <Gold.Chemscore.Rot>
1.5532

> <Gold.Chemscore.Internal.Correction>
   9.000000E+99

> <Gold.Chemscore.Hbonds>
donor molecule, donor type, donor heavy atom, donor atom, acceptor molecule, acceptor atom, score
      L1  H     4    44       P1 10175  0.92
      L1  H     8    31       P1  7948  0.70
      L1  H     8    45       P1  7957  0.94

> <Gold.Chemscore.Hbond.Weighted>
-8.7949

> <Gold.Chemscore.Metal.Weighted>
-0.0000

> <Gold.Chemscore.Lipo.Weighted>
-10.7324

> <Gold.Chemscore.Internal_Hbond.Weighted>
0.0000

> <Gold.Chemscore.DEClash.Weighted>
2.2330

> <Gold.Chemscore.DEInternal.Weighted>
0.5056

> <Gold.Chemscore.Rot.Weighted>
3.9762

> <Gold.Chemscore.Internal.Correction.Weighted>
   9.000000E+99

> <Gold.Protein.RotatedTorsions>
[ 6907 6896 6895 6894 ] final  147.85 input  -60.11 | X-H torsion
[ 7974 7965 7964 7962 ] final -160.54 input  175.53 | X-H torsion
[ 8008 7997 7996 7995 ] final -102.66 input   59.86 | X-H torsion
[ 10167 10162 10161 10158 ] final  -48.57 input  -65.29 | X-H torsion
[ 10718 10713 10712 10709 ] final  123.44 input   66.30 | X-H torsion
[ 10763 10752 10751 10750 ] final  169.29 input  -60.55 | X-H torsion
[ 11005 11000 10999 10996 ] final -112.95 input  -57.11 | X-H torsion

> <Gold.Protein.ActiveResidues>
 VAL166  LYS551  ARG553  GLY616  TRP617  ASP618  TYR619  PRO620  LYS621  CYS622 
 ASP623  PHE694  ASN695  SER759  ASP760  ASP761  ALA762  ILE779  LEU786  VAL792 
 PHE793  MET794  SER795  GLU796  ALA797  LYS798  CYS799  TRP800  GLU811  SER814 

> <Gold.Protein.RotatedAtoms>
  152.1494  133.4512  159.4805 H   0  0  0  0  0  0  0  0  0  0  0  0  # atno 6907 bound_to 6896
  150.6894  134.2208  159.4405 H   0  0  0  0  0  0  0  0  0  0  0  0  # atno 6908 bound_to 6896
  152.0104  134.9879  160.0618 H   0  0  0  0  0  0  0  0  0  0  0  0  # atno 6909 bound_to 6896
  144.7423  140.3527  143.6112 H   0  0  0  0  0  0  0  0  0  0  0  0  # atno 7974 bound_to 7965
  154.8599  140.0427  157.1658 H   0  0  0  0  0  0  0  0  0  0  0  0  # atno 8008 bound_to 7997
  154.8852  140.2978  155.5382 H   0  0  0  0  0  0  0  0  0  0  0  0  # atno 8009 bound_to 7997
  156.2998  140.2404  156.3860 H   0  0  0  0  0  0  0  0  0  0  0  0  # atno 8010 bound_to 7997
  140.6725  143.2734  151.4091 H   0  0  0  0  0  0  0  0  0  0  0  0  # atno 10167 bound_to 10162
  157.5665  131.1086  150.8445 H   0  0  0  0  0  0  0  0  0  0  0  0  # atno 10718 bound_to 10713
  154.3809  135.2753  155.2211 H   0  0  0  0  0  0  0  0  0  0  0  0  # atno 10763 bound_to 10752
  154.4318  135.5975  153.6077 H   0  0  0  0  0  0  0  0  0  0  0  0  # atno 10764 bound_to 10752
  152.9834  135.5997  154.4052 H   0  0  0  0  0  0  0  0  0  0  0  0  # atno 10765 bound_to 10752
  141.0644  133.9483  157.2607 H   0  0  0  0  0  0  0  0  0  0  0  0  # atno 11005 bound_to 11000
  145.7260  139.1723  143.2458 LP  0  0  0  0  0  0  0  0  0  0  0  0  # atno 17320 bound_to 7965
  146.1242  140.7270  142.9443 LP  0  0  0  0  0  0  0  0  0  0  0  0  # atno 17321 bound_to 7965
  139.6000  144.1316  152.2187 LP  0  0  0  0  0  0  0  0  0  0  0  0  # atno 17342 bound_to 10162
  140.0697  144.5789  150.7201 LP  0  0  0  0  0  0  0  0  0  0  0  0  # atno 17343 bound_to 10162
  156.8929  130.5219  149.5285 LP  0  0  0  0  0  0  0  0  0  0  0  0  # atno 17370 bound_to 10713
  156.0713  130.5745  150.9388 LP  0  0  0  0  0  0  0  0  0  0  0  0  # atno 17371 bound_to 10713
  139.9462  135.0183  156.8860 LP  0  0  0  0  0  0  0  0  0  0  0  0  # atno 17394 bound_to 11000
  140.5803  134.0358  155.7462 LP  0  0  0  0  0  0  0  0  0  0  0  0  # atno 17395 bound_to 11000

$$$$
