AV-unprocessed.smi:3253|AV-procd|sdf|12446|dock10
  -GOLD-   2272018343D 1   1.00000     0.00000
 Structure written by MMmdl.
 37 38  0  0  0  0  0  0  0  0  2 V2000
  148.4460  134.0323  156.3636 C   0  0  0  0  0  0  0  0  0  0  0  0
  149.3769  133.9892  155.1445 C   0  0  1  0  0  0  0  0  0  0  0  0
  148.8071  133.0762  154.0363 C   0  0  0  0  0  0  0  0  0  0  0  0
  147.3714  133.2744  153.8086 N   0  0  0  0  0  0  0  0  0  0  0  0
  146.7787  134.1874  152.9742 C   0  0  0  0  0  0  0  0  0  0  0  0
  145.4260  133.9883  153.0751 C   0  0  0  0  0  0  0  0  0  0  0  0
  145.2502  132.9693  153.9725 N   0  3  0  0  0  0  0  0  0  0  0  0
  146.4340  132.5398  154.4211 C   0  0  0  0  0  0  0  0  0  0  0  0
  149.5758  135.3519  154.6522 N   0  0  0  0  0  0  0  0  0  0  0  0
  150.1353  136.3595  155.3412 C   0  0  0  0  0  0  0  0  0  0  0  0
  150.5374  136.2446  156.4999 O   0  0  0  0  0  0  0  0  0  0  0  0
  150.2867  137.6961  154.5998 C   0  0  2  0  0  0  0  0  0  0  0  0
  151.7718  138.0209  154.3404 C   0  0  0  0  0  0  0  0  0  0  0  0
  152.0458  139.2227  155.2289 C   0  0  0  0  0  0  0  0  0  0  0  0
  153.1688  139.7022  155.3749 O   0  0  0  0  0  0  0  0  0  0  0  0
  150.9232  139.6512  155.8124 N   0  0  0  0  0  0  0  0  0  0  0  0
  150.8172  140.7700  156.7391 C   0  0  0  0  0  0  0  0  0  0  0  0
  149.7493  138.8924  155.4160 C   0  0  0  0  0  0  0  0  0  0  0  0
  148.2992  133.0355  156.7806 H   0  0  0  0  0  0  0  0  0  0  0  0
  147.4650  134.4308  156.1022 H   0  0  0  0  0  0  0  0  0  0  0  0
  148.8613  134.6594  157.1535 H   0  0  0  0  0  0  0  0  0  0  0  0
  150.3296  133.5792  155.4848 H   0  0  0  0  0  0  0  0  0  0  0  0
  149.3148  133.2653  153.0893 H   0  0  0  0  0  0  0  0  0  0  0  0
  148.9706  132.0247  154.2772 H   0  0  0  0  0  0  0  0  0  0  0  0
  147.3484  134.8856  152.3782 H   0  0  0  0  0  0  0  0  0  0  0  0
  144.5973  134.4815  152.5881 H   0  0  0  0  0  0  0  0  0  0  0  0
  146.6004  131.7472  155.1288 H   0  0  0  0  0  0  0  0  0  0  0  0
  149.2711  135.5411  153.7081 H   0  0  0  0  0  0  0  0  0  0  0  0
  149.7517  137.6377  153.6501 H   0  0  0  0  0  0  0  0  0  0  0  0
  152.4511  137.2027  154.5863 H   0  0  0  0  0  0  0  0  0  0  0  0
  151.9384  138.2946  153.2980 H   0  0  0  0  0  0  0  0  0  0  0  0
  151.3049  141.6571  156.3333 H   0  0  0  0  0  0  0  0  0  0  0  0
  151.2903  140.5210  157.6896 H   0  0  0  0  0  0  0  0  0  0  0  0
  149.7738  141.0195  156.9341 H   0  0  0  0  0  0  0  0  0  0  0  0
  149.1035  139.5215  154.8019 H   0  0  0  0  0  0  0  0  0  0  0  0
  149.1750  138.5901  156.2938 H   0  0  0  0  0  0  0  0  0  0  0  0
  144.3548  132.5903  154.2544 H   0  0  0  0  0  0  0  0  0  0  0  0
  1  2  1  0  0  0  0
  1 19  1  0  0  0  0
  1 20  1  0  0  0  0
  1 21  1  0  0  0  0
  2  3  1  0  0  0  0
  2  9  1  0  0  0  0
  2 22  1  0  0  0  0
  3  4  1  0  0  0  0
  3 23  1  0  0  0  0
  3 24  1  0  0  0  0
  4  8  1  0  0  0  0
  4  5  1  0  0  0  0
  5  6  2  0  0  0  0
  5 25  1  0  0  0  0
  6  7  1  0  0  0  0
  6 26  1  0  0  0  0
  7  8  2  0  0  0  0
  7 37  1  0  0  0  0
  8 27  1  0  0  0  0
  9 10  1  0  0  0  0
  9 28  1  0  0  0  0
 10 11  2  0  0  0  0
 10 12  1  0  0  0  0
 12 18  1  0  0  0  0
 12 13  1  0  0  0  0
 12 29  1  0  0  0  0
 13 14  1  0  0  0  0
 13 30  1  0  0  0  0
 13 31  1  0  0  0  0
 14 15  2  0  0  0  0
 14 16  1  0  0  0  0
 16 17  1  0  0  0  0
 16 18  1  0  0  0  0
 17 32  1  0  0  0  0
 17 33  1  0  0  0  0
 17 34  1  0  0  0  0
 18 35  1  0  0  0  0
 18 36  1  0  0  0  0
M  CHG  1   7   1
M  END
> <s_m_source_file>
AV-unprocessed.smi

> <i_m_source_file_index>
3253

> <i_lp_mmshare_version>
43012

> <i_f3d_flags>
0

> <s_epik_input>
W2NIXTFuW2NIXVtjSF1uMVtDSDJdW0NAQEhdKFtDSDNdKVtOSF1DKD1PKVtDQEBIXTJbQ0gyXUMoPU8pTihbQ0gzXSlbQ0gyXTI=

> <s_epik_cmdline>
J2VwaWtfcHl0aG9uJywgJy1waCcsICc3LjAnLCAnLXRuJywgJzgnLCAnLW1hJywgJzIwMCcsICctbWV0YWxfYmluZGluZycsICctaW1hZScsICc8aW5maWxlLm1hZT4nLCAnLW9tYWUnLCAnPG91dGZpbGUubWFlPic=

> <r_lp_tautomer_probability>
1

> <r_epik_Ionization_Penalty>
0.251561

> <r_epik_Ionization_Penalty_Charging>
0

> <r_epik_Ionization_Penalty_Neutral>
0.251561

> <r_epik_State_Penalty>
0.242926

> <r_epik_Charging_Adjusted_Penalty>
0.242926

> <i_epik_Tot_Q>
1

> <i_epik_Tot_abs_Q>
1

> <r_epik_Metal_State_Penalty>
0.533885

> <b_epik_Metal_Only>
0

> <s_lp_Force_Field>
OPLS_2005

> <r_lp_Energy>
13.6979

> <b_lp_Chiralities_Consistent>
1

> <s_lp_Variant>
AV-unprocessed.smi:3253-2

> <Gold.Version>
5.8.1

> <Gold.Id.Protein>
6NUR|6NUR_protein|mol2

> <Gold.PLP.Fitness>
41.3086

> <Gold.PLP.PLP>
-27.6056

> <Gold.PLP.part.hbond>
-3.4871

> <Gold.PLP.part.metal>
0.0000

> <Gold.PLP.part.buried>
-0.7335

> <Gold.PLP.part.nonpolar>
-23.0167

> <Gold.PLP.part.repulsive>
0.0738

> <Gold.PLP.ligand.clash>
0.0000

> <Gold.PLP.ligand.torsion>
0.6585

> <Gold.PLP.Chemscore.Hbond>
4.0000

> <Gold.PLP.Chemscore.CHOScore>
1.0000

> <Gold.PLP.Chemscore.Metal>
0.0000

> <Gold.Chemscore.Hbonds>
donor molecule, donor type, donor heavy atom, donor atom, acceptor molecule, acceptor atom, score
      L1  H     7    37       P1 10957  2.00
      L1  H     9    28       P1  7948  1.00
      P1  H  7997  8009       L1    15  0.83
      L1  C     5    25       P1  7948  1.00

> <Gold.PLP.Chemscore.Internal.Correction>
0.0199

> <Gold.Rescore>
     Score         DG    S(hbond)    S(metal)    S(lipo)     H(rot)  DE(clash)    DE(int)     intcor
     13.57     -14.98       2.86        0.00      43.98       2.03       0.01       1.41       ----

> <Gold.Chemscore.Fitness>
13.5690

> <Gold.Chemscore.DG>
-14.9828

> <Gold.Chemscore.ZeroCoef>
-5.4800

> <Gold.Chemscore.Hbond>
2.8637

> <Gold.Chemscore.Metal>
0.0000

> <Gold.Chemscore.Lipo>
43.9778

> <Gold.Chemscore.Internal_Hbond>
0.0000

> <Gold.Chemscore.DEClash>
0.0069

> <Gold.Chemscore.DEInternal>
1.4069

> <Gold.Chemscore.Rot>
2.0341

> <Gold.Chemscore.Internal.Correction>
   9.000000E+99

> <Gold.Chemscore.Hbonds>
donor molecule, donor type, donor heavy atom, donor atom, acceptor molecule, acceptor atom, score
      L1  H     7    37       P1 10957  0.81
      L1  H     9    28       P1  7948  0.49
      P1  H  7997  8009       L1    15  0.80

> <Gold.Chemscore.Hbond.Weighted>
-9.5646

> <Gold.Chemscore.Metal.Weighted>
-0.0000

> <Gold.Chemscore.Lipo.Weighted>
-5.1454

> <Gold.Chemscore.Internal_Hbond.Weighted>
0.0000

> <Gold.Chemscore.DEClash.Weighted>
0.0069

> <Gold.Chemscore.DEInternal.Weighted>
1.4069

> <Gold.Chemscore.Rot.Weighted>
5.2072

> <Gold.Chemscore.Internal.Correction.Weighted>
   9.000000E+99

> <Gold.Protein.RotatedTorsions>
[ 6907 6896 6895 6894 ] final   74.51 input  -60.11 | X-H torsion
[ 7974 7965 7964 7962 ] final   23.62 input  175.53 | X-H torsion
[ 8008 7997 7996 7995 ] final -143.71 input   59.86 | X-H torsion
[ 10167 10162 10161 10158 ] final   13.18 input  -65.29 | X-H torsion
[ 10718 10713 10712 10709 ] final  116.63 input   66.30 | X-H torsion
[ 10763 10752 10751 10750 ] final  -55.69 input  -60.55 | X-H torsion
[ 11005 11000 10999 10996 ] final -149.08 input  -57.11 | X-H torsion

> <Gold.Protein.ActiveResidues>
 VAL166  LYS551  ARG553  GLY616  TRP617  ASP618  TYR619  PRO620  LYS621  CYS622 
 ASP623  PHE694  ASN695  SER759  ASP760  ASP761  ALA762  ILE779  LEU786  VAL792 
 PHE793  MET794  SER795  GLU796  ALA797  LYS798  CYS799  TRP800  GLU811  SER814 

> <Gold.Protein.RotatedAtoms>
  152.4979  134.4260  159.9496 H   0  0  0  0  0  0  0  0  0  0  0  0  # atno 6907 bound_to 6896
  151.4235  133.3685  159.2767 H   0  0  0  0  0  0  0  0  0  0  0  0  # atno 6908 bound_to 6896
  150.9205  134.8645  159.7545 H   0  0  0  0  0  0  0  0  0  0  0  0  # atno 6909 bound_to 6896
  146.1976  139.7719  142.8786 H   0  0  0  0  0  0  0  0  0  0  0  0  # atno 7974 bound_to 7965
  155.5150  140.0586  157.2917 H   0  0  0  0  0  0  0  0  0  0  0  0  # atno 8008 bound_to 7997
  154.4538  140.1962  156.0387 H   0  0  0  0  0  0  0  0  0  0  0  0  # atno 8009 bound_to 7997
  156.0758  140.3254  155.7636 H   0  0  0  0  0  0  0  0  0  0  0  0  # atno 8010 bound_to 7997
  140.6019  143.8586  150.6974 H   0  0  0  0  0  0  0  0  0  0  0  0  # atno 10167 bound_to 10162
  157.6148  131.1028  150.7500 H   0  0  0  0  0  0  0  0  0  0  0  0  # atno 10718 bound_to 10713
  154.1949  135.6421  153.5070 H   0  0  0  0  0  0  0  0  0  0  0  0  # atno 10763 bound_to 10752
  153.0026  135.5437  154.6376 H   0  0  0  0  0  0  0  0  0  0  0  0  # atno 10764 bound_to 10752
  154.5775  135.2922  155.0739 H   0  0  0  0  0  0  0  0  0  0  0  0  # atno 10765 bound_to 10752
  140.7545  134.3368  157.5117 H   0  0  0  0  0  0  0  0  0  0  0  0  # atno 11005 bound_to 11000
  145.3593  141.0322  143.3294 LP  0  0  0  0  0  0  0  0  0  0  0  0  # atno 17320 bound_to 7965
  144.8613  139.5173  143.6811 LP  0  0  0  0  0  0  0  0  0  0  0  0  # atno 17321 bound_to 7965
  140.2134  143.3865  152.1700 LP  0  0  0  0  0  0  0  0  0  0  0  0  # atno 17342 bound_to 10162
  139.5297  144.7145  151.5099 LP  0  0  0  0  0  0  0  0  0  0  0  0  # atno 17343 bound_to 10162
  156.7870  130.4878  149.5391 LP  0  0  0  0  0  0  0  0  0  0  0  0  # atno 17370 bound_to 10713
  156.1265  130.6148  151.0271 LP  0  0  0  0  0  0  0  0  0  0  0  0  # atno 17371 bound_to 10713
  139.8781  134.9163  156.3152 LP  0  0  0  0  0  0  0  0  0  0  0  0  # atno 17394 bound_to 11000
  140.9720  133.7321  156.0548 LP  0  0  0  0  0  0  0  0  0  0  0  0  # atno 17395 bound_to 11000

$$$$
