AV-unprocessed.smi:1645|AV-procd|sdf|6622|dock3
  -GOLD-   22720 7323D 1   1.00000     0.00000
 Structure written by MMmdl.
 55 58  0  0  0  0  0  0  0  0  4 V2000
  147.2760  140.5461  153.5301 O   0  0  0  0  0  0  0  0  0  0  0  0
  147.5553  139.3992  153.8958 C   0  0  0  0  0  0  0  0  0  0  0  0
  148.3680  139.1977  154.9481 N   0  0  0  0  0  0  0  0  0  0  0  0
  149.0768  140.1477  155.7320 C   0  0  0  0  0  0  0  0  0  0  0  0
  149.9594  139.6564  156.7174 C   0  0  0  0  0  0  0  0  0  0  0  0
  150.7052  140.5594  157.5020 C   0  0  0  0  0  0  0  0  0  0  0  0
  150.5647  141.9483  157.2793 C   0  0  0  0  0  0  0  0  0  0  0  0
  151.2683  142.9201  158.0026 N   0  0  0  0  0  0  0  0  0  0  0  0
  150.3970  143.9354  158.5887 C   0  0  0  0  0  0  0  0  0  0  0  0
  151.2243  145.0741  159.2100 C   0  0  0  0  0  0  0  0  0  0  0  0
  152.2441  144.5235  160.2200 C   0  0  0  0  0  0  0  0  0  0  0  0
  153.1132  143.4399  159.5612 C   0  0  0  0  0  0  0  0  0  0  0  0
  152.2390  142.3429  158.9290 C   0  0  0  0  0  0  0  0  0  0  0  0
  149.7206  142.3804  156.3175 N   0  3  0  0  0  0  0  0  0  0  0  0
  148.9868  141.5490  155.5463 C   0  0  0  0  0  0  0  0  0  0  0  0
  147.1181  138.2289  153.3572 N   0  5  0  0  0  0  0  0  0  0  0  0
  146.1369  137.3304  153.9829 C   0  0  2  0  0  0  0  0  0  0  0  0
  146.8341  136.5088  155.0840 C   0  0  0  0  0  0  0  0  0  0  0  0
  147.3187  135.2093  154.4068 C   0  0  0  0  0  0  0  0  0  0  0  0
  146.8308  135.2771  153.0147 N   0  3  1  0  0  0  0  0  0  0  0  0
  146.5222  133.9936  152.3453 C   0  0  0  0  0  0  0  0  0  0  0  0
  146.0905  134.2604  150.8890 C   0  0  0  0  0  0  0  0  0  0  0  0
  144.9306  135.2739  150.8113 C   0  0  0  0  0  0  0  0  0  0  0  0
  145.2776  136.5688  151.5699 C   0  0  0  0  0  0  0  0  0  0  0  0
  145.6973  136.2166  153.0147 C   0  0  2  0  0  0  0  0  0  0  0  0
  148.4577  138.2368  155.2439 H   0  0  0  0  0  0  0  0  0  0  0  0
  150.0636  138.5928  156.8752 H   0  0  0  0  0  0  0  0  0  0  0  0
  151.3772  140.1854  158.2602 H   0  0  0  0  0  0  0  0  0  0  0  0
  149.7322  144.3359  157.8219 H   0  0  0  0  0  0  0  0  0  0  0  0
  149.7663  143.4790  159.3530 H   0  0  0  0  0  0  0  0  0  0  0  0
  151.7473  145.6181  158.4223 H   0  0  0  0  0  0  0  0  0  0  0  0
  150.5645  145.7928  159.6968 H   0  0  0  0  0  0  0  0  0  0  0  0
  152.8710  145.3300  160.6017 H   0  0  0  0  0  0  0  0  0  0  0  0
  151.7197  144.1020  161.0784 H   0  0  0  0  0  0  0  0  0  0  0  0
  153.7427  143.8929  158.7940 H   0  0  0  0  0  0  0  0  0  0  0  0
  153.7884  143.0023  160.2971 H   0  0  0  0  0  0  0  0  0  0  0  0
  151.7144  141.7923  159.7111 H   0  0  0  0  0  0  0  0  0  0  0  0
  152.8694  141.6260  158.4013 H   0  0  0  0  0  0  0  0  0  0  0  0
  148.3732  142.0395  154.8057 H   0  0  0  0  0  0  0  0  0  0  0  0
  145.2738  137.8611  154.3869 H   0  0  0  0  0  0  0  0  0  0  0  0
  147.6464  137.0504  155.5712 H   0  0  0  0  0  0  0  0  0  0  0  0
  146.1109  136.2589  155.8613 H   0  0  0  0  0  0  0  0  0  0  0  0
  148.4059  135.1224  154.4143 H   0  0  0  0  0  0  0  0  0  0  0  0
  146.9080  134.3387  154.9213 H   0  0  0  0  0  0  0  0  0  0  0  0
  147.4024  133.3503  152.3656 H   0  0  0  0  0  0  0  0  0  0  0  0
  145.7298  133.4753  152.8877 H   0  0  0  0  0  0  0  0  0  0  0  0
  146.9412  134.6456  150.3252 H   0  0  0  0  0  0  0  0  0  0  0  0
  145.8012  133.3252  150.4089 H   0  0  0  0  0  0  0  0  0  0  0  0
  144.6985  135.5002  149.7703 H   0  0  0  0  0  0  0  0  0  0  0  0
  144.0310  134.8307  151.2403 H   0  0  0  0  0  0  0  0  0  0  0  0
  146.0812  137.0827  151.0390 H   0  0  0  0  0  0  0  0  0  0  0  0
  144.4187  137.2419  151.5677 H   0  0  0  0  0  0  0  0  0  0  0  0
  144.8525  135.7080  153.4847 H   0  0  0  0  0  0  0  0  0  0  0  0
  147.5586  135.7349  152.4842 H   0  0  0  0  0  0  0  0  0  0  0  0
  149.6349  143.3850  156.1619 H   0  0  0  0  0  0  0  0  0  0  0  0
  1  2  2  0  0  0  0
  2  3  1  0  0  0  0
  2 16  1  0  0  0  0
  3  4  1  0  0  0  0
  3 26  1  0  0  0  0
  4 15  1  0  0  0  0
  4  5  2  0  0  0  0
  5  6  1  0  0  0  0
  5 27  1  0  0  0  0
  6  7  2  0  0  0  0
  6 28  1  0  0  0  0
  7  8  1  0  0  0  0
  7 14  1  0  0  0  0
  8 13  1  0  0  0  0
  8  9  1  0  0  0  0
  9 10  1  0  0  0  0
  9 29  1  0  0  0  0
  9 30  1  0  0  0  0
 10 11  1  0  0  0  0
 10 31  1  0  0  0  0
 10 32  1  0  0  0  0
 11 12  1  0  0  0  0
 11 33  1  0  0  0  0
 11 34  1  0  0  0  0
 12 13  1  0  0  0  0
 12 35  1  0  0  0  0
 12 36  1  0  0  0  0
 13 37  1  0  0  0  0
 13 38  1  0  0  0  0
 14 15  2  0  0  0  0
 14 55  1  0  0  0  0
 15 39  1  0  0  0  0
 16 17  1  0  0  0  0
 17 25  1  0  0  0  0
 17 18  1  0  0  0  0
 17 40  1  0  0  0  0
 18 19  1  0  0  0  0
 18 41  1  0  0  0  0
 18 42  1  0  0  0  0
 19 20  1  0  0  0  0
 19 43  1  0  0  0  0
 19 44  1  0  0  0  0
 20 25  1  0  0  0  0
 20 21  1  0  0  0  0
 20 54  1  0  0  0  0
 21 22  1  0  0  0  0
 21 45  1  0  0  0  0
 21 46  1  0  0  0  0
 22 23  1  0  0  0  0
 22 47  1  0  0  0  0
 22 48  1  0  0  0  0
 23 24  1  0  0  0  0
 23 49  1  0  0  0  0
 23 50  1  0  0  0  0
 24 25  1  0  0  0  0
 24 51  1  0  0  0  0
 24 52  1  0  0  0  0
 25 53  1  0  0  0  0
M  CHG  1  14   1
M  CHG  1  16  -1
M  CHG  1  20   1
M  END
> <s_m_source_file>
AV-unprocessed.smi

> <i_m_source_file_index>
1645

> <i_lp_mmshare_version>
43012

> <i_f3d_flags>
0

> <s_epik_input>
W0NIMl0xW0NIMl1bQ0gyXVtDSDJdW0NASF0oTjEyKVtDQEBIXShbQ0gyXVtDSDJdMilbTkhdQyg9TylbTkhdYzNbY0hdW2NIXWMobltjSF0zKU40W0NIMl1bQ0gyXVtDSDJdW0NIMl1bQ0gyXTQ=

> <s_epik_cmdline>
J2VwaWtfcHl0aG9uJywgJy1waCcsICc3LjAnLCAnLXRuJywgJzgnLCAnLW1hJywgJzIwMCcsICctbWV0YWxfYmluZGluZycsICctaW1hZScsICc8aW5maWxlLm1hZT4nLCAnLW9tYWUnLCAnPG91dGZpbGUubWFlPic=

> <r_lp_tautomer_probability>
0.999994

> <r_epik_Ionization_Penalty>
8.55589

> <r_epik_Ionization_Penalty_Charging>
8.55589

> <r_epik_Ionization_Penalty_Neutral>
3.8092e-06

> <r_epik_State_Penalty>
8.15703

> <r_epik_Charging_Adjusted_Penalty>
16.7129

> <i_epik_Tot_Q>
1

> <i_epik_Tot_abs_Q>
3

> <r_epik_Metal_State_Penalty>
4.13781

> <b_epik_Metal_Only>
1

> <s_lp_Force_Field>
OPLS_2005

> <r_lp_Energy>
55.4093

> <b_lp_Chiralities_Consistent>
1

> <s_lp_Variant>
AV-unprocessed.smi:1645-23

> <Gold.Version>
5.8.1

> <Gold.Id.Protein>
6NUR|6NUR_protein|mol2

> <Gold.PLP.Fitness>
47.8823

> <Gold.PLP.PLP>
-37.5316

> <Gold.PLP.part.hbond>
-2.0000

> <Gold.PLP.part.metal>
0.0000

> <Gold.PLP.part.buried>
-7.8420

> <Gold.PLP.part.nonpolar>
-30.6260

> <Gold.PLP.part.repulsive>
1.9551

> <Gold.PLP.ligand.clash>
0.0000

> <Gold.PLP.ligand.torsion>
0.9235

> <Gold.PLP.Chemscore.Hbond>
4.0000

> <Gold.PLP.Chemscore.CHOScore>
0.0000

> <Gold.PLP.Chemscore.Metal>
0.0000

> <Gold.Chemscore.Hbonds>
donor molecule, donor type, donor heavy atom, donor atom, acceptor molecule, acceptor atom, score
      L1  H    14    55       P1  8028  2.00
      L1  H    20    54       P1  7948  2.00

> <Gold.PLP.Chemscore.Internal.Correction>
0.1977

> <Gold.Rescore>
     Score         DG    S(hbond)    S(metal)    S(lipo)     H(rot)  DE(clash)    DE(int)     intcor
     18.44     -21.26       2.00        0.00     103.54       1.17       0.50       2.32       ----

> <Gold.Chemscore.Fitness>
18.4418

> <Gold.Chemscore.DG>
-21.2603

> <Gold.Chemscore.ZeroCoef>
-5.4800

> <Gold.Chemscore.Hbond>
1.9967

> <Gold.Chemscore.Metal>
0.0000

> <Gold.Chemscore.Lipo>
103.5438

> <Gold.Chemscore.Internal_Hbond>
0.0000

> <Gold.Chemscore.DEClash>
0.4956

> <Gold.Chemscore.DEInternal>
2.3230

> <Gold.Chemscore.Rot>
1.1731

> <Gold.Chemscore.Internal.Correction>
   9.000000E+99

> <Gold.Chemscore.Hbonds>
donor molecule, donor type, donor heavy atom, donor atom, acceptor molecule, acceptor atom, score
      L1  H    14    55       P1  8028  0.97
      L1  H    20    54       P1  7948  0.98

> <Gold.Chemscore.Hbond.Weighted>
-6.6690

> <Gold.Chemscore.Metal.Weighted>
-0.0000

> <Gold.Chemscore.Lipo.Weighted>
-12.1146

> <Gold.Chemscore.Internal_Hbond.Weighted>
0.0000

> <Gold.Chemscore.DEClash.Weighted>
0.4956

> <Gold.Chemscore.DEInternal.Weighted>
2.3230

> <Gold.Chemscore.Rot.Weighted>
3.0032

> <Gold.Chemscore.Internal.Correction.Weighted>
   9.000000E+99

> <Gold.Protein.RotatedTorsions>
[ 6907 6896 6895 6894 ] final  -39.07 input  -60.11 | X-H torsion
[ 7974 7965 7964 7962 ] final  -78.50 input  175.53 | X-H torsion
[ 8008 7997 7996 7995 ] final   80.32 input   59.86 | X-H torsion
[ 10167 10162 10161 10158 ] final   98.70 input  -65.29 | X-H torsion
[ 10718 10713 10712 10709 ] final  -73.04 input   66.30 | X-H torsion
[ 10763 10752 10751 10750 ] final    5.07 input  -60.55 | X-H torsion
[ 11005 11000 10999 10996 ] final  -87.28 input  -57.11 | X-H torsion

> <Gold.Protein.ActiveResidues>
 VAL166  LYS551  ARG553  GLY616  TRP617  ASP618  TYR619  PRO620  LYS621  CYS622 
 ASP623  PHE694  ASN695  SER759  ASP760  ASP761  ALA762  ILE779  LEU786  VAL792 
 PHE793  MET794  SER795  GLU796  ALA797  LYS798  CYS799  TRP800  GLU811  SER814 

> <Gold.Protein.RotatedAtoms>
  150.9948  134.9275  159.7920 H   0  0  0  0  0  0  0  0  0  0  0  0  # atno 6907 bound_to 6896
  152.5261  134.3233  159.9166 H   0  0  0  0  0  0  0  0  0  0  0  0  # atno 6908 bound_to 6896
  151.3238  133.3987  159.2691 H   0  0  0  0  0  0  0  0  0  0  0  0  # atno 6909 bound_to 6896
  145.5857  140.9439  143.1320 H   0  0  0  0  0  0  0  0  0  0  0  0  # atno 7974 bound_to 7965
  155.8818  140.3443  155.5893 H   0  0  0  0  0  0  0  0  0  0  0  0  # atno 8008 bound_to 7997
  155.7711  140.0845  157.2127 H   0  0  0  0  0  0  0  0  0  0  0  0  # atno 8009 bound_to 7997
  154.4025  140.1518  156.2930 H   0  0  0  0  0  0  0  0  0  0  0  0  # atno 8010 bound_to 7997
  139.7684  144.6931  151.0191 H   0  0  0  0  0  0  0  0  0  0  0  0  # atno 10167 bound_to 10162
  156.0296  130.4385  150.2683 H   0  0  0  0  0  0  0  0  0  0  0  0  # atno 10718 bound_to 10713
  153.2637  135.6925  153.7551 H   0  0  0  0  0  0  0  0  0  0  0  0  # atno 10763 bound_to 10752
  153.6601  135.3362  155.3125 H   0  0  0  0  0  0  0  0  0  0  0  0  # atno 10764 bound_to 10752
  154.8439  135.4475  154.1637 H   0  0  0  0  0  0  0  0  0  0  0  0  # atno 10765 bound_to 10752
  141.1619  133.7502  156.9284 H   0  0  0  0  0  0  0  0  0  0  0  0  # atno 11005 bound_to 11000
  144.7374  139.7547  143.7324 LP  0  0  0  0  0  0  0  0  0  0  0  0  # atno 17320 bound_to 7965
  146.1684  139.4824  142.9943 LP  0  0  0  0  0  0  0  0  0  0  0  0  # atno 17321 bound_to 7965
  140.7812  143.4616  151.0270 LP  0  0  0  0  0  0  0  0  0  0  0  0  # atno 17342 bound_to 10162
  139.8300  143.7703  152.3179 LP  0  0  0  0  0  0  0  0  0  0  0  0  # atno 17343 bound_to 10162
  157.0786  131.0137  151.3165 LP  0  0  0  0  0  0  0  0  0  0  0  0  # atno 17370 bound_to 10713
  157.4945  130.7842  149.7541 LP  0  0  0  0  0  0  0  0  0  0  0  0  # atno 17371 bound_to 10713
  140.1403  134.9298  157.2458 LP  0  0  0  0  0  0  0  0  0  0  0  0  # atno 17394 bound_to 11000
  140.2844  134.3312  155.7333 LP  0  0  0  0  0  0  0  0  0  0  0  0  # atno 17395 bound_to 11000

$$$$
