AV-unprocessed.smi:1033|AV-procd|sdf|4511|dock8
  -GOLD-   22720 2523D 1   1.00000     0.00000
 Structure written by MMmdl.
 57 59  0  0  0  0  0  0  0  0  3 V2000
  153.0405  142.6893  160.6731 C   0  0  0  0  0  0  0  0  0  0  0  0
  152.2997  142.3221  159.3991 C   0  0  0  0  0  0  0  0  0  0  0  0
  152.4040  141.0046  158.8992 C   0  0  0  0  0  0  0  0  0  0  0  0
  151.7302  140.6222  157.7189 C   0  0  0  0  0  0  0  0  0  0  0  0
  151.6954  139.4071  157.0567 N   0  0  0  0  0  0  0  0  0  0  0  0
  150.9031  139.6849  156.0261 C   0  0  0  0  0  0  0  0  0  0  0  0
  150.4284  140.9421  155.9350 N   0  0  0  0  0  0  0  0  0  0  0  0
  149.5670  141.4744  154.8954 C   0  0  0  0  0  0  0  0  0  0  0  0
  148.0713  141.2727  155.2088 C   0  0  1  0  0  0  0  0  0  0  0  0
  147.7002  142.2321  156.1776 O   0  0  0  0  0  0  0  0  0  0  0  0
  147.1541  141.4298  153.9751 C   0  0  0  0  0  0  0  0  0  0  0  0
  146.3718  140.2014  153.6815 N   0  3  2  0  0  0  0  0  0  0  0  0
  145.8503  139.5249  154.8980 C   0  0  0  0  0  0  0  0  0  0  0  0
  144.9987  138.2903  154.5355 C   0  0  0  0  0  0  0  0  0  0  0  0
  145.7230  137.3452  153.6449 N   0  3  2  0  0  0  0  0  0  0  0  0
  146.7356  136.4954  154.3286 C   0  0  0  0  0  0  0  0  0  0  0  0
  146.9618  135.1544  153.6036 C   0  0  2  0  0  0  0  0  0  0  0  0
  145.9760  134.0738  154.0663 C   0  0  0  0  0  0  0  0  0  0  0  0
  148.2729  134.7002  153.8710 O   0  0  0  0  0  0  0  0  0  0  0  0
  146.2454  138.0407  152.4423 C   0  0  0  0  0  0  0  0  0  0  0  0
  147.1179  139.2534  152.8172 C   0  0  0  0  0  0  0  0  0  0  0  0
  150.9445  141.6028  157.0453 C   0  0  0  0  0  0  0  0  0  0  0  0
  150.8324  142.9171  157.5330 C   0  0  0  0  0  0  0  0  0  0  0  0
  151.5108  143.2817  158.7148 C   0  0  0  0  0  0  0  0  0  0  0  0
  151.3803  144.7017  159.2366 C   0  0  0  0  0  0  0  0  0  0  0  0
  153.5846  141.8353  161.0778 H   0  0  0  0  0  0  0  0  0  0  0  0
  152.3421  143.0327  161.4366 H   0  0  0  0  0  0  0  0  0  0  0  0
  153.7617  143.4839  160.4804 H   0  0  0  0  0  0  0  0  0  0  0  0
  153.0044  140.2734  159.4209 H   0  0  0  0  0  0  0  0  0  0  0  0
  150.6590  138.9334  155.2892 H   0  0  0  0  0  0  0  0  0  0  0  0
  149.7900  142.5363  154.7803 H   0  0  0  0  0  0  0  0  0  0  0  0
  149.8289  140.9985  153.9494 H   0  0  0  0  0  0  0  0  0  0  0  0
  147.9454  140.2849  155.6511 H   0  0  0  0  0  0  0  0  0  0  0  0
  148.1845  143.0286  156.0183 H   0  0  0  0  0  0  0  0  0  0  0  0
  146.4757  142.2650  154.1571 H   0  0  0  0  0  0  0  0  0  0  0  0
  147.7289  141.6952  153.0873 H   0  0  0  0  0  0  0  0  0  0  0  0
  146.6827  139.2384  155.5421 H   0  0  0  0  0  0  0  0  0  0  0  0
  145.2369  140.2130  155.4782 H   0  0  0  0  0  0  0  0  0  0  0  0
  144.6537  137.7900  155.4396 H   0  0  0  0  0  0  0  0  0  0  0  0
  144.0984  138.6193  154.0145 H   0  0  0  0  0  0  0  0  0  0  0  0
  147.6890  137.0244  154.3756 H   0  0  0  0  0  0  0  0  0  0  0  0
  146.4401  136.3217  155.3634 H   0  0  0  0  0  0  0  0  0  0  0  0
  146.8564  135.2762  152.5261 H   0  0  0  0  0  0  0  0  0  0  0  0
  144.9469  134.3690  153.8594 H   0  0  0  0  0  0  0  0  0  0  0  0
  146.0591  133.8888  155.1379 H   0  0  0  0  0  0  0  0  0  0  0  0
  146.1559  133.1298  153.5506 H   0  0  0  0  0  0  0  0  0  0  0  0
  148.8782  135.1732  153.3199 H   0  0  0  0  0  0  0  0  0  0  0  0
  146.8002  137.3466  151.8101 H   0  0  0  0  0  0  0  0  0  0  0  0
  145.3961  138.3773  151.8462 H   0  0  0  0  0  0  0  0  0  0  0  0
  147.4337  139.7605  151.9046 H   0  0  0  0  0  0  0  0  0  0  0  0
  148.0259  138.9282  153.3275 H   0  0  0  0  0  0  0  0  0  0  0  0
  150.2281  143.6390  157.0040 H   0  0  0  0  0  0  0  0  0  0  0  0
  150.7647  145.3138  158.5768 H   0  0  0  0  0  0  0  0  0  0  0  0
  152.3599  145.1739  159.3131 H   0  0  0  0  0  0  0  0  0  0  0  0
  150.9167  144.7036  160.2233 H   0  0  0  0  0  0  0  0  0  0  0  0
  145.0340  136.6895  153.3018 H   0  0  0  0  0  0  0  0  0  0  0  0
  145.5710  140.5031  153.1438 H   0  0  0  0  0  0  0  0  0  0  0  0
  1  2  1  0  0  0  0
  1 26  1  0  0  0  0
  1 27  1  0  0  0  0
  1 28  1  0  0  0  0
  2 24  1  0  0  0  0
  2  3  2  0  0  0  0
  3  4  1  0  0  0  0
  3 29  1  0  0  0  0
  4 22  2  0  0  0  0
  4  5  1  0  0  0  0
  5  6  2  0  0  0  0
  6  7  1  0  0  0  0
  6 30  1  0  0  0  0
  7  8  1  0  0  0  0
  7 22  1  0  0  0  0
  8  9  1  0  0  0  0
  8 31  1  0  0  0  0
  8 32  1  0  0  0  0
  9 10  1  0  0  0  0
  9 11  1  0  0  0  0
  9 33  1  0  0  0  0
 10 34  1  0  0  0  0
 11 12  1  0  0  0  0
 11 35  1  0  0  0  0
 11 36  1  0  0  0  0
 12 21  1  0  0  0  0
 12 13  1  0  0  0  0
 12 57  1  0  0  0  0
 13 14  1  0  0  0  0
 13 37  1  0  0  0  0
 13 38  1  0  0  0  0
 14 15  1  0  0  0  0
 14 39  1  0  0  0  0
 14 40  1  0  0  0  0
 15 16  1  0  0  0  0
 15 20  1  0  0  0  0
 15 56  1  0  0  0  0
 16 17  1  0  0  0  0
 16 41  1  0  0  0  0
 16 42  1  0  0  0  0
 17 18  1  0  0  0  0
 17 19  1  0  0  0  0
 17 43  1  0  0  0  0
 18 44  1  0  0  0  0
 18 45  1  0  0  0  0
 18 46  1  0  0  0  0
 19 47  1  0  0  0  0
 20 21  1  0  0  0  0
 20 48  1  0  0  0  0
 20 49  1  0  0  0  0
 21 50  1  0  0  0  0
 21 51  1  0  0  0  0
 22 23  1  0  0  0  0
 23 24  2  0  0  0  0
 23 52  1  0  0  0  0
 24 25  1  0  0  0  0
 25 53  1  0  0  0  0
 25 54  1  0  0  0  0
 25 55  1  0  0  0  0
M  CHG  1  12   1
M  CHG  1  15   1
M  END
> <s_m_source_file>
AV-unprocessed.smi

> <i_m_source_file_index>
1033

> <i_lp_mmshare_version>
43012

> <i_f3d_flags>
0

> <s_epik_input>
W0NIM11jKFtjSF0xKWMoW0NIM10pW2NIXWMoYzEyKW4oW2NIXW4yKVtDSDJdW0NASF0oW09IXSlbQ0gyXU4zW0NIMl1bQ0gyXU4oW0NIMl1bQ0gyXTMpW0NIMl1bQ0BIXShbQ0gzXSlbT0hd

> <s_epik_cmdline>
J2VwaWtfcHl0aG9uJywgJy1waCcsICc3LjAnLCAnLXRuJywgJzgnLCAnLW1hJywgJzIwMCcsICctbWV0YWxfYmluZGluZycsICctaW1hZScsICc8aW5maWxlLm1hZT4nLCAnLW9tYWUnLCAnPG91dGZpbGUubWFlPic=

> <r_epik_Ionization_Penalty>
3.16016

> <r_epik_Ionization_Penalty_Charging>
3.07679

> <r_epik_Ionization_Penalty_Neutral>
0.083365

> <r_epik_State_Penalty>
2.09701

> <r_epik_Charging_Adjusted_Penalty>
5.1738

> <i_epik_Tot_Q>
2

> <i_epik_Tot_abs_Q>
2

> <r_epik_Metal_State_Penalty>
2.02534

> <b_epik_Metal_Only>
0

> <s_lp_Force_Field>
OPLS_2005

> <r_lp_Energy>
29.7714

> <b_lp_Chiralities_Consistent>
1

> <s_lp_Variant>
AV-unprocessed.smi:1033-22

> <Gold.Version>
5.8.1

> <Gold.Id.Protein>
6NUR|6NUR_protein|mol2

> <Gold.PLP.Fitness>
52.6605

> <Gold.PLP.PLP>
-44.6616

> <Gold.PLP.part.hbond>
-3.0000

> <Gold.PLP.part.metal>
0.0000

> <Gold.PLP.part.buried>
-2.5512

> <Gold.PLP.part.nonpolar>
-39.0774

> <Gold.PLP.part.repulsive>
0.0000

> <Gold.PLP.ligand.clash>
0.0000

> <Gold.PLP.ligand.torsion>
2.0711

> <Gold.PLP.Chemscore.Hbond>
3.9920

> <Gold.PLP.Chemscore.CHOScore>
0.0000

> <Gold.PLP.Chemscore.Metal>
0.0000

> <Gold.Chemscore.Hbonds>
donor molecule, donor type, donor heavy atom, donor atom, acceptor molecule, acceptor atom, score
      L1  H    10    34       P1  8028  1.00
      L1  H    12    57       P1 10175  2.00
      L1  H    19    47       P1  7948  0.86

> <Gold.PLP.Chemscore.Internal.Correction>
0.1651

> <Gold.Rescore>
     Score         DG    S(hbond)    S(metal)    S(lipo)     H(rot)  DE(clash)    DE(int)     intcor
     18.88     -21.22       2.79        0.00     123.42       3.14       0.30       2.04       ----

> <Gold.Chemscore.Fitness>
18.8798

> <Gold.Chemscore.DG>
-21.2215

> <Gold.Chemscore.ZeroCoef>
-5.4800

> <Gold.Chemscore.Hbond>
2.7947

> <Gold.Chemscore.Metal>
0.0000

> <Gold.Chemscore.Lipo>
123.4217

> <Gold.Chemscore.Internal_Hbond>
0.0000

> <Gold.Chemscore.DEClash>
0.2968

> <Gold.Chemscore.DEInternal>
2.0448

> <Gold.Chemscore.Rot>
3.1380

> <Gold.Chemscore.Internal.Correction>
   9.000000E+99

> <Gold.Chemscore.Hbonds>
donor molecule, donor type, donor heavy atom, donor atom, acceptor molecule, acceptor atom, score
      L1  H    10    34       P1  8028  0.78
      L1  H    12    57       P1 10175  0.86
      L1  H    19    47       P1  7948  0.47

> <Gold.Chemscore.Hbond.Weighted>
-9.3344

> <Gold.Chemscore.Metal.Weighted>
-0.0000

> <Gold.Chemscore.Lipo.Weighted>
-14.4403

> <Gold.Chemscore.Internal_Hbond.Weighted>
0.0000

> <Gold.Chemscore.DEClash.Weighted>
0.2968

> <Gold.Chemscore.DEInternal.Weighted>
2.0448

> <Gold.Chemscore.Rot.Weighted>
8.0332

> <Gold.Chemscore.Internal.Correction.Weighted>
   9.000000E+99

> <Gold.Protein.RotatedTorsions>
[ 6907 6896 6895 6894 ] final  -52.64 input  -60.11 | X-H torsion
[ 7974 7965 7964 7962 ] final  -96.94 input  175.53 | X-H torsion
[ 8008 7997 7996 7995 ] final  -55.31 input   59.86 | X-H torsion
[ 10167 10162 10161 10158 ] final  -57.69 input  -65.29 | X-H torsion
[ 10718 10713 10712 10709 ] final   76.52 input   66.30 | X-H torsion
[ 10763 10752 10751 10750 ] final -175.40 input  -60.55 | X-H torsion
[ 11005 11000 10999 10996 ] final   87.68 input  -57.11 | X-H torsion

> <Gold.Protein.ActiveResidues>
 VAL166  LYS551  ARG553  GLY616  TRP617  ASP618  TYR619  PRO620  LYS621  CYS622 
 ASP623  PHE694  ASN695  SER759  ASP760  ASP761  ALA762  ILE779  LEU786  VAL792 
 PHE793  MET794  SER795  GLU796  ALA797  LYS798  CYS799  TRP800  GLU811  SER814 

> <Gold.Protein.RotatedAtoms>
  150.8499  134.7821  159.7000 H   0  0  0  0  0  0  0  0  0  0  0  0  # atno 6907 bound_to 6896
  152.4567  134.5273  159.9810 H   0  0  0  0  0  0  0  0  0  0  0  0  # atno 6908 bound_to 6896
  151.5396  133.3397  159.2968 H   0  0  0  0  0  0  0  0  0  0  0  0  # atno 6909 bound_to 6896
  145.3402  140.9458  143.2612 H   0  0  0  0  0  0  0  0  0  0  0  0  # atno 7974 bound_to 7965
  154.4191  140.1156  156.5456 H   0  0  0  0  0  0  0  0  0  0  0  0  # atno 8008 bound_to 7997
  155.6463  140.3496  155.4713 H   0  0  0  0  0  0  0  0  0  0  0  0  # atno 8009 bound_to 7997
  155.9829  140.1164  157.0699 H   0  0  0  0  0  0  0  0  0  0  0  0  # atno 8010 bound_to 7997
  140.6243  143.2432  151.5403 H   0  0  0  0  0  0  0  0  0  0  0  0  # atno 10167 bound_to 10162
  157.6677  130.9778  150.1509 H   0  0  0  0  0  0  0  0  0  0  0  0  # atno 10718 bound_to 10713
  154.5848  135.2839  155.0696 H   0  0  0  0  0  0  0  0  0  0  0  0  # atno 10763 bound_to 10752
  154.2019  135.6423  153.5093 H   0  0  0  0  0  0  0  0  0  0  0  0  # atno 10764 bound_to 10752
  153.0100  135.5471  154.6514 H   0  0  0  0  0  0  0  0  0  0  0  0  # atno 10765 bound_to 10752
  139.8914  134.8438  156.2895 H   0  0  0  0  0  0  0  0  0  0  0  0  # atno 11005 bound_to 11000
  144.8796  139.4923  143.6729 LP  0  0  0  0  0  0  0  0  0  0  0  0  # atno 17320 bound_to 7965
  146.3010  139.7428  142.9091 LP  0  0  0  0  0  0  0  0  0  0  0  0  # atno 17321 bound_to 7965
  139.5466  144.2506  152.1453 LP  0  0  0  0  0  0  0  0  0  0  0  0  # atno 17342 bound_to 10162
  140.1733  144.4914  150.6567 LP  0  0  0  0  0  0  0  0  0  0  0  0  # atno 17343 bound_to 10162
  156.2309  130.3682  149.8446 LP  0  0  0  0  0  0  0  0  0  0  0  0  # atno 17370 bound_to 10713
  156.6273  130.8651  151.3488 LP  0  0  0  0  0  0  0  0  0  0  0  0  # atno 17371 bound_to 10713
  140.9986  133.7165  156.0924 LP  0  0  0  0  0  0  0  0  0  0  0  0  # atno 17394 bound_to 11000
  140.7529  134.4025  157.5538 LP  0  0  0  0  0  0  0  0  0  0  0  0  # atno 17395 bound_to 11000

$$$$
