AV-unprocessed.smi:2702|AV-procd|sdf|10433|dock9
  -GOLD-   2272014473D 1   1.00000     0.00000
 Structure written by MMmdl.
 47 48  0  0  0  0  0  0  0  0  1 V2000
  151.8843  141.6465  158.1419 C   0  0  0  0  0  0  0  0  0  0  0  0
  150.8643  141.1244  157.3093 O   0  0  0  0  0  0  0  0  0  0  0  0
  151.1494  141.2911  155.9304 C   0  0  0  0  0  0  0  0  0  0  0  0
  150.0490  140.6847  155.0829 C   0  0  0  0  0  0  0  0  0  0  0  0
  148.7569  141.0709  155.1987 C   0  0  0  0  0  0  0  0  0  0  0  0
  147.7195  140.4646  154.3647 C   0  0  0  0  0  0  0  0  0  0  0  0
  146.5337  140.7885  154.4405 O   0  0  0  0  0  0  0  0  0  0  0  0
  148.1652  139.5094  153.4957 N   0  0  0  0  0  0  0  0  0  0  0  0
  147.2359  138.8054  152.5935 C   0  0  0  0  0  0  0  0  0  0  0  0
  146.2910  137.8526  153.3385 C   0  0  0  0  0  0  0  0  0  0  0  0
  145.4370  138.2947  154.1079 O   0  0  0  0  0  0  0  0  0  0  0  0
  146.4572  136.5449  153.0875 N   0  0  0  0  0  0  0  0  0  0  0  0
  145.7089  135.4438  153.6980 C   0  0  1  0  0  0  0  0  0  0  0  0
  144.1981  135.6684  153.5028 C   0  0  0  0  0  0  0  0  0  0  0  0
  143.7773  135.4955  152.0361 C   0  0  0  0  0  0  0  0  0  0  0  0
  144.2065  134.1235  151.4994 C   0  0  0  0  0  0  0  0  0  0  0  0
  145.7227  133.8855  151.6559 C   0  0  2  0  0  0  0  0  0  0  0  0
  146.0938  132.5055  151.0847 C   0  0  0  0  0  0  0  0  0  0  0  0
  146.1551  134.0655  153.1383 C   0  0  1  0  0  0  0  0  0  0  0  0
  147.6615  133.8203  153.3616 C   0  0  0  0  0  0  0  0  0  0  0  0
  149.5259  139.1538  153.4072 C   0  0  0  0  0  0  0  0  0  0  0  0
  150.4255  139.7062  154.1574 N   0  0  0  0  0  0  0  0  0  0  0  0
  151.6186  141.4914  159.1875 H   0  0  0  0  0  0  0  0  0  0  0  0
  152.0136  142.7178  157.9824 H   0  0  0  0  0  0  0  0  0  0  0  0
  152.8369  141.1472  157.9594 H   0  0  0  0  0  0  0  0  0  0  0  0
  151.2602  142.3516  155.6971 H   0  0  0  0  0  0  0  0  0  0  0  0
  152.0931  140.8041  155.6798 H   0  0  0  0  0  0  0  0  0  0  0  0
  148.4796  141.8306  155.9151 H   0  0  0  0  0  0  0  0  0  0  0  0
  146.6270  139.5028  152.0157 H   0  0  0  0  0  0  0  0  0  0  0  0
  147.8062  138.2467  151.8489 H   0  0  0  0  0  0  0  0  0  0  0  0
  147.1831  136.2840  152.4359 H   0  0  0  0  0  0  0  0  0  0  0  0
  145.8899  135.4441  154.7742 H   0  0  0  0  0  0  0  0  0  0  0  0
  143.6479  134.9549  154.1176 H   0  0  0  0  0  0  0  0  0  0  0  0
  143.9132  136.6588  153.8602 H   0  0  0  0  0  0  0  0  0  0  0  0
  142.6965  135.6071  151.9461 H   0  0  0  0  0  0  0  0  0  0  0  0
  144.2189  136.2836  151.4254 H   0  0  0  0  0  0  0  0  0  0  0  0
  143.6560  133.3423  152.0257 H   0  0  0  0  0  0  0  0  0  0  0  0
  143.9223  134.0432  150.4495 H   0  0  0  0  0  0  0  0  0  0  0  0
  146.2409  134.6335  151.0542 H   0  0  0  0  0  0  0  0  0  0  0  0
  145.6692  131.7000  151.6845 H   0  0  0  0  0  0  0  0  0  0  0  0
  147.1733  132.3621  151.0439 H   0  0  0  0  0  0  0  0  0  0  0  0
  145.7218  132.3914  150.0662 H   0  0  0  0  0  0  0  0  0  0  0  0
  145.6296  133.3081  153.7222 H   0  0  0  0  0  0  0  0  0  0  0  0
  148.2725  134.4385  152.7032 H   0  0  0  0  0  0  0  0  0  0  0  0
  147.9303  132.7798  153.1825 H   0  0  0  0  0  0  0  0  0  0  0  0
  147.9468  134.0478  154.3890 H   0  0  0  0  0  0  0  0  0  0  0  0
  149.7647  138.3902  152.6652 H   0  0  0  0  0  0  0  0  0  0  0  0
  1  2  1  0  0  0  0
  1 23  1  0  0  0  0
  1 24  1  0  0  0  0
  1 25  1  0  0  0  0
  2  3  1  0  0  0  0
  3  4  1  0  0  0  0
  3 26  1  0  0  0  0
  3 27  1  0  0  0  0
  4 22  1  0  0  0  0
  4  5  2  0  0  0  0
  5  6  1  0  0  0  0
  5 28  1  0  0  0  0
  6  7  2  0  0  0  0
  6  8  1  0  0  0  0
  8  9  1  0  0  0  0
  8 21  1  0  0  0  0
  9 10  1  0  0  0  0
  9 29  1  0  0  0  0
  9 30  1  0  0  0  0
 10 11  2  0  0  0  0
 10 12  1  0  0  0  0
 12 13  1  0  0  0  0
 12 31  1  0  0  0  0
 13 19  1  0  0  0  0
 13 14  1  0  0  0  0
 13 32  1  0  0  0  0
 14 15  1  0  0  0  0
 14 33  1  0  0  0  0
 14 34  1  0  0  0  0
 15 16  1  0  0  0  0
 15 35  1  0  0  0  0
 15 36  1  0  0  0  0
 16 17  1  0  0  0  0
 16 37  1  0  0  0  0
 16 38  1  0  0  0  0
 17 18  1  0  0  0  0
 17 19  1  0  0  0  0
 17 39  1  0  0  0  0
 18 40  1  0  0  0  0
 18 41  1  0  0  0  0
 18 42  1  0  0  0  0
 19 20  1  0  0  0  0
 19 43  1  0  0  0  0
 20 44  1  0  0  0  0
 20 45  1  0  0  0  0
 20 46  1  0  0  0  0
 21 22  2  0  0  0  0
 21 47  1  0  0  0  0
M  END
> <s_m_source_file>
AV-unprocessed.smi

> <i_m_source_file_index>
2702

> <i_lp_mmshare_version>
43012

> <i_f3d_flags>
0

> <s_epik_input>
W0NIM11PW0NIMl1jMVtjSF1jKD1PKW4oW2NIXW4xKVtDSDJdQyg9TylbTkhdW0NAQEhdMltDSDJdW0NIMl1bQ0gyXVtDQEBIXShbQ0gzXSlbQ0BIXTJbQ0gzXQ==

> <s_epik_cmdline>
J2VwaWtfcHl0aG9uJywgJy1waCcsICc3LjAnLCAnLXRuJywgJzgnLCAnLW1hJywgJzIwMCcsICctbWV0YWxfYmluZGluZycsICctaW1hZScsICc8aW5maWxlLm1hZT4nLCAnLW9tYWUnLCAnPG91dGZpbGUubWFlPic=

> <r_lp_tautomer_probability>
1

> <r_epik_Ionization_Penalty>
1.22164e-06

> <r_epik_Ionization_Penalty_Charging>
3.17988e-07

> <r_epik_Ionization_Penalty_Neutral>
9.03656e-07

> <r_epik_State_Penalty>
-0

> <r_epik_Charging_Adjusted_Penalty>
3.17988e-07

> <i_epik_Tot_Q>
0

> <i_epik_Tot_abs_Q>
0

> <r_epik_Metal_State_Penalty>
-0

> <b_epik_Metal_Only>
0

> <s_lp_Force_Field>
OPLS_2005

> <r_lp_Energy>
16.6041

> <b_lp_Chiralities_Consistent>
1

> <s_lp_Variant>
AV-unprocessed.smi:2702-4

> <Gold.Version>
5.8.1

> <Gold.Id.Protein>
6NUR|6NUR_protein|mol2

> <Gold.PLP.Fitness>
37.1591

> <Gold.PLP.PLP>
-27.7052

> <Gold.PLP.part.hbond>
-2.0000

> <Gold.PLP.part.metal>
0.0000

> <Gold.PLP.part.buried>
1.3371

> <Gold.PLP.part.nonpolar>
-28.5142

> <Gold.PLP.part.repulsive>
0.9203

> <Gold.PLP.ligand.clash>
0.0000

> <Gold.PLP.ligand.torsion>
0.1503

> <Gold.PLP.Chemscore.Hbond>
2.0000

> <Gold.PLP.Chemscore.CHOScore>
1.2456

> <Gold.PLP.Chemscore.Metal>
0.0000

> <Gold.Chemscore.Hbonds>
donor molecule, donor type, donor heavy atom, donor atom, acceptor molecule, acceptor atom, score
      L1  H    12    31       P1  7948  1.00
      P1  H  7989  7998       L1    22  0.45
      L1  C    21    47       P1  7948  1.00
      L1  C    21    47       P1  7957  0.14

> <Gold.PLP.Chemscore.Internal.Correction>
0.0177

> <Gold.Rescore>
     Score         DG    S(hbond)    S(metal)    S(lipo)     H(rot)  DE(clash)    DE(int)     intcor
      8.06     -10.90       1.00        0.00      59.92       1.93       0.01       2.83       ----

> <Gold.Chemscore.Fitness>
8.0628

> <Gold.Chemscore.DG>
-10.9001

> <Gold.Chemscore.ZeroCoef>
-5.4800

> <Gold.Chemscore.Hbond>
1.0019

> <Gold.Chemscore.Metal>
0.0000

> <Gold.Chemscore.Lipo>
59.9186

> <Gold.Chemscore.Internal_Hbond>
0.0000

> <Gold.Chemscore.DEClash>
0.0091

> <Gold.Chemscore.DEInternal>
2.8283

> <Gold.Chemscore.Rot>
1.9284

> <Gold.Chemscore.Internal.Correction>
   9.000000E+99

> <Gold.Chemscore.Hbonds>
donor molecule, donor type, donor heavy atom, donor atom, acceptor molecule, acceptor atom, score
      L1  H    12    31       P1  7948  0.98
      P1  H  7989  7998       L1    22  0.02

> <Gold.Chemscore.Hbond.Weighted>
-3.3464

> <Gold.Chemscore.Metal.Weighted>
-0.0000

> <Gold.Chemscore.Lipo.Weighted>
-7.0105

> <Gold.Chemscore.Internal_Hbond.Weighted>
0.0000

> <Gold.Chemscore.DEClash.Weighted>
0.0091

> <Gold.Chemscore.DEInternal.Weighted>
2.8283

> <Gold.Chemscore.Rot.Weighted>
4.9368

> <Gold.Chemscore.Internal.Correction.Weighted>
   9.000000E+99

> <Gold.Protein.RotatedTorsions>
[ 6907 6896 6895 6894 ] final  -95.69 input  -60.11 | X-H torsion
[ 7974 7965 7964 7962 ] final   85.91 input  175.53 | X-H torsion
[ 8008 7997 7996 7995 ] final -117.47 input   59.86 | X-H torsion
[ 10167 10162 10161 10158 ] final   14.64 input  -65.29 | X-H torsion
[ 10718 10713 10712 10709 ] final   69.21 input   66.30 | X-H torsion
[ 10763 10752 10751 10750 ] final  -66.02 input  -60.55 | X-H torsion
[ 11005 11000 10999 10996 ] final   69.96 input  -57.11 | X-H torsion

> <Gold.Protein.ActiveResidues>
 VAL166  LYS551  ARG553  GLY616  TRP617  ASP618  TYR619  PRO620  LYS621  CYS622 
 ASP623  PHE694  ASN695  SER759  ASP760  ASP761  ALA762  ILE779  LEU786  VAL792 
 PHE793  MET794  SER795  GLU796  ALA797  LYS798  CYS799  TRP800  GLU811  SER814 

> <Gold.Protein.RotatedAtoms>
  150.6970  134.1619  159.4179 H   0  0  0  0  0  0  0  0  0  0  0  0  # atno 6907 bound_to 6896
  151.9599  135.0126  160.0556 H   0  0  0  0  0  0  0  0  0  0  0  0  # atno 6908 bound_to 6896
  152.1936  133.4755  159.5057 H   0  0  0  0  0  0  0  0  0  0  0  0  # atno 6909 bound_to 6896
  145.5792  139.2323  143.2362 H   0  0  0  0  0  0  0  0  0  0  0  0  # atno 7974 bound_to 7965
  155.0842  140.0394  157.2649 H   0  0  0  0  0  0  0  0  0  0  0  0  # atno 8008 bound_to 7997
  154.6882  140.2648  155.6814 H   0  0  0  0  0  0  0  0  0  0  0  0  # atno 8009 bound_to 7997
  156.2719  140.2765  156.1451 H   0  0  0  0  0  0  0  0  0  0  0  0  # atno 8010 bound_to 7997
  140.5922  143.8773  150.6884 H   0  0  0  0  0  0  0  0  0  0  0  0  # atno 10167 bound_to 10162
  157.6333  130.9414  150.0483 H   0  0  0  0  0  0  0  0  0  0  0  0  # atno 10718 bound_to 10713
  154.3537  135.6131  153.5655 H   0  0  0  0  0  0  0  0  0  0  0  0  # atno 10763 bound_to 10752
  152.9797  135.5798  154.4713 H   0  0  0  0  0  0  0  0  0  0  0  0  # atno 10764 bound_to 10752
  154.4439  135.2851  155.1806 H   0  0  0  0  0  0  0  0  0  0  0  0  # atno 10765 bound_to 10752
  139.9624  134.7037  156.0616 H   0  0  0  0  0  0  0  0  0  0  0  0  # atno 11005 bound_to 11000
  146.1728  140.6619  142.9225 LP  0  0  0  0  0  0  0  0  0  0  0  0  # atno 17320 bound_to 7965
  144.7402  140.4920  143.6875 LP  0  0  0  0  0  0  0  0  0  0  0  0  # atno 17321 bound_to 7965
  140.2299  143.3744  152.1574 LP  0  0  0  0  0  0  0  0  0  0  0  0  # atno 17342 bound_to 10162
  139.5234  144.7071  151.5319 LP  0  0  0  0  0  0  0  0  0  0  0  0  # atno 17343 bound_to 10162
  156.1553  130.3643  149.9378 LP  0  0  0  0  0  0  0  0  0  0  0  0  # atno 17370 bound_to 10713
  156.7389  130.9072  151.3631 LP  0  0  0  0  0  0  0  0  0  0  0  0  # atno 17371 bound_to 10713
  141.1302  133.6588  156.3445 LP  0  0  0  0  0  0  0  0  0  0  0  0  # atno 17394 bound_to 11000
  140.5470  134.6065  157.5396 LP  0  0  0  0  0  0  0  0  0  0  0  0  # atno 17395 bound_to 11000

$$$$
