AV-unprocessed.smi:144|AV-procd|sdf|1195|dock5
  -GOLD-   2262018353D 1   1.00000     0.00000
 Structure written by MMmdl.
 46 48  0  0  0  0  0  0  0  0  1 V2000
  149.8042  130.4717  156.6467 O   0  0  0  0  0  0  0  0  0  0  0  0
  149.6465  131.6118  156.2131 C   0  0  0  0  0  0  0  0  0  0  0  0
  149.7973  131.8469  154.6981 C   0  0  0  0  0  0  0  0  0  0  0  0
  148.6512  131.3915  153.8762 N   0  0  0  0  0  0  0  0  0  0  0  0
  148.2737  130.0266  153.9288 C   0  0  0  0  0  0  0  0  0  0  0  0
  148.8805  129.2233  154.6382 O   0  0  0  0  0  0  0  0  0  0  0  0
  147.1259  129.6583  153.1073 C   0  0  0  0  0  0  0  0  0  0  0  0
  146.7048  128.3825  153.0872 F   0  0  0  0  0  0  0  0  0  0  0  0
  146.4736  130.5805  152.3700 C   0  0  0  0  0  0  0  0  0  0  0  0
  146.8423  131.9135  152.3425 N   0  0  0  0  0  0  0  0  0  0  0  0
  146.0843  132.9411  151.5293 C   0  0  2  0  0  0  0  0  0  0  0  0
  144.6105  132.9983  151.9721 C   0  0  0  0  0  0  0  0  0  0  0  0
  143.8654  132.8996  150.6562 C   0  0  0  0  0  0  0  0  0  0  0  0
  144.8205  132.0626  149.8186 C   0  0  0  0  0  0  0  0  0  0  0  0
  146.0953  132.5801  150.1774 O   0  0  0  0  0  0  0  0  0  0  0  0
  147.9533  132.3457  153.0978 C   0  0  0  0  0  0  0  0  0  0  0  0
  148.2942  133.5307  153.0917 O   0  0  0  0  0  0  0  0  0  0  0  0
  149.3679  132.6825  156.9829 N   0  0  0  0  0  0  0  0  0  0  0  0
  149.2207  132.7615  158.3927 C   0  0  0  0  0  0  0  0  0  0  0  0
  149.5895  131.6227  159.1363 C   0  0  0  0  0  0  0  0  0  0  0  0
  149.4802  131.6140  160.5429 C   0  0  0  0  0  0  0  0  0  0  0  0
  149.8712  130.3824  161.3457 C   0  0  0  0  0  0  0  0  0  0  0  0
  150.7743  130.7263  162.2629 F   0  0  0  0  0  0  0  0  0  0  0  0
  148.8039  129.8742  161.9619 F   0  0  0  0  0  0  0  0  0  0  0  0
  150.3929  129.4350  160.5653 F   0  0  0  0  0  0  0  0  0  0  0  0
  149.0188  132.7688  161.2080 C   0  0  0  0  0  0  0  0  0  0  0  0
  148.6709  133.9268  160.4802 C   0  0  0  0  0  0  0  0  0  0  0  0
  148.1782  135.1754  161.1971 C   0  0  0  0  0  0  0  0  0  0  0  0
  148.9006  136.2359  160.8351 F   0  0  0  0  0  0  0  0  0  0  0  0
  146.9042  135.3925  160.8733 F   0  0  0  0  0  0  0  0  0  0  0  0
  148.2668  135.0438  162.5211 F   0  0  0  0  0  0  0  0  0  0  0  0
  148.7710  133.9181  159.0726 C   0  0  0  0  0  0  0  0  0  0  0  0
  149.9807  132.9106  154.5380 H   0  0  0  0  0  0  0  0  0  0  0  0
  150.7259  131.3739  154.3752 H   0  0  0  0  0  0  0  0  0  0  0  0
  145.6314  130.2429  151.7857 H   0  0  0  0  0  0  0  0  0  0  0  0
  146.6260  133.8805  151.6537 H   0  0  0  0  0  0  0  0  0  0  0  0
  144.3735  132.1434  152.6078 H   0  0  0  0  0  0  0  0  0  0  0  0
  144.4005  133.9172  152.5201 H   0  0  0  0  0  0  0  0  0  0  0  0
  142.8774  132.4497  150.7560 H   0  0  0  0  0  0  0  0  0  0  0  0
  143.7496  133.8899  150.2139 H   0  0  0  0  0  0  0  0  0  0  0  0
  144.7518  131.0085  150.0906 H   0  0  0  0  0  0  0  0  0  0  0  0
  144.6369  132.1557  148.7480 H   0  0  0  0  0  0  0  0  0  0  0  0
  149.3421  133.5678  156.4982 H   0  0  0  0  0  0  0  0  0  0  0  0
  149.9521  130.7466  158.6180 H   0  0  0  0  0  0  0  0  0  0  0  0
  148.9391  132.7628  162.2850 H   0  0  0  0  0  0  0  0  0  0  0  0
  148.5109  134.8153  158.5328 H   0  0  0  0  0  0  0  0  0  0  0  0
  1  2  2  0  0  0  0
  2  3  1  0  0  0  0
  2 18  1  0  0  0  0
  3  4  1  0  0  0  0
  3 33  1  0  0  0  0
  3 34  1  0  0  0  0
  4 16  1  0  0  0  0
  4  5  1  0  0  0  0
  5  6  2  0  0  0  0
  5  7  1  0  0  0  0
  7  8  1  0  0  0  0
  7  9  2  0  0  0  0
  9 10  1  0  0  0  0
  9 35  1  0  0  0  0
 10 11  1  0  0  0  0
 10 16  1  0  0  0  0
 11 15  1  0  0  0  0
 11 12  1  0  0  0  0
 11 36  1  0  0  0  0
 12 13  1  0  0  0  0
 12 37  1  0  0  0  0
 12 38  1  0  0  0  0
 13 14  1  0  0  0  0
 13 39  1  0  0  0  0
 13 40  1  0  0  0  0
 14 15  1  0  0  0  0
 14 41  1  0  0  0  0
 14 42  1  0  0  0  0
 16 17  2  0  0  0  0
 18 19  1  0  0  0  0
 18 43  1  0  0  0  0
 19 32  1  0  0  0  0
 19 20  2  0  0  0  0
 20 21  1  0  0  0  0
 20 44  1  0  0  0  0
 21 22  1  0  0  0  0
 21 26  2  0  0  0  0
 22 23  1  0  0  0  0
 22 24  1  0  0  0  0
 22 25  1  0  0  0  0
 26 27  1  0  0  0  0
 26 45  1  0  0  0  0
 27 28  1  0  0  0  0
 27 32  2  0  0  0  0
 28 29  1  0  0  0  0
 28 30  1  0  0  0  0
 28 31  1  0  0  0  0
 32 46  1  0  0  0  0
M  END
> <s_m_source_file>
AV-unprocessed.smi

> <i_m_source_file_index>
144

> <i_lp_mmshare_version>
43012

> <i_f3d_flags>
0

> <s_epik_input>
RkMoRikoRiljKFtjSF0xKVtjSF1jKEMoRikoRilGKVtjSF1jMVtOSF1DKD1PKVtDSDJdbjJjKD1PKWMoRilbY0hdbihjMj1PKVtDQEBIXTNbQ0gyXVtDSDJdW0NIMl1PMw==

> <s_epik_cmdline>
J2VwaWtfcHl0aG9uJywgJy1waCcsICc3LjAnLCAnLXRuJywgJzgnLCAnLW1hJywgJzIwMCcsICctbWV0YWxfYmluZGluZycsICctaW1hZScsICc8aW5maWxlLm1hZT4nLCAnLW9tYWUnLCAnPG91dGZpbGUubWFlPic=

> <r_lp_tautomer_probability>
1

> <r_epik_Ionization_Penalty>
3.68082e-06

> <r_epik_Ionization_Penalty_Charging>
3.88729e-08

> <r_epik_Ionization_Penalty_Neutral>
3.64194e-06

> <r_epik_State_Penalty>
-0

> <r_epik_Charging_Adjusted_Penalty>
3.88729e-08

> <i_epik_Tot_Q>
0

> <i_epik_Tot_abs_Q>
0

> <r_epik_Metal_State_Penalty>
-0

> <b_epik_Metal_Only>
0

> <s_epik_Chemistry_Notes>
This compound contains an acetal/aminal-like group ( X-CH(R)-Y where X, Y are N, S, or O) that may be acid/base labile, releasing an aldehyde.

> <s_lp_Force_Field>
OPLS_2005

> <r_lp_Energy>
34.4133

> <b_lp_Chiralities_Consistent>
1

> <s_lp_Variant>
AV-unprocessed.smi:144-1

> <Gold.Version>
5.8.1

> <Gold.Id.Protein>
6NUR|6NUR_protein|mol2

> <Gold.PLP.Fitness>
48.1027

> <Gold.PLP.PLP>
-48.6565

> <Gold.PLP.part.hbond>
0.0000

> <Gold.PLP.part.metal>
0.0000

> <Gold.PLP.part.buried>
-6.1369

> <Gold.PLP.part.nonpolar>
-43.0767

> <Gold.PLP.part.repulsive>
0.7930

> <Gold.PLP.ligand.clash>
1.2308

> <Gold.PLP.ligand.torsion>
0.4085

> <Gold.PLP.Chemscore.Hbond>
0.0000

> <Gold.PLP.Chemscore.CHOScore>
0.0000

> <Gold.PLP.Chemscore.Metal>
0.0000

> <Gold.PLP.Chemscore.Internal.Correction>
1.4939

> <Gold.Rescore>
     Score         DG    S(hbond)    S(metal)    S(lipo)     H(rot)  DE(clash)    DE(int)     intcor
      5.60      -9.97       0.00        0.00      78.47       1.83       0.07       4.30       ----

> <Gold.Chemscore.Fitness>
5.6002

> <Gold.Chemscore.DG>
-9.9700

> <Gold.Chemscore.ZeroCoef>
-5.4800

> <Gold.Chemscore.Hbond>
0.0000

> <Gold.Chemscore.Metal>
0.0000

> <Gold.Chemscore.Lipo>
78.4707

> <Gold.Chemscore.Internal_Hbond>
0.0000

> <Gold.Chemscore.DEClash>
0.0705

> <Gold.Chemscore.DEInternal>
4.2993

> <Gold.Chemscore.Rot>
1.8325

> <Gold.Chemscore.Internal.Correction>
   9.000000E+99

> <Gold.Chemscore.Hbond.Weighted>
-0.0000

> <Gold.Chemscore.Metal.Weighted>
-0.0000

> <Gold.Chemscore.Lipo.Weighted>
-9.1811

> <Gold.Chemscore.Internal_Hbond.Weighted>
0.0000

> <Gold.Chemscore.DEClash.Weighted>
0.0705

> <Gold.Chemscore.DEInternal.Weighted>
4.2993

> <Gold.Chemscore.Rot.Weighted>
4.6911

> <Gold.Chemscore.Internal.Correction.Weighted>
   9.000000E+99

> <Gold.Protein.RotatedTorsions>
[ 6907 6896 6895 6894 ] final -132.37 input  -60.11 | X-H torsion
[ 7974 7965 7964 7962 ] final   86.99 input  175.53 | X-H torsion
[ 8008 7997 7996 7995 ] final -165.86 input   59.86 | X-H torsion
[ 10167 10162 10161 10158 ] final   46.36 input  -65.29 | X-H torsion
[ 10718 10713 10712 10709 ] final    2.05 input   66.30 | X-H torsion
[ 10763 10752 10751 10750 ] final   83.29 input  -60.55 | X-H torsion
[ 11005 11000 10999 10996 ] final  137.50 input  -57.11 | X-H torsion

> <Gold.Protein.ActiveResidues>
 VAL166  LYS551  ARG553  GLY616  TRP617  ASP618  TYR619  PRO620  LYS621  CYS622 
 ASP623  PHE694  ASN695  SER759  ASP760  ASP761  ALA762  ILE779  LEU786  VAL792 
 PHE793  MET794  SER795  GLU796  ALA797  LYS798  CYS799  TRP800  GLU811  SER814 

> <Gold.Protein.RotatedAtoms>
  150.9616  133.6439  159.2753 H   0  0  0  0  0  0  0  0  0  0  0  0  # atno 6907 bound_to 6896
  151.3759  135.0930  159.9490 H   0  0  0  0  0  0  0  0  0  0  0  0  # atno 6908 bound_to 6896
  152.5150  133.9161  159.7566 H   0  0  0  0  0  0  0  0  0  0  0  0  # atno 6909 bound_to 6896
  145.5649  139.2307  143.2438 H   0  0  0  0  0  0  0  0  0  0  0  0  # atno 7974 bound_to 7965
  155.8558  140.0970  157.1645 H   0  0  0  0  0  0  0  0  0  0  0  0  # atno 8008 bound_to 7997
  154.3987  140.1374  156.3962 H   0  0  0  0  0  0  0  0  0  0  0  0  # atno 8009 bound_to 7997
  155.7911  140.3455  155.5352 H   0  0  0  0  0  0  0  0  0  0  0  0  # atno 8010 bound_to 7997
  140.3147  144.2777  150.6193 H   0  0  0  0  0  0  0  0  0  0  0  0  # atno 10167 bound_to 10162
  156.8573  130.5574  149.5665 H   0  0  0  0  0  0  0  0  0  0  0  0  # atno 10718 bound_to 10713
  153.1278  135.4697  154.9300 H   0  0  0  0  0  0  0  0  0  0  0  0  # atno 10763 bound_to 10752
  154.7636  135.3138  154.8332 H   0  0  0  0  0  0  0  0  0  0  0  0  # atno 10764 bound_to 10752
  153.8882  135.6887  153.4816 H   0  0  0  0  0  0  0  0  0  0  0  0  # atno 10765 bound_to 10752
  140.0119  134.9435  157.0295 H   0  0  0  0  0  0  0  0  0  0  0  0  # atno 11005 bound_to 11000
  146.1825  140.6475  142.9183 LP  0  0  0  0  0  0  0  0  0  0  0  0  # atno 17320 bound_to 7965
  144.7465  140.5081  143.6832 LP  0  0  0  0  0  0  0  0  0  0  0  0  # atno 17321 bound_to 7965
  140.5537  143.2202  151.7884 LP  0  0  0  0  0  0  0  0  0  0  0  0  # atno 17342 bound_to 10162
  139.4886  144.4443  151.9729 LP  0  0  0  0  0  0  0  0  0  0  0  0  # atno 17343 bound_to 10162
  156.0796  130.5809  150.9538 LP  0  0  0  0  0  0  0  0  0  0  0  0  # atno 17370 bound_to 10713
  157.6270  131.0925  150.8515 LP  0  0  0  0  0  0  0  0  0  0  0  0  # atno 17371 bound_to 10713
  140.4540  134.1553  155.7184 LP  0  0  0  0  0  0  0  0  0  0  0  0  # atno 17394 bound_to 11000
  141.1716  133.8597  157.1551 LP  0  0  0  0  0  0  0  0  0  0  0  0  # atno 17395 bound_to 11000

$$$$
