AV-unprocessed.smi:2978|AV-procd|sdf|11369|dock7
  -GOLD-   2272016283D 1   1.00000     0.00000
 Structure written by MMmdl.
 32 33  0  0  0  0  0  0  0  0  1 V2000
  154.8538  139.9552  159.1341 O   0  0  0  0  0  0  0  0  0  0  0  0
  153.7879  139.3441  159.0445 C   0  0  0  0  0  0  0  0  0  0  0  0
  153.7410  137.8176  159.2067 C   0  0  0  0  0  0  0  0  0  0  0  0
  154.0817  137.3668  160.5642 N   0  0  0  0  0  0  0  0  0  0  0  0
  154.1072  138.3805  161.5060 N   0  0  0  0  0  0  0  0  0  0  0  0
  154.3784  138.0990  162.7336 C   0  0  0  0  0  0  0  0  0  0  0  0
  154.6645  136.7502  163.1698 C   0  0  0  0  0  0  0  0  0  0  0  0
  155.0215  136.4333  164.8311 Cl  0  0  0  0  0  0  0  0  0  0  0  0
  154.6434  135.7646  162.2376 C   0  0  0  0  0  0  0  0  0  0  0  0
  154.9774  134.1262  162.6829 Cl  0  0  0  0  0  0  0  0  0  0  0  0
  154.3387  136.0483  160.8282 C   0  0  0  0  0  0  0  0  0  0  0  0
  154.3123  135.1829  159.9522 O   0  0  0  0  0  0  0  0  0  0  0  0
  152.6163  139.9456  158.7904 N   0  0  0  0  0  0  0  0  0  0  0  0
  152.4302  141.3825  158.6277 C   0  0  0  0  0  0  0  0  0  0  0  0
  152.1528  142.0683  159.9757 C   0  0  1  0  0  0  0  0  0  0  0  0
  153.3024  141.9621  160.9714 C   0  0  0  0  0  0  0  0  0  0  0  0
  152.9921  143.0927  161.9317 C   0  0  0  0  0  0  0  0  0  0  0  0
  152.2659  144.1171  161.0543 C   0  0  0  0  0  0  0  0  0  0  0  0
  152.0180  143.4724  159.8081 O   0  0  0  0  0  0  0  0  0  0  0  0
  152.7502  137.4494  158.9330 H   0  0  0  0  0  0  0  0  0  0  0  0
  154.4267  137.3805  158.4787 H   0  0  0  0  0  0  0  0  0  0  0  0
  154.4071  138.8636  163.5100 H   0  0  0  0  0  0  0  0  0  0  0  0
  151.7888  139.3700  158.7318 H   0  0  0  0  0  0  0  0  0  0  0  0
  153.3115  141.8192  158.1552 H   0  0  0  0  0  0  0  0  0  0  0  0
  151.5977  141.5479  157.9434 H   0  0  0  0  0  0  0  0  0  0  0  0
  151.2409  141.6769  160.4312 H   0  0  0  0  0  0  0  0  0  0  0  0
  153.3535  140.9889  161.4608 H   0  0  0  0  0  0  0  0  0  0  0  0
  154.2561  142.1465  160.4743 H   0  0  0  0  0  0  0  0  0  0  0  0
  152.3256  142.7402  162.7197 H   0  0  0  0  0  0  0  0  0  0  0  0
  153.8876  143.4986  162.4033 H   0  0  0  0  0  0  0  0  0  0  0  0
  151.3257  144.4274  161.5116 H   0  0  0  0  0  0  0  0  0  0  0  0
  152.8715  145.0081  160.8871 H   0  0  0  0  0  0  0  0  0  0  0  0
  1  2  2  0  0  0  0
  2  3  1  0  0  0  0
  2 13  1  0  0  0  0
  3  4  1  0  0  0  0
  3 20  1  0  0  0  0
  3 21  1  0  0  0  0
  4 11  1  0  0  0  0
  4  5  1  0  0  0  0
  5  6  2  0  0  0  0
  6  7  1  0  0  0  0
  6 22  1  0  0  0  0
  7  8  1  0  0  0  0
  7  9  2  0  0  0  0
  9 10  1  0  0  0  0
  9 11  1  0  0  0  0
 11 12  2  0  0  0  0
 13 14  1  0  0  0  0
 13 23  1  0  0  0  0
 14 15  1  0  0  0  0
 14 24  1  0  0  0  0
 14 25  1  0  0  0  0
 15 19  1  0  0  0  0
 15 16  1  0  0  0  0
 15 26  1  0  0  0  0
 16 17  1  0  0  0  0
 16 27  1  0  0  0  0
 16 28  1  0  0  0  0
 17 18  1  0  0  0  0
 17 29  1  0  0  0  0
 17 30  1  0  0  0  0
 18 19  1  0  0  0  0
 18 31  1  0  0  0  0
 18 32  1  0  0  0  0
M  END
> <s_m_source_file>
AV-unprocessed.smi

> <i_m_source_file_index>
2978

> <i_lp_mmshare_version>
43012

> <i_f3d_flags>
0

> <s_epik_input>
TzFbQ0gyXVtDSDJdW0NIMl1bQ0BIXTFbQ0gyXVtOSF1DKD1PKVtDSDJdbjJuW2NIXWMoQ2wpYyhDbCljMj1P

> <s_epik_cmdline>
J2VwaWtfcHl0aG9uJywgJy1waCcsICc3LjAnLCAnLXRuJywgJzgnLCAnLW1hJywgJzIwMCcsICctbWV0YWxfYmluZGluZycsICctaW1hZScsICc8aW5maWxlLm1hZT4nLCAnLW9tYWUnLCAnPG91dGZpbGUubWFlPic=

> <r_lp_tautomer_probability>
1

> <r_epik_Ionization_Penalty>
2.68881e-08

> <r_epik_Ionization_Penalty_Charging>
2.90862e-11

> <r_epik_Ionization_Penalty_Neutral>
2.6859e-08

> <r_epik_State_Penalty>
-0

> <r_epik_Charging_Adjusted_Penalty>
2.90862e-11

> <i_epik_Tot_Q>
0

> <i_epik_Tot_abs_Q>
0

> <r_epik_Metal_State_Penalty>
-0

> <b_epik_Metal_Only>
0

> <s_lp_Force_Field>
OPLS_2005

> <r_lp_Energy>
30.853

> <b_lp_Chiralities_Consistent>
1

> <s_lp_Variant>
AV-unprocessed.smi:2978-2

> <Gold.Version>
5.8.1

> <Gold.Id.Protein>
6NUR|6NUR_protein|mol2

> <Gold.PLP.Fitness>
38.2400

> <Gold.PLP.PLP>
-32.9679

> <Gold.PLP.part.hbond>
-2.0000

> <Gold.PLP.part.metal>
0.0000

> <Gold.PLP.part.buried>
-1.8881

> <Gold.PLP.part.nonpolar>
-28.5605

> <Gold.PLP.part.repulsive>
0.1017

> <Gold.PLP.ligand.clash>
0.0000

> <Gold.PLP.ligand.torsion>
0.3657

> <Gold.PLP.Chemscore.Hbond>
1.9920

> <Gold.PLP.Chemscore.CHOScore>
0.0000

> <Gold.PLP.Chemscore.Metal>
0.0000

> <Gold.Chemscore.Hbonds>
donor molecule, donor type, donor heavy atom, donor atom, acceptor molecule, acceptor atom, score
      P1  H  6896  6907       L1    12  1.00
      P1  H  7997  8010       L1     1  0.93

> <Gold.PLP.Chemscore.Internal.Correction>
0.0275

> <Gold.Rescore>
     Score         DG    S(hbond)    S(metal)    S(lipo)     H(rot)  DE(clash)    DE(int)     intcor
     15.97     -17.56       1.95        0.00      87.65       1.83       0.03       1.57       ----

> <Gold.Chemscore.Fitness>
15.9653

> <Gold.Chemscore.DG>
-17.5610

> <Gold.Chemscore.ZeroCoef>
-5.4800

> <Gold.Chemscore.Hbond>
1.9508

> <Gold.Chemscore.Metal>
0.0000

> <Gold.Chemscore.Lipo>
87.6517

> <Gold.Chemscore.Internal_Hbond>
0.0000

> <Gold.Chemscore.DEClash>
0.0253

> <Gold.Chemscore.DEInternal>
1.5703

> <Gold.Chemscore.Rot>
1.8320

> <Gold.Chemscore.Internal.Correction>
   9.000000E+99

> <Gold.Chemscore.Hbonds>
donor molecule, donor type, donor heavy atom, donor atom, acceptor molecule, acceptor atom, score
      P1  H  6896  6907       L1    12  0.55
      P1  H  7997  8010       L1     1  0.31

> <Gold.Chemscore.Hbond.Weighted>
-6.5157

> <Gold.Chemscore.Metal.Weighted>
-0.0000

> <Gold.Chemscore.Lipo.Weighted>
-10.2552

> <Gold.Chemscore.Internal_Hbond.Weighted>
0.0000

> <Gold.Chemscore.DEClash.Weighted>
0.0253

> <Gold.Chemscore.DEInternal.Weighted>
1.5703

> <Gold.Chemscore.Rot.Weighted>
4.6900

> <Gold.Chemscore.Internal.Correction.Weighted>
   9.000000E+99

> <Gold.Protein.RotatedTorsions>
[ 6907 6896 6895 6894 ] final   72.03 input  -60.11 | X-H torsion
[ 7974 7965 7964 7962 ] final   93.15 input  175.53 | X-H torsion
[ 8008 7997 7996 7995 ] final  -18.30 input   59.86 | X-H torsion
[ 10167 10162 10161 10158 ] final   56.91 input  -65.29 | X-H torsion
[ 10718 10713 10712 10709 ] final   21.12 input   66.30 | X-H torsion
[ 10763 10752 10751 10750 ] final  -94.47 input  -60.55 | X-H torsion
[ 11005 11000 10999 10996 ] final  -79.58 input  -57.11 | X-H torsion

> <Gold.Protein.ActiveResidues>
 VAL166  LYS551  ARG553  GLY616  TRP617  ASP618  TYR619  PRO620  LYS621  CYS622 
 ASP623  PHE694  ASN695  SER759  ASP760  ASP761  ALA762  ILE779  LEU786  VAL792 
 PHE793  MET794  SER795  GLU796  ALA797  LYS798  CYS799  TRP800  GLU811  SER814 

> <Gold.Protein.RotatedAtoms>
  152.4845  134.4631  159.9611 H   0  0  0  0  0  0  0  0  0  0  0  0  # atno 6907 bound_to 6896
  151.4630  133.3582  159.2820 H   0  0  0  0  0  0  0  0  0  0  0  0  # atno 6908 bound_to 6896
  150.8943  134.8375  159.7376 H   0  0  0  0  0  0  0  0  0  0  0  0  # atno 6909 bound_to 6896
  145.4827  139.2278  143.2873 H   0  0  0  0  0  0  0  0  0  0  0  0  # atno 7974 bound_to 7965
  154.4916  140.2119  155.9536 H   0  0  0  0  0  0  0  0  0  0  0  0  # atno 8008 bound_to 7997
  156.1313  140.3196  155.8322 H   0  0  0  0  0  0  0  0  0  0  0  0  # atno 8009 bound_to 7997
  155.4291  140.0502  157.3010 H   0  0  0  0  0  0  0  0  0  0  0  0  # atno 8010 bound_to 7997
  140.2036  144.3962  150.6518 H   0  0  0  0  0  0  0  0  0  0  0  0  # atno 10167 bound_to 10162
  157.1340  130.6603  149.5960 H   0  0  0  0  0  0  0  0  0  0  0  0  # atno 10718 bound_to 10713
  154.7058  135.5156  153.8593 H   0  0  0  0  0  0  0  0  0  0  0  0  # atno 10763 bound_to 10752
  153.0740  135.6610  154.0194 H   0  0  0  0  0  0  0  0  0  0  0  0  # atno 10764 bound_to 10752
  154.0045  135.3008  155.3378 H   0  0  0  0  0  0  0  0  0  0  0  0  # atno 10765 bound_to 10752
  141.1667  133.7112  156.8144 H   0  0  0  0  0  0  0  0  0  0  0  0  # atno 11005 bound_to 11000
  146.2331  140.5615  142.8966 LP  0  0  0  0  0  0  0  0  0  0  0  0  # atno 17320 bound_to 7965
  144.7879  140.5974  143.6561 LP  0  0  0  0  0  0  0  0  0  0  0  0  # atno 17321 bound_to 7965
  140.6373  143.2197  151.6367 LP  0  0  0  0  0  0  0  0  0  0  0  0  # atno 17342 bound_to 10162
  139.5207  144.3214  152.0907 LP  0  0  0  0  0  0  0  0  0  0  0  0  # atno 17343 bound_to 10162
  155.9802  130.4801  150.6759 LP  0  0  0  0  0  0  0  0  0  0  0  0  # atno 17370 bound_to 10713
  157.4367  131.0856  151.0984 LP  0  0  0  0  0  0  0  0  0  0  0  0  # atno 17371 bound_to 10713
  140.2164  134.8789  157.3330 LP  0  0  0  0  0  0  0  0  0  0  0  0  # atno 17394 bound_to 11000
  140.2033  134.4228  155.7651 LP  0  0  0  0  0  0  0  0  0  0  0  0  # atno 17395 bound_to 11000

$$$$
