AV-unprocessed.smi:1754|AV-procd|sdf|7069|dock6
  -GOLD-   22720 8283D 1   1.00000     0.00000
 Structure written by MMmdl.
 44 45  0  0  0  0  0  0  0  0  3 V2000
  150.7904  142.2920  156.8836 C   0  0  0  0  0  0  0  0  0  0  0  0
  150.6039  142.4211  158.4008 C   0  0  0  0  0  0  0  0  0  0  0  0
  151.6544  143.2261  159.0181 N   0  0  0  0  0  0  0  0  0  0  0  0
  151.8447  144.6056  158.5731 C   0  0  0  0  0  0  0  0  0  0  0  0
  151.5053  145.6217  159.6718 C   0  0  0  0  0  0  0  0  0  0  0  0
  152.5103  142.6635  159.9932 C   0  0  0  0  0  0  0  0  0  0  0  0
  152.5632  143.1121  161.3363 C   0  0  0  0  0  0  0  0  0  0  0  0
  153.4417  142.4946  162.2498 C   0  0  0  0  0  0  0  0  0  0  0  0
  154.2724  141.4400  161.8208 C   0  0  0  0  0  0  0  0  0  0  0  0
  155.1221  140.8313  162.7830 N   0  0  0  0  0  0  0  0  0  0  0  0
  155.6181  139.5698  162.8184 C   0  0  0  0  0  0  0  0  0  0  0  0
  155.3922  138.8133  161.8755 O   0  0  0  0  0  0  0  0  0  0  0  0
  156.3801  139.1698  163.8814 N   0  5  0  0  0  0  0  0  0  0  0  0
  156.0489  138.2273  164.9647 C   0  0  1  0  0  0  0  0  0  0  0  0
  154.5383  137.9088  164.9183 C   0  0  0  0  0  0  0  0  0  0  0  0
  154.2671  136.8595  163.8316 C   0  0  0  0  0  0  0  0  0  0  0  0
  155.7321  135.7628  163.8427 S   0  0  0  0  0  0  0  0  0  0  0  0
  155.4516  134.5902  164.6858 O   0  0  0  0  0  0  0  0  0  0  0  0
  156.2275  135.5977  162.4673 O   0  0  0  0  0  0  0  0  0  0  0  0
  156.8265  136.9096  164.7725 C   0  0  0  0  0  0  0  0  0  0  0  0
  154.1763  141.0185  160.4745 C   0  0  0  0  0  0  0  0  0  0  0  0
  153.3206  141.6379  159.6337 N   0  3  0  0  0  0  0  0  0  0  0  0
  150.0029  141.6758  156.4495 H   0  0  0  0  0  0  0  0  0  0  0  0
  151.7460  141.8263  156.6406 H   0  0  0  0  0  0  0  0  0  0  0  0
  150.7583  143.2651  156.3930 H   0  0  0  0  0  0  0  0  0  0  0  0
  149.6182  142.8214  158.6366 H   0  0  0  0  0  0  0  0  0  0  0  0
  150.6253  141.4255  158.8450 H   0  0  0  0  0  0  0  0  0  0  0  0
  152.8871  144.7334  158.2792 H   0  0  0  0  0  0  0  0  0  0  0  0
  151.2610  144.8063  157.6744 H   0  0  0  0  0  0  0  0  0  0  0  0
  151.6707  146.6399  159.3193 H   0  0  0  0  0  0  0  0  0  0  0  0
  152.1261  145.4726  160.5556 H   0  0  0  0  0  0  0  0  0  0  0  0
  150.4618  145.5429  159.9781 H   0  0  0  0  0  0  0  0  0  0  0  0
  151.9480  143.9271  161.6852 H   0  0  0  0  0  0  0  0  0  0  0  0
  153.4794  142.8357  163.2741 H   0  0  0  0  0  0  0  0  0  0  0  0
  155.4292  141.4336  163.5327 H   0  0  0  0  0  0  0  0  0  0  0  0
  156.2905  138.6489  165.9416 H   0  0  0  0  0  0  0  0  0  0  0  0
  154.2482  137.4860  165.8807 H   0  0  0  0  0  0  0  0  0  0  0  0
  153.9289  138.8025  164.7783 H   0  0  0  0  0  0  0  0  0  0  0  0
  153.3604  136.2819  164.0100 H   0  0  0  0  0  0  0  0  0  0  0  0
  154.1958  137.3236  162.8464 H   0  0  0  0  0  0  0  0  0  0  0  0
  157.7736  137.0309  164.2457 H   0  0  0  0  0  0  0  0  0  0  0  0
  157.0359  136.4502  165.7384 H   0  0  0  0  0  0  0  0  0  0  0  0
  154.7345  140.2041  160.0375 H   0  0  0  0  0  0  0  0  0  0  0  0
  153.2784  141.3072  158.6697 H   0  0  0  0  0  0  0  0  0  0  0  0
  1  2  1  0  0  0  0
  1 23  1  0  0  0  0
  1 24  1  0  0  0  0
  1 25  1  0  0  0  0
  2  3  1  0  0  0  0
  2 26  1  0  0  0  0
  2 27  1  0  0  0  0
  3  4  1  0  0  0  0
  3  6  1  0  0  0  0
  4  5  1  0  0  0  0
  4 28  1  0  0  0  0
  4 29  1  0  0  0  0
  5 30  1  0  0  0  0
  5 31  1  0  0  0  0
  5 32  1  0  0  0  0
  6 22  1  0  0  0  0
  6  7  2  0  0  0  0
  7  8  1  0  0  0  0
  7 33  1  0  0  0  0
  8  9  2  0  0  0  0
  8 34  1  0  0  0  0
  9 10  1  0  0  0  0
  9 21  1  0  0  0  0
 10 11  1  0  0  0  0
 10 35  1  0  0  0  0
 11 12  2  0  0  0  0
 11 13  1  0  0  0  0
 13 14  1  0  0  0  0
 14 20  1  0  0  0  0
 14 15  1  0  0  0  0
 14 36  1  0  0  0  0
 15 16  1  0  0  0  0
 15 37  1  0  0  0  0
 15 38  1  0  0  0  0
 16 17  1  0  0  0  0
 16 39  1  0  0  0  0
 16 40  1  0  0  0  0
 17 18  2  0  0  0  0
 17 19  2  0  0  0  0
 17 20  1  0  0  0  0
 20 41  1  0  0  0  0
 20 42  1  0  0  0  0
 21 22  2  0  0  0  0
 21 43  1  0  0  0  0
 22 44  1  0  0  0  0
M  CHG  1  13  -1
M  CHG  1  22   1
M  END
> <s_m_source_file>
AV-unprocessed.smi

> <i_m_source_file_index>
1754

> <i_lp_mmshare_version>
43012

> <i_f3d_flags>
0

> <s_epik_input>
W0NIM11bQ0gyXU4oW0NIMl1bQ0gzXSljMVtjSF1bY0hdYyhbY0hdbjEpW05IXUMoPU8pW05IXVtDQEBIXShbQ0gyXTIpW0NIMl1bQ0gyXVMyKD1PKT1P

> <s_epik_cmdline>
J2VwaWtfcHl0aG9uJywgJy1waCcsICc3LjAnLCAnLXRuJywgJzgnLCAnLW1hJywgJzIwMCcsICctbWV0YWxfYmluZGluZycsICctaW1hZScsICc8aW5maWxlLm1hZT4nLCAnLW9tYWUnLCAnPG91dGZpbGUubWFlPic=

> <r_lp_tautomer_probability>
0.999994

> <r_epik_Ionization_Penalty>
7.1175

> <r_epik_Ionization_Penalty_Charging>
7.11749

> <r_epik_Ionization_Penalty_Neutral>
3.13064e-06

> <r_epik_State_Penalty>
6.65299

> <r_epik_Charging_Adjusted_Penalty>
13.7705

> <i_epik_Tot_Q>
0

> <i_epik_Tot_abs_Q>
2

> <r_epik_Metal_State_Penalty>
2.60496

> <b_epik_Metal_Only>
1

> <s_lp_Force_Field>
OPLS_2005

> <r_lp_Energy>
22.4709

> <b_lp_Chiralities_Consistent>
1

> <s_lp_Variant>
AV-unprocessed.smi:1754-6

> <Gold.Version>
5.8.1

> <Gold.Id.Protein>
6NUR|6NUR_protein|mol2

> <Gold.PLP.Fitness>
44.9920

> <Gold.PLP.PLP>
-49.2496

> <Gold.PLP.part.hbond>
-0.2168

> <Gold.PLP.part.metal>
0.0000

> <Gold.PLP.part.buried>
-5.6707

> <Gold.PLP.part.nonpolar>
-42.9208

> <Gold.PLP.part.repulsive>
0.1161

> <Gold.PLP.ligand.clash>
0.0000

> <Gold.PLP.ligand.torsion>
2.2342

> <Gold.PLP.Chemscore.Hbond>
0.0000

> <Gold.PLP.Chemscore.CHOScore>
0.0000

> <Gold.PLP.Chemscore.Metal>
0.0000

> <Gold.PLP.Chemscore.Internal.Correction>
0.2107

> <Gold.Rescore>
     Score         DG    S(hbond)    S(metal)    S(lipo)     H(rot)  DE(clash)    DE(int)     intcor
     11.03     -14.81       0.00        0.00     110.12       1.39       0.03       3.75       ----

> <Gold.Chemscore.Fitness>
11.0295

> <Gold.Chemscore.DG>
-14.8115

> <Gold.Chemscore.ZeroCoef>
-5.4800

> <Gold.Chemscore.Hbond>
0.0000

> <Gold.Chemscore.Metal>
0.0000

> <Gold.Chemscore.Lipo>
110.1186

> <Gold.Chemscore.Internal_Hbond>
0.0000

> <Gold.Chemscore.DEClash>
0.0322

> <Gold.Chemscore.DEInternal>
3.7497

> <Gold.Chemscore.Rot>
1.3876

> <Gold.Chemscore.Internal.Correction>
   9.000000E+99

> <Gold.Chemscore.Hbond.Weighted>
-0.0000

> <Gold.Chemscore.Metal.Weighted>
-0.0000

> <Gold.Chemscore.Lipo.Weighted>
-12.8839

> <Gold.Chemscore.Internal_Hbond.Weighted>
0.0000

> <Gold.Chemscore.DEClash.Weighted>
0.0322

> <Gold.Chemscore.DEInternal.Weighted>
3.7497

> <Gold.Chemscore.Rot.Weighted>
3.5524

> <Gold.Chemscore.Internal.Correction.Weighted>
   9.000000E+99

> <Gold.Protein.RotatedTorsions>
[ 6907 6896 6895 6894 ] final -166.35 input  -60.11 | X-H torsion
[ 7974 7965 7964 7962 ] final   10.90 input  175.53 | X-H torsion
[ 8008 7997 7996 7995 ] final -139.81 input   59.86 | X-H torsion
[ 10167 10162 10161 10158 ] final  152.69 input  -65.29 | X-H torsion
[ 10718 10713 10712 10709 ] final  141.09 input   66.30 | X-H torsion
[ 10763 10752 10751 10750 ] final   53.00 input  -60.55 | X-H torsion
[ 11005 11000 10999 10996 ] final  160.42 input  -57.11 | X-H torsion

> <Gold.Protein.ActiveResidues>
 VAL166  LYS551  ARG553  GLY616  TRP617  ASP618  TYR619  PRO620  LYS621  CYS622 
 ASP623  PHE694  ASN695  SER759  ASP760  ASP761  ALA762  ILE779  LEU786  VAL792 
 PHE793  MET794  SER795  GLU796  ALA797  LYS798  CYS799  TRP800  GLU811  SER814 

> <Gold.Protein.RotatedAtoms>
  151.4421  133.3640  159.2783 H   0  0  0  0  0  0  0  0  0  0  0  0  # atno 6907 bound_to 6896
  150.9150  134.8569  159.7461 H   0  0  0  0  0  0  0  0  0  0  0  0  # atno 6908 bound_to 6896
  152.4952  134.4354  159.9578 H   0  0  0  0  0  0  0  0  0  0  0  0  # atno 6909 bound_to 6896
  146.2380  139.9565  142.8464 H   0  0  0  0  0  0  0  0  0  0  0  0  # atno 7974 bound_to 7965
  155.4510  140.0538  157.3001 H   0  0  0  0  0  0  0  0  0  0  0  0  # atno 8008 bound_to 7997
  154.4777  140.2068  155.9793 H   0  0  0  0  0  0  0  0  0  0  0  0  # atno 8009 bound_to 7997
  156.1158  140.3196  155.8142 H   0  0  0  0  0  0  0  0  0  0  0  0  # atno 8010 bound_to 7997
  139.4831  144.5336  151.7682 H   0  0  0  0  0  0  0  0  0  0  0  0  # atno 10167 bound_to 10162
  157.3959  131.1010  151.0600 H   0  0  0  0  0  0  0  0  0  0  0  0  # atno 10718 bound_to 10713
  152.9792  135.5793  154.4670 H   0  0  0  0  0  0  0  0  0  0  0  0  # atno 10763 bound_to 10752
  154.4238  135.2772  155.1960 H   0  0  0  0  0  0  0  0  0  0  0  0  # atno 10764 bound_to 10752
  154.3698  135.6170  153.5788 H   0  0  0  0  0  0  0  0  0  0  0  0  # atno 10765 bound_to 10752
  140.2057  134.8304  157.3067 H   0  0  0  0  0  0  0  0  0  0  0  0  # atno 11005 bound_to 11000
  145.1812  140.9768  143.4265 LP  0  0  0  0  0  0  0  0  0  0  0  0  # atno 17320 bound_to 7965
  144.9941  139.3661  143.6200 LP  0  0  0  0  0  0  0  0  0  0  0  0  # atno 17321 bound_to 7965
  140.4866  144.1372  150.5942 LP  0  0  0  0  0  0  0  0  0  0  0  0  # atno 17342 bound_to 10162
  140.4218  143.2608  151.9705 LP  0  0  0  0  0  0  0  0  0  0  0  0  # atno 17343 bound_to 10162
  157.1617  130.6228  149.5613 LP  0  0  0  0  0  0  0  0  0  0  0  0  # atno 17370 bound_to 10713
  155.9810  130.4815  150.6804 LP  0  0  0  0  0  0  0  0  0  0  0  0  # atno 17371 bound_to 10713
  140.2005  134.4261  155.7665 LP  0  0  0  0  0  0  0  0  0  0  0  0  # atno 17394 bound_to 11000
  141.2227  133.7070  156.8175 LP  0  0  0  0  0  0  0  0  0  0  0  0  # atno 17395 bound_to 11000

$$$$
