AV-unprocessed.smi:3351|AV-procd|sdf|12949|dock7
  -GOLD-   2272019383D 1   1.00000     0.00000
 Structure written by MMmdl.
 34 35  0  0  0  0  0  0  0  0  1 V2000
  151.3853  135.4405  157.6007 C   0  0  0  0  0  0  0  0  0  0  0  0
  150.1585  135.6563  156.7043 C   0  0  2  0  0  0  0  0  0  0  0  0
  149.9763  137.1496  156.3518 C   0  0  0  0  0  0  0  0  0  0  0  0
  151.2137  137.7910  155.9414 N   0  0  0  0  0  0  0  0  0  0  0  0
  152.2512  137.2204  155.2155 C   0  0  0  0  0  0  0  0  0  0  0  0
  153.2194  138.1894  155.0831 C   0  0  0  0  0  0  0  0  0  0  0  0
  152.7950  139.3630  155.7015 N   0  0  0  0  0  0  0  0  0  0  0  0
  151.5972  139.0528  156.1809 C   0  0  0  0  0  0  0  0  0  0  0  0
  148.9735  135.1337  157.3838 N   0  0  0  0  0  0  0  0  0  0  0  0
  148.5521  135.4997  158.6048 C   0  0  0  0  0  0  0  0  0  0  0  0
  149.0871  136.3859  159.2714 O   0  0  0  0  0  0  0  0  0  0  0  0
  147.3439  134.7485  159.1668 C   0  0  0  0  0  0  0  0  0  0  0  0
  146.9966  135.2568  160.4927 N   0  0  0  0  0  0  0  0  0  0  0  0
  146.9688  134.3453  161.6291 C   0  0  0  0  0  0  0  0  0  0  0  0
  146.1217  134.9993  162.7220 C   0  0  0  0  0  0  0  0  0  0  0  0
  146.1866  136.7828  162.4611 S   0  0  0  0  0  0  0  0  0  0  0  0
  146.6856  136.5856  160.7477 C   0  0  0  0  0  0  0  0  0  0  0  0
  146.7131  137.5279  159.9580 O   0  0  0  0  0  0  0  0  0  0  0  0
  152.2939  135.7938  157.1125 H   0  0  0  0  0  0  0  0  0  0  0  0
  151.5251  134.3830  157.8281 H   0  0  0  0  0  0  0  0  0  0  0  0
  151.2870  135.9751  158.5462 H   0  0  0  0  0  0  0  0  0  0  0  0
  150.3327  135.0977  155.7829 H   0  0  0  0  0  0  0  0  0  0  0  0
  149.2412  137.2658  155.5539 H   0  0  0  0  0  0  0  0  0  0  0  0
  149.5891  137.6935  157.2142 H   0  0  0  0  0  0  0  0  0  0  0  0
  152.2225  136.1962  154.8739 H   0  0  0  0  0  0  0  0  0  0  0  0
  154.1807  138.1323  154.5941 H   0  0  0  0  0  0  0  0  0  0  0  0
  150.9899  139.7558  156.7318 H   0  0  0  0  0  0  0  0  0  0  0  0
  148.4665  134.3993  156.9111 H   0  0  0  0  0  0  0  0  0  0  0  0
  146.4999  134.8785  158.4883 H   0  0  0  0  0  0  0  0  0  0  0  0
  147.5421  133.6759  159.2115 H   0  0  0  0  0  0  0  0  0  0  0  0
  146.5703  133.3683  161.3532 H   0  0  0  0  0  0  0  0  0  0  0  0
  147.9917  134.1993  161.9779 H   0  0  0  0  0  0  0  0  0  0  0  0
  145.0819  134.6854  162.6233 H   0  0  0  0  0  0  0  0  0  0  0  0
  146.4582  134.7317  163.7238 H   0  0  0  0  0  0  0  0  0  0  0  0
  1  2  1  0  0  0  0
  1 19  1  0  0  0  0
  1 20  1  0  0  0  0
  1 21  1  0  0  0  0
  2  3  1  0  0  0  0
  2  9  1  0  0  0  0
  2 22  1  0  0  0  0
  3  4  1  0  0  0  0
  3 23  1  0  0  0  0
  3 24  1  0  0  0  0
  4  8  1  0  0  0  0
  4  5  1  0  0  0  0
  5  6  2  0  0  0  0
  5 25  1  0  0  0  0
  6  7  1  0  0  0  0
  6 26  1  0  0  0  0
  7  8  2  0  0  0  0
  8 27  1  0  0  0  0
  9 10  1  0  0  0  0
  9 28  1  0  0  0  0
 10 11  2  0  0  0  0
 10 12  1  0  0  0  0
 12 13  1  0  0  0  0
 12 29  1  0  0  0  0
 12 30  1  0  0  0  0
 13 17  1  0  0  0  0
 13 14  1  0  0  0  0
 14 15  1  0  0  0  0
 14 31  1  0  0  0  0
 14 32  1  0  0  0  0
 15 16  1  0  0  0  0
 15 33  1  0  0  0  0
 15 34  1  0  0  0  0
 16 17  1  0  0  0  0
 17 18  2  0  0  0  0
M  END
> <s_m_source_file>
AV-unprocessed.smi

> <i_m_source_file_index>
3351

> <i_lp_mmshare_version>
43012

> <i_f3d_flags>
0

> <s_epik_input>
W2NIXTFuW2NIXVtjSF1uMVtDSDJdW0NAQEhdKFtDSDNdKVtOSF1DKD1PKVtDSDJdTjJbQ0gyXVtDSDJdU0MyPU8=

> <s_epik_cmdline>
J2VwaWtfcHl0aG9uJywgJy1waCcsICc3LjAnLCAnLXRuJywgJzgnLCAnLW1hJywgJzIwMCcsICctbWV0YWxfYmluZGluZycsICctaW1hZScsICc8aW5maWxlLm1hZT4nLCAnLW9tYWUnLCAnPG91dGZpbGUubWFlPic=

> <r_lp_tautomer_probability>
1

> <r_epik_Ionization_Penalty>
0.618163

> <r_epik_Ionization_Penalty_Charging>
0.618163

> <r_epik_Ionization_Penalty_Neutral>
6.6929e-08

> <r_epik_State_Penalty>
0.633954

> <r_epik_Charging_Adjusted_Penalty>
1.25212

> <i_epik_Tot_Q>
0

> <i_epik_Tot_abs_Q>
0

> <r_epik_Metal_State_Penalty>
0.305924

> <b_epik_Metal_Only>
0

> <s_lp_Force_Field>
OPLS_2005

> <r_lp_Energy>
3.88922

> <b_lp_Chiralities_Consistent>
1

> <s_lp_Variant>
AV-unprocessed.smi:3351-3

> <Gold.Version>
5.8.1

> <Gold.Id.Protein>
6NUR|6NUR_protein|mol2

> <Gold.PLP.Fitness>
44.9152

> <Gold.PLP.PLP>
-32.1055

> <Gold.PLP.part.hbond>
-4.0000

> <Gold.PLP.part.metal>
0.0000

> <Gold.PLP.part.buried>
-5.1904

> <Gold.PLP.part.nonpolar>
-22.8630

> <Gold.PLP.part.repulsive>
0.0198

> <Gold.PLP.ligand.clash>
0.0000

> <Gold.PLP.ligand.torsion>
0.4736

> <Gold.PLP.Chemscore.Hbond>
3.6600

> <Gold.PLP.Chemscore.CHOScore>
0.9149

> <Gold.PLP.Chemscore.Metal>
0.0000

> <Gold.Chemscore.Hbonds>
donor molecule, donor type, donor heavy atom, donor atom, acceptor molecule, acceptor atom, score
      P1  H  6934  6947       L1    18  1.00
      P1  H  7997  8010       L1     7  0.78

> <Gold.PLP.Chemscore.Internal.Correction>
0.0321

> <Gold.Rescore>
     Score         DG    S(hbond)    S(metal)    S(lipo)     H(rot)  DE(clash)    DE(int)     intcor
     13.48     -15.38       2.81        0.00      55.35       2.33       0.22       1.68       ----

> <Gold.Chemscore.Fitness>
13.4801

> <Gold.Chemscore.DG>
-15.3783

> <Gold.Chemscore.ZeroCoef>
-5.4800

> <Gold.Chemscore.Hbond>
2.8120

> <Gold.Chemscore.Metal>
0.0000

> <Gold.Chemscore.Lipo>
55.3458

> <Gold.Chemscore.Internal_Hbond>
0.0000

> <Gold.Chemscore.DEClash>
0.2213

> <Gold.Chemscore.DEInternal>
1.6769

> <Gold.Chemscore.Rot>
2.3317

> <Gold.Chemscore.Internal.Correction>
   9.000000E+99

> <Gold.Chemscore.Hbonds>
donor molecule, donor type, donor heavy atom, donor atom, acceptor molecule, acceptor atom, score
      P1  H  6934  6947       L1    18  0.65
      P1  H  7997  8010       L1     7  0.13

> <Gold.Chemscore.Hbond.Weighted>
-9.3921

> <Gold.Chemscore.Metal.Weighted>
-0.0000

> <Gold.Chemscore.Lipo.Weighted>
-6.4755

> <Gold.Chemscore.Internal_Hbond.Weighted>
0.0000

> <Gold.Chemscore.DEClash.Weighted>
0.2213

> <Gold.Chemscore.DEInternal.Weighted>
1.6769

> <Gold.Chemscore.Rot.Weighted>
5.9692

> <Gold.Chemscore.Internal.Correction.Weighted>
   9.000000E+99

> <Gold.Protein.RotatedTorsions>
[ 6907 6896 6895 6894 ] final  -72.88 input  -60.11 | X-H torsion
[ 7974 7965 7964 7962 ] final   26.92 input  175.53 | X-H torsion
[ 8008 7997 7996 7995 ] final  112.35 input   59.86 | X-H torsion
[ 10167 10162 10161 10158 ] final  -74.26 input  -65.29 | X-H torsion
[ 10718 10713 10712 10709 ] final  -44.43 input   66.30 | X-H torsion
[ 10763 10752 10751 10750 ] final -131.64 input  -60.55 | X-H torsion
[ 11005 11000 10999 10996 ] final  166.68 input  -57.11 | X-H torsion

> <Gold.Protein.ActiveResidues>
 VAL166  LYS551  ARG553  GLY616  TRP617  ASP618  TYR619  PRO620  LYS621  CYS622 
 ASP623  PHE694  ASN695  SER759  ASP760  ASP761  ALA762  ILE779  LEU786  VAL792 
 PHE793  MET794  SER795  GLU796  ALA797  LYS798  CYS799  TRP800  GLU811  SER814 

> <Gold.Protein.RotatedAtoms>
  150.7152  134.5098  159.5601 H   0  0  0  0  0  0  0  0  0  0  0  0  # atno 6907 bound_to 6896
  152.2677  134.7964  160.0429 H   0  0  0  0  0  0  0  0  0  0  0  0  # atno 6908 bound_to 6896
  151.8655  133.3430  159.3754 H   0  0  0  0  0  0  0  0  0  0  0  0  # atno 6909 bound_to 6896
  146.1812  139.7262  142.8899 H   0  0  0  0  0  0  0  0  0  0  0  0  # atno 7974 bound_to 7965
  156.2186  140.3001  155.9898 H   0  0  0  0  0  0  0  0  0  0  0  0  # atno 8008 bound_to 7997
  155.2541  140.0427  157.3007 H   0  0  0  0  0  0  0  0  0  0  0  0  # atno 8009 bound_to 7997
  154.5805  140.2374  155.8068 H   0  0  0  0  0  0  0  0  0  0  0  0  # atno 8010 bound_to 7997
  140.5042  143.2356  151.7702 H   0  0  0  0  0  0  0  0  0  0  0  0  # atno 10167 bound_to 10162
  156.2387  130.4178  149.8787 H   0  0  0  0  0  0  0  0  0  0  0  0  # atno 10718 bound_to 10713
  154.8749  135.3823  154.4280 H   0  0  0  0  0  0  0  0  0  0  0  0  # atno 10763 bound_to 10752
  153.4977  135.7030  153.5854 H   0  0  0  0  0  0  0  0  0  0  0  0  # atno 10764 bound_to 10752
  153.4200  135.3904  155.2072 H   0  0  0  0  0  0  0  0  0  0  0  0  # atno 10765 bound_to 10752
  140.2689  134.7842  157.3657 H   0  0  0  0  0  0  0  0  0  0  0  0  # atno 11005 bound_to 11000
  145.4071  141.0392  143.3038 LP  0  0  0  0  0  0  0  0  0  0  0  0  # atno 17320 bound_to 7965
  144.8318  139.5616  143.6940 LP  0  0  0  0  0  0  0  0  0  0  0  0  # atno 17321 bound_to 7965
  139.4879  144.4480  151.9687 LP  0  0  0  0  0  0  0  0  0  0  0  0  # atno 17342 bound_to 10162
  140.3570  144.3019  150.5939 LP  0  0  0  0  0  0  0  0  0  0  0  0  # atno 17343 bound_to 10162
  156.6376  130.8691  151.3507 LP  0  0  0  0  0  0  0  0  0  0  0  0  # atno 17370 bound_to 10713
  157.7166  130.9504  150.1277 LP  0  0  0  0  0  0  0  0  0  0  0  0  # atno 17371 bound_to 10713
  140.1392  134.4994  155.8044 LP  0  0  0  0  0  0  0  0  0  0  0  0  # atno 17394 bound_to 11000
  141.2180  133.6819  156.7180 LP  0  0  0  0  0  0  0  0  0  0  0  0  # atno 17395 bound_to 11000

$$$$
