AV-unprocessed.smi:66|AV-procd|sdf|625|dock2
  -GOLD-   2262016513D 1   1.00000     0.00000
 Structure written by MMmdl.
 27 29  0  0  0  0  0  0  0  0  3 V2000
  153.3793  138.8901  155.5943 O   0  0  0  0  0  0  0  0  0  0  0  0
  152.4488  138.1273  155.9350 C   0  0  0  0  0  0  0  0  0  0  0  0
  152.5073  136.8771  155.9446 O   0  5  0  0  0  0  0  0  0  0  0  0
  151.1403  138.7924  156.3938 C   0  0  2  0  0  0  0  0  0  0  0  0
  149.9981  138.5905  155.3834 C   0  0  0  0  0  0  0  0  0  0  0  0
  150.0185  139.8739  154.5548 C   0  0  1  0  0  0  0  0  0  0  0  0
  148.7716  140.1463  153.9499 O   0  0  0  0  0  0  0  0  0  0  0  0
  150.4252  140.9376  155.5756 C   0  0  0  0  0  0  0  0  0  0  0  0
  151.2899  140.2450  156.5223 N   0  0  0  0  0  0  0  0  0  0  0  0
  151.7666  140.8461  157.7130 C   0  0  0  0  0  0  0  0  0  0  0  0
  152.7597  140.2014  158.3788 N   0  0  0  0  0  0  0  0  0  0  0  0
  153.2300  140.7484  159.5038 C   0  0  0  0  0  0  0  0  0  0  0  0
  152.8265  141.8867  160.0724 N   0  0  0  0  0  0  0  0  0  0  0  0
  151.8417  142.5449  159.4291 C   0  0  0  0  0  0  0  0  0  0  0  0
  151.2159  143.6786  159.7012 N   0  5  0  0  0  0  0  0  0  0  0  0
  150.3058  143.8829  158.7166 C   0  0  0  0  0  0  0  0  0  0  0  0
  150.2996  142.9119  157.7816 N   0  0  0  0  0  0  0  0  0  0  0  0
  151.2737  142.0714  158.2443 C   0  0  0  0  0  0  0  0  0  0  0  0
  150.8421  138.3530  157.3467 H   0  0  0  0  0  0  0  0  0  0  0  0
  150.1035  137.6933  154.7717 H   0  0  0  0  0  0  0  0  0  0  0  0
  149.0544  138.5091  155.9248 H   0  0  0  0  0  0  0  0  0  0  0  0
  150.7827  139.7977  153.7803 H   0  0  0  0  0  0  0  0  0  0  0  0
  148.9104  140.2548  153.0219 H   0  0  0  0  0  0  0  0  0  0  0  0
  150.9385  141.7636  155.0832 H   0  0  0  0  0  0  0  0  0  0  0  0
  149.5548  141.3284  156.1054 H   0  0  0  0  0  0  0  0  0  0  0  0
  154.0187  140.2103  160.0083 H   0  0  0  0  0  0  0  0  0  0  0  0
  149.6755  144.7632  158.7399 H   0  0  0  0  0  0  0  0  0  0  0  0
  1  2  2  0  0  0  0
  2  3  1  0  0  0  0
  2  4  1  0  0  0  0
  4  5  1  0  0  0  0
  4 19  1  0  0  0  0
  4  9  1  0  0  0  0
  5  6  1  0  0  0  0
  5 20  1  0  0  0  0
  5 21  1  0  0  0  0
  6  7  1  0  0  0  0
  6  8  1  0  0  0  0
  6 22  1  0  0  0  0
  7 23  1  0  0  0  0
  8 24  1  0  0  0  0
  8 25  1  0  0  0  0
  8  9  1  0  0  0  0
  9 10  1  0  0  0  0
 10 11  1  0  0  0  0
 10 18  2  0  0  0  0
 11 12  2  0  0  0  0
 12 26  1  0  0  0  0
 12 13  1  0  0  0  0
 13 14  2  0  0  0  0
 14 15  1  0  0  0  0
 14 18  1  0  0  0  0
 15 16  1  0  0  0  0
 16 17  2  0  0  0  0
 16 27  1  0  0  0  0
 17 18  1  0  0  0  0
M  CHG  1   3  -1
M  CHG  1  15  -1
M  END
> <s_m_source_file>
AV-unprocessed.smi

> <i_m_source_file_index>
66

> <i_lp_mmshare_version>
43012

> <i_f3d_flags>
0

> <s_epik_input>
Tz1DKFtPSF0pW0NAQEhdMVtDSDJdW0NAQEhdKFtPSF0pW0NIMl1OMWMobltjSF1uMiljKGMyMylbbkhdW2NIXW4z

> <s_epik_cmdline>
J2VwaWtfcHl0aG9uJywgJy1waCcsICc3LjAnLCAnLXRuJywgJzgnLCAnLW1hJywgJzIwMCcsICctbWV0YWxfYmluZGluZycsICctaW1hZScsICc8aW5maWxlLm1hZT4nLCAnLW9tYWUnLCAnPG91dGZpbGUubWFlPic=

> <r_lp_tautomer_probability>
0.955585

> <r_epik_Ionization_Penalty>
7.65809

> <r_epik_Ionization_Penalty_Charging>
3.4974

> <r_epik_Ionization_Penalty_Neutral>
4.16069

> <r_epik_State_Penalty>
3.51624

> <r_epik_Charging_Adjusted_Penalty>
7.01364

> <i_epik_Tot_Q>
-2

> <i_epik_Tot_abs_Q>
2

> <r_epik_Metal_State_Penalty>
0.522662

> <b_epik_Metal_Only>
1

> <s_lp_Force_Field>
OPLS_2005

> <r_lp_Energy>
43.8287

> <b_lp_Chiralities_Consistent>
1

> <s_lp_Variant>
AV-unprocessed.smi:66-9

> <Gold.Version>
5.8.1

> <Gold.Id.Protein>
6NUR|6NUR_protein|mol2

> <Gold.PLP.Fitness>
43.3365

> <Gold.PLP.PLP>
-27.0125

> <Gold.PLP.part.hbond>
-3.9407

> <Gold.PLP.part.metal>
0.0000

> <Gold.PLP.part.buried>
-4.9629

> <Gold.PLP.part.nonpolar>
-19.7718

> <Gold.PLP.part.repulsive>
0.5905

> <Gold.PLP.ligand.clash>
0.0000

> <Gold.PLP.ligand.torsion>
0.4843

> <Gold.PLP.Chemscore.Hbond>
4.7280

> <Gold.PLP.Chemscore.CHOScore>
0.9845

> <Gold.PLP.Chemscore.Metal>
0.0000

> <Gold.Chemscore.Hbonds>
donor molecule, donor type, donor heavy atom, donor atom, acceptor molecule, acceptor atom, score
      L1  H     7    23       P1  7957  1.00
      P1  H  7997  8009       L1     1  2.00
      P1  H 10752 10765       L1     3  1.79
      L1  C    16    27       P1  8029  0.86

> <Gold.PLP.Chemscore.Internal.Correction>
0.1553

> <Gold.Rescore>
     Score         DG    S(hbond)    S(metal)    S(lipo)     H(rot)  DE(clash)    DE(int)     intcor
     12.50     -14.14       2.86        0.00      31.14       1.78       0.01       1.63       ----

> <Gold.Chemscore.Fitness>
12.5039

> <Gold.Chemscore.DG>
-14.1410

> <Gold.Chemscore.ZeroCoef>
-5.4800

> <Gold.Chemscore.Hbond>
2.8629

> <Gold.Chemscore.Metal>
0.0000

> <Gold.Chemscore.Lipo>
31.1438

> <Gold.Chemscore.Internal_Hbond>
0.0000

> <Gold.Chemscore.DEClash>
0.0073

> <Gold.Chemscore.DEInternal>
1.6298

> <Gold.Chemscore.Rot>
1.7754

> <Gold.Chemscore.Internal.Correction>
   9.000000E+99

> <Gold.Chemscore.Hbonds>
donor molecule, donor type, donor heavy atom, donor atom, acceptor molecule, acceptor atom, score
      L1  H     7    23       P1  7957  0.96
      P1  H  7997  8009       L1     1  0.95
      P1  H 10752 10765       L1     3  0.87

> <Gold.Chemscore.Hbond.Weighted>
-9.5622

> <Gold.Chemscore.Metal.Weighted>
-0.0000

> <Gold.Chemscore.Lipo.Weighted>
-3.6438

> <Gold.Chemscore.Internal_Hbond.Weighted>
0.0000

> <Gold.Chemscore.DEClash.Weighted>
0.0073

> <Gold.Chemscore.DEInternal.Weighted>
1.6298

> <Gold.Chemscore.Rot.Weighted>
4.5451

> <Gold.Chemscore.Internal.Correction.Weighted>
   9.000000E+99

> <Gold.Protein.RotatedTorsions>
[ 6907 6896 6895 6894 ] final  -94.65 input  -60.11 | X-H torsion
[ 7974 7965 7964 7962 ] final  108.80 input  175.53 | X-H torsion
[ 8008 7997 7996 7995 ] final -146.92 input   59.86 | X-H torsion
[ 10167 10162 10161 10158 ] final   42.49 input  -65.29 | X-H torsion
[ 10718 10713 10712 10709 ] final   65.51 input   66.30 | X-H torsion
[ 10763 10752 10751 10750 ] final -146.76 input  -60.55 | X-H torsion
[ 11005 11000 10999 10996 ] final  154.83 input  -57.11 | X-H torsion

> <Gold.Protein.ActiveResidues>
 VAL166  LYS551  ARG553  GLY616  TRP617  ASP618  TYR619  PRO620  LYS621  CYS622 
 ASP623  PHE694  ASN695  SER759  ASP760  ASP761  ALA762  ILE779  LEU786  VAL792 
 PHE793  MET794  SER795  GLU796  ALA797  LYS798  CYS799  TRP800  GLU811  SER814 

> <Gold.Protein.RotatedAtoms>
  150.6946  134.1779  159.4237 H   0  0  0  0  0  0  0  0  0  0  0  0  # atno 6907 bound_to 6896
  151.9755  135.0053  160.0564 H   0  0  0  0  0  0  0  0  0  0  0  0  # atno 6908 bound_to 6896
  152.1803  133.4667  159.4991 H   0  0  0  0  0  0  0  0  0  0  0  0  # atno 6909 bound_to 6896
  145.2760  139.2649  143.3941 H   0  0  0  0  0  0  0  0  0  0  0  0  # atno 7974 bound_to 7965
  155.5672  140.0631  157.2815 H   0  0  0  0  0  0  0  0  0  0  0  0  # atno 8008 bound_to 7997
  154.4372  140.1875  156.0888 H   0  0  0  0  0  0  0  0  0  0  0  0  # atno 8009 bound_to 7997
  156.0403  140.3296  155.7240 H   0  0  0  0  0  0  0  0  0  0  0  0  # atno 8010 bound_to 7997
  140.3539  144.2315  150.6143 H   0  0  0  0  0  0  0  0  0  0  0  0  # atno 10167 bound_to 10162
  157.6110  130.9218  149.9986 H   0  0  0  0  0  0  0  0  0  0  0  0  # atno 10718 bound_to 10713
  154.8320  135.3378  154.6712 H   0  0  0  0  0  0  0  0  0  0  0  0  # atno 10763 bound_to 10752
  153.7330  135.6951  153.4989 H   0  0  0  0  0  0  0  0  0  0  0  0  # atno 10764 bound_to 10752
  153.2298  135.4420  155.0534 H   0  0  0  0  0  0  0  0  0  0  0  0  # atno 10765 bound_to 10752
  140.1525  134.8665  157.2473 H   0  0  0  0  0  0  0  0  0  0  0  0  # atno 11005 bound_to 11000
  146.3231  140.3215  142.8633 LP  0  0  0  0  0  0  0  0  0  0  0  0  # atno 17320 bound_to 7965
  144.9294  140.7958  143.5699 LP  0  0  0  0  0  0  0  0  0  0  0  0  # atno 17321 bound_to 7965
  140.5193  143.2270  151.8414 LP  0  0  0  0  0  0  0  0  0  0  0  0  # atno 17342 bound_to 10162
  139.4823  144.4856  151.9251 LP  0  0  0  0  0  0  0  0  0  0  0  0  # atno 17343 bound_to 10162
  156.1213  130.3646  149.9882 LP  0  0  0  0  0  0  0  0  0  0  0  0  # atno 17370 bound_to 10713
  156.7962  130.9274  151.3646 LP  0  0  0  0  0  0  0  0  0  0  0  0  # atno 17371 bound_to 10713
  140.2587  134.3597  155.7415 LP  0  0  0  0  0  0  0  0  0  0  0  0  # atno 17394 bound_to 11000
  141.2200  133.7357  156.9046 LP  0  0  0  0  0  0  0  0  0  0  0  0  # atno 17395 bound_to 11000

$$$$
