AV-unprocessed.smi:1562|AV-procd|sdf|6288|dock7
  -GOLD-   22720 6483D 1   1.00000     0.00000
 Structure written by MMmdl.
 41 42  0  0  0  0  0  0  0  0  2 V2000
  148.4406  134.8740  161.1455 N   0  0  0  0  0  0  0  0  0  0  0  0
  148.4960  136.0198  160.4621 C   0  0  0  0  0  0  0  0  0  0  0  0
  147.9679  137.0513  160.8733 O   0  0  0  0  0  0  0  0  0  0  0  0
  149.2533  136.0032  159.1276 C   0  0  0  0  0  0  0  0  0  0  0  0
  150.4535  136.9799  159.1565 C   0  0  0  0  0  0  0  0  0  0  0  0
  151.1259  137.0755  157.7749 C   0  0  0  0  0  0  0  0  0  0  0  0
  150.1149  137.4890  156.7874 N   0  0  0  0  0  0  0  0  0  0  0  0
  149.9725  138.7319  156.2612 C   0  0  0  0  0  0  0  0  0  0  0  0
  148.9958  139.0760  155.5938 O   0  0  0  0  0  0  0  0  0  0  0  0
  151.0042  139.5606  156.4891 N   0  0  0  0  0  0  0  0  0  0  0  0
  151.0758  140.9387  156.0241 C   0  0  0  0  0  0  0  0  0  0  0  0
  150.1517  141.8404  156.8539 C   0  0  0  0  0  0  0  0  0  0  0  0
  150.9254  142.7287  157.8090 C   0  0  0  0  0  0  0  0  0  0  0  0
  151.7690  142.2003  158.8103 C   0  0  0  0  0  0  0  0  0  0  0  0
  152.4561  143.0835  159.6692 C   0  0  0  0  0  0  0  0  0  0  0  0
  152.2838  144.4743  159.5103 C   0  0  0  0  0  0  0  0  0  0  0  0
  151.4282  144.9474  158.4947 C   0  0  0  0  0  0  0  0  0  0  0  0
  150.7886  144.0694  157.6908 N   0  3  0  0  0  0  0  0  0  0  0  0
  149.0823  136.4585  156.6280 C   0  0  0  0  0  0  0  0  0  0  0  0
  148.3040  136.3281  157.9500 C   0  0  0  0  0  0  0  0  0  0  0  0
  147.9501  134.8418  162.0276 H   0  0  0  0  0  0  0  0  0  0  0  0
  148.8858  134.0453  160.7794 H   0  0  0  0  0  0  0  0  0  0  0  0
  149.6490  134.9984  158.9669 H   0  0  0  0  0  0  0  0  0  0  0  0
  150.1276  137.9756  159.4628 H   0  0  0  0  0  0  0  0  0  0  0  0
  151.1834  136.6526  159.8977 H   0  0  0  0  0  0  0  0  0  0  0  0
  151.9892  137.7385  157.8293 H   0  0  0  0  0  0  0  0  0  0  0  0
  151.5288  136.1025  157.4904 H   0  0  0  0  0  0  0  0  0  0  0  0
  151.7816  139.2133  157.0319 H   0  0  0  0  0  0  0  0  0  0  0  0
  152.1046  141.2969  156.0912 H   0  0  0  0  0  0  0  0  0  0  0  0
  150.7896  140.9726  154.9718 H   0  0  0  0  0  0  0  0  0  0  0  0
  149.5491  142.4658  156.1936 H   0  0  0  0  0  0  0  0  0  0  0  0
  149.4501  141.2331  157.4276 H   0  0  0  0  0  0  0  0  0  0  0  0
  151.8884  141.1322  158.9215 H   0  0  0  0  0  0  0  0  0  0  0  0
  153.1063  142.6986  160.4413 H   0  0  0  0  0  0  0  0  0  0  0  0
  152.8002  145.1674  160.1583 H   0  0  0  0  0  0  0  0  0  0  0  0
  151.2364  145.9931  158.3026 H   0  0  0  0  0  0  0  0  0  0  0  0
  148.3960  136.6751  155.8081 H   0  0  0  0  0  0  0  0  0  0  0  0
  149.5535  135.5081  156.3735 H   0  0  0  0  0  0  0  0  0  0  0  0
  147.5469  135.5489  157.8539 H   0  0  0  0  0  0  0  0  0  0  0  0
  147.7658  137.2586  158.1402 H   0  0  0  0  0  0  0  0  0  0  0  0
  150.1725  144.4344  156.9639 H   0  0  0  0  0  0  0  0  0  0  0  0
  1  2  1  0  0  0  0
  1 21  1  0  0  0  0
  1 22  1  0  0  0  0
  2  3  2  0  0  0  0
  2  4  1  0  0  0  0
  4 20  1  0  0  0  0
  4  5  1  0  0  0  0
  4 23  1  0  0  0  0
  5  6  1  0  0  0  0
  5 24  1  0  0  0  0
  5 25  1  0  0  0  0
  6  7  1  0  0  0  0
  6 26  1  0  0  0  0
  6 27  1  0  0  0  0
  7  8  1  0  0  0  0
  7 19  1  0  0  0  0
  8  9  2  0  0  0  0
  8 10  1  0  0  0  0
 10 11  1  0  0  0  0
 10 28  1  0  0  0  0
 11 12  1  0  0  0  0
 11 29  1  0  0  0  0
 11 30  1  0  0  0  0
 12 13  1  0  0  0  0
 12 31  1  0  0  0  0
 12 32  1  0  0  0  0
 13 18  1  0  0  0  0
 13 14  2  0  0  0  0
 14 15  1  0  0  0  0
 14 33  1  0  0  0  0
 15 16  2  0  0  0  0
 15 34  1  0  0  0  0
 16 17  1  0  0  0  0
 16 35  1  0  0  0  0
 17 18  2  0  0  0  0
 17 36  1  0  0  0  0
 18 41  1  0  0  0  0
 19 20  1  0  0  0  0
 19 37  1  0  0  0  0
 19 38  1  0  0  0  0
 20 39  1  0  0  0  0
 20 40  1  0  0  0  0
M  CHG  1  18   1
M  END
> <s_m_source_file>
AV-unprocessed.smi

> <i_m_source_file_index>
1562

> <i_lp_mmshare_version>
43012

> <i_f3d_flags>
0

> <s_epik_input>
W05IMl1DKD1PKVtDSF0xW0NIMl1bQ0gyXU4oW0NIMl1bQ0gyXTEpQyg9TylbTkhdW0NIMl1bQ0gyXWMyW2NIXVtjSF1bY0hdW2NIXW4y

> <s_epik_cmdline>
J2VwaWtfcHl0aG9uJywgJy1waCcsICc3LjAnLCAnLXRuJywgJzgnLCAnLW1hJywgJzIwMCcsICctbWV0YWxfYmluZGluZycsICctaW1hZScsICc8aW5maWxlLm1hZT4nLCAnLW9tYWUnLCAnPG91dGZpbGUubWFlPic=

> <r_epik_Ionization_Penalty>
1.55599

> <r_epik_Ionization_Penalty_Charging>
1.55593

> <r_epik_Ionization_Penalty_Neutral>
5.20779e-05

> <r_epik_State_Penalty>
1.65054

> <r_epik_Charging_Adjusted_Penalty>
3.20648

> <i_epik_Tot_Q>
1

> <i_epik_Tot_abs_Q>
1

> <r_epik_Metal_State_Penalty>
1.69236

> <b_epik_Metal_Only>
0

> <s_lp_Force_Field>
OPLS_2005

> <r_lp_Energy>
33.1399

> <b_lp_Chiralities_Consistent>
1

> <s_lp_Variant>
AV-unprocessed.smi:1562-2

> <Gold.Version>
5.8.1

> <Gold.Id.Protein>
6NUR|6NUR_protein|mol2

> <Gold.PLP.Fitness>
42.7277

> <Gold.PLP.PLP>
-32.3588

> <Gold.PLP.part.hbond>
-3.0000

> <Gold.PLP.part.metal>
0.0000

> <Gold.PLP.part.buried>
-4.4718

> <Gold.PLP.part.nonpolar>
-25.7760

> <Gold.PLP.part.repulsive>
0.1770

> <Gold.PLP.ligand.clash>
0.0000

> <Gold.PLP.ligand.torsion>
0.4582

> <Gold.PLP.Chemscore.Hbond>
3.7360

> <Gold.PLP.Chemscore.CHOScore>
0.0000

> <Gold.PLP.Chemscore.Metal>
0.0000

> <Gold.Chemscore.Hbonds>
donor molecule, donor type, donor heavy atom, donor atom, acceptor molecule, acceptor atom, score
      L1  H    18    41       P1  8028  2.00
      P1  H  6931  6943       L1     3  0.96
      P1  H  6934  6947       L1     3  0.61

> <Gold.PLP.Chemscore.Internal.Correction>
0.0774

> <Gold.Rescore>
     Score         DG    S(hbond)    S(metal)    S(lipo)     H(rot)  DE(clash)    DE(int)     intcor
     18.76     -19.47       2.72        0.00      86.39       2.03       0.07       0.64       ----

> <Gold.Chemscore.Fitness>
18.7622

> <Gold.Chemscore.DG>
-19.4663

> <Gold.Chemscore.ZeroCoef>
-5.4800

> <Gold.Chemscore.Hbond>
2.7201

> <Gold.Chemscore.Metal>
0.0000

> <Gold.Chemscore.Lipo>
86.3948

> <Gold.Chemscore.Internal_Hbond>
0.0000

> <Gold.Chemscore.DEClash>
0.0679

> <Gold.Chemscore.DEInternal>
0.6362

> <Gold.Chemscore.Rot>
2.0339

> <Gold.Chemscore.Internal.Correction>
   9.000000E+99

> <Gold.Chemscore.Hbonds>
donor molecule, donor type, donor heavy atom, donor atom, acceptor molecule, acceptor atom, score
      L1  H    18    41       P1  8028  0.78
      P1  H  6931  6943       L1     3  0.88
      P1  H  6934  6947       L1     3  0.61

> <Gold.Chemscore.Hbond.Weighted>
-9.0850

> <Gold.Chemscore.Metal.Weighted>
-0.0000

> <Gold.Chemscore.Lipo.Weighted>
-10.1082

> <Gold.Chemscore.Internal_Hbond.Weighted>
0.0000

> <Gold.Chemscore.DEClash.Weighted>
0.0679

> <Gold.Chemscore.DEInternal.Weighted>
0.6362

> <Gold.Chemscore.Rot.Weighted>
5.2069

> <Gold.Chemscore.Internal.Correction.Weighted>
   9.000000E+99

> <Gold.Protein.RotatedTorsions>
[ 6907 6896 6895 6894 ] final  -29.13 input  -60.11 | X-H torsion
[ 7974 7965 7964 7962 ] final  -19.25 input  175.53 | X-H torsion
[ 8008 7997 7996 7995 ] final  161.58 input   59.86 | X-H torsion
[ 10167 10162 10161 10158 ] final   21.23 input  -65.29 | X-H torsion
[ 10718 10713 10712 10709 ] final  134.93 input   66.30 | X-H torsion
[ 10763 10752 10751 10750 ] final   11.27 input  -60.55 | X-H torsion
[ 11005 11000 10999 10996 ] final   96.02 input  -57.11 | X-H torsion

> <Gold.Protein.ActiveResidues>
 VAL166  LYS551  ARG553  GLY616  TRP617  ASP618  TYR619  PRO620  LYS621  CYS622 
 ASP623  PHE694  ASN695  SER759  ASP760  ASP761  ALA762  ILE779  LEU786  VAL792 
 PHE793  MET794  SER795  GLU796  ALA797  LYS798  CYS799  TRP800  GLU811  SER814 

> <Gold.Protein.RotatedAtoms>
  151.1234  135.0091  159.8548 H   0  0  0  0  0  0  0  0  0  0  0  0  # atno 6907 bound_to 6896
  152.5448  134.1696  159.8601 H   0  0  0  0  0  0  0  0  0  0  0  0  # atno 6908 bound_to 6896
  151.1756  133.4712  159.2627 H   0  0  0  0  0  0  0  0  0  0  0  0  # atno 6909 bound_to 6896
  146.1851  140.4035  142.8479 H   0  0  0  0  0  0  0  0  0  0  0  0  # atno 7974 bound_to 7965
  156.2093  140.1773  156.7731 H   0  0  0  0  0  0  0  0  0  0  0  0  # atno 8008 bound_to 7997
  154.5699  140.0684  156.8978 H   0  0  0  0  0  0  0  0  0  0  0  0  # atno 8009 bound_to 7997
  155.2692  140.3341  155.4269 H   0  0  0  0  0  0  0  0  0  0  0  0  # atno 8010 bound_to 7997
  140.5443  143.9622  150.6538 H   0  0  0  0  0  0  0  0  0  0  0  0  # atno 10167 bound_to 10162
  157.4622  131.1074  150.9906 H   0  0  0  0  0  0  0  0  0  0  0  0  # atno 10718 bound_to 10713
  153.1943  135.6847  153.8312 H   0  0  0  0  0  0  0  0  0  0  0  0  # atno 10763 bound_to 10752
  153.7600  135.3211  155.3336 H   0  0  0  0  0  0  0  0  0  0  0  0  # atno 10764 bound_to 10752
  154.8136  135.4701  154.0681 H   0  0  0  0  0  0  0  0  0  0  0  0  # atno 10765 bound_to 10752
  139.8784  134.8929  156.4097 H   0  0  0  0  0  0  0  0  0  0  0  0  # atno 11005 bound_to 11000
  144.8383  140.6816  143.6246 LP  0  0  0  0  0  0  0  0  0  0  0  0  # atno 17320 bound_to 7965
  145.3963  139.1606  143.4202 LP  0  0  0  0  0  0  0  0  0  0  0  0  # atno 17321 bound_to 7965
  140.3031  143.3247  152.0952 LP  0  0  0  0  0  0  0  0  0  0  0  0  # atno 17342 bound_to 10162
  139.5001  144.6684  151.6301 LP  0  0  0  0  0  0  0  0  0  0  0  0  # atno 17343 bound_to 10162
  157.0699  130.5860  149.5400 LP  0  0  0  0  0  0  0  0  0  0  0  0  # atno 17370 bound_to 10713
  156.0034  130.5117  150.7744 LP  0  0  0  0  0  0  0  0  0  0  0  0  # atno 17371 bound_to 10713
  140.9209  133.7645  155.9905 LP  0  0  0  0  0  0  0  0  0  0  0  0  # atno 17394 bound_to 11000
  140.8440  134.3032  157.5302 LP  0  0  0  0  0  0  0  0  0  0  0  0  # atno 17395 bound_to 11000

$$$$
