AV-unprocessed.smi:271|AV-procd|sdf|2051|dock1
  -GOLD-   2262021283D 1   1.00000     0.00000
 Structure written by MMmdl.
 58 60  0  0  0  0  0  0  0  0  1 V2000
  152.7473  142.8406  160.5852 C   0  0  0  0  0  0  0  0  0  0  0  0
  152.3802  143.1207  159.1201 C   0  0  0  0  0  0  0  0  0  0  0  0
  152.1551  144.6274  158.9061 C   0  0  0  0  0  0  0  0  0  0  0  0
  151.1562  142.2865  158.6958 C   0  0  0  0  0  0  0  0  0  0  0  0
  150.7866  142.4407  157.2036 C   0  0  0  0  0  0  0  0  0  0  0  0
  150.3065  141.2047  156.5824 N   0  0  0  0  0  0  0  0  0  0  0  0
  151.3285  140.4322  155.8803 C   0  0  0  0  0  0  0  0  0  0  0  0
  150.8426  139.0444  155.4332 C   0  0  0  0  0  0  0  0  0  0  0  0
  151.8829  138.2926  154.7163 C   0  0  0  0  0  0  0  0  0  0  0  0
  152.7013  137.7006  154.1519 N   0  0  0  0  0  0  0  0  0  0  0  0
  149.1785  141.3652  155.8533 C   0  0  0  0  0  0  0  0  0  0  0  0
  149.2584  141.1131  154.5236 N   0  0  0  0  0  0  0  0  0  0  0  0
  148.1639  141.1981  153.7616 C   0  0  0  0  0  0  0  0  0  0  0  0
  146.9150  141.4989  154.1243 N   0  0  0  0  0  0  0  0  0  0  0  0
  146.8356  141.7594  155.4608 C   0  0  0  0  0  0  0  0  0  0  0  0
  147.9127  141.7347  156.3895 C   0  0  0  0  0  0  0  0  0  0  0  0
  147.4548  142.0721  157.6574 N   0  0  0  0  0  0  0  0  0  0  0  0
  146.1743  142.2610  157.4932 C   0  0  0  0  0  0  0  0  0  0  0  0
  145.7128  142.0583  156.2118 N   0  0  0  0  0  0  0  0  0  0  0  0
  144.3379  142.1585  155.7588 C   0  0  0  0  0  0  0  0  0  0  0  0
  143.7489  143.5941  155.8130 C   0  0  2  0  0  0  0  0  0  0  0  0
  142.2210  143.5250  155.5850 C   0  0  0  0  0  0  0  0  0  0  0  0
  141.8847  142.6066  154.5644 O   0  0  0  0  0  0  0  0  0  0  0  0
  144.4517  144.6216  154.8746 C   0  0  1  0  0  0  0  0  0  0  0  0
  144.7981  144.0877  153.4928 C   0  0  0  0  0  0  0  0  0  0  0  0
  145.0167  145.3665  152.6981 C   0  0  0  0  0  0  0  0  0  0  0  0
  144.0155  146.2497  153.1771 O   0  0  0  0  0  0  0  0  0  0  0  0
  143.6238  145.8619  154.4908 C   0  0  0  0  0  0  0  0  0  0  0  0
  151.9364  143.1226  161.2576 H   0  0  0  0  0  0  0  0  0  0  0  0
  153.6351  143.3996  160.8823 H   0  0  0  0  0  0  0  0  0  0  0  0
  152.9590  141.7828  160.7437 H   0  0  0  0  0  0  0  0  0  0  0  0
  153.2300  142.8143  158.5088 H   0  0  0  0  0  0  0  0  0  0  0  0
  151.2932  144.9835  159.4714 H   0  0  0  0  0  0  0  0  0  0  0  0
  151.9864  144.8663  157.8566 H   0  0  0  0  0  0  0  0  0  0  0  0
  153.0228  145.2026  159.2300 H   0  0  0  0  0  0  0  0  0  0  0  0
  151.3540  141.2313  158.8892 H   0  0  0  0  0  0  0  0  0  0  0  0
  150.3155  142.5578  159.3358 H   0  0  0  0  0  0  0  0  0  0  0  0
  150.0402  143.2225  157.0706 H   0  0  0  0  0  0  0  0  0  0  0  0
  151.6699  142.7743  156.6579 H   0  0  0  0  0  0  0  0  0  0  0  0
  151.6868  140.9966  155.0183 H   0  0  0  0  0  0  0  0  0  0  0  0
  152.1844  140.3091  156.5448 H   0  0  0  0  0  0  0  0  0  0  0  0
  150.5387  138.4510  156.2960 H   0  0  0  0  0  0  0  0  0  0  0  0
  149.9816  139.1218  154.7694 H   0  0  0  0  0  0  0  0  0  0  0  0
  148.3070  140.9824  152.7130 H   0  0  0  0  0  0  0  0  0  0  0  0
  145.5236  142.5268  158.3135 H   0  0  0  0  0  0  0  0  0  0  0  0
  144.2842  141.7685  154.7418 H   0  0  0  0  0  0  0  0  0  0  0  0
  143.7416  141.4863  156.3770 H   0  0  0  0  0  0  0  0  0  0  0  0
  143.8749  143.9577  156.8333 H   0  0  0  0  0  0  0  0  0  0  0  0
  141.7139  143.2257  156.5027 H   0  0  0  0  0  0  0  0  0  0  0  0
  141.8172  144.5032  155.3245 H   0  0  0  0  0  0  0  0  0  0  0  0
  142.3764  142.8264  153.7879 H   0  0  0  0  0  0  0  0  0  0  0  0
  145.3785  144.9576  155.3428 H   0  0  0  0  0  0  0  0  0  0  0  0
  145.6770  143.4422  153.4880 H   0  0  0  0  0  0  0  0  0  0  0  0
  143.9588  143.5296  153.0749 H   0  0  0  0  0  0  0  0  0  0  0  0
  145.9984  145.7899  152.9147 H   0  0  0  0  0  0  0  0  0  0  0  0
  144.9378  145.2155  151.6214 H   0  0  0  0  0  0  0  0  0  0  0  0
  142.5567  145.6387  154.4682 H   0  0  0  0  0  0  0  0  0  0  0  0
  143.7814  146.6902  155.1802 H   0  0  0  0  0  0  0  0  0  0  0  0
  1  2  1  0  0  0  0
  1 29  1  0  0  0  0
  1 30  1  0  0  0  0
  1 31  1  0  0  0  0
  2  3  1  0  0  0  0
  2  4  1  0  0  0  0
  2 32  1  0  0  0  0
  3 33  1  0  0  0  0
  3 34  1  0  0  0  0
  3 35  1  0  0  0  0
  4  5  1  0  0  0  0
  4 36  1  0  0  0  0
  4 37  1  0  0  0  0
  5  6  1  0  0  0  0
  5 38  1  0  0  0  0
  5 39  1  0  0  0  0
  6  7  1  0  0  0  0
  6 11  1  0  0  0  0
  7  8  1  0  0  0  0
  7 40  1  0  0  0  0
  7 41  1  0  0  0  0
  8  9  1  0  0  0  0
  8 42  1  0  0  0  0
  8 43  1  0  0  0  0
  9 10  3  0  0  0  0
 11 16  1  0  0  0  0
 11 12  2  0  0  0  0
 12 13  1  0  0  0  0
 13 14  2  0  0  0  0
 13 44  1  0  0  0  0
 14 15  1  0  0  0  0
 15 19  1  0  0  0  0
 15 16  2  0  0  0  0
 16 17  1  0  0  0  0
 17 18  2  0  0  0  0
 18 19  1  0  0  0  0
 18 45  1  0  0  0  0
 19 20  1  0  0  0  0
 20 21  1  0  0  0  0
 20 46  1  0  0  0  0
 20 47  1  0  0  0  0
 21 22  1  0  0  0  0
 21 24  1  0  0  0  0
 21 48  1  0  0  0  0
 22 23  1  0  0  0  0
 22 49  1  0  0  0  0
 22 50  1  0  0  0  0
 23 51  1  0  0  0  0
 24 28  1  0  0  0  0
 24 25  1  0  0  0  0
 24 52  1  0  0  0  0
 25 26  1  0  0  0  0
 25 53  1  0  0  0  0
 25 54  1  0  0  0  0
 26 27  1  0  0  0  0
 26 55  1  0  0  0  0
 26 56  1  0  0  0  0
 27 28  1  0  0  0  0
 28 57  1  0  0  0  0
 28 58  1  0  0  0  0
M  END
> <s_m_source_file>
AV-unprocessed.smi

> <i_m_source_file_index>
271

> <i_lp_mmshare_version>
43012

> <i_f3d_flags>
0

> <s_epik_input>
W0NIM11bQ0hdKFtDSDNdKVtDSDJdW0NIMl1OKFtDSDJdW0NIMl1DI04pYyhuW2NIXW4xKWMoYzEyKW5bY0hdbjJbQ0gyXVtDQEhdKFtDSDJdW09IXSlbQ0BASF0zW0NIMl1bQ0gyXU9bQ0gyXTM=

> <s_epik_cmdline>
J2VwaWtfcHl0aG9uJywgJy1waCcsICc3LjAnLCAnLXRuJywgJzgnLCAnLW1hJywgJzIwMCcsICctbWV0YWxfYmluZGluZycsICctaW1hZScsICc8aW5maWxlLm1hZT4nLCAnLW9tYWUnLCAnPG91dGZpbGUubWFlPic=

> <r_lp_tautomer_probability>
1

> <r_epik_Ionization_Penalty>
0.000825874

> <r_epik_Ionization_Penalty_Charging>
0

> <r_epik_Ionization_Penalty_Neutral>
0.000825874

> <r_epik_State_Penalty>
0.000396768

> <r_epik_Charging_Adjusted_Penalty>
0.000396768

> <i_epik_Tot_Q>
0

> <i_epik_Tot_abs_Q>
0

> <r_epik_Metal_State_Penalty>
-0

> <b_epik_Metal_Only>
0

> <s_lp_Force_Field>
OPLS_2005

> <r_lp_Energy>
35.9661

> <b_lp_Chiralities_Consistent>
1

> <s_lp_Variant>
AV-unprocessed.smi:271-3

> <Gold.Version>
5.8.1

> <Gold.Id.Protein>
6NUR|6NUR_protein|mol2

> <Gold.PLP.Fitness>
57.4728

> <Gold.PLP.PLP>
-52.6513

> <Gold.PLP.part.hbond>
-4.2874

> <Gold.PLP.part.metal>
0.0000

> <Gold.PLP.part.buried>
-6.1066

> <Gold.PLP.part.nonpolar>
-44.2213

> <Gold.PLP.part.repulsive>
0.6956

> <Gold.PLP.ligand.clash>
0.0000

> <Gold.PLP.ligand.torsion>
1.9103

> <Gold.PLP.Chemscore.Hbond>
1.6000

> <Gold.PLP.Chemscore.CHOScore>
1.0000

> <Gold.PLP.Chemscore.Metal>
0.0000

> <Gold.Chemscore.Hbonds>
donor molecule, donor type, donor heavy atom, donor atom, acceptor molecule, acceptor atom, score
      L1  H    23    51       P1 10174  0.91
      P1  H 10752 10765       L1    10  0.56
      L1  C    13    44       P1  7957  1.00

> <Gold.PLP.Chemscore.Internal.Correction>
0.8422

> <Gold.Rescore>
     Score         DG    S(hbond)    S(metal)    S(lipo)     H(rot)  DE(clash)    DE(int)     intcor
      8.81     -14.52       1.74        0.00     109.95       3.77       2.28       3.43       ----

> <Gold.Chemscore.Fitness>
8.8087

> <Gold.Chemscore.DG>
-14.5158

> <Gold.Chemscore.ZeroCoef>
-5.4800

> <Gold.Chemscore.Hbond>
1.7420

> <Gold.Chemscore.Metal>
0.0000

> <Gold.Chemscore.Lipo>
109.9521

> <Gold.Chemscore.Internal_Hbond>
0.0000

> <Gold.Chemscore.DEClash>
2.2764

> <Gold.Chemscore.DEInternal>
3.4307

> <Gold.Chemscore.Rot>
3.7683

> <Gold.Chemscore.Internal.Correction>
   9.000000E+99

> <Gold.Chemscore.Hbonds>
donor molecule, donor type, donor heavy atom, donor atom, acceptor molecule, acceptor atom, score
      L1  H    23    51       P1 10174  0.88
      P1  H 10752 10765       L1    10  0.54

> <Gold.Chemscore.Hbond.Weighted>
-5.8182

> <Gold.Chemscore.Metal.Weighted>
-0.0000

> <Gold.Chemscore.Lipo.Weighted>
-12.8644

> <Gold.Chemscore.Internal_Hbond.Weighted>
0.0000

> <Gold.Chemscore.DEClash.Weighted>
2.2764

> <Gold.Chemscore.DEInternal.Weighted>
3.4307

> <Gold.Chemscore.Rot.Weighted>
9.6468

> <Gold.Chemscore.Internal.Correction.Weighted>
   9.000000E+99

> <Gold.Protein.RotatedTorsions>
[ 6907 6896 6895 6894 ] final -159.48 input  -60.11 | X-H torsion
[ 7974 7965 7964 7962 ] final  -12.25 input  175.53 | X-H torsion
[ 8008 7997 7996 7995 ] final   89.45 input   59.86 | X-H torsion
[ 10167 10162 10161 10158 ] final    0.40 input  -65.29 | X-H torsion
[ 10718 10713 10712 10709 ] final  170.33 input   66.30 | X-H torsion
[ 10763 10752 10751 10750 ] final  144.54 input  -60.55 | X-H torsion
[ 11005 11000 10999 10996 ] final  -52.35 input  -57.11 | X-H torsion

> <Gold.Protein.ActiveResidues>
 VAL166  LYS551  ARG553  GLY616  TRP617  ASP618  TYR619  PRO620  LYS621  CYS622 
 ASP623  PHE694  ASN695  SER759  ASP760  ASP761  ALA762  ILE779  LEU786  VAL792 
 PHE793  MET794  SER795  GLU796  ALA797  LYS798  CYS799  TRP800  GLU811  SER814 

> <Gold.Protein.RotatedAtoms>
  151.3342  133.3988  159.2665 H   0  0  0  0  0  0  0  0  0  0  0  0  # atno 6907 bound_to 6896
  150.9931  134.9262  159.7921 H   0  0  0  0  0  0  0  0  0  0  0  0  # atno 6908 bound_to 6896
  152.5253  134.3307  159.9234 H   0  0  0  0  0  0  0  0  0  0  0  0  # atno 6909 bound_to 6896
  146.2158  140.3030  142.8376 H   0  0  0  0  0  0  0  0  0  0  0  0  # atno 7974 bound_to 7965
  156.0001  140.3360  155.6837 H   0  0  0  0  0  0  0  0  0  0  0  0  # atno 8008 bound_to 7997
  155.6302  140.0684  157.2669 H   0  0  0  0  0  0  0  0  0  0  0  0  # atno 8009 bound_to 7997
  154.4246  140.1761  156.1451 H   0  0  0  0  0  0  0  0  0  0  0  0  # atno 8010 bound_to 7997
  140.6730  143.6995  150.7963 H   0  0  0  0  0  0  0  0  0  0  0  0  # atno 10167 bound_to 10162
  157.0097  131.0200  151.2806 H   0  0  0  0  0  0  0  0  0  0  0  0  # atno 10718 bound_to 10713
  153.9905  135.2932  155.3412 H   0  0  0  0  0  0  0  0  0  0  0  0  # atno 10763 bound_to 10752
  154.7217  135.5106  153.8826 H   0  0  0  0  0  0  0  0  0  0  0  0  # atno 10764 bound_to 10752
  153.0812  135.6679  154.0158 H   0  0  0  0  0  0  0  0  0  0  0  0  # atno 10765 bound_to 10752
  141.0919  133.6631  156.4011 H   0  0  0  0  0  0  0  0  0  0  0  0  # atno 11005 bound_to 11000
  144.9043  140.7681  143.5847 LP  0  0  0  0  0  0  0  0  0  0  0  0  # atno 17320 bound_to 7965
  145.2958  139.1867  143.4716 LP  0  0  0  0  0  0  0  0  0  0  0  0  # atno 17321 bound_to 7965
  140.0683  143.5086  152.2593 LP  0  0  0  0  0  0  0  0  0  0  0  0  # atno 17342 bound_to 10162
  139.6008  144.7582  151.3176 LP  0  0  0  0  0  0  0  0  0  0  0  0  # atno 17343 bound_to 10162
  157.5329  130.8070  149.7938 LP  0  0  0  0  0  0  0  0  0  0  0  0  # atno 17370 bound_to 10713
  156.0140  130.3821  150.2170 LP  0  0  0  0  0  0  0  0  0  0  0  0  # atno 17371 bound_to 10713
  140.5231  134.6285  157.5325 LP  0  0  0  0  0  0  0  0  0  0  0  0  # atno 17394 bound_to 11000
  139.9747  134.7234  155.9972 LP  0  0  0  0  0  0  0  0  0  0  0  0  # atno 17395 bound_to 11000

$$$$
