AV-unprocessed.smi:1583|AV-procd|sdf|6364|dock1
  -GOLD-   22720 6593D 1   1.00000     0.00000
 Structure written by MMmdl.
 37 38  0  0  0  0  0  0  0  0  2 V2000
  146.2366  138.9006  152.7165 C   0  0  0  0  0  0  0  0  0  0  0  0
  147.2483  139.7655  153.3041 N   0  0  0  0  0  0  0  0  0  0  0  0
  147.0287  140.5852  154.3423 C   0  0  0  0  0  0  0  0  0  0  0  0
  145.9392  140.6891  154.9053 O   0  0  0  0  0  0  0  0  0  0  0  0
  148.2141  141.4234  154.8132 C   0  0  0  0  0  0  0  0  0  0  0  0
  149.5811  140.4081  155.4384 S   0  0  0  0  0  0  0  0  0  0  0  0
  150.4512  141.4349  156.5790 C   0  0  0  0  0  0  0  0  0  0  0  0
  150.3971  142.7946  156.6357 N   0  3  0  0  0  0  0  0  0  0  0  0
  151.2268  143.2519  157.6607 C   0  0  0  0  0  0  0  0  0  0  0  0
  151.5048  144.5423  158.1007 C   0  0  0  0  0  0  0  0  0  0  0  0
  152.4080  144.6628  159.1774 C   0  0  0  0  0  0  0  0  0  0  0  0
  152.9961  143.5282  159.7737 C   0  0  0  0  0  0  0  0  0  0  0  0
  152.7062  142.2245  159.3199 C   0  0  0  0  0  0  0  0  0  0  0  0
  151.8118  142.1141  158.2557 C   0  0  0  0  0  0  0  0  0  0  0  0
  151.3013  141.0146  157.5575 N   0  0  0  0  0  0  0  0  0  0  0  0
  151.7279  139.6601  157.9359 C   0  0  0  0  0  0  0  0  0  0  0  0
  151.6493  138.6753  156.7605 C   0  0  0  0  0  0  0  0  0  0  0  0
  152.4986  139.1160  155.7133 O   0  0  0  0  0  0  0  0  0  0  0  0
  152.9152  138.0565  154.8704 C   0  0  0  0  0  0  0  0  0  0  0  0
  146.6696  138.3233  151.8995 H   0  0  0  0  0  0  0  0  0  0  0  0
  145.4083  139.4880  152.3179 H   0  0  0  0  0  0  0  0  0  0  0  0
  145.8442  138.2023  153.4570 H   0  0  0  0  0  0  0  0  0  0  0  0
  148.1732  139.7367  152.8994 H   0  0  0  0  0  0  0  0  0  0  0  0
  148.5726  142.0388  153.9874 H   0  0  0  0  0  0  0  0  0  0  0  0
  147.8883  142.1026  155.6020 H   0  0  0  0  0  0  0  0  0  0  0  0
  151.0565  145.4132  157.6451 H   0  0  0  0  0  0  0  0  0  0  0  0
  152.6551  145.6452  159.5530 H   0  0  0  0  0  0  0  0  0  0  0  0
  153.6843  143.6602  160.5961 H   0  0  0  0  0  0  0  0  0  0  0  0
  153.1629  141.3618  159.7823 H   0  0  0  0  0  0  0  0  0  0  0  0
  152.7388  139.7078  158.3420 H   0  0  0  0  0  0  0  0  0  0  0  0
  151.0846  139.3224  158.7488 H   0  0  0  0  0  0  0  0  0  0  0  0
  151.9491  137.6783  157.0863 H   0  0  0  0  0  0  0  0  0  0  0  0
  150.6202  138.6060  156.4058 H   0  0  0  0  0  0  0  0  0  0  0  0
  153.5648  138.4460  154.0866 H   0  0  0  0  0  0  0  0  0  0  0  0
  152.0619  137.5744  154.3918 H   0  0  0  0  0  0  0  0  0  0  0  0
  153.4747  137.3049  155.4288 H   0  0  0  0  0  0  0  0  0  0  0  0
  149.8355  143.3648  156.0170 H   0  0  0  0  0  0  0  0  0  0  0  0
  1  2  1  0  0  0  0
  1 20  1  0  0  0  0
  1 21  1  0  0  0  0
  1 22  1  0  0  0  0
  2  3  1  0  0  0  0
  2 23  1  0  0  0  0
  3  4  2  0  0  0  0
  3  5  1  0  0  0  0
  5  6  1  0  0  0  0
  5 24  1  0  0  0  0
  5 25  1  0  0  0  0
  6  7  1  0  0  0  0
  7 15  1  0  0  0  0
  7  8  2  0  0  0  0
  8  9  1  0  0  0  0
  8 37  1  0  0  0  0
  9 14  2  0  0  0  0
  9 10  1  0  0  0  0
 10 11  2  0  0  0  0
 10 26  1  0  0  0  0
 11 12  1  0  0  0  0
 11 27  1  0  0  0  0
 12 13  2  0  0  0  0
 12 28  1  0  0  0  0
 13 14  1  0  0  0  0
 13 29  1  0  0  0  0
 14 15  1  0  0  0  0
 15 16  1  0  0  0  0
 16 17  1  0  0  0  0
 16 30  1  0  0  0  0
 16 31  1  0  0  0  0
 17 18  1  0  0  0  0
 17 32  1  0  0  0  0
 17 33  1  0  0  0  0
 18 19  1  0  0  0  0
 19 34  1  0  0  0  0
 19 35  1  0  0  0  0
 19 36  1  0  0  0  0
M  CHG  1   8   1
M  END
> <s_m_source_file>
AV-unprocessed.smi

> <i_m_source_file_index>
1583

> <i_lp_mmshare_version>
43012

> <i_f3d_flags>
0

> <s_epik_input>
W0NIM11bTkhdQyg9TylbQ0gyXVNjKG4xKW4oW0NIMl1bQ0gyXU9bQ0gzXSljKGMxMilbY0hdW2NIXVtjSF1bY0hdMg==

> <s_epik_cmdline>
J2VwaWtfcHl0aG9uJywgJy1waCcsICc3LjAnLCAnLXRuJywgJzgnLCAnLW1hJywgJzIwMCcsICctbWV0YWxfYmluZGluZycsICctaW1hZScsICc8aW5maWxlLm1hZT4nLCAnLW9tYWUnLCAnPG91dGZpbGUubWFlPic=

> <r_epik_Ionization_Penalty>
1.68337

> <r_epik_Ionization_Penalty_Charging>
1.68337

> <r_epik_Ionization_Penalty_Neutral>
1.65978e-07

> <r_epik_State_Penalty>
1.78799

> <r_epik_Charging_Adjusted_Penalty>
3.47136

> <i_epik_Tot_Q>
1

> <i_epik_Tot_abs_Q>
1

> <r_epik_Metal_State_Penalty>
1.82204

> <b_epik_Metal_Only>
0

> <s_lp_Force_Field>
OPLS_2005

> <r_lp_Energy>
8.62321

> <b_lp_Chiralities_Consistent>
1

> <s_lp_Variant>
AV-unprocessed.smi:1583-2

> <Gold.Version>
5.8.1

> <Gold.Id.Protein>
6NUR|6NUR_protein|mol2

> <Gold.PLP.Fitness>
56.6841

> <Gold.PLP.PLP>
-46.5672

> <Gold.PLP.part.hbond>
-3.0205

> <Gold.PLP.part.metal>
0.0000

> <Gold.PLP.part.buried>
-4.6349

> <Gold.PLP.part.nonpolar>
-39.5950

> <Gold.PLP.part.repulsive>
0.3177

> <Gold.PLP.ligand.clash>
0.0000

> <Gold.PLP.ligand.torsion>
0.9328

> <Gold.PLP.Chemscore.Hbond>
3.9760

> <Gold.PLP.Chemscore.CHOScore>
0.0000

> <Gold.PLP.Chemscore.Metal>
0.0000

> <Gold.Chemscore.Hbonds>
donor molecule, donor type, donor heavy atom, donor atom, acceptor molecule, acceptor atom, score
      L1  H     2    23       P1  7957  0.41
      L1  H     8    37       P1  8028  2.00
      P1  H  7997  8009       L1    18  0.62

> <Gold.PLP.Chemscore.Internal.Correction>
0.0545

> <Gold.Rescore>
     Score         DG    S(hbond)    S(metal)    S(lipo)     H(rot)  DE(clash)    DE(int)     intcor
     21.57     -22.54       2.86        0.00     113.57       2.25       0.11       0.85       ----

> <Gold.Chemscore.Fitness>
21.5732

> <Gold.Chemscore.DG>
-22.5367

> <Gold.Chemscore.ZeroCoef>
-5.4800

> <Gold.Chemscore.Hbond>
2.8564

> <Gold.Chemscore.Metal>
0.0000

> <Gold.Chemscore.Lipo>
113.5742

> <Gold.Chemscore.Internal_Hbond>
0.0000

> <Gold.Chemscore.DEClash>
0.1109

> <Gold.Chemscore.DEInternal>
0.8526

> <Gold.Chemscore.Rot>
2.2546

> <Gold.Chemscore.Internal.Correction>
   9.000000E+99

> <Gold.Chemscore.Hbonds>
donor molecule, donor type, donor heavy atom, donor atom, acceptor molecule, acceptor atom, score
      L1  H     2    23       P1  7957  0.39
      L1  H     8    37       P1  8028  0.97
      P1  H  7997  8009       L1    18  0.19

> <Gold.Chemscore.Hbond.Weighted>
-9.5404

> <Gold.Chemscore.Metal.Weighted>
-0.0000

> <Gold.Chemscore.Lipo.Weighted>
-13.2882

> <Gold.Chemscore.Internal_Hbond.Weighted>
0.0000

> <Gold.Chemscore.DEClash.Weighted>
0.1109

> <Gold.Chemscore.DEInternal.Weighted>
0.8526

> <Gold.Chemscore.Rot.Weighted>
5.7719

> <Gold.Chemscore.Internal.Correction.Weighted>
   9.000000E+99

> <Gold.Protein.RotatedTorsions>
[ 6907 6896 6895 6894 ] final  119.14 input  -60.11 | X-H torsion
[ 7974 7965 7964 7962 ] final  178.38 input  175.53 | X-H torsion
[ 8008 7997 7996 7995 ] final -145.38 input   59.86 | X-H torsion
[ 10167 10162 10161 10158 ] final  -29.15 input  -65.29 | X-H torsion
[ 10718 10713 10712 10709 ] final  -82.70 input   66.30 | X-H torsion
[ 10763 10752 10751 10750 ] final  176.51 input  -60.55 | X-H torsion
[ 11005 11000 10999 10996 ] final   88.53 input  -57.11 | X-H torsion

> <Gold.Protein.ActiveResidues>
 VAL166  LYS551  ARG553  GLY616  TRP617  ASP618  TYR619  PRO620  LYS621  CYS622 
 ASP623  PHE694  ASN695  SER759  ASP760  ASP761  ALA762  ILE779  LEU786  VAL792 
 PHE793  MET794  SER795  GLU796  ALA797  LYS798  CYS799  TRP800  GLU811  SER814 

> <Gold.Protein.RotatedAtoms>
  152.4493  133.7597  159.6739 H   0  0  0  0  0  0  0  0  0  0  0  0  # atno 6907 bound_to 6896
  150.8401  133.7940  159.3070 H   0  0  0  0  0  0  0  0  0  0  0  0  # atno 6908 bound_to 6896
  151.5568  135.1069  160.0015 H   0  0  0  0  0  0  0  0  0  0  0  0  # atno 6909 bound_to 6896
  144.7157  140.0389  143.6438 H   0  0  0  0  0  0  0  0  0  0  0  0  # atno 7974 bound_to 7965
  155.5423  140.0609  157.2867 H   0  0  0  0  0  0  0  0  0  0  0  0  # atno 8008 bound_to 7997
  154.4448  140.1917  156.0647 H   0  0  0  0  0  0  0  0  0  0  0  0  # atno 8009 bound_to 7997
  156.0576  140.3276  155.7427 H   0  0  0  0  0  0  0  0  0  0  0  0  # atno 8010 bound_to 7997
  140.7263  143.3952  151.1360 H   0  0  0  0  0  0  0  0  0  0  0  0  # atno 10167 bound_to 10162
  156.0029  130.4642  150.4145 H   0  0  0  0  0  0  0  0  0  0  0  0  # atno 10718 bound_to 10713
  154.4820  135.2775  155.1563 H   0  0  0  0  0  0  0  0  0  0  0  0  # atno 10763 bound_to 10752
  154.3269  135.6198  153.5537 H   0  0  0  0  0  0  0  0  0  0  0  0  # atno 10764 bound_to 10752
  152.9876  135.5756  154.5223 H   0  0  0  0  0  0  0  0  0  0  0  0  # atno 10765 bound_to 10752
  139.8894  134.8493  156.3014 H   0  0  0  0  0  0  0  0  0  0  0  0  # atno 11005 bound_to 11000
  146.0040  139.3114  143.0910 LP  0  0  0  0  0  0  0  0  0  0  0  0  # atno 17320 bound_to 7965
  145.8760  140.9391  143.0626 LP  0  0  0  0  0  0  0  0  0  0  0  0  # atno 17321 bound_to 7965
  139.7563  143.8702  152.3089 LP  0  0  0  0  0  0  0  0  0  0  0  0  # atno 17342 bound_to 10162
  139.8573  144.7135  150.9142 LP  0  0  0  0  0  0  0  0  0  0  0  0  # atno 17343 bound_to 10162
  157.2205  131.0481  151.2549 LP  0  0  0  0  0  0  0  0  0  0  0  0  # atno 17370 bound_to 10713
  157.3805  130.7228  149.6626 LP  0  0  0  0  0  0  0  0  0  0  0  0  # atno 17371 bound_to 10713
  140.9911  133.7208  156.0815 LP  0  0  0  0  0  0  0  0  0  0  0  0  # atno 17394 bound_to 11000
  140.7624  134.3925  157.5523 LP  0  0  0  0  0  0  0  0  0  0  0  0  # atno 17395 bound_to 11000

$$$$
