AV-unprocessed.smi:651|AV-procd|sdf|3190|dock10
  -GOLD-   22720 0113D 1   1.00000     0.00000
 Structure written by MMmdl.
 39 40  0  0  0  0  0  0  0  0  2 V2000
  143.8304  132.0716  150.1914 C   0  0  0  0  0  0  0  0  0  0  0  0
  144.4136  133.3404  150.7767 C   0  0  0  0  0  0  0  0  0  0  0  0
  145.7588  133.4256  151.1945 C   0  0  0  0  0  0  0  0  0  0  0  0
  146.2392  134.6406  151.7259 C   0  0  0  0  0  0  0  0  0  0  0  0
  145.3659  135.7462  151.8283 C   0  0  0  0  0  0  0  0  0  0  0  0
  145.8566  137.0712  152.3898 C   0  0  0  0  0  0  0  0  0  0  0  0
  146.3466  136.9450  153.8376 C   0  0  0  0  0  0  0  0  0  0  0  0
  146.0019  135.9997  154.5485 O   0  0  0  0  0  0  0  0  0  0  0  0
  147.1708  137.9157  154.2593 N   0  0  0  0  0  0  0  0  0  0  0  0
  147.7696  137.9928  155.5935 C   0  0  2  0  0  0  0  0  0  0  0  0
  147.0819  139.0762  156.4473 C   0  0  0  0  0  0  0  0  0  0  0  0
  148.1934  139.8662  157.1479 C   0  0  0  0  0  0  0  0  0  0  0  0
  149.4707  139.0471  156.9509 C   0  0  0  0  0  0  0  0  0  0  0  0
  149.2905  138.3116  155.6144 C   0  0  2  0  0  0  0  0  0  0  0  0
  149.8006  139.1750  154.4400 C   0  0  0  0  0  0  0  0  0  0  0  0
  149.6266  138.6849  153.2101 N   0  0  0  0  0  0  0  0  0  0  0  0
  150.3335  140.2663  154.6349 O   0  0  0  0  0  0  0  0  0  0  0  0
  144.0302  135.6013  151.3947 C   0  0  0  0  0  0  0  0  0  0  0  0
  143.6089  134.4209  150.8908 N   0  3  0  0  0  0  0  0  0  0  0  0
  144.3535  131.1937  150.5717 H   0  0  0  0  0  0  0  0  0  0  0  0
  143.9213  132.0815  149.1051 H   0  0  0  0  0  0  0  0  0  0  0  0
  142.7748  131.9735  150.4477 H   0  0  0  0  0  0  0  0  0  0  0  0
  146.4167  132.5731  151.1076 H   0  0  0  0  0  0  0  0  0  0  0  0
  147.2676  134.7228  152.0466 H   0  0  0  0  0  0  0  0  0  0  0  0
  146.6691  137.4507  151.7687 H   0  0  0  0  0  0  0  0  0  0  0  0
  145.0524  137.8070  152.3441 H   0  0  0  0  0  0  0  0  0  0  0  0
  147.4113  138.6521  153.6113 H   0  0  0  0  0  0  0  0  0  0  0  0
  147.6195  137.0348  156.0954 H   0  0  0  0  0  0  0  0  0  0  0  0
  146.4719  139.7505  155.8442 H   0  0  0  0  0  0  0  0  0  0  0  0
  146.4177  138.6125  157.1775 H   0  0  0  0  0  0  0  0  0  0  0  0
  148.3036  140.8429  156.6751 H   0  0  0  0  0  0  0  0  0  0  0  0
  147.9764  140.0396  158.2022 H   0  0  0  0  0  0  0  0  0  0  0  0
  150.3650  139.6714  156.9847 H   0  0  0  0  0  0  0  0  0  0  0  0
  149.5622  138.3153  157.7545 H   0  0  0  0  0  0  0  0  0  0  0  0
  149.8601  137.3805  155.6249 H   0  0  0  0  0  0  0  0  0  0  0  0
  149.9331  139.2155  152.4074 H   0  0  0  0  0  0  0  0  0  0  0  0
  149.1786  137.7883  153.0870 H   0  0  0  0  0  0  0  0  0  0  0  0
  143.2926  136.3901  151.4296 H   0  0  0  0  0  0  0  0  0  0  0  0
  142.6401  134.3418  150.5810 H   0  0  0  0  0  0  0  0  0  0  0  0
  1  2  1  0  0  0  0
  1 20  1  0  0  0  0
  1 21  1  0  0  0  0
  1 22  1  0  0  0  0
  2 19  1  0  0  0  0
  2  3  2  0  0  0  0
  3  4  1  0  0  0  0
  3 23  1  0  0  0  0
  4  5  2  0  0  0  0
  4 24  1  0  0  0  0
  5  6  1  0  0  0  0
  5 18  1  0  0  0  0
  6  7  1  0  0  0  0
  6 25  1  0  0  0  0
  6 26  1  0  0  0  0
  7  8  2  0  0  0  0
  7  9  1  0  0  0  0
  9 10  1  0  0  0  0
  9 27  1  0  0  0  0
 10 14  1  0  0  0  0
 10 11  1  0  0  0  0
 10 28  1  0  0  0  0
 11 12  1  0  0  0  0
 11 29  1  0  0  0  0
 11 30  1  0  0  0  0
 12 13  1  0  0  0  0
 12 31  1  0  0  0  0
 12 32  1  0  0  0  0
 13 14  1  0  0  0  0
 13 33  1  0  0  0  0
 13 34  1  0  0  0  0
 14 15  1  0  0  0  0
 14 35  1  0  0  0  0
 15 16  1  0  0  0  0
 15 17  2  0  0  0  0
 16 36  1  0  0  0  0
 16 37  1  0  0  0  0
 18 19  2  0  0  0  0
 18 38  1  0  0  0  0
 19 39  1  0  0  0  0
M  CHG  1  19   1
M  END
> <s_m_source_file>
AV-unprocessed.smi

> <i_m_source_file_index>
651

> <i_lp_mmshare_version>
43012

> <i_f3d_flags>
0

> <s_epik_input>
W0NIM11jMVtjSF1bY0hdYyhbY0hdbjEpW0NIMl1DKD1PKVtOSF1bQ0BASF0yW0NIMl1bQ0gyXVtDSDJdW0NASF0yQyg9TylbTkgyXQ==

> <s_epik_cmdline>
J2VwaWtfcHl0aG9uJywgJy1waCcsICc3LjAnLCAnLXRuJywgJzgnLCAnLW1hJywgJzIwMCcsICctbWV0YWxfYmluZGluZycsICctaW1hZScsICc8aW5maWxlLm1hZT4nLCAnLW9tYWUnLCAnPG91dGZpbGUubWFlPic=

> <r_epik_Ionization_Penalty>
2.14971

> <r_epik_Ionization_Penalty_Charging>
2.14971

> <r_epik_Ionization_Penalty_Neutral>
1.65229e-07

> <r_epik_State_Penalty>
2.28946

> <r_epik_Charging_Adjusted_Penalty>
4.43917

> <i_epik_Tot_Q>
1

> <i_epik_Tot_abs_Q>
1

> <r_epik_Metal_State_Penalty>
2.30508

> <b_epik_Metal_Only>
0

> <s_lp_Force_Field>
OPLS_2005

> <r_lp_Energy>
19.6238

> <b_lp_Chiralities_Consistent>
1

> <s_lp_Variant>
AV-unprocessed.smi:651-7

> <Gold.Version>
5.8.1

> <Gold.Id.Protein>
6NUR|6NUR_protein|mol2

> <Gold.PLP.Fitness>
39.5256

> <Gold.PLP.PLP>
-25.8763

> <Gold.PLP.part.hbond>
-3.7383

> <Gold.PLP.part.metal>
0.0000

> <Gold.PLP.part.buried>
-3.8327

> <Gold.PLP.part.nonpolar>
-17.8735

> <Gold.PLP.part.repulsive>
0.2508

> <Gold.PLP.ligand.clash>
0.0000

> <Gold.PLP.ligand.torsion>
0.4683

> <Gold.PLP.Chemscore.Hbond>
4.8560

> <Gold.PLP.Chemscore.CHOScore>
0.0000

> <Gold.PLP.Chemscore.Metal>
0.0000

> <Gold.Chemscore.Hbonds>
donor molecule, donor type, donor heavy atom, donor atom, acceptor molecule, acceptor atom, score
      L1  H    16    36       P1  7957  0.96
      L1  H    16    37       P1  7948  0.86
      L1  H    19    39       P1 10186  2.00
      P1  H  7989  7998       L1    17  1.00

> <Gold.PLP.Chemscore.Internal.Correction>
0.0178

> <Gold.Rescore>
     Score         DG    S(hbond)    S(metal)    S(lipo)     H(rot)  DE(clash)    DE(int)     intcor
     15.41     -17.42       3.43        0.00      48.78       2.04       0.03       1.98       ----

> <Gold.Chemscore.Fitness>
15.4109

> <Gold.Chemscore.DG>
-17.4223

> <Gold.Chemscore.ZeroCoef>
-5.4800

> <Gold.Chemscore.Hbond>
3.4292

> <Gold.Chemscore.Metal>
0.0000

> <Gold.Chemscore.Lipo>
48.7838

> <Gold.Chemscore.Internal_Hbond>
0.0000

> <Gold.Chemscore.DEClash>
0.0297

> <Gold.Chemscore.DEInternal>
1.9817

> <Gold.Chemscore.Rot>
2.0386

> <Gold.Chemscore.Internal.Correction>
   9.000000E+99

> <Gold.Chemscore.Hbonds>
donor molecule, donor type, donor heavy atom, donor atom, acceptor molecule, acceptor atom, score
      L1  H    16    36       P1  7957  0.65
      L1  H    16    37       P1  7948  0.83
      L1  H    19    39       P1 10186  0.50
      P1  H  7989  7998       L1    17  0.96

> <Gold.Chemscore.Hbond.Weighted>
-11.4534

> <Gold.Chemscore.Metal.Weighted>
-0.0000

> <Gold.Chemscore.Lipo.Weighted>
-5.7077

> <Gold.Chemscore.Internal_Hbond.Weighted>
0.0000

> <Gold.Chemscore.DEClash.Weighted>
0.0297

> <Gold.Chemscore.DEInternal.Weighted>
1.9817

> <Gold.Chemscore.Rot.Weighted>
5.2188

> <Gold.Chemscore.Internal.Correction.Weighted>
   9.000000E+99

> <Gold.Protein.RotatedTorsions>
[ 6907 6896 6895 6894 ] final  -55.59 input  -60.11 | X-H torsion
[ 7974 7965 7964 7962 ] final   86.67 input  175.53 | X-H torsion
[ 8008 7997 7996 7995 ] final    5.16 input   59.86 | X-H torsion
[ 10167 10162 10161 10158 ] final   72.89 input  -65.29 | X-H torsion
[ 10718 10713 10712 10709 ] final  100.77 input   66.30 | X-H torsion
[ 10763 10752 10751 10750 ] final   -5.89 input  -60.55 | X-H torsion
[ 11005 11000 10999 10996 ] final   -9.35 input  -57.11 | X-H torsion

> <Gold.Protein.ActiveResidues>
 VAL166  LYS551  ARG553  GLY616  TRP617  ASP618  TYR619  PRO620  LYS621  CYS622 
 ASP623  PHE694  ASN695  SER759  ASP760  ASP761  ALA762  ILE779  LEU786  VAL792 
 PHE793  MET794  SER795  GLU796  ALA797  LYS798  CYS799  TRP800  GLU811  SER814 

> <Gold.Protein.RotatedAtoms>
  150.8239  134.7460  159.6795 H   0  0  0  0  0  0  0  0  0  0  0  0  # atno 6907 bound_to 6896
  152.4352  134.5697  159.9927 H   0  0  0  0  0  0  0  0  0  0  0  0  # atno 6908 bound_to 6896
  151.5874  133.3333  159.3057 H   0  0  0  0  0  0  0  0  0  0  0  0  # atno 6909 bound_to 6896
  145.5692  139.2312  143.2415 H   0  0  0  0  0  0  0  0  0  0  0  0  # atno 7974 bound_to 7965
  154.7249  140.2719  155.6507 H   0  0  0  0  0  0  0  0  0  0  0  0  # atno 8008 bound_to 7997
  156.2834  140.2727  156.1857 H   0  0  0  0  0  0  0  0  0  0  0  0  # atno 8009 bound_to 7997
  155.0457  140.0371  157.2515 H   0  0  0  0  0  0  0  0  0  0  0  0  # atno 8010 bound_to 7997
  140.0304  144.5470  150.7512 H   0  0  0  0  0  0  0  0  0  0  0  0  # atno 10167 bound_to 10162
  157.6846  131.0707  150.5150 H   0  0  0  0  0  0  0  0  0  0  0  0  # atno 10718 bound_to 10713
  153.4048  135.7006  153.6400 H   0  0  0  0  0  0  0  0  0  0  0  0  # atno 10763 bound_to 10752
  153.4919  135.3671  155.2496 H   0  0  0  0  0  0  0  0  0  0  0  0  # atno 10764 bound_to 10752
  154.8713  135.4091  154.3389 H   0  0  0  0  0  0  0  0  0  0  0  0  # atno 10765 bound_to 10752
  140.7332  133.8731  155.8909 H   0  0  0  0  0  0  0  0  0  0  0  0  # atno 11005 bound_to 11000
  146.1796  140.6518  142.9195 LP  0  0  0  0  0  0  0  0  0  0  0  0  # atno 17320 bound_to 7965
  144.7446  140.5033  143.6845 LP  0  0  0  0  0  0  0  0  0  0  0  0  # atno 17321 bound_to 7965
  140.7304  143.2683  151.3970 LP  0  0  0  0  0  0  0  0  0  0  0  0  # atno 17342 bound_to 10162
  139.6080  144.1157  152.2269 LP  0  0  0  0  0  0  0  0  0  0  0  0  # atno 17343 bound_to 10162
  156.5466  130.4221  149.6128 LP  0  0  0  0  0  0  0  0  0  0  0  0  # atno 17370 bound_to 10713
  156.2939  130.7139  151.1995 LP  0  0  0  0  0  0  0  0  0  0  0  0  # atno 17371 bound_to 10713
  140.9902  134.1289  157.4415 LP  0  0  0  0  0  0  0  0  0  0  0  0  # atno 17394 bound_to 11000
  139.8821  135.0038  156.6209 LP  0  0  0  0  0  0  0  0  0  0  0  0  # atno 17395 bound_to 11000

$$$$
