AV-unprocessed.smi:1929|AV-procd|sdf|7804|dock5
  -GOLD-   22720 9543D 1   1.00000     0.00000
 Structure written by MMmdl.
 44 45  0  0  0  0  0  0  0  0  3 V2000
  149.1213  132.6375  153.5243 C   0  0  0  0  0  0  0  0  0  0  0  0
  148.6894  133.9772  153.8934 N   0  0  0  0  0  0  0  0  0  0  0  0
  148.5429  134.3998  155.1567 C   0  0  0  0  0  0  0  0  0  0  0  0
  148.7708  133.6895  156.1367 O   0  0  0  0  0  0  0  0  0  0  0  0
  148.0850  135.8504  155.3390 C   0  0  0  0  0  0  0  0  0  0  0  0
  149.0231  136.8339  154.7391 N   0  3  2  0  0  0  0  0  0  0  0  0
  150.3521  136.8525  155.4067 C   0  0  0  0  0  0  0  0  0  0  0  0
  151.3320  137.7773  154.6644 C   0  0  0  0  0  0  0  0  0  0  0  0
  150.7784  139.2093  154.5198 C   0  0  2  0  0  0  0  0  0  0  0  0
  150.7469  139.9183  155.7993 N   0  0  0  0  0  0  0  0  0  0  0  0
  151.7886  140.0593  156.6327 C   0  0  0  0  0  0  0  0  0  0  0  0
  152.8969  139.5701  156.4182 O   0  0  0  0  0  0  0  0  0  0  0  0
  151.4511  140.7781  157.7178 N   0  0  0  0  0  0  0  0  0  0  0  0
  152.2636  141.1637  158.8198 C   0  0  0  0  0  0  0  0  0  0  0  0
  153.2083  140.2246  159.2911 C   0  0  0  0  0  0  0  0  0  0  0  0
  154.0274  140.5521  160.3907 C   0  0  0  0  0  0  0  0  0  0  0  0
  153.8987  141.7548  160.9905 N   0  3  0  0  0  0  0  0  0  0  0  0
  153.0025  142.6797  160.5852 C   0  0  0  0  0  0  0  0  0  0  0  0
  152.1557  142.4090  159.4911 C   0  0  0  0  0  0  0  0  0  0  0  0
  149.3724  139.1595  153.8969 C   0  0  0  0  0  0  0  0  0  0  0  0
  148.4369  138.1957  154.6506 C   0  0  0  0  0  0  0  0  0  0  0  0
  149.1349  132.5367  152.4391 H   0  0  0  0  0  0  0  0  0  0  0  0
  148.4428  131.8845  153.9278 H   0  0  0  0  0  0  0  0  0  0  0  0
  150.1262  132.4368  153.8983 H   0  0  0  0  0  0  0  0  0  0  0  0
  148.4906  134.6206  153.1406 H   0  0  0  0  0  0  0  0  0  0  0  0
  147.1103  135.9308  154.8562 H   0  0  0  0  0  0  0  0  0  0  0  0
  147.9311  136.0761  156.3958 H   0  0  0  0  0  0  0  0  0  0  0  0
  150.2369  137.1767  156.4421 H   0  0  0  0  0  0  0  0  0  0  0  0
  150.7708  135.8461  155.4397 H   0  0  0  0  0  0  0  0  0  0  0  0
  152.2972  137.7844  155.1719 H   0  0  0  0  0  0  0  0  0  0  0  0
  151.5205  137.3674  153.6711 H   0  0  0  0  0  0  0  0  0  0  0  0
  151.4267  139.7701  153.8439 H   0  0  0  0  0  0  0  0  0  0  0  0
  149.8734  140.3549  156.0558 H   0  0  0  0  0  0  0  0  0  0  0  0
  150.4806  141.0474  157.7842 H   0  0  0  0  0  0  0  0  0  0  0  0
  153.3113  139.2606  158.8139 H   0  0  0  0  0  0  0  0  0  0  0  0
  154.7749  139.8922  160.8063 H   0  0  0  0  0  0  0  0  0  0  0  0
  152.9849  143.6014  161.1485 H   0  0  0  0  0  0  0  0  0  0  0  0
  151.4353  143.1575  159.2004 H   0  0  0  0  0  0  0  0  0  0  0  0
  148.9363  140.1588  153.8653 H   0  0  0  0  0  0  0  0  0  0  0  0
  149.4544  138.8336  152.8589 H   0  0  0  0  0  0  0  0  0  0  0  0
  147.4799  138.1502  154.1294 H   0  0  0  0  0  0  0  0  0  0  0  0
  148.2314  138.5704  155.6546 H   0  0  0  0  0  0  0  0  0  0  0  0
  149.1760  136.5283  153.7880 H   0  0  0  0  0  0  0  0  0  0  0  0
  154.5000  141.9721  161.7857 H   0  0  0  0  0  0  0  0  0  0  0  0
  1  2  1  0  0  0  0
  1 22  1  0  0  0  0
  1 23  1  0  0  0  0
  1 24  1  0  0  0  0
  2  3  1  0  0  0  0
  2 25  1  0  0  0  0
  3  4  2  0  0  0  0
  3  5  1  0  0  0  0
  5  6  1  0  0  0  0
  5 26  1  0  0  0  0
  5 27  1  0  0  0  0
  6 21  1  0  0  0  0
  6  7  1  0  0  0  0
  6 43  1  0  0  0  0
  7  8  1  0  0  0  0
  7 28  1  0  0  0  0
  7 29  1  0  0  0  0
  8  9  1  0  0  0  0
  8 30  1  0  0  0  0
  8 31  1  0  0  0  0
  9 10  1  0  0  0  0
  9 20  1  0  0  0  0
  9 32  1  0  0  0  0
 10 11  1  0  0  0  0
 10 33  1  0  0  0  0
 11 12  2  0  0  0  0
 11 13  1  0  0  0  0
 13 14  1  0  0  0  0
 13 34  1  0  0  0  0
 14 19  1  0  0  0  0
 14 15  2  0  0  0  0
 15 16  1  0  0  0  0
 15 35  1  0  0  0  0
 16 17  2  0  0  0  0
 16 36  1  0  0  0  0
 17 18  1  0  0  0  0
 17 44  1  0  0  0  0
 18 19  2  0  0  0  0
 18 37  1  0  0  0  0
 19 38  1  0  0  0  0
 20 21  1  0  0  0  0
 20 39  1  0  0  0  0
 20 40  1  0  0  0  0
 21 41  1  0  0  0  0
 21 42  1  0  0  0  0
M  CHG  1   6   1
M  CHG  1  17   1
M  END
> <s_m_source_file>
AV-unprocessed.smi

> <i_m_source_file_index>
1929

> <i_lp_mmshare_version>
43012

> <i_f3d_flags>
0

> <s_epik_input>
W0NIM11bTkhdQyg9TylbQ0gyXU4xW0NIMl1bQ0gyXVtDSF0oW0NIMl1bQ0gyXTEpW05IXUMoPU8pW05IXWMyW2NIXVtjSF1uW2NIXVtjSF0y

> <s_epik_cmdline>
J2VwaWtfcHl0aG9uJywgJy1waCcsICc3LjAnLCAnLXRuJywgJzgnLCAnLW1hJywgJzIwMCcsICctbWV0YWxfYmluZGluZycsICctaW1hZScsICc8aW5maWxlLm1hZT4nLCAnLW9tYWUnLCAnPG91dGZpbGUubWFlPic=

> <r_epik_Ionization_Penalty>
1.97435

> <r_epik_Ionization_Penalty_Charging>
1.97431

> <r_epik_Ionization_Penalty_Neutral>
3.89585e-05

> <r_epik_State_Penalty>
2.00691

> <r_epik_Charging_Adjusted_Penalty>
3.98122

> <i_epik_Tot_Q>
2

> <i_epik_Tot_abs_Q>
2

> <r_epik_Metal_State_Penalty>
2.11022

> <b_epik_Metal_Only>
0

> <s_lp_Force_Field>
OPLS_2005

> <r_lp_Energy>
26.8992

> <b_lp_Chiralities_Consistent>
1

> <s_lp_Variant>
AV-unprocessed.smi:1929-6

> <Gold.Version>
5.8.1

> <Gold.Id.Protein>
6NUR|6NUR_protein|mol2

> <Gold.PLP.Fitness>
45.1537

> <Gold.PLP.PLP>
-33.8494

> <Gold.PLP.part.hbond>
-3.0000

> <Gold.PLP.part.metal>
0.0000

> <Gold.PLP.part.buried>
-2.0114

> <Gold.PLP.part.nonpolar>
-28.8589

> <Gold.PLP.part.repulsive>
0.1780

> <Gold.PLP.ligand.clash>
0.0000

> <Gold.PLP.ligand.torsion>
0.3612

> <Gold.PLP.Chemscore.Hbond>
4.0000

> <Gold.PLP.Chemscore.CHOScore>
0.0000

> <Gold.PLP.Chemscore.Metal>
0.0000

> <Gold.Chemscore.Hbonds>
donor molecule, donor type, donor heavy atom, donor atom, acceptor molecule, acceptor atom, score
      L1  H     2    25       P1  7948  0.91
      L1  H     6    43       P1  7948  2.00
      P1  H  7997  8009       L1    12  1.00

> <Gold.PLP.Chemscore.Internal.Correction>
0.0268

> <Gold.Rescore>
     Score         DG    S(hbond)    S(metal)    S(lipo)     H(rot)  DE(clash)    DE(int)     intcor
     16.70     -20.63       2.84        0.00      85.86       1.71       1.61       2.32       ----

> <Gold.Chemscore.Fitness>
16.6975

> <Gold.Chemscore.DG>
-20.6296

> <Gold.Chemscore.ZeroCoef>
-5.4800

> <Gold.Chemscore.Hbond>
2.8405

> <Gold.Chemscore.Metal>
0.0000

> <Gold.Chemscore.Lipo>
85.8644

> <Gold.Chemscore.Internal_Hbond>
0.0000

> <Gold.Chemscore.DEClash>
1.6094

> <Gold.Chemscore.DEInternal>
2.3228

> <Gold.Chemscore.Rot>
1.7124

> <Gold.Chemscore.Internal.Correction>
   9.000000E+99

> <Gold.Chemscore.Hbonds>
donor molecule, donor type, donor heavy atom, donor atom, acceptor molecule, acceptor atom, score
      L1  H     2    25       P1  7948  0.38
      L1  H     6    43       P1  7948  0.97
      P1  H  7997  8009       L1    12  0.94

> <Gold.Chemscore.Hbond.Weighted>
-9.4873

> <Gold.Chemscore.Metal.Weighted>
-0.0000

> <Gold.Chemscore.Lipo.Weighted>
-10.0461

> <Gold.Chemscore.Internal_Hbond.Weighted>
0.0000

> <Gold.Chemscore.DEClash.Weighted>
1.6094

> <Gold.Chemscore.DEInternal.Weighted>
2.3228

> <Gold.Chemscore.Rot.Weighted>
4.3838

> <Gold.Chemscore.Internal.Correction.Weighted>
   9.000000E+99

> <Gold.Protein.RotatedTorsions>
[ 6907 6896 6895 6894 ] final  -56.06 input  -60.11 | X-H torsion
[ 7974 7965 7964 7962 ] final -127.93 input  175.53 | X-H torsion
[ 8008 7997 7996 7995 ] final -159.94 input   59.86 | X-H torsion
[ 10167 10162 10161 10158 ] final   52.46 input  -65.29 | X-H torsion
[ 10718 10713 10712 10709 ] final   31.26 input   66.30 | X-H torsion
[ 10763 10752 10751 10750 ] final -174.68 input  -60.55 | X-H torsion
[ 11005 11000 10999 10996 ] final  172.48 input  -57.11 | X-H torsion

> <Gold.Protein.ActiveResidues>
 VAL166  LYS551  ARG553  GLY616  TRP617  ASP618  TYR619  PRO620  LYS621  CYS622 
 ASP623  PHE694  ASN695  SER759  ASP760  ASP761  ALA762  ILE779  LEU786  VAL792 
 PHE793  MET794  SER795  GLU796  ALA797  LYS798  CYS799  TRP800  GLU811  SER814 

> <Gold.Protein.RotatedAtoms>
  150.8199  134.7401  159.6762 H   0  0  0  0  0  0  0  0  0  0  0  0  # atno 6907 bound_to 6896
  152.4316  134.5764  159.9945 H   0  0  0  0  0  0  0  0  0  0  0  0  # atno 6908 bound_to 6896
  151.5951  133.3325  159.3071 H   0  0  0  0  0  0  0  0  0  0  0  0  # atno 6909 bound_to 6896
  144.9721  140.7556  143.4664 H   0  0  0  0  0  0  0  0  0  0  0  0  # atno 7974 bound_to 7965
  155.7700  140.0850  157.2113 H   0  0  0  0  0  0  0  0  0  0  0  0  # atno 8008 bound_to 7997
  154.3997  140.1527  156.2988 H   0  0  0  0  0  0  0  0  0  0  0  0  # atno 8009 bound_to 7997
  155.8756  140.3423  155.5854 H   0  0  0  0  0  0  0  0  0  0  0  0  # atno 8010 bound_to 7997
  140.2511  144.3478  150.6348 H   0  0  0  0  0  0  0  0  0  0  0  0  # atno 10167 bound_to 10162
  157.2702  130.7204  149.6500 H   0  0  0  0  0  0  0  0  0  0  0  0  # atno 10718 bound_to 10713
  154.5934  135.2847  155.0612 H   0  0  0  0  0  0  0  0  0  0  0  0  # atno 10763 bound_to 10752
  154.1904  135.6441  153.5062 H   0  0  0  0  0  0  0  0  0  0  0  0  # atno 10764 bound_to 10752
  153.0129  135.5445  154.6627 H   0  0  0  0  0  0  0  0  0  0  0  0  # atno 10765 bound_to 10752
  140.3301  134.7364  157.4128 H   0  0  0  0  0  0  0  0  0  0  0  0  # atno 11005 bound_to 11000
  145.2544  139.2018  143.4925 LP  0  0  0  0  0  0  0  0  0  0  0  0  # atno 17320 bound_to 7965
  146.3385  140.2462  142.8597 LP  0  0  0  0  0  0  0  0  0  0  0  0  # atno 17321 bound_to 7965
  140.6040  143.2167  151.7017 LP  0  0  0  0  0  0  0  0  0  0  0  0  # atno 17342 bound_to 10162
  139.5046  144.3748  152.0434 LP  0  0  0  0  0  0  0  0  0  0  0  0  # atno 17343 bound_to 10162
  155.9663  130.4370  150.5157 LP  0  0  0  0  0  0  0  0  0  0  0  0  # atno 17370 bound_to 10713
  157.3080  131.0658  151.2021 LP  0  0  0  0  0  0  0  0  0  0  0  0  # atno 17371 bound_to 10713
  140.0868  134.5656  155.8485 LP  0  0  0  0  0  0  0  0  0  0  0  0  # atno 17394 bound_to 11000
  141.2065  133.6656  156.6248 LP  0  0  0  0  0  0  0  0  0  0  0  0  # atno 17395 bound_to 11000

$$$$
