AV-unprocessed.smi:1521|AV-procd|sdf|6131|dock9
  -GOLD-   22720 6273D 1   1.00000     0.00000
 Structure written by MMmdl.
 36 37  0  0  0  0  0  0  0  0  1 V2000
  150.3005  137.8483  159.3372 O   0  0  0  0  0  0  0  0  0  0  0  0
  149.2864  138.1379  158.7030 C   0  0  0  0  0  0  0  0  0  0  0  0
  148.2698  137.2855  158.5107 N   0  0  0  0  0  0  0  0  0  0  0  0
  148.1988  135.9268  159.0387 C   0  0  0  0  0  0  0  0  0  0  0  0
  147.3496  135.8636  160.3197 C   0  0  1  0  0  0  0  0  0  0  0  0
  147.3964  134.4683  160.9744 C   0  0  0  0  0  0  0  0  0  0  0  0
  146.6195  134.4822  162.1651 O   0  0  0  0  0  0  0  0  0  0  0  0
  147.1171  135.4341  163.0956 C   0  0  0  0  0  0  0  0  0  0  0  0
  147.0829  136.8296  162.4519 C   0  0  0  0  0  0  0  0  0  0  0  0
  147.8558  136.8059  161.2598 O   0  0  0  0  0  0  0  0  0  0  0  0
  149.0257  139.3294  158.1341 N   0  0  0  0  0  0  0  0  0  0  0  0
  149.8176  140.4896  158.0940 C   0  0  0  0  0  0  0  0  0  0  0  0
  150.9286  140.7003  158.8475 C   0  0  0  0  0  0  0  0  0  0  0  0
  151.7089  141.9222  158.7474 C   0  0  0  0  0  0  0  0  0  0  0  0
  152.9036  142.1768  159.6531 C   0  0  0  0  0  0  0  0  0  0  0  0
  153.9825  142.4384  158.9165 F   0  0  0  0  0  0  0  0  0  0  0  0
  152.6895  143.2163  160.4607 F   0  0  0  0  0  0  0  0  0  0  0  0
  153.1658  141.1088  160.4063 F   0  0  0  0  0  0  0  0  0  0  0  0
  151.2694  142.8449  157.8717 C   0  0  0  0  0  0  0  0  0  0  0  0
  150.1407  142.6277  157.0785 N   0  0  0  0  0  0  0  0  0  0  0  0
  149.3820  141.5099  157.1259 C   0  0  0  0  0  0  0  0  0  0  0  0
  148.4007  141.3941  156.3924 O   0  0  0  0  0  0  0  0  0  0  0  0
  149.8835  143.3625  156.4352 H   0  0  0  0  0  0  0  0  0  0  0  0
  147.4739  137.6079  157.9802 H   0  0  0  0  0  0  0  0  0  0  0  0
  147.7463  135.3014  158.2690 H   0  0  0  0  0  0  0  0  0  0  0  0
  149.1965  135.5211  159.2161 H   0  0  0  0  0  0  0  0  0  0  0  0
  146.3155  136.1133  160.0738 H   0  0  0  0  0  0  0  0  0  0  0  0
  146.9881  133.7168  160.2983 H   0  0  0  0  0  0  0  0  0  0  0  0
  148.4230  134.1738  161.1991 H   0  0  0  0  0  0  0  0  0  0  0  0
  146.4980  135.4146  163.9927 H   0  0  0  0  0  0  0  0  0  0  0  0
  148.1318  135.1706  163.3985 H   0  0  0  0  0  0  0  0  0  0  0  0
  146.0583  137.1333  162.2317 H   0  0  0  0  0  0  0  0  0  0  0  0
  147.4998  137.5722  163.1325 H   0  0  0  0  0  0  0  0  0  0  0  0
  148.1170  139.4296  157.7059 H   0  0  0  0  0  0  0  0  0  0  0  0
  151.2842  139.9520  159.5367 H   0  0  0  0  0  0  0  0  0  0  0  0
  151.7351  143.8068  157.7154 H   0  0  0  0  0  0  0  0  0  0  0  0
  1  2  2  0  0  0  0
  2  3  1  0  0  0  0
  2 11  1  0  0  0  0
  3  4  1  0  0  0  0
  3 24  1  0  0  0  0
  4  5  1  0  0  0  0
  4 25  1  0  0  0  0
  4 26  1  0  0  0  0
  5 10  1  0  0  0  0
  5  6  1  0  0  0  0
  5 27  1  0  0  0  0
  6  7  1  0  0  0  0
  6 28  1  0  0  0  0
  6 29  1  0  0  0  0
  7  8  1  0  0  0  0
  8  9  1  0  0  0  0
  8 30  1  0  0  0  0
  8 31  1  0  0  0  0
  9 10  1  0  0  0  0
  9 32  1  0  0  0  0
  9 33  1  0  0  0  0
 11 12  1  0  0  0  0
 11 34  1  0  0  0  0
 12 21  1  0  0  0  0
 12 13  2  0  0  0  0
 13 14  1  0  0  0  0
 13 35  1  0  0  0  0
 14 15  1  0  0  0  0
 14 19  2  0  0  0  0
 15 16  1  0  0  0  0
 15 17  1  0  0  0  0
 15 18  1  0  0  0  0
 19 20  1  0  0  0  0
 19 36  1  0  0  0  0
 20 23  1  0  0  0  0
 20 21  1  0  0  0  0
 21 22  2  0  0  0  0
M  END
> <s_m_source_file>
AV-unprocessed.smi

> <i_m_source_file_index>
1521

> <i_lp_mmshare_version>
43012

> <i_f3d_flags>
0

> <s_epik_input>
Tz1jMVtuSF1bY0hdYyhDKEYpKEYpRilbY0hdYzFbTkhdQyg9TylbTkhdW0NIMl1bQ0BASF0yW0NIMl1PW0NIMl1bQ0gyXU8y

> <s_epik_cmdline>
J2VwaWtfcHl0aG9uJywgJy1waCcsICc3LjAnLCAnLXRuJywgJzgnLCAnLW1hJywgJzIwMCcsICctbWV0YWxfYmluZGluZycsICctaW1hZScsICc8aW5maWxlLm1hZT4nLCAnLW9tYWUnLCAnPG91dGZpbGUubWFlPic=

> <r_lp_tautomer_probability>
1

> <r_epik_Ionization_Penalty>
0.00396636

> <r_epik_Ionization_Penalty_Charging>
0.00394789

> <r_epik_Ionization_Penalty_Neutral>
1.84676e-05

> <r_epik_State_Penalty>
-0

> <r_epik_Charging_Adjusted_Penalty>
0.00394789

> <i_epik_Tot_Q>
0

> <i_epik_Tot_abs_Q>
0

> <r_epik_Metal_State_Penalty>
0.372669

> <b_epik_Metal_Only>
0

> <s_lp_Force_Field>
OPLS_2005

> <r_lp_Energy>
19.2224

> <b_lp_Chiralities_Consistent>
1

> <s_lp_Variant>
AV-unprocessed.smi:1521-2

> <Gold.Version>
5.8.1

> <Gold.Id.Protein>
6NUR|6NUR_protein|mol2

> <Gold.PLP.Fitness>
42.6105

> <Gold.PLP.PLP>
-38.0872

> <Gold.PLP.part.hbond>
-3.4060

> <Gold.PLP.part.metal>
0.0000

> <Gold.PLP.part.buried>
-7.6848

> <Gold.PLP.part.nonpolar>
-28.8306

> <Gold.PLP.part.repulsive>
0.4065

> <Gold.PLP.ligand.clash>
0.0000

> <Gold.PLP.ligand.torsion>
0.2516

> <Gold.PLP.Chemscore.Hbond>
1.6653

> <Gold.PLP.Chemscore.CHOScore>
0.0000

> <Gold.PLP.Chemscore.Metal>
0.0000

> <Gold.Chemscore.Hbonds>
donor molecule, donor type, donor heavy atom, donor atom, acceptor molecule, acceptor atom, score
      L1  H    20    23       P1  8028  1.00
      P1  H  6931  6943       L1    10  0.60
      P1  H  6934  6947       L1    10  0.07

> <Gold.PLP.Chemscore.Internal.Correction>
0.0305

> <Gold.Rescore>
     Score         DG    S(hbond)    S(metal)    S(lipo)     H(rot)  DE(clash)    DE(int)     intcor
     14.09     -15.56       1.54        0.00      72.34       1.37       0.13       1.33       ----

> <Gold.Chemscore.Fitness>
14.0940

> <Gold.Chemscore.DG>
-15.5565

> <Gold.Chemscore.ZeroCoef>
-5.4800

> <Gold.Chemscore.Hbond>
1.5356

> <Gold.Chemscore.Metal>
0.0000

> <Gold.Chemscore.Lipo>
72.3412

> <Gold.Chemscore.Internal_Hbond>
0.0000

> <Gold.Chemscore.DEClash>
0.1314

> <Gold.Chemscore.DEInternal>
1.3311

> <Gold.Chemscore.Rot>
1.3735

> <Gold.Chemscore.Internal.Correction>
   9.000000E+99

> <Gold.Chemscore.Hbonds>
donor molecule, donor type, donor heavy atom, donor atom, acceptor molecule, acceptor atom, score
      L1  H    20    23       P1  8028  0.99
      P1  H  6931  6943       L1    10  0.04

> <Gold.Chemscore.Hbond.Weighted>
-5.1288

> <Gold.Chemscore.Metal.Weighted>
-0.0000

> <Gold.Chemscore.Lipo.Weighted>
-8.4639

> <Gold.Chemscore.Internal_Hbond.Weighted>
0.0000

> <Gold.Chemscore.DEClash.Weighted>
0.1314

> <Gold.Chemscore.DEInternal.Weighted>
1.3311

> <Gold.Chemscore.Rot.Weighted>
3.5162

> <Gold.Chemscore.Internal.Correction.Weighted>
   9.000000E+99

> <Gold.Protein.RotatedTorsions>
[ 6907 6896 6895 6894 ] final -152.24 input  -60.11 | X-H torsion
[ 7974 7965 7964 7962 ] final  -86.08 input  175.53 | X-H torsion
[ 8008 7997 7996 7995 ] final   20.68 input   59.86 | X-H torsion
[ 10167 10162 10161 10158 ] final   22.83 input  -65.29 | X-H torsion
[ 10718 10713 10712 10709 ] final -175.78 input   66.30 | X-H torsion
[ 10763 10752 10751 10750 ] final  -26.15 input  -60.55 | X-H torsion
[ 11005 11000 10999 10996 ] final -144.47 input  -57.11 | X-H torsion

> <Gold.Protein.ActiveResidues>
 VAL166  LYS551  ARG553  GLY616  TRP617  ASP618  TYR619  PRO620  LYS621  CYS622 
 ASP623  PHE694  ASN695  SER759  ASP760  ASP761  ALA762  ILE779  LEU786  VAL792 
 PHE793  MET794  SER795  GLU796  ALA797  LYS798  CYS799  TRP800  GLU811  SER814 

> <Gold.Protein.RotatedAtoms>
  151.2249  133.4482  159.2601 H   0  0  0  0  0  0  0  0  0  0  0  0  # atno 6907 bound_to 6896
  151.0849  134.9881  159.8384 H   0  0  0  0  0  0  0  0  0  0  0  0  # atno 6908 bound_to 6896
  152.5428  134.2186  159.8831 H   0  0  0  0  0  0  0  0  0  0  0  0  # atno 6909 bound_to 6896
  145.4847  140.9555  143.1845 H   0  0  0  0  0  0  0  0  0  0  0  0  # atno 7974 bound_to 7965
  154.9393  140.3051  155.5129 H   0  0  0  0  0  0  0  0  0  0  0  0  # atno 8008 bound_to 7997
  156.2997  140.2339  156.4398 H   0  0  0  0  0  0  0  0  0  0  0  0  # atno 8009 bound_to 7997
  154.8161  140.0426  157.1366 H   0  0  0  0  0  0  0  0  0  0  0  0  # atno 8010 bound_to 7997
  140.5317  143.9830  150.6469 H   0  0  0  0  0  0  0  0  0  0  0  0  # atno 10167 bound_to 10162
  156.8049  130.9565  151.3117 H   0  0  0  0  0  0  0  0  0  0  0  0  # atno 10718 bound_to 10713
  153.7112  135.6950  153.5037 H   0  0  0  0  0  0  0  0  0  0  0  0  # atno 10763 bound_to 10752
  153.2271  135.4350  155.0553 H   0  0  0  0  0  0  0  0  0  0  0  0  # atno 10764 bound_to 10752
  154.8314  135.3475  154.6649 H   0  0  0  0  0  0  0  0  0  0  0  0  # atno 10765 bound_to 10752
  140.8021  134.2844  157.4974 H   0  0  0  0  0  0  0  0  0  0  0  0  # atno 11005 bound_to 11000
  144.7868  139.6410  143.7130 LP  0  0  0  0  0  0  0  0  0  0  0  0  # atno 17320 bound_to 7965
  146.2320  139.5832  142.9549 LP  0  0  0  0  0  0  0  0  0  0  0  0  # atno 17321 bound_to 7965
  140.3207  143.3139  152.0787 LP  0  0  0  0  0  0  0  0  0  0  0  0  # atno 17342 bound_to 10162
  139.4956  144.6576  151.6538 LP  0  0  0  0  0  0  0  0  0  0  0  0  # atno 17343 bound_to 10162
  157.6535  130.8904  149.9681 LP  0  0  0  0  0  0  0  0  0  0  0  0  # atno 17370 bound_to 10713
  156.1079  130.3651  150.0101 LP  0  0  0  0  0  0  0  0  0  0  0  0  # atno 17371 bound_to 10713
  139.8721  134.9435  156.3856 LP  0  0  0  0  0  0  0  0  0  0  0  0  # atno 17394 bound_to 11000
  140.9284  133.7596  155.9993 LP  0  0  0  0  0  0  0  0  0  0  0  0  # atno 17395 bound_to 11000

$$$$
