AV-unprocessed.smi:392|AV-procd|sdf|2483|dock2
  -GOLD-   2262022423D 1   1.00000     0.00000
 Structure written by MMmdl.
 33 35  0  0  0  0  0  0  0  0  2 V2000
  150.2142  139.5913  157.8857 O   0  0  0  0  0  0  0  0  0  0  0  0
  151.5171  139.9643  157.4867 C   0  0  1  0  0  0  0  0  0  0  0  0
  151.4208  140.6202  156.0945 C   0  0  0  0  0  0  0  0  0  0  0  0
  150.6188  139.8298  155.1519 N   0  0  0  0  0  0  0  0  0  0  0  0
  150.8311  138.5807  154.6556 C   0  0  0  0  0  0  0  0  0  0  0  0
  149.7887  138.2840  153.8306 N   0  3  0  0  0  0  0  0  0  0  0  0
  148.8992  139.3601  153.7974 C   0  0  0  0  0  0  0  0  0  0  0  0
  147.7009  139.5328  153.1115 C   0  0  0  0  0  0  0  0  0  0  0  0
  147.0340  140.7611  153.3022 C   0  0  0  0  0  0  0  0  0  0  0  0
  147.5613  141.7607  154.1458 C   0  0  0  0  0  0  0  0  0  0  0  0
  148.7777  141.5755  154.8354 C   0  0  0  0  0  0  0  0  0  0  0  0
  149.4288  140.3581  154.6424 C   0  0  0  0  0  0  0  0  0  0  0  0
  152.1990  140.8729  158.5036 C   0  0  0  0  0  0  0  0  0  0  0  0
  153.3752  140.4496  159.1623 C   0  0  0  0  0  0  0  0  0  0  0  0
  153.9951  141.2789  160.1168 C   0  0  0  0  0  0  0  0  0  0  0  0
  153.4417  142.5366  160.4217 C   0  0  0  0  0  0  0  0  0  0  0  0
  152.2675  142.9632  159.7730 C   0  0  0  0  0  0  0  0  0  0  0  0
  151.6455  142.1353  158.8180 C   0  0  0  0  0  0  0  0  0  0  0  0
  150.5070  142.5559  158.2153 F   0  0  0  0  0  0  0  0  0  0  0  0
  150.2616  138.7513  158.3167 H   0  0  0  0  0  0  0  0  0  0  0  0
  152.0815  139.0350  157.4076 H   0  0  0  0  0  0  0  0  0  0  0  0
  150.9809  141.6164  156.1600 H   0  0  0  0  0  0  0  0  0  0  0  0
  152.4135  140.7467  155.6599 H   0  0  0  0  0  0  0  0  0  0  0  0
  151.6690  137.9374  154.8837 H   0  0  0  0  0  0  0  0  0  0  0  0
  147.2943  138.7691  152.4649 H   0  0  0  0  0  0  0  0  0  0  0  0
  146.0989  140.9401  152.7915 H   0  0  0  0  0  0  0  0  0  0  0  0
  147.0213  142.6885  154.2676 H   0  0  0  0  0  0  0  0  0  0  0  0
  149.1740  142.3457  155.4806 H   0  0  0  0  0  0  0  0  0  0  0  0
  153.8047  139.4832  158.9418 H   0  0  0  0  0  0  0  0  0  0  0  0
  154.8941  140.9489  160.6161 H   0  0  0  0  0  0  0  0  0  0  0  0
  153.9159  143.1728  161.1546 H   0  0  0  0  0  0  0  0  0  0  0  0
  151.8407  143.9263  160.0114 H   0  0  0  0  0  0  0  0  0  0  0  0
  149.6929  137.4095  153.3304 H   0  0  0  0  0  0  0  0  0  0  0  0
  1  2  1  0  0  0  0
  1 20  1  0  0  0  0
  2  3  1  0  0  0  0
  2 13  1  0  0  0  0
  2 21  1  0  0  0  0
  3  4  1  0  0  0  0
  3 22  1  0  0  0  0
  3 23  1  0  0  0  0
  4 12  1  0  0  0  0
  4  5  1  0  0  0  0
  5  6  2  0  0  0  0
  5 24  1  0  0  0  0
  6  7  1  0  0  0  0
  6 33  1  0  0  0  0
  7 12  2  0  0  0  0
  7  8  1  0  0  0  0
  8  9  2  0  0  0  0
  8 25  1  0  0  0  0
  9 10  1  0  0  0  0
  9 26  1  0  0  0  0
 10 11  2  0  0  0  0
 10 27  1  0  0  0  0
 11 12  1  0  0  0  0
 11 28  1  0  0  0  0
 13 18  1  0  0  0  0
 13 14  2  0  0  0  0
 14 15  1  0  0  0  0
 14 29  1  0  0  0  0
 15 16  2  0  0  0  0
 15 30  1  0  0  0  0
 16 17  1  0  0  0  0
 16 31  1  0  0  0  0
 17 18  2  0  0  0  0
 17 32  1  0  0  0  0
 18 19  1  0  0  0  0
M  CHG  1   6   1
M  END
> <s_m_source_file>
AV-unprocessed.smi

> <i_m_source_file_index>
392

> <i_lp_mmshare_version>
43012

> <i_f3d_flags>
0

> <s_epik_input>
RmMxW2NIXVtjSF1bY0hdW2NIXWMxW0NASF0oW09IXSlbQ0gyXW4oW2NIXW4yKWMoYzIzKVtjSF1bY0hdW2NIXVtjSF0z

> <s_epik_cmdline>
J2VwaWtfcHl0aG9uJywgJy1waCcsICc3LjAnLCAnLXRuJywgJzgnLCAnLW1hJywgJzIwMCcsICctbWV0YWxfYmluZGluZycsICctaW1hZScsICc8aW5maWxlLm1hZT4nLCAnLW9tYWUnLCAnPG91dGZpbGUubWFlPic=

> <r_epik_Ionization_Penalty>
1.3029

> <r_epik_Ionization_Penalty_Charging>
1.3029

> <r_epik_Ionization_Penalty_Neutral>
1.34362e-06

> <r_epik_State_Penalty>
1.377

> <r_epik_Charging_Adjusted_Penalty>
2.6799

> <i_epik_Tot_Q>
1

> <i_epik_Tot_abs_Q>
1

> <r_epik_Metal_State_Penalty>
5.40879

> <b_epik_Metal_Only>
0

> <s_lp_Force_Field>
OPLS_2005

> <r_lp_Energy>
17.8975

> <b_lp_Chiralities_Consistent>
1

> <s_lp_Variant>
AV-unprocessed.smi:392-4

> <Gold.Version>
5.8.1

> <Gold.Id.Protein>
6NUR|6NUR_protein|mol2

> <Gold.PLP.Fitness>
48.4655

> <Gold.PLP.PLP>
-42.5742

> <Gold.PLP.part.hbond>
-1.4247

> <Gold.PLP.part.metal>
0.0000

> <Gold.PLP.part.buried>
1.6553

> <Gold.PLP.part.nonpolar>
-42.6994

> <Gold.PLP.part.repulsive>
0.0520

> <Gold.PLP.ligand.clash>
0.0000

> <Gold.PLP.ligand.torsion>
0.0680

> <Gold.PLP.Chemscore.Hbond>
2.0000

> <Gold.PLP.Chemscore.CHOScore>
0.0000

> <Gold.PLP.Chemscore.Metal>
0.0000

> <Gold.Chemscore.Hbonds>
donor molecule, donor type, donor heavy atom, donor atom, acceptor molecule, acceptor atom, score
      L1  H     6    33       P1  7948  2.00

> <Gold.PLP.Chemscore.Internal.Correction>
0.0273

> <Gold.Rescore>
     Score         DG    S(hbond)    S(metal)    S(lipo)     H(rot)  DE(clash)    DE(int)     intcor
     14.16     -16.35       0.89        0.00     110.42       1.97       0.12       2.08       ----

> <Gold.Chemscore.Fitness>
14.1557

> <Gold.Chemscore.DG>
-16.3513

> <Gold.Chemscore.ZeroCoef>
-5.4800

> <Gold.Chemscore.Hbond>
0.8950

> <Gold.Chemscore.Metal>
0.0000

> <Gold.Chemscore.Lipo>
110.4205

> <Gold.Chemscore.Internal_Hbond>
0.0000

> <Gold.Chemscore.DEClash>
0.1180

> <Gold.Chemscore.DEInternal>
2.0776

> <Gold.Chemscore.Rot>
1.9677

> <Gold.Chemscore.Internal.Correction>
   9.000000E+99

> <Gold.Chemscore.Hbonds>
donor molecule, donor type, donor heavy atom, donor atom, acceptor molecule, acceptor atom, score
      L1  H     6    33       P1  7948  0.66

> <Gold.Chemscore.Hbond.Weighted>
-2.9893

> <Gold.Chemscore.Metal.Weighted>
-0.0000

> <Gold.Chemscore.Lipo.Weighted>
-12.9192

> <Gold.Chemscore.Internal_Hbond.Weighted>
0.0000

> <Gold.Chemscore.DEClash.Weighted>
0.1180

> <Gold.Chemscore.DEInternal.Weighted>
2.0776

> <Gold.Chemscore.Rot.Weighted>
5.0372

> <Gold.Chemscore.Internal.Correction.Weighted>
   9.000000E+99

> <Gold.Protein.RotatedTorsions>
[ 6907 6896 6895 6894 ] final   51.05 input  -60.11 | X-H torsion
[ 7974 7965 7964 7962 ] final -149.17 input  175.53 | X-H torsion
[ 8008 7997 7996 7995 ] final   54.12 input   59.86 | X-H torsion
[ 10167 10162 10161 10158 ] final   95.66 input  -65.29 | X-H torsion
[ 10718 10713 10712 10709 ] final  -74.67 input   66.30 | X-H torsion
[ 10763 10752 10751 10750 ] final -172.67 input  -60.55 | X-H torsion
[ 11005 11000 10999 10996 ] final  -41.61 input  -57.11 | X-H torsion

> <Gold.Protein.ActiveResidues>
 VAL166  LYS551  ARG553  GLY616  TRP617  ASP618  TYR619  PRO620  LYS621  CYS622 
 ASP623  PHE694  ASN695  SER759  ASP760  ASP761  ALA762  ILE779  LEU786  VAL792 
 PHE793  MET794  SER795  GLU796  ALA797  LYS798  CYS799  TRP800  GLU811  SER814 

> <Gold.Protein.RotatedAtoms>
  152.3085  134.7526  160.0341 H   0  0  0  0  0  0  0  0  0  0  0  0  # atno 6907 bound_to 6896
  151.8015  133.3365  159.3536 H   0  0  0  0  0  0  0  0  0  0  0  0  # atno 6908 bound_to 6896
  150.7308  134.5679  159.5920 H   0  0  0  0  0  0  0  0  0  0  0  0  # atno 6909 bound_to 6896
  144.7984  140.5100  143.5724 H   0  0  0  0  0  0  0  0  0  0  0  0  # atno 7974 bound_to 7965
  155.4796  140.3468  155.4338 H   0  0  0  0  0  0  0  0  0  0  0  0  # atno 8008 bound_to 7997
  156.1048  140.1445  156.9448 H   0  0  0  0  0  0  0  0  0  0  0  0  # atno 8009 bound_to 7997
  154.4717  140.0898  156.7139 H   0  0  0  0  0  0  0  0  0  0  0  0  # atno 8010 bound_to 7997
  139.7967  144.6830  150.9819 H   0  0  0  0  0  0  0  0  0  0  0  0  # atno 10167 bound_to 10162
  156.0234  130.4422  150.2927 H   0  0  0  0  0  0  0  0  0  0  0  0  # atno 10718 bound_to 10713
  154.6166  135.2870  155.0372 H   0  0  0  0  0  0  0  0  0  0  0  0  # atno 10763 bound_to 10752
  154.1583  135.6492  153.4983 H   0  0  0  0  0  0  0  0  0  0  0  0  # atno 10764 bound_to 10752
  153.0218  135.5372  154.6940 H   0  0  0  0  0  0  0  0  0  0  0  0  # atno 10765 bound_to 10752
  141.0258  133.6842  156.2481 H   0  0  0  0  0  0  0  0  0  0  0  0  # atno 11005 bound_to 11000
  145.5615  139.1479  143.3339 LP  0  0  0  0  0  0  0  0  0  0  0  0  # atno 17320 bound_to 7965
  146.2259  140.5751  142.8997 LP  0  0  0  0  0  0  0  0  0  0  0  0  # atno 17321 bound_to 7965
  140.7820  143.4324  151.0675 LP  0  0  0  0  0  0  0  0  0  0  0  0  # atno 17342 bound_to 10162
  139.7998  143.8100  152.3161 LP  0  0  0  0  0  0  0  0  0  0  0  0  # atno 17343 bound_to 10162
  157.1030  131.0201  151.3078 LP  0  0  0  0  0  0  0  0  0  0  0  0  # atno 17370 bound_to 10713
  157.4764  130.7739  149.7372 LP  0  0  0  0  0  0  0  0  0  0  0  0  # atno 17371 bound_to 10713
  140.6494  134.5083  157.5576 LP  0  0  0  0  0  0  0  0  0  0  0  0  # atno 17394 bound_to 11000
  139.9175  134.8216  156.1318 LP  0  0  0  0  0  0  0  0  0  0  0  0  # atno 17395 bound_to 11000

$$$$
