AV-unprocessed.smi:748|AV-procd|sdf|3582|dock8
  -GOLD-   22720 0573D 1   1.00000     0.00000
 Structure written by MMmdl.
 50 51  0  0  0  0  0  0  0  0  1 V2000
  143.8293  135.1065  152.9059 C   0  0  0  0  0  0  0  0  0  0  0  0
  144.1095  135.7389  151.5328 C   0  0  0  0  0  0  0  0  0  0  0  0
  144.1895  134.6765  150.4282 C   0  0  0  0  0  0  0  0  0  0  0  0
  145.3538  136.5024  151.5607 N   0  0  0  0  0  0  0  0  0  0  0  0
  145.6305  137.5126  152.4004 C   0  0  0  0  0  0  0  0  0  0  0  0
  144.8457  137.9126  153.2602 O   0  0  0  0  0  0  0  0  0  0  0  0
  147.0010  138.1749  152.2419 C   0  0  0  0  0  0  0  0  0  0  0  0
  147.0855  139.5256  152.9760 C   0  0  0  0  0  0  0  0  0  0  0  0
  148.2288  139.5645  153.8796 N   0  0  0  0  0  0  0  0  0  0  0  0
  148.9123  140.6714  154.2132 C   0  0  0  0  0  0  0  0  0  0  0  0
  148.6493  141.7901  153.7710 O   0  0  0  0  0  0  0  0  0  0  0  0
  150.0887  140.4582  155.1241 C   0  0  0  0  0  0  0  0  0  0  0  0
  150.8425  139.2639  155.0898 C   0  0  0  0  0  0  0  0  0  0  0  0
  151.9154  139.1219  155.9882 C   0  0  0  0  0  0  0  0  0  0  0  0
  152.2597  140.0673  156.8861 N   0  0  0  0  0  0  0  0  0  0  0  0
  151.5430  141.2169  156.9374 C   0  0  0  0  0  0  0  0  0  0  0  0
  151.9110  142.1913  157.8911 N   0  0  0  0  0  0  0  0  0  0  0  0
  151.3788  143.5437  157.7348 C   0  0  0  0  0  0  0  0  0  0  0  0
  152.1250  144.5217  158.6571 C   0  0  0  0  0  0  0  0  0  0  0  0
  152.0637  144.0548  160.0007 O   0  0  0  0  0  0  0  0  0  0  0  0
  152.6886  142.7835  160.1555 C   0  0  1  0  0  0  0  0  0  0  0  0
  152.6572  142.4095  161.6409 C   0  0  0  0  0  0  0  0  0  0  0  0
  151.9563  141.7464  159.2819 C   0  0  0  0  0  0  0  0  0  0  0  0
  150.4446  141.4424  156.0731 C   0  0  0  0  0  0  0  0  0  0  0  0
  142.9026  134.5323  152.8896 H   0  0  0  0  0  0  0  0  0  0  0  0
  143.7274  135.8667  153.6810 H   0  0  0  0  0  0  0  0  0  0  0  0
  144.6329  134.4324  153.2043 H   0  0  0  0  0  0  0  0  0  0  0  0
  143.2881  136.4143  151.2867 H   0  0  0  0  0  0  0  0  0  0  0  0
  143.2604  134.1097  150.3622 H   0  0  0  0  0  0  0  0  0  0  0  0
  144.9979  133.9685  150.6149 H   0  0  0  0  0  0  0  0  0  0  0  0
  144.3649  135.1336  149.4537 H   0  0  0  0  0  0  0  0  0  0  0  0
  146.0580  136.2443  150.8847 H   0  0  0  0  0  0  0  0  0  0  0  0
  147.7781  137.5048  152.6133 H   0  0  0  0  0  0  0  0  0  0  0  0
  147.1917  138.3133  151.1770 H   0  0  0  0  0  0  0  0  0  0  0  0
  147.1397  140.3540  152.2667 H   0  0  0  0  0  0  0  0  0  0  0  0
  146.1848  139.6856  153.5700 H   0  0  0  0  0  0  0  0  0  0  0  0
  148.5306  138.6859  154.2753 H   0  0  0  0  0  0  0  0  0  0  0  0
  150.6105  138.4643  154.4015 H   0  0  0  0  0  0  0  0  0  0  0  0
  152.5117  138.2217  155.9890 H   0  0  0  0  0  0  0  0  0  0  0  0
  151.4809  143.8760  156.7007 H   0  0  0  0  0  0  0  0  0  0  0  0
  150.3147  143.5422  157.9747 H   0  0  0  0  0  0  0  0  0  0  0  0
  153.1649  144.6335  158.3460 H   0  0  0  0  0  0  0  0  0  0  0  0
  151.6691  145.5104  158.6030 H   0  0  0  0  0  0  0  0  0  0  0  0
  153.7309  142.8573  159.8394 H   0  0  0  0  0  0  0  0  0  0  0  0
  153.1327  141.4436  161.8123 H   0  0  0  0  0  0  0  0  0  0  0  0
  151.6334  142.3495  162.0114 H   0  0  0  0  0  0  0  0  0  0  0  0
  153.1859  143.1512  162.2400 H   0  0  0  0  0  0  0  0  0  0  0  0
  150.9343  141.6096  159.6378 H   0  0  0  0  0  0  0  0  0  0  0  0
  152.4561  140.7844  159.3828 H   0  0  0  0  0  0  0  0  0  0  0  0
  149.8663  142.3521  156.1424 H   0  0  0  0  0  0  0  0  0  0  0  0
  1  2  1  0  0  0  0
  1 25  1  0  0  0  0
  1 26  1  0  0  0  0
  1 27  1  0  0  0  0
  2  3  1  0  0  0  0
  2  4  1  0  0  0  0
  2 28  1  0  0  0  0
  3 29  1  0  0  0  0
  3 30  1  0  0  0  0
  3 31  1  0  0  0  0
  4  5  1  0  0  0  0
  4 32  1  0  0  0  0
  5  6  2  0  0  0  0
  5  7  1  0  0  0  0
  7  8  1  0  0  0  0
  7 33  1  0  0  0  0
  7 34  1  0  0  0  0
  8  9  1  0  0  0  0
  8 35  1  0  0  0  0
  8 36  1  0  0  0  0
  9 10  1  0  0  0  0
  9 37  1  0  0  0  0
 10 11  2  0  0  0  0
 10 12  1  0  0  0  0
 12 24  1  0  0  0  0
 12 13  2  0  0  0  0
 13 14  1  0  0  0  0
 13 38  1  0  0  0  0
 14 15  2  0  0  0  0
 14 39  1  0  0  0  0
 15 16  1  0  0  0  0
 16 17  1  0  0  0  0
 16 24  2  0  0  0  0
 17 23  1  0  0  0  0
 17 18  1  0  0  0  0
 18 19  1  0  0  0  0
 18 40  1  0  0  0  0
 18 41  1  0  0  0  0
 19 20  1  0  0  0  0
 19 42  1  0  0  0  0
 19 43  1  0  0  0  0
 20 21  1  0  0  0  0
 21 22  1  0  0  0  0
 21 23  1  0  0  0  0
 21 44  1  0  0  0  0
 22 45  1  0  0  0  0
 22 46  1  0  0  0  0
 22 47  1  0  0  0  0
 23 48  1  0  0  0  0
 23 49  1  0  0  0  0
 24 50  1  0  0  0  0
M  END
> <s_m_source_file>
AV-unprocessed.smi

> <i_m_source_file_index>
748

> <i_lp_mmshare_version>
43012

> <i_f3d_flags>
0

> <s_epik_input>
W0NIM11bQ0hdKFtDSDNdKVtOSF1DKD1PKVtDSDJdW0NIMl1bTkhdQyg9TyljMVtjSF1bY0hdbmMoW2NIXTEpTjJbQ0gyXVtDSDJdT1tDQEBIXShbQ0gzXSlbQ0gyXTI=

> <s_epik_cmdline>
J2VwaWtfcHl0aG9uJywgJy1waCcsICc3LjAnLCAnLXRuJywgJzgnLCAnLW1hJywgJzIwMCcsICctbWV0YWxfYmluZGluZycsICctaW1hZScsICc8aW5maWxlLm1hZT4nLCAnLW9tYWUnLCAnPG91dGZpbGUubWFlPic=

> <r_lp_tautomer_probability>
1

> <r_epik_Ionization_Penalty>
1.38678e-05

> <r_epik_Ionization_Penalty_Charging>
0

> <r_epik_Ionization_Penalty_Neutral>
1.38678e-05

> <r_epik_State_Penalty>
-0

> <r_epik_Charging_Adjusted_Penalty>
0

> <i_epik_Tot_Q>
0

> <i_epik_Tot_abs_Q>
0

> <r_epik_Metal_State_Penalty>
-0

> <b_epik_Metal_Only>
0

> <s_lp_Force_Field>
OPLS_2005

> <r_lp_Energy>
16.8499

> <b_lp_Chiralities_Consistent>
1

> <s_lp_Variant>
AV-unprocessed.smi:748-1

> <Gold.Version>
5.8.1

> <Gold.Id.Protein>
6NUR|6NUR_protein|mol2

> <Gold.PLP.Fitness>
49.4905

> <Gold.PLP.PLP>
-47.3927

> <Gold.PLP.part.hbond>
-3.8877

> <Gold.PLP.part.metal>
0.0000

> <Gold.PLP.part.buried>
3.6263

> <Gold.PLP.part.nonpolar>
-45.4227

> <Gold.PLP.part.repulsive>
1.0680

> <Gold.PLP.ligand.clash>
0.0000

> <Gold.PLP.ligand.torsion>
1.4170

> <Gold.PLP.Chemscore.Hbond>
1.4917

> <Gold.PLP.Chemscore.CHOScore>
0.0000

> <Gold.PLP.Chemscore.Metal>
0.0000

> <Gold.Chemscore.Hbonds>
donor molecule, donor type, donor heavy atom, donor atom, acceptor molecule, acceptor atom, score
      P1  H  7997  8009       L1    15  0.78
      P1  H  8011  8017       L1    11  0.56

> <Gold.PLP.Chemscore.Internal.Correction>
0.4568

> <Gold.Rescore>
     Score         DG    S(hbond)    S(metal)    S(lipo)     H(rot)  DE(clash)    DE(int)     intcor
     12.55     -17.36       0.92        0.00     116.27       1.87       2.00       2.81       ----

> <Gold.Chemscore.Fitness>
12.5484

> <Gold.Chemscore.DG>
-17.3625

> <Gold.Chemscore.ZeroCoef>
-5.4800

> <Gold.Chemscore.Hbond>
0.9172

> <Gold.Chemscore.Metal>
0.0000

> <Gold.Chemscore.Lipo>
116.2742

> <Gold.Chemscore.Internal_Hbond>
0.0000

> <Gold.Chemscore.DEClash>
1.9999

> <Gold.Chemscore.DEInternal>
2.8142

> <Gold.Chemscore.Rot>
1.8692

> <Gold.Chemscore.Internal.Correction>
   9.000000E+99

> <Gold.Chemscore.Hbonds>
donor molecule, donor type, donor heavy atom, donor atom, acceptor molecule, acceptor atom, score
      P1  H  7997  8009       L1    15  0.19
      P1  H  8011  8017       L1    11  0.52

> <Gold.Chemscore.Hbond.Weighted>
-3.0636

> <Gold.Chemscore.Metal.Weighted>
-0.0000

> <Gold.Chemscore.Lipo.Weighted>
-13.6041

> <Gold.Chemscore.Internal_Hbond.Weighted>
0.0000

> <Gold.Chemscore.DEClash.Weighted>
1.9999

> <Gold.Chemscore.DEInternal.Weighted>
2.8142

> <Gold.Chemscore.Rot.Weighted>
4.7852

> <Gold.Chemscore.Internal.Correction.Weighted>
   9.000000E+99

> <Gold.Protein.RotatedTorsions>
[ 6907 6896 6895 6894 ] final  128.01 input  -60.11 | X-H torsion
[ 7974 7965 7964 7962 ] final  -23.99 input  175.53 | X-H torsion
[ 8008 7997 7996 7995 ] final -177.39 input   59.86 | X-H torsion
[ 10167 10162 10161 10158 ] final  155.84 input  -65.29 | X-H torsion
[ 10718 10713 10712 10709 ] final -144.27 input   66.30 | X-H torsion
[ 10763 10752 10751 10750 ] final  -66.90 input  -60.55 | X-H torsion
[ 11005 11000 10999 10996 ] final  -50.31 input  -57.11 | X-H torsion

> <Gold.Protein.ActiveResidues>
 VAL166  LYS551  ARG553  GLY616  TRP617  ASP618  TYR619  PRO620  LYS621  CYS622 
 ASP623  PHE694  ASN695  SER759  ASP760  ASP761  ALA762  ILE779  LEU786  VAL792 
 PHE793  MET794  SER795  GLU796  ALA797  LYS798  CYS799  TRP800  GLU811  SER814 

> <Gold.Protein.RotatedAtoms>
  152.3759  133.6481  159.6123 H   0  0  0  0  0  0  0  0  0  0  0  0  # atno 6907 bound_to 6896
  150.7704  133.9194  159.3402 H   0  0  0  0  0  0  0  0  0  0  0  0  # atno 6908 bound_to 6896
  151.7008  135.0931  160.0302 H   0  0  0  0  0  0  0  0  0  0  0  0  # atno 6909 bound_to 6896
  146.1582  140.4692  142.8582 H   0  0  0  0  0  0  0  0  0  0  0  0  # atno 7974 bound_to 7965
  156.0064  140.1231  157.0497 H   0  0  0  0  0  0  0  0  0  0  0  0  # atno 8008 bound_to 7997
  154.4260  140.1096  156.5838 H   0  0  0  0  0  0  0  0  0  0  0  0  # atno 8009 bound_to 7997
  155.6141  140.3472  155.4633 H   0  0  0  0  0  0  0  0  0  0  0  0  # atno 8010 bound_to 7997
  139.4821  144.5063  151.8093 H   0  0  0  0  0  0  0  0  0  0  0  0  # atno 10167 bound_to 10162
  156.3681  130.7773  151.1950 H   0  0  0  0  0  0  0  0  0  0  0  0  # atno 10718 bound_to 10713
  154.3665  135.6104  153.5718 H   0  0  0  0  0  0  0  0  0  0  0  0  # atno 10763 bound_to 10752
  152.9791  135.5828  154.4571 H   0  0  0  0  0  0  0  0  0  0  0  0  # atno 10764 bound_to 10752
  154.4318  135.2848  155.1885 H   0  0  0  0  0  0  0  0  0  0  0  0  # atno 10765 bound_to 10752
  141.0809  133.6654  156.3712 H   0  0  0  0  0  0  0  0  0  0  0  0  # atno 11005 bound_to 11000
  144.7991  140.6180  143.6490 LP  0  0  0  0  0  0  0  0  0  0  0  0  # atno 17320 bound_to 7965
  145.4655  139.1508  143.3843 LP  0  0  0  0  0  0  0  0  0  0  0  0  # atno 17321 bound_to 7965
  140.4561  144.1787  150.5901 LP  0  0  0  0  0  0  0  0  0  0  0  0  # atno 17342 bound_to 10162
  140.4534  143.2477  151.9318 LP  0  0  0  0  0  0  0  0  0  0  0  0  # atno 17343 bound_to 10162
  157.7481  131.0380  150.4483 LP  0  0  0  0  0  0  0  0  0  0  0  0  # atno 17370 bound_to 10713
  156.4706  130.4052  149.6520 LP  0  0  0  0  0  0  0  0  0  0  0  0  # atno 17371 bound_to 10713
  140.5471  134.6063  157.5397 LP  0  0  0  0  0  0  0  0  0  0  0  0  # atno 17394 bound_to 11000
  139.9622  134.7432  156.0212 LP  0  0  0  0  0  0  0  0  0  0  0  0  # atno 17395 bound_to 11000

$$$$
