AV-unprocessed.smi:2343|AV-procd|sdf|9356|dock6
  -GOLD-   2272012573D 1   1.00000     0.00000
 Structure written by MMmdl.
 34 35  0  0  0  0  0  0  0  0  1 V2000
  150.3419  140.4369  156.1667 O   0  0  0  0  0  0  0  0  0  0  0  0
  150.0859  141.6361  156.0586 C   0  0  0  0  0  0  0  0  0  0  0  0
  149.2711  142.1342  155.1176 N   0  0  0  0  0  0  0  0  0  0  0  0
  148.5944  141.3480  154.0930 C   0  0  0  0  0  0  0  0  0  0  0  0
  147.1673  140.9691  154.5220 C   0  0  0  0  0  0  0  0  0  0  0  0
  146.2538  142.1749  154.6231 C   0  0  0  0  0  0  0  0  0  0  0  0
  145.9464  143.0225  153.6422 C   0  0  0  0  0  0  0  0  0  0  0  0
  145.0171  144.1165  154.0907 C   0  0  0  0  0  0  0  0  0  0  0  0
  144.7967  143.8277  155.5926 C   0  0  0  0  0  0  0  0  0  0  0  0
  145.5926  142.5455  155.9257 C   0  0  0  0  0  0  0  0  0  0  0  0
  150.5557  142.6106  156.8565 N   0  0  0  0  0  0  0  0  0  0  0  0
  151.4641  142.5188  157.9471 C   0  0  0  0  0  0  0  0  0  0  0  0
  151.7320  141.3288  158.6667 C   0  0  0  0  0  0  0  0  0  0  0  0
  152.6714  141.3720  159.7167 C   0  0  0  0  0  0  0  0  0  0  0  0
  153.3397  142.4893  160.0728 N   0  0  0  0  0  0  0  0  0  0  0  0
  153.0907  143.6188  159.3772 C   0  0  0  0  0  0  0  0  0  0  0  0
  152.1717  143.6844  158.3108 C   0  0  0  0  0  0  0  0  0  0  0  0
  151.9736  144.8512  157.6505 F   0  0  0  0  0  0  0  0  0  0  0  0
  149.1098  143.1308  155.1054 H   0  0  0  0  0  0  0  0  0  0  0  0
  148.5599  141.9447  153.1812 H   0  0  0  0  0  0  0  0  0  0  0  0
  149.1800  140.4575  153.8589 H   0  0  0  0  0  0  0  0  0  0  0  0
  146.7303  140.2627  153.8152 H   0  0  0  0  0  0  0  0  0  0  0  0
  147.1947  140.4671  155.4900 H   0  0  0  0  0  0  0  0  0  0  0  0
  146.3070  142.9578  152.6261 H   0  0  0  0  0  0  0  0  0  0  0  0
  145.4746  145.0928  153.9286 H   0  0  0  0  0  0  0  0  0  0  0  0
  144.0840  144.0700  153.5285 H   0  0  0  0  0  0  0  0  0  0  0  0
  145.1476  144.6639  156.1984 H   0  0  0  0  0  0  0  0  0  0  0  0
  143.7366  143.6937  155.8102 H   0  0  0  0  0  0  0  0  0  0  0  0
  144.9341  141.7449  156.2634 H   0  0  0  0  0  0  0  0  0  0  0  0
  146.3436  142.7257  156.6954 H   0  0  0  0  0  0  0  0  0  0  0  0
  150.1888  143.5354  156.6851 H   0  0  0  0  0  0  0  0  0  0  0  0
  151.2537  140.3906  158.4337 H   0  0  0  0  0  0  0  0  0  0  0  0
  152.8970  140.4801  160.2825 H   0  0  0  0  0  0  0  0  0  0  0  0
  153.6424  144.4973  159.6779 H   0  0  0  0  0  0  0  0  0  0  0  0
  1  2  2  0  0  0  0
  2  3  1  0  0  0  0
  2 11  1  0  0  0  0
  3  4  1  0  0  0  0
  3 19  1  0  0  0  0
  4  5  1  0  0  0  0
  4 20  1  0  0  0  0
  4 21  1  0  0  0  0
  5  6  1  0  0  0  0
  5 22  1  0  0  0  0
  5 23  1  0  0  0  0
  6 10  1  0  0  0  0
  6  7  2  0  0  0  0
  7  8  1  0  0  0  0
  7 24  1  0  0  0  0
  8  9  1  0  0  0  0
  8 25  1  0  0  0  0
  8 26  1  0  0  0  0
  9 10  1  0  0  0  0
  9 27  1  0  0  0  0
  9 28  1  0  0  0  0
 10 29  1  0  0  0  0
 10 30  1  0  0  0  0
 11 12  1  0  0  0  0
 11 31  1  0  0  0  0
 12 17  1  0  0  0  0
 12 13  2  0  0  0  0
 13 14  1  0  0  0  0
 13 32  1  0  0  0  0
 14 15  2  0  0  0  0
 14 33  1  0  0  0  0
 15 16  1  0  0  0  0
 16 17  2  0  0  0  0
 16 34  1  0  0  0  0
 17 18  1  0  0  0  0
M  END
> <s_m_source_file>
AV-unprocessed.smi

> <i_m_source_file_index>
2343

> <i_lp_mmshare_version>
43012

> <i_f3d_flags>
0

> <s_epik_input>
RmMxW2NIXW5bY0hdW2NIXWMxW05IXUMoPU8pW05IXVtDSDJdW0NIMl1DMj1bQ0hdW0NIMl1bQ0gyXVtDSDJdMg==

> <s_epik_cmdline>
J2VwaWtfcHl0aG9uJywgJy1waCcsICc3LjAnLCAnLXRuJywgJzgnLCAnLW1hJywgJzIwMCcsICctbWV0YWxfYmluZGluZycsICctaW1hZScsICc8aW5maWxlLm1hZT4nLCAnLW9tYWUnLCAnPG91dGZpbGUubWFlPic=

> <r_epik_Ionization_Penalty>
0.0031801

> <r_epik_Ionization_Penalty_Charging>
0

> <r_epik_Ionization_Penalty_Neutral>
0.0031801

> <r_epik_State_Penalty>
0.0022135

> <r_epik_Charging_Adjusted_Penalty>
0.0022135

> <i_epik_Tot_Q>
0

> <i_epik_Tot_abs_Q>
0

> <r_epik_Metal_State_Penalty>
-0

> <b_epik_Metal_Only>
0

> <s_lp_Force_Field>
OPLS_2005

> <r_lp_Energy>
22.6316

> <b_lp_Chiralities_Consistent>
1

> <s_lp_Variant>
AV-unprocessed.smi:2343-1

> <Gold.Version>
5.8.1

> <Gold.Id.Protein>
6NUR|6NUR_protein|mol2

> <Gold.PLP.Fitness>
46.9925

> <Gold.PLP.PLP>
-41.5966

> <Gold.PLP.part.hbond>
-2.0000

> <Gold.PLP.part.metal>
0.0000

> <Gold.PLP.part.buried>
-7.7405

> <Gold.PLP.part.nonpolar>
-32.0552

> <Gold.PLP.part.repulsive>
0.2655

> <Gold.PLP.ligand.clash>
0.0000

> <Gold.PLP.ligand.torsion>
0.2911

> <Gold.PLP.Chemscore.Hbond>
1.9920

> <Gold.PLP.Chemscore.CHOScore>
0.0000

> <Gold.PLP.Chemscore.Metal>
0.0000

> <Gold.Chemscore.Hbonds>
donor molecule, donor type, donor heavy atom, donor atom, acceptor molecule, acceptor atom, score
      L1  H     3    19       P1  8028  1.00
      L1  H    11    31       P1  8028  0.99

> <Gold.PLP.Chemscore.Internal.Correction>
0.0021

> <Gold.Rescore>
     Score         DG    S(hbond)    S(metal)    S(lipo)     H(rot)  DE(clash)    DE(int)     intcor
     17.32     -19.40       1.92        0.00      95.34       1.43       0.73       1.35       ----

> <Gold.Chemscore.Fitness>
17.3189

> <Gold.Chemscore.DG>
-19.4011

> <Gold.Chemscore.ZeroCoef>
-5.4800

> <Gold.Chemscore.Hbond>
1.9229

> <Gold.Chemscore.Metal>
0.0000

> <Gold.Chemscore.Lipo>
95.3405

> <Gold.Chemscore.Internal_Hbond>
0.0000

> <Gold.Chemscore.DEClash>
0.7279

> <Gold.Chemscore.DEInternal>
1.3543

> <Gold.Chemscore.Rot>
1.4282

> <Gold.Chemscore.Internal.Correction>
   9.000000E+99

> <Gold.Chemscore.Hbonds>
donor molecule, donor type, donor heavy atom, donor atom, acceptor molecule, acceptor atom, score
      L1  H     3    19       P1  8028  1.00
      L1  H    11    31       P1  8028  0.87

> <Gold.Chemscore.Hbond.Weighted>
-6.4225

> <Gold.Chemscore.Metal.Weighted>
-0.0000

> <Gold.Chemscore.Lipo.Weighted>
-11.1548

> <Gold.Chemscore.Internal_Hbond.Weighted>
0.0000

> <Gold.Chemscore.DEClash.Weighted>
0.7279

> <Gold.Chemscore.DEInternal.Weighted>
1.3543

> <Gold.Chemscore.Rot.Weighted>
3.6563

> <Gold.Chemscore.Internal.Correction.Weighted>
   9.000000E+99

> <Gold.Protein.RotatedTorsions>
[ 6907 6896 6895 6894 ] final -130.88 input  -60.11 | X-H torsion
[ 7974 7965 7964 7962 ] final   57.66 input  175.53 | X-H torsion
[ 8008 7997 7996 7995 ] final   30.09 input   59.86 | X-H torsion
[ 10167 10162 10161 10158 ] final  -38.67 input  -65.29 | X-H torsion
[ 10718 10713 10712 10709 ] final    2.76 input   66.30 | X-H torsion
[ 10763 10752 10751 10750 ] final -103.22 input  -60.55 | X-H torsion
[ 11005 11000 10999 10996 ] final   13.42 input  -57.11 | X-H torsion

> <Gold.Protein.ActiveResidues>
 VAL166  LYS551  ARG553  GLY616  TRP617  ASP618  TYR619  PRO620  LYS621  CYS622 
 ASP623  PHE694  ASN695  SER759  ASP760  ASP761  ALA762  ILE779  LEU786  VAL792 
 PHE793  MET794  SER795  GLU796  ALA797  LYS798  CYS799  TRP800  GLU811  SER814 

> <Gold.Protein.RotatedAtoms>
  150.9446  133.6617  159.2783 H   0  0  0  0  0  0  0  0  0  0  0  0  # atno 6907 bound_to 6896
  151.3994  135.0967  159.9561 H   0  0  0  0  0  0  0  0  0  0  0  0  # atno 6908 bound_to 6896
  152.5084  133.8943  159.7464 H   0  0  0  0  0  0  0  0  0  0  0  0  # atno 6909 bound_to 6896
  145.9267  139.3773  143.0446 H   0  0  0  0  0  0  0  0  0  0  0  0  # atno 7974 bound_to 7965
  155.0849  140.3214  155.4590 H   0  0  0  0  0  0  0  0  0  0  0  0  # atno 8008 bound_to 7997
  156.2758  140.2088  156.5922 H   0  0  0  0  0  0  0  0  0  0  0  0  # atno 8009 bound_to 7997
  154.6949  140.0512  157.0388 H   0  0  0  0  0  0  0  0  0  0  0  0  # atno 8010 bound_to 7997
  140.7085  143.3262  151.2675 H   0  0  0  0  0  0  0  0  0  0  0  0  # atno 10167 bound_to 10162
  156.8678  130.5609  149.5659 H   0  0  0  0  0  0  0  0  0  0  0  0  # atno 10718 bound_to 10713
  154.7791  135.4831  153.9806 H   0  0  0  0  0  0  0  0  0  0  0  0  # atno 10763 bound_to 10752
  153.1469  135.6783  153.8948 H   0  0  0  0  0  0  0  0  0  0  0  0  # atno 10764 bound_to 10752
  153.8605  135.3156  155.3416 H   0  0  0  0  0  0  0  0  0  0  0  0  # atno 10765 bound_to 10752
  140.4809  134.0936  155.7751 H   0  0  0  0  0  0  0  0  0  0  0  0  # atno 11005 bound_to 11000
  145.8480  140.9544  143.0764 LP  0  0  0  0  0  0  0  0  0  0  0  0  # atno 17320 bound_to 7965
  144.6759  140.0370  143.7481 LP  0  0  0  0  0  0  0  0  0  0  0  0  # atno 17321 bound_to 7965
  139.6731  143.9985  152.2765 LP  0  0  0  0  0  0  0  0  0  0  0  0  # atno 17342 bound_to 10162
  139.9590  144.6570  150.8097 LP  0  0  0  0  0  0  0  0  0  0  0  0  # atno 17343 bound_to 10162
  156.0742  130.5768  150.9442 LP  0  0  0  0  0  0  0  0  0  0  0  0  # atno 17370 bound_to 10713
  157.6213  131.0929  150.8617 LP  0  0  0  0  0  0  0  0  0  0  0  0  # atno 17371 bound_to 10713
  141.1531  133.8932  157.2046 LP  0  0  0  0  0  0  0  0  0  0  0  0  # atno 17394 bound_to 11000
  139.9827  135.0093  156.9788 LP  0  0  0  0  0  0  0  0  0  0  0  0  # atno 17395 bound_to 11000

$$$$
