AV-unprocessed.smi:1749|AV-procd|sdf|7046|dock10
  -GOLD-   22720 8263D 1   1.00000     0.00000
 Structure written by MMmdl.
 32 33  0  0  0  0  0  0  0  0  1 V2000
  153.0195  142.2900  161.5480 C   0  0  0  0  0  0  0  0  0  0  0  0
  152.7673  143.4065  160.5250 C   0  0  2  0  0  0  0  0  0  0  0  0
  152.0886  144.6259  161.1784 C   0  0  0  0  0  0  0  0  0  0  0  0
  151.8320  145.7435  160.1555 C   0  0  0  0  0  0  0  0  0  0  0  0
  151.0023  145.2320  158.9680 C   0  0  0  0  0  0  0  0  0  0  0  0
  151.6690  144.0144  158.3020 C   0  0  2  0  0  0  0  0  0  0  0  0
  150.8085  143.5046  157.2386 N   0  0  0  0  0  0  0  0  0  0  0  0
  150.8761  142.2880  156.6725 C   0  0  0  0  0  0  0  0  0  0  0  0
  151.7160  141.4482  156.9912 O   0  0  0  0  0  0  0  0  0  0  0  0
  149.9622  142.0212  155.7144 N   0  0  0  0  0  0  0  0  0  0  0  0
  149.7337  140.8640  154.9130 C   0  0  0  0  0  0  0  0  0  0  0  0
  150.6707  139.9542  154.5986 N   0  0  0  0  0  0  0  0  0  0  0  0
  150.1667  138.9378  153.7986 N   0  0  0  0  0  0  0  0  0  0  0  0
  148.8699  139.1191  153.5360 C   0  0  0  0  0  0  0  0  0  0  0  0
  148.1387  140.5499  154.2415 S   0  0  0  0  0  0  0  0  0  0  0  0
  151.9334  142.8995  159.3320 C   0  0  0  0  0  0  0  0  0  0  0  0
  152.0846  141.9232  161.9731 H   0  0  0  0  0  0  0  0  0  0  0  0
  153.6427  142.6437  162.3698 H   0  0  0  0  0  0  0  0  0  0  0  0
  153.5301  141.4436  161.0880 H   0  0  0  0  0  0  0  0  0  0  0  0
  153.7379  143.7269  160.1431 H   0  0  0  0  0  0  0  0  0  0  0  0
  151.1427  144.3241  161.6303 H   0  0  0  0  0  0  0  0  0  0  0  0
  152.7092  145.0088  161.9893 H   0  0  0  0  0  0  0  0  0  0  0  0
  151.3171  146.5758  160.6364 H   0  0  0  0  0  0  0  0  0  0  0  0
  152.7839  146.1355  159.7952 H   0  0  0  0  0  0  0  0  0  0  0  0
  150.0036  144.9634  159.3159 H   0  0  0  0  0  0  0  0  0  0  0  0
  150.8712  146.0326  158.2388 H   0  0  0  0  0  0  0  0  0  0  0  0
  152.6287  144.3360  157.8936 H   0  0  0  0  0  0  0  0  0  0  0  0
  150.0857  144.1290  156.9097 H   0  0  0  0  0  0  0  0  0  0  0  0
  149.3418  142.7915  155.5119 H   0  0  0  0  0  0  0  0  0  0  0  0
  148.3402  138.4057  152.9222 H   0  0  0  0  0  0  0  0  0  0  0  0
  152.4495  142.0691  158.8482 H   0  0  0  0  0  0  0  0  0  0  0  0
  150.9839  142.5019  159.6943 H   0  0  0  0  0  0  0  0  0  0  0  0
  1  2  1  0  0  0  0
  1 17  1  0  0  0  0
  1 18  1  0  0  0  0
  1 19  1  0  0  0  0
  2 16  1  0  0  0  0
  2  3  1  0  0  0  0
  2 20  1  0  0  0  0
  3  4  1  0  0  0  0
  3 21  1  0  0  0  0
  3 22  1  0  0  0  0
  4  5  1  0  0  0  0
  4 23  1  0  0  0  0
  4 24  1  0  0  0  0
  5  6  1  0  0  0  0
  5 25  1  0  0  0  0
  5 26  1  0  0  0  0
  6  7  1  0  0  0  0
  6 16  1  0  0  0  0
  6 27  1  0  0  0  0
  7  8  1  0  0  0  0
  7 28  1  0  0  0  0
  8  9  2  0  0  0  0
  8 10  1  0  0  0  0
 10 11  1  0  0  0  0
 10 29  1  0  0  0  0
 11 15  1  0  0  0  0
 11 12  2  0  0  0  0
 12 13  1  0  0  0  0
 13 14  2  0  0  0  0
 14 15  1  0  0  0  0
 14 30  1  0  0  0  0
 16 31  1  0  0  0  0
 16 32  1  0  0  0  0
M  END
> <s_m_source_file>
AV-unprocessed.smi

> <i_m_source_file_index>
1749

> <i_lp_mmshare_version>
43012

> <i_f3d_flags>
0

> <s_epik_input>
W0NIM11bQ0BASF0xW0NIMl1bQ0gyXVtDSDJdW0NASF0oW0NIMl0xKVtOSF1DKD1PKVtOSF1jMm5uW2NIXXMy

> <s_epik_cmdline>
J2VwaWtfcHl0aG9uJywgJy1waCcsICc3LjAnLCAnLXRuJywgJzgnLCAnLW1hJywgJzIwMCcsICctbWV0YWxfYmluZGluZycsICctaW1hZScsICc8aW5maWxlLm1hZT4nLCAnLW9tYWUnLCAnPG91dGZpbGUubWFlPic=

> <r_lp_tautomer_probability>
1

> <r_epik_Ionization_Penalty>
0.000318591

> <r_epik_Ionization_Penalty_Charging>
0

> <r_epik_Ionization_Penalty_Neutral>
0.000318591

> <r_epik_State_Penalty>
-0

> <r_epik_Charging_Adjusted_Penalty>
0

> <i_epik_Tot_Q>
0

> <i_epik_Tot_abs_Q>
0

> <r_epik_Metal_State_Penalty>
0.169791

> <b_epik_Metal_Only>
0

> <s_lp_Force_Field>
OPLS_2005

> <r_lp_Energy>
11.6734

> <b_lp_Chiralities_Consistent>
1

> <s_lp_Variant>
AV-unprocessed.smi:1749-3

> <Gold.Version>
5.8.1

> <Gold.Id.Protein>
6NUR|6NUR_protein|mol2

> <Gold.PLP.Fitness>
47.9020

> <Gold.PLP.PLP>
-36.7063

> <Gold.PLP.part.hbond>
-3.0000

> <Gold.PLP.part.metal>
0.0000

> <Gold.PLP.part.buried>
-1.7898

> <Gold.PLP.part.nonpolar>
-32.4232

> <Gold.PLP.part.repulsive>
1.2157

> <Gold.PLP.ligand.clash>
0.0000

> <Gold.PLP.ligand.torsion>
0.4007

> <Gold.PLP.Chemscore.Hbond>
3.0000

> <Gold.PLP.Chemscore.CHOScore>
0.9983

> <Gold.PLP.Chemscore.Metal>
0.0000

> <Gold.Chemscore.Hbonds>
donor molecule, donor type, donor heavy atom, donor atom, acceptor molecule, acceptor atom, score
      L1  H     7    28       P1  8028  1.00
      L1  H    10    29       P1  8028  1.00
      P1  H  7989  7998       L1    12  1.00
      L1  C    14    30       P1  7948  1.00

> <Gold.PLP.Chemscore.Internal.Correction>
0.0021

> <Gold.Rescore>
     Score         DG    S(hbond)    S(metal)    S(lipo)     H(rot)  DE(clash)    DE(int)     intcor
     17.17     -20.23       1.85        0.00      95.23       1.00       0.15       2.92       ----

> <Gold.Chemscore.Fitness>
17.1678

> <Gold.Chemscore.DG>
-20.2348

> <Gold.Chemscore.ZeroCoef>
-5.4800

> <Gold.Chemscore.Hbond>
1.8480

> <Gold.Chemscore.Metal>
0.0000

> <Gold.Chemscore.Lipo>
95.2347

> <Gold.Chemscore.Internal_Hbond>
0.0000

> <Gold.Chemscore.DEClash>
0.1504

> <Gold.Chemscore.DEInternal>
2.9166

> <Gold.Chemscore.Rot>
1.0000

> <Gold.Chemscore.Internal.Correction>
   9.000000E+99

> <Gold.Chemscore.Hbonds>
donor molecule, donor type, donor heavy atom, donor atom, acceptor molecule, acceptor atom, score
      L1  H     7    28       P1  8028  0.92
      L1  H    10    29       P1  8028  0.93
      P1  H  7989  7998       L1    12  0.10

> <Gold.Chemscore.Hbond.Weighted>
-6.1723

> <Gold.Chemscore.Metal.Weighted>
-0.0000

> <Gold.Chemscore.Lipo.Weighted>
-11.1425

> <Gold.Chemscore.Internal_Hbond.Weighted>
0.0000

> <Gold.Chemscore.DEClash.Weighted>
0.1504

> <Gold.Chemscore.DEInternal.Weighted>
2.9166

> <Gold.Chemscore.Rot.Weighted>
2.5600

> <Gold.Chemscore.Internal.Correction.Weighted>
   9.000000E+99

> <Gold.Protein.RotatedTorsions>
[ 6907 6896 6895 6894 ] final  -44.02 input  -60.11 | X-H torsion
[ 7974 7965 7964 7962 ] final  -29.69 input  175.53 | X-H torsion
[ 8008 7997 7996 7995 ] final  -94.11 input   59.86 | X-H torsion
[ 10167 10162 10161 10158 ] final -131.91 input  -65.29 | X-H torsion
[ 10718 10713 10712 10709 ] final  -74.11 input   66.30 | X-H torsion
[ 10763 10752 10751 10750 ] final  175.90 input  -60.55 | X-H torsion
[ 11005 11000 10999 10996 ] final   16.36 input  -57.11 | X-H torsion

> <Gold.Protein.ActiveResidues>
 VAL166  LYS551  ARG553  GLY616  TRP617  ASP618  TYR619  PRO620  LYS621  CYS622 
 ASP623  PHE694  ASN695  SER759  ASP760  ASP761  ALA762  ILE779  LEU786  VAL792 
 PHE793  MET794  SER795  GLU796  ALA797  LYS798  CYS799  TRP800  GLU811  SER814 

> <Gold.Protein.RotatedAtoms>
  150.9374  134.8786  159.7590 H   0  0  0  0  0  0  0  0  0  0  0  0  # atno 6907 bound_to 6896
  152.5065  134.3990  159.9420 H   0  0  0  0  0  0  0  0  0  0  0  0  # atno 6908 bound_to 6896
  151.4013  133.3716  159.2767 H   0  0  0  0  0  0  0  0  0  0  0  0  # atno 6909 bound_to 6896
  146.1198  140.5444  142.8740 H   0  0  0  0  0  0  0  0  0  0  0  0  # atno 7974 bound_to 7965
  154.7442  140.0492  157.0837 H   0  0  0  0  0  0  0  0  0  0  0  0  # atno 8008 bound_to 7997
  155.0139  140.3139  155.4800 H   0  0  0  0  0  0  0  0  0  0  0  0  # atno 8009 bound_to 7997
  156.2871  140.2179  156.5255 H   0  0  0  0  0  0  0  0  0  0  0  0  # atno 8010 bound_to 7997
  139.9140  143.6460  152.2569 H   0  0  0  0  0  0  0  0  0  0  0  0  # atno 10167 bound_to 10162
  156.0255  130.4409  150.2842 H   0  0  0  0  0  0  0  0  0  0  0  0  # atno 10718 bound_to 10713
  154.4739  135.2772  155.1622 H   0  0  0  0  0  0  0  0  0  0  0  0  # atno 10763 bound_to 10752
  154.3359  135.6180  153.5577 H   0  0  0  0  0  0  0  0  0  0  0  0  # atno 10764 bound_to 10752
  152.9867  135.5777  154.5126 H   0  0  0  0  0  0  0  0  0  0  0  0  # atno 10765 bound_to 10752
  140.4480  134.1253  155.7698 H   0  0  0  0  0  0  0  0  0  0  0  0  # atno 11005 bound_to 11000
  144.7586  140.5369  143.6751 LP  0  0  0  0  0  0  0  0  0  0  0  0  # atno 17320 bound_to 7965
  145.5490  139.1476  143.3405 LP  0  0  0  0  0  0  0  0  0  0  0  0  # atno 17321 bound_to 7965
  139.6918  144.7646  151.1426 LP  0  0  0  0  0  0  0  0  0  0  0  0  # atno 17342 bound_to 10162
  140.7678  143.5579  150.9131 LP  0  0  0  0  0  0  0  0  0  0  0  0  # atno 17343 bound_to 10162
  157.0946  131.0179  151.3109 LP  0  0  0  0  0  0  0  0  0  0  0  0  # atno 17370 bound_to 10713
  157.4828  130.7775  149.7430 LP  0  0  0  0  0  0  0  0  0  0  0  0  # atno 17371 bound_to 10713
  141.1676  133.8671  157.1667 LP  0  0  0  0  0  0  0  0  0  0  0  0  # atno 17394 bound_to 11000
  140.0025  135.0022  157.0222 LP  0  0  0  0  0  0  0  0  0  0  0  0  # atno 17395 bound_to 11000

$$$$
