AV-unprocessed.smi:2164|AV-procd|sdf|8811|dock4
  -GOLD-   2272012 03D 1   1.00000     0.00000
 Structure written by MMmdl.
 39 41  0  0  0  0  0  0  0  0  3 V2000
  153.5383  137.2001  157.5453 O   0  0  0  0  0  0  0  0  0  0  0  0
  153.0662  137.6102  158.6137 C   0  0  0  0  0  0  0  0  0  0  0  0
  153.0610  136.9103  159.7891 N   0  5  0  0  0  0  0  0  0  0  0  0
  153.4303  137.4525  161.0954 C   0  0  0  0  0  0  0  0  0  0  0  0
  154.9494  137.7104  161.1381 C   0  0  0  0  0  0  0  0  0  0  0  0
  155.4524  138.1617  162.5022 C   0  0  0  0  0  0  0  0  0  0  0  0
  156.1278  139.3953  162.6521 C   0  0  0  0  0  0  0  0  0  0  0  0
  156.5898  139.7826  163.9271 C   0  0  0  0  0  0  0  0  0  0  0  0
  156.3697  138.9275  165.0259 C   0  0  0  0  0  0  0  0  0  0  0  0
  155.7260  137.7534  164.8459 N   0  3  0  0  0  0  0  0  0  0  0  0
  155.2698  137.3455  163.6417 C   0  0  0  0  0  0  0  0  0  0  0  0
  152.4613  138.9503  158.6355 C   0  0  0  0  0  0  0  0  0  0  0  0
  152.9853  139.9890  159.3227 C   0  0  0  0  0  0  0  0  0  0  0  0
  152.4162  141.2650  159.3488 N   0  0  0  0  0  0  0  0  0  0  0  0
  153.0271  142.2708  160.2105 C   0  0  0  0  0  0  0  0  0  0  0  0
  153.0512  143.6217  159.5128 C   0  0  0  0  0  0  0  0  0  0  0  0
  151.3003  144.0928  159.2403 S   0  0  0  0  0  0  0  0  0  0  0  0
  150.6436  144.1842  160.5537 O   0  0  0  0  0  0  0  0  0  0  0  0
  151.2746  145.2552  158.3395 O   0  0  0  0  0  0  0  0  0  0  0  0
  150.7352  142.7356  158.4350 N   0  0  0  0  0  0  0  0  0  0  0  0
  151.2650  141.5579  158.5741 C   0  0  0  0  0  0  0  0  0  0  0  0
  150.6756  140.4335  157.8664 C   0  0  0  0  0  0  0  0  0  0  0  0
  151.2373  139.2078  157.8934 C   0  0  0  0  0  0  0  0  0  0  0  0
  152.9076  138.3865  161.3058 H   0  0  0  0  0  0  0  0  0  0  0  0
  153.1659  136.7710  161.9051 H   0  0  0  0  0  0  0  0  0  0  0  0
  155.4871  136.8047  160.8536 H   0  0  0  0  0  0  0  0  0  0  0  0
  155.2182  138.4675  160.4000 H   0  0  0  0  0  0  0  0  0  0  0  0
  156.2866  140.0395  161.7993 H   0  0  0  0  0  0  0  0  0  0  0  0
  157.1047  140.7229  164.0589 H   0  0  0  0  0  0  0  0  0  0  0  0
  156.6874  139.1446  166.0352 H   0  0  0  0  0  0  0  0  0  0  0  0
  154.7701  136.3878  163.6248 H   0  0  0  0  0  0  0  0  0  0  0  0
  153.8902  139.9061  159.9074 H   0  0  0  0  0  0  0  0  0  0  0  0
  152.4712  142.3278  161.1470 H   0  0  0  0  0  0  0  0  0  0  0  0
  154.0477  141.9868  160.4687 H   0  0  0  0  0  0  0  0  0  0  0  0
  153.5283  144.3852  160.1268 H   0  0  0  0  0  0  0  0  0  0  0  0
  153.5676  143.5767  158.5533 H   0  0  0  0  0  0  0  0  0  0  0  0
  149.7705  140.5513  157.2881 H   0  0  0  0  0  0  0  0  0  0  0  0
  150.7528  138.4129  157.3457 H   0  0  0  0  0  0  0  0  0  0  0  0
  155.5772  137.1480  165.6535 H   0  0  0  0  0  0  0  0  0  0  0  0
  1  2  2  0  0  0  0
  2  3  1  0  0  0  0
  2 12  1  0  0  0  0
  3  4  1  0  0  0  0
  4  5  1  0  0  0  0
  4 24  1  0  0  0  0
  4 25  1  0  0  0  0
  5  6  1  0  0  0  0
  5 26  1  0  0  0  0
  5 27  1  0  0  0  0
  6 11  1  0  0  0  0
  6  7  2  0  0  0  0
  7  8  1  0  0  0  0
  7 28  1  0  0  0  0
  8  9  2  0  0  0  0
  8 29  1  0  0  0  0
  9 10  1  0  0  0  0
  9 30  1  0  0  0  0
 10 11  2  0  0  0  0
 10 39  1  0  0  0  0
 11 31  1  0  0  0  0
 12 23  1  0  0  0  0
 12 13  2  0  0  0  0
 13 14  1  0  0  0  0
 13 32  1  0  0  0  0
 14 21  1  0  0  0  0
 14 15  1  0  0  0  0
 15 16  1  0  0  0  0
 15 33  1  0  0  0  0
 15 34  1  0  0  0  0
 16 17  1  0  0  0  0
 16 35  1  0  0  0  0
 16 36  1  0  0  0  0
 17 18  2  0  0  0  0
 17 19  2  0  0  0  0
 17 20  1  0  0  0  0
 20 21  2  0  0  0  0
 21 22  1  0  0  0  0
 22 23  2  0  0  0  0
 22 37  1  0  0  0  0
 23 38  1  0  0  0  0
M  CHG  1   3  -1
M  CHG  1  10   1
M  END
> <s_m_source_file>
AV-unprocessed.smi

> <i_m_source_file_index>
2164

> <i_lp_mmshare_version>
43012

> <i_f3d_flags>
0

> <s_epik_input>
W0NIMl0xW0NIMl1TKD1PKSg9TylOPUMoTjEyKVtDSF09W0NIXUMoPVtDSF0yKUMoPU8pW05IXVtDSDJdW0NIMl1jM1tjSF1bY0hdW2NIXW5bY0hdMw==

> <s_epik_cmdline>
J2VwaWtfcHl0aG9uJywgJy1waCcsICc3LjAnLCAnLXRuJywgJzgnLCAnLW1hJywgJzIwMCcsICctbWV0YWxfYmluZGluZycsICctaW1hZScsICc8aW5maWxlLm1hZT4nLCAnLW9tYWUnLCAnPG91dGZpbGUubWFlPic=

> <r_epik_Ionization_Penalty>
6.83439

> <r_epik_Ionization_Penalty_Charging>
6.83439

> <r_epik_Ionization_Penalty_Neutral>
0

> <r_epik_State_Penalty>
7.45298

> <r_epik_Charging_Adjusted_Penalty>
14.2874

> <i_epik_Tot_Q>
0

> <i_epik_Tot_abs_Q>
2

> <r_epik_Metal_State_Penalty>
3.5959

> <b_epik_Metal_Only>
1

> <s_lp_Force_Field>
OPLS_2005

> <r_lp_Energy>
30.4634

> <b_lp_Chiralities_Consistent>
1

> <s_lp_Variant>
AV-unprocessed.smi:2164-4

> <Gold.Version>
5.8.1

> <Gold.Id.Protein>
6NUR|6NUR_protein|mol2

> <Gold.PLP.Fitness>
43.9177

> <Gold.PLP.PLP>
-41.2909

> <Gold.PLP.part.hbond>
-3.2268

> <Gold.PLP.part.metal>
0.0000

> <Gold.PLP.part.buried>
-6.8117

> <Gold.PLP.part.nonpolar>
-31.9395

> <Gold.PLP.part.repulsive>
0.5277

> <Gold.PLP.ligand.clash>
0.0000

> <Gold.PLP.ligand.torsion>
1.7164

> <Gold.PLP.Chemscore.Hbond>
2.0000

> <Gold.PLP.Chemscore.CHOScore>
0.0000

> <Gold.PLP.Chemscore.Metal>
0.0000

> <Gold.Chemscore.Hbonds>
donor molecule, donor type, donor heavy atom, donor atom, acceptor molecule, acceptor atom, score
      P1  H  6896  6909       L1     3  1.14

> <Gold.PLP.Chemscore.Internal.Correction>
0.0596

> <Gold.Rescore>
     Score         DG    S(hbond)    S(metal)    S(lipo)     H(rot)  DE(clash)    DE(int)     intcor
     12.57     -14.39       0.85        0.00      84.86       1.51       0.01       1.81       ----

> <Gold.Chemscore.Fitness>
12.5667

> <Gold.Chemscore.DG>
-14.3915

> <Gold.Chemscore.ZeroCoef>
-5.4800

> <Gold.Chemscore.Hbond>
0.8534

> <Gold.Chemscore.Metal>
0.0000

> <Gold.Chemscore.Lipo>
84.8644

> <Gold.Chemscore.Internal_Hbond>
0.0000

> <Gold.Chemscore.DEClash>
0.0137

> <Gold.Chemscore.DEInternal>
1.8111

> <Gold.Chemscore.Rot>
1.5109

> <Gold.Chemscore.Internal.Correction>
   9.000000E+99

> <Gold.Chemscore.Hbonds>
donor molecule, donor type, donor heavy atom, donor atom, acceptor molecule, acceptor atom, score
      P1  H  6896  6909       L1     3  0.39

> <Gold.Chemscore.Hbond.Weighted>
-2.8504

> <Gold.Chemscore.Metal.Weighted>
-0.0000

> <Gold.Chemscore.Lipo.Weighted>
-9.9291

> <Gold.Chemscore.Internal_Hbond.Weighted>
0.0000

> <Gold.Chemscore.DEClash.Weighted>
0.0137

> <Gold.Chemscore.DEInternal.Weighted>
1.8111

> <Gold.Chemscore.Rot.Weighted>
3.8680

> <Gold.Chemscore.Internal.Correction.Weighted>
   9.000000E+99

> <Gold.Protein.RotatedTorsions>
[ 6907 6896 6895 6894 ] final  129.30 input  -60.11 | X-H torsion
[ 7974 7965 7964 7962 ] final -179.13 input  175.53 | X-H torsion
[ 8008 7997 7996 7995 ] final -138.16 input   59.86 | X-H torsion
[ 10167 10162 10161 10158 ] final -145.86 input  -65.29 | X-H torsion
[ 10718 10713 10712 10709 ] final  155.89 input   66.30 | X-H torsion
[ 10763 10752 10751 10750 ] final -104.18 input  -60.55 | X-H torsion
[ 11005 11000 10999 10996 ] final   33.15 input  -57.11 | X-H torsion

> <Gold.Protein.ActiveResidues>
 VAL166  LYS551  ARG553  GLY616  TRP617  ASP618  TYR619  PRO620  LYS621  CYS622 
 ASP623  PHE694  ASN695  SER759  ASP760  ASP761  ALA762  ILE779  LEU786  VAL792 
 PHE793  MET794  SER795  GLU796  ALA797  LYS798  CYS799  TRP800  GLU811  SER814 

> <Gold.Protein.RotatedAtoms>
  152.3637  133.6330  159.6034 H   0  0  0  0  0  0  0  0  0  0  0  0  # atno 6907 bound_to 6896
  150.7619  133.9382  159.3457 H   0  0  0  0  0  0  0  0  0  0  0  0  # atno 6908 bound_to 6896
  151.7216  135.0894  160.0336 H   0  0  0  0  0  0  0  0  0  0  0  0  # atno 6909 bound_to 6896
  144.7134  140.0764  143.6427 H   0  0  0  0  0  0  0  0  0  0  0  0  # atno 7974 bound_to 7965
  155.4237  140.0520  157.3024 H   0  0  0  0  0  0  0  0  0  0  0  0  # atno 8008 bound_to 7997
  154.4891  140.2113  155.9547 H   0  0  0  0  0  0  0  0  0  0  0  0  # atno 8009 bound_to 7997
  156.1317  140.3170  155.8364 H   0  0  0  0  0  0  0  0  0  0  0  0  # atno 8010 bound_to 7997
  139.7766  143.8160  152.2633 H   0  0  0  0  0  0  0  0  0  0  0  0  # atno 10167 bound_to 10162
  157.2123  131.0700  151.1962 H   0  0  0  0  0  0  0  0  0  0  0  0  # atno 10718 bound_to 10713
  154.7860  135.4796  153.9946 H   0  0  0  0  0  0  0  0  0  0  0  0  # atno 10763 bound_to 10752
  153.1561  135.6800  153.8818 H   0  0  0  0  0  0  0  0  0  0  0  0  # atno 10764 bound_to 10752
  153.8447  135.3175  155.3406 H   0  0  0  0  0  0  0  0  0  0  0  0  # atno 10765 bound_to 10752
  140.2661  134.3136  155.7842 H   0  0  0  0  0  0  0  0  0  0  0  0  # atno 11005 bound_to 11000
  145.9739  139.2890  143.1082 LP  0  0  0  0  0  0  0  0  0  0  0  0  # atno 17320 bound_to 7965
  145.9085  140.9195  143.0466 LP  0  0  0  0  0  0  0  0  0  0  0  0  # atno 17321 bound_to 7965
  139.8211  144.7295  150.9572 LP  0  0  0  0  0  0  0  0  0  0  0  0  # atno 17342 bound_to 10162
  140.7816  143.4158  151.0919 LP  0  0  0  0  0  0  0  0  0  0  0  0  # atno 17343 bound_to 10162
  157.3659  130.7156  149.6533 LP  0  0  0  0  0  0  0  0  0  0  0  0  # atno 17370 bound_to 10713
  155.9689  130.4212  150.4459 LP  0  0  0  0  0  0  0  0  0  0  0  0  # atno 17371 bound_to 10713
  141.2184  133.7438  156.9262 LP  0  0  0  0  0  0  0  0  0  0  0  0  # atno 17394 bound_to 11000
  140.1418  134.9288  157.2477 LP  0  0  0  0  0  0  0  0  0  0  0  0  # atno 17395 bound_to 11000

$$$$
