AV-unprocessed.smi:3075|AV-procd|sdf|11724|dock5
  -GOLD-   2272017123D 1   1.00000     0.00000
 Structure written by MMmdl.
 29 30  0  0  0  0  0  0  0  0  1 V2000
  149.0190  142.2488  156.2660 N   0  0  0  0  0  0  0  0  0  0  0  0
  150.3684  141.8384  155.9306 C   0  0  0  0  0  0  0  0  0  0  0  0
  151.2629  141.7063  157.1544 C   0  0  0  0  0  0  0  0  0  0  0  0
  151.4901  142.8430  157.9591 C   0  0  0  0  0  0  0  0  0  0  0  0
  152.3334  142.7367  159.0796 C   0  0  0  0  0  0  0  0  0  0  0  0
  152.9231  141.4893  159.3517 C   0  0  0  0  0  0  0  0  0  0  0  0
  152.7150  140.3931  158.5937 N   0  0  0  0  0  0  0  0  0  0  0  0
  151.8998  140.4874  157.5141 C   0  0  0  0  0  0  0  0  0  0  0  0
  151.6824  139.3161  156.7646 N   0  0  0  0  0  0  0  0  0  0  0  0
  152.0487  139.3585  155.3522 C   0  0  0  0  0  0  0  0  0  0  0  0
  151.5633  138.0800  154.6481 C   0  0  0  0  0  0  0  0  0  0  0  0
  152.0992  136.9382  155.3113 O   0  0  0  0  0  0  0  0  0  0  0  0
  151.6811  136.8630  156.6714 C   0  0  0  0  0  0  0  0  0  0  0  0
  152.1601  138.1116  157.4319 C   0  0  0  0  0  0  0  0  0  0  0  0
  148.9901  143.2539  156.3618 H   0  0  0  0  0  0  0  0  0  0  0  0
  148.4024  142.0261  155.4978 H   0  0  0  0  0  0  0  0  0  0  0  0
  150.3309  140.9105  155.3604 H   0  0  0  0  0  0  0  0  0  0  0  0
  150.7992  142.5874  155.2655 H   0  0  0  0  0  0  0  0  0  0  0  0
  151.0251  143.7878  157.7184 H   0  0  0  0  0  0  0  0  0  0  0  0
  152.5253  143.5903  159.7125 H   0  0  0  0  0  0  0  0  0  0  0  0
  153.5779  141.3674  160.2018 H   0  0  0  0  0  0  0  0  0  0  0  0
  151.6075  140.2377  154.8811 H   0  0  0  0  0  0  0  0  0  0  0  0
  153.1318  139.4430  155.2518 H   0  0  0  0  0  0  0  0  0  0  0  0
  150.4732  138.0305  154.6388 H   0  0  0  0  0  0  0  0  0  0  0  0
  151.8922  138.0748  153.6088 H   0  0  0  0  0  0  0  0  0  0  0  0
  150.5950  136.7695  156.7241 H   0  0  0  0  0  0  0  0  0  0  0  0
  152.1007  135.9640  157.1233 H   0  0  0  0  0  0  0  0  0  0  0  0
  153.2503  138.1317  157.4680 H   0  0  0  0  0  0  0  0  0  0  0  0
  151.8086  138.0764  158.4626 H   0  0  0  0  0  0  0  0  0  0  0  0
  1  2  1  0  0  0  0
  1 15  1  0  0  0  0
  1 16  1  0  0  0  0
  2  3  1  0  0  0  0
  2 17  1  0  0  0  0
  2 18  1  0  0  0  0
  3  8  1  0  0  0  0
  3  4  2  0  0  0  0
  4  5  1  0  0  0  0
  4 19  1  0  0  0  0
  5  6  2  0  0  0  0
  5 20  1  0  0  0  0
  6  7  1  0  0  0  0
  6 21  1  0  0  0  0
  7  8  2  0  0  0  0
  8  9  1  0  0  0  0
  9 14  1  0  0  0  0
  9 10  1  0  0  0  0
 10 11  1  0  0  0  0
 10 22  1  0  0  0  0
 10 23  1  0  0  0  0
 11 12  1  0  0  0  0
 11 24  1  0  0  0  0
 11 25  1  0  0  0  0
 12 13  1  0  0  0  0
 13 14  1  0  0  0  0
 13 26  1  0  0  0  0
 13 27  1  0  0  0  0
 14 28  1  0  0  0  0
 14 29  1  0  0  0  0
M  END
> <s_m_source_file>
AV-unprocessed.smi

> <i_m_source_file_index>
3075

> <i_lp_mmshare_version>
43012

> <i_f3d_flags>
0

> <s_epik_input>
W05IMl1bQ0gyXWMxW2NIXVtjSF1bY0hdbmMxTjJbQ0gyXVtDSDJdT1tDSDJdW0NIMl0y

> <s_epik_cmdline>
J2VwaWtfcHl0aG9uJywgJy1waCcsICc3LjAnLCAnLXRuJywgJzgnLCAnLW1hJywgJzIwMCcsICctbWV0YWxfYmluZGluZycsICctaW1hZScsICc8aW5maWxlLm1hZT4nLCAnLW9tYWUnLCAnPG91dGZpbGUubWFlPic=

> <r_lp_tautomer_probability>
1

> <r_epik_Ionization_Penalty>
1.38161

> <r_epik_Ionization_Penalty_Charging>
0

> <r_epik_Ionization_Penalty_Neutral>
1.38161

> <r_epik_State_Penalty>
1.45585

> <r_epik_Charging_Adjusted_Penalty>
1.45585

> <i_epik_Tot_Q>
0

> <i_epik_Tot_abs_Q>
0

> <r_epik_Metal_State_Penalty>
1.45048

> <b_epik_Metal_Only>
0

> <s_lp_Force_Field>
OPLS_2005

> <r_lp_Energy>
18.9945

> <b_lp_Chiralities_Consistent>
1

> <s_lp_Variant>
AV-unprocessed.smi:3075-2

> <Gold.Version>
5.8.1

> <Gold.Id.Protein>
6NUR|6NUR_protein|mol2

> <Gold.PLP.Fitness>
31.3162

> <Gold.PLP.PLP>
-25.4388

> <Gold.PLP.part.hbond>
-1.9369

> <Gold.PLP.part.metal>
0.0000

> <Gold.PLP.part.buried>
-4.2731

> <Gold.PLP.part.nonpolar>
-19.5810

> <Gold.PLP.part.repulsive>
0.0580

> <Gold.PLP.ligand.clash>
0.0000

> <Gold.PLP.ligand.torsion>
0.1380

> <Gold.PLP.Chemscore.Hbond>
1.9920

> <Gold.PLP.Chemscore.CHOScore>
0.0000

> <Gold.PLP.Chemscore.Metal>
0.0000

> <Gold.Chemscore.Hbonds>
donor molecule, donor type, donor heavy atom, donor atom, acceptor molecule, acceptor atom, score
      L1  H     1    15       P1  8028  0.99
      P1  H 10752 10764       L1    12  0.96

> <Gold.PLP.Chemscore.Internal.Correction>
0.1774

> <Gold.Rescore>
     Score         DG    S(hbond)    S(metal)    S(lipo)     H(rot)  DE(clash)    DE(int)     intcor
     16.59     -16.80       1.98        0.00      68.56       1.29       0.00       0.21       ----

> <Gold.Chemscore.Fitness>
16.5905

> <Gold.Chemscore.DG>
-16.8034

> <Gold.Chemscore.ZeroCoef>
-5.4800

> <Gold.Chemscore.Hbond>
1.9754

> <Gold.Chemscore.Metal>
0.0000

> <Gold.Chemscore.Lipo>
68.5600

> <Gold.Chemscore.Internal_Hbond>
0.0000

> <Gold.Chemscore.DEClash>
0.0000

> <Gold.Chemscore.DEInternal>
0.2129

> <Gold.Chemscore.Rot>
1.2875

> <Gold.Chemscore.Internal.Correction>
   9.000000E+99

> <Gold.Chemscore.Hbonds>
donor molecule, donor type, donor heavy atom, donor atom, acceptor molecule, acceptor atom, score
      L1  H     1    15       P1  8028  0.92
      P1  H 10752 10764       L1    12  0.84

> <Gold.Chemscore.Hbond.Weighted>
-6.5979

> <Gold.Chemscore.Metal.Weighted>
-0.0000

> <Gold.Chemscore.Lipo.Weighted>
-8.0215

> <Gold.Chemscore.Internal_Hbond.Weighted>
0.0000

> <Gold.Chemscore.DEClash.Weighted>
0.0000

> <Gold.Chemscore.DEInternal.Weighted>
0.2129

> <Gold.Chemscore.Rot.Weighted>
3.2961

> <Gold.Chemscore.Internal.Correction.Weighted>
   9.000000E+99

> <Gold.Protein.RotatedTorsions>
[ 6907 6896 6895 6894 ] final  128.14 input  -60.11 | X-H torsion
[ 7974 7965 7964 7962 ] final  -25.74 input  175.53 | X-H torsion
[ 8008 7997 7996 7995 ] final   53.29 input   59.86 | X-H torsion
[ 10167 10162 10161 10158 ] final   76.82 input  -65.29 | X-H torsion
[ 10718 10713 10712 10709 ] final  168.09 input   66.30 | X-H torsion
[ 10763 10752 10751 10750 ] final  -49.92 input  -60.55 | X-H torsion
[ 11005 11000 10999 10996 ] final  -97.95 input  -57.11 | X-H torsion

> <Gold.Protein.ActiveResidues>
 VAL166  LYS551  ARG553  GLY616  TRP617  ASP618  TYR619  PRO620  LYS621  CYS622 
 ASP623  PHE694  ASN695  SER759  ASP760  ASP761  ALA762  ILE779  LEU786  VAL792 
 PHE793  MET794  SER795  GLU796  ALA797  LYS798  CYS799  TRP800  GLU811  SER814 

> <Gold.Protein.RotatedAtoms>
  152.3747  133.6465  159.6113 H   0  0  0  0  0  0  0  0  0  0  0  0  # atno 6907 bound_to 6896
  150.7695  133.9213  159.3407 H   0  0  0  0  0  0  0  0  0  0  0  0  # atno 6908 bound_to 6896
  151.7029  135.0928  160.0305 H   0  0  0  0  0  0  0  0  0  0  0  0  # atno 6909 bound_to 6896
  146.1471  140.4927  142.8627 H   0  0  0  0  0  0  0  0  0  0  0  0  # atno 7974 bound_to 7965
  155.4658  140.3463  155.4319 H   0  0  0  0  0  0  0  0  0  0  0  0  # atno 8008 bound_to 7997
  156.1132  140.1466  156.9339 H   0  0  0  0  0  0  0  0  0  0  0  0  # atno 8009 bound_to 7997
  154.4770  140.0882  156.7266 H   0  0  0  0  0  0  0  0  0  0  0  0  # atno 8010 bound_to 7997
  139.9881  144.5777  150.7842 H   0  0  0  0  0  0  0  0  0  0  0  0  # atno 10167 bound_to 10162
  157.0420  131.0289  151.2710 H   0  0  0  0  0  0  0  0  0  0  0  0  # atno 10718 bound_to 10713
  154.1020  135.6562  153.4870 H   0  0  0  0  0  0  0  0  0  0  0  0  # atno 10763 bound_to 10752
  153.0285  135.5227  154.7277 H   0  0  0  0  0  0  0  0  0  0  0  0  # atno 10764 bound_to 10752
  154.6432  135.2991  155.0047 H   0  0  0  0  0  0  0  0  0  0  0  0  # atno 10765 bound_to 10752
  141.1362  133.8209  157.0774 H   0  0  0  0  0  0  0  0  0  0  0  0  # atno 11005 bound_to 11000
  144.7860  140.5936  143.6574 LP  0  0  0  0  0  0  0  0  0  0  0  0  # atno 17320 bound_to 7965
  145.4911  139.1488  143.3709 LP  0  0  0  0  0  0  0  0  0  0  0  0  # atno 17321 bound_to 7965
  140.7465  143.2891  151.3380 LP  0  0  0  0  0  0  0  0  0  0  0  0  # atno 17342 bound_to 10162
  139.6360  144.0630  152.2516 LP  0  0  0  0  0  0  0  0  0  0  0  0  # atno 17343 bound_to 10162
  157.5097  130.7930  149.7691 LP  0  0  0  0  0  0  0  0  0  0  0  0  # atno 17370 bound_to 10713
  156.0035  130.3867  150.2518 LP  0  0  0  0  0  0  0  0  0  0  0  0  # atno 17371 bound_to 10713
  140.0473  134.9824  157.1072 LP  0  0  0  0  0  0  0  0  0  0  0  0  # atno 17394 bound_to 11000
  140.4044  134.2048  155.7163 LP  0  0  0  0  0  0  0  0  0  0  0  0  # atno 17395 bound_to 11000

$$$$
