AV-unprocessed.smi:1264|AV-procd|sdf|5313|dock1
  -GOLD-   22720 4433D 1   1.00000     0.00000
 Structure written by MMmdl.
 43 43  0  0  0  0  0  0  0  0  1 V2000
  148.0360  127.5876  151.4608 C   0  0  0  0  0  0  0  0  0  0  0  0
  147.5122  128.9388  151.5883 N   0  0  0  0  0  0  0  0  0  0  0  0
  146.5728  129.3023  152.4728 C   0  0  0  0  0  0  0  0  0  0  0  0
  146.0655  128.5160  153.2751 O   0  0  0  0  0  0  0  0  0  0  0  0
  146.1620  130.7847  152.4594 C   0  0  2  0  0  0  0  0  0  0  0  0
  145.5980  131.1046  151.0544 C   0  0  0  0  0  0  0  0  0  0  0  0
  144.8044  132.4270  150.9471 C   0  0  0  0  0  0  0  0  0  0  0  0
  143.9244  132.4869  149.6871 C   0  0  0  0  0  0  0  0  0  0  0  0
  145.7573  133.6315  150.9919 C   0  0  0  0  0  0  0  0  0  0  0  0
  147.3369  131.6219  152.6974 N   0  0  0  0  0  0  0  0  0  0  0  0
  147.4815  132.4856  153.7142 C   0  0  0  0  0  0  0  0  0  0  0  0
  146.6054  132.7037  154.5510 O   0  0  0  0  0  0  0  0  0  0  0  0
  148.8282  133.2004  153.8121 C   0  0  0  0  0  0  0  0  0  0  0  0
  149.3904  133.0166  155.1981 C   0  0  0  0  0  0  0  0  0  0  0  0
  149.5386  133.9889  156.2302 C   0  0  0  0  0  0  0  0  0  0  0  0
  149.1790  135.4470  156.2133 C   0  0  0  0  0  0  0  0  0  0  0  0
  150.0771  133.4713  157.3214 N   0  0  0  0  0  0  0  0  0  0  0  0
  150.3056  132.1223  157.0345 O   0  0  0  0  0  0  0  0  0  0  0  0
  149.8925  131.8779  155.7653 C   0  0  0  0  0  0  0  0  0  0  0  0
  150.0612  130.4838  155.2637 C   0  0  0  0  0  0  0  0  0  0  0  0
  148.7600  127.5449  150.6474 H   0  0  0  0  0  0  0  0  0  0  0  0
  147.2360  126.8790  151.2428 H   0  0  0  0  0  0  0  0  0  0  0  0
  148.5352  127.2775  152.3796 H   0  0  0  0  0  0  0  0  0  0  0  0
  147.8828  129.6406  150.9640 H   0  0  0  0  0  0  0  0  0  0  0  0
  145.4041  130.9596  153.2248 H   0  0  0  0  0  0  0  0  0  0  0  0
  146.4216  131.1349  150.3385 H   0  0  0  0  0  0  0  0  0  0  0  0
  144.9534  130.2865  150.7279 H   0  0  0  0  0  0  0  0  0  0  0  0
  144.1483  132.5120  151.8140 H   0  0  0  0  0  0  0  0  0  0  0  0
  144.5182  132.3585  148.7817 H   0  0  0  0  0  0  0  0  0  0  0  0
  143.4112  133.4461  149.6137 H   0  0  0  0  0  0  0  0  0  0  0  0
  143.1551  131.7150  149.6963 H   0  0  0  0  0  0  0  0  0  0  0  0
  146.4475  133.6227  150.1476 H   0  0  0  0  0  0  0  0  0  0  0  0
  146.3503  133.6313  151.9068 H   0  0  0  0  0  0  0  0  0  0  0  0
  145.2058  134.5718  150.9607 H   0  0  0  0  0  0  0  0  0  0  0  0
  148.1136  131.5024  152.0635 H   0  0  0  0  0  0  0  0  0  0  0  0
  149.5089  132.8178  153.0506 H   0  0  0  0  0  0  0  0  0  0  0  0
  148.6802  134.2555  153.5789 H   0  0  0  0  0  0  0  0  0  0  0  0
  148.5626  135.6973  155.3502 H   0  0  0  0  0  0  0  0  0  0  0  0
  150.0734  136.0689  156.1717 H   0  0  0  0  0  0  0  0  0  0  0  0
  148.6211  135.7258  157.1077 H   0  0  0  0  0  0  0  0  0  0  0  0
  150.2776  130.4789  154.1952 H   0  0  0  0  0  0  0  0  0  0  0  0
  149.1532  129.9034  155.4282 H   0  0  0  0  0  0  0  0  0  0  0  0
  150.8828  129.9811  155.7744 H   0  0  0  0  0  0  0  0  0  0  0  0
  1  2  1  0  0  0  0
  1 21  1  0  0  0  0
  1 22  1  0  0  0  0
  1 23  1  0  0  0  0
  2  3  1  0  0  0  0
  2 24  1  0  0  0  0
  3  4  2  0  0  0  0
  3  5  1  0  0  0  0
  5  6  1  0  0  0  0
  5 10  1  0  0  0  0
  5 25  1  0  0  0  0
  6  7  1  0  0  0  0
  6 26  1  0  0  0  0
  6 27  1  0  0  0  0
  7  8  1  0  0  0  0
  7  9  1  0  0  0  0
  7 28  1  0  0  0  0
  8 29  1  0  0  0  0
  8 30  1  0  0  0  0
  8 31  1  0  0  0  0
  9 32  1  0  0  0  0
  9 33  1  0  0  0  0
  9 34  1  0  0  0  0
 10 11  1  0  0  0  0
 10 35  1  0  0  0  0
 11 12  2  0  0  0  0
 11 13  1  0  0  0  0
 13 14  1  0  0  0  0
 13 36  1  0  0  0  0
 13 37  1  0  0  0  0
 14 19  2  0  0  0  0
 14 15  1  0  0  0  0
 15 16  1  0  0  0  0
 15 17  2  0  0  0  0
 16 38  1  0  0  0  0
 16 39  1  0  0  0  0
 16 40  1  0  0  0  0
 17 18  1  0  0  0  0
 18 19  1  0  0  0  0
 19 20  1  0  0  0  0
 20 41  1  0  0  0  0
 20 42  1  0  0  0  0
 20 43  1  0  0  0  0
M  END
> <s_m_source_file>
AV-unprocessed.smi

> <i_m_source_file_index>
1264

> <i_lp_mmshare_version>
43012

> <i_f3d_flags>
0

> <s_epik_input>
W0NIM11bTkhdQyg9TylbQ0BIXShbQ0gyXVtDSF0oW0NIM10pW0NIM10pW05IXUMoPU8pW0NIMl1jMWMoW0NIM10pbm9jMVtDSDNd

> <s_epik_cmdline>
J2VwaWtfcHl0aG9uJywgJy1waCcsICc3LjAnLCAnLXRuJywgJzgnLCAnLW1hJywgJzIwMCcsICctbWV0YWxfYmluZGluZycsICctaW1hZScsICc8aW5maWxlLm1hZT4nLCAnLW9tYWUnLCAnPG91dGZpbGUubWFlPic=

> <r_lp_tautomer_probability>
1

> <r_epik_Ionization_Penalty>
6.00781e-08

> <r_epik_Ionization_Penalty_Charging>
0

> <r_epik_Ionization_Penalty_Neutral>
6.00781e-08

> <r_epik_State_Penalty>
-0

> <r_epik_Charging_Adjusted_Penalty>
0

> <i_epik_Tot_Q>
0

> <i_epik_Tot_abs_Q>
0

> <r_epik_Metal_State_Penalty>
-0

> <b_epik_Metal_Only>
0

> <s_lp_Force_Field>
OPLS_2005

> <r_lp_Energy>
-0.565017

> <b_lp_Chiralities_Consistent>
1

> <s_lp_Variant>
AV-unprocessed.smi:1264-1

> <Gold.Version>
5.8.1

> <Gold.Id.Protein>
6NUR|6NUR_protein|mol2

> <Gold.PLP.Fitness>
46.3597

> <Gold.PLP.PLP>
-38.9982

> <Gold.PLP.part.hbond>
-2.8836

> <Gold.PLP.part.metal>
0.0000

> <Gold.PLP.part.buried>
-6.0716

> <Gold.PLP.part.nonpolar>
-30.7082

> <Gold.PLP.part.repulsive>
0.2375

> <Gold.PLP.ligand.clash>
0.0000

> <Gold.PLP.ligand.torsion>
0.4016

> <Gold.PLP.Chemscore.Hbond>
2.6932

> <Gold.PLP.Chemscore.CHOScore>
0.0000

> <Gold.PLP.Chemscore.Metal>
0.0000

> <Gold.Chemscore.Hbonds>
donor molecule, donor type, donor heavy atom, donor atom, acceptor molecule, acceptor atom, score
      L1  H     2    24       P1 10747  1.00
      L1  H    10    35       P1 10747  0.88
      P1  H  6896  6909       L1    17  0.48

> <Gold.PLP.Chemscore.Internal.Correction>
0.0853

> <Gold.Rescore>
     Score         DG    S(hbond)    S(metal)    S(lipo)     H(rot)  DE(clash)    DE(int)     intcor
     17.76     -18.32       2.73        0.00      77.63       2.09       0.00       0.56       ----

> <Gold.Chemscore.Fitness>
17.7603

> <Gold.Chemscore.DG>
-18.3230

> <Gold.Chemscore.ZeroCoef>
-5.4800

> <Gold.Chemscore.Hbond>
2.7301

> <Gold.Chemscore.Metal>
0.0000

> <Gold.Chemscore.Lipo>
77.6315

> <Gold.Chemscore.Internal_Hbond>
0.0000

> <Gold.Chemscore.DEClash>
0.0000

> <Gold.Chemscore.DEInternal>
0.5628

> <Gold.Chemscore.Rot>
2.0931

> <Gold.Chemscore.Internal.Correction>
   9.000000E+99

> <Gold.Chemscore.Hbonds>
donor molecule, donor type, donor heavy atom, donor atom, acceptor molecule, acceptor atom, score
      L1  H     2    24       P1 10747  0.90
      L1  H    10    35       P1 10747  0.83
      P1  H  6896  6909       L1    17  0.07

> <Gold.Chemscore.Hbond.Weighted>
-9.1186

> <Gold.Chemscore.Metal.Weighted>
-0.0000

> <Gold.Chemscore.Lipo.Weighted>
-9.0829

> <Gold.Chemscore.Internal_Hbond.Weighted>
0.0000

> <Gold.Chemscore.DEClash.Weighted>
0.0000

> <Gold.Chemscore.DEInternal.Weighted>
0.5628

> <Gold.Chemscore.Rot.Weighted>
5.3584

> <Gold.Chemscore.Internal.Correction.Weighted>
   9.000000E+99

> <Gold.Protein.RotatedTorsions>
[ 6907 6896 6895 6894 ] final  -27.25 input  -60.11 | X-H torsion
[ 7974 7965 7964 7962 ] final   34.62 input  175.53 | X-H torsion
[ 8008 7997 7996 7995 ] final    6.31 input   59.86 | X-H torsion
[ 10167 10162 10161 10158 ] final -152.05 input  -65.29 | X-H torsion
[ 10718 10713 10712 10709 ] final  -47.74 input   66.30 | X-H torsion
[ 10763 10752 10751 10750 ] final -125.10 input  -60.55 | X-H torsion
[ 11005 11000 10999 10996 ] final   71.50 input  -57.11 | X-H torsion

> <Gold.Protein.ActiveResidues>
 VAL166  LYS551  ARG553  GLY616  TRP617  ASP618  TYR619  PRO620  LYS621  CYS622 
 ASP623  PHE694  ASN695  SER759  ASP760  ASP761  ALA762  ILE779  LEU786  VAL792 
 PHE793  MET794  SER795  GLU796  ALA797  LYS798  CYS799  TRP800  GLU811  SER814 

> <Gold.Protein.RotatedAtoms>
  151.1496  135.0220  159.8661 H   0  0  0  0  0  0  0  0  0  0  0  0  # atno 6907 bound_to 6896
  152.5453  134.1404  159.8487 H   0  0  0  0  0  0  0  0  0  0  0  0  # atno 6908 bound_to 6896
  151.1488  133.4875  159.2628 H   0  0  0  0  0  0  0  0  0  0  0  0  # atno 6909 bound_to 6896
  146.1340  139.6245  142.9208 H   0  0  0  0  0  0  0  0  0  0  0  0  # atno 7974 bound_to 7965
  154.7394  140.2746  155.6386 H   0  0  0  0  0  0  0  0  0  0  0  0  # atno 8008 bound_to 7997
  156.2870  140.2700  156.2043 H   0  0  0  0  0  0  0  0  0  0  0  0  # atno 8009 bound_to 7997
  155.0278  140.0371  157.2452 H   0  0  0  0  0  0  0  0  0  0  0  0  # atno 8010 bound_to 7997
  139.7215  143.8950  152.2505 H   0  0  0  0  0  0  0  0  0  0  0  0  # atno 10167 bound_to 10162
  156.2055  130.4158  149.9183 H   0  0  0  0  0  0  0  0  0  0  0  0  # atno 10718 bound_to 10713
  154.8732  135.4041  154.3212 H   0  0  0  0  0  0  0  0  0  0  0  0  # atno 10763 bound_to 10752
  153.4040  135.7019  153.6411 H   0  0  0  0  0  0  0  0  0  0  0  0  # atno 10764 bound_to 10752
  153.5141  135.3701  155.2572 H   0  0  0  0  0  0  0  0  0  0  0  0  # atno 10765 bound_to 10752
  139.9540  134.7177  156.0796 H   0  0  0  0  0  0  0  0  0  0  0  0  # atno 11005 bound_to 11000
  145.5198  141.0432  143.2442 LP  0  0  0  0  0  0  0  0  0  0  0  0  # atno 17320 bound_to 7965
  144.7720  139.6714  143.7191 LP  0  0  0  0  0  0  0  0  0  0  0  0  # atno 17321 bound_to 7965
  139.8847  144.6998  150.8837 LP  0  0  0  0  0  0  0  0  0  0  0  0  # atno 17342 bound_to 10162
  140.7754  143.3633  151.1787 LP  0  0  0  0  0  0  0  0  0  0  0  0  # atno 17343 bound_to 10162
  156.6879  130.8884  151.3584 LP  0  0  0  0  0  0  0  0  0  0  0  0  # atno 17370 bound_to 10713
  157.7010  130.9333  150.0785 LP  0  0  0  0  0  0  0  0  0  0  0  0  # atno 17371 bound_to 10713
  141.1208  133.6613  156.3210 LP  0  0  0  0  0  0  0  0  0  0  0  0  # atno 17394 bound_to 11000
  140.5653  134.5894  157.5444 LP  0  0  0  0  0  0  0  0  0  0  0  0  # atno 17395 bound_to 11000

$$$$
