AV-unprocessed.smi:1906|AV-procd|sdf|7728|dock9
  -GOLD-   22720 9473D 1   1.00000     0.00000
 Structure written by MMmdl.
 35 37  0  0  0  0  0  0  0  0  1 V2000
  150.7557  145.1744  158.9664 C   0  0  0  0  0  0  0  0  0  0  0  0
  151.5751  144.1763  159.7208 C   0  0  0  0  0  0  0  0  0  0  0  0
  151.9935  144.4014  160.9663 N   0  0  0  0  0  0  0  0  0  0  0  0
  152.6919  143.2477  161.2648 C   0  0  0  0  0  0  0  0  0  0  0  0
  153.3804  142.8683  162.4390 C   0  0  0  0  0  0  0  0  0  0  0  0
  154.0288  141.6180  162.5139 C   0  0  0  0  0  0  0  0  0  0  0  0
  153.9979  140.7309  161.4184 C   0  0  0  0  0  0  0  0  0  0  0  0
  153.3180  141.0895  160.2387 C   0  0  0  0  0  0  0  0  0  0  0  0
  152.6738  142.3392  160.1687 C   0  0  0  0  0  0  0  0  0  0  0  0
  151.9415  142.9875  159.1794 N   0  0  0  0  0  0  0  0  0  0  0  0
  151.6488  142.4678  157.8500 C   0  0  0  0  0  0  0  0  0  0  0  0
  150.3773  141.5953  157.8285 C   0  0  1  0  0  0  0  0  0  0  0  0
  149.2547  142.4513  157.7659 O   0  0  0  0  0  0  0  0  0  0  0  0
  150.3928  140.5740  156.6993 C   0  0  0  0  0  0  0  0  0  0  0  0
  149.3031  140.4655  155.8070 C   0  0  0  0  0  0  0  0  0  0  0  0
  149.3396  139.5323  154.7526 C   0  0  0  0  0  0  0  0  0  0  0  0
  150.4652  138.7034  154.5833 C   0  0  0  0  0  0  0  0  0  0  0  0
  151.5545  138.8076  155.4691 C   0  0  0  0  0  0  0  0  0  0  0  0
  152.6386  138.0132  155.3052 F   0  0  0  0  0  0  0  0  0  0  0  0
  151.5180  139.7397  156.5240 C   0  0  0  0  0  0  0  0  0  0  0  0
  150.5932  146.0690  159.5684 H   0  0  0  0  0  0  0  0  0  0  0  0
  149.7837  144.7508  158.7129 H   0  0  0  0  0  0  0  0  0  0  0  0
  151.2656  145.4685  158.0497 H   0  0  0  0  0  0  0  0  0  0  0  0
  153.4097  143.5406  163.2836 H   0  0  0  0  0  0  0  0  0  0  0  0
  154.5513  141.3381  163.4168 H   0  0  0  0  0  0  0  0  0  0  0  0
  154.4963  139.7747  161.4836 H   0  0  0  0  0  0  0  0  0  0  0  0
  153.2921  140.4128  159.3976 H   0  0  0  0  0  0  0  0  0  0  0  0
  151.5227  143.3235  157.1853 H   0  0  0  0  0  0  0  0  0  0  0  0
  152.5052  141.9116  157.4685 H   0  0  0  0  0  0  0  0  0  0  0  0
  150.2956  141.0591  158.7747 H   0  0  0  0  0  0  0  0  0  0  0  0
  149.4417  143.1451  157.1520 H   0  0  0  0  0  0  0  0  0  0  0  0
  148.4390  141.1033  155.9222 H   0  0  0  0  0  0  0  0  0  0  0  0
  148.5052  139.4544  154.0715 H   0  0  0  0  0  0  0  0  0  0  0  0
  150.4937  137.9896  153.7735 H   0  0  0  0  0  0  0  0  0  0  0  0
  152.3622  139.8191  157.1936 H   0  0  0  0  0  0  0  0  0  0  0  0
  1  2  1  0  0  0  0
  1 21  1  0  0  0  0
  1 22  1  0  0  0  0
  1 23  1  0  0  0  0
  2 10  1  0  0  0  0
  2  3  2  0  0  0  0
  3  4  1  0  0  0  0
  4  9  2  0  0  0  0
  4  5  1  0  0  0  0
  5  6  2  0  0  0  0
  5 24  1  0  0  0  0
  6  7  1  0  0  0  0
  6 25  1  0  0  0  0
  7  8  2  0  0  0  0
  7 26  1  0  0  0  0
  8  9  1  0  0  0  0
  8 27  1  0  0  0  0
  9 10  1  0  0  0  0
 10 11  1  0  0  0  0
 11 12  1  0  0  0  0
 11 28  1  0  0  0  0
 11 29  1  0  0  0  0
 12 13  1  0  0  0  0
 12 14  1  0  0  0  0
 12 30  1  0  0  0  0
 13 31  1  0  0  0  0
 14 20  1  0  0  0  0
 14 15  2  0  0  0  0
 15 16  1  0  0  0  0
 15 32  1  0  0  0  0
 16 17  2  0  0  0  0
 16 33  1  0  0  0  0
 17 18  1  0  0  0  0
 17 34  1  0  0  0  0
 18 19  1  0  0  0  0
 18 20  2  0  0  0  0
 20 35  1  0  0  0  0
M  END
> <s_m_source_file>
AV-unprocessed.smi

> <i_m_source_file_index>
1906

> <i_lp_mmshare_version>
43012

> <i_f3d_flags>
0

> <s_epik_input>
W2NIXTFbY0hdW2NIXVtjSF1jKGMxMiluKGMobjIpW0NIM10pW0NIMl1bQ0BIXShbT0hdKWMzW2NIXVtjSF1bY0hdYyhGKVtjSF0z

> <s_epik_cmdline>
J2VwaWtfcHl0aG9uJywgJy1waCcsICc3LjAnLCAnLXRuJywgJzgnLCAnLW1hJywgJzIwMCcsICctbWV0YWxfYmluZGluZycsICctaW1hZScsICc8aW5maWxlLm1hZT4nLCAnLW9tYWUnLCAnPG91dGZpbGUubWFlPic=

> <r_epik_Ionization_Penalty>
0.129664

> <r_epik_Ionization_Penalty_Charging>
0

> <r_epik_Ionization_Penalty_Neutral>
0.129664

> <r_epik_State_Penalty>
0.119073

> <r_epik_Charging_Adjusted_Penalty>
0.119073

> <i_epik_Tot_Q>
0

> <i_epik_Tot_abs_Q>
0

> <r_epik_Metal_State_Penalty>
0.000131867

> <b_epik_Metal_Only>
0

> <s_lp_Force_Field>
OPLS_2005

> <r_lp_Energy>
11.7028

> <b_lp_Chiralities_Consistent>
1

> <s_lp_Variant>
AV-unprocessed.smi:1906-2

> <Gold.Version>
5.8.1

> <Gold.Id.Protein>
6NUR|6NUR_protein|mol2

> <Gold.PLP.Fitness>
54.0330

> <Gold.PLP.PLP>
-52.4900

> <Gold.PLP.part.hbond>
-1.0000

> <Gold.PLP.part.metal>
0.0000

> <Gold.PLP.part.buried>
-3.6160

> <Gold.PLP.part.nonpolar>
-46.5529

> <Gold.PLP.part.repulsive>
0.1382

> <Gold.PLP.ligand.clash>
0.0000

> <Gold.PLP.ligand.torsion>
0.7352

> <Gold.PLP.Chemscore.Hbond>
1.0000

> <Gold.PLP.Chemscore.CHOScore>
0.0000

> <Gold.PLP.Chemscore.Metal>
0.0000

> <Gold.Chemscore.Hbonds>
donor molecule, donor type, donor heavy atom, donor atom, acceptor molecule, acceptor atom, score
      L1  H    13    31       P1  8028  0.50

> <Gold.PLP.Chemscore.Internal.Correction>
0.0134

> <Gold.Rescore>
     Score         DG    S(hbond)    S(metal)    S(lipo)     H(rot)  DE(clash)    DE(int)     intcor
     16.69     -18.87       0.85        0.00     129.45       1.79       0.76       1.42       ----

> <Gold.Chemscore.Fitness>
16.6877

> <Gold.Chemscore.DG>
-18.8705

> <Gold.Chemscore.ZeroCoef>
-5.4800

> <Gold.Chemscore.Hbond>
0.8484

> <Gold.Chemscore.Metal>
0.0000

> <Gold.Chemscore.Lipo>
129.4518

> <Gold.Chemscore.Internal_Hbond>
0.0000

> <Gold.Chemscore.DEClash>
0.7630

> <Gold.Chemscore.DEInternal>
1.4198

> <Gold.Chemscore.Rot>
1.7926

> <Gold.Chemscore.Internal.Correction>
   9.000000E+99

> <Gold.Chemscore.Hbonds>
donor molecule, donor type, donor heavy atom, donor atom, acceptor molecule, acceptor atom, score
      L1  H    13    31       P1  8028  0.46

> <Gold.Chemscore.Hbond.Weighted>
-2.8336

> <Gold.Chemscore.Metal.Weighted>
-0.0000

> <Gold.Chemscore.Lipo.Weighted>
-15.1459

> <Gold.Chemscore.Internal_Hbond.Weighted>
0.0000

> <Gold.Chemscore.DEClash.Weighted>
0.7630

> <Gold.Chemscore.DEInternal.Weighted>
1.4198

> <Gold.Chemscore.Rot.Weighted>
4.5890

> <Gold.Chemscore.Internal.Correction.Weighted>
   9.000000E+99

> <Gold.Protein.RotatedTorsions>
[ 6907 6896 6895 6894 ] final -167.83 input  -60.11 | X-H torsion
[ 7974 7965 7964 7962 ] final  -14.71 input  175.53 | X-H torsion
[ 8008 7997 7996 7995 ] final  160.42 input   59.86 | X-H torsion
[ 10167 10162 10161 10158 ] final   13.75 input  -65.29 | X-H torsion
[ 10718 10713 10712 10709 ] final  -27.71 input   66.30 | X-H torsion
[ 10763 10752 10751 10750 ] final   39.10 input  -60.55 | X-H torsion
[ 11005 11000 10999 10996 ] final  105.69 input  -57.11 | X-H torsion

> <Gold.Protein.ActiveResidues>
 VAL166  LYS551  ARG553  GLY616  TRP617  ASP618  TYR619  PRO620  LYS621  CYS622 
 ASP623  PHE694  ASN695  SER759  ASP760  ASP761  ALA762  ILE779  LEU786  VAL792 
 PHE793  MET794  SER795  GLU796  ALA797  LYS798  CYS799  TRP800  GLU811  SER814 

> <Gold.Protein.RotatedAtoms>
  151.4658  133.3581  159.2815 H   0  0  0  0  0  0  0  0  0  0  0  0  # atno 6907 bound_to 6896
  150.8994  134.8407  159.7360 H   0  0  0  0  0  0  0  0  0  0  0  0  # atno 6908 bound_to 6896
  152.4870  134.4577  159.9647 H   0  0  0  0  0  0  0  0  0  0  0  0  # atno 6909 bound_to 6896
  146.2063  140.3387  142.8406 H   0  0  0  0  0  0  0  0  0  0  0  0  # atno 7974 bound_to 7965
  156.2173  140.1804  156.7559 H   0  0  0  0  0  0  0  0  0  0  0  0  # atno 8008 bound_to 7997
  154.5811  140.0666  156.9134 H   0  0  0  0  0  0  0  0  0  0  0  0  # atno 8009 bound_to 7997
  155.2501  140.3328  155.4285 H   0  0  0  0  0  0  0  0  0  0  0  0  # atno 8010 bound_to 7997
  140.5982  143.8659  150.6939 H   0  0  0  0  0  0  0  0  0  0  0  0  # atno 10167 bound_to 10162
  156.4346  130.4452  149.7094 H   0  0  0  0  0  0  0  0  0  0  0  0  # atno 10718 bound_to 10713
  152.9978  135.6230  154.2410 H   0  0  0  0  0  0  0  0  0  0  0  0  # atno 10763 bound_to 10752
  154.2151  135.2798  155.2946 H   0  0  0  0  0  0  0  0  0  0  0  0  # atno 10764 bound_to 10752
  154.5575  135.5715  153.7035 H   0  0  0  0  0  0  0  0  0  0  0  0  # atno 10765 bound_to 10752
  139.8805  134.9344  156.5553 H   0  0  0  0  0  0  0  0  0  0  0  0  # atno 11005 bound_to 11000
  144.8800  140.7388  143.5992 LP  0  0  0  0  0  0  0  0  0  0  0  0  # atno 17320 bound_to 7965
  145.3308  139.1760  143.4538 LP  0  0  0  0  0  0  0  0  0  0  0  0  # atno 17321 bound_to 7965
  140.2198  143.3818  152.1652 LP  0  0  0  0  0  0  0  0  0  0  0  0  # atno 17342 bound_to 10162
  139.5273  144.7117  151.5184 LP  0  0  0  0  0  0  0  0  0  0  0  0  # atno 17343 bound_to 10162
  156.3983  130.7662  151.2668 LP  0  0  0  0  0  0  0  0  0  0  0  0  # atno 17370 bound_to 10713
  157.7507  131.0247  150.3889 LP  0  0  0  0  0  0  0  0  0  0  0  0  # atno 17371 bound_to 10713
  140.8210  133.8354  155.8895 LP  0  0  0  0  0  0  0  0  0  0  0  0  # atno 17394 bound_to 11000
  140.9418  134.1890  157.4792 LP  0  0  0  0  0  0  0  0  0  0  0  0  # atno 17395 bound_to 11000

$$$$
