AV-unprocessed.smi:2178|AV-procd|sdf|8855|dock5
  -GOLD-   2272012 53D 1   1.00000     0.00000
 Structure written by MMmdl.
 47 49  0  0  0  0  0  0  0  0  2 V2000
  149.8769  139.4003  154.4228 C   0  0  0  0  0  0  0  0  0  0  0  0
  148.8244  140.3936  154.8787 C   0  0  0  0  0  0  0  0  0  0  0  0
  147.9952  141.0137  153.9215 C   0  0  0  0  0  0  0  0  0  0  0  0
  147.0223  141.9471  154.3243 C   0  0  0  0  0  0  0  0  0  0  0  0
  146.8776  142.2695  155.6863 C   0  0  0  0  0  0  0  0  0  0  0  0
  147.7012  141.6558  156.6525 C   0  0  0  0  0  0  0  0  0  0  0  0
  147.5411  142.0227  158.1164 C   0  0  0  0  0  0  0  0  0  0  0  0
  148.6679  140.7042  156.2504 C   0  0  0  0  0  0  0  0  0  0  0  0
  149.4694  140.1076  157.1887 O   0  0  0  0  0  0  0  0  0  0  0  0
  150.8299  140.5114  157.1182 C   0  0  0  0  0  0  0  0  0  0  0  0
  151.2926  141.0350  158.4865 C   0  0  1  0  0  0  0  0  0  0  0  0
  151.9292  139.9900  159.1943 O   0  0  0  0  0  0  0  0  0  0  0  0
  152.1809  142.2926  158.3944 C   0  0  0  0  0  0  0  0  0  0  0  0
  152.1771  143.0861  159.6342 N   0  0  0  0  0  0  0  0  0  0  0  0
  151.5072  144.2343  159.9425 C   0  0  0  0  0  0  0  0  0  0  0  0
  150.5695  144.9929  159.0623 C   0  0  0  0  0  0  0  0  0  0  0  0
  149.3036  145.1725  159.6573 O   0  0  0  0  0  0  0  0  0  0  0  0
  151.8408  144.5653  161.2217 N   0  3  0  0  0  0  0  0  0  0  0  0
  152.7322  143.6239  161.7371 C   0  0  0  0  0  0  0  0  0  0  0  0
  153.3449  143.5368  162.9834 C   0  0  0  0  0  0  0  0  0  0  0  0
  154.2049  142.4385  163.1906 C   0  0  0  0  0  0  0  0  0  0  0  0
  154.4262  141.4791  162.1814 C   0  0  0  0  0  0  0  0  0  0  0  0
  153.7988  141.5776  160.9221 C   0  0  0  0  0  0  0  0  0  0  0  0
  152.9525  142.6688  160.7234 C   0  0  0  0  0  0  0  0  0  0  0  0
  150.1301  139.5523  153.3730 H   0  0  0  0  0  0  0  0  0  0  0  0
  149.5100  138.3807  154.5402 H   0  0  0  0  0  0  0  0  0  0  0  0
  150.7928  139.5069  155.0048 H   0  0  0  0  0  0  0  0  0  0  0  0
  148.1046  140.7769  152.8733 H   0  0  0  0  0  0  0  0  0  0  0  0
  146.3905  142.4200  153.5870 H   0  0  0  0  0  0  0  0  0  0  0  0
  146.1324  142.9917  155.9860 H   0  0  0  0  0  0  0  0  0  0  0  0
  148.5136  142.1211  158.5996 H   0  0  0  0  0  0  0  0  0  0  0  0
  146.9728  141.2535  158.6395 H   0  0  0  0  0  0  0  0  0  0  0  0
  147.0151  142.9712  158.2294 H   0  0  0  0  0  0  0  0  0  0  0  0
  151.4445  139.6536  156.8411 H   0  0  0  0  0  0  0  0  0  0  0  0
  150.9776  141.2666  156.3449 H   0  0  0  0  0  0  0  0  0  0  0  0
  150.4002  141.2832  159.0616 H   0  0  0  0  0  0  0  0  0  0  0  0
  152.4204  139.4685  158.5782 H   0  0  0  0  0  0  0  0  0  0  0  0
  153.2095  142.0384  158.1387 H   0  0  0  0  0  0  0  0  0  0  0  0
  151.8265  142.9369  157.5896 H   0  0  0  0  0  0  0  0  0  0  0  0
  150.9964  145.9702  158.8353 H   0  0  0  0  0  0  0  0  0  0  0  0
  150.4496  144.4699  158.1137 H   0  0  0  0  0  0  0  0  0  0  0  0
  148.7582  145.6654  159.0631 H   0  0  0  0  0  0  0  0  0  0  0  0
  153.1750  144.2690  163.7592 H   0  0  0  0  0  0  0  0  0  0  0  0
  154.7034  142.3289  164.1428 H   0  0  0  0  0  0  0  0  0  0  0  0
  155.0896  140.6491  162.3767 H   0  0  0  0  0  0  0  0  0  0  0  0
  153.9719  140.8320  160.1599 H   0  0  0  0  0  0  0  0  0  0  0  0
  151.4784  145.3765  161.7062 H   0  0  0  0  0  0  0  0  0  0  0  0
  1  2  1  0  0  0  0
  1 25  1  0  0  0  0
  1 26  1  0  0  0  0
  1 27  1  0  0  0  0
  2  8  1  0  0  0  0
  2  3  2  0  0  0  0
  3  4  1  0  0  0  0
  3 28  1  0  0  0  0
  4  5  2  0  0  0  0
  4 29  1  0  0  0  0
  5  6  1  0  0  0  0
  5 30  1  0  0  0  0
  6  7  1  0  0  0  0
  6  8  2  0  0  0  0
  7 31  1  0  0  0  0
  7 32  1  0  0  0  0
  7 33  1  0  0  0  0
  8  9  1  0  0  0  0
  9 10  1  0  0  0  0
 10 11  1  0  0  0  0
 10 34  1  0  0  0  0
 10 35  1  0  0  0  0
 11 12  1  0  0  0  0
 11 13  1  0  0  0  0
 11 36  1  0  0  0  0
 12 37  1  0  0  0  0
 13 14  1  0  0  0  0
 13 38  1  0  0  0  0
 13 39  1  0  0  0  0
 14 24  1  0  0  0  0
 14 15  1  0  0  0  0
 15 16  1  0  0  0  0
 15 18  2  0  0  0  0
 16 17  1  0  0  0  0
 16 40  1  0  0  0  0
 16 41  1  0  0  0  0
 17 42  1  0  0  0  0
 18 19  1  0  0  0  0
 18 47  1  0  0  0  0
 19 24  2  0  0  0  0
 19 20  1  0  0  0  0
 20 21  2  0  0  0  0
 20 43  1  0  0  0  0
 21 22  1  0  0  0  0
 21 44  1  0  0  0  0
 22 23  2  0  0  0  0
 22 45  1  0  0  0  0
 23 24  1  0  0  0  0
 23 46  1  0  0  0  0
M  CHG  1  18   1
M  END
> <s_m_source_file>
AV-unprocessed.smi

> <i_m_source_file_index>
2178

> <i_lp_mmshare_version>
43012

> <i_f3d_flags>
0

> <s_epik_input>
W0NIM11jMVtjSF1bY0hdW2NIXWMoW0NIM10pYzFPW0NIMl1bQ0BIXShbT0hdKVtDSDJdbihjKG4yKVtDSDJdW09IXSljKGMyMylbY0hdW2NIXVtjSF1bY0hdMw==

> <s_epik_cmdline>
J2VwaWtfcHl0aG9uJywgJy1waCcsICc3LjAnLCAnLXRuJywgJzgnLCAnLW1hJywgJzIwMCcsICctbWV0YWxfYmluZGluZycsICctaW1hZScsICc8aW5maWxlLm1hZT4nLCAnLW9tYWUnLCAnPG91dGZpbGUubWFlPic=

> <r_lp_tautomer_probability>
1

> <r_epik_Ionization_Penalty>
1.43125

> <r_epik_Ionization_Penalty_Charging>
1.43039

> <r_epik_Ionization_Penalty_Neutral>
0.000858184

> <r_epik_State_Penalty>
1.51493

> <r_epik_Charging_Adjusted_Penalty>
2.94531

> <i_epik_Tot_Q>
1

> <i_epik_Tot_abs_Q>
1

> <r_epik_Metal_State_Penalty>
5.5599

> <b_epik_Metal_Only>
0

> <s_lp_Force_Field>
OPLS_2005

> <r_lp_Energy>
23.7174

> <b_lp_Chiralities_Consistent>
1

> <s_lp_Variant>
AV-unprocessed.smi:2178-4

> <Gold.Version>
5.8.1

> <Gold.Id.Protein>
6NUR|6NUR_protein|mol2

> <Gold.PLP.Fitness>
53.6820

> <Gold.PLP.PLP>
-53.4197

> <Gold.PLP.part.hbond>
-2.0953

> <Gold.PLP.part.metal>
0.0000

> <Gold.PLP.part.buried>
-1.9302

> <Gold.PLP.part.nonpolar>
-48.7588

> <Gold.PLP.part.repulsive>
0.0778

> <Gold.PLP.ligand.clash>
0.0000

> <Gold.PLP.ligand.torsion>
1.4520

> <Gold.PLP.Chemscore.Hbond>
1.0000

> <Gold.PLP.Chemscore.CHOScore>
0.0000

> <Gold.PLP.Chemscore.Metal>
0.0000

> <Gold.Chemscore.Hbonds>
donor molecule, donor type, donor heavy atom, donor atom, acceptor molecule, acceptor atom, score
      L1  H    17    42       P1  8029  1.00

> <Gold.PLP.Chemscore.Internal.Correction>
0.1662

> <Gold.Rescore>
     Score         DG    S(hbond)    S(metal)    S(lipo)     H(rot)  DE(clash)    DE(int)     intcor
     14.19     -16.92       1.00        0.00     136.07       3.05       0.10       2.63       ----

> <Gold.Chemscore.Fitness>
14.1857

> <Gold.Chemscore.DG>
-16.9242

> <Gold.Chemscore.ZeroCoef>
-5.4800

> <Gold.Chemscore.Hbond>
0.9958

> <Gold.Chemscore.Metal>
0.0000

> <Gold.Chemscore.Lipo>
136.0679

> <Gold.Chemscore.Internal_Hbond>
0.0000

> <Gold.Chemscore.DEClash>
0.1049

> <Gold.Chemscore.DEInternal>
2.6336

> <Gold.Chemscore.Rot>
3.0476

> <Gold.Chemscore.Internal.Correction>
   9.000000E+99

> <Gold.Chemscore.Hbonds>
donor molecule, donor type, donor heavy atom, donor atom, acceptor molecule, acceptor atom, score
      L1  H    17    42       P1  8029  0.94

> <Gold.Chemscore.Hbond.Weighted>
-3.3260

> <Gold.Chemscore.Metal.Weighted>
-0.0000

> <Gold.Chemscore.Lipo.Weighted>
-15.9199

> <Gold.Chemscore.Internal_Hbond.Weighted>
0.0000

> <Gold.Chemscore.DEClash.Weighted>
0.1049

> <Gold.Chemscore.DEInternal.Weighted>
2.6336

> <Gold.Chemscore.Rot.Weighted>
7.8018

> <Gold.Chemscore.Internal.Correction.Weighted>
   9.000000E+99

> <Gold.Protein.RotatedTorsions>
[ 6907 6896 6895 6894 ] final   11.83 input  -60.11 | X-H torsion
[ 7974 7965 7964 7962 ] final    0.63 input  175.53 | X-H torsion
[ 8008 7997 7996 7995 ] final -153.14 input   59.86 | X-H torsion
[ 10167 10162 10161 10158 ] final   53.61 input  -65.29 | X-H torsion
[ 10718 10713 10712 10709 ] final   56.31 input   66.30 | X-H torsion
[ 10763 10752 10751 10750 ] final   19.01 input  -60.55 | X-H torsion
[ 11005 11000 10999 10996 ] final  113.30 input  -57.11 | X-H torsion

> <Gold.Protein.ActiveResidues>
 VAL166  LYS551  ARG553  GLY616  TRP617  ASP618  TYR619  PRO620  LYS621  CYS622 
 ASP623  PHE694  ASN695  SER759  ASP760  ASP761  ALA762  ILE779  LEU786  VAL792 
 PHE793  MET794  SER795  GLU796  ALA797  LYS798  CYS799  TRP800  GLU811  SER814 

> <Gold.Protein.RotatedAtoms>
  151.7606  135.0811  160.0344 H   0  0  0  0  0  0  0  0  0  0  0  0  # atno 6907 bound_to 6896
  152.3355  133.6003  159.5848 H   0  0  0  0  0  0  0  0  0  0  0  0  # atno 6908 bound_to 6896
  150.7448  133.9718  159.3590 H   0  0  0  0  0  0  0  0  0  0  0  0  # atno 6909 bound_to 6896
  146.2435  140.1109  142.8344 H   0  0  0  0  0  0  0  0  0  0  0  0  # atno 7974 bound_to 7965
  155.6662  140.0728  157.2536 H   0  0  0  0  0  0  0  0  0  0  0  0  # atno 8008 bound_to 7997
  154.4132  140.1707  156.1880 H   0  0  0  0  0  0  0  0  0  0  0  0  # atno 8009 bound_to 7997
  155.9656  140.3366  155.6532 H   0  0  0  0  0  0  0  0  0  0  0  0  # atno 8010 bound_to 7997
  140.2390  144.3605  150.6387 H   0  0  0  0  0  0  0  0  0  0  0  0  # atno 10167 bound_to 10162
  157.5420  130.8704  149.8836 H   0  0  0  0  0  0  0  0  0  0  0  0  # atno 10718 bound_to 10713
  153.1199  135.6716  153.9353 H   0  0  0  0  0  0  0  0  0  0  0  0  # atno 10763 bound_to 10752
  153.8872  135.3051  155.3448 H   0  0  0  0  0  0  0  0  0  0  0  0  # atno 10764 bound_to 10752
  154.7612  135.4987  153.9546 H   0  0  0  0  0  0  0  0  0  0  0  0  # atno 10765 bound_to 10752
  139.8949  134.9547  156.6718 H   0  0  0  0  0  0  0  0  0  0  0  0  # atno 11005 bound_to 11000
  145.0488  140.9001  143.5008 LP  0  0  0  0  0  0  0  0  0  0  0  0  # atno 17320 bound_to 7965
  145.1203  139.2698  143.5592 LP  0  0  0  0  0  0  0  0  0  0  0  0  # atno 17321 bound_to 7965
  140.6128  143.2170  151.6851 LP  0  0  0  0  0  0  0  0  0  0  0  0  # atno 17342 bound_to 10162
  139.5084  144.3613  152.0559 LP  0  0  0  0  0  0  0  0  0  0  0  0  # atno 17343 bound_to 10162
  156.0504  130.3719  150.1214 LP  0  0  0  0  0  0  0  0  0  0  0  0  # atno 17370 bound_to 10713
  156.9393  130.9739  151.3519 LP  0  0  0  0  0  0  0  0  0  0  0  0  # atno 17371 bound_to 10713
  140.7367  133.9012  155.8249 LP  0  0  0  0  0  0  0  0  0  0  0  0  # atno 17394 bound_to 11000
  141.0110  134.1020  157.4221 LP  0  0  0  0  0  0  0  0  0  0  0  0  # atno 17395 bound_to 11000

$$$$
