AV-unprocessed.smi:3303|AV-procd|sdf|12657|dock5
  -GOLD-   2272018593D 1   1.00000     0.00000
 Structure written by MMmdl.
 45 46  0  0  0  0  0  0  0  0  3 V2000
  146.9312  142.9271  154.0995 C   0  0  0  0  0  0  0  0  0  0  0  0
  147.8272  141.7033  153.8373 C   0  0  2  0  0  0  0  0  0  0  0  0
  147.0019  140.5709  153.1925 C   0  0  0  0  0  0  0  0  0  0  0  0
  147.8236  139.3663  152.9049 N   0  3  2  0  0  0  0  0  0  0  0  0
  147.0374  138.3568  152.1546 C   0  0  0  0  0  0  0  0  0  0  0  0
  148.4812  138.8339  154.1357 C   0  0  1  0  0  0  0  0  0  0  0  0
  149.3612  137.6004  153.8534 C   0  0  0  0  0  0  0  0  0  0  0  0
  149.3326  139.9349  154.8010 C   0  0  0  0  0  0  0  0  0  0  0  0
  148.5134  141.1946  155.1227 C   0  0  1  0  0  0  0  0  0  0  0  0
  149.4037  142.2303  155.6956 N   0  3  0  0  0  0  0  0  0  0  0  0
  149.8539  141.9650  157.0766 C   0  0  0  0  0  0  0  0  0  0  0  0
  151.3428  142.2969  157.2426 C   0  0  0  0  0  0  0  0  0  0  0  0
  151.6085  143.1336  158.4789 C   0  0  0  0  0  0  0  0  0  0  0  0
  152.3471  142.6084  159.5603 C   0  0  0  0  0  0  0  0  0  0  0  0
  152.5731  143.4321  160.6801 C   0  0  0  0  0  0  0  0  0  0  0  0
  152.0546  144.7413  160.6746 C   0  0  0  0  0  0  0  0  0  0  0  0
  151.3310  145.1715  159.5445 C   0  0  0  0  0  0  0  0  0  0  0  0
  151.1113  144.3905  158.4642 N   0  0  0  0  0  0  0  0  0  0  0  0
  146.1506  142.7002  154.8264 H   0  0  0  0  0  0  0  0  0  0  0  0
  146.4429  143.2588  153.1826 H   0  0  0  0  0  0  0  0  0  0  0  0
  147.5044  143.7724  154.4810 H   0  0  0  0  0  0  0  0  0  0  0  0
  148.5997  142.0021  153.1263 H   0  0  0  0  0  0  0  0  0  0  0  0
  146.1706  140.2923  153.8427 H   0  0  0  0  0  0  0  0  0  0  0  0
  146.5626  140.9344  152.2623 H   0  0  0  0  0  0  0  0  0  0  0  0
  146.2806  137.8970  152.7912 H   0  0  0  0  0  0  0  0  0  0  0  0
  147.6751  137.5715  151.7501 H   0  0  0  0  0  0  0  0  0  0  0  0
  146.5309  138.8141  151.3038 H   0  0  0  0  0  0  0  0  0  0  0  0
  147.6977  138.5348  154.8344 H   0  0  0  0  0  0  0  0  0  0  0  0
  149.9034  137.2962  154.7492 H   0  0  0  0  0  0  0  0  0  0  0  0
  150.0988  137.8047  153.0767 H   0  0  0  0  0  0  0  0  0  0  0  0
  148.7712  136.7383  153.5426 H   0  0  0  0  0  0  0  0  0  0  0  0
  149.7778  139.5492  155.7193 H   0  0  0  0  0  0  0  0  0  0  0  0
  150.1644  140.1958  154.1441 H   0  0  0  0  0  0  0  0  0  0  0  0
  147.7444  140.9265  155.8501 H   0  0  0  0  0  0  0  0  0  0  0  0
  150.2205  142.3147  155.1069 H   0  0  0  0  0  0  0  0  0  0  0  0
  149.2623  142.5638  157.7705 H   0  0  0  0  0  0  0  0  0  0  0  0
  149.6719  140.9163  157.3155 H   0  0  0  0  0  0  0  0  0  0  0  0
  151.9277  141.3778  157.3064 H   0  0  0  0  0  0  0  0  0  0  0  0
  151.7068  142.8318  156.3643 H   0  0  0  0  0  0  0  0  0  0  0  0
  152.7336  141.6000  159.5357 H   0  0  0  0  0  0  0  0  0  0  0  0
  153.1351  143.0670  161.5272 H   0  0  0  0  0  0  0  0  0  0  0  0
  152.2082  145.4006  161.5160 H   0  0  0  0  0  0  0  0  0  0  0  0
  150.9197  146.1692  159.5062 H   0  0  0  0  0  0  0  0  0  0  0  0
  148.9117  143.1126  155.6869 H   0  0  0  0  0  0  0  0  0  0  0  0
  148.5634  139.6650  152.2850 H   0  0  0  0  0  0  0  0  0  0  0  0
  1  2  1  0  0  0  0
  1 19  1  0  0  0  0
  1 20  1  0  0  0  0
  1 21  1  0  0  0  0
  2  9  1  0  0  0  0
  2  3  1  0  0  0  0
  2 22  1  0  0  0  0
  3  4  1  0  0  0  0
  3 23  1  0  0  0  0
  3 24  1  0  0  0  0
  4  5  1  0  0  0  0
  4  6  1  0  0  0  0
  4 45  1  0  0  0  0
  5 25  1  0  0  0  0
  5 26  1  0  0  0  0
  5 27  1  0  0  0  0
  6  7  1  0  0  0  0
  6  8  1  0  0  0  0
  6 28  1  0  0  0  0
  7 29  1  0  0  0  0
  7 30  1  0  0  0  0
  7 31  1  0  0  0  0
  8  9  1  0  0  0  0
  8 32  1  0  0  0  0
  8 33  1  0  0  0  0
  9 10  1  0  0  0  0
  9 34  1  0  0  0  0
 10 11  1  0  0  0  0
 10 35  1  0  0  0  0
 10 44  1  0  0  0  0
 11 12  1  0  0  0  0
 11 36  1  0  0  0  0
 11 37  1  0  0  0  0
 12 13  1  0  0  0  0
 12 38  1  0  0  0  0
 12 39  1  0  0  0  0
 13 18  1  0  0  0  0
 13 14  2  0  0  0  0
 14 15  1  0  0  0  0
 14 40  1  0  0  0  0
 15 16  2  0  0  0  0
 15 41  1  0  0  0  0
 16 17  1  0  0  0  0
 16 42  1  0  0  0  0
 17 18  2  0  0  0  0
 17 43  1  0  0  0  0
M  CHG  1   4   1
M  CHG  1  10   1
M  END
> <s_m_source_file>
AV-unprocessed.smi

> <i_m_source_file_index>
3303

> <i_lp_mmshare_version>
43012

> <i_f3d_flags>
0

> <s_epik_input>
W0NIM11bQ0BASF0xW0NIMl1OKFtDSDNdKVtDQEBIXShbQ0gzXSlbQ0gyXVtDQEhdMVtOSF1bQ0gyXVtDSDJdYzJbY0hdW2NIXVtjSF1bY0hdbjI=

> <s_epik_cmdline>
J2VwaWtfcHl0aG9uJywgJy1waCcsICc3LjAnLCAnLXRuJywgJzgnLCAnLW1hJywgJzIwMCcsICctbWV0YWxfYmluZGluZycsICctaW1hZScsICc8aW5maWxlLm1hZT4nLCAnLW9tYWUnLCAnPG91dGZpbGUubWFlPic=

> <r_epik_Ionization_Penalty>
0.0769462

> <r_epik_Ionization_Penalty_Charging>
0.0759813

> <r_epik_Ionization_Penalty_Neutral>
0.000964829

> <r_epik_State_Penalty>
0.0654373

> <r_epik_Charging_Adjusted_Penalty>
0.141419

> <i_epik_Tot_Q>
2

> <i_epik_Tot_abs_Q>
2

> <r_epik_Metal_State_Penalty>
0.0656439

> <b_epik_Metal_Only>
0

> <s_lp_Force_Field>
OPLS_2005

> <r_lp_Energy>
29.1913

> <b_lp_Chiralities_Consistent>
1

> <s_lp_Variant>
AV-unprocessed.smi:3303-1

> <Gold.Version>
5.8.1

> <Gold.Id.Protein>
6NUR|6NUR_protein|mol2

> <Gold.PLP.Fitness>
43.0402

> <Gold.PLP.PLP>
-35.6139

> <Gold.PLP.part.hbond>
-1.8912

> <Gold.PLP.part.metal>
0.0000

> <Gold.PLP.part.buried>
3.7872

> <Gold.PLP.part.nonpolar>
-36.9853

> <Gold.PLP.part.repulsive>
0.3716

> <Gold.PLP.ligand.clash>
0.0000

> <Gold.PLP.ligand.torsion>
0.7717

> <Gold.PLP.Chemscore.Hbond>
2.9840

> <Gold.PLP.Chemscore.CHOScore>
0.0000

> <Gold.PLP.Chemscore.Metal>
0.0000

> <Gold.Chemscore.Hbonds>
donor molecule, donor type, donor heavy atom, donor atom, acceptor molecule, acceptor atom, score
      L1  H     4    45       P1  7957  1.00
      L1  H    10    44       P1  8028  2.00

> <Gold.PLP.Chemscore.Internal.Correction>
0.0177

> <Gold.Rescore>
     Score         DG    S(hbond)    S(metal)    S(lipo)     H(rot)  DE(clash)    DE(int)     intcor
     19.86     -23.00       1.93        0.00     124.75       1.37       2.37       0.78       ----

> <Gold.Chemscore.Fitness>
19.8620

> <Gold.Chemscore.DG>
-23.0040

> <Gold.Chemscore.ZeroCoef>
-5.4800

> <Gold.Chemscore.Hbond>
1.9302

> <Gold.Chemscore.Metal>
0.0000

> <Gold.Chemscore.Lipo>
124.7479

> <Gold.Chemscore.Internal_Hbond>
0.0000

> <Gold.Chemscore.DEClash>
2.3652

> <Gold.Chemscore.DEInternal>
0.7768

> <Gold.Chemscore.Rot>
1.3744

> <Gold.Chemscore.Internal.Correction>
   9.000000E+99

> <Gold.Chemscore.Hbonds>
donor molecule, donor type, donor heavy atom, donor atom, acceptor molecule, acceptor atom, score
      L1  H     4    45       P1  7957  0.97
      L1  H    10    44       P1  8028  0.96

> <Gold.Chemscore.Hbond.Weighted>
-6.4470

> <Gold.Chemscore.Metal.Weighted>
-0.0000

> <Gold.Chemscore.Lipo.Weighted>
-14.5955

> <Gold.Chemscore.Internal_Hbond.Weighted>
0.0000

> <Gold.Chemscore.DEClash.Weighted>
2.3652

> <Gold.Chemscore.DEInternal.Weighted>
0.7768

> <Gold.Chemscore.Rot.Weighted>
3.5185

> <Gold.Chemscore.Internal.Correction.Weighted>
   9.000000E+99

> <Gold.Protein.RotatedTorsions>
[ 6907 6896 6895 6894 ] final   82.73 input  -60.11 | X-H torsion
[ 7974 7965 7964 7962 ] final -152.64 input  175.53 | X-H torsion
[ 8008 7997 7996 7995 ] final   78.89 input   59.86 | X-H torsion
[ 10167 10162 10161 10158 ] final  -29.10 input  -65.29 | X-H torsion
[ 10718 10713 10712 10709 ] final  101.45 input   66.30 | X-H torsion
[ 10763 10752 10751 10750 ] final  116.76 input  -60.55 | X-H torsion
[ 11005 11000 10999 10996 ] final   54.53 input  -57.11 | X-H torsion

> <Gold.Protein.ActiveResidues>
 VAL166  LYS551  ARG553  GLY616  TRP617  ASP618  TYR619  PRO620  LYS621  CYS622 
 ASP623  PHE694  ASN695  SER759  ASP760  ASP761  ALA762  ILE779  LEU786  VAL792 
 PHE793  MET794  SER795  GLU796  ALA797  LYS798  CYS799  TRP800  GLU811  SER814 

> <Gold.Protein.RotatedAtoms>
  152.5307  134.3005  159.9076 H   0  0  0  0  0  0  0  0  0  0  0  0  # atno 6907 bound_to 6896
  151.2956  133.4139  159.2643 H   0  0  0  0  0  0  0  0  0  0  0  0  # atno 6908 bound_to 6896
  151.0163  134.9451  159.8092 H   0  0  0  0  0  0  0  0  0  0  0  0  # atno 6909 bound_to 6896
  144.7783  140.4634  143.5857 H   0  0  0  0  0  0  0  0  0  0  0  0  # atno 7974 bound_to 7965
  155.8621  140.3453  155.5763 H   0  0  0  0  0  0  0  0  0  0  0  0  # atno 8008 bound_to 7997
  155.7922  140.0873  157.2022 H   0  0  0  0  0  0  0  0  0  0  0  0  # atno 8009 bound_to 7997
  154.4012  140.1481  156.3164 H   0  0  0  0  0  0  0  0  0  0  0  0  # atno 8010 bound_to 7997
  140.7264  143.3956  151.1354 H   0  0  0  0  0  0  0  0  0  0  0  0  # atno 10167 bound_to 10162
  157.6829  131.0726  150.5254 H   0  0  0  0  0  0  0  0  0  0  0  0  # atno 10718 bound_to 10713
  153.5422  135.3556  155.2723 H   0  0  0  0  0  0  0  0  0  0  0  0  # atno 10763 bound_to 10752
  154.8716  135.4093  154.3031 H   0  0  0  0  0  0  0  0  0  0  0  0  # atno 10764 bound_to 10752
  153.3741  135.7065  153.6683 H   0  0  0  0  0  0  0  0  0  0  0  0  # atno 10765 bound_to 10752
  140.0679  134.5511  155.9079 H   0  0  0  0  0  0  0  0  0  0  0  0  # atno 11005 bound_to 11000
  145.6123  139.1514  143.3069 LP  0  0  0  0  0  0  0  0  0  0  0  0  # atno 17320 bound_to 7965
  146.1976  140.6238  142.9117 LP  0  0  0  0  0  0  0  0  0  0  0  0  # atno 17321 bound_to 7965
  139.7568  143.8696  152.3090 LP  0  0  0  0  0  0  0  0  0  0  0  0  # atno 17342 bound_to 10162
  139.8568  144.7137  150.9147 LP  0  0  0  0  0  0  0  0  0  0  0  0  # atno 17343 bound_to 10162
  156.5566  130.4245  149.6082 LP  0  0  0  0  0  0  0  0  0  0  0  0  # atno 17370 bound_to 10713
  156.2857  130.7096  151.1932 LP  0  0  0  0  0  0  0  0  0  0  0  0  # atno 17371 bound_to 10713
  141.2000  133.6610  156.5873 LP  0  0  0  0  0  0  0  0  0  0  0  0  # atno 17394 bound_to 11000
  140.3672  134.7637  157.4574 LP  0  0  0  0  0  0  0  0  0  0  0  0  # atno 17395 bound_to 11000

$$$$
