AV-unprocessed.smi:3245|AV-procd|sdf|12408|dock5
  -GOLD-   2272018293D 1   1.00000     0.00000
 Structure written by MMmdl.
 34 35  0  0  0  0  0  0  0  0  2 V2000
  151.3725  141.1742  157.8681 C   0  0  0  0  0  0  0  0  0  0  0  0
  152.4648  141.1094  158.9495 C   0  0  2  0  0  0  0  0  0  0  0  0
  153.2597  142.4307  159.0801 C   0  0  0  0  0  0  0  0  0  0  0  0
  152.4042  143.5981  159.1922 N   0  0  0  0  0  0  0  0  0  0  0  0
  152.2871  144.4761  160.2491 C   0  0  0  0  0  0  0  0  0  0  0  0
  151.3507  145.4072  159.9017 C   0  0  0  0  0  0  0  0  0  0  0  0
  150.9418  145.0059  158.5993 C   0  0  0  0  0  0  0  0  0  0  0  0
  151.5711  143.9206  158.1788 N   0  0  0  0  0  0  0  0  0  0  0  0
  153.3602  140.0138  158.5996 N   0  0  0  0  0  0  0  0  0  0  0  0
  152.8224  138.7155  158.9827 C   0  0  0  0  0  0  0  0  0  0  0  0
  153.9256  137.8457  159.6117 C   0  0  0  0  0  0  0  0  0  0  0  0
  154.3570  136.7653  158.7156 N   0  0  0  0  0  0  0  0  0  0  0  0
  154.5026  135.4915  159.0940 C   0  0  0  0  0  0  0  0  0  0  0  0
  154.3045  135.0063  160.2082 O   0  0  0  0  0  0  0  0  0  0  0  0
  154.9722  134.7083  157.8905 C   0  0  0  0  0  0  0  0  0  0  0  0
  155.0466  135.7274  156.8688 N   0  5  0  0  0  0  0  0  0  0  0  0
  154.6777  136.9102  157.4149 C   0  0  0  0  0  0  0  0  0  0  0  0
  154.6267  137.9980  156.8415 O   0  0  0  0  0  0  0  0  0  0  0  0
  150.6176  141.9232  158.1076 H   0  0  0  0  0  0  0  0  0  0  0  0
  150.8561  140.2186  157.7726 H   0  0  0  0  0  0  0  0  0  0  0  0
  151.7924  141.4253  156.8933 H   0  0  0  0  0  0  0  0  0  0  0  0
  151.9780  140.8790  159.8983 H   0  0  0  0  0  0  0  0  0  0  0  0
  153.9123  142.4151  159.9531 H   0  0  0  0  0  0  0  0  0  0  0  0
  153.9070  142.5652  158.2121 H   0  0  0  0  0  0  0  0  0  0  0  0
  152.8745  144.3670  161.1489 H   0  0  0  0  0  0  0  0  0  0  0  0
  151.0082  146.2461  160.4891 H   0  0  0  0  0  0  0  0  0  0  0  0
  150.2098  145.4660  157.9522 H   0  0  0  0  0  0  0  0  0  0  0  0
  153.5276  140.0165  157.6036 H   0  0  0  0  0  0  0  0  0  0  0  0
  151.9887  138.8218  159.6757 H   0  0  0  0  0  0  0  0  0  0  0  0
  152.4369  138.2194  158.0913 H   0  0  0  0  0  0  0  0  0  0  0  0
  154.7885  138.4745  159.8366 H   0  0  0  0  0  0  0  0  0  0  0  0
  153.5976  137.4533  160.5757 H   0  0  0  0  0  0  0  0  0  0  0  0
  155.9345  134.2419  158.1042 H   0  0  0  0  0  0  0  0  0  0  0  0
  154.2574  133.9177  157.6601 H   0  0  0  0  0  0  0  0  0  0  0  0
  1  2  1  0  0  0  0
  1 19  1  0  0  0  0
  1 20  1  0  0  0  0
  1 21  1  0  0  0  0
  2  3  1  0  0  0  0
  2  9  1  0  0  0  0
  2 22  1  0  0  0  0
  3  4  1  0  0  0  0
  3 23  1  0  0  0  0
  3 24  1  0  0  0  0
  4  8  1  0  0  0  0
  4  5  1  0  0  0  0
  5  6  2  0  0  0  0
  5 25  1  0  0  0  0
  6  7  1  0  0  0  0
  6 26  1  0  0  0  0
  7  8  2  0  0  0  0
  7 27  1  0  0  0  0
  9 10  1  0  0  0  0
  9 28  1  0  0  0  0
 10 11  1  0  0  0  0
 10 29  1  0  0  0  0
 10 30  1  0  0  0  0
 11 12  1  0  0  0  0
 11 31  1  0  0  0  0
 11 32  1  0  0  0  0
 12 17  1  0  0  0  0
 12 13  1  0  0  0  0
 13 14  2  0  0  0  0
 13 15  1  0  0  0  0
 15 16  1  0  0  0  0
 15 33  1  0  0  0  0
 15 34  1  0  0  0  0
 16 17  1  0  0  0  0
 17 18  2  0  0  0  0
M  CHG  1  16  -1
M  END
> <s_m_source_file>
AV-unprocessed.smi

> <i_m_source_file_index>
3245

> <i_lp_mmshare_version>
43012

> <i_f3d_flags>
0

> <s_epik_input>
bjFbY0hdW2NIXVtjSF1uMVtDSDJdW0NAQEhdKFtDSDNdKVtOSF1bQ0gyXVtDSDJdTjJDKD1PKVtDSDJdW05IXUMyPU8=

> <s_epik_cmdline>
J2VwaWtfcHl0aG9uJywgJy1waCcsICc3LjAnLCAnLXRuJywgJzgnLCAnLW1hJywgJzIwMCcsICctbWV0YWxfYmluZGluZycsICctaW1hZScsICc8aW5maWxlLm1hZT4nLCAnLW9tYWUnLCAnPG91dGZpbGUubWFlPic=

> <r_lp_tautomer_probability>
1

> <r_epik_Ionization_Penalty>
8.62027

> <r_epik_Ionization_Penalty_Charging>
6.28132

> <r_epik_Ionization_Penalty_Neutral>
2.33895

> <r_epik_State_Penalty>
8.57043

> <r_epik_Charging_Adjusted_Penalty>
14.8517

> <i_epik_Tot_Q>
-1

> <i_epik_Tot_abs_Q>
1

> <r_epik_Metal_State_Penalty>
4.56785

> <b_epik_Metal_Only>
1

> <s_lp_Force_Field>
OPLS_2005

> <r_lp_Energy>
21.0374

> <b_lp_Chiralities_Consistent>
1

> <s_lp_Variant>
AV-unprocessed.smi:3245-7

> <Gold.Version>
5.8.1

> <Gold.Id.Protein>
6NUR|6NUR_protein|mol2

> <Gold.PLP.Fitness>
42.5062

> <Gold.PLP.PLP>
-32.2563

> <Gold.PLP.part.hbond>
-3.5407

> <Gold.PLP.part.metal>
0.0000

> <Gold.PLP.part.buried>
-5.5916

> <Gold.PLP.part.nonpolar>
-22.6588

> <Gold.PLP.part.repulsive>
0.0915

> <Gold.PLP.ligand.clash>
0.0000

> <Gold.PLP.ligand.torsion>
1.0537

> <Gold.PLP.Chemscore.Hbond>
3.1760

> <Gold.PLP.Chemscore.CHOScore>
0.9109

> <Gold.PLP.Chemscore.Metal>
0.0000

> <Gold.Chemscore.Hbonds>
donor molecule, donor type, donor heavy atom, donor atom, acceptor molecule, acceptor atom, score
      P1  H  6896  6907       L1    14  0.90
      P1  H  7997  8008       L1    18  0.21
      P1  H 10752 10763       L1    16  2.00
      L1  C     7    27       P1  8028  0.10
      L1  C     7    27       P1  8029  0.75

> <Gold.PLP.Chemscore.Internal.Correction>
0.0966

> <Gold.Rescore>
     Score         DG    S(hbond)    S(metal)    S(lipo)     H(rot)  DE(clash)    DE(int)     intcor
      9.27     -12.81       1.65        0.00      72.18       2.58       0.16       3.39       ----

> <Gold.Chemscore.Fitness>
9.2705

> <Gold.Chemscore.DG>
-12.8133

> <Gold.Chemscore.ZeroCoef>
-5.4800

> <Gold.Chemscore.Hbond>
1.6454

> <Gold.Chemscore.Metal>
0.0000

> <Gold.Chemscore.Lipo>
72.1810

> <Gold.Chemscore.Internal_Hbond>
0.0000

> <Gold.Chemscore.DEClash>
0.1559

> <Gold.Chemscore.DEInternal>
3.3870

> <Gold.Chemscore.Rot>
2.5811

> <Gold.Chemscore.Internal.Correction>
   9.000000E+99

> <Gold.Chemscore.Hbonds>
donor molecule, donor type, donor heavy atom, donor atom, acceptor molecule, acceptor atom, score
      P1  H  6896  6907       L1    14  0.18
      P1  H  7997  8008       L1    18  0.20
      P1  H 10752 10763       L1    16  0.86

> <Gold.Chemscore.Hbond.Weighted>
-5.4957

> <Gold.Chemscore.Metal.Weighted>
-0.0000

> <Gold.Chemscore.Lipo.Weighted>
-8.4452

> <Gold.Chemscore.Internal_Hbond.Weighted>
0.0000

> <Gold.Chemscore.DEClash.Weighted>
0.1559

> <Gold.Chemscore.DEInternal.Weighted>
3.3870

> <Gold.Chemscore.Rot.Weighted>
6.6076

> <Gold.Chemscore.Internal.Correction.Weighted>
   9.000000E+99

> <Gold.Protein.RotatedTorsions>
[ 6907 6896 6895 6894 ] final   59.91 input  -60.11 | X-H torsion
[ 7974 7965 7964 7962 ] final   10.07 input  175.53 | X-H torsion
[ 8008 7997 7996 7995 ] final -115.82 input   59.86 | X-H torsion
[ 10167 10162 10161 10158 ] final   26.57 input  -65.29 | X-H torsion
[ 10718 10713 10712 10709 ] final  -86.46 input   66.30 | X-H torsion
[ 10763 10752 10751 10750 ] final  161.28 input  -60.55 | X-H torsion
[ 11005 11000 10999 10996 ] final  -25.25 input  -57.11 | X-H torsion

> <Gold.Protein.ActiveResidues>
 VAL166  LYS551  ARG553  GLY616  TRP617  ASP618  TYR619  PRO620  LYS621  CYS622 
 ASP623  PHE694  ASN695  SER759  ASP760  ASP761  ALA762  ILE779  LEU786  VAL792 
 PHE793  MET794  SER795  GLU796  ALA797  LYS798  CYS799  TRP800  GLU811  SER814 

> <Gold.Protein.RotatedAtoms>
  152.3957  134.6369  160.0089 H   0  0  0  0  0  0  0  0  0  0  0  0  # atno 6907 bound_to 6896
  151.6590  133.3312  159.3177 H   0  0  0  0  0  0  0  0  0  0  0  0  # atno 6908 bound_to 6896
  150.7865  134.6897  159.6535 H   0  0  0  0  0  0  0  0  0  0  0  0  # atno 6909 bound_to 6896
  146.2394  139.9689  142.8449 H   0  0  0  0  0  0  0  0  0  0  0  0  # atno 7974 bound_to 7965
  155.0580  140.0393  157.2567 H   0  0  0  0  0  0  0  0  0  0  0  0  # atno 8008 bound_to 7997
  154.7083  140.2687  155.6629 H   0  0  0  0  0  0  0  0  0  0  0  0  # atno 8009 bound_to 7997
  156.2782  140.2727  156.1716 H   0  0  0  0  0  0  0  0  0  0  0  0  # atno 8010 bound_to 7997
  140.5011  144.0313  150.6333 H   0  0  0  0  0  0  0  0  0  0  0  0  # atno 10167 bound_to 10162
  155.9990  130.4766  150.4718 H   0  0  0  0  0  0  0  0  0  0  0  0  # atno 10718 bound_to 10713
  154.2604  135.2768  155.2780 H   0  0  0  0  0  0  0  0  0  0  0  0  # atno 10763 bound_to 10752
  154.5388  135.5708  153.6825 H   0  0  0  0  0  0  0  0  0  0  0  0  # atno 10764 bound_to 10752
  152.9963  135.6246  154.2755 H   0  0  0  0  0  0  0  0  0  0  0  0  # atno 10765 bound_to 10752
  140.8920  133.7582  156.0433 H   0  0  0  0  0  0  0  0  0  0  0  0  # atno 11005 bound_to 11000
  145.1700  140.9716  143.4327 LP  0  0  0  0  0  0  0  0  0  0  0  0  # atno 17320 bound_to 7965
  145.0037  139.3574  143.6154 LP  0  0  0  0  0  0  0  0  0  0  0  0  # atno 17321 bound_to 7965
  140.3609  143.2908  152.0385 LP  0  0  0  0  0  0  0  0  0  0  0  0  # atno 17342 bound_to 10162
  139.4872  144.6303  151.7082 LP  0  0  0  0  0  0  0  0  0  0  0  0  # atno 17343 bound_to 10162
  157.2732  131.0591  151.2246 LP  0  0  0  0  0  0  0  0  0  0  0  0  # atno 17370 bound_to 10713
  157.3319  130.6989  149.6329 LP  0  0  0  0  0  0  0  0  0  0  0  0  # atno 17371 bound_to 10713
  140.8335  134.3150  157.5340 LP  0  0  0  0  0  0  0  0  0  0  0  0  # atno 17394 bound_to 11000
  139.8731  134.9376  156.3693 LP  0  0  0  0  0  0  0  0  0  0  0  0  # atno 17395 bound_to 11000

$$$$
