AV-unprocessed.smi:2819|AV-procd|sdf|10852|dock2
  -GOLD-   2272015293D 1   1.00000     0.00000
 Structure written by MMmdl.
 49 50  0  0  0  0  0  0  0  0  1 V2000
  146.3239  128.9080  153.9175 C   0  0  0  0  0  0  0  0  0  0  0  0
  146.4489  129.2473  152.5040 N   0  0  0  0  0  0  0  0  0  0  0  0
  146.7038  128.2032  151.5197 C   0  0  0  0  0  0  0  0  0  0  0  0
  146.2422  130.5797  152.0825 C   0  0  0  0  0  0  0  0  0  0  0  0
  145.2848  130.9125  151.0938 C   0  0  0  0  0  0  0  0  0  0  0  0
  145.1654  132.2743  150.7564 C   0  0  0  0  0  0  0  0  0  0  0  0
  145.9240  133.2219  151.3433 N   0  0  0  0  0  0  0  0  0  0  0  0
  146.8042  132.8174  152.2678 C   0  0  0  0  0  0  0  0  0  0  0  0
  147.6121  133.7334  152.9059 N   0  0  0  0  0  0  0  0  0  0  0  0
  148.2153  133.6889  154.1092 C   0  0  0  0  0  0  0  0  0  0  0  0
  148.1464  132.7549  154.9092 O   0  0  0  0  0  0  0  0  0  0  0  0
  148.9265  134.8033  154.3341 N   0  0  0  0  0  0  0  0  0  0  0  0
  149.7391  135.0745  155.5204 C   0  0  0  0  0  0  0  0  0  0  0  0
  149.4212  136.4546  156.1692 C   0  0  0  0  0  0  0  0  0  0  0  0
  147.8832  136.5437  156.3200 C   0  0  0  0  0  0  0  0  0  0  0  0
  150.0165  136.4196  157.6003 C   0  0  0  0  0  0  0  0  0  0  0  0
  149.9948  137.5791  155.3766 N   0  0  0  0  0  0  0  0  0  0  0  0
  151.4595  137.5904  155.2882 C   0  0  0  0  0  0  0  0  0  0  0  0
  151.9743  138.7020  154.3580 C   0  0  0  0  0  0  0  0  0  0  0  0
  151.4912  139.9633  154.8040 O   0  0  0  0  0  0  0  0  0  0  0  0
  150.0706  140.0154  154.8476 C   0  0  0  0  0  0  0  0  0  0  0  0
  149.5406  138.9148  155.7822 C   0  0  0  0  0  0  0  0  0  0  0  0
  146.9939  131.5527  152.6555 N   0  0  0  0  0  0  0  0  0  0  0  0
  147.0366  129.4795  154.5130 H   0  0  0  0  0  0  0  0  0  0  0  0
  146.5178  127.8496  154.0922 H   0  0  0  0  0  0  0  0  0  0  0  0
  145.3175  129.1271  154.2758 H   0  0  0  0  0  0  0  0  0  0  0  0
  145.8783  128.1343  150.8105 H   0  0  0  0  0  0  0  0  0  0  0  0
  146.8159  127.2284  151.9946 H   0  0  0  0  0  0  0  0  0  0  0  0
  147.6211  128.4117  150.9683 H   0  0  0  0  0  0  0  0  0  0  0  0
  144.6627  130.1776  150.6059 H   0  0  0  0  0  0  0  0  0  0  0  0
  144.4571  132.6040  150.0108 H   0  0  0  0  0  0  0  0  0  0  0  0
  147.7859  134.5723  152.3727 H   0  0  0  0  0  0  0  0  0  0  0  0
  148.9309  135.5142  153.6172 H   0  0  0  0  0  0  0  0  0  0  0  0
  149.5726  134.2631  156.2284 H   0  0  0  0  0  0  0  0  0  0  0  0
  150.8016  135.0067  155.2802 H   0  0  0  0  0  0  0  0  0  0  0  0
  147.5013  135.7176  156.9211 H   0  0  0  0  0  0  0  0  0  0  0  0
  147.3722  136.4928  155.3588 H   0  0  0  0  0  0  0  0  0  0  0  0
  147.5694  137.4620  156.8154 H   0  0  0  0  0  0  0  0  0  0  0  0
  149.7454  135.5019  158.1238 H   0  0  0  0  0  0  0  0  0  0  0  0
  149.6537  137.2401  158.2192 H   0  0  0  0  0  0  0  0  0  0  0  0
  151.1055  136.4755  157.5865 H   0  0  0  0  0  0  0  0  0  0  0  0
  151.8966  137.7289  156.2770 H   0  0  0  0  0  0  0  0  0  0  0  0
  151.8336  136.6422  154.9065 H   0  0  0  0  0  0  0  0  0  0  0  0
  153.0642  138.7194  154.3565 H   0  0  0  0  0  0  0  0  0  0  0  0
  151.6549  138.5242  153.3299 H   0  0  0  0  0  0  0  0  0  0  0  0
  149.7616  140.9974  155.2060 H   0  0  0  0  0  0  0  0  0  0  0  0
  149.6628  139.8982  153.8421 H   0  0  0  0  0  0  0  0  0  0  0  0
  148.4540  138.9753  155.7813 H   0  0  0  0  0  0  0  0  0  0  0  0
  149.8692  139.1317  156.7986 H   0  0  0  0  0  0  0  0  0  0  0  0
  1  2  1  0  0  0  0
  1 24  1  0  0  0  0
  1 25  1  0  0  0  0
  1 26  1  0  0  0  0
  2  3  1  0  0  0  0
  2  4  1  0  0  0  0
  3 27  1  0  0  0  0
  3 28  1  0  0  0  0
  3 29  1  0  0  0  0
  4 23  1  0  0  0  0
  4  5  2  0  0  0  0
  5  6  1  0  0  0  0
  5 30  1  0  0  0  0
  6  7  2  0  0  0  0
  6 31  1  0  0  0  0
  7  8  1  0  0  0  0
  8  9  1  0  0  0  0
  8 23  2  0  0  0  0
  9 10  1  0  0  0  0
  9 32  1  0  0  0  0
 10 11  2  0  0  0  0
 10 12  1  0  0  0  0
 12 13  1  0  0  0  0
 12 33  1  0  0  0  0
 13 14  1  0  0  0  0
 13 34  1  0  0  0  0
 13 35  1  0  0  0  0
 14 15  1  0  0  0  0
 14 16  1  0  0  0  0
 14 17  1  0  0  0  0
 15 36  1  0  0  0  0
 15 37  1  0  0  0  0
 15 38  1  0  0  0  0
 16 39  1  0  0  0  0
 16 40  1  0  0  0  0
 16 41  1  0  0  0  0
 17 22  1  0  0  0  0
 17 18  1  0  0  0  0
 18 19  1  0  0  0  0
 18 42  1  0  0  0  0
 18 43  1  0  0  0  0
 19 20  1  0  0  0  0
 19 44  1  0  0  0  0
 19 45  1  0  0  0  0
 20 21  1  0  0  0  0
 21 22  1  0  0  0  0
 21 46  1  0  0  0  0
 21 47  1  0  0  0  0
 22 48  1  0  0  0  0
 22 49  1  0  0  0  0
M  END
> <s_m_source_file>
AV-unprocessed.smi

> <i_m_source_file_index>
2819

> <i_lp_mmshare_version>
43012

> <i_f3d_flags>
0

> <s_epik_input>
W0NIM11OKFtDSDNdKWMxW2NIXVtjSF1uYyhuMSlbTkhdQyg9TylbTkhdW0NIMl1DKFtDSDNdKShbQ0gzXSlOMltDSDJdW0NIMl1PW0NIMl1bQ0gyXTI=

> <s_epik_cmdline>
J2VwaWtfcHl0aG9uJywgJy1waCcsICc3LjAnLCAnLXRuJywgJzgnLCAnLW1hJywgJzIwMCcsICctbWV0YWxfYmluZGluZycsICctaW1hZScsICc8aW5maWxlLm1hZT4nLCAnLW9tYWUnLCAnPG91dGZpbGUubWFlPic=

> <r_lp_tautomer_probability>
1

> <r_epik_Ionization_Penalty>
1.38931

> <r_epik_Ionization_Penalty_Charging>
0

> <r_epik_Ionization_Penalty_Neutral>
1.38931

> <r_epik_State_Penalty>
1.41304

> <r_epik_Charging_Adjusted_Penalty>
1.41304

> <i_epik_Tot_Q>
0

> <i_epik_Tot_abs_Q>
0

> <r_epik_Metal_State_Penalty>
0.631353

> <b_epik_Metal_Only>
0

> <s_lp_Force_Field>
OPLS_2005

> <r_lp_Energy>
40.3447

> <b_lp_Chiralities_Consistent>
1

> <s_lp_Variant>
AV-unprocessed.smi:2819-3

> <Gold.Version>
5.8.1

> <Gold.Id.Protein>
6NUR|6NUR_protein|mol2

> <Gold.PLP.Fitness>
39.8344

> <Gold.PLP.PLP>
-33.7810

> <Gold.PLP.part.hbond>
-3.0000

> <Gold.PLP.part.metal>
0.0000

> <Gold.PLP.part.buried>
-6.0607

> <Gold.PLP.part.nonpolar>
-25.3244

> <Gold.PLP.part.repulsive>
0.8729

> <Gold.PLP.ligand.clash>
0.0000

> <Gold.PLP.ligand.torsion>
1.4181

> <Gold.PLP.Chemscore.Hbond>
2.9250

> <Gold.PLP.Chemscore.CHOScore>
0.0000

> <Gold.PLP.Chemscore.Metal>
0.0000

> <Gold.Chemscore.Hbonds>
donor molecule, donor type, donor heavy atom, donor atom, acceptor molecule, acceptor atom, score
      L1  H     9    32       P1  7948  0.96
      L1  H    12    33       P1  7948  1.00
      P1  H  7989  7998       L1    20  0.80

> <Gold.PLP.Chemscore.Internal.Correction>
0.1146

> <Gold.Rescore>
     Score         DG    S(hbond)    S(metal)    S(lipo)     H(rot)  DE(clash)    DE(int)     intcor
     12.30     -15.26       1.68        0.00      68.73       1.51       0.17       2.79       ----

> <Gold.Chemscore.Fitness>
12.3006

> <Gold.Chemscore.DG>
-15.2630

> <Gold.Chemscore.ZeroCoef>
-5.4800

> <Gold.Chemscore.Hbond>
1.6770

> <Gold.Chemscore.Metal>
0.0000

> <Gold.Chemscore.Lipo>
68.7254

> <Gold.Chemscore.Internal_Hbond>
0.0000

> <Gold.Chemscore.DEClash>
0.1685

> <Gold.Chemscore.DEInternal>
2.7939

> <Gold.Chemscore.Rot>
1.5075

> <Gold.Chemscore.Internal.Correction>
   9.000000E+99

> <Gold.Chemscore.Hbonds>
donor molecule, donor type, donor heavy atom, donor atom, acceptor molecule, acceptor atom, score
      L1  H     9    32       P1  7948  0.53
      L1  H    12    33       P1  7948  0.81
      P1  H  7989  7998       L1    20  0.04

> <Gold.Chemscore.Hbond.Weighted>
-5.6012

> <Gold.Chemscore.Metal.Weighted>
-0.0000

> <Gold.Chemscore.Lipo.Weighted>
-8.0409

> <Gold.Chemscore.Internal_Hbond.Weighted>
0.0000

> <Gold.Chemscore.DEClash.Weighted>
0.1685

> <Gold.Chemscore.DEInternal.Weighted>
2.7939

> <Gold.Chemscore.Rot.Weighted>
3.8591

> <Gold.Chemscore.Internal.Correction.Weighted>
   9.000000E+99

> <Gold.Protein.RotatedTorsions>
[ 6907 6896 6895 6894 ] final  -72.75 input  -60.11 | X-H torsion
[ 7974 7965 7964 7962 ] final   -8.30 input  175.53 | X-H torsion
[ 8008 7997 7996 7995 ] final  115.31 input   59.86 | X-H torsion
[ 10167 10162 10161 10158 ] final  122.59 input  -65.29 | X-H torsion
[ 10718 10713 10712 10709 ] final   16.27 input   66.30 | X-H torsion
[ 10763 10752 10751 10750 ] final -131.82 input  -60.55 | X-H torsion
[ 11005 11000 10999 10996 ] final  -91.70 input  -57.11 | X-H torsion

> <Gold.Protein.ActiveResidues>
 VAL166  LYS551  ARG553  GLY616  TRP617  ASP618  TYR619  PRO620  LYS621  CYS622 
 ASP623  PHE694  ASN695  SER759  ASP760  ASP761  ALA762  ILE779  LEU786  VAL792 
 PHE793  MET794  SER795  GLU796  ALA797  LYS798  CYS799  TRP800  GLU811  SER814 

> <Gold.Protein.RotatedAtoms>
  150.7157  134.5118  159.5610 H   0  0  0  0  0  0  0  0  0  0  0  0  # atno 6907 bound_to 6896
  152.2693  134.7948  160.0426 H   0  0  0  0  0  0  0  0  0  0  0  0  # atno 6908 bound_to 6896
  151.8633  133.3426  159.3748 H   0  0  0  0  0  0  0  0  0  0  0  0  # atno 6909 bound_to 6896
  146.2284  140.2447  142.8345 H   0  0  0  0  0  0  0  0  0  0  0  0  # atno 7974 bound_to 7965
  156.2374  140.2941  156.0349 H   0  0  0  0  0  0  0  0  0  0  0  0  # atno 8008 bound_to 7997
  155.2053  140.0411  157.2941 H   0  0  0  0  0  0  0  0  0  0  0  0  # atno 8009 bound_to 7997
  154.6103  140.2450  155.7684 H   0  0  0  0  0  0  0  0  0  0  0  0  # atno 8010 bound_to 7997
  139.5849  144.7002  151.3434 H   0  0  0  0  0  0  0  0  0  0  0  0  # atno 10167 bound_to 10162
  157.0655  130.6326  149.5794 H   0  0  0  0  0  0  0  0  0  0  0  0  # atno 10718 bound_to 10713
  154.8748  135.3817  154.4309 H   0  0  0  0  0  0  0  0  0  0  0  0  # atno 10763 bound_to 10752
  153.5003  135.7030  153.5840 H   0  0  0  0  0  0  0  0  0  0  0  0  # atno 10764 bound_to 10752
  153.4175  135.3909  155.2056 H   0  0  0  0  0  0  0  0  0  0  0  0  # atno 10765 bound_to 10752
  141.1539  133.7773  156.9917 H   0  0  0  0  0  0  0  0  0  0  0  0  # atno 11005 bound_to 11000
  144.9457  140.8126  143.5603 LP  0  0  0  0  0  0  0  0  0  0  0  0  # atno 17320 bound_to 7965
  145.2403  139.2075  143.4996 LP  0  0  0  0  0  0  0  0  0  0  0  0  # atno 17321 bound_to 7965
  140.7122  143.7359  150.7589 LP  0  0  0  0  0  0  0  0  0  0  0  0  # atno 17342 bound_to 10162
  140.0901  143.4885  152.2483 LP  0  0  0  0  0  0  0  0  0  0  0  0  # atno 17343 bound_to 10162
  155.9966  130.5035  150.7502 LP  0  0  0  0  0  0  0  0  0  0  0  0  # atno 17370 bound_to 10713
  157.4921  131.0911  151.0415 LP  0  0  0  0  0  0  0  0  0  0  0  0  # atno 17371 bound_to 10713
  140.0999  134.9542  157.1906 LP  0  0  0  0  0  0  0  0  0  0  0  0  # atno 17394 bound_to 11000
  140.3333  134.2786  155.7224 LP  0  0  0  0  0  0  0  0  0  0  0  0  # atno 17395 bound_to 11000

$$$$
