AV-unprocessed.smi:102|AV-procd|sdf|969|dock10
  -GOLD-   2262017523D 1   1.00000     0.00000
 Structure written by MMmdl.
 43 44  0  0  0  0  0  0  0  0  2 V2000
  148.8630  130.9857  156.3316 C   0  0  0  0  0  0  0  0  0  0  0  0
  148.9783  132.1924  157.2535 C   0  0  0  0  0  0  0  0  0  0  0  0
  150.0015  132.8761  157.2934 O   0  0  0  0  0  0  0  0  0  0  0  0
  147.8681  132.3899  157.9797 O   0  0  0  0  0  0  0  0  0  0  0  0
  147.8523  133.4032  158.9715 C   0  0  0  0  0  0  0  0  0  0  0  0
  147.7431  134.7807  158.2999 C   0  0  2  0  0  0  0  0  0  0  0  0
  148.9890  135.1505  157.7113 O   0  0  0  0  0  0  0  0  0  0  0  0
  149.5274  136.2570  158.3692 C   0  0  1  0  0  0  0  0  0  0  0  0
  150.5044  136.9778  157.4506 N   0  0  0  0  0  0  0  0  0  0  0  0
  150.3938  138.3379  157.1993 C   0  0  0  0  0  0  0  0  0  0  0  0
  151.2790  138.9868  156.4161 C   0  0  0  0  0  0  0  0  0  0  0  0
  151.1374  140.3052  156.1961 F   0  0  0  0  0  0  0  0  0  0  0  0
  152.3983  138.2537  155.8316 C   0  0  0  0  0  0  0  0  0  0  0  0
  153.1784  138.8391  155.0820 O   0  0  0  0  0  0  0  0  0  0  0  0
  152.5338  136.9370  156.1589 N   0  5  0  0  0  0  0  0  0  0  0  0
  151.6524  136.2826  156.9715 C   0  0  0  0  0  0  0  0  0  0  0  0
  151.8154  135.1134  157.3200 O   0  0  0  0  0  0  0  0  0  0  0  0
  148.2840  137.0605  158.7854 C   0  0  1  0  0  0  0  0  0  0  0  0
  147.6938  137.7385  157.6783 O   0  0  0  0  0  0  0  0  0  0  0  0
  146.7410  138.6646  157.8780 C   0  0  0  0  0  0  0  0  0  0  0  0
  146.2804  139.3097  156.5781 C   0  0  0  0  0  0  0  0  0  0  0  0
  146.2634  138.9916  158.9644 O   0  0  0  0  0  0  0  0  0  0  0  0
  147.3624  135.9381  159.2411 C   0  0  2  0  0  0  0  0  0  0  0  0
  147.6203  135.6321  160.6091 O   0  0  0  0  0  0  0  0  0  0  0  0
  147.0702  136.3701  161.5893 C   0  0  0  0  0  0  0  0  0  0  0  0
  147.4579  135.8728  162.9753 C   0  0  0  0  0  0  0  0  0  0  0  0
  146.3358  137.3463  161.4385 O   0  0  0  0  0  0  0  0  0  0  0  0
  147.9166  131.0080  155.7912 H   0  0  0  0  0  0  0  0  0  0  0  0
  148.9106  130.0633  156.9107 H   0  0  0  0  0  0  0  0  0  0  0  0
  149.6755  130.9799  155.6048 H   0  0  0  0  0  0  0  0  0  0  0  0
  146.9911  133.2386  159.6207 H   0  0  0  0  0  0  0  0  0  0  0  0
  148.7485  133.3496  159.5914 H   0  0  0  0  0  0  0  0  0  0  0  0
  147.0067  134.7356  157.4963 H   0  0  0  0  0  0  0  0  0  0  0  0
  150.1268  135.9365  159.2232 H   0  0  0  0  0  0  0  0  0  0  0  0
  149.6009  138.9158  157.6469 H   0  0  0  0  0  0  0  0  0  0  0  0
  148.5453  137.7577  159.5834 H   0  0  0  0  0  0  0  0  0  0  0  0
  147.1231  139.7786  156.0695 H   0  0  0  0  0  0  0  0  0  0  0  0
  145.5273  140.0732  156.7743 H   0  0  0  0  0  0  0  0  0  0  0  0
  145.8483  138.5599  155.9152 H   0  0  0  0  0  0  0  0  0  0  0  0
  146.3094  136.1952  159.1138 H   0  0  0  0  0  0  0  0  0  0  0  0
  147.2833  134.8000  163.0570 H   0  0  0  0  0  0  0  0  0  0  0  0
  146.8702  136.3781  163.7419 H   0  0  0  0  0  0  0  0  0  0  0  0
  148.5137  136.0681  163.1640 H   0  0  0  0  0  0  0  0  0  0  0  0
  1  2  1  0  0  0  0
  1 28  1  0  0  0  0
  1 29  1  0  0  0  0
  1 30  1  0  0  0  0
  2  3  2  0  0  0  0
  2  4  1  0  0  0  0
  4  5  1  0  0  0  0
  5  6  1  0  0  0  0
  5 31  1  0  0  0  0
  5 32  1  0  0  0  0
  6 23  1  0  0  0  0
  6  7  1  0  0  0  0
  6 33  1  0  0  0  0
  7  8  1  0  0  0  0
  8  9  1  0  0  0  0
  8 18  1  0  0  0  0
  8 34  1  0  0  0  0
  9 16  1  0  0  0  0
  9 10  1  0  0  0  0
 10 11  2  0  0  0  0
 10 35  1  0  0  0  0
 11 12  1  0  0  0  0
 11 13  1  0  0  0  0
 13 14  2  0  0  0  0
 13 15  1  0  0  0  0
 15 16  1  0  0  0  0
 16 17  2  0  0  0  0
 18 19  1  0  0  0  0
 18 23  1  0  0  0  0
 18 36  1  0  0  0  0
 19 20  1  0  0  0  0
 20 21  1  0  0  0  0
 20 22  2  0  0  0  0
 21 37  1  0  0  0  0
 21 38  1  0  0  0  0
 21 39  1  0  0  0  0
 23 24  1  0  0  0  0
 23 40  1  0  0  0  0
 24 25  1  0  0  0  0
 25 26  1  0  0  0  0
 25 27  2  0  0  0  0
 26 41  1  0  0  0  0
 26 42  1  0  0  0  0
 26 43  1  0  0  0  0
M  CHG  1  15  -1
M  END
> <s_m_source_file>
AV-unprocessed.smi

> <i_m_source_file_index>
102

> <i_lp_mmshare_version>
43012

> <i_f3d_flags>
0

> <s_epik_input>
W0NIM11DKD1PKU9bQ0gyXVtDQEBIXTFPW0NASF0oW0NAQEhdKE9DKD1PKVtDSDNdKVtDQEhdMU9DKD1PKVtDSDNdKW4yW2NIXWMoRiljKD1PKVtuSF1jMj1P

> <s_epik_cmdline>
J2VwaWtfcHl0aG9uJywgJy1waCcsICc3LjAnLCAnLXRuJywgJzgnLCAnLW1hJywgJzIwMCcsICctbWV0YWxfYmluZGluZycsICctaW1hZScsICc8aW5maWxlLm1hZT4nLCAnLW9tYWUnLCAnPG91dGZpbGUubWFlPic=

> <r_epik_Ionization_Penalty>
1.40304

> <r_epik_Ionization_Penalty_Charging>
1.43915e-08

> <r_epik_Ionization_Penalty_Neutral>
1.40304

> <r_epik_State_Penalty>
1.48536

> <r_epik_Charging_Adjusted_Penalty>
1.48536

> <i_epik_Tot_Q>
-1

> <i_epik_Tot_abs_Q>
1

> <r_epik_Metal_State_Penalty>
0.00663881

> <b_epik_Metal_Only>
0

> <s_epik_Chemistry_Notes>
This compound has an ester and may undergo hydrolysis at high or low pH. This compound contains an acetal/aminal-like group ( X-CH(R)-Y where X, Y are N, S, or O) that may be acid/base labile, releasing an aldehyde.

> <s_lp_Force_Field>
OPLS_2005

> <r_lp_Energy>
30.6684

> <b_lp_Chiralities_Consistent>
1

> <s_lp_Variant>
AV-unprocessed.smi:102-25

> <Gold.Version>
5.8.1

> <Gold.Id.Protein>
6NUR|6NUR_protein|mol2

> <Gold.PLP.Fitness>
42.3049

> <Gold.PLP.PLP>
-29.1959

> <Gold.PLP.part.hbond>
-6.5273

> <Gold.PLP.part.metal>
0.0000

> <Gold.PLP.part.buried>
-5.1138

> <Gold.PLP.part.nonpolar>
-19.0613

> <Gold.PLP.part.repulsive>
0.0000

> <Gold.PLP.ligand.clash>
0.0000

> <Gold.PLP.ligand.torsion>
0.5786

> <Gold.PLP.Chemscore.Hbond>
4.6960

> <Gold.PLP.Chemscore.CHOScore>
0.0000

> <Gold.PLP.Chemscore.Metal>
0.0000

> <Gold.Chemscore.Hbonds>
donor molecule, donor type, donor heavy atom, donor atom, acceptor molecule, acceptor atom, score
      P1  H  6896  6907       L1     3  0.32
      P1  H  6934  6947       L1    27  1.00
      P1  H  7997  8008       L1    14  0.99
      P1  H 10752 10765       L1    15  1.76

> <Gold.PLP.Chemscore.Internal.Correction>
0.1784

> <Gold.Rescore>
     Score         DG    S(hbond)    S(metal)    S(lipo)     H(rot)  DE(clash)    DE(int)     intcor
      6.14      -9.51       3.13        0.00      32.38       4.00       0.01       3.36       ----

> <Gold.Chemscore.Fitness>
6.1419

> <Gold.Chemscore.DG>
-9.5092

> <Gold.Chemscore.ZeroCoef>
-5.4800

> <Gold.Chemscore.Hbond>
3.1342

> <Gold.Chemscore.Metal>
0.0000

> <Gold.Chemscore.Lipo>
32.3801

> <Gold.Chemscore.Internal_Hbond>
0.0000

> <Gold.Chemscore.DEClash>
0.0088

> <Gold.Chemscore.DEInternal>
3.3585

> <Gold.Chemscore.Rot>
3.9951

> <Gold.Chemscore.Internal.Correction>
   9.000000E+99

> <Gold.Chemscore.Hbonds>
donor molecule, donor type, donor heavy atom, donor atom, acceptor molecule, acceptor atom, score
      P1  H  6896  6907       L1     3  0.32
      P1  H  6934  6947       L1    27  0.94
      P1  H  7997  8008       L1    14  0.89
      P1  H 10752 10765       L1    15  0.26

> <Gold.Chemscore.Hbond.Weighted>
-10.4682

> <Gold.Chemscore.Metal.Weighted>
-0.0000

> <Gold.Chemscore.Lipo.Weighted>
-3.7885

> <Gold.Chemscore.Internal_Hbond.Weighted>
0.0000

> <Gold.Chemscore.DEClash.Weighted>
0.0088

> <Gold.Chemscore.DEInternal.Weighted>
3.3585

> <Gold.Chemscore.Rot.Weighted>
10.2274

> <Gold.Chemscore.Internal.Correction.Weighted>
   9.000000E+99

> <Gold.Protein.RotatedTorsions>
[ 6907 6896 6895 6894 ] final -149.80 input  -60.11 | X-H torsion
[ 7974 7965 7964 7962 ] final  149.99 input  175.53 | X-H torsion
[ 8008 7997 7996 7995 ] final   -9.40 input   59.86 | X-H torsion
[ 10167 10162 10161 10158 ] final  -78.49 input  -65.29 | X-H torsion
[ 10718 10713 10712 10709 ] final   75.34 input   66.30 | X-H torsion
[ 10763 10752 10751 10750 ] final -138.22 input  -60.55 | X-H torsion
[ 11005 11000 10999 10996 ] final -126.31 input  -57.11 | X-H torsion

> <Gold.Protein.ActiveResidues>
 VAL166  LYS551  ARG553  GLY616  TRP617  ASP618  TYR619  PRO620  LYS621  CYS622 
 ASP623  PHE694  ASN695  SER759  ASP760  ASP761  ALA762  ILE779  LEU786  VAL792 
 PHE793  MET794  SER795  GLU796  ALA797  LYS798  CYS799  TRP800  GLU811  SER814 

> <Gold.Protein.RotatedAtoms>
  151.1893  133.4677  159.2594 H   0  0  0  0  0  0  0  0  0  0  0  0  # atno 6907 bound_to 6896
  151.1179  135.0063  159.8535 H   0  0  0  0  0  0  0  0  0  0  0  0  # atno 6908 bound_to 6896
  152.5454  134.1807  159.8687 H   0  0  0  0  0  0  0  0  0  0  0  0  # atno 6909 bound_to 6896
  144.8397  139.6351  143.6022 H   0  0  0  0  0  0  0  0  0  0  0  0  # atno 7974 bound_to 7965
  154.5650  140.2356  155.8277 H   0  0  0  0  0  0  0  0  0  0  0  0  # atno 8008 bound_to 7997
  156.2061  140.3039  155.9588 H   0  0  0  0  0  0  0  0  0  0  0  0  # atno 8009 bound_to 7997
  155.2818  140.0423  157.3006 H   0  0  0  0  0  0  0  0  0  0  0  0  # atno 8010 bound_to 7997
  140.4678  143.2435  151.8251 H   0  0  0  0  0  0  0  0  0  0  0  0  # atno 10167 bound_to 10162
  157.6630  130.9721  150.1339 H   0  0  0  0  0  0  0  0  0  0  0  0  # atno 10718 bound_to 10713
  154.8642  135.3618  154.5350 H   0  0  0  0  0  0  0  0  0  0  0  0  # atno 10763 bound_to 10752
  153.5974  135.7013  153.5403 H   0  0  0  0  0  0  0  0  0  0  0  0  # atno 10764 bound_to 10752
  153.3320  135.4122  155.1464 H   0  0  0  0  0  0  0  0  0  0  0  0  # atno 10765 bound_to 10752
  140.9692  134.0829  157.3887 H   0  0  0  0  0  0  0  0  0  0  0  0  # atno 11005 bound_to 11000
  146.2691  139.6591  142.9309 LP  0  0  0  0  0  0  0  0  0  0  0  0  # atno 17320 bound_to 7965
  145.4721  141.0436  143.2693 LP  0  0  0  0  0  0  0  0  0  0  0  0  # atno 17321 bound_to 7965
  139.4814  144.4929  151.9161 LP  0  0  0  0  0  0  0  0  0  0  0  0  # atno 17342 bound_to 10162
  140.4015  144.2487  150.5893 LP  0  0  0  0  0  0  0  0  0  0  0  0  # atno 17343 bound_to 10162
  156.2179  130.3671  149.8592 LP  0  0  0  0  0  0  0  0  0  0  0  0  # atno 17370 bound_to 10713
  156.6453  130.8721  151.3521 LP  0  0  0  0  0  0  0  0  0  0  0  0  # atno 17371 bound_to 10713
  139.8906  135.0113  156.6744 LP  0  0  0  0  0  0  0  0  0  0  0  0  # atno 17394 bound_to 11000
  140.7354  133.9023  155.8240 LP  0  0  0  0  0  0  0  0  0  0  0  0  # atno 17395 bound_to 11000

$$$$
