AV-unprocessed.smi:3045|AV-procd|sdf|11610|dock10
  -GOLD-   2272016593D 1   1.00000     0.00000
 Structure written by MMmdl.
 35 36  0  0  0  0  0  0  0  0  1 V2000
  146.7142  138.6865  152.6633 C   0  0  0  0  0  0  0  0  0  0  0  0
  147.0885  139.8386  153.4720 N   0  0  0  0  0  0  0  0  0  0  0  0
  148.1785  140.7134  153.0741 C   0  0  0  0  0  0  0  0  0  0  0  0
  148.3707  141.6952  154.2515 C   0  0  2  0  0  0  0  0  0  0  0  0
  149.6752  141.4474  155.0238 C   0  0  0  0  0  0  0  0  0  0  0  0
  150.3542  140.4475  154.7875 O   0  0  0  0  0  0  0  0  0  0  0  0
  149.9988  142.3559  155.9580 N   0  0  0  0  0  0  0  0  0  0  0  0
  151.1455  142.2744  156.8595 C   0  0  0  0  0  0  0  0  0  0  0  0
  151.5757  143.6594  157.3817 C   0  0  0  0  0  0  0  0  0  0  0  0
  151.9133  143.6754  158.8627 C   0  0  0  0  0  0  0  0  0  0  0  0
  152.7344  142.6801  159.4327 C   0  0  0  0  0  0  0  0  0  0  0  0
  153.0418  142.7577  160.8044 C   0  0  0  0  0  0  0  0  0  0  0  0
  152.5111  143.8285  161.5508 C   0  0  0  0  0  0  0  0  0  0  0  0
  151.7194  144.7837  161.0177 N   0  0  0  0  0  0  0  0  0  0  0  0
  151.4308  144.7027  159.7011 C   0  0  0  0  0  0  0  0  0  0  0  0
  147.1420  141.4808  155.1588 C   0  0  0  0  0  0  0  0  0  0  0  0
  146.4731  140.2427  154.5868 C   0  0  0  0  0  0  0  0  0  0  0  0
  145.4989  139.7068  155.1128 O   0  0  0  0  0  0  0  0  0  0  0  0
  145.7604  138.8663  152.1660 H   0  0  0  0  0  0  0  0  0  0  0  0
  146.6161  137.7949  153.2837 H   0  0  0  0  0  0  0  0  0  0  0  0
  147.4635  138.4831  151.8976 H   0  0  0  0  0  0  0  0  0  0  0  0
  149.0748  140.1327  152.8485 H   0  0  0  0  0  0  0  0  0  0  0  0
  147.8977  141.2485  152.1660 H   0  0  0  0  0  0  0  0  0  0  0  0
  148.3734  142.7182  153.8710 H   0  0  0  0  0  0  0  0  0  0  0  0
  149.3826  143.1466  156.0794 H   0  0  0  0  0  0  0  0  0  0  0  0
  150.9304  141.6078  157.6965 H   0  0  0  0  0  0  0  0  0  0  0  0
  151.9727  141.8174  156.3161 H   0  0  0  0  0  0  0  0  0  0  0  0
  152.4458  144.0063  156.8236 H   0  0  0  0  0  0  0  0  0  0  0  0
  150.7844  144.3849  157.1891 H   0  0  0  0  0  0  0  0  0  0  0  0
  153.1317  141.8769  158.8296 H   0  0  0  0  0  0  0  0  0  0  0  0
  153.6724  142.0168  161.2732 H   0  0  0  0  0  0  0  0  0  0  0  0
  152.7278  143.9198  162.6048 H   0  0  0  0  0  0  0  0  0  0  0  0
  150.8047  145.4871  159.3020 H   0  0  0  0  0  0  0  0  0  0  0  0
  147.3931  141.3249  156.2094 H   0  0  0  0  0  0  0  0  0  0  0  0
  146.4563  142.3266  155.0989 H   0  0  0  0  0  0  0  0  0  0  0  0
  1  2  1  0  0  0  0
  1 19  1  0  0  0  0
  1 20  1  0  0  0  0
  1 21  1  0  0  0  0
  2 17  1  0  0  0  0
  2  3  1  0  0  0  0
  3  4  1  0  0  0  0
  3 22  1  0  0  0  0
  3 23  1  0  0  0  0
  4  5  1  0  0  0  0
  4 16  1  0  0  0  0
  4 24  1  0  0  0  0
  5  6  2  0  0  0  0
  5  7  1  0  0  0  0
  7  8  1  0  0  0  0
  7 25  1  0  0  0  0
  8  9  1  0  0  0  0
  8 26  1  0  0  0  0
  8 27  1  0  0  0  0
  9 10  1  0  0  0  0
  9 28  1  0  0  0  0
  9 29  1  0  0  0  0
 10 15  1  0  0  0  0
 10 11  2  0  0  0  0
 11 12  1  0  0  0  0
 11 30  1  0  0  0  0
 12 13  2  0  0  0  0
 12 31  1  0  0  0  0
 13 14  1  0  0  0  0
 13 32  1  0  0  0  0
 14 15  2  0  0  0  0
 15 33  1  0  0  0  0
 16 17  1  0  0  0  0
 16 34  1  0  0  0  0
 16 35  1  0  0  0  0
 17 18  2  0  0  0  0
M  END
> <s_m_source_file>
AV-unprocessed.smi

> <i_m_source_file_index>
3045

> <i_lp_mmshare_version>
43012

> <i_f3d_flags>
0

> <s_epik_input>
W0NIM11OMVtDSDJdW0NASF0oW0NIMl1DMT1PKUMoPU8pW05IXVtDSDJdW0NIMl1jMltjSF1bY0hdW2NIXW5bY0hdMg==

> <s_epik_cmdline>
J2VwaWtfcHl0aG9uJywgJy1waCcsICc3LjAnLCAnLXRuJywgJzgnLCAnLW1hJywgJzIwMCcsICctbWV0YWxfYmluZGluZycsICctaW1hZScsICc8aW5maWxlLm1hZT4nLCAnLW9tYWUnLCAnPG91dGZpbGUubWFlPic=

> <r_epik_Ionization_Penalty>
0.0130932

> <r_epik_Ionization_Penalty_Charging>
0

> <r_epik_Ionization_Penalty_Neutral>
0.0130932

> <r_epik_State_Penalty>
0.0101714

> <r_epik_Charging_Adjusted_Penalty>
0.0101714

> <i_epik_Tot_Q>
0

> <i_epik_Tot_abs_Q>
0

> <r_epik_Metal_State_Penalty>
0.00995082

> <b_epik_Metal_Only>
0

> <s_lp_Force_Field>
OPLS_2005

> <r_lp_Energy>
10.4335

> <b_lp_Chiralities_Consistent>
1

> <s_lp_Variant>
AV-unprocessed.smi:3045-2

> <Gold.Version>
5.8.1

> <Gold.Id.Protein>
6NUR|6NUR_protein|mol2

> <Gold.PLP.Fitness>
45.0790

> <Gold.PLP.PLP>
-40.6942

> <Gold.PLP.part.hbond>
-2.0000

> <Gold.PLP.part.metal>
0.0000

> <Gold.PLP.part.buried>
-1.0714

> <Gold.PLP.part.nonpolar>
-37.2138

> <Gold.PLP.part.repulsive>
0.7973

> <Gold.PLP.ligand.clash>
0.0000

> <Gold.PLP.ligand.torsion>
0.8148

> <Gold.PLP.Chemscore.Hbond>
2.0000

> <Gold.PLP.Chemscore.CHOScore>
0.0000

> <Gold.PLP.Chemscore.Metal>
0.0000

> <Gold.Chemscore.Hbonds>
donor molecule, donor type, donor heavy atom, donor atom, acceptor molecule, acceptor atom, score
      L1  H     7    25       P1  8028  1.00
      P1  H  7989  7998       L1     6  1.00

> <Gold.PLP.Chemscore.Internal.Correction>
0.0144

> <Gold.Rescore>
     Score         DG    S(hbond)    S(metal)    S(lipo)     H(rot)  DE(clash)    DE(int)     intcor
     17.45     -19.57       1.69        0.00     107.74       1.62       1.46       0.66       ----

> <Gold.Chemscore.Fitness>
17.4488

> <Gold.Chemscore.DG>
-19.5667

> <Gold.Chemscore.ZeroCoef>
-5.4800

> <Gold.Chemscore.Hbond>
1.6860

> <Gold.Chemscore.Metal>
0.0000

> <Gold.Chemscore.Lipo>
107.7365

> <Gold.Chemscore.Internal_Hbond>
0.0000

> <Gold.Chemscore.DEClash>
1.4587

> <Gold.Chemscore.DEInternal>
0.6592

> <Gold.Chemscore.Rot>
1.6210

> <Gold.Chemscore.Internal.Correction>
   9.000000E+99

> <Gold.Chemscore.Hbonds>
donor molecule, donor type, donor heavy atom, donor atom, acceptor molecule, acceptor atom, score
      L1  H     7    25       P1  8028  0.95
      P1  H  7989  7998       L1     6  0.62

> <Gold.Chemscore.Hbond.Weighted>
-5.6313

> <Gold.Chemscore.Metal.Weighted>
-0.0000

> <Gold.Chemscore.Lipo.Weighted>
-12.6052

> <Gold.Chemscore.Internal_Hbond.Weighted>
0.0000

> <Gold.Chemscore.DEClash.Weighted>
1.4587

> <Gold.Chemscore.DEInternal.Weighted>
0.6592

> <Gold.Chemscore.Rot.Weighted>
4.1498

> <Gold.Chemscore.Internal.Correction.Weighted>
   9.000000E+99

> <Gold.Protein.RotatedTorsions>
[ 6907 6896 6895 6894 ] final -157.25 input  -60.11 | X-H torsion
[ 7974 7965 7964 7962 ] final    4.93 input  175.53 | X-H torsion
[ 8008 7997 7996 7995 ] final  123.20 input   59.86 | X-H torsion
[ 10167 10162 10161 10158 ] final  135.48 input  -65.29 | X-H torsion
[ 10718 10713 10712 10709 ] final  -22.94 input   66.30 | X-H torsion
[ 10763 10752 10751 10750 ] final -155.22 input  -60.55 | X-H torsion
[ 11005 11000 10999 10996 ] final   48.46 input  -57.11 | X-H torsion

> <Gold.Protein.ActiveResidues>
 VAL166  LYS551  ARG553  GLY616  TRP617  ASP618  TYR619  PRO620  LYS621  CYS622 
 ASP623  PHE694  ASN695  SER759  ASP760  ASP761  ALA762  ILE779  LEU786  VAL792 
 PHE793  MET794  SER795  GLU796  ALA797  LYS798  CYS799  TRP800  GLU811  SER814 

> <Gold.Protein.RotatedAtoms>
  151.3000  133.4127  159.2638 H   0  0  0  0  0  0  0  0  0  0  0  0  # atno 6907 bound_to 6896
  151.0204  134.9465  159.8066 H   0  0  0  0  0  0  0  0  0  0  0  0  # atno 6908 bound_to 6896
  152.5323  134.2963  159.9114 H   0  0  0  0  0  0  0  0  0  0  0  0  # atno 6909 bound_to 6896
  146.2442  140.0460  142.8378 H   0  0  0  0  0  0  0  0  0  0  0  0  # atno 7974 bound_to 7965
  156.2757  140.2768  156.1589 H   0  0  0  0  0  0  0  0  0  0  0  0  # atno 8008 bound_to 7997
  155.0775  140.0387  157.2646 H   0  0  0  0  0  0  0  0  0  0  0  0  # atno 8009 bound_to 7997
  154.6991  140.2645  155.6743 H   0  0  0  0  0  0  0  0  0  0  0  0  # atno 8010 bound_to 7997
  139.5215  144.6514  151.5289 H   0  0  0  0  0  0  0  0  0  0  0  0  # atno 10167 bound_to 10162
  156.4977  130.4581  149.6719 H   0  0  0  0  0  0  0  0  0  0  0  0  # atno 10718 bound_to 10713
  154.7802  135.3172  154.8005 H   0  0  0  0  0  0  0  0  0  0  0  0  # atno 10763 bound_to 10752
  153.8718  135.6843  153.4778 H   0  0  0  0  0  0  0  0  0  0  0  0  # atno 10764 bound_to 10752
  153.1437  135.4728  154.9471 H   0  0  0  0  0  0  0  0  0  0  0  0  # atno 10765 bound_to 10752
  140.1189  134.4856  155.8614 H   0  0  0  0  0  0  0  0  0  0  0  0  # atno 11005 bound_to 11000
  145.1027  140.9356  143.4703 LP  0  0  0  0  0  0  0  0  0  0  0  0  # atno 17320 bound_to 7965
  145.0656  139.3071  143.5858 LP  0  0  0  0  0  0  0  0  0  0  0  0  # atno 17321 bound_to 7965
  140.6321  143.9055  150.6615 LP  0  0  0  0  0  0  0  0  0  0  0  0  # atno 17342 bound_to 10162
  140.2363  143.3698  152.1524 LP  0  0  0  0  0  0  0  0  0  0  0  0  # atno 17343 bound_to 10162
  156.3364  130.7358  151.2296 LP  0  0  0  0  0  0  0  0  0  0  0  0  # atno 17370 bound_to 10713
  157.7466  131.0416  150.4653 LP  0  0  0  0  0  0  0  0  0  0  0  0  # atno 17371 bound_to 10713
  141.2147  133.6753  156.6850 LP  0  0  0  0  0  0  0  0  0  0  0  0  # atno 17394 bound_to 11000
  140.2991  134.8178  157.4082 LP  0  0  0  0  0  0  0  0  0  0  0  0  # atno 17395 bound_to 11000

$$$$
