AV-unprocessed.smi:1586|AV-procd|sdf|6373|dock1
  -GOLD-   22720 7 03D 1   1.00000     0.00000
 Structure written by MMmdl.
 47 48  0  0  0  0  0  0  0  0  2 V2000
  145.7286  142.1912  156.8206 C   0  0  0  0  0  0  0  0  0  0  0  0
  147.0813  141.8113  157.4402 C   0  0  0  0  0  0  0  0  0  0  0  0
  148.2017  141.8991  156.4704 N   0  3  0  0  0  0  0  0  0  0  0  0
  148.0426  141.0075  155.2937 C   0  0  0  0  0  0  0  0  0  0  0  0
  149.2355  141.1753  154.3290 C   0  0  0  0  0  0  0  0  0  0  0  0
  150.5133  140.8419  154.9750 N   0  0  0  0  0  0  0  0  0  0  0  0
  150.6893  139.4229  155.3579 C   0  0  2  0  0  0  0  0  0  0  0  0
  151.6618  139.3063  156.5554 C   0  0  0  0  0  0  0  0  0  0  0  0
  151.1975  138.5585  154.1707 C   0  0  0  0  0  0  0  0  0  0  0  0
  150.4420  137.3191  154.0141 N   0  0  0  0  0  0  0  0  0  0  0  0
  150.6917  136.1861  154.6874 C   0  0  0  0  0  0  0  0  0  0  0  0
  151.6046  136.0733  155.5071 O   0  0  0  0  0  0  0  0  0  0  0  0
  149.8277  135.2131  154.3518 N   0  0  0  0  0  0  0  0  0  0  0  0
  149.7787  133.8903  154.8613 C   0  0  0  0  0  0  0  0  0  0  0  0
  149.5522  132.7844  153.9998 C   0  0  0  0  0  0  0  0  0  0  0  0
  149.5750  131.7185  154.8548 C   0  0  0  0  0  0  0  0  0  0  0  0
  149.4052  130.2518  154.6516 C   0  0  0  0  0  0  0  0  0  0  0  0
  149.7972  132.1383  156.1298 O   0  0  0  0  0  0  0  0  0  0  0  0
  149.9283  133.5320  156.1275 N   0  0  0  0  0  0  0  0  0  0  0  0
  150.6638  141.8007  156.0804 C   0  0  0  0  0  0  0  0  0  0  0  0
  149.5210  141.6802  157.1136 C   0  0  0  0  0  0  0  0  0  0  0  0
  144.9509  142.2100  157.5843 H   0  0  0  0  0  0  0  0  0  0  0  0
  145.4129  141.4785  156.0591 H   0  0  0  0  0  0  0  0  0  0  0  0
  145.7662  143.1806  156.3641 H   0  0  0  0  0  0  0  0  0  0  0  0
  147.2750  142.4965  158.2666 H   0  0  0  0  0  0  0  0  0  0  0  0
  147.0376  140.8103  157.8720 H   0  0  0  0  0  0  0  0  0  0  0  0
  147.9346  139.9702  155.6132 H   0  0  0  0  0  0  0  0  0  0  0  0
  147.1284  141.2626  154.7593 H   0  0  0  0  0  0  0  0  0  0  0  0
  149.0832  140.5988  153.4190 H   0  0  0  0  0  0  0  0  0  0  0  0
  149.2774  142.2115  153.9903 H   0  0  0  0  0  0  0  0  0  0  0  0
  149.7294  139.0168  155.6719 H   0  0  0  0  0  0  0  0  0  0  0  0
  151.8937  138.2679  156.7903 H   0  0  0  0  0  0  0  0  0  0  0  0
  151.2440  139.7241  157.4703 H   0  0  0  0  0  0  0  0  0  0  0  0
  152.6059  139.8121  156.3505 H   0  0  0  0  0  0  0  0  0  0  0  0
  151.1264  139.0815  153.2179 H   0  0  0  0  0  0  0  0  0  0  0  0
  152.2496  138.3072  154.3096 H   0  0  0  0  0  0  0  0  0  0  0  0
  149.6750  137.3301  153.3573 H   0  0  0  0  0  0  0  0  0  0  0  0
  149.1248  135.4447  153.6656 H   0  0  0  0  0  0  0  0  0  0  0  0
  149.3965  132.7717  152.9314 H   0  0  0  0  0  0  0  0  0  0  0  0
  149.6336  129.9729  153.6227 H   0  0  0  0  0  0  0  0  0  0  0  0
  148.3801  129.9493  154.8653 H   0  0  0  0  0  0  0  0  0  0  0  0
  150.0686  129.6885  155.3084 H   0  0  0  0  0  0  0  0  0  0  0  0
  151.6316  141.6974  156.5673 H   0  0  0  0  0  0  0  0  0  0  0  0
  150.6672  142.8101  155.6663 H   0  0  0  0  0  0  0  0  0  0  0  0
  149.6665  142.4313  157.8908 H   0  0  0  0  0  0  0  0  0  0  0  0
  149.5402  140.7124  157.6156 H   0  0  0  0  0  0  0  0  0  0  0  0
  148.2132  142.8463  156.1202 H   0  0  0  0  0  0  0  0  0  0  0  0
  1  2  1  0  0  0  0
  1 22  1  0  0  0  0
  1 23  1  0  0  0  0
  1 24  1  0  0  0  0
  2  3  1  0  0  0  0
  2 25  1  0  0  0  0
  2 26  1  0  0  0  0
  3 21  1  0  0  0  0
  3  4  1  0  0  0  0
  3 47  1  0  0  0  0
  4  5  1  0  0  0  0
  4 27  1  0  0  0  0
  4 28  1  0  0  0  0
  5  6  1  0  0  0  0
  5 29  1  0  0  0  0
  5 30  1  0  0  0  0
  6  7  1  0  0  0  0
  6 20  1  0  0  0  0
  7  8  1  0  0  0  0
  7  9  1  0  0  0  0
  7 31  1  0  0  0  0
  8 32  1  0  0  0  0
  8 33  1  0  0  0  0
  8 34  1  0  0  0  0
  9 10  1  0  0  0  0
  9 35  1  0  0  0  0
  9 36  1  0  0  0  0
 10 11  1  0  0  0  0
 10 37  1  0  0  0  0
 11 12  2  0  0  0  0
 11 13  1  0  0  0  0
 13 14  1  0  0  0  0
 13 38  1  0  0  0  0
 14 19  2  0  0  0  0
 14 15  1  0  0  0  0
 15 16  2  0  0  0  0
 15 39  1  0  0  0  0
 16 17  1  0  0  0  0
 16 18  1  0  0  0  0
 17 40  1  0  0  0  0
 17 41  1  0  0  0  0
 17 42  1  0  0  0  0
 18 19  1  0  0  0  0
 20 21  1  0  0  0  0
 20 43  1  0  0  0  0
 20 44  1  0  0  0  0
 21 45  1  0  0  0  0
 21 46  1  0  0  0  0
M  CHG  1   3   1
M  END
> <s_m_source_file>
AV-unprocessed.smi

> <i_m_source_file_index>
1586

> <i_lp_mmshare_version>
43012

> <i_f3d_flags>
0

> <s_epik_input>
W0NIM11bQ0gyXU4xW0NIMl1bQ0gyXU4oW0NIMl1bQ0gyXTEpW0NASF0oW0NIM10pW0NIMl1bTkhdQyg9TylbTkhdYzJbY0hdYyhbQ0gzXSlvbjI=

> <s_epik_cmdline>
J2VwaWtfcHl0aG9uJywgJy1waCcsICc3LjAnLCAnLXRuJywgJzgnLCAnLW1hJywgJzIwMCcsICctbWV0YWxfYmluZGluZycsICctaW1hZScsICc8aW5maWxlLm1hZT4nLCAnLW9tYWUnLCAnPG91dGZpbGUubWFlPic=

> <r_epik_Ionization_Penalty>
0.0459786

> <r_epik_Ionization_Penalty_Charging>
0.0453654

> <r_epik_Ionization_Penalty_Neutral>
0.000613264

> <r_epik_State_Penalty>
0.163057

> <r_epik_Charging_Adjusted_Penalty>
0.208422

> <i_epik_Tot_Q>
1

> <i_epik_Tot_abs_Q>
1

> <r_epik_Metal_State_Penalty>
0.17399

> <b_epik_Metal_Only>
0

> <s_lp_Force_Field>
OPLS_2005

> <r_lp_Energy>
17.9393

> <b_lp_Chiralities_Consistent>
1

> <s_lp_Variant>
AV-unprocessed.smi:1586-1

> <Gold.Version>
5.8.1

> <Gold.Id.Protein>
6NUR|6NUR_protein|mol2

> <Gold.PLP.Fitness>
46.4214

> <Gold.PLP.PLP>
-34.6911

> <Gold.PLP.part.hbond>
-6.0985

> <Gold.PLP.part.metal>
0.0000

> <Gold.PLP.part.buried>
-2.9693

> <Gold.PLP.part.nonpolar>
-24.9868

> <Gold.PLP.part.repulsive>
0.2765

> <Gold.PLP.ligand.clash>
0.7876

> <Gold.PLP.ligand.torsion>
1.8140

> <Gold.PLP.Chemscore.Hbond>
5.3520

> <Gold.PLP.Chemscore.CHOScore>
0.0000

> <Gold.PLP.Chemscore.Metal>
0.0000

> <Gold.Chemscore.Hbonds>
donor molecule, donor type, donor heavy atom, donor atom, acceptor molecule, acceptor atom, score
      L1  H     3    47       P1  8028  2.00
      L1  H    10    37       P1  7948  0.77
      L1  H    13    38       P1  7948  0.78
      P1  H  7989  7998       L1     6  0.78
      P1  H 10752 10763       L1    12  1.00

> <Gold.PLP.Chemscore.Internal.Correction>
0.0898

> <Gold.Rescore>
     Score         DG    S(hbond)    S(metal)    S(lipo)     H(rot)  DE(clash)    DE(int)     intcor
     16.91     -19.00       3.15        0.00      64.25       1.76       0.26       1.83       ----

> <Gold.Chemscore.Fitness>
16.9115

> <Gold.Chemscore.DG>
-18.9974

> <Gold.Chemscore.ZeroCoef>
-5.4800

> <Gold.Chemscore.Hbond>
3.1482

> <Gold.Chemscore.Metal>
0.0000

> <Gold.Chemscore.Lipo>
64.2524

> <Gold.Chemscore.Internal_Hbond>
0.0000

> <Gold.Chemscore.DEClash>
0.2605

> <Gold.Chemscore.DEInternal>
1.8255

> <Gold.Chemscore.Rot>
1.7637

> <Gold.Chemscore.Internal.Correction>
   9.000000E+99

> <Gold.Chemscore.Hbonds>
donor molecule, donor type, donor heavy atom, donor atom, acceptor molecule, acceptor atom, score
      L1  H     3    47       P1  8028  0.77
      L1  H    10    37       P1  7948  0.56
      L1  H    13    38       P1  7948  0.46
      P1  H  7989  7998       L1     6  0.04
      P1  H 10752 10763       L1    12  0.96

> <Gold.Chemscore.Hbond.Weighted>
-10.5149

> <Gold.Chemscore.Metal.Weighted>
-0.0000

> <Gold.Chemscore.Lipo.Weighted>
-7.5175

> <Gold.Chemscore.Internal_Hbond.Weighted>
0.0000

> <Gold.Chemscore.DEClash.Weighted>
0.2605

> <Gold.Chemscore.DEInternal.Weighted>
1.8255

> <Gold.Chemscore.Rot.Weighted>
4.5150

> <Gold.Chemscore.Internal.Correction.Weighted>
   9.000000E+99

> <Gold.Protein.RotatedTorsions>
[ 6907 6896 6895 6894 ] final  113.25 input  -60.11 | X-H torsion
[ 7974 7965 7964 7962 ] final  116.20 input  175.53 | X-H torsion
[ 8008 7997 7996 7995 ] final -147.04 input   59.86 | X-H torsion
[ 10167 10162 10161 10158 ] final  134.92 input  -65.29 | X-H torsion
[ 10718 10713 10712 10709 ] final -129.92 input   66.30 | X-H torsion
[ 10763 10752 10751 10750 ] final   85.45 input  -60.55 | X-H torsion
[ 11005 11000 10999 10996 ] final -166.84 input  -57.11 | X-H torsion

> <Gold.Protein.ActiveResidues>
 VAL166  LYS551  ARG553  GLY616  TRP617  ASP618  TYR619  PRO620  LYS621  CYS622 
 ASP623  PHE694  ASN695  SER759  ASP760  ASP761  ALA762  ILE779  LEU786  VAL792 
 PHE793  MET794  SER795  GLU796  ALA797  LYS798  CYS799  TRP800  GLU811  SER814 

> <Gold.Protein.RotatedAtoms>
  152.4871  133.8401  159.7147 H   0  0  0  0  0  0  0  0  0  0  0  0  # atno 6907 bound_to 6896
  150.8967  133.7162  159.2896 H   0  0  0  0  0  0  0  0  0  0  0  0  # atno 6908 bound_to 6896
  151.4617  135.1043  159.9779 H   0  0  0  0  0  0  0  0  0  0  0  0  # atno 6909 bound_to 6896
  145.1826  139.3042  143.4410 H   0  0  0  0  0  0  0  0  0  0  0  0  # atno 7974 bound_to 7965
  155.5692  140.0632  157.2810 H   0  0  0  0  0  0  0  0  0  0  0  0  # atno 8008 bound_to 7997
  154.4366  140.1872  156.0907 H   0  0  0  0  0  0  0  0  0  0  0  0  # atno 8009 bound_to 7997
  156.0389  140.3298  155.7225 H   0  0  0  0  0  0  0  0  0  0  0  0  # atno 8010 bound_to 7997
  139.5237  144.6543  151.5209 H   0  0  0  0  0  0  0  0  0  0  0  0  # atno 10167 bound_to 10162
  156.2094  130.6908  151.0632 H   0  0  0  0  0  0  0  0  0  0  0  0  # atno 10718 bound_to 10713
  153.1476  135.4617  154.9589 H   0  0  0  0  0  0  0  0  0  0  0  0  # atno 10763 bound_to 10752
  154.7799  135.3185  154.8015 H   0  0  0  0  0  0  0  0  0  0  0  0  # atno 10764 bound_to 10752
  153.8526  135.6920  153.4845 H   0  0  0  0  0  0  0  0  0  0  0  0  # atno 10765 bound_to 10752
  140.5599  134.5343  157.5141 H   0  0  0  0  0  0  0  0  0  0  0  0  # atno 11005 bound_to 11000
  146.3450  140.2010  142.8589 LP  0  0  0  0  0  0  0  0  0  0  0  0  # atno 17320 bound_to 7965
  145.0121  140.8723  143.5218 LP  0  0  0  0  0  0  0  0  0  0  0  0  # atno 17321 bound_to 7965
  140.6362  143.8980  150.6649 LP  0  0  0  0  0  0  0  0  0  0  0  0  # atno 17342 bound_to 10162
  140.2300  143.3743  152.1573 LP  0  0  0  0  0  0  0  0  0  0  0  0  # atno 17343 bound_to 10162
  157.7030  131.0768  150.6759 LP  0  0  0  0  0  0  0  0  0  0  0  0  # atno 17370 bound_to 10713
  156.6818  130.4569  149.5625 LP  0  0  0  0  0  0  0  0  0  0  0  0  # atno 17371 bound_to 10713
  139.9413  134.7782  156.0672 LP  0  0  0  0  0  0  0  0  0  0  0  0  # atno 17394 bound_to 11000
  141.1120  133.6640  156.3003 LP  0  0  0  0  0  0  0  0  0  0  0  0  # atno 17395 bound_to 11000

$$$$
