AV-unprocessed.smi:1464|AV-procd|sdf|5941|dock4
  -GOLD-   22720 6 23D 1   1.00000     0.00000
 Structure written by MMmdl.
 40 41  0  0  0  0  0  0  0  0  2 V2000
  150.3941  145.3835  160.7215 C   0  0  0  0  0  0  0  0  0  0  0  0
  151.0157  144.0299  160.3384 C   0  0  2  0  0  0  0  0  0  0  0  0
  152.4483  143.8816  160.8899 C   0  0  0  0  0  0  0  0  0  0  0  0
  153.0260  142.4895  160.5902 C   0  0  0  0  0  0  0  0  0  0  0  0
  152.9621  142.1624  159.0907 C   0  0  0  0  0  0  0  0  0  0  0  0
  151.5276  142.3075  158.5474 C   0  0  2  0  0  0  0  0  0  0  0  0
  151.4974  141.9532  157.1300 N   0  0  0  0  0  0  0  0  0  0  0  0
  151.8411  140.7614  156.6178 C   0  0  0  0  0  0  0  0  0  0  0  0
  152.2253  139.8179  157.3114 O   0  0  0  0  0  0  0  0  0  0  0  0
  151.7171  140.6351  155.0909 C   0  0  0  0  0  0  0  0  0  0  0  0
  150.3710  140.2726  154.6232 N   0  0  0  0  0  0  0  0  0  0  0  0
  149.3875  141.3422  154.7711 N   0  5  0  0  0  0  0  0  0  0  0  0
  148.0989  141.1126  154.4039 C   0  0  0  0  0  0  0  0  0  0  0  0
  147.2134  141.9571  154.5165 O   0  0  0  0  0  0  0  0  0  0  0  0
  147.7668  139.8103  153.8500 C   0  0  0  0  0  0  0  0  0  0  0  0
  148.7016  138.8515  153.6978 C   0  0  0  0  0  0  0  0  0  0  0  0
  150.0935  139.0517  154.0826 C   0  0  0  0  0  0  0  0  0  0  0  0
  150.9547  138.1836  153.9372 O   0  0  0  0  0  0  0  0  0  0  0  0
  150.9533  143.7262  158.8175 C   0  0  2  0  0  0  0  0  0  0  0  0
  151.6009  144.8233  157.9406 C   0  0  0  0  0  0  0  0  0  0  0  0
  150.9918  146.2212  160.3625 H   0  0  0  0  0  0  0  0  0  0  0  0
  150.3168  145.4819  161.8046 H   0  0  0  0  0  0  0  0  0  0  0  0
  149.3895  145.4860  160.3105 H   0  0  0  0  0  0  0  0  0  0  0  0
  150.4072  143.2708  160.8327 H   0  0  0  0  0  0  0  0  0  0  0  0
  153.0968  144.6484  160.4653 H   0  0  0  0  0  0  0  0  0  0  0  0
  152.4497  144.0464  161.9680 H   0  0  0  0  0  0  0  0  0  0  0  0
  154.0572  142.4313  160.9398 H   0  0  0  0  0  0  0  0  0  0  0  0
  152.4685  141.7369  161.1493 H   0  0  0  0  0  0  0  0  0  0  0  0
  153.6419  142.8166  158.5438 H   0  0  0  0  0  0  0  0  0  0  0  0
  153.3205  141.1452  158.9275 H   0  0  0  0  0  0  0  0  0  0  0  0
  150.9086  141.5837  159.0816 H   0  0  0  0  0  0  0  0  0  0  0  0
  151.1894  142.6694  156.4886 H   0  0  0  0  0  0  0  0  0  0  0  0
  152.0295  141.5817  154.6461 H   0  0  0  0  0  0  0  0  0  0  0  0
  152.4388  139.8961  154.7382 H   0  0  0  0  0  0  0  0  0  0  0  0
  146.7486  139.6084  153.5515 H   0  0  0  0  0  0  0  0  0  0  0  0
  148.4103  137.8995  153.2800 H   0  0  0  0  0  0  0  0  0  0  0  0
  149.8976  143.7033  158.5433 H   0  0  0  0  0  0  0  0  0  0  0  0
  152.6623  144.9457  158.1526 H   0  0  0  0  0  0  0  0  0  0  0  0
  151.1207  145.7895  158.0906 H   0  0  0  0  0  0  0  0  0  0  0  0
  151.5029  144.5965  156.8790 H   0  0  0  0  0  0  0  0  0  0  0  0
  1  2  1  0  0  0  0
  1 21  1  0  0  0  0
  1 22  1  0  0  0  0
  1 23  1  0  0  0  0
  2 19  1  0  0  0  0
  2  3  1  0  0  0  0
  2 24  1  0  0  0  0
  3  4  1  0  0  0  0
  3 25  1  0  0  0  0
  3 26  1  0  0  0  0
  4  5  1  0  0  0  0
  4 27  1  0  0  0  0
  4 28  1  0  0  0  0
  5  6  1  0  0  0  0
  5 29  1  0  0  0  0
  5 30  1  0  0  0  0
  6  7  1  0  0  0  0
  6 19  1  0  0  0  0
  6 31  1  0  0  0  0
  7  8  1  0  0  0  0
  7 32  1  0  0  0  0
  8  9  2  0  0  0  0
  8 10  1  0  0  0  0
 10 33  1  0  0  0  0
 10 34  1  0  0  0  0
 10 11  1  0  0  0  0
 11 12  1  0  0  0  0
 11 17  1  0  0  0  0
 12 13  1  0  0  0  0
 13 14  2  0  0  0  0
 13 15  1  0  0  0  0
 15 35  1  0  0  0  0
 15 16  2  0  0  0  0
 16 36  1  0  0  0  0
 16 17  1  0  0  0  0
 17 18  2  0  0  0  0
 19 20  1  0  0  0  0
 19 37  1  0  0  0  0
 20 38  1  0  0  0  0
 20 39  1  0  0  0  0
 20 40  1  0  0  0  0
M  CHG  1  12  -1
M  END
> <s_m_source_file>
AV-unprocessed.smi

> <i_m_source_file_index>
1464

> <i_lp_mmshare_version>
43012

> <i_f3d_flags>
0

> <s_epik_input>
W0NIM11bQ0BASF0xW0NIMl1bQ0gyXVtDSDJdW0NASF0oW0NASF0xW0NIM10pW05IXUMoPU8pW0NIMl1uMltuSF1jKD1PKVtjSF1bY0hdYzI9Tw==

> <s_epik_cmdline>
J2VwaWtfcHl0aG9uJywgJy1waCcsICc3LjAnLCAnLXRuJywgJzgnLCAnLW1hJywgJzIwMCcsICctbWV0YWxfYmluZGluZycsICctaW1hZScsICc8aW5maWxlLm1hZT4nLCAnLW9tYWUnLCAnPG91dGZpbGUubWFlPic=

> <r_lp_tautomer_probability>
1

> <r_epik_Ionization_Penalty>
0.101366

> <r_epik_Ionization_Penalty_Charging>
0.101366

> <r_epik_Ionization_Penalty_Neutral>
1.90469e-08

> <r_epik_State_Penalty>
0.035861

> <r_epik_Charging_Adjusted_Penalty>
0.137227

> <i_epik_Tot_Q>
-1

> <i_epik_Tot_abs_Q>
1

> <r_epik_Metal_State_Penalty>
0.035861

> <b_epik_Metal_Only>
0

> <s_lp_Force_Field>
OPLS_2005

> <r_lp_Energy>
29.9934

> <b_lp_Chiralities_Consistent>
1

> <s_lp_Variant>
AV-unprocessed.smi:1464-7

> <Gold.Version>
5.8.1

> <Gold.Id.Protein>
6NUR|6NUR_protein|mol2

> <Gold.PLP.Fitness>
40.4432

> <Gold.PLP.PLP>
-41.3602

> <Gold.PLP.part.hbond>
-2.0000

> <Gold.PLP.part.metal>
0.0000

> <Gold.PLP.part.buried>
-2.8393

> <Gold.PLP.part.nonpolar>
-37.8361

> <Gold.PLP.part.repulsive>
1.4564

> <Gold.PLP.ligand.clash>
0.0000

> <Gold.PLP.ligand.torsion>
0.4655

> <Gold.PLP.Chemscore.Hbond>
0.0000

> <Gold.PLP.Chemscore.CHOScore>
0.0000

> <Gold.PLP.Chemscore.Metal>
0.0000

> <Gold.Chemscore.Hbonds>
donor molecule, donor type, donor heavy atom, donor atom, acceptor molecule, acceptor atom, score
      P1  H  7997  8010       L1     9  0.02

> <Gold.PLP.Chemscore.Internal.Correction>
0.0139

> <Gold.Rescore>
     Score         DG    S(hbond)    S(metal)    S(lipo)     H(rot)  DE(clash)    DE(int)     intcor
     13.12     -16.13       0.72        0.00     106.27       1.64       2.19       0.82       ----

> <Gold.Chemscore.Fitness>
13.1180

> <Gold.Chemscore.DG>
-16.1252

> <Gold.Chemscore.ZeroCoef>
-5.4800

> <Gold.Chemscore.Hbond>
0.7244

> <Gold.Chemscore.Metal>
0.0000

> <Gold.Chemscore.Lipo>
106.2703

> <Gold.Chemscore.Internal_Hbond>
0.0000

> <Gold.Chemscore.DEClash>
2.1864

> <Gold.Chemscore.DEInternal>
0.8209

> <Gold.Chemscore.Rot>
1.6438

> <Gold.Chemscore.Internal.Correction>
   9.000000E+99

> <Gold.Chemscore.Hbond.Weighted>
-2.4196

> <Gold.Chemscore.Metal.Weighted>
-0.0000

> <Gold.Chemscore.Lipo.Weighted>
-12.4336

> <Gold.Chemscore.Internal_Hbond.Weighted>
0.0000

> <Gold.Chemscore.DEClash.Weighted>
2.1864

> <Gold.Chemscore.DEInternal.Weighted>
0.8209

> <Gold.Chemscore.Rot.Weighted>
4.2080

> <Gold.Chemscore.Internal.Correction.Weighted>
   9.000000E+99

> <Gold.Protein.RotatedTorsions>
[ 6907 6896 6895 6894 ] final  -55.16 input  -60.11 | X-H torsion
[ 7974 7965 7964 7962 ] final    2.11 input  175.53 | X-H torsion
[ 8008 7997 7996 7995 ] final   85.07 input   59.86 | X-H torsion
[ 10167 10162 10161 10158 ] final   75.89 input  -65.29 | X-H torsion
[ 10718 10713 10712 10709 ] final -156.04 input   66.30 | X-H torsion
[ 10763 10752 10751 10750 ] final  118.65 input  -60.55 | X-H torsion
[ 11005 11000 10999 10996 ] final   40.69 input  -57.11 | X-H torsion

> <Gold.Protein.ActiveResidues>
 VAL166  LYS551  ARG553  GLY616  TRP617  ASP618  TYR619  PRO620  LYS621  CYS622 
 ASP623  PHE694  ASN695  SER759  ASP760  ASP761  ALA762  ILE779  LEU786  VAL792 
 PHE793  MET794  SER795  GLU796  ALA797  LYS798  CYS799  TRP800  GLU811  SER814 

> <Gold.Protein.RotatedAtoms>
  150.8275  134.7513  159.6824 H   0  0  0  0  0  0  0  0  0  0  0  0  # atno 6907 bound_to 6896
  152.4384  134.5637  159.9911 H   0  0  0  0  0  0  0  0  0  0  0  0  # atno 6908 bound_to 6896
  151.5806  133.3340  159.3043 H   0  0  0  0  0  0  0  0  0  0  0  0  # atno 6909 bound_to 6896
  146.2443  140.0886  142.8353 H   0  0  0  0  0  0  0  0  0  0  0  0  # atno 7974 bound_to 7965
  155.9453  140.3405  155.6361 H   0  0  0  0  0  0  0  0  0  0  0  0  # atno 8008 bound_to 7997
  155.6989  140.0758  157.2437 H   0  0  0  0  0  0  0  0  0  0  0  0  # atno 8009 bound_to 7997
  154.4110  140.1643  156.2156 H   0  0  0  0  0  0  0  0  0  0  0  0  # atno 8010 bound_to 7997
  139.9981  144.5707  150.7761 H   0  0  0  0  0  0  0  0  0  0  0  0  # atno 10167 bound_to 10162
  156.5211  130.8478  151.2682 H   0  0  0  0  0  0  0  0  0  0  0  0  # atno 10718 bound_to 10713
  153.5710  135.3502  155.2837 H   0  0  0  0  0  0  0  0  0  0  0  0  # atno 10763 bound_to 10752
  154.8682  135.4159  154.2725 H   0  0  0  0  0  0  0  0  0  0  0  0  # atno 10764 bound_to 10752
  153.3491  135.7054  153.6873 H   0  0  0  0  0  0  0  0  0  0  0  0  # atno 10765 bound_to 10752
  140.1906  134.3991  155.8149 H   0  0  0  0  0  0  0  0  0  0  0  0  # atno 11005 bound_to 11000
  145.0670  140.9128  143.4904 LP  0  0  0  0  0  0  0  0  0  0  0  0  # atno 17320 bound_to 7965
  145.1012  139.2821  143.5685 LP  0  0  0  0  0  0  0  0  0  0  0  0  # atno 17321 bound_to 7965
  140.7429  143.2839  151.3519 LP  0  0  0  0  0  0  0  0  0  0  0  0  # atno 17342 bound_to 10162
  139.6291  144.0755  152.2461 LP  0  0  0  0  0  0  0  0  0  0  0  0  # atno 17343 bound_to 10162
  157.7436  130.9917  150.2609 LP  0  0  0  0  0  0  0  0  0  0  0  0  # atno 17370 bound_to 10713
  156.3148  130.3777  149.7628 LP  0  0  0  0  0  0  0  0  0  0  0  0  # atno 17371 bound_to 10713
  141.2226  133.7044  156.8088 LP  0  0  0  0  0  0  0  0  0  0  0  0  # atno 17394 bound_to 11000
  140.2164  134.8789  157.3330 LP  0  0  0  0  0  0  0  0  0  0  0  0  # atno 17395 bound_to 11000

$$$$
