AV-unprocessed.smi:1323|AV-procd|sdf|5467|dock1
  -GOLD-   22720 5 33D 1   1.00000     0.00000
 Structure written by MMmdl.
 45 46  0  0  0  0  0  0  0  0  1 V2000
  151.0232  137.5964  154.9802 C   0  0  0  0  0  0  0  0  0  0  0  0
  150.9639  139.0680  155.4157 C   0  0  2  0  0  0  0  0  0  0  0  0
  150.9712  139.2118  156.9509 C   0  0  0  0  0  0  0  0  0  0  0  0
  150.9802  140.6879  157.3777 C   0  0  0  0  0  0  0  0  0  0  0  0
  149.8004  141.4540  156.7610 C   0  0  0  0  0  0  0  0  0  0  0  0
  149.7769  141.3080  155.2297 C   0  0  0  0  0  0  0  0  0  0  0  0
  149.7699  139.8313  154.7934 C   0  0  2  0  0  0  0  0  0  0  0  0
  148.5431  139.2636  155.2348 O   0  0  0  0  0  0  0  0  0  0  0  0
  147.3766  139.9557  154.8189 C   0  0  0  0  0  0  0  0  0  0  0  0
  147.1654  139.7226  153.3160 C   0  0  0  0  0  0  0  0  0  0  0  0
  145.9219  139.0050  153.0521 N   0  0  0  0  0  0  0  0  0  0  0  0
  145.6711  137.7339  153.4031 C   0  0  0  0  0  0  0  0  0  0  0  0
  146.4764  137.0318  154.0162 O   0  0  0  0  0  0  0  0  0  0  0  0
  144.2878  137.1884  153.0213 C   0  0  0  0  0  0  0  0  0  0  0  0
  144.3360  135.8176  152.4858 N   0  0  0  0  0  0  0  0  0  0  0  0
  145.5620  135.3867  151.9402 C   0  0  0  0  0  0  0  0  0  0  0  0
  145.7127  134.1624  151.4108 C   0  0  0  0  0  0  0  0  0  0  0  0
  144.5736  133.2752  151.4079 C   0  0  0  0  0  0  0  0  0  0  0  0
  143.3967  133.6768  151.9280 C   0  0  0  0  0  0  0  0  0  0  0  0
  143.2298  135.0121  152.5131 C   0  0  0  0  0  0  0  0  0  0  0  0
  142.1608  135.3811  152.9989 O   0  0  0  0  0  0  0  0  0  0  0  0
  150.1583  137.0387  155.3389 H   0  0  0  0  0  0  0  0  0  0  0  0
  151.9150  137.1078  155.3734 H   0  0  0  0  0  0  0  0  0  0  0  0
  151.0511  137.5089  153.8940 H   0  0  0  0  0  0  0  0  0  0  0  0
  151.8751  139.5378  155.0428 H   0  0  0  0  0  0  0  0  0  0  0  0
  150.0963  138.7176  157.3739 H   0  0  0  0  0  0  0  0  0  0  0  0
  151.8412  138.7060  157.3706 H   0  0  0  0  0  0  0  0  0  0  0  0
  150.9415  140.7597  158.4649 H   0  0  0  0  0  0  0  0  0  0  0  0
  151.9180  141.1516  157.0700 H   0  0  0  0  0  0  0  0  0  0  0  0
  148.8650  141.0805  157.1800 H   0  0  0  0  0  0  0  0  0  0  0  0
  149.8593  142.5081  157.0327 H   0  0  0  0  0  0  0  0  0  0  0  0
  148.9056  141.8211  154.8211 H   0  0  0  0  0  0  0  0  0  0  0  0
  150.6511  141.8050  154.8074 H   0  0  0  0  0  0  0  0  0  0  0  0
  149.8422  139.7997  153.7043 H   0  0  0  0  0  0  0  0  0  0  0  0
  146.5203  139.5774  155.3786 H   0  0  0  0  0  0  0  0  0  0  0  0
  147.4530  141.0236  155.0266 H   0  0  0  0  0  0  0  0  0  0  0  0
  147.1955  140.6677  152.7711 H   0  0  0  0  0  0  0  0  0  0  0  0
  147.9832  139.1166  152.9261 H   0  0  0  0  0  0  0  0  0  0  0  0
  145.2015  139.5098  152.5566 H   0  0  0  0  0  0  0  0  0  0  0  0
  143.6531  137.2237  153.9079 H   0  0  0  0  0  0  0  0  0  0  0  0
  143.8140  137.8633  152.3058 H   0  0  0  0  0  0  0  0  0  0  0  0
  146.3604  136.1139  151.9735 H   0  0  0  0  0  0  0  0  0  0  0  0
  146.6592  133.8514  150.9937 H   0  0  0  0  0  0  0  0  0  0  0  0
  144.6650  132.2858  150.9845 H   0  0  0  0  0  0  0  0  0  0  0  0
  142.5545  133.0007  151.9150 H   0  0  0  0  0  0  0  0  0  0  0  0
  1  2  1  0  0  0  0
  1 22  1  0  0  0  0
  1 23  1  0  0  0  0
  1 24  1  0  0  0  0
  2  7  1  0  0  0  0
  2  3  1  0  0  0  0
  2 25  1  0  0  0  0
  3  4  1  0  0  0  0
  3 26  1  0  0  0  0
  3 27  1  0  0  0  0
  4  5  1  0  0  0  0
  4 28  1  0  0  0  0
  4 29  1  0  0  0  0
  5  6  1  0  0  0  0
  5 30  1  0  0  0  0
  5 31  1  0  0  0  0
  6  7  1  0  0  0  0
  6 32  1  0  0  0  0
  6 33  1  0  0  0  0
  7  8  1  0  0  0  0
  7 34  1  0  0  0  0
  8  9  1  0  0  0  0
  9 10  1  0  0  0  0
  9 35  1  0  0  0  0
  9 36  1  0  0  0  0
 10 11  1  0  0  0  0
 10 37  1  0  0  0  0
 10 38  1  0  0  0  0
 11 12  1  0  0  0  0
 11 39  1  0  0  0  0
 12 13  2  0  0  0  0
 12 14  1  0  0  0  0
 14 15  1  0  0  0  0
 14 40  1  0  0  0  0
 14 41  1  0  0  0  0
 15 20  1  0  0  0  0
 15 16  1  0  0  0  0
 16 17  2  0  0  0  0
 16 42  1  0  0  0  0
 17 18  1  0  0  0  0
 17 43  1  0  0  0  0
 18 19  2  0  0  0  0
 18 44  1  0  0  0  0
 19 20  1  0  0  0  0
 19 45  1  0  0  0  0
 20 21  2  0  0  0  0
M  END
> <s_m_source_file>
AV-unprocessed.smi

> <i_m_source_file_index>
1323

> <i_lp_mmshare_version>
43012

> <i_f3d_flags>
0

> <s_epik_input>
W0NIM11bQ0BASF0xW0NIMl1bQ0gyXVtDSDJdW0NIMl1bQ0BIXTFPW0NIMl1bQ0gyXVtOSF1DKD1PKVtDSDJdbjJbY0hdW2NIXVtjSF1bY0hdYzI9Tw==

> <s_epik_cmdline>
J2VwaWtfcHl0aG9uJywgJy1waCcsICc3LjAnLCAnLXRuJywgJzgnLCAnLW1hJywgJzIwMCcsICctbWV0YWxfYmluZGluZycsICctaW1hZScsICc8aW5maWxlLm1hZT4nLCAnLW9tYWUnLCAnPG91dGZpbGUubWFlPic=

> <r_lp_tautomer_probability>
1

> <r_epik_Ionization_Penalty>
4.02412e-07

> <r_epik_Ionization_Penalty_Charging>
3.74552e-07

> <r_epik_Ionization_Penalty_Neutral>
2.78599e-08

> <r_epik_State_Penalty>
-0

> <r_epik_Charging_Adjusted_Penalty>
3.74552e-07

> <i_epik_Tot_Q>
0

> <i_epik_Tot_abs_Q>
0

> <r_epik_Metal_State_Penalty>
-0

> <b_epik_Metal_Only>
0

> <s_lp_Force_Field>
OPLS_2005

> <r_lp_Energy>
19.1209

> <b_lp_Chiralities_Consistent>
1

> <s_lp_Variant>
AV-unprocessed.smi:1323-3

> <Gold.Version>
5.8.1

> <Gold.Id.Protein>
6NUR|6NUR_protein|mol2

> <Gold.PLP.Fitness>
40.1565

> <Gold.PLP.PLP>
-36.0411

> <Gold.PLP.part.hbond>
-1.0000

> <Gold.PLP.part.metal>
0.0000

> <Gold.PLP.part.buried>
-3.1615

> <Gold.PLP.part.nonpolar>
-32.1471

> <Gold.PLP.part.repulsive>
0.5772

> <Gold.PLP.ligand.clash>
0.0000

> <Gold.PLP.ligand.torsion>
0.9872

> <Gold.PLP.Chemscore.Hbond>
1.0000

> <Gold.PLP.Chemscore.CHOScore>
0.9948

> <Gold.PLP.Chemscore.Metal>
0.0000

> <Gold.Chemscore.Hbonds>
donor molecule, donor type, donor heavy atom, donor atom, acceptor molecule, acceptor atom, score
      L1  H    11    39       P1 10175  1.00
      L1  C    16    42       P1  7948  0.89

> <Gold.PLP.Chemscore.Internal.Correction>
0.1053

> <Gold.Rescore>
     Score         DG    S(hbond)    S(metal)    S(lipo)     H(rot)  DE(clash)    DE(int)     intcor
     11.78     -13.99       0.99        0.00      87.00       1.94       0.09       2.12       ----

> <Gold.Chemscore.Fitness>
11.7767

> <Gold.Chemscore.DG>
-13.9902

> <Gold.Chemscore.ZeroCoef>
-5.4800

> <Gold.Chemscore.Hbond>
0.9873

> <Gold.Chemscore.Metal>
0.0000

> <Gold.Chemscore.Lipo>
86.9963

> <Gold.Chemscore.Internal_Hbond>
0.0000

> <Gold.Chemscore.DEClash>
0.0896

> <Gold.Chemscore.DEInternal>
2.1238

> <Gold.Chemscore.Rot>
1.9398

> <Gold.Chemscore.Internal.Correction>
   9.000000E+99

> <Gold.Chemscore.Hbonds>
donor molecule, donor type, donor heavy atom, donor atom, acceptor molecule, acceptor atom, score
      L1  H    11    39       P1 10175  0.98

> <Gold.Chemscore.Hbond.Weighted>
-3.2976

> <Gold.Chemscore.Metal.Weighted>
-0.0000

> <Gold.Chemscore.Lipo.Weighted>
-10.1786

> <Gold.Chemscore.Internal_Hbond.Weighted>
0.0000

> <Gold.Chemscore.DEClash.Weighted>
0.0896

> <Gold.Chemscore.DEInternal.Weighted>
2.1238

> <Gold.Chemscore.Rot.Weighted>
4.9659

> <Gold.Chemscore.Internal.Correction.Weighted>
   9.000000E+99

> <Gold.Protein.RotatedTorsions>
[ 6907 6896 6895 6894 ] final -174.86 input  -60.11 | X-H torsion
[ 7974 7965 7964 7962 ] final   47.61 input  175.53 | X-H torsion
[ 8008 7997 7996 7995 ] final  -25.58 input   59.86 | X-H torsion
[ 10167 10162 10161 10158 ] final  110.97 input  -65.29 | X-H torsion
[ 10718 10713 10712 10709 ] final  173.80 input   66.30 | X-H torsion
[ 10763 10752 10751 10750 ] final  116.86 input  -60.55 | X-H torsion
[ 11005 11000 10999 10996 ] final  130.34 input  -57.11 | X-H torsion

> <Gold.Protein.ActiveResidues>
 VAL166  LYS551  ARG553  GLY616  TRP617  ASP618  TYR619  PRO620  LYS621  CYS622 
 ASP623  PHE694  ASN695  SER759  ASP760  ASP761  ALA762  ILE779  LEU786  VAL792 
 PHE793  MET794  SER795  GLU796  ALA797  LYS798  CYS799  TRP800  GLU811  SER814 

> <Gold.Protein.RotatedAtoms>
  151.5792  133.3380  159.3004 H   0  0  0  0  0  0  0  0  0  0  0  0  # atno 6907 bound_to 6896
  150.8323  134.7585  159.6875 H   0  0  0  0  0  0  0  0  0  0  0  0  # atno 6908 bound_to 6896
  152.4405  134.5607  159.9945 H   0  0  0  0  0  0  0  0  0  0  0  0  # atno 6909 bound_to 6896
  146.0282  139.4731  142.9855 H   0  0  0  0  0  0  0  0  0  0  0  0  # atno 7974 bound_to 7965
  154.4468  140.1922  156.0642 H   0  0  0  0  0  0  0  0  0  0  0  0  # atno 8008 bound_to 7997
  156.0560  140.3303  155.7379 H   0  0  0  0  0  0  0  0  0  0  0  0  # atno 8009 bound_to 7997
  155.5485  140.0593  157.2846 H   0  0  0  0  0  0  0  0  0  0  0  0  # atno 8010 bound_to 7997
  139.6647  144.7128  151.1799 H   0  0  0  0  0  0  0  0  0  0  0  0  # atno 10167 bound_to 10162
  156.9590  131.0055  151.2932 H   0  0  0  0  0  0  0  0  0  0  0  0  # atno 10718 bound_to 10713
  153.5436  135.3554  155.2729 H   0  0  0  0  0  0  0  0  0  0  0  0  # atno 10763 bound_to 10752
  154.8714  135.4097  154.3016 H   0  0  0  0  0  0  0  0  0  0  0  0  # atno 10764 bound_to 10752
  153.3728  135.7065  153.6693 H   0  0  0  0  0  0  0  0  0  0  0  0  # atno 10765 bound_to 10752
  139.9666  134.9589  156.9279 H   0  0  0  0  0  0  0  0  0  0  0  0  # atno 11005 bound_to 11000
  145.7084  141.0114  143.1466 LP  0  0  0  0  0  0  0  0  0  0  0  0  # atno 17320 bound_to 7965
  144.7018  139.8728  143.7442 LP  0  0  0  0  0  0  0  0  0  0  0  0  # atno 17321 bound_to 7965
  140.7594  143.5938  150.8769 LP  0  0  0  0  0  0  0  0  0  0  0  0  # atno 17342 bound_to 10162
  139.9599  143.6176  152.3005 LP  0  0  0  0  0  0  0  0  0  0  0  0  # atno 17343 bound_to 10162
  157.5671  130.8285  149.8341 LP  0  0  0  0  0  0  0  0  0  0  0  0  # atno 17370 bound_to 10713
  156.0330  130.3759  150.1635 LP  0  0  0  0  0  0  0  0  0  0  0  0  # atno 17371 bound_to 10713
  140.5383  134.0745  155.7334 LP  0  0  0  0  0  0  0  0  0  0  0  0  # atno 17394 bound_to 11000
  141.1346  133.9244  157.2462 LP  0  0  0  0  0  0  0  0  0  0  0  0  # atno 17395 bound_to 11000

$$$$
