AV-unprocessed.smi:1000|AV-procd|sdf|4356|dock6
  -GOLD-   22720 2253D 1   1.00000     0.00000
 Structure written by MMmdl.
 40 41  0  0  0  0  0  0  0  0  1 V2000
  149.9187  141.6832  154.9548 C   0  0  0  0  0  0  0  0  0  0  0  0
  150.4412  140.7995  156.4999 S   0  0  1  0  0  0  0  0  0  0  0  0
  149.3887  139.7251  156.7811 O   0  0  0  0  0  0  0  0  0  0  0  0
  151.8144  139.8946  155.7026 C   0  0  0  0  0  0  0  0  0  0  0  0
  152.2383  140.1302  154.4574 N   0  0  0  0  0  0  0  0  0  0  0  0
  153.2761  139.2389  154.2596 N   0  0  0  0  0  0  0  0  0  0  0  0
  153.3662  138.5632  155.4068 C   0  0  0  0  0  0  0  0  0  0  0  0
  152.4844  138.9241  156.3525 N   0  0  0  0  0  0  0  0  0  0  0  0
  152.3188  138.3924  157.6935 C   0  0  0  0  0  0  0  0  0  0  0  0
  153.4525  138.8532  158.6090 C   0  0  0  0  0  0  0  0  0  0  0  0
  154.6112  138.8525  158.1954 O   0  0  0  0  0  0  0  0  0  0  0  0
  153.1029  139.2409  159.8458 N   0  0  0  0  0  0  0  0  0  0  0  0
  154.0188  139.7088  160.8826 C   0  0  0  0  0  0  0  0  0  0  0  0
  154.6626  141.0598  160.5167 C   0  0  0  0  0  0  0  0  0  0  0  0
  153.6856  142.2251  160.5294 C   0  0  0  0  0  0  0  0  0  0  0  0
  153.0572  142.6158  161.6555 C   0  0  0  0  0  0  0  0  0  0  0  0
  152.1070  143.7970  161.7348 C   0  0  0  0  0  0  0  0  0  0  0  0
  152.2079  144.7093  160.5012 C   0  0  0  0  0  0  0  0  0  0  0  0
  152.2613  143.8849  159.2091 C   0  0  0  0  0  0  0  0  0  0  0  0
  153.4746  142.9380  159.1979 C   0  0  0  0  0  0  0  0  0  0  0  0
  150.7535  141.7976  154.2631 H   0  0  0  0  0  0  0  0  0  0  0  0
  149.5422  142.6753  155.2031 H   0  0  0  0  0  0  0  0  0  0  0  0
  149.1259  141.1279  154.4533 H   0  0  0  0  0  0  0  0  0  0  0  0
  154.0963  137.7822  155.5604 H   0  0  0  0  0  0  0  0  0  0  0  0
  151.3570  138.7200  158.0904 H   0  0  0  0  0  0  0  0  0  0  0  0
  152.2897  137.3031  157.6481 H   0  0  0  0  0  0  0  0  0  0  0  0
  152.1241  139.2061  160.0911 H   0  0  0  0  0  0  0  0  0  0  0  0
  153.5248  139.7586  161.8541 H   0  0  0  0  0  0  0  0  0  0  0  0
  154.8026  138.9581  160.9852 H   0  0  0  0  0  0  0  0  0  0  0  0
  155.4688  141.2832  161.2159 H   0  0  0  0  0  0  0  0  0  0  0  0
  155.1306  140.9836  159.5341 H   0  0  0  0  0  0  0  0  0  0  0  0
  153.2227  142.0774  162.5772 H   0  0  0  0  0  0  0  0  0  0  0  0
  151.0929  143.4097  161.8378 H   0  0  0  0  0  0  0  0  0  0  0  0
  152.3219  144.3704  162.6369 H   0  0  0  0  0  0  0  0  0  0  0  0
  151.3651  145.4008  160.4776 H   0  0  0  0  0  0  0  0  0  0  0  0
  153.1087  145.3207  160.5722 H   0  0  0  0  0  0  0  0  0  0  0  0
  151.3437  143.3019  159.1194 H   0  0  0  0  0  0  0  0  0  0  0  0
  152.2949  144.5423  158.3399 H   0  0  0  0  0  0  0  0  0  0  0  0
  154.3767  143.5028  158.9636 H   0  0  0  0  0  0  0  0  0  0  0  0
  153.3514  142.2006  158.4041 H   0  0  0  0  0  0  0  0  0  0  0  0
  1  2  1  0  0  0  0
  1 21  1  0  0  0  0
  1 22  1  0  0  0  0
  1 23  1  0  0  0  0
  2  3  2  0  0  0  0
  2  4  1  0  0  0  0
  4  8  1  0  0  0  0
  4  5  2  0  0  0  0
  5  6  1  0  0  0  0
  6  7  2  0  0  0  0
  7  8  1  0  0  0  0
  7 24  1  0  0  0  0
  8  9  1  0  0  0  0
  9 10  1  0  0  0  0
  9 25  1  0  0  0  0
  9 26  1  0  0  0  0
 10 11  2  0  0  0  0
 10 12  1  0  0  0  0
 12 13  1  0  0  0  0
 12 27  1  0  0  0  0
 13 14  1  0  0  0  0
 13 28  1  0  0  0  0
 13 29  1  0  0  0  0
 14 15  1  0  0  0  0
 14 30  1  0  0  0  0
 14 31  1  0  0  0  0
 15 20  1  0  0  0  0
 15 16  2  0  0  0  0
 16 17  1  0  0  0  0
 16 32  1  0  0  0  0
 17 18  1  0  0  0  0
 17 33  1  0  0  0  0
 17 34  1  0  0  0  0
 18 19  1  0  0  0  0
 18 35  1  0  0  0  0
 18 36  1  0  0  0  0
 19 20  1  0  0  0  0
 19 37  1  0  0  0  0
 19 38  1  0  0  0  0
 20 39  1  0  0  0  0
 20 40  1  0  0  0  0
M  END
> <s_m_source_file>
AV-unprocessed.smi

> <i_m_source_file_index>
1000

> <i_lp_mmshare_version>
43012

> <i_f3d_flags>
0

> <s_epik_input>
W0NIM11bU0BdKD1PKWMxbm5bY0hdbjFbQ0gyXUMoPU8pW05IXVtDSDJdW0NIMl1DMj1bQ0hdW0NIMl1bQ0gyXVtDSDJdW0NIMl0y

> <s_epik_cmdline>
J2VwaWtfcHl0aG9uJywgJy1waCcsICc3LjAnLCAnLXRuJywgJzgnLCAnLW1hJywgJzIwMCcsICctbWV0YWxfYmluZGluZycsICctaW1hZScsICc8aW5maWxlLm1hZT4nLCAnLW9tYWUnLCAnPG91dGZpbGUubWFlPic=

> <r_lp_tautomer_probability>
1

> <r_epik_Ionization_Penalty>
9.22166e-08

> <r_epik_Ionization_Penalty_Charging>
0

> <r_epik_Ionization_Penalty_Neutral>
9.22166e-08

> <r_epik_State_Penalty>
-0

> <r_epik_Charging_Adjusted_Penalty>
0

> <i_epik_Tot_Q>
0

> <i_epik_Tot_abs_Q>
0

> <r_epik_Metal_State_Penalty>
-0

> <b_epik_Metal_Only>
0

> <s_lp_Force_Field>
OPLS_2005

> <r_lp_Energy>
7.40605

> <b_lp_Chiralities_Consistent>
1

> <s_lp_Variant>
AV-unprocessed.smi:1000-2

> <Gold.Version>
5.8.1

> <Gold.Id.Protein>
6NUR|6NUR_protein|mol2

> <Gold.PLP.Fitness>
46.2125

> <Gold.PLP.PLP>
-41.2211

> <Gold.PLP.part.hbond>
-2.8543

> <Gold.PLP.part.metal>
0.0000

> <Gold.PLP.part.buried>
-3.7348

> <Gold.PLP.part.nonpolar>
-35.9388

> <Gold.PLP.part.repulsive>
0.2179

> <Gold.PLP.ligand.clash>
0.0000

> <Gold.PLP.ligand.torsion>
1.0442

> <Gold.PLP.Chemscore.Hbond>
2.0000

> <Gold.PLP.Chemscore.CHOScore>
0.0000

> <Gold.PLP.Chemscore.Metal>
0.0000

> <Gold.Chemscore.Hbonds>
donor molecule, donor type, donor heavy atom, donor atom, acceptor molecule, acceptor atom, score
      P1  H  7989  7998       L1     5  0.30
      P1  H  7997  8010       L1    11  0.98

> <Gold.PLP.Chemscore.Internal.Correction>
1.0797

> <Gold.Rescore>
     Score         DG    S(hbond)    S(metal)    S(lipo)     H(rot)  DE(clash)    DE(int)     intcor
     16.04     -18.11       1.90        0.00     103.18       2.26       0.03       2.03       ----

> <Gold.Chemscore.Fitness>
16.0374

> <Gold.Chemscore.DG>
-18.1055

> <Gold.Chemscore.ZeroCoef>
-5.4800

> <Gold.Chemscore.Hbond>
1.9009

> <Gold.Chemscore.Metal>
0.0000

> <Gold.Chemscore.Lipo>
103.1825

> <Gold.Chemscore.Internal_Hbond>
0.0000

> <Gold.Chemscore.DEClash>
0.0348

> <Gold.Chemscore.DEInternal>
2.0333

> <Gold.Chemscore.Rot>
2.2640

> <Gold.Chemscore.Internal.Correction>
   9.000000E+99

> <Gold.Chemscore.Hbonds>
donor molecule, donor type, donor heavy atom, donor atom, acceptor molecule, acceptor atom, score
      P1  H  7989  7998       L1     5  0.31
      P1  H  7997  8010       L1    11  0.88

> <Gold.Chemscore.Hbond.Weighted>
-6.3488

> <Gold.Chemscore.Metal.Weighted>
-0.0000

> <Gold.Chemscore.Lipo.Weighted>
-12.0724

> <Gold.Chemscore.Internal_Hbond.Weighted>
0.0000

> <Gold.Chemscore.DEClash.Weighted>
0.0348

> <Gold.Chemscore.DEInternal.Weighted>
2.0333

> <Gold.Chemscore.Rot.Weighted>
5.7957

> <Gold.Chemscore.Internal.Correction.Weighted>
   9.000000E+99

> <Gold.Protein.RotatedTorsions>
[ 6907 6896 6895 6894 ] final  175.24 input  -60.11 | X-H torsion
[ 7974 7965 7964 7962 ] final -116.76 input  175.53 | X-H torsion
[ 8008 7997 7996 7995 ] final   -1.04 input   59.86 | X-H torsion
[ 10167 10162 10161 10158 ] final  -33.82 input  -65.29 | X-H torsion
[ 10718 10713 10712 10709 ] final  139.40 input   66.30 | X-H torsion
[ 10763 10752 10751 10750 ] final   91.51 input  -60.55 | X-H torsion
[ 11005 11000 10999 10996 ] final -170.63 input  -57.11 | X-H torsion

> <Gold.Protein.ActiveResidues>
 VAL166  LYS551  ARG553  GLY616  TRP617  ASP618  TYR619  PRO620  LYS621  CYS622 
 ASP623  PHE694  ASN695  SER759  ASP760  ASP761  ALA762  ILE779  LEU786  VAL792 
 PHE793  MET794  SER795  GLU796  ALA797  LYS798  CYS799  TRP800  GLU811  SER814 

> <Gold.Protein.RotatedAtoms>
  151.7394  133.3321  159.3361 H   0  0  0  0  0  0  0  0  0  0  0  0  # atno 6907 bound_to 6896
  150.7580  134.6292  159.6186 H   0  0  0  0  0  0  0  0  0  0  0  0  # atno 6908 bound_to 6896
  152.3541  134.6967  160.0279 H   0  0  0  0  0  0  0  0  0  0  0  0  # atno 6909 bound_to 6896
  145.0931  140.8503  143.3971 H   0  0  0  0  0  0  0  0  0  0  0  0  # atno 7974 bound_to 7965
  154.6512  140.2569  155.7211 H   0  0  0  0  0  0  0  0  0  0  0  0  # atno 8008 bound_to 7997
  156.2576  140.2867  156.0868 H   0  0  0  0  0  0  0  0  0  0  0  0  # atno 8009 bound_to 7997
  155.1448  140.0381  157.2797 H   0  0  0  0  0  0  0  0  0  0  0  0  # atno 8010 bound_to 7997
  140.7197  143.3592  151.1996 H   0  0  0  0  0  0  0  0  0  0  0  0  # atno 10167 bound_to 10162
  157.4148  131.1032  151.0416 H   0  0  0  0  0  0  0  0  0  0  0  0  # atno 10718 bound_to 10713
  153.2090  135.4395  155.0357 H   0  0  0  0  0  0  0  0  0  0  0  0  # atno 10763 bound_to 10752
  154.8190  135.3328  154.7097 H   0  0  0  0  0  0  0  0  0  0  0  0  # atno 10764 bound_to 10752
  153.7536  135.6996  153.4996 H   0  0  0  0  0  0  0  0  0  0  0  0  # atno 10765 bound_to 10752
  140.5173  134.5743  157.5037 H   0  0  0  0  0  0  0  0  0  0  0  0  # atno 11005 bound_to 11000
  145.1043  139.2801  143.5670 LP  0  0  0  0  0  0  0  0  0  0  0  0  # atno 17320 bound_to 7965
  146.3531  140.0619  142.8629 LP  0  0  0  0  0  0  0  0  0  0  0  0  # atno 17321 bound_to 7965
  139.7141  143.9329  152.2959 LP  0  0  0  0  0  0  0  0  0  0  0  0  # atno 17342 bound_to 10162
  139.9064  144.6882  150.8609 LP  0  0  0  0  0  0  0  0  0  0  0  0  # atno 17343 bound_to 10162
  157.1367  130.6125  149.5544 LP  0  0  0  0  0  0  0  0  0  0  0  0  # atno 17370 bound_to 10713
  155.9862  130.4895  150.7066 LP  0  0  0  0  0  0  0  0  0  0  0  0  # atno 17371 bound_to 10713
  139.9625  134.7428  156.0207 LP  0  0  0  0  0  0  0  0  0  0  0  0  # atno 17394 bound_to 11000
  141.1353  133.6576  156.3577 LP  0  0  0  0  0  0  0  0  0  0  0  0  # atno 17395 bound_to 11000

$$$$
