AV-unprocessed.smi:299|AV-procd|sdf|2266|dock3
  -GOLD-   2262022153D 1   1.00000     0.00000
 Structure written by MMmdl.
 42 43  0  0  0  0  0  0  0  0  2 V2000
  144.7574  137.0549  154.4338 C   0  0  0  0  0  0  0  0  0  0  0  0
  146.1378  136.6344  153.8831 C   0  0  1  0  0  0  0  0  0  0  0  0
  146.4236  135.1336  154.0997 C   0  0  0  0  0  0  0  0  0  0  0  0
  145.5930  134.2475  153.1600 C   0  0  0  0  0  0  0  0  0  0  0  0
  145.8085  134.6780  151.7042 C   0  0  0  0  0  0  0  0  0  0  0  0
  145.5225  136.1773  151.5170 C   0  0  0  0  0  0  0  0  0  0  0  0
  146.3413  137.0008  152.4492 N   0  3  1  0  0  0  0  0  0  0  0  0
  146.2527  138.4613  152.1905 C   0  0  0  0  0  0  0  0  0  0  0  0
  147.3733  139.2509  152.8928 C   0  0  0  0  0  0  0  0  0  0  0  0
  147.0470  139.6132  154.3542 C   0  0  0  0  0  0  0  0  0  0  0  0
  148.2254  139.6213  155.2154 N   0  0  0  0  0  0  0  0  0  0  0  0
  149.3822  140.2441  154.9397 C   0  0  0  0  0  0  0  0  0  0  0  0
  149.5666  140.9138  153.9240 O   0  0  0  0  0  0  0  0  0  0  0  0
  150.5037  140.0906  155.9672 C   0  0  0  0  0  0  0  0  0  0  0  0
  151.4501  139.0713  155.5556 N   0  0  0  0  0  0  0  0  0  0  0  0
  151.2609  137.8281  155.1085 C   0  0  0  0  0  0  0  0  0  0  0  0
  152.4097  137.2205  154.8542 N   0  0  0  0  0  0  0  0  0  0  0  0
  153.3530  138.1823  155.1766 N   0  0  0  0  0  0  0  0  0  0  0  0
  152.7896  139.2827  155.5937 N   0  0  0  0  0  0  0  0  0  0  0  0
  144.6642  136.7815  155.4851 H   0  0  0  0  0  0  0  0  0  0  0  0
  143.9345  136.5773  153.9029 H   0  0  0  0  0  0  0  0  0  0  0  0
  144.6086  138.1328  154.3740 H   0  0  0  0  0  0  0  0  0  0  0  0
  146.8867  137.1792  154.4596 H   0  0  0  0  0  0  0  0  0  0  0  0
  147.4830  134.9419  153.9237 H   0  0  0  0  0  0  0  0  0  0  0  0
  146.2359  134.8575  155.1380 H   0  0  0  0  0  0  0  0  0  0  0  0
  145.8723  133.2012  153.2870 H   0  0  0  0  0  0  0  0  0  0  0  0
  144.5353  134.3169  153.4149 H   0  0  0  0  0  0  0  0  0  0  0  0
  146.8361  134.4628  151.4081 H   0  0  0  0  0  0  0  0  0  0  0  0
  145.1683  134.0915  151.0444 H   0  0  0  0  0  0  0  0  0  0  0  0
  145.7443  136.4445  150.4846 H   0  0  0  0  0  0  0  0  0  0  0  0
  144.4622  136.3829  151.6652 H   0  0  0  0  0  0  0  0  0  0  0  0
  146.2604  138.6460  151.1152 H   0  0  0  0  0  0  0  0  0  0  0  0
  145.2973  138.8330  152.5630 H   0  0  0  0  0  0  0  0  0  0  0  0
  148.2894  138.6594  152.8803 H   0  0  0  0  0  0  0  0  0  0  0  0
  147.5989  140.1633  152.3416 H   0  0  0  0  0  0  0  0  0  0  0  0
  146.5919  140.6030  154.3957 H   0  0  0  0  0  0  0  0  0  0  0  0
  146.3068  138.9197  154.7563 H   0  0  0  0  0  0  0  0  0  0  0  0
  148.1696  139.0857  156.0700 H   0  0  0  0  0  0  0  0  0  0  0  0
  151.0363  141.0354  156.0838 H   0  0  0  0  0  0  0  0  0  0  0  0
  150.0889  139.8317  156.9429 H   0  0  0  0  0  0  0  0  0  0  0  0
  150.2912  137.3717  154.9750 H   0  0  0  0  0  0  0  0  0  0  0  0
  147.3019  136.7549  152.2565 H   0  0  0  0  0  0  0  0  0  0  0  0
  1  2  1  0  0  0  0
  1 20  1  0  0  0  0
  1 21  1  0  0  0  0
  1 22  1  0  0  0  0
  2  7  1  0  0  0  0
  2  3  1  0  0  0  0
  2 23  1  0  0  0  0
  3  4  1  0  0  0  0
  3 24  1  0  0  0  0
  3 25  1  0  0  0  0
  4  5  1  0  0  0  0
  4 26  1  0  0  0  0
  4 27  1  0  0  0  0
  5  6  1  0  0  0  0
  5 28  1  0  0  0  0
  5 29  1  0  0  0  0
  6  7  1  0  0  0  0
  6 30  1  0  0  0  0
  6 31  1  0  0  0  0
  7  8  1  0  0  0  0
  7 42  1  0  0  0  0
  8  9  1  0  0  0  0
  8 32  1  0  0  0  0
  8 33  1  0  0  0  0
  9 10  1  0  0  0  0
  9 34  1  0  0  0  0
  9 35  1  0  0  0  0
 10 11  1  0  0  0  0
 10 36  1  0  0  0  0
 10 37  1  0  0  0  0
 11 12  1  0  0  0  0
 11 38  1  0  0  0  0
 12 13  2  0  0  0  0
 12 14  1  0  0  0  0
 14 15  1  0  0  0  0
 14 39  1  0  0  0  0
 14 40  1  0  0  0  0
 15 19  1  0  0  0  0
 15 16  1  0  0  0  0
 16 17  2  0  0  0  0
 16 41  1  0  0  0  0
 17 18  1  0  0  0  0
 18 19  2  0  0  0  0
M  CHG  1   7   1
M  END
> <s_m_source_file>
AV-unprocessed.smi

> <i_m_source_file_index>
299

> <i_lp_mmshare_version>
43012

> <i_f3d_flags>
0

> <s_epik_input>
W0NIM11bQ0BASF0xW0NIMl1bQ0gyXVtDSDJdW0NIMl1OMVtDSDJdW0NIMl1bQ0gyXVtOSF1DKD1PKVtDSDJdbjJbY0hdbm5uMg==

> <s_epik_cmdline>
J2VwaWtfcHl0aG9uJywgJy1waCcsICc3LjAnLCAnLXRuJywgJzgnLCAnLW1hJywgJzIwMCcsICctbWV0YWxfYmluZGluZycsICctaW1hZScsICc8aW5maWxlLm1hZT4nLCAnLW9tYWUnLCAnPG91dGZpbGUubWFlPic=

> <r_lp_tautomer_probability>
1

> <r_epik_Ionization_Penalty>
0.000544863

> <r_epik_Ionization_Penalty_Charging>
0.000543475

> <r_epik_Ionization_Penalty_Neutral>
1.38784e-06

> <r_epik_State_Penalty>
0.000340025

> <r_epik_Charging_Adjusted_Penalty>
0.0008835

> <i_epik_Tot_Q>
1

> <i_epik_Tot_abs_Q>
1

> <r_epik_Metal_State_Penalty>
-0

> <b_epik_Metal_Only>
0

> <s_lp_Force_Field>
OPLS_2005

> <r_lp_Energy>
24.6376

> <b_lp_Chiralities_Consistent>
1

> <s_lp_Variant>
AV-unprocessed.smi:299-2

> <Gold.Version>
5.8.1

> <Gold.Id.Protein>
6NUR|6NUR_protein|mol2

> <Gold.PLP.Fitness>
42.2549

> <Gold.PLP.PLP>
-29.6893

> <Gold.PLP.part.hbond>
-6.3401

> <Gold.PLP.part.metal>
0.0000

> <Gold.PLP.part.buried>
-1.4211

> <Gold.PLP.part.nonpolar>
-24.1950

> <Gold.PLP.part.repulsive>
2.4515

> <Gold.PLP.ligand.clash>
0.0000

> <Gold.PLP.ligand.torsion>
0.9142

> <Gold.PLP.Chemscore.Hbond>
4.7742

> <Gold.PLP.Chemscore.CHOScore>
0.0000

> <Gold.PLP.Chemscore.Metal>
0.0000

> <Gold.Chemscore.Hbonds>
donor molecule, donor type, donor heavy atom, donor atom, acceptor molecule, acceptor atom, score
      L1  H     7    42       P1  7948  2.00
      P1  H  7989  7998       L1    13  0.39
      P1  H  7997  8010       L1    19  0.85
      P1  H  8011  8017       L1    13  0.55
      P1  H 10752 10765       L1    17  0.59

> <Gold.PLP.Chemscore.Internal.Correction>
0.0713

> <Gold.Rescore>
     Score         DG    S(hbond)    S(metal)    S(lipo)     H(rot)  DE(clash)    DE(int)     intcor
      9.55     -14.46       3.23        0.00      49.57       2.97       2.69       2.21       ----

> <Gold.Chemscore.Fitness>
9.5548

> <Gold.Chemscore.DG>
-14.4589

> <Gold.Chemscore.ZeroCoef>
-5.4800

> <Gold.Chemscore.Hbond>
3.2269

> <Gold.Chemscore.Metal>
0.0000

> <Gold.Chemscore.Lipo>
49.5654

> <Gold.Chemscore.Internal_Hbond>
0.0000

> <Gold.Chemscore.DEClash>
2.6896

> <Gold.Chemscore.DEInternal>
2.2145

> <Gold.Chemscore.Rot>
2.9680

> <Gold.Chemscore.Internal.Correction>
   9.000000E+99

> <Gold.Chemscore.Hbonds>
donor molecule, donor type, donor heavy atom, donor atom, acceptor molecule, acceptor atom, score
      L1  H     7    42       P1  7948  1.00
      P1  H  7989  7998       L1    13  0.26
      P1  H  7997  8010       L1    19  0.15
      P1  H  8011  8017       L1    13  0.53
      P1  H 10752 10765       L1    17  0.57

> <Gold.Chemscore.Hbond.Weighted>
-10.7777

> <Gold.Chemscore.Metal.Weighted>
-0.0000

> <Gold.Chemscore.Lipo.Weighted>
-5.7992

> <Gold.Chemscore.Internal_Hbond.Weighted>
0.0000

> <Gold.Chemscore.DEClash.Weighted>
2.6896

> <Gold.Chemscore.DEInternal.Weighted>
2.2145

> <Gold.Chemscore.Rot.Weighted>
7.5980

> <Gold.Chemscore.Internal.Correction.Weighted>
   9.000000E+99

> <Gold.Protein.RotatedTorsions>
[ 6907 6896 6895 6894 ] final -160.20 input  -60.11 | X-H torsion
[ 7974 7965 7964 7962 ] final -178.31 input  175.53 | X-H torsion
[ 8008 7997 7996 7995 ] final   86.17 input   59.86 | X-H torsion
[ 10167 10162 10161 10158 ] final  112.65 input  -65.29 | X-H torsion
[ 10718 10713 10712 10709 ] final  118.73 input   66.30 | X-H torsion
[ 10763 10752 10751 10750 ] final  155.57 input  -60.55 | X-H torsion
[ 11005 11000 10999 10996 ] final -141.71 input  -57.11 | X-H torsion

> <Gold.Protein.ActiveResidues>
 VAL166  LYS551  ARG553  GLY616  TRP617  ASP618  TYR619  PRO620  LYS621  CYS622 
 ASP623  PHE694  ASN695  SER759  ASP760  ASP761  ALA762  ILE779  LEU786  VAL792 
 PHE793  MET794  SER795  GLU796  ALA797  LYS798  CYS799  TRP800  GLU811  SER814 

> <Gold.Protein.RotatedAtoms>
  151.3454  133.3946  159.2674 H   0  0  0  0  0  0  0  0  0  0  0  0  # atno 6907 bound_to 6896
  150.9844  134.9193  159.7874 H   0  0  0  0  0  0  0  0  0  0  0  0  # atno 6908 bound_to 6896
  152.5227  134.3418  159.9272 H   0  0  0  0  0  0  0  0  0  0  0  0  # atno 6909 bound_to 6896
  144.7130  140.0887  143.6422 H   0  0  0  0  0  0  0  0  0  0  0  0  # atno 7974 bound_to 7965
  155.9594  140.3394  155.6477 H   0  0  0  0  0  0  0  0  0  0  0  0  # atno 8008 bound_to 7997
  155.6818  140.0738  157.2500 H   0  0  0  0  0  0  0  0  0  0  0  0  # atno 8009 bound_to 7997
  154.4139  140.1673  156.1978 H   0  0  0  0  0  0  0  0  0  0  0  0  # atno 8010 bound_to 7997
  139.6520  144.7128  151.2030 H   0  0  0  0  0  0  0  0  0  0  0  0  # atno 10167 bound_to 10162
  157.6010  131.1051  150.7798 H   0  0  0  0  0  0  0  0  0  0  0  0  # atno 10718 bound_to 10713
  154.1705  135.2805  155.3082 H   0  0  0  0  0  0  0  0  0  0  0  0  # atno 10763 bound_to 10752
  154.6079  135.5508  153.7445 H   0  0  0  0  0  0  0  0  0  0  0  0  # atno 10764 bound_to 10752
  153.0166  135.6408  154.1845 H   0  0  0  0  0  0  0  0  0  0  0  0  # atno 10765 bound_to 10752
  140.8297  134.2531  157.4862 H   0  0  0  0  0  0  0  0  0  0  0  0  # atno 11005 bound_to 11000
  145.9639  139.2820  143.1139 LP  0  0  0  0  0  0  0  0  0  0  0  0  # atno 17320 bound_to 7965
  145.9191  140.9128  143.0414 LP  0  0  0  0  0  0  0  0  0  0  0  0  # atno 17321 bound_to 7965
  140.7542  143.6135  150.8582 LP  0  0  0  0  0  0  0  0  0  0  0  0  # atno 17342 bound_to 10162
  139.9784  143.5978  152.2951 LP  0  0  0  0  0  0  0  0  0  0  0  0  # atno 17343 bound_to 10162
  156.8197  130.4980  149.5345 LP  0  0  0  0  0  0  0  0  0  0  0  0  # atno 17370 bound_to 10713
  156.1083  130.6021  151.0007 LP  0  0  0  0  0  0  0  0  0  0  0  0  # atno 17371 bound_to 10713
  139.8705  134.9580  156.4285 LP  0  0  0  0  0  0  0  0  0  0  0  0  # atno 17394 bound_to 11000
  140.9011  133.7779  155.9681 LP  0  0  0  0  0  0  0  0  0  0  0  0  # atno 17395 bound_to 11000

$$$$
