AV-unprocessed.smi:243|AV-procd|sdf|1861|dock1
  -GOLD-   2262020493D 1   1.00000     0.00000
 Structure written by MMmdl.
 58 61  0  0  0  0  0  0  0  0  2 V2000
  146.3164  142.8974  153.8418 C   0  0  0  0  0  0  0  0  0  0  0  0
  146.4530  141.6869  154.7764 C   0  0  0  0  0  0  0  0  0  0  0  0
  145.9874  140.4241  154.1436 N   0  3  1  0  0  0  0  0  0  0  0  0
  146.8595  139.9614  153.0344 C   0  0  0  0  0  0  0  0  0  0  0  0
  148.1666  139.3458  153.5593 C   0  0  0  0  0  0  0  0  0  0  0  0
  147.8806  138.1851  154.5312 C   0  0  1  0  0  0  0  0  0  0  0  0
  149.1348  137.5868  155.0112 N   0  0  0  0  0  0  0  0  0  0  0  0
  149.2811  136.1387  155.1290 C   0  0  0  0  0  0  0  0  0  0  0  0
  150.1709  138.3801  155.3996 C   0  0  0  0  0  0  0  0  0  0  0  0
  151.4373  137.8953  155.2989 N   0  0  0  0  0  0  0  0  0  0  0  0
  152.4833  138.6353  155.6758 C   0  0  0  0  0  0  0  0  0  0  0  0
  152.4925  139.8722  156.1720 N   0  0  0  0  0  0  0  0  0  0  0  0
  151.2284  140.3713  156.2784 C   0  0  0  0  0  0  0  0  0  0  0  0
  150.0227  139.7022  155.9177 C   0  0  0  0  0  0  0  0  0  0  0  0
  148.9389  140.5430  156.1490 N   0  0  0  0  0  0  0  0  0  0  0  0
  149.4706  141.6362  156.6214 C   0  0  0  0  0  0  0  0  0  0  0  0
  150.8407  141.6159  156.7447 N   0  0  0  0  0  0  0  0  0  0  0  0
  151.6884  142.6932  157.2343 C   0  0  0  0  0  0  0  0  0  0  0  0
  151.5111  143.0105  158.7416 C   0  0  2  0  0  0  0  0  0  0  0  0
  151.3455  141.8016  159.4591 O   0  0  0  0  0  0  0  0  0  0  0  0
  150.3374  143.9409  159.0540 C   0  0  0  0  0  0  0  0  0  0  0  0
  151.0038  145.3045  159.1576 C   0  0  0  0  0  0  0  0  0  0  0  0
  152.2083  144.9993  159.8374 O   0  0  0  0  0  0  0  0  0  0  0  0
  152.7222  143.7858  159.3004 C   0  0  0  0  0  0  0  0  0  0  0  0
  146.9496  138.6548  155.6783 C   0  0  2  0  0  0  0  0  0  0  0  0
  146.5529  137.5029  156.6175 C   0  0  0  0  0  0  0  0  0  0  0  0
  145.6811  139.3203  155.0943 C   0  0  0  0  0  0  0  0  0  0  0  0
  146.7601  143.7833  154.2967 H   0  0  0  0  0  0  0  0  0  0  0  0
  145.2750  143.1343  153.6260 H   0  0  0  0  0  0  0  0  0  0  0  0
  146.8272  142.7235  152.8944 H   0  0  0  0  0  0  0  0  0  0  0  0
  147.5091  141.5860  155.0302 H   0  0  0  0  0  0  0  0  0  0  0  0
  145.9322  141.8704  155.7160 H   0  0  0  0  0  0  0  0  0  0  0  0
  146.3144  139.2155  152.4542 H   0  0  0  0  0  0  0  0  0  0  0  0
  147.0702  140.7828  152.3485 H   0  0  0  0  0  0  0  0  0  0  0  0
  148.7603  138.9846  152.7187 H   0  0  0  0  0  0  0  0  0  0  0  0
  148.7642  140.1171  154.0461 H   0  0  0  0  0  0  0  0  0  0  0  0
  147.3261  137.4477  153.9502 H   0  0  0  0  0  0  0  0  0  0  0  0
  150.2965  135.8269  154.8816 H   0  0  0  0  0  0  0  0  0  0  0  0
  148.6052  135.6112  154.4576 H   0  0  0  0  0  0  0  0  0  0  0  0
  149.0555  135.8165  156.1457 H   0  0  0  0  0  0  0  0  0  0  0  0
  153.4514  138.1694  155.5647 H   0  0  0  0  0  0  0  0  0  0  0  0
  148.8728  142.4928  156.8975 H   0  0  0  0  0  0  0  0  0  0  0  0
  152.7262  142.4274  157.0280 H   0  0  0  0  0  0  0  0  0  0  0  0
  151.4805  143.5826  156.6378 H   0  0  0  0  0  0  0  0  0  0  0  0
  151.5523  141.0812  158.8837 H   0  0  0  0  0  0  0  0  0  0  0  0
  149.5325  143.9206  158.3215 H   0  0  0  0  0  0  0  0  0  0  0  0
  149.8987  143.6957  160.0226 H   0  0  0  0  0  0  0  0  0  0  0  0
  151.2256  145.7120  158.1697 H   0  0  0  0  0  0  0  0  0  0  0  0
  150.4024  146.0292  159.7070 H   0  0  0  0  0  0  0  0  0  0  0  0
  153.2655  143.2376  160.0713 H   0  0  0  0  0  0  0  0  0  0  0  0
  153.4359  144.0300  158.5124 H   0  0  0  0  0  0  0  0  0  0  0  0
  147.4704  139.3958  156.2835 H   0  0  0  0  0  0  0  0  0  0  0  0
  146.0421  136.7068  156.0751 H   0  0  0  0  0  0  0  0  0  0  0  0
  145.8838  137.8509  157.4046 H   0  0  0  0  0  0  0  0  0  0  0  0
  147.4247  137.0661  157.1050 H   0  0  0  0  0  0  0  0  0  0  0  0
  145.0331  139.6755  155.8949 H   0  0  0  0  0  0  0  0  0  0  0  0
  145.0992  138.5710  154.5557 H   0  0  0  0  0  0  0  0  0  0  0  0
  145.1094  140.6654  153.7062 H   0  0  0  0  0  0  0  0  0  0  0  0
  1  2  1  0  0  0  0
  1 28  1  0  0  0  0
  1 29  1  0  0  0  0
  1 30  1  0  0  0  0
  2  3  1  0  0  0  0
  2 31  1  0  0  0  0
  2 32  1  0  0  0  0
  3 27  1  0  0  0  0
  3  4  1  0  0  0  0
  3 58  1  0  0  0  0
  4  5  1  0  0  0  0
  4 33  1  0  0  0  0
  4 34  1  0  0  0  0
  5  6  1  0  0  0  0
  5 35  1  0  0  0  0
  5 36  1  0  0  0  0
  6  7  1  0  0  0  0
  6 25  1  0  0  0  0
  6 37  1  0  0  0  0
  7  8  1  0  0  0  0
  7  9  1  0  0  0  0
  8 38  1  0  0  0  0
  8 39  1  0  0  0  0
  8 40  1  0  0  0  0
  9 14  1  0  0  0  0
  9 10  2  0  0  0  0
 10 11  1  0  0  0  0
 11 12  2  0  0  0  0
 11 41  1  0  0  0  0
 12 13  1  0  0  0  0
 13 17  1  0  0  0  0
 13 14  2  0  0  0  0
 14 15  1  0  0  0  0
 15 16  2  0  0  0  0
 16 17  1  0  0  0  0
 16 42  1  0  0  0  0
 17 18  1  0  0  0  0
 18 19  1  0  0  0  0
 18 43  1  0  0  0  0
 18 44  1  0  0  0  0
 19 24  1  0  0  0  0
 19 20  1  0  0  0  0
 19 21  1  0  0  0  0
 20 45  1  0  0  0  0
 21 22  1  0  0  0  0
 21 46  1  0  0  0  0
 21 47  1  0  0  0  0
 22 23  1  0  0  0  0
 22 48  1  0  0  0  0
 22 49  1  0  0  0  0
 23 24  1  0  0  0  0
 24 50  1  0  0  0  0
 24 51  1  0  0  0  0
 25 26  1  0  0  0  0
 25 27  1  0  0  0  0
 25 52  1  0  0  0  0
 26 53  1  0  0  0  0
 26 54  1  0  0  0  0
 26 55  1  0  0  0  0
 27 56  1  0  0  0  0
 27 57  1  0  0  0  0
M  CHG  1   3   1
M  END
> <s_m_source_file>
AV-unprocessed.smi

> <i_m_source_file_index>
243

> <i_lp_mmshare_version>
43012

> <i_f3d_flags>
0

> <s_epik_input>
W0NIM11bQ0gyXU4xW0NIMl1bQ0gyXVtDQEhdKFtDQEBIXShbQ0gzXSlbQ0gyXTEpTihbQ0gzXSljKG5bY0hdbjIpYyhjMjMpbltjSF1uM1tDSDJdW0NAQF00KFtPSF0pW0NIMl1bQ0gyXU9bQ0gyXTQ=

> <s_epik_cmdline>
J2VwaWtfcHl0aG9uJywgJy1waCcsICc3LjAnLCAnLXRuJywgJzgnLCAnLW1hJywgJzIwMCcsICctbWV0YWxfYmluZGluZycsICctaW1hZScsICc8aW5maWxlLm1hZT4nLCAnLW9tYWUnLCAnPG91dGZpbGUubWFlPic=

> <r_lp_tautomer_probability>
1

> <r_epik_Ionization_Penalty>
0.00253099

> <r_epik_Ionization_Penalty_Charging>
0.00137877

> <r_epik_Ionization_Penalty_Neutral>
0.00115221

> <r_epik_State_Penalty>
-0

> <r_epik_Charging_Adjusted_Penalty>
0.00137877

> <i_epik_Tot_Q>
1

> <i_epik_Tot_abs_Q>
1

> <r_epik_Metal_State_Penalty>
-0

> <b_epik_Metal_Only>
0

> <s_lp_Force_Field>
OPLS_2005

> <r_lp_Energy>
46.8505

> <b_lp_Chiralities_Consistent>
1

> <s_lp_Variant>
AV-unprocessed.smi:243-14

> <Gold.Version>
5.8.1

> <Gold.Id.Protein>
6NUR|6NUR_protein|mol2

> <Gold.PLP.Fitness>
47.3677

> <Gold.PLP.PLP>
-38.2004

> <Gold.PLP.part.hbond>
-2.3771

> <Gold.PLP.part.metal>
0.0000

> <Gold.PLP.part.buried>
-2.5042

> <Gold.PLP.part.nonpolar>
-32.5488

> <Gold.PLP.part.repulsive>
0.1804

> <Gold.PLP.ligand.clash>
0.0000

> <Gold.PLP.ligand.torsion>
1.3358

> <Gold.PLP.Chemscore.Hbond>
3.0000

> <Gold.PLP.Chemscore.CHOScore>
0.8950

> <Gold.PLP.Chemscore.Metal>
0.0000

> <Gold.Chemscore.Hbonds>
donor molecule, donor type, donor heavy atom, donor atom, acceptor molecule, acceptor atom, score
      L1  H     3    58       P1 10175  2.00
      P1  H  7997  8008       L1    12  1.00
      L1  C    16    42       P1  8028  0.87

> <Gold.PLP.Chemscore.Internal.Correction>
0.1537

> <Gold.Rescore>
     Score         DG    S(hbond)    S(metal)    S(lipo)     H(rot)  DE(clash)    DE(int)     intcor
     11.52     -15.33       1.79        0.00      82.08       2.24       0.45       3.35       ----

> <Gold.Chemscore.Fitness>
11.5224

> <Gold.Chemscore.DG>
-15.3256

> <Gold.Chemscore.ZeroCoef>
-5.4800

> <Gold.Chemscore.Hbond>
1.7879

> <Gold.Chemscore.Metal>
0.0000

> <Gold.Chemscore.Lipo>
82.0771

> <Gold.Chemscore.Internal_Hbond>
0.0000

> <Gold.Chemscore.DEClash>
0.4547

> <Gold.Chemscore.DEInternal>
3.3486

> <Gold.Chemscore.Rot>
2.2379

> <Gold.Chemscore.Internal.Correction>
   9.000000E+99

> <Gold.Chemscore.Hbonds>
donor molecule, donor type, donor heavy atom, donor atom, acceptor molecule, acceptor atom, score
      L1  H     3    58       P1 10175  0.96
      P1  H  7997  8008       L1    12  0.26

> <Gold.Chemscore.Hbond.Weighted>
-5.9717

> <Gold.Chemscore.Metal.Weighted>
-0.0000

> <Gold.Chemscore.Lipo.Weighted>
-9.6030

> <Gold.Chemscore.Internal_Hbond.Weighted>
0.0000

> <Gold.Chemscore.DEClash.Weighted>
0.4547

> <Gold.Chemscore.DEInternal.Weighted>
3.3486

> <Gold.Chemscore.Rot.Weighted>
5.7291

> <Gold.Chemscore.Internal.Correction.Weighted>
   9.000000E+99

> <Gold.Protein.RotatedTorsions>
[ 6907 6896 6895 6894 ] final  115.85 input  -60.11 | X-H torsion
[ 7974 7965 7964 7962 ] final  -11.23 input  175.53 | X-H torsion
[ 8008 7997 7996 7995 ] final  -48.40 input   59.86 | X-H torsion
[ 10167 10162 10161 10158 ] final -177.65 input  -65.29 | X-H torsion
[ 10718 10713 10712 10709 ] final   -9.59 input   66.30 | X-H torsion
[ 10763 10752 10751 10750 ] final  -38.71 input  -60.55 | X-H torsion
[ 11005 11000 10999 10996 ] final -169.63 input  -57.11 | X-H torsion

> <Gold.Protein.ActiveResidues>
 VAL166  LYS551  ARG553  GLY616  TRP617  ASP618  TYR619  PRO620  LYS621  CYS622 
 ASP623  PHE694  ASN695  SER759  ASP760  ASP761  ALA762  ILE779  LEU786  VAL792 
 PHE793  MET794  SER795  GLU796  ALA797  LYS798  CYS799  TRP800  GLU811  SER814 

> <Gold.Protein.RotatedAtoms>
  152.4715  133.8041  159.6968 H   0  0  0  0  0  0  0  0  0  0  0  0  # atno 6907 bound_to 6896
  150.8707  133.7500  159.2968 H   0  0  0  0  0  0  0  0  0  0  0  0  # atno 6908 bound_to 6896
  151.5035  135.1066  159.9887 H   0  0  0  0  0  0  0  0  0  0  0  0  # atno 6909 bound_to 6896
  146.2194  140.2880  142.8366 H   0  0  0  0  0  0  0  0  0  0  0  0  # atno 7974 bound_to 7965
  154.4028  140.1322  156.4332 H   0  0  0  0  0  0  0  0  0  0  0  0  # atno 8008 bound_to 7997
  155.7530  140.3487  155.5140 H   0  0  0  0  0  0  0  0  0  0  0  0  # atno 8009 bound_to 7997
  155.8931  140.1006  157.1394 H   0  0  0  0  0  0  0  0  0  0  0  0  # atno 8010 bound_to 7997
  139.5470  144.2209  152.1006 H   0  0  0  0  0  0  0  0  0  0  0  0  # atno 10167 bound_to 10162
  156.6858  130.5050  149.5958 H   0  0  0  0  0  0  0  0  0  0  0  0  # atno 10718 bound_to 10713
  153.9174  135.6786  153.4749 H   0  0  0  0  0  0  0  0  0  0  0  0  # atno 10763 bound_to 10752
  153.1046  135.4811  154.8926 H   0  0  0  0  0  0  0  0  0  0  0  0  # atno 10764 bound_to 10752
  154.7496  135.3181  154.8538 H   0  0  0  0  0  0  0  0  0  0  0  0  # atno 10765 bound_to 10752
  140.5286  134.5638  157.5068 H   0  0  0  0  0  0  0  0  0  0  0  0  # atno 11005 bound_to 11000
  144.9148  140.7799  143.5785 LP  0  0  0  0  0  0  0  0  0  0  0  0  # atno 17320 bound_to 7965
  145.2813  139.1917  143.4789 LP  0  0  0  0  0  0  0  0  0  0  0  0  # atno 17321 bound_to 7965
  140.1698  144.4947  150.6586 LP  0  0  0  0  0  0  0  0  0  0  0  0  # atno 17342 bound_to 10162
  140.6721  143.2290  151.5599 LP  0  0  0  0  0  0  0  0  0  0  0  0  # atno 17343 bound_to 10162
  156.1834  130.6513  151.0978 LP  0  0  0  0  0  0  0  0  0  0  0  0  # atno 17370 bound_to 10713
  157.7027  131.0769  150.6768 LP  0  0  0  0  0  0  0  0  0  0  0  0  # atno 17371 bound_to 10713
  139.9566  134.7524  156.0328 LP  0  0  0  0  0  0  0  0  0  0  0  0  # atno 17394 bound_to 11000
  141.1294  133.6590  156.3423 LP  0  0  0  0  0  0  0  0  0  0  0  0  # atno 17395 bound_to 11000

$$$$
