AV-unprocessed.smi:620|AV-procd|sdf|3087|dock8
  -GOLD-   22720 0 13D 1   1.00000     0.00000
 Structure written by MMmdl.
 33 35  0  0  0  0  0  0  0  0  1 V2000
  147.0350  139.2936  153.1018 C   0  0  0  0  0  0  0  0  0  0  0  0
  148.0745  139.9843  153.9168 C   0  0  0  0  0  0  0  0  0  0  0  0
  149.3164  139.5063  154.0670 N   0  0  0  0  0  0  0  0  0  0  0  0
  150.1058  140.3256  154.8634 N   0  0  0  0  0  0  0  0  0  0  0  0
  149.4359  141.3984  155.2936 C   0  0  0  0  0  0  0  0  0  0  0  0
  150.1216  142.3284  156.1142 N   0  0  0  0  0  0  0  0  0  0  0  0
  151.0895  142.0812  157.0115 C   0  0  0  0  0  0  0  0  0  0  0  0
  151.5684  140.9736  157.2535 O   0  0  0  0  0  0  0  0  0  0  0  0
  151.4811  143.2085  157.6230 N   0  0  0  0  0  0  0  0  0  0  0  0
  152.5058  143.3039  158.6577 C   0  0  0  0  0  0  0  0  0  0  0  0
  152.3903  142.1989  159.6958 C   0  0  0  0  0  0  0  0  0  0  0  0
  153.3004  142.1511  160.9007 C   0  0  0  0  0  0  0  0  0  0  0  0
  153.4356  141.1138  159.8102 C   0  0  0  0  0  0  0  0  0  0  0  0
  152.4888  144.6642  159.3310 C   0  0  0  0  0  0  0  0  0  0  0  0
  151.9089  144.8416  160.7137 C   0  0  0  0  0  0  0  0  0  0  0  0
  151.2045  145.4376  159.5155 C   0  0  0  0  0  0  0  0  0  0  0  0
  147.7598  141.4991  154.7533 S   0  0  0  0  0  0  0  0  0  0  0  0
  147.4241  138.3624  152.6882 H   0  0  0  0  0  0  0  0  0  0  0  0
  146.7210  139.9361  152.2793 H   0  0  0  0  0  0  0  0  0  0  0  0
  146.1665  139.0657  153.7200 H   0  0  0  0  0  0  0  0  0  0  0  0
  149.8361  143.2909  156.0107 H   0  0  0  0  0  0  0  0  0  0  0  0
  151.0323  144.0720  157.3547 H   0  0  0  0  0  0  0  0  0  0  0  0
  153.4811  143.2026  158.1768 H   0  0  0  0  0  0  0  0  0  0  0  0
  151.3637  141.8856  159.8785 H   0  0  0  0  0  0  0  0  0  0  0  0
  154.0892  142.8965  160.9771 H   0  0  0  0  0  0  0  0  0  0  0  0
  152.8646  141.8351  161.8461 H   0  0  0  0  0  0  0  0  0  0  0  0
  153.0893  140.1051  160.0256 H   0  0  0  0  0  0  0  0  0  0  0  0
  154.3120  141.1780  159.1685 H   0  0  0  0  0  0  0  0  0  0  0  0
  153.3692  145.2658  159.1112 H   0  0  0  0  0  0  0  0  0  0  0  0
  151.4511  143.9747  161.1864 H   0  0  0  0  0  0  0  0  0  0  0  0
  152.4200  145.5251  161.3888 H   0  0  0  0  0  0  0  0  0  0  0  0
  151.2475  146.5177  159.3916 H   0  0  0  0  0  0  0  0  0  0  0  0
  150.2745  144.9687  159.2004 H   0  0  0  0  0  0  0  0  0  0  0  0
  1  2  1  0  0  0  0
  1 18  1  0  0  0  0
  1 19  1  0  0  0  0
  1 20  1  0  0  0  0
  2 17  1  0  0  0  0
  2  3  2  0  0  0  0
  3  4  1  0  0  0  0
  4  5  2  0  0  0  0
  5  6  1  0  0  0  0
  5 17  1  0  0  0  0
  6  7  1  0  0  0  0
  6 21  1  0  0  0  0
  7  8  2  0  0  0  0
  7  9  1  0  0  0  0
  9 10  1  0  0  0  0
  9 22  1  0  0  0  0
 10 11  1  0  0  0  0
 10 14  1  0  0  0  0
 10 23  1  0  0  0  0
 11 13  1  0  0  0  0
 11 12  1  0  0  0  0
 11 24  1  0  0  0  0
 12 13  1  0  0  0  0
 12 25  1  0  0  0  0
 12 26  1  0  0  0  0
 13 27  1  0  0  0  0
 13 28  1  0  0  0  0
 14 16  1  0  0  0  0
 14 15  1  0  0  0  0
 14 29  1  0  0  0  0
 15 16  1  0  0  0  0
 15 30  1  0  0  0  0
 15 31  1  0  0  0  0
 16 32  1  0  0  0  0
 16 33  1  0  0  0  0
M  END
> <s_m_source_file>
AV-unprocessed.smi

> <i_m_source_file_index>
620

> <i_lp_mmshare_version>
43012

> <i_f3d_flags>
0

> <s_epik_input>
W0NIM11jMW5uYyhzMSlbTkhdQyg9TylbTkhdW0NIXShbQ0hdMltDSDJdW0NIMl0yKVtDSF0zW0NIMl1bQ0gyXTM=

> <s_epik_cmdline>
J2VwaWtfcHl0aG9uJywgJy1waCcsICc3LjAnLCAnLXRuJywgJzgnLCAnLW1hJywgJzIwMCcsICctbWV0YWxfYmluZGluZycsICctaW1hZScsICc8aW5maWxlLm1hZT4nLCAnLW9tYWUnLCAnPG91dGZpbGUubWFlPic=

> <r_lp_tautomer_probability>
1

> <r_epik_Ionization_Penalty>
0.000349386

> <r_epik_Ionization_Penalty_Charging>
0

> <r_epik_Ionization_Penalty_Neutral>
0.000349386

> <r_epik_State_Penalty>
-0

> <r_epik_Charging_Adjusted_Penalty>
0

> <i_epik_Tot_Q>
0

> <i_epik_Tot_abs_Q>
0

> <r_epik_Metal_State_Penalty>
0.178889

> <b_epik_Metal_Only>
0

> <s_lp_Force_Field>
OPLS_2005

> <r_lp_Energy>
21.1743

> <b_lp_Chiralities_Consistent>
1

> <s_lp_Variant>
AV-unprocessed.smi:620-1

> <Gold.Version>
5.8.1

> <Gold.Id.Protein>
6NUR|6NUR_protein|mol2

> <Gold.PLP.Fitness>
44.2390

> <Gold.PLP.PLP>
-40.3352

> <Gold.PLP.part.hbond>
-2.0000

> <Gold.PLP.part.metal>
0.0000

> <Gold.PLP.part.buried>
-5.7977

> <Gold.PLP.part.nonpolar>
-34.7109

> <Gold.PLP.part.repulsive>
1.9642

> <Gold.PLP.ligand.clash>
0.0000

> <Gold.PLP.ligand.torsion>
2.1097

> <Gold.PLP.Chemscore.Hbond>
2.0000

> <Gold.PLP.Chemscore.CHOScore>
0.0000

> <Gold.PLP.Chemscore.Metal>
0.0000

> <Gold.Chemscore.Hbonds>
donor molecule, donor type, donor heavy atom, donor atom, acceptor molecule, acceptor atom, score
      L1  H     6    21       P1  8028  1.00
      P1  H  7989  7998       L1     4  0.80

> <Gold.PLP.Chemscore.Internal.Correction>
2.1232

> <Gold.Rescore>
     Score         DG    S(hbond)    S(metal)    S(lipo)     H(rot)  DE(clash)    DE(int)     intcor
     12.86     -17.60       1.31        0.00      97.67       1.44       0.13       4.60       ----

> <Gold.Chemscore.Fitness>
12.8633

> <Gold.Chemscore.DG>
-17.5956

> <Gold.Chemscore.ZeroCoef>
-5.4800

> <Gold.Chemscore.Hbond>
1.3098

> <Gold.Chemscore.Metal>
0.0000

> <Gold.Chemscore.Lipo>
97.6697

> <Gold.Chemscore.Internal_Hbond>
0.0000

> <Gold.Chemscore.DEClash>
0.1292

> <Gold.Chemscore.DEInternal>
4.6032

> <Gold.Chemscore.Rot>
1.4400

> <Gold.Chemscore.Internal.Correction>
   9.000000E+99

> <Gold.Chemscore.Hbonds>
donor molecule, donor type, donor heavy atom, donor atom, acceptor molecule, acceptor atom, score
      L1  H     6    21       P1  8028  1.00
      P1  H  7989  7998       L1     4  0.18

> <Gold.Chemscore.Hbond.Weighted>
-4.3747

> <Gold.Chemscore.Metal.Weighted>
-0.0000

> <Gold.Chemscore.Lipo.Weighted>
-11.4274

> <Gold.Chemscore.Internal_Hbond.Weighted>
0.0000

> <Gold.Chemscore.DEClash.Weighted>
0.1292

> <Gold.Chemscore.DEInternal.Weighted>
4.6032

> <Gold.Chemscore.Rot.Weighted>
3.6864

> <Gold.Chemscore.Internal.Correction.Weighted>
   9.000000E+99

> <Gold.Protein.RotatedTorsions>
[ 6907 6896 6895 6894 ] final   99.83 input  -60.11 | X-H torsion
[ 7974 7965 7964 7962 ] final   75.57 input  175.53 | X-H torsion
[ 8008 7997 7996 7995 ] final  152.79 input   59.86 | X-H torsion
[ 10167 10162 10161 10158 ] final   10.45 input  -65.29 | X-H torsion
[ 10718 10713 10712 10709 ] final  103.77 input   66.30 | X-H torsion
[ 10763 10752 10751 10750 ] final   92.64 input  -60.55 | X-H torsion
[ 11005 11000 10999 10996 ] final   13.48 input  -57.11 | X-H torsion

> <Gold.Protein.ActiveResidues>
 VAL166  LYS551  ARG553  GLY616  TRP617  ASP618  TYR619  PRO620  LYS621  CYS622 
 ASP623  PHE694  ASN695  SER759  ASP760  ASP761  ALA762  ILE779  LEU786  VAL792 
 PHE793  MET794  SER795  GLU796  ALA797  LYS798  CYS799  TRP800  GLU811  SER814 

> <Gold.Protein.RotatedAtoms>
  152.5384  134.0369  159.8049 H   0  0  0  0  0  0  0  0  0  0  0  0  # atno 6907 bound_to 6896
  151.0531  133.5599  159.2648 H   0  0  0  0  0  0  0  0  0  0  0  0  # atno 6908 bound_to 6896
  151.2526  135.0635  159.9121 H   0  0  0  0  0  0  0  0  0  0  0  0  # atno 6909 bound_to 6896
  145.7139  139.2624  143.1635 H   0  0  0  0  0  0  0  0  0  0  0  0  # atno 7974 bound_to 7965
  156.2612  140.2011  156.6389 H   0  0  0  0  0  0  0  0  0  0  0  0  # atno 8008 bound_to 7997
  154.6625  140.0559  157.0102 H   0  0  0  0  0  0  0  0  0  0  0  0  # atno 8009 bound_to 7997
  155.1255  140.3229  155.4489 H   0  0  0  0  0  0  0  0  0  0  0  0  # atno 8010 bound_to 7997
  140.6193  143.8239  150.7156 H   0  0  0  0  0  0  0  0  0  0  0  0  # atno 10167 bound_to 10162
  157.6762  131.0787  150.5606 H   0  0  0  0  0  0  0  0  0  0  0  0  # atno 10718 bound_to 10713
  153.2214  135.4354  155.0493 H   0  0  0  0  0  0  0  0  0  0  0  0  # atno 10763 bound_to 10752
  154.8252  135.3357  154.6921 H   0  0  0  0  0  0  0  0  0  0  0  0  # atno 10764 bound_to 10752
  153.7353  135.7008  153.5035 H   0  0  0  0  0  0  0  0  0  0  0  0  # atno 10765 bound_to 10752
  140.4803  134.0942  155.7749 H   0  0  0  0  0  0  0  0  0  0  0  0  # atno 11005 bound_to 11000
  146.0687  140.7892  142.9699 LP  0  0  0  0  0  0  0  0  0  0  0  0  # atno 17320 bound_to 7965
  144.6934  140.3309  143.7216 LP  0  0  0  0  0  0  0  0  0  0  0  0  # atno 17321 bound_to 7965
  140.1826  143.4102  152.1922 LP  0  0  0  0  0  0  0  0  0  0  0  0  # atno 17342 bound_to 10162
  139.5425  144.7269  151.4688 LP  0  0  0  0  0  0  0  0  0  0  0  0  # atno 17343 bound_to 10162
  156.5909  130.4329  149.5937 LP  0  0  0  0  0  0  0  0  0  0  0  0  # atno 17370 bound_to 10713
  156.2584  130.6948  151.1709 LP  0  0  0  0  0  0  0  0  0  0  0  0  # atno 17371 bound_to 10713
  141.1534  133.8926  157.2039 LP  0  0  0  0  0  0  0  0  0  0  0  0  # atno 17394 bound_to 11000
  139.9831  135.0091  156.9796 LP  0  0  0  0  0  0  0  0  0  0  0  0  # atno 17395 bound_to 11000

$$$$
