AV-unprocessed.smi:285|AV-procd|sdf|2169|dock3
  -GOLD-   2262021533D 1   1.00000     0.00000
 Structure written by MMmdl.
 31 33  0  0  0  0  0  0  0  0  1 V2000
  152.3873  142.9039  161.5531 N   0  0  0  0  0  0  0  0  0  0  0  0
  152.0236  143.0172  160.2684 C   0  0  0  0  0  0  0  0  0  0  0  0
  151.7454  144.2505  159.7849 N   0  0  0  0  0  0  0  0  0  0  0  0
  151.3818  144.3909  158.5059 C   0  0  0  0  0  0  0  0  0  0  0  0
  151.2402  143.4494  157.5692 N   0  0  0  0  0  0  0  0  0  0  0  0
  151.5193  142.2048  158.0584 C   0  0  0  0  0  0  0  0  0  0  0  0
  151.9184  141.9063  159.3942 C   0  0  0  0  0  0  0  0  0  0  0  0
  152.1232  140.5399  159.5405 N   0  0  0  0  0  0  0  0  0  0  0  0
  151.8553  140.0805  158.3500 C   0  0  0  0  0  0  0  0  0  0  0  0
  151.9984  138.2175  157.9808 Br  0  0  0  0  0  0  0  0  0  0  0  0
  151.4831  140.9960  157.3919 N   0  0  0  0  0  0  0  0  0  0  0  0
  151.1183  140.7693  155.9612 C   0  0  2  0  0  0  0  0  0  0  0  0
  149.6121  140.8095  155.7622 C   0  0  0  0  0  0  0  0  0  0  0  0
  149.4649  139.9780  154.5004 C   0  0  1  0  0  0  0  0  0  0  0  0
  149.4813  140.8156  153.3604 O   0  0  0  0  0  0  0  0  0  0  0  0
  150.7016  139.0498  154.5046 C   0  0  2  0  0  0  0  0  0  0  0  0
  150.3425  137.5738  154.7434 C   0  0  0  0  0  0  0  0  0  0  0  0
  151.3894  136.7401  154.2944 O   0  0  0  0  0  0  0  0  0  0  0  0
  151.5082  139.4894  155.5979 O   0  0  0  0  0  0  0  0  0  0  0  0
  152.6009  141.9947  161.9374 H   0  0  0  0  0  0  0  0  0  0  0  0
  152.4464  143.7271  162.1347 H   0  0  0  0  0  0  0  0  0  0  0  0
  151.1747  145.4016  158.1869 H   0  0  0  0  0  0  0  0  0  0  0  0
  151.6585  141.5144  155.3773 H   0  0  0  0  0  0  0  0  0  0  0  0
  149.1174  140.3135  156.5981 H   0  0  0  0  0  0  0  0  0  0  0  0
  149.2433  141.8332  155.6845 H   0  0  0  0  0  0  0  0  0  0  0  0
  148.5241  139.4268  154.5044 H   0  0  0  0  0  0  0  0  0  0  0  0
  149.4251  140.2751  152.5870 H   0  0  0  0  0  0  0  0  0  0  0  0
  151.2595  139.1586  153.5723 H   0  0  0  0  0  0  0  0  0  0  0  0
  150.1269  137.3826  155.7953 H   0  0  0  0  0  0  0  0  0  0  0  0
  149.4517  137.3037  154.1756 H   0  0  0  0  0  0  0  0  0  0  0  0
  151.4191  136.7771  153.3506 H   0  0  0  0  0  0  0  0  0  0  0  0
  1  2  1  0  0  0  0
  1 20  1  0  0  0  0
  1 21  1  0  0  0  0
  2  7  1  0  0  0  0
  2  3  2  0  0  0  0
  3  4  1  0  0  0  0
  4  5  2  0  0  0  0
  4 22  1  0  0  0  0
  5  6  1  0  0  0  0
  6 11  1  0  0  0  0
  6  7  2  0  0  0  0
  7  8  1  0  0  0  0
  8  9  2  0  0  0  0
  9 10  1  0  0  0  0
  9 11  1  0  0  0  0
 11 12  1  0  0  0  0
 12 19  1  0  0  0  0
 12 13  1  0  0  0  0
 12 23  1  0  0  0  0
 13 14  1  0  0  0  0
 13 24  1  0  0  0  0
 13 25  1  0  0  0  0
 14 15  1  0  0  0  0
 14 16  1  0  0  0  0
 14 26  1  0  0  0  0
 15 27  1  0  0  0  0
 16 17  1  0  0  0  0
 16 19  1  0  0  0  0
 16 28  1  0  0  0  0
 17 18  1  0  0  0  0
 17 29  1  0  0  0  0
 17 30  1  0  0  0  0
 18 31  1  0  0  0  0
M  END
> <s_m_source_file>
AV-unprocessed.smi

> <i_m_source_file_index>
285

> <i_lp_mmshare_version>
43012

> <i_f3d_flags>
0

> <s_epik_input>
bjFbY0hdbmMoW05IMl0pYyhjMTIpbmMoQnIpbjJbQ0BASF0zW0NIMl1bQ0BASF0oW09IXSlbQ0BIXShPMylbQ0gyXVtPSF0=

> <s_epik_cmdline>
J2VwaWtfcHl0aG9uJywgJy1waCcsICc3LjAnLCAnLXRuJywgJzgnLCAnLW1hJywgJzIwMCcsICctbWV0YWxfYmluZGluZycsICctaW1hZScsICc8aW5maWxlLm1hZT4nLCAnLW9tYWUnLCAnPG91dGZpbGUubWFlPic=

> <r_lp_tautomer_probability>
1

> <r_epik_Ionization_Penalty>
0.000103242

> <r_epik_Ionization_Penalty_Charging>
0

> <r_epik_Ionization_Penalty_Neutral>
0.000103242

> <r_epik_State_Penalty>
-0

> <r_epik_Charging_Adjusted_Penalty>
0

> <i_epik_Tot_Q>
0

> <i_epik_Tot_abs_Q>
0

> <r_epik_Metal_State_Penalty>
-0

> <b_epik_Metal_Only>
0

> <s_epik_Chemistry_Notes>
This compound contains an acetal/aminal-like group ( X-CH(R)-Y where X, Y are N, S, or O) that may be acid/base labile, releasing an aldehyde.

> <s_lp_Force_Field>
OPLS_2005

> <r_lp_Energy>
31.1056

> <b_lp_Chiralities_Consistent>
1

> <s_lp_Variant>
AV-unprocessed.smi:285-5

> <Gold.Version>
5.8.1

> <Gold.Id.Protein>
6NUR|6NUR_protein|mol2

> <Gold.PLP.Fitness>
47.7057

> <Gold.PLP.PLP>
-38.0164

> <Gold.PLP.part.hbond>
-4.4270

> <Gold.PLP.part.metal>
0.0000

> <Gold.PLP.part.buried>
-8.3445

> <Gold.PLP.part.nonpolar>
-26.0219

> <Gold.PLP.part.repulsive>
0.2162

> <Gold.PLP.ligand.clash>
0.0000

> <Gold.PLP.ligand.torsion>
0.6381

> <Gold.PLP.Chemscore.Hbond>
3.6484

> <Gold.PLP.Chemscore.CHOScore>
0.0000

> <Gold.PLP.Chemscore.Metal>
0.0000

> <Gold.Chemscore.Hbonds>
donor molecule, donor type, donor heavy atom, donor atom, acceptor molecule, acceptor atom, score
      L1  H    15    27       P1  7957  0.81
      L1  H    18    31       P1  7949  0.99
      P1  H  7989  7998       L1    15  0.10
      P1  H  8011  8017       L1    15  0.60
      P1  H 10752 10763       L1    18  0.95

> <Gold.PLP.Chemscore.Internal.Correction>
0.0201

> <Gold.Rescore>
     Score         DG    S(hbond)    S(metal)    S(lipo)     H(rot)  DE(clash)    DE(int)     intcor
      9.05     -10.83       2.50        0.00      41.19       3.06       0.00       1.77       ----

> <Gold.Chemscore.Fitness>
9.0491

> <Gold.Chemscore.DG>
-10.8253

> <Gold.Chemscore.ZeroCoef>
-5.4800

> <Gold.Chemscore.Hbond>
2.5036

> <Gold.Chemscore.Metal>
0.0000

> <Gold.Chemscore.Lipo>
41.1857

> <Gold.Chemscore.Internal_Hbond>
0.0000

> <Gold.Chemscore.DEClash>
0.0029

> <Gold.Chemscore.DEInternal>
1.7733

> <Gold.Chemscore.Rot>
3.0607

> <Gold.Chemscore.Internal.Correction>
   9.000000E+99

> <Gold.Chemscore.Hbonds>
donor molecule, donor type, donor heavy atom, donor atom, acceptor molecule, acceptor atom, score
      L1  H    15    27       P1  7957  0.77
      L1  H    18    31       P1  7949  0.74
      P1  H  8011  8017       L1    15  0.04
      P1  H 10752 10763       L1    18  0.21

> <Gold.Chemscore.Hbond.Weighted>
-8.3619

> <Gold.Chemscore.Metal.Weighted>
-0.0000

> <Gold.Chemscore.Lipo.Weighted>
-4.8187

> <Gold.Chemscore.Internal_Hbond.Weighted>
0.0000

> <Gold.Chemscore.DEClash.Weighted>
0.0029

> <Gold.Chemscore.DEInternal.Weighted>
1.7733

> <Gold.Chemscore.Rot.Weighted>
7.8354

> <Gold.Chemscore.Internal.Correction.Weighted>
   9.000000E+99

> <Gold.Protein.RotatedTorsions>
[ 6907 6896 6895 6894 ] final  -51.41 input  -60.11 | X-H torsion
[ 7974 7965 7964 7962 ] final   96.82 input  175.53 | X-H torsion
[ 8008 7997 7996 7995 ] final   -3.52 input   59.86 | X-H torsion
[ 10167 10162 10161 10158 ] final  131.32 input  -65.29 | X-H torsion
[ 10718 10713 10712 10709 ] final   14.84 input   66.30 | X-H torsion
[ 10763 10752 10751 10750 ] final   61.68 input  -60.55 | X-H torsion
[ 11005 11000 10999 10996 ] final  127.58 input  -57.11 | X-H torsion

> <Gold.Protein.ActiveResidues>
 VAL166  LYS551  ARG553  GLY616  TRP617  ASP618  TYR619  PRO620  LYS621  CYS622 
 ASP623  PHE694  ASN695  SER759  ASP760  ASP761  ALA762  ILE779  LEU786  VAL792 
 PHE793  MET794  SER795  GLU796  ALA797  LYS798  CYS799  TRP800  GLU811  SER814 

> <Gold.Protein.RotatedAtoms>
  150.8614  134.7967  159.7085 H   0  0  0  0  0  0  0  0  0  0  0  0  # atno 6907 bound_to 6896
  152.4650  134.5093  159.9759 H   0  0  0  0  0  0  0  0  0  0  0  0  # atno 6908 bound_to 6896
  151.5196  133.3430  159.2935 H   0  0  0  0  0  0  0  0  0  0  0  0  # atno 6909 bound_to 6896
  145.4338  139.2308  143.3129 H   0  0  0  0  0  0  0  0  0  0  0  0  # atno 7974 bound_to 7965
  154.6240  140.2507  155.7514 H   0  0  0  0  0  0  0  0  0  0  0  0  # atno 8008 bound_to 7997
  156.2443  140.2920  156.0481 H   0  0  0  0  0  0  0  0  0  0  0  0  # atno 8009 bound_to 7997
  155.1850  140.0390  157.2880 H   0  0  0  0  0  0  0  0  0  0  0  0  # atno 8010 bound_to 7997
  139.5389  144.6711  151.4690 H   0  0  0  0  0  0  0  0  0  0  0  0  # atno 10167 bound_to 10162
  157.0449  130.6246  149.5757 H   0  0  0  0  0  0  0  0  0  0  0  0  # atno 10718 bound_to 10713
  152.9958  135.5492  154.6072 H   0  0  0  0  0  0  0  0  0  0  0  0  # atno 10763 bound_to 10752
  154.5401  135.2819  155.1106 H   0  0  0  0  0  0  0  0  0  0  0  0  # atno 10764 bound_to 10752
  154.2386  135.6420  153.5252 H   0  0  0  0  0  0  0  0  0  0  0  0  # atno 10765 bound_to 10752
  139.9515  134.9621  156.8876 H   0  0  0  0  0  0  0  0  0  0  0  0  # atno 11005 bound_to 11000
  146.2593  140.5078  142.8860 LP  0  0  0  0  0  0  0  0  0  0  0  0  # atno 17320 bound_to 7965
  144.8166  140.6477  143.6380 LP  0  0  0  0  0  0  0  0  0  0  0  0  # atno 17321 bound_to 7965
  140.6610  143.8498  150.6888 LP  0  0  0  0  0  0  0  0  0  0  0  0  # atno 17342 bound_to 10162
  140.1893  143.4050  152.1875 LP  0  0  0  0  0  0  0  0  0  0  0  0  # atno 17343 bound_to 10162
  156.0026  130.5108  150.7718 LP  0  0  0  0  0  0  0  0  0  0  0  0  # atno 17370 bound_to 10713
  157.5076  131.0923  151.0238 LP  0  0  0  0  0  0  0  0  0  0  0  0  # atno 17371 bound_to 10713
  140.5708  134.0445  155.7430 LP  0  0  0  0  0  0  0  0  0  0  0  0  # atno 17394 bound_to 11000
  141.1179  133.9510  157.2787 LP  0  0  0  0  0  0  0  0  0  0  0  0  # atno 17395 bound_to 11000

$$$$
