AV-unprocessed.smi:937|AV-procd|sdf|4215|dock1
  -GOLD-   22720 2123D 1   1.00000     0.00000
 Structure written by MMmdl.
 46 47  0  0  0  0  0  0  0  0  2 V2000
  145.1333  135.1860  151.2764 C   0  0  0  0  0  0  0  0  0  0  0  0
  145.5851  136.5358  151.7919 C   0  0  0  0  0  0  0  0  0  0  0  0
  145.4874  136.8954  153.1535 C   0  0  0  0  0  0  0  0  0  0  0  0
  145.9289  138.1712  153.5621 C   0  0  0  0  0  0  0  0  0  0  0  0
  146.4596  139.0606  152.6021 C   0  0  0  0  0  0  0  0  0  0  0  0
  146.9413  140.4387  153.0107 C   0  0  0  0  0  0  0  0  0  0  0  0
  148.4612  140.4781  153.2383 C   0  0  0  0  0  0  0  0  0  0  0  0
  148.8044  141.2990  154.3925 N   0  0  0  0  0  0  0  0  0  0  0  0
  149.8971  141.1344  155.1569 C   0  0  0  0  0  0  0  0  0  0  0  0
  150.7249  140.2447  154.9693 O   0  0  0  0  0  0  0  0  0  0  0  0
  150.0300  142.0296  156.1521 N   0  0  0  0  0  0  0  0  0  0  0  0
  151.0953  142.1274  157.1520 C   0  0  2  0  0  0  0  0  0  0  0  0
  151.2062  140.8214  157.9649 C   0  0  0  0  0  0  0  0  0  0  0  0
  152.2700  140.9412  159.0659 C   0  0  0  0  0  0  0  0  0  0  0  0
  151.9860  142.1373  159.9877 C   0  0  0  0  0  0  0  0  0  0  0  0
  151.8766  143.4561  159.1934 C   0  0  2  0  0  0  0  0  0  0  0  0
  151.6024  144.6637  160.1133 C   0  0  0  0  0  0  0  0  0  0  0  0
  152.2991  144.5656  161.2461 F   0  0  0  0  0  0  0  0  0  0  0  0
  151.9419  145.7948  159.4951 F   0  0  0  0  0  0  0  0  0  0  0  0
  150.3042  144.7262  160.4098 F   0  0  0  0  0  0  0  0  0  0  0  0
  150.8107  143.3203  158.0844 C   0  0  0  0  0  0  0  0  0  0  0  0
  146.5313  138.6473  151.2548 C   0  0  0  0  0  0  0  0  0  0  0  0
  146.0976  137.4169  150.9035 N   0  3  0  0  0  0  0  0  0  0  0  0
  144.7885  134.5492  152.0918 H   0  0  0  0  0  0  0  0  0  0  0  0
  145.9548  134.6767  150.7714 H   0  0  0  0  0  0  0  0  0  0  0  0
  144.3133  135.3055  150.5677 H   0  0  0  0  0  0  0  0  0  0  0  0
  145.0800  136.2053  153.8783 H   0  0  0  0  0  0  0  0  0  0  0  0
  145.8594  138.4613  154.6005 H   0  0  0  0  0  0  0  0  0  0  0  0
  146.6539  141.1548  152.2396 H   0  0  0  0  0  0  0  0  0  0  0  0
  146.4192  140.7418  153.9193 H   0  0  0  0  0  0  0  0  0  0  0  0
  148.8387  139.4707  153.4150 H   0  0  0  0  0  0  0  0  0  0  0  0
  148.9736  140.8518  152.3500 H   0  0  0  0  0  0  0  0  0  0  0  0
  148.1755  142.0553  154.6207 H   0  0  0  0  0  0  0  0  0  0  0  0
  149.3019  142.7258  156.2239 H   0  0  0  0  0  0  0  0  0  0  0  0
  152.0455  142.3192  156.6503 H   0  0  0  0  0  0  0  0  0  0  0  0
  150.2421  140.5854  158.4178 H   0  0  0  0  0  0  0  0  0  0  0  0
  151.4527  139.9831  157.3126 H   0  0  0  0  0  0  0  0  0  0  0  0
  152.3026  140.0217  159.6510 H   0  0  0  0  0  0  0  0  0  0  0  0
  153.2555  141.0537  158.6124 H   0  0  0  0  0  0  0  0  0  0  0  0
  151.0605  141.9589  160.5365 H   0  0  0  0  0  0  0  0  0  0  0  0
  152.7769  142.2127  160.7344 H   0  0  0  0  0  0  0  0  0  0  0  0
  152.8380  143.6304  158.7074 H   0  0  0  0  0  0  0  0  0  0  0  0
  150.7701  144.2382  157.4967 H   0  0  0  0  0  0  0  0  0  0  0  0
  149.8252  143.2035  158.5382 H   0  0  0  0  0  0  0  0  0  0  0  0
  146.9187  139.2586  150.4527 H   0  0  0  0  0  0  0  0  0  0  0  0
  146.1605  137.1402  149.9236 H   0  0  0  0  0  0  0  0  0  0  0  0
  1  2  1  0  0  0  0
  1 24  1  0  0  0  0
  1 25  1  0  0  0  0
  1 26  1  0  0  0  0
  2 23  1  0  0  0  0
  2  3  2  0  0  0  0
  3  4  1  0  0  0  0
  3 27  1  0  0  0  0
  4  5  2  0  0  0  0
  4 28  1  0  0  0  0
  5  6  1  0  0  0  0
  5 22  1  0  0  0  0
  6  7  1  0  0  0  0
  6 29  1  0  0  0  0
  6 30  1  0  0  0  0
  7  8  1  0  0  0  0
  7 31  1  0  0  0  0
  7 32  1  0  0  0  0
  8  9  1  0  0  0  0
  8 33  1  0  0  0  0
  9 10  2  0  0  0  0
  9 11  1  0  0  0  0
 11 12  1  0  0  0  0
 11 34  1  0  0  0  0
 12 21  1  0  0  0  0
 12 13  1  0  0  0  0
 12 35  1  0  0  0  0
 13 14  1  0  0  0  0
 13 36  1  0  0  0  0
 13 37  1  0  0  0  0
 14 15  1  0  0  0  0
 14 38  1  0  0  0  0
 14 39  1  0  0  0  0
 15 16  1  0  0  0  0
 15 40  1  0  0  0  0
 15 41  1  0  0  0  0
 16 17  1  0  0  0  0
 16 21  1  0  0  0  0
 16 42  1  0  0  0  0
 17 18  1  0  0  0  0
 17 19  1  0  0  0  0
 17 20  1  0  0  0  0
 21 43  1  0  0  0  0
 21 44  1  0  0  0  0
 22 23  2  0  0  0  0
 22 45  1  0  0  0  0
 23 46  1  0  0  0  0
M  CHG  1  23   1
M  END
> <s_m_source_file>
AV-unprocessed.smi

> <i_m_source_file_index>
937

> <i_lp_mmshare_version>
43012

> <i_f3d_flags>
0

> <s_epik_input>
W0NIM11jMVtjSF1bY0hdYyhbY0hdbjEpW0NIMl1bQ0gyXVtOSF1DKD1PKVtOSF1bQ0BASF0yW0NIMl1bQ0gyXVtDSDJdW0NAQEhdKEMoRikoRilGKVtDSDJdMg==

> <s_epik_cmdline>
J2VwaWtfcHl0aG9uJywgJy1waCcsICc3LjAnLCAnLXRuJywgJzgnLCAnLW1hJywgJzIwMCcsICctbWV0YWxfYmluZGluZycsICctaW1hZScsICc8aW5maWxlLm1hZT4nLCAnLW9tYWUnLCAnPG91dGZpbGUubWFlPic=

> <r_epik_Ionization_Penalty>
1.4226

> <r_epik_Ionization_Penalty_Charging>
1.42255

> <r_epik_Ionization_Penalty_Neutral>
5.16456e-05

> <r_epik_State_Penalty>
1.50646

> <r_epik_Charging_Adjusted_Penalty>
2.92901

> <i_epik_Tot_Q>
1

> <i_epik_Tot_abs_Q>
1

> <r_epik_Metal_State_Penalty>
1.55846

> <b_epik_Metal_Only>
0

> <s_lp_Force_Field>
OPLS_2005

> <r_lp_Energy>
23.9189

> <b_lp_Chiralities_Consistent>
1

> <s_lp_Variant>
AV-unprocessed.smi:937-7

> <Gold.Version>
5.8.1

> <Gold.Id.Protein>
6NUR|6NUR_protein|mol2

> <Gold.PLP.Fitness>
48.7795

> <Gold.PLP.PLP>
-46.3510

> <Gold.PLP.part.hbond>
-3.4863

> <Gold.PLP.part.metal>
0.0000

> <Gold.PLP.part.buried>
3.3165

> <Gold.PLP.part.nonpolar>
-47.8081

> <Gold.PLP.part.repulsive>
0.4657

> <Gold.PLP.ligand.clash>
0.0000

> <Gold.PLP.ligand.torsion>
1.2931

> <Gold.PLP.Chemscore.Hbond>
1.6365

> <Gold.PLP.Chemscore.CHOScore>
0.0000

> <Gold.PLP.Chemscore.Metal>
0.0000

> <Gold.Chemscore.Hbonds>
donor molecule, donor type, donor heavy atom, donor atom, acceptor molecule, acceptor atom, score
      L1  H    11    34       P1  8028  0.65
      P1  H  7989  7998       L1    10  1.00

> <Gold.PLP.Chemscore.Internal.Correction>
0.1052

> <Gold.Rescore>
     Score         DG    S(hbond)    S(metal)    S(lipo)     H(rot)  DE(clash)    DE(int)     intcor
     15.41     -18.62       1.13        0.00     116.27       1.66       2.01       1.20       ----

> <Gold.Chemscore.Fitness>
15.4057

> <Gold.Chemscore.DG>
-18.6195

> <Gold.Chemscore.ZeroCoef>
-5.4800

> <Gold.Chemscore.Hbond>
1.1321

> <Gold.Chemscore.Metal>
0.0000

> <Gold.Chemscore.Lipo>
116.2735

> <Gold.Chemscore.Internal_Hbond>
0.0000

> <Gold.Chemscore.DEClash>
2.0089

> <Gold.Chemscore.DEInternal>
1.2048

> <Gold.Chemscore.Rot>
1.6585

> <Gold.Chemscore.Internal.Correction>
   9.000000E+99

> <Gold.Chemscore.Hbonds>
donor molecule, donor type, donor heavy atom, donor atom, acceptor molecule, acceptor atom, score
      L1  H    11    34       P1  8028  0.64
      P1  H  7989  7998       L1    10  0.34

> <Gold.Chemscore.Hbond.Weighted>
-3.7812

> <Gold.Chemscore.Metal.Weighted>
-0.0000

> <Gold.Chemscore.Lipo.Weighted>
-13.6040

> <Gold.Chemscore.Internal_Hbond.Weighted>
0.0000

> <Gold.Chemscore.DEClash.Weighted>
2.0089

> <Gold.Chemscore.DEInternal.Weighted>
1.2048

> <Gold.Chemscore.Rot.Weighted>
4.2457

> <Gold.Chemscore.Internal.Correction.Weighted>
   9.000000E+99

> <Gold.Protein.RotatedTorsions>
[ 6907 6896 6895 6894 ] final -150.08 input  -60.11 | X-H torsion
[ 7974 7965 7964 7962 ] final -137.53 input  175.53 | X-H torsion
[ 8008 7997 7996 7995 ] final  -83.13 input   59.86 | X-H torsion
[ 10167 10162 10161 10158 ] final -174.57 input  -65.29 | X-H torsion
[ 10718 10713 10712 10709 ] final -107.69 input   66.30 | X-H torsion
[ 10763 10752 10751 10750 ] final  -63.92 input  -60.55 | X-H torsion
[ 11005 11000 10999 10996 ] final  -67.54 input  -57.11 | X-H torsion

> <Gold.Protein.ActiveResidues>
 VAL166  LYS551  ARG553  GLY616  TRP617  ASP618  TYR619  PRO620  LYS621  CYS622 
 ASP623  PHE694  ASN695  SER759  ASP760  ASP761  ALA762  ILE779  LEU786  VAL792 
 PHE793  MET794  SER795  GLU796  ALA797  LYS798  CYS799  TRP800  GLU811  SER814 

> <Gold.Protein.RotatedAtoms>
  151.1934  133.4653  159.2594 H   0  0  0  0  0  0  0  0  0  0  0  0  # atno 6907 bound_to 6896
  151.1141  135.0043  159.8518 H   0  0  0  0  0  0  0  0  0  0  0  0  # atno 6908 bound_to 6896
  152.5452  134.1851  159.8704 H   0  0  0  0  0  0  0  0  0  0  0  0  # atno 6909 bound_to 6896
  144.8834  140.6540  143.5191 H   0  0  0  0  0  0  0  0  0  0  0  0  # atno 7974 bound_to 7965
  154.6158  140.0623  156.9553 H   0  0  0  0  0  0  0  0  0  0  0  0  # atno 8008 bound_to 7997
  155.1898  140.3306  155.4342 H   0  0  0  0  0  0  0  0  0  0  0  0  # atno 8009 bound_to 7997
  156.2403  140.1883  156.6988 H   0  0  0  0  0  0  0  0  0  0  0  0  # atno 8010 bound_to 7997
  139.5627  144.1831  152.1263 H   0  0  0  0  0  0  0  0  0  0  0  0  # atno 10167 bound_to 10162
  156.0449  130.5675  150.7857 H   0  0  0  0  0  0  0  0  0  0  0  0  # atno 10718 bound_to 10713
  154.3224  135.6193  153.5513 H   0  0  0  0  0  0  0  0  0  0  0  0  # atno 10763 bound_to 10752
  152.9818  135.5727  154.5055 H   0  0  0  0  0  0  0  0  0  0  0  0  # atno 10764 bound_to 10752
  154.4726  135.2860  155.1608 H   0  0  0  0  0  0  0  0  0  0  0  0  # atno 10765 bound_to 10752
  141.1510  133.6721  156.6309 H   0  0  0  0  0  0  0  0  0  0  0  0  # atno 11005 bound_to 11000
  145.3913  139.1616  143.4228 LP  0  0  0  0  0  0  0  0  0  0  0  0  # atno 17320 bound_to 7965
  146.3009  140.4002  142.8704 LP  0  0  0  0  0  0  0  0  0  0  0  0  # atno 17321 bound_to 7965
  140.1348  144.5256  150.6780 LP  0  0  0  0  0  0  0  0  0  0  0  0  # atno 17342 bound_to 10162
  140.6908  143.2375  151.5137 LP  0  0  0  0  0  0  0  0  0  0  0  0  # atno 17343 bound_to 10162
  157.5312  131.0936  150.9952 LP  0  0  0  0  0  0  0  0  0  0  0  0  # atno 17370 bound_to 10713
  157.0258  130.5692  149.5337 LP  0  0  0  0  0  0  0  0  0  0  0  0  # atno 17371 bound_to 10713
  140.3468  134.7803  157.4438 LP  0  0  0  0  0  0  0  0  0  0  0  0  # atno 17394 bound_to 11000
  140.0893  134.5623  155.8460 LP  0  0  0  0  0  0  0  0  0  0  0  0  # atno 17395 bound_to 11000

$$$$
