AV-unprocessed.smi:1686|AV-procd|sdf|6758|dock8
  -GOLD-   22720 7513D 1   1.00000     0.00000
 Structure written by MMmdl.
 41 43  0  0  0  0  0  0  0  0  1 V2000
  148.2275  141.2645  157.1863 C   0  0  0  0  0  0  0  0  0  0  0  0
  149.3511  140.6476  156.4042 C   0  0  0  0  0  0  0  0  0  0  0  0
  149.3431  140.7395  155.0807 N   0  0  0  0  0  0  0  0  0  0  0  0
  150.5011  140.0932  154.6334 O   0  0  0  0  0  0  0  0  0  0  0  0
  151.1503  139.6395  155.7300 C   0  0  0  0  0  0  0  0  0  0  0  0
  152.6393  138.7861  155.6306 Cl  0  0  0  0  0  0  0  0  0  0  0  0
  150.4920  139.9412  156.8872 C   0  0  0  0  0  0  0  0  0  0  0  0
  150.8691  139.6219  158.3140 C   0  0  0  0  0  0  0  0  0  0  0  0
  152.2161  140.2441  158.7013 C   0  0  0  0  0  0  0  0  0  0  0  0
  153.2730  139.8277  158.2243 O   0  0  0  0  0  0  0  0  0  0  0  0
  152.1508  141.2618  159.5741 N   0  0  0  0  0  0  0  0  0  0  0  0
  153.2811  142.0341  160.0889 C   0  0  2  0  0  0  0  0  0  0  0  0
  153.6796  141.4656  161.4594 C   0  0  0  0  0  0  0  0  0  0  0  0
  152.9000  143.5332  160.1566 C   0  0  2  0  0  0  0  0  0  0  0  0
  151.5029  143.8275  160.7518 C   0  0  0  0  0  0  0  0  0  0  0  0
  150.8818  144.7892  159.7221 C   0  0  2  0  0  0  0  0  0  0  0  0
  150.4871  143.9909  158.4663 C   0  0  0  0  0  0  0  0  0  0  0  0
  151.8504  143.6792  157.8227 C   0  0  0  0  0  0  0  0  0  0  0  0
  152.8500  144.3076  158.8156 C   0  0  1  0  0  0  0  0  0  0  0  0
  152.0973  145.5675  159.2320 C   0  0  0  0  0  0  0  0  0  0  0  0
  148.4346  141.2574  158.2564 H   0  0  0  0  0  0  0  0  0  0  0  0
  147.2953  140.7233  157.0245 H   0  0  0  0  0  0  0  0  0  0  0  0
  148.0668  142.3019  156.8919 H   0  0  0  0  0  0  0  0  0  0  0  0
  150.1100  139.9849  159.0076 H   0  0  0  0  0  0  0  0  0  0  0  0
  150.9292  138.5446  158.4719 H   0  0  0  0  0  0  0  0  0  0  0  0
  151.2365  141.5305  159.9078 H   0  0  0  0  0  0  0  0  0  0  0  0
  154.1348  141.9115  159.4223 H   0  0  0  0  0  0  0  0  0  0  0  0
  154.5632  141.9663  161.8550 H   0  0  0  0  0  0  0  0  0  0  0  0
  153.9154  140.4031  161.3887 H   0  0  0  0  0  0  0  0  0  0  0  0
  152.8761  141.5813  162.1875 H   0  0  0  0  0  0  0  0  0  0  0  0
  153.6410  144.0301  160.7862 H   0  0  0  0  0  0  0  0  0  0  0  0
  150.8924  142.9328  160.8785 H   0  0  0  0  0  0  0  0  0  0  0  0
  151.5964  144.3031  161.7287 H   0  0  0  0  0  0  0  0  0  0  0  0
  150.0722  145.3988  160.1248 H   0  0  0  0  0  0  0  0  0  0  0  0
  149.9253  143.0882  158.7086 H   0  0  0  0  0  0  0  0  0  0  0  0
  149.8752  144.5954  157.7955 H   0  0  0  0  0  0  0  0  0  0  0  0
  152.0093  142.6140  157.6605 H   0  0  0  0  0  0  0  0  0  0  0  0
  151.9264  144.1667  156.8499 H   0  0  0  0  0  0  0  0  0  0  0  0
  153.8330  144.4966  158.3835 H   0  0  0  0  0  0  0  0  0  0  0  0
  151.8751  146.2367  158.3987 H   0  0  0  0  0  0  0  0  0  0  0  0
  152.5963  146.1331  160.0210 H   0  0  0  0  0  0  0  0  0  0  0  0
  1  2  1  0  0  0  0
  1 21  1  0  0  0  0
  1 22  1  0  0  0  0
  1 23  1  0  0  0  0
  2  7  1  0  0  0  0
  2  3  2  0  0  0  0
  3  4  1  0  0  0  0
  4  5  1  0  0  0  0
  5  6  1  0  0  0  0
  5  7  2  0  0  0  0
  7  8  1  0  0  0  0
  8  9  1  0  0  0  0
  8 24  1  0  0  0  0
  8 25  1  0  0  0  0
  9 10  2  0  0  0  0
  9 11  1  0  0  0  0
 11 12  1  0  0  0  0
 11 26  1  0  0  0  0
 12 13  1  0  0  0  0
 12 14  1  0  0  0  0
 12 27  1  0  0  0  0
 13 28  1  0  0  0  0
 13 29  1  0  0  0  0
 13 30  1  0  0  0  0
 14 19  1  0  0  0  0
 14 15  1  0  0  0  0
 14 31  1  0  0  0  0
 15 16  1  0  0  0  0
 15 32  1  0  0  0  0
 15 33  1  0  0  0  0
 16 20  1  0  0  0  0
 16 17  1  0  0  0  0
 16 34  1  0  0  0  0
 17 18  1  0  0  0  0
 17 35  1  0  0  0  0
 17 36  1  0  0  0  0
 18 19  1  0  0  0  0
 18 37  1  0  0  0  0
 18 38  1  0  0  0  0
 19 20  1  0  0  0  0
 19 39  1  0  0  0  0
 20 40  1  0  0  0  0
 20 41  1  0  0  0  0
M  END
> <s_m_source_file>
AV-unprocessed.smi

> <i_m_source_file_index>
1686

> <i_lp_mmshare_version>
43012

> <i_f3d_flags>
0

> <s_epik_input>
W0NIM11jMW5vYyhDbCljMVtDSDJdQyg9TylbTkhdW0NASF0oW0NIM10pW0NASF0oW0NIMl1bQ0BIXTIzKVtDQEhdKFtDSDJdMylbQ0gyXVtDSDJdMg==

> <s_epik_cmdline>
J2VwaWtfcHl0aG9uJywgJy1waCcsICc3LjAnLCAnLXRuJywgJzgnLCAnLW1hJywgJzIwMCcsICctbWV0YWxfYmluZGluZycsICctaW1hZScsICc8aW5maWxlLm1hZT4nLCAnLW9tYWUnLCAnPG91dGZpbGUubWFlPic=

> <r_lp_tautomer_probability>
1

> <r_epik_Ionization_Penalty>
2.01576e-08

> <r_epik_Ionization_Penalty_Charging>
0

> <r_epik_Ionization_Penalty_Neutral>
2.01576e-08

> <r_epik_State_Penalty>
-0

> <r_epik_Charging_Adjusted_Penalty>
0

> <i_epik_Tot_Q>
0

> <i_epik_Tot_abs_Q>
0

> <r_epik_Metal_State_Penalty>
-0

> <b_epik_Metal_Only>
0

> <s_lp_Force_Field>
OPLS_2005

> <r_lp_Energy>
47.064

> <b_lp_Chiralities_Consistent>
1

> <s_lp_Variant>
AV-unprocessed.smi:1686-1

> <Gold.Version>
5.8.1

> <Gold.Id.Protein>
6NUR|6NUR_protein|mol2

> <Gold.PLP.Fitness>
50.4327

> <Gold.PLP.PLP>
-45.7033

> <Gold.PLP.part.hbond>
-2.0000

> <Gold.PLP.part.metal>
0.0000

> <Gold.PLP.part.buried>
-5.9386

> <Gold.PLP.part.nonpolar>
-38.3154

> <Gold.PLP.part.repulsive>
0.3567

> <Gold.PLP.ligand.clash>
0.0000

> <Gold.PLP.ligand.torsion>
0.6267

> <Gold.PLP.Chemscore.Hbond>
1.9920

> <Gold.PLP.Chemscore.CHOScore>
0.0000

> <Gold.PLP.Chemscore.Metal>
0.0000

> <Gold.Chemscore.Hbonds>
donor molecule, donor type, donor heavy atom, donor atom, acceptor molecule, acceptor atom, score
      P1  H  7989  7998       L1     4  1.00
      P1  H  7997  8010       L1    10  0.99

> <Gold.PLP.Chemscore.Internal.Correction>
0.0069

> <Gold.Rescore>
     Score         DG    S(hbond)    S(metal)    S(lipo)     H(rot)  DE(clash)    DE(int)     intcor
     19.79     -22.87       1.63        0.00     134.13       1.46       0.06       3.02       ----

> <Gold.Chemscore.Fitness>
19.7889

> <Gold.Chemscore.DG>
-22.8692

> <Gold.Chemscore.ZeroCoef>
-5.4800

> <Gold.Chemscore.Hbond>
1.6305

> <Gold.Chemscore.Metal>
0.0000

> <Gold.Chemscore.Lipo>
134.1303

> <Gold.Chemscore.Internal_Hbond>
0.0000

> <Gold.Chemscore.DEClash>
0.0580

> <Gold.Chemscore.DEInternal>
3.0222

> <Gold.Chemscore.Rot>
1.4648

> <Gold.Chemscore.Internal.Correction>
   9.000000E+99

> <Gold.Chemscore.Hbonds>
donor molecule, donor type, donor heavy atom, donor atom, acceptor molecule, acceptor atom, score
      P1  H  7989  7998       L1     4  0.77
      P1  H  7997  8010       L1    10  0.93

> <Gold.Chemscore.Hbond.Weighted>
-5.4459

> <Gold.Chemscore.Metal.Weighted>
-0.0000

> <Gold.Chemscore.Lipo.Weighted>
-15.6932

> <Gold.Chemscore.Internal_Hbond.Weighted>
0.0000

> <Gold.Chemscore.DEClash.Weighted>
0.0580

> <Gold.Chemscore.DEInternal.Weighted>
3.0222

> <Gold.Chemscore.Rot.Weighted>
3.7500

> <Gold.Chemscore.Internal.Correction.Weighted>
   9.000000E+99

> <Gold.Protein.RotatedTorsions>
[ 6907 6896 6895 6894 ] final  -33.96 input  -60.11 | X-H torsion
[ 7974 7965 7964 7962 ] final -161.36 input  175.53 | X-H torsion
[ 8008 7997 7996 7995 ] final   49.63 input   59.86 | X-H torsion
[ 10167 10162 10161 10158 ] final  -24.04 input  -65.29 | X-H torsion
[ 10718 10713 10712 10709 ] final   42.46 input   66.30 | X-H torsion
[ 10763 10752 10751 10750 ] final   69.24 input  -60.55 | X-H torsion
[ 11005 11000 10999 10996 ] final  -72.78 input  -57.11 | X-H torsion

> <Gold.Protein.ActiveResidues>
 VAL166  LYS551  ARG553  GLY616  TRP617  ASP618  TYR619  PRO620  LYS621  CYS622 
 ASP623  PHE694  ASN695  SER759  ASP760  ASP761  ALA762  ILE779  LEU786  VAL792 
 PHE793  MET794  SER795  GLU796  ALA797  LYS798  CYS799  TRP800  GLU811  SER814 

> <Gold.Protein.RotatedAtoms>
  151.0588  134.9723  159.8249 H   0  0  0  0  0  0  0  0  0  0  0  0  # atno 6907 bound_to 6896
  152.5392  134.2443  159.8884 H   0  0  0  0  0  0  0  0  0  0  0  0  # atno 6908 bound_to 6896
  151.2462  133.4330  159.2643 H   0  0  0  0  0  0  0  0  0  0  0  0  # atno 6909 bound_to 6896
  144.7394  140.3409  143.6135 H   0  0  0  0  0  0  0  0  0  0  0  0  # atno 7974 bound_to 7965
  155.4054  140.3440  155.4260 H   0  0  0  0  0  0  0  0  0  0  0  0  # atno 8008 bound_to 7997
  156.1479  140.1562  156.8849 H   0  0  0  0  0  0  0  0  0  0  0  0  # atno 8009 bound_to 7997
  154.5027  140.0810  156.7811 H   0  0  0  0  0  0  0  0  0  0  0  0  # atno 8010 bound_to 7997
  140.7288  143.4388  151.0688 H   0  0  0  0  0  0  0  0  0  0  0  0  # atno 10167 bound_to 10162
  157.4051  130.7882  149.7382 H   0  0  0  0  0  0  0  0  0  0  0  0  # atno 10718 bound_to 10713
  153.0277  135.5218  154.7258 H   0  0  0  0  0  0  0  0  0  0  0  0  # atno 10763 bound_to 10752
  154.6300  135.2899  155.0230 H   0  0  0  0  0  0  0  0  0  0  0  0  # atno 10764 bound_to 10752
  154.1185  135.6611  153.4951 H   0  0  0  0  0  0  0  0  0  0  0  0  # atno 10765 bound_to 10752
  141.1613  133.6857  156.7111 H   0  0  0  0  0  0  0  0  0  0  0  0  # atno 11005 bound_to 11000
  145.7375  139.1754  143.2395 LP  0  0  0  0  0  0  0  0  0  0  0  0  # atno 17320 bound_to 7965
  146.1159  140.7370  142.9481 LP  0  0  0  0  0  0  0  0  0  0  0  0  # atno 17321 bound_to 7965
  139.8053  143.8026  152.3167 LP  0  0  0  0  0  0  0  0  0  0  0  0  # atno 17342 bound_to 10162
  139.8057  144.7356  150.9765 LP  0  0  0  0  0  0  0  0  0  0  0  0  # atno 17343 bound_to 10162
  155.9834  130.4000  150.3364 LP  0  0  0  0  0  0  0  0  0  0  0  0  # atno 17370 bound_to 10713
  157.1496  131.0317  151.2891 LP  0  0  0  0  0  0  0  0  0  0  0  0  # atno 17371 bound_to 10713
  140.2887  134.8258  157.3997 LP  0  0  0  0  0  0  0  0  0  0  0  0  # atno 17394 bound_to 11000
  140.1367  134.5025  155.8063 LP  0  0  0  0  0  0  0  0  0  0  0  0  # atno 17395 bound_to 11000

$$$$
