AV-unprocessed.smi:3178|AV-procd|sdf|12130|dock3
  -GOLD-   2272017573D 1   1.00000     0.00000
 Structure written by MMmdl.
 35 35  0  0  0  0  0  0  0  0  1 V2000
  148.4663  138.7821  153.8975 C   0  0  0  0  0  0  0  0  0  0  0  0
  147.8183  140.0332  153.7041 O   0  0  0  0  0  0  0  0  0  0  0  0
  148.1103  141.0962  154.6183 C   0  0  0  0  0  0  0  0  0  0  0  0
  147.5138  142.4072  154.0698 C   0  0  0  0  0  0  0  0  0  0  0  0
  147.5670  140.8065  156.0376 C   0  0  0  0  0  0  0  0  0  0  0  0
  149.6543  141.2127  154.6334 C   0  0  0  0  0  0  0  0  0  0  0  0
  150.1115  142.2644  155.5362 N   0  0  0  0  0  0  0  0  0  0  0  0
  150.9239  142.0856  156.5895 C   0  0  0  0  0  0  0  0  0  0  0  0
  151.5279  141.0371  156.8151 O   0  0  0  0  0  0  0  0  0  0  0  0
  151.0356  143.2595  157.5625 C   0  0  0  0  0  0  0  0  0  0  0  0
  151.8944  142.8632  158.7366 C   0  0  0  0  0  0  0  0  0  0  0  0
  153.1482  142.1816  158.7196 C   0  0  0  0  0  0  0  0  0  0  0  0
  153.4729  142.0343  160.0380 C   0  0  0  0  0  0  0  0  0  0  0  0
  154.6477  141.3917  160.6939 C   0  0  0  0  0  0  0  0  0  0  0  0
  152.4517  142.6180  160.7517 N   0  0  0  0  0  0  0  0  0  0  0  0
  151.4832  143.1284  159.9688 N   0  0  0  0  0  0  0  0  0  0  0  0
  152.4031  142.6738  161.7591 H   0  0  0  0  0  0  0  0  0  0  0  0
  148.0661  138.0649  153.1814 H   0  0  0  0  0  0  0  0  0  0  0  0
  148.2999  138.3764  154.8946 H   0  0  0  0  0  0  0  0  0  0  0  0
  149.5387  138.8512  153.7155 H   0  0  0  0  0  0  0  0  0  0  0  0
  147.8186  143.2602  154.6771 H   0  0  0  0  0  0  0  0  0  0  0  0
  146.4244  142.3935  154.0644 H   0  0  0  0  0  0  0  0  0  0  0  0
  147.8473  142.5946  153.0486 H   0  0  0  0  0  0  0  0  0  0  0  0
  147.9227  141.5506  156.7508 H   0  0  0  0  0  0  0  0  0  0  0  0
  147.8799  139.8264  156.3993 H   0  0  0  0  0  0  0  0  0  0  0  0
  146.4777  140.8335  156.0688 H   0  0  0  0  0  0  0  0  0  0  0  0
  150.1099  140.2552  154.8924 H   0  0  0  0  0  0  0  0  0  0  0  0
  150.0174  141.4595  153.6352 H   0  0  0  0  0  0  0  0  0  0  0  0
  149.6743  143.1687  155.4324 H   0  0  0  0  0  0  0  0  0  0  0  0
  151.4693  144.1193  157.0507 H   0  0  0  0  0  0  0  0  0  0  0  0
  150.0353  143.5553  157.8824 H   0  0  0  0  0  0  0  0  0  0  0  0
  153.7130  141.8383  157.8653 H   0  0  0  0  0  0  0  0  0  0  0  0
  155.5783  141.8300  160.3332 H   0  0  0  0  0  0  0  0  0  0  0  0
  154.6713  140.3237  160.4776 H   0  0  0  0  0  0  0  0  0  0  0  0
  154.6144  141.5154  161.7766 H   0  0  0  0  0  0  0  0  0  0  0  0
  1  2  1  0  0  0  0
  1 18  1  0  0  0  0
  1 19  1  0  0  0  0
  1 20  1  0  0  0  0
  2  3  1  0  0  0  0
  3  4  1  0  0  0  0
  3  5  1  0  0  0  0
  3  6  1  0  0  0  0
  4 21  1  0  0  0  0
  4 22  1  0  0  0  0
  4 23  1  0  0  0  0
  5 24  1  0  0  0  0
  5 25  1  0  0  0  0
  5 26  1  0  0  0  0
  6  7  1  0  0  0  0
  6 27  1  0  0  0  0
  6 28  1  0  0  0  0
  7  8  1  0  0  0  0
  7 29  1  0  0  0  0
  8  9  2  0  0  0  0
  8 10  1  0  0  0  0
 10 11  1  0  0  0  0
 10 30  1  0  0  0  0
 10 31  1  0  0  0  0
 11 16  2  0  0  0  0
 11 12  1  0  0  0  0
 12 13  2  0  0  0  0
 12 32  1  0  0  0  0
 13 14  1  0  0  0  0
 13 15  1  0  0  0  0
 14 33  1  0  0  0  0
 14 34  1  0  0  0  0
 14 35  1  0  0  0  0
 15 17  1  0  0  0  0
 15 16  1  0  0  0  0
M  END
> <s_m_source_file>
AV-unprocessed.smi

> <i_m_source_file_index>
3178

> <i_lp_mmshare_version>
43012

> <i_f3d_flags>
0

> <s_epik_input>
W0NIM11PQyhbQ0gzXSkoW0NIM10pW0NIMl1bTkhdQyg9TylbQ0gyXWMxW2NIXWMoW0NIM10pW25IXW4x

> <s_epik_cmdline>
J2VwaWtfcHl0aG9uJywgJy1waCcsICc3LjAnLCAnLXRuJywgJzgnLCAnLW1hJywgJzIwMCcsICctbWV0YWxfYmluZGluZycsICctaW1hZScsICc8aW5maWxlLm1hZT4nLCAnLW9tYWUnLCAnPG91dGZpbGUubWFlPic=

> <r_lp_tautomer_probability>
0.5

> <r_epik_Ionization_Penalty>
8.10473e-05

> <r_epik_Ionization_Penalty_Charging>
0

> <r_epik_Ionization_Penalty_Neutral>
8.10473e-05

> <r_epik_State_Penalty>
0.41068

> <r_epik_Charging_Adjusted_Penalty>
0.41068

> <i_epik_Tot_Q>
0

> <i_epik_Tot_abs_Q>
0

> <r_epik_Metal_State_Penalty>
0.410702

> <b_epik_Metal_Only>
0

> <s_lp_Force_Field>
OPLS_2005

> <r_lp_Energy>
5.73531

> <b_lp_Chiralities_Consistent>
1

> <s_lp_Variant>
AV-unprocessed.smi:3178-1

> <Gold.Version>
5.8.1

> <Gold.Id.Protein>
6NUR|6NUR_protein|mol2

> <Gold.PLP.Fitness>
32.0739

> <Gold.PLP.PLP>
-29.5081

> <Gold.PLP.part.hbond>
-1.7043

> <Gold.PLP.part.metal>
0.0000

> <Gold.PLP.part.buried>
-2.6795

> <Gold.PLP.part.nonpolar>
-24.2475

> <Gold.PLP.part.repulsive>
0.4917

> <Gold.PLP.ligand.clash>
0.0006

> <Gold.PLP.ligand.torsion>
0.2334

> <Gold.PLP.Chemscore.Hbond>
1.0000

> <Gold.PLP.Chemscore.CHOScore>
0.0000

> <Gold.PLP.Chemscore.Metal>
0.0000

> <Gold.Chemscore.Hbonds>
donor molecule, donor type, donor heavy atom, donor atom, acceptor molecule, acceptor atom, score
      L1  H     7    29       P1  8028  1.00

> <Gold.PLP.Chemscore.Internal.Correction>
0.0332

> <Gold.Rescore>
     Score         DG    S(hbond)    S(metal)    S(lipo)     H(rot)  DE(clash)    DE(int)     intcor
     11.39     -12.73       1.00        0.00      74.74       1.89       0.11       1.23       ----

> <Gold.Chemscore.Fitness>
11.3856

> <Gold.Chemscore.DG>
-12.7288

> <Gold.Chemscore.ZeroCoef>
-5.4800

> <Gold.Chemscore.Hbond>
0.9989

> <Gold.Chemscore.Metal>
0.0000

> <Gold.Chemscore.Lipo>
74.7426

> <Gold.Chemscore.Internal_Hbond>
0.0000

> <Gold.Chemscore.DEClash>
0.1134

> <Gold.Chemscore.DEInternal>
1.2297

> <Gold.Chemscore.Rot>
1.8877

> <Gold.Chemscore.Internal.Correction>
   9.000000E+99

> <Gold.Chemscore.Hbonds>
donor molecule, donor type, donor heavy atom, donor atom, acceptor molecule, acceptor atom, score
      L1  H     7    29       P1  8028  1.00

> <Gold.Chemscore.Hbond.Weighted>
-3.3364

> <Gold.Chemscore.Metal.Weighted>
-0.0000

> <Gold.Chemscore.Lipo.Weighted>
-8.7449

> <Gold.Chemscore.Internal_Hbond.Weighted>
0.0000

> <Gold.Chemscore.DEClash.Weighted>
0.1134

> <Gold.Chemscore.DEInternal.Weighted>
1.2297

> <Gold.Chemscore.Rot.Weighted>
4.8325

> <Gold.Chemscore.Internal.Correction.Weighted>
   9.000000E+99

> <Gold.Protein.RotatedTorsions>
[ 6907 6896 6895 6894 ] final  113.50 input  -60.11 | X-H torsion
[ 7974 7965 7964 7962 ] final  151.72 input  175.53 | X-H torsion
[ 8008 7997 7996 7995 ] final -175.58 input   59.86 | X-H torsion
[ 10167 10162 10161 10158 ] final -127.09 input  -65.29 | X-H torsion
[ 10718 10713 10712 10709 ] final  -34.73 input   66.30 | X-H torsion
[ 10763 10752 10751 10750 ] final  -55.85 input  -60.55 | X-H torsion
[ 11005 11000 10999 10996 ] final -176.35 input  -57.11 | X-H torsion

> <Gold.Protein.ActiveResidues>
 VAL166  LYS551  ARG553  GLY616  TRP617  ASP618  TYR619  PRO620  LYS621  CYS622 
 ASP623  PHE694  ASN695  SER759  ASP760  ASP761  ALA762  ILE779  LEU786  VAL792 
 PHE793  MET794  SER795  GLU796  ALA797  LYS798  CYS799  TRP800  GLU811  SER814 

> <Gold.Protein.RotatedAtoms>
  152.4857  133.8367  159.7131 H   0  0  0  0  0  0  0  0  0  0  0  0  # atno 6907 bound_to 6896
  150.8942  133.7194  159.2903 H   0  0  0  0  0  0  0  0  0  0  0  0  # atno 6908 bound_to 6896
  151.4657  135.1046  159.9789 H   0  0  0  0  0  0  0  0  0  0  0  0  # atno 6909 bound_to 6896
  144.8273  139.6574  143.6074 H   0  0  0  0  0  0  0  0  0  0  0  0  # atno 7974 bound_to 7965
  155.9843  140.1188  157.0697 H   0  0  0  0  0  0  0  0  0  0  0  0  # atno 8008 bound_to 7997
  154.4192  140.1138  156.5546 H   0  0  0  0  0  0  0  0  0  0  0  0  # atno 8009 bound_to 7997
  155.6429  140.3473  155.4723 H   0  0  0  0  0  0  0  0  0  0  0  0  # atno 8010 bound_to 7997
  139.9645  143.5913  152.2434 H   0  0  0  0  0  0  0  0  0  0  0  0  # atno 10167 bound_to 10162
  156.3471  130.4302  149.7736 H   0  0  0  0  0  0  0  0  0  0  0  0  # atno 10718 bound_to 10713
  154.1974  135.6417  153.5077 H   0  0  0  0  0  0  0  0  0  0  0  0  # atno 10763 bound_to 10752
  153.0020  135.5443  154.6351 H   0  0  0  0  0  0  0  0  0  0  0  0  # atno 10764 bound_to 10752
  154.5756  135.2920  155.0757 H   0  0  0  0  0  0  0  0  0  0  0  0  # atno 10765 bound_to 10752
  140.4531  134.6324  157.4810 H   0  0  0  0  0  0  0  0  0  0  0  0  # atno 11005 bound_to 11000
  146.2577  139.6340  142.9383 LP  0  0  0  0  0  0  0  0  0  0  0  0  # atno 17320 bound_to 7965
  145.4973  141.0438  143.2560 LP  0  0  0  0  0  0  0  0  0  0  0  0  # atno 17321 bound_to 7965
  139.6528  144.7661  151.2114 LP  0  0  0  0  0  0  0  0  0  0  0  0  # atno 17342 bound_to 10162
  140.7542  143.6133  150.8584 LP  0  0  0  0  0  0  0  0  0  0  0  0  # atno 17343 bound_to 10162
  156.4951  130.8103  151.3110 LP  0  0  0  0  0  0  0  0  0  0  0  0  # atno 17370 bound_to 10713
  157.7456  130.9963  150.2774 LP  0  0  0  0  0  0  0  0  0  0  0  0  # atno 17371 bound_to 10713
  139.9994  134.6861  155.9556 LP  0  0  0  0  0  0  0  0  0  0  0  0  # atno 17394 bound_to 11000
  141.1655  133.6537  156.4465 LP  0  0  0  0  0  0  0  0  0  0  0  0  # atno 17395 bound_to 11000

$$$$
