AV-unprocessed.smi:2591|AV-procd|sdf|10157|dock5
  -GOLD-   2272014173D 1   1.00000     0.00000
 Structure written by MMmdl.
 34 35  0  0  0  0  0  0  0  0  1 V2000
  150.9857  134.1515  156.9867 C   0  0  0  0  0  0  0  0  0  0  0  0
  151.5068  135.4387  156.5525 N   0  0  0  0  0  0  0  0  0  0  0  0
  150.5160  136.1956  155.7998 C   0  0  0  0  0  0  0  0  0  0  0  0
  151.0697  137.5568  155.3463 C   0  0  0  0  0  0  0  0  0  0  0  0
  151.5272  138.2888  156.4796 O   0  0  0  0  0  0  0  0  0  0  0  0
  152.5345  137.6026  157.2249 C   0  0  1  0  0  0  0  0  0  0  0  0
  152.9748  138.4898  158.3983 C   0  0  0  0  0  0  0  0  0  0  0  0
  153.7933  138.0695  159.2176 O   0  0  0  0  0  0  0  0  0  0  0  0
  152.4273  139.7199  158.4356 N   0  0  0  0  0  0  0  0  0  0  0  0
  152.6469  140.7556  159.3818 C   0  0  0  0  0  0  0  0  0  0  0  0
  152.0159  141.9835  159.0819 C   0  0  0  0  0  0  0  0  0  0  0  0
  152.1762  143.0840  159.9516 C   0  0  0  0  0  0  0  0  0  0  0  0
  151.5057  144.4167  159.6558 C   0  0  0  0  0  0  0  0  0  0  0  0
  150.1801  144.2813  159.6107 F   0  0  0  0  0  0  0  0  0  0  0  0
  151.8023  145.3151  160.5957 F   0  0  0  0  0  0  0  0  0  0  0  0
  151.9316  144.8709  158.4779 F   0  0  0  0  0  0  0  0  0  0  0  0
  152.9594  142.9103  161.1107 C   0  0  0  0  0  0  0  0  0  0  0  0
  153.5495  141.6538  161.3362 C   0  0  0  0  0  0  0  0  0  0  0  0
  153.4014  140.6071  160.4985 N   0  0  0  0  0  0  0  0  0  0  0  0
  151.9780  136.2336  157.6794 C   0  0  0  0  0  0  0  0  0  0  0  0
  150.6669  133.5551  156.1312 H   0  0  0  0  0  0  0  0  0  0  0  0
  150.1306  134.2766  157.6523 H   0  0  0  0  0  0  0  0  0  0  0  0
  151.7508  133.5857  157.5192 H   0  0  0  0  0  0  0  0  0  0  0  0
  150.1971  135.6240  154.9275 H   0  0  0  0  0  0  0  0  0  0  0  0
  149.6269  136.3538  156.4123 H   0  0  0  0  0  0  0  0  0  0  0  0
  151.8874  137.4241  154.6364 H   0  0  0  0  0  0  0  0  0  0  0  0
  150.2950  138.1316  154.8392 H   0  0  0  0  0  0  0  0  0  0  0  0
  153.4050  137.4485  156.5844 H   0  0  0  0  0  0  0  0  0  0  0  0
  151.7744  139.9356  157.6964 H   0  0  0  0  0  0  0  0  0  0  0  0
  151.4140  142.0812  158.1899 H   0  0  0  0  0  0  0  0  0  0  0  0
  153.1057  143.7169  161.8141 H   0  0  0  0  0  0  0  0  0  0  0  0
  154.1557  141.4835  162.2137 H   0  0  0  0  0  0  0  0  0  0  0  0
  151.1617  136.3871  158.3876 H   0  0  0  0  0  0  0  0  0  0  0  0
  152.7533  135.6811  158.2123 H   0  0  0  0  0  0  0  0  0  0  0  0
  1  2  1  0  0  0  0
  1 21  1  0  0  0  0
  1 22  1  0  0  0  0
  1 23  1  0  0  0  0
  2 20  1  0  0  0  0
  2  3  1  0  0  0  0
  3  4  1  0  0  0  0
  3 24  1  0  0  0  0
  3 25  1  0  0  0  0
  4  5  1  0  0  0  0
  4 26  1  0  0  0  0
  4 27  1  0  0  0  0
  5  6  1  0  0  0  0
  6  7  1  0  0  0  0
  6 20  1  0  0  0  0
  6 28  1  0  0  0  0
  7  8  2  0  0  0  0
  7  9  1  0  0  0  0
  9 10  1  0  0  0  0
  9 29  1  0  0  0  0
 10 19  1  0  0  0  0
 10 11  2  0  0  0  0
 11 12  1  0  0  0  0
 11 30  1  0  0  0  0
 12 13  1  0  0  0  0
 12 17  2  0  0  0  0
 13 14  1  0  0  0  0
 13 15  1  0  0  0  0
 13 16  1  0  0  0  0
 17 18  1  0  0  0  0
 17 31  1  0  0  0  0
 18 19  2  0  0  0  0
 18 32  1  0  0  0  0
 20 33  1  0  0  0  0
 20 34  1  0  0  0  0
M  END
> <s_m_source_file>
AV-unprocessed.smi

> <i_m_source_file_index>
2591

> <i_lp_mmshare_version>
43012

> <i_f3d_flags>
0

> <s_epik_input>
W0NIM11OMVtDSDJdW0NIMl1PW0NASF0oW0NIMl0xKUMoPU8pW05IXWMyW2NIXWMoQyhGKShGKUYpW2NIXVtjSF1uMg==

> <s_epik_cmdline>
J2VwaWtfcHl0aG9uJywgJy1waCcsICc3LjAnLCAnLXRuJywgJzgnLCAnLW1hJywgJzIwMCcsICctbWV0YWxfYmluZGluZycsICctaW1hZScsICc8aW5maWxlLm1hZT4nLCAnLW9tYWUnLCAnPG91dGZpbGUubWFlPic=

> <r_epik_Ionization_Penalty>
0.526245

> <r_epik_Ionization_Penalty_Charging>
0

> <r_epik_Ionization_Penalty_Neutral>
0.526245

> <r_epik_State_Penalty>
0.534659

> <r_epik_Charging_Adjusted_Penalty>
0.534659

> <i_epik_Tot_Q>
0

> <i_epik_Tot_abs_Q>
0

> <r_epik_Metal_State_Penalty>
0.534657

> <b_epik_Metal_Only>
0

> <s_lp_Force_Field>
OPLS_2005

> <r_lp_Energy>
21.9247

> <b_lp_Chiralities_Consistent>
1

> <s_lp_Variant>
AV-unprocessed.smi:2591-5

> <Gold.Version>
5.8.1

> <Gold.Id.Protein>
6NUR|6NUR_protein|mol2

> <Gold.PLP.Fitness>
44.5915

> <Gold.PLP.PLP>
-41.7805

> <Gold.PLP.part.hbond>
-1.0000

> <Gold.PLP.part.metal>
0.0000

> <Gold.PLP.part.buried>
-6.5362

> <Gold.PLP.part.nonpolar>
-34.5768

> <Gold.PLP.part.repulsive>
0.1816

> <Gold.PLP.ligand.clash>
1.1615

> <Gold.PLP.ligand.torsion>
0.0568

> <Gold.PLP.Chemscore.Hbond>
1.0000

> <Gold.PLP.Chemscore.CHOScore>
0.0000

> <Gold.PLP.Chemscore.Metal>
0.0000

> <Gold.Chemscore.Hbonds>
donor molecule, donor type, donor heavy atom, donor atom, acceptor molecule, acceptor atom, score
      P1  H 10752 10765       L1     2  0.08

> <Gold.PLP.Chemscore.Internal.Correction>
1.0861

> <Gold.Rescore>
     Score         DG    S(hbond)    S(metal)    S(lipo)     H(rot)  DE(clash)    DE(int)     intcor
     12.03     -13.42       0.21        0.00      83.76       1.00       0.02       1.36       ----

> <Gold.Chemscore.Fitness>
12.0315

> <Gold.Chemscore.DG>
-13.4205

> <Gold.Chemscore.ZeroCoef>
-5.4800

> <Gold.Chemscore.Hbond>
0.2098

> <Gold.Chemscore.Metal>
0.0000

> <Gold.Chemscore.Lipo>
83.7575

> <Gold.Chemscore.Internal_Hbond>
0.0000

> <Gold.Chemscore.DEClash>
0.0248

> <Gold.Chemscore.DEInternal>
1.3642

> <Gold.Chemscore.Rot>
1.0000

> <Gold.Chemscore.Internal.Correction>
   9.000000E+99

> <Gold.Chemscore.Hbond.Weighted>
-0.7008

> <Gold.Chemscore.Metal.Weighted>
-0.0000

> <Gold.Chemscore.Lipo.Weighted>
-9.7996

> <Gold.Chemscore.Internal_Hbond.Weighted>
0.0000

> <Gold.Chemscore.DEClash.Weighted>
0.0248

> <Gold.Chemscore.DEInternal.Weighted>
1.3642

> <Gold.Chemscore.Rot.Weighted>
2.5600

> <Gold.Chemscore.Internal.Correction.Weighted>
   9.000000E+99

> <Gold.Protein.RotatedTorsions>
[ 6907 6896 6895 6894 ] final -167.50 input  -60.11 | X-H torsion
[ 7974 7965 7964 7962 ] final   38.82 input  175.53 | X-H torsion
[ 8008 7997 7996 7995 ] final  166.86 input   59.86 | X-H torsion
[ 10167 10162 10161 10158 ] final  138.21 input  -65.29 | X-H torsion
[ 10718 10713 10712 10709 ] final  -58.73 input   66.30 | X-H torsion
[ 10763 10752 10751 10750 ] final -174.87 input  -60.55 | X-H torsion
[ 11005 11000 10999 10996 ] final -173.17 input  -57.11 | X-H torsion

> <Gold.Protein.ActiveResidues>
 VAL166  LYS551  ARG553  GLY616  TRP617  ASP618  TYR619  PRO620  LYS621  CYS622 
 ASP623  PHE694  ASN695  SER759  ASP760  ASP761  ALA762  ILE779  LEU786  VAL792 
 PHE793  MET794  SER795  GLU796  ALA797  LYS798  CYS799  TRP800  GLU811  SER814 

> <Gold.Protein.RotatedAtoms>
  151.4605  133.3594  159.2808 H   0  0  0  0  0  0  0  0  0  0  0  0  # atno 6907 bound_to 6896
  150.9028  134.8443  159.7383 H   0  0  0  0  0  0  0  0  0  0  0  0  # atno 6908 bound_to 6896
  152.4889  134.4528  159.9632 H   0  0  0  0  0  0  0  0  0  0  0  0  # atno 6909 bound_to 6896
  146.1032  139.5726  142.9400 H   0  0  0  0  0  0  0  0  0  0  0  0  # atno 7974 bound_to 7965
  156.1683  140.1632  156.8493 H   0  0  0  0  0  0  0  0  0  0  0  0  # atno 8008 bound_to 7997
  154.5230  140.0774  156.8241 H   0  0  0  0  0  0  0  0  0  0  0  0  # atno 8009 bound_to 7997
  155.3566  140.3393  155.4242 H   0  0  0  0  0  0  0  0  0  0  0  0  # atno 8010 bound_to 7997
  139.5118  144.6366  151.5680 H   0  0  0  0  0  0  0  0  0  0  0  0  # atno 10167 bound_to 10162
  156.1114  130.4175  150.0617 H   0  0  0  0  0  0  0  0  0  0  0  0  # atno 10718 bound_to 10713
  154.5911  135.2845  155.0634 H   0  0  0  0  0  0  0  0  0  0  0  0  # atno 10763 bound_to 10752
  154.1934  135.6437  153.5070 H   0  0  0  0  0  0  0  0  0  0  0  0  # atno 10764 bound_to 10752
  153.0122  135.5451  154.6598 H   0  0  0  0  0  0  0  0  0  0  0  0  # atno 10765 bound_to 10752
  140.4888  134.6005  157.4947 H   0  0  0  0  0  0  0  0  0  0  0  0  # atno 11005 bound_to 11000
  145.5812  141.0382  143.2121 LP  0  0  0  0  0  0  0  0  0  0  0  0  # atno 17320 bound_to 7965
  144.7450  139.7345  143.7296 LP  0  0  0  0  0  0  0  0  0  0  0  0  # atno 17321 bound_to 7965
  140.6117  143.9423  150.6458 LP  0  0  0  0  0  0  0  0  0  0  0  0  # atno 17342 bound_to 10162
  140.2668  143.3484  152.1274 LP  0  0  0  0  0  0  0  0  0  0  0  0  # atno 17343 bound_to 10162
  156.8579  130.9481  151.3620 LP  0  0  0  0  0  0  0  0  0  0  0  0  # atno 17370 bound_to 10713
  157.6295  130.8718  149.9248 LP  0  0  0  0  0  0  0  0  0  0  0  0  # atno 17371 bound_to 10713
  139.9782  134.7181  155.9910 LP  0  0  0  0  0  0  0  0  0  0  0  0  # atno 17394 bound_to 11000
  141.1495  133.6550  156.3968 LP  0  0  0  0  0  0  0  0  0  0  0  0  # atno 17395 bound_to 11000

$$$$
