AV-unprocessed.smi:1464|AV-procd|sdf|5940|dock7
  -GOLD-   22720 6 23D 1   1.00000     0.00000
 Structure written by MMmdl.
 40 41  0  0  0  0  0  0  0  0  2 V2000
  151.6404  145.6240  160.5100 C   0  0  0  0  0  0  0  0  0  0  0  0
  152.3581  144.3314  160.0793 C   0  0  1  0  0  0  0  0  0  0  0  0
  152.5665  143.4246  161.3089 C   0  0  0  0  0  0  0  0  0  0  0  0
  153.3092  142.1340  160.9467 C   0  0  0  0  0  0  0  0  0  0  0  0
  152.5569  141.3675  159.8553 C   0  0  0  0  0  0  0  0  0  0  0  0
  152.3443  142.2392  158.6027 C   0  0  1  0  0  0  0  0  0  0  0  0
  151.5875  141.4781  157.6101 N   0  0  0  0  0  0  0  0  0  0  0  0
  150.3062  141.0966  157.7280 C   0  0  0  0  0  0  0  0  0  0  0  0
  149.6080  141.3772  158.7039 O   0  0  0  0  0  0  0  0  0  0  0  0
  149.7423  140.2924  156.5459 C   0  0  0  0  0  0  0  0  0  0  0  0
  148.5502  140.8925  155.9293 N   0  0  0  0  0  0  0  0  0  0  0  0
  147.4224  141.0315  156.8468 N   0  5  0  0  0  0  0  0  0  0  0  0
  146.2703  141.5977  156.3994 C   0  0  0  0  0  0  0  0  0  0  0  0
  145.2867  141.7634  157.1171 O   0  0  0  0  0  0  0  0  0  0  0  0
  146.2092  142.0179  155.0093 C   0  0  0  0  0  0  0  0  0  0  0  0
  147.2583  141.8567  154.1790 C   0  0  0  0  0  0  0  0  0  0  0  0
  148.5149  141.2610  154.6168 C   0  0  0  0  0  0  0  0  0  0  0  0
  149.4744  141.1054  153.8614 O   0  0  0  0  0  0  0  0  0  0  0  0
  151.6201  143.5713  158.9401 C   0  0  2  0  0  0  0  0  0  0  0  0
  151.4514  144.4443  157.6769 C   0  0  0  0  0  0  0  0  0  0  0  0
  150.6105  145.4258  160.8080 H   0  0  0  0  0  0  0  0  0  0  0  0
  151.6245  146.3665  159.7128 H   0  0  0  0  0  0  0  0  0  0  0  0
  152.1458  146.0876  161.3577 H   0  0  0  0  0  0  0  0  0  0  0  0
  153.3451  144.6143  159.7101 H   0  0  0  0  0  0  0  0  0  0  0  0
  153.1286  143.9588  162.0758 H   0  0  0  0  0  0  0  0  0  0  0  0
  151.6010  143.1763  161.7524 H   0  0  0  0  0  0  0  0  0  0  0  0
  154.3172  142.3704  160.6038 H   0  0  0  0  0  0  0  0  0  0  0  0
  153.4204  141.5068  161.8317 H   0  0  0  0  0  0  0  0  0  0  0  0
  153.1131  140.4656  159.5964 H   0  0  0  0  0  0  0  0  0  0  0  0
  151.5934  141.0347  160.2441 H   0  0  0  0  0  0  0  0  0  0  0  0
  153.3232  142.4898  158.1883 H   0  0  0  0  0  0  0  0  0  0  0  0
  152.0824  141.2052  156.7735 H   0  0  0  0  0  0  0  0  0  0  0  0
  150.5314  140.1712  155.8022 H   0  0  0  0  0  0  0  0  0  0  0  0
  149.5112  139.2817  156.8884 H   0  0  0  0  0  0  0  0  0  0  0  0
  145.3019  142.4673  154.6335 H   0  0  0  0  0  0  0  0  0  0  0  0
  147.1679  142.1824  153.1535 H   0  0  0  0  0  0  0  0  0  0  0  0
  150.6207  143.3228  159.3011 H   0  0  0  0  0  0  0  0  0  0  0  0
  152.4180  144.7682  157.2899 H   0  0  0  0  0  0  0  0  0  0  0  0
  150.8543  145.3338  157.8737 H   0  0  0  0  0  0  0  0  0  0  0  0
  150.9405  143.9088  156.8768 H   0  0  0  0  0  0  0  0  0  0  0  0
  1  2  1  0  0  0  0
  1 21  1  0  0  0  0
  1 22  1  0  0  0  0
  1 23  1  0  0  0  0
  2 19  1  0  0  0  0
  2  3  1  0  0  0  0
  2 24  1  0  0  0  0
  3  4  1  0  0  0  0
  3 25  1  0  0  0  0
  3 26  1  0  0  0  0
  4  5  1  0  0  0  0
  4 27  1  0  0  0  0
  4 28  1  0  0  0  0
  5  6  1  0  0  0  0
  5 29  1  0  0  0  0
  5 30  1  0  0  0  0
  6  7  1  0  0  0  0
  6 19  1  0  0  0  0
  6 31  1  0  0  0  0
  7  8  1  0  0  0  0
  7 32  1  0  0  0  0
  8  9  2  0  0  0  0
  8 10  1  0  0  0  0
 10 33  1  0  0  0  0
 10 34  1  0  0  0  0
 10 11  1  0  0  0  0
 11 12  1  0  0  0  0
 11 17  1  0  0  0  0
 12 13  1  0  0  0  0
 13 14  2  0  0  0  0
 13 15  1  0  0  0  0
 15 35  1  0  0  0  0
 15 16  2  0  0  0  0
 16 36  1  0  0  0  0
 16 17  1  0  0  0  0
 17 18  2  0  0  0  0
 19 20  1  0  0  0  0
 19 37  1  0  0  0  0
 20 38  1  0  0  0  0
 20 39  1  0  0  0  0
 20 40  1  0  0  0  0
M  CHG  1  12  -1
M  END
> <s_m_source_file>
AV-unprocessed.smi

> <i_m_source_file_index>
1464

> <i_lp_mmshare_version>
43012

> <i_f3d_flags>
0

> <s_epik_input>
W0NIM11bQ0BASF0xW0NIMl1bQ0gyXVtDSDJdW0NASF0oW0NASF0xW0NIM10pW05IXUMoPU8pW0NIMl1uMltuSF1jKD1PKVtjSF1bY0hdYzI9Tw==

> <s_epik_cmdline>
J2VwaWtfcHl0aG9uJywgJy1waCcsICc3LjAnLCAnLXRuJywgJzgnLCAnLW1hJywgJzIwMCcsICctbWV0YWxfYmluZGluZycsICctaW1hZScsICc8aW5maWxlLm1hZT4nLCAnLW9tYWUnLCAnPG91dGZpbGUubWFlPic=

> <r_lp_tautomer_probability>
1

> <r_epik_Ionization_Penalty>
0.101366

> <r_epik_Ionization_Penalty_Charging>
0.101366

> <r_epik_Ionization_Penalty_Neutral>
1.90469e-08

> <r_epik_State_Penalty>
0.035861

> <r_epik_Charging_Adjusted_Penalty>
0.137227

> <i_epik_Tot_Q>
-1

> <i_epik_Tot_abs_Q>
1

> <r_epik_Metal_State_Penalty>
0.035861

> <b_epik_Metal_Only>
0

> <s_lp_Force_Field>
OPLS_2005

> <r_lp_Energy>
28.8284

> <b_lp_Chiralities_Consistent>
1

> <s_lp_Variant>
AV-unprocessed.smi:1464-6

> <Gold.Version>
5.8.1

> <Gold.Id.Protein>
6NUR|6NUR_protein|mol2

> <Gold.PLP.Fitness>
45.1402

> <Gold.PLP.PLP>
-41.3869

> <Gold.PLP.part.hbond>
-2.6560

> <Gold.PLP.part.metal>
0.0000

> <Gold.PLP.part.buried>
-5.7866

> <Gold.PLP.part.nonpolar>
-36.0356

> <Gold.PLP.part.repulsive>
2.3356

> <Gold.PLP.ligand.clash>
0.0000

> <Gold.PLP.ligand.torsion>
0.0484

> <Gold.PLP.Chemscore.Hbond>
1.2800

> <Gold.PLP.Chemscore.CHOScore>
0.0000

> <Gold.PLP.Chemscore.Metal>
0.0000

> <Gold.Chemscore.Hbonds>
donor molecule, donor type, donor heavy atom, donor atom, acceptor molecule, acceptor atom, score
      P1  H  7989  7998       L1    18  0.22
      P1  H  8011  8017       L1    18  0.89

> <Gold.PLP.Chemscore.Internal.Correction>
0.0100

> <Gold.Rescore>
     Score         DG    S(hbond)    S(metal)    S(lipo)     H(rot)  DE(clash)    DE(int)     intcor
     14.39     -17.89       1.22        0.00     107.36       1.64       1.32       2.19       ----

> <Gold.Chemscore.Fitness>
14.3875

> <Gold.Chemscore.DG>
-17.8922

> <Gold.Chemscore.ZeroCoef>
-5.4800

> <Gold.Chemscore.Hbond>
1.2152

> <Gold.Chemscore.Metal>
0.0000

> <Gold.Chemscore.Lipo>
107.3636

> <Gold.Chemscore.Internal_Hbond>
0.0000

> <Gold.Chemscore.DEClash>
1.3171

> <Gold.Chemscore.DEInternal>
2.1875

> <Gold.Chemscore.Rot>
1.6438

> <Gold.Chemscore.Internal.Correction>
   9.000000E+99

> <Gold.Chemscore.Hbonds>
donor molecule, donor type, donor heavy atom, donor atom, acceptor molecule, acceptor atom, score
      P1  H  7989  7998       L1    18  0.22
      P1  H  8011  8017       L1    18  0.80

> <Gold.Chemscore.Hbond.Weighted>
-4.0586

> <Gold.Chemscore.Metal.Weighted>
-0.0000

> <Gold.Chemscore.Lipo.Weighted>
-12.5615

> <Gold.Chemscore.Internal_Hbond.Weighted>
0.0000

> <Gold.Chemscore.DEClash.Weighted>
1.3171

> <Gold.Chemscore.DEInternal.Weighted>
2.1875

> <Gold.Chemscore.Rot.Weighted>
4.2080

> <Gold.Chemscore.Internal.Correction.Weighted>
   9.000000E+99

> <Gold.Protein.RotatedTorsions>
[ 6907 6896 6895 6894 ] final -130.51 input  -60.11 | X-H torsion
[ 7974 7965 7964 7962 ] final    4.99 input  175.53 | X-H torsion
[ 8008 7997 7996 7995 ] final -148.54 input   59.86 | X-H torsion
[ 10167 10162 10161 10158 ] final   16.91 input  -65.29 | X-H torsion
[ 10718 10713 10712 10709 ] final   95.71 input   66.30 | X-H torsion
[ 10763 10752 10751 10750 ] final  -58.16 input  -60.55 | X-H torsion
[ 11005 11000 10999 10996 ] final   56.80 input  -57.11 | X-H torsion

> <Gold.Protein.ActiveResidues>
 VAL166  LYS551  ARG553  GLY616  TRP617  ASP618  TYR619  PRO620  LYS621  CYS622 
 ASP623  PHE694  ASN695  SER759  ASP760  ASP761  ALA762  ILE779  LEU786  VAL792 
 PHE793  MET794  SER795  GLU796  ALA797  LYS798  CYS799  TRP800  GLU811  SER814 

> <Gold.Protein.RotatedAtoms>
  150.9405  133.6662  159.2791 H   0  0  0  0  0  0  0  0  0  0  0  0  # atno 6907 bound_to 6896
  151.4052  135.0976  159.9578 H   0  0  0  0  0  0  0  0  0  0  0  0  # atno 6908 bound_to 6896
  152.5067  133.8890  159.7439 H   0  0  0  0  0  0  0  0  0  0  0  0  # atno 6909 bound_to 6896
  146.2442  140.0452  142.8379 H   0  0  0  0  0  0  0  0  0  0  0  0  # atno 7974 bound_to 7965
  155.5932  140.0654  157.2753 H   0  0  0  0  0  0  0  0  0  0  0  0  # atno 8008 bound_to 7997
  154.4299  140.1831  156.1143 H   0  0  0  0  0  0  0  0  0  0  0  0  # atno 8009 bound_to 7997
  156.0216  140.3316  155.7049 H   0  0  0  0  0  0  0  0  0  0  0  0  # atno 8010 bound_to 7997
  140.5764  143.9064  150.6753 H   0  0  0  0  0  0  0  0  0  0  0  0  # atno 10167 bound_to 10162
  157.6935  131.0554  150.4381 H   0  0  0  0  0  0  0  0  0  0  0  0  # atno 10718 bound_to 10713
  154.2338  135.6356  153.5184 H   0  0  0  0  0  0  0  0  0  0  0  0  # atno 10763 bound_to 10752
  152.9943  135.5526  154.5984 H   0  0  0  0  0  0  0  0  0  0  0  0  # atno 10764 bound_to 10752
  154.5473  135.2899  155.1015 H   0  0  0  0  0  0  0  0  0  0  0  0  # atno 10765 bound_to 10752
  140.0501  134.5749  155.9274 H   0  0  0  0  0  0  0  0  0  0  0  0  # atno 11005 bound_to 11000
  145.1034  140.9360  143.4699 LP  0  0  0  0  0  0  0  0  0  0  0  0  # atno 17320 bound_to 7965
  145.0650  139.3076  143.5861 LP  0  0  0  0  0  0  0  0  0  0  0  0  # atno 17321 bound_to 7965
  140.2553  143.3563  152.1370 LP  0  0  0  0  0  0  0  0  0  0  0  0  # atno 17342 bound_to 10162
  139.5145  144.6949  151.5659 LP  0  0  0  0  0  0  0  0  0  0  0  0  # atno 17343 bound_to 10162
  156.4742  130.4059  149.6500 LP  0  0  0  0  0  0  0  0  0  0  0  0  # atno 17370 bound_to 10713
  156.3569  130.7461  151.2428 LP  0  0  0  0  0  0  0  0  0  0  0  0  # atno 17371 bound_to 10713
  141.1926  133.6576  156.5510 LP  0  0  0  0  0  0  0  0  0  0  0  0  # atno 17394 bound_to 11000
  140.3931  134.7423  157.4733 LP  0  0  0  0  0  0  0  0  0  0  0  0  # atno 17395 bound_to 11000

$$$$
