AV-unprocessed.smi:2923|AV-procd|sdf|11208|dock3
  -GOLD-   2272016103D 1   1.00000     0.00000
 Structure written by MMmdl.
 47 49  0  0  0  0  0  0  0  0  2 V2000
  149.1594  127.9801  154.2188 C   0  0  0  0  0  0  0  0  0  0  0  0
  148.2835  128.9026  153.5048 N   0  0  0  0  0  0  0  0  0  0  0  0
  147.2073  128.3943  152.6646 C   0  0  0  0  0  0  0  0  0  0  0  0
  148.4932  130.2944  153.6123 C   0  0  0  0  0  0  0  0  0  0  0  0
  149.4995  130.8668  154.4285 C   0  0  0  0  0  0  0  0  0  0  0  0
  149.6425  132.2682  154.4865 C   0  0  0  0  0  0  0  0  0  0  0  0
  148.7894  133.0946  153.7257 C   0  0  0  0  0  0  0  0  0  0  0  0
  148.9637  134.5011  153.8345 N   0  0  0  0  0  0  0  0  0  0  0  0
  149.3245  135.2250  154.9082 C   0  0  0  0  0  0  0  0  0  0  0  0
  149.5150  134.7786  156.0389 O   0  0  0  0  0  0  0  0  0  0  0  0
  149.4436  136.5223  154.5979 N   0  0  0  0  0  0  0  0  0  0  0  0
  149.8461  137.5619  155.5376 C   0  0  2  0  0  0  0  0  0  0  0  0
  149.6178  138.9683  154.9830 C   0  0  1  0  0  0  0  0  0  0  0  0
  148.7227  140.1010  155.3399 C   0  0  0  0  0  0  0  0  0  0  0  0
  149.7830  141.2335  155.2834 C   0  0  0  0  0  0  0  0  0  0  0  0
  151.0681  140.5709  155.1903 O   0  0  0  0  0  0  0  0  0  0  0  0
  150.8453  139.3168  155.8014 C   0  0  2  0  0  0  0  0  0  0  0  0
  151.3820  137.9084  155.4759 C   0  0  0  0  0  0  0  0  0  0  0  0
  152.2416  137.2723  156.5686 C   0  0  0  0  0  0  0  0  0  0  0  0
  152.1553  137.7231  154.1544 C   0  0  0  0  0  0  0  0  0  0  0  0
  147.7959  132.4758  152.9301 C   0  0  0  0  0  0  0  0  0  0  0  0
  147.6925  131.1295  152.9058 N   0  3  0  0  0  0  0  0  0  0  0  0
  150.1962  128.1176  153.9100 H   0  0  0  0  0  0  0  0  0  0  0  0
  148.8886  126.9426  154.0224 H   0  0  0  0  0  0  0  0  0  0  0  0
  149.0929  128.1442  155.2948 H   0  0  0  0  0  0  0  0  0  0  0  0
  147.3356  128.7246  151.6334 H   0  0  0  0  0  0  0  0  0  0  0  0
  146.2411  128.7465  153.0268 H   0  0  0  0  0  0  0  0  0  0  0  0
  147.1854  127.3044  152.6637 H   0  0  0  0  0  0  0  0  0  0  0  0
  150.1661  130.2534  155.0159 H   0  0  0  0  0  0  0  0  0  0  0  0
  150.4079  132.7026  155.1133 H   0  0  0  0  0  0  0  0  0  0  0  0
  148.7744  135.0262  152.9933 H   0  0  0  0  0  0  0  0  0  0  0  0
  149.2620  136.8102  153.6475 H   0  0  0  0  0  0  0  0  0  0  0  0
  149.4533  137.4304  156.5502 H   0  0  0  0  0  0  0  0  0  0  0  0
  149.8029  138.9858  153.9062 H   0  0  0  0  0  0  0  0  0  0  0  0
  147.9147  140.2464  154.6225 H   0  0  0  0  0  0  0  0  0  0  0  0
  148.2979  139.9872  156.3382 H   0  0  0  0  0  0  0  0  0  0  0  0
  149.6434  141.8795  154.4162 H   0  0  0  0  0  0  0  0  0  0  0  0
  149.7377  141.8535  156.1795 H   0  0  0  0  0  0  0  0  0  0  0  0
  150.6429  139.4401  156.8717 H   0  0  0  0  0  0  0  0  0  0  0  0
  153.2121  137.7626  156.6503 H   0  0  0  0  0  0  0  0  0  0  0  0
  152.4208  136.2145  156.3739 H   0  0  0  0  0  0  0  0  0  0  0  0
  151.7627  137.3404  157.5455 H   0  0  0  0  0  0  0  0  0  0  0  0
  153.1067  138.2551  154.1801 H   0  0  0  0  0  0  0  0  0  0  0  0
  151.6204  138.0838  153.2776 H   0  0  0  0  0  0  0  0  0  0  0  0
  152.3787  136.6717  153.9705 H   0  0  0  0  0  0  0  0  0  0  0  0
  147.0699  132.9934  152.3218 H   0  0  0  0  0  0  0  0  0  0  0  0
  146.9643  130.7174  152.3222 H   0  0  0  0  0  0  0  0  0  0  0  0
  1  2  1  0  0  0  0
  1 23  1  0  0  0  0
  1 24  1  0  0  0  0
  1 25  1  0  0  0  0
  2  3  1  0  0  0  0
  2  4  1  0  0  0  0
  3 26  1  0  0  0  0
  3 27  1  0  0  0  0
  3 28  1  0  0  0  0
  4 22  1  0  0  0  0
  4  5  2  0  0  0  0
  5  6  1  0  0  0  0
  5 29  1  0  0  0  0
  6  7  2  0  0  0  0
  6 30  1  0  0  0  0
  7  8  1  0  0  0  0
  7 21  1  0  0  0  0
  8  9  1  0  0  0  0
  8 31  1  0  0  0  0
  9 10  2  0  0  0  0
  9 11  1  0  0  0  0
 11 12  1  0  0  0  0
 11 32  1  0  0  0  0
 12 18  1  0  0  0  0
 12 13  1  0  0  0  0
 12 33  1  0  0  0  0
 13 17  1  0  0  0  0
 13 14  1  0  0  0  0
 13 34  1  0  0  0  0
 14 15  1  0  0  0  0
 14 35  1  0  0  0  0
 14 36  1  0  0  0  0
 15 16  1  0  0  0  0
 15 37  1  0  0  0  0
 15 38  1  0  0  0  0
 16 17  1  0  0  0  0
 17 18  1  0  0  0  0
 17 39  1  0  0  0  0
 18 19  1  0  0  0  0
 18 20  1  0  0  0  0
 19 40  1  0  0  0  0
 19 41  1  0  0  0  0
 19 42  1  0  0  0  0
 20 43  1  0  0  0  0
 20 44  1  0  0  0  0
 20 45  1  0  0  0  0
 21 22  2  0  0  0  0
 21 46  1  0  0  0  0
 22 47  1  0  0  0  0
M  CHG  1  22   1
M  END
> <s_m_source_file>
AV-unprocessed.smi

> <i_m_source_file_index>
2923

> <i_lp_mmshare_version>
43012

> <i_f3d_flags>
0

> <s_epik_input>
W0NIM11OKFtDSDNdKWMxW2NIXVtjSF1jKFtjSF1uMSlbTkhdQyg9TylbTkhdW0NASF0yQyhbQ0gzXSkoW0NIM10pW0NAQEhdKFtDQEhdMjMpT1tDSDJdW0NIMl0z

> <s_epik_cmdline>
J2VwaWtfcHl0aG9uJywgJy1waCcsICc3LjAnLCAnLXRuJywgJzgnLCAnLW1hJywgJzIwMCcsICctbWV0YWxfYmluZGluZycsICctaW1hZScsICc8aW5maWxlLm1hZT4nLCAnLW9tYWUnLCAnPG91dGZpbGUubWFlPic=

> <r_lp_tautomer_probability>
0.999994

> <r_epik_Ionization_Penalty>
0.252205

> <r_epik_Ionization_Penalty_Charging>
0.252185

> <r_epik_Ionization_Penalty_Neutral>
1.99479e-05

> <r_epik_State_Penalty>
0.243573

> <r_epik_Charging_Adjusted_Penalty>
0.495758

> <i_epik_Tot_Q>
1

> <i_epik_Tot_abs_Q>
1

> <r_epik_Metal_State_Penalty>
0.534372

> <b_epik_Metal_Only>
0

> <s_lp_Force_Field>
OPLS_2005

> <r_lp_Energy>
68.0101

> <b_lp_Chiralities_Consistent>
1

> <s_lp_Variant>
AV-unprocessed.smi:2923-7

> <Gold.Version>
5.8.1

> <Gold.Id.Protein>
6NUR|6NUR_protein|mol2

> <Gold.PLP.Fitness>
41.1733

> <Gold.PLP.PLP>
-33.3458

> <Gold.PLP.part.hbond>
-4.0000

> <Gold.PLP.part.metal>
0.0000

> <Gold.PLP.part.buried>
-1.7246

> <Gold.PLP.part.nonpolar>
-27.5450

> <Gold.PLP.part.repulsive>
0.1057

> <Gold.PLP.ligand.clash>
0.0000

> <Gold.PLP.ligand.torsion>
0.4814

> <Gold.PLP.Chemscore.Hbond>
2.8400

> <Gold.PLP.Chemscore.CHOScore>
0.0000

> <Gold.PLP.Chemscore.Metal>
0.0000

> <Gold.Chemscore.Hbonds>
donor molecule, donor type, donor heavy atom, donor atom, acceptor molecule, acceptor atom, score
      L1  H     8    31       P1  7948  1.00
      L1  H    11    32       P1  7948  0.91
      P1  H  7989  7998       L1    16  0.93

> <Gold.PLP.Chemscore.Internal.Correction>
0.2704

> <Gold.Rescore>
     Score         DG    S(hbond)    S(metal)    S(lipo)     H(rot)  DE(clash)    DE(int)     intcor
     17.78     -19.63       2.35        0.00      75.77       1.00       0.23       1.61       ----

> <Gold.Chemscore.Fitness>
17.7837

> <Gold.Chemscore.DG>
-19.6260

> <Gold.Chemscore.ZeroCoef>
-5.4800

> <Gold.Chemscore.Hbond>
2.3475

> <Gold.Chemscore.Metal>
0.0000

> <Gold.Chemscore.Lipo>
75.7721

> <Gold.Chemscore.Internal_Hbond>
0.0000

> <Gold.Chemscore.DEClash>
0.2306

> <Gold.Chemscore.DEInternal>
1.6117

> <Gold.Chemscore.Rot>
1.0000

> <Gold.Chemscore.Internal.Correction>
   9.000000E+99

> <Gold.Chemscore.Hbonds>
donor molecule, donor type, donor heavy atom, donor atom, acceptor molecule, acceptor atom, score
      L1  H     8    31       P1  7948  0.34
      L1  H    11    32       P1  7948  0.87
      P1  H  7989  7998       L1    16  0.45

> <Gold.Chemscore.Hbond.Weighted>
-7.8407

> <Gold.Chemscore.Metal.Weighted>
-0.0000

> <Gold.Chemscore.Lipo.Weighted>
-8.8653

> <Gold.Chemscore.Internal_Hbond.Weighted>
0.0000

> <Gold.Chemscore.DEClash.Weighted>
0.2306

> <Gold.Chemscore.DEInternal.Weighted>
1.6117

> <Gold.Chemscore.Rot.Weighted>
2.5600

> <Gold.Chemscore.Internal.Correction.Weighted>
   9.000000E+99

> <Gold.Protein.RotatedTorsions>
[ 6907 6896 6895 6894 ] final -148.93 input  -60.11 | X-H torsion
[ 7974 7965 7964 7962 ] final  132.01 input  175.53 | X-H torsion
[ 8008 7997 7996 7995 ] final  124.65 input   59.86 | X-H torsion
[ 10167 10162 10161 10158 ] final   24.50 input  -65.29 | X-H torsion
[ 10718 10713 10712 10709 ] final -151.41 input   66.30 | X-H torsion
[ 10763 10752 10751 10750 ] final -145.95 input  -60.55 | X-H torsion
[ 11005 11000 10999 10996 ] final -150.65 input  -57.11 | X-H torsion

> <Gold.Protein.ActiveResidues>
 VAL166  LYS551  ARG553  GLY616  TRP617  ASP618  TYR619  PRO620  LYS621  CYS622 
 ASP623  PHE694  ASN695  SER759  ASP760  ASP761  ALA762  ILE779  LEU786  VAL792 
 PHE793  MET794  SER795  GLU796  ALA797  LYS798  CYS799  TRP800  GLU811  SER814 

> <Gold.Protein.RotatedAtoms>
  151.1769  133.4749  159.2593 H   0  0  0  0  0  0  0  0  0  0  0  0  # atno 6907 bound_to 6896
  151.1299  135.0124  159.8587 H   0  0  0  0  0  0  0  0  0  0  0  0  # atno 6908 bound_to 6896
  152.5459  134.1673  159.8635 H   0  0  0  0  0  0  0  0  0  0  0  0  # atno 6909 bound_to 6896
  145.0013  139.4309  143.5290 H   0  0  0  0  0  0  0  0  0  0  0  0  # atno 7974 bound_to 7965
  156.2808  140.2734  156.1823 H   0  0  0  0  0  0  0  0  0  0  0  0  # atno 8008 bound_to 7997
  155.0543  140.0386  157.2573 H   0  0  0  0  0  0  0  0  0  0  0  0  # atno 8009 bound_to 7997
  154.7169  140.2680  155.6583 H   0  0  0  0  0  0  0  0  0  0  0  0  # atno 8010 bound_to 7997
  140.5183  144.0045  150.6404 H   0  0  0  0  0  0  0  0  0  0  0  0  # atno 10167 bound_to 10162
  156.4588  130.8203  151.2434 H   0  0  0  0  0  0  0  0  0  0  0  0  # atno 10718 bound_to 10713
  154.8359  135.3399  154.6584 H   0  0  0  0  0  0  0  0  0  0  0  0  # atno 10763 bound_to 10752
  153.7199  135.6959  153.5020 H   0  0  0  0  0  0  0  0  0  0  0  0  # atno 10764 bound_to 10752
  153.2389  135.4391  155.0629 H   0  0  0  0  0  0  0  0  0  0  0  0  # atno 10765 bound_to 10752
  140.7380  134.3547  157.5153 H   0  0  0  0  0  0  0  0  0  0  0  0  # atno 11005 bound_to 11000
  146.3452  139.9403  142.8742 LP  0  0  0  0  0  0  0  0  0  0  0  0  # atno 17320 bound_to 7965
  145.2149  140.9911  143.4079 LP  0  0  0  0  0  0  0  0  0  0  0  0  # atno 17321 bound_to 7965
  140.3387  143.3033  152.0611 LP  0  0  0  0  0  0  0  0  0  0  0  0  # atno 17342 bound_to 10162
  139.4916  144.6458  151.6782 LP  0  0  0  0  0  0  0  0  0  0  0  0  # atno 17343 bound_to 10162
  157.7499  131.0114  150.3343 LP  0  0  0  0  0  0  0  0  0  0  0  0  # atno 17370 bound_to 10713
  156.3738  130.3868  149.7155 LP  0  0  0  0  0  0  0  0  0  0  0  0  # atno 17371 bound_to 10713
  139.8812  134.9062  156.2916 LP  0  0  0  0  0  0  0  0  0  0  0  0  # atno 17394 bound_to 11000
  140.9862  133.7236  156.0746 LP  0  0  0  0  0  0  0  0  0  0  0  0  # atno 17395 bound_to 11000

$$$$
