AV-unprocessed.smi:2671|AV-procd|sdf|10353|dock8
  -GOLD-   2272014383D 1   1.00000     0.00000
 Structure written by MMmdl.
 29 30  0  0  0  0  0  0  0  0  1 V2000
  151.7310  137.1241  154.1752 O   0  0  0  0  0  0  0  0  0  0  0  0
  151.1644  138.2027  154.7877 C   0  0  0  0  0  0  0  0  0  0  0  0
  149.9287  138.7013  154.3256 C   0  0  0  0  0  0  0  0  0  0  0  0
  149.4028  139.8212  155.0101 C   0  0  0  0  0  0  0  0  0  0  0  0
  148.0790  140.4599  154.6189 C   0  0  0  0  0  0  0  0  0  0  0  0
  148.2851  141.7160  154.2224 F   0  0  0  0  0  0  0  0  0  0  0  0
  147.4888  139.7943  153.6251 F   0  0  0  0  0  0  0  0  0  0  0  0
  147.2573  140.4684  155.6684 F   0  0  0  0  0  0  0  0  0  0  0  0
  150.0567  140.3800  156.0543 N   0  0  0  0  0  0  0  0  0  0  0  0
  151.2172  139.8230  156.4029 C   0  0  0  0  0  0  0  0  0  0  0  0
  152.0433  140.5982  157.7831 S   0  0  0  0  0  0  0  0  0  0  0  0
  151.4120  142.3032  157.7296 C   0  0  0  0  0  0  0  0  0  0  0  0
  152.0906  143.1941  158.7786 C   0  0  1  0  0  0  0  0  0  0  0  0
  151.8502  144.6937  158.5961 C   0  0  0  0  0  0  0  0  0  0  0  0
  151.9634  145.2544  160.0063 C   0  0  0  0  0  0  0  0  0  0  0  0
  151.9580  144.0153  160.9055 C   0  0  0  0  0  0  0  0  0  0  0  0
  151.5387  142.9523  160.0623 O   0  0  0  0  0  0  0  0  0  0  0  0
  151.8071  138.7699  155.8309 N   0  0  0  0  0  0  0  0  0  0  0  0
  151.3900  136.9696  153.3080 H   0  0  0  0  0  0  0  0  0  0  0  0
  149.4150  138.2470  153.4913 H   0  0  0  0  0  0  0  0  0  0  0  0
  151.5615  142.7163  156.7314 H   0  0  0  0  0  0  0  0  0  0  0  0
  150.3375  142.2835  157.9133 H   0  0  0  0  0  0  0  0  0  0  0  0
  153.1616  142.9860  158.8170 H   0  0  0  0  0  0  0  0  0  0  0  0
  152.5577  145.1485  157.9022 H   0  0  0  0  0  0  0  0  0  0  0  0
  150.8444  144.8733  158.2135 H   0  0  0  0  0  0  0  0  0  0  0  0
  152.8808  145.8280  160.1419 H   0  0  0  0  0  0  0  0  0  0  0  0
  151.1211  145.9111  160.2268 H   0  0  0  0  0  0  0  0  0  0  0  0
  152.9630  143.8045  161.2738 H   0  0  0  0  0  0  0  0  0  0  0  0
  151.2964  144.1226  161.7653 H   0  0  0  0  0  0  0  0  0  0  0  0
  1  2  1  0  0  0  0
  1 19  1  0  0  0  0
  2 18  1  0  0  0  0
  2  3  2  0  0  0  0
  3  4  1  0  0  0  0
  3 20  1  0  0  0  0
  4  5  1  0  0  0  0
  4  9  2  0  0  0  0
  5  6  1  0  0  0  0
  5  7  1  0  0  0  0
  5  8  1  0  0  0  0
  9 10  1  0  0  0  0
 10 11  1  0  0  0  0
 10 18  2  0  0  0  0
 11 12  1  0  0  0  0
 12 13  1  0  0  0  0
 12 21  1  0  0  0  0
 12 22  1  0  0  0  0
 13 17  1  0  0  0  0
 13 14  1  0  0  0  0
 13 23  1  0  0  0  0
 14 15  1  0  0  0  0
 14 24  1  0  0  0  0
 14 25  1  0  0  0  0
 15 16  1  0  0  0  0
 15 26  1  0  0  0  0
 15 27  1  0  0  0  0
 16 17  1  0  0  0  0
 16 28  1  0  0  0  0
 16 29  1  0  0  0  0
M  END
> <s_m_source_file>
AV-unprocessed.smi

> <i_m_source_file_index>
2671

> <i_lp_mmshare_version>
43012

> <i_f3d_flags>
0

> <s_epik_input>
W09IXWMxW2NIXWMoQyhGKShGKUYpbmMobjEpU1tDSDJdW0NAQEhdMltDSDJdW0NIMl1bQ0gyXU8y

> <s_epik_cmdline>
J2VwaWtfcHl0aG9uJywgJy1waCcsICc3LjAnLCAnLXRuJywgJzgnLCAnLW1hJywgJzIwMCcsICctbWV0YWxfYmluZGluZycsICctaW1hZScsICc8aW5maWxlLm1hZT4nLCAnLW9tYWUnLCAnPG91dGZpbGUubWFlPic=

> <r_lp_tautomer_probability>
0.0660145

> <r_epik_Ionization_Penalty>
3.60098

> <r_epik_Ionization_Penalty_Charging>
0

> <r_epik_Ionization_Penalty_Neutral>
3.60098

> <r_epik_State_Penalty>
2.71709

> <r_epik_Charging_Adjusted_Penalty>
2.71709

> <i_epik_Tot_Q>
0

> <i_epik_Tot_abs_Q>
0

> <r_epik_Metal_State_Penalty>
3.44057

> <b_epik_Metal_Only>
0

> <s_lp_Force_Field>
OPLS_2005

> <r_lp_Energy>
10.3894

> <b_lp_Chiralities_Consistent>
1

> <s_lp_Variant>
AV-unprocessed.smi:2671-8

> <Gold.Version>
5.8.1

> <Gold.Id.Protein>
6NUR|6NUR_protein|mol2

> <Gold.PLP.Fitness>
46.0453

> <Gold.PLP.PLP>
-41.0497

> <Gold.PLP.part.hbond>
-2.1984

> <Gold.PLP.part.metal>
0.0000

> <Gold.PLP.part.buried>
-4.3510

> <Gold.PLP.part.nonpolar>
-33.6620

> <Gold.PLP.part.repulsive>
0.0461

> <Gold.PLP.ligand.clash>
0.0000

> <Gold.PLP.ligand.torsion>
0.5082

> <Gold.PLP.Chemscore.Hbond>
2.0000

> <Gold.PLP.Chemscore.CHOScore>
0.0000

> <Gold.PLP.Chemscore.Metal>
0.0000

> <Gold.Chemscore.Hbonds>
donor molecule, donor type, donor heavy atom, donor atom, acceptor molecule, acceptor atom, score
      L1  H     1    19       P1  7949  0.88
      P1  H 10752 10764       L1     1  0.65

> <Gold.PLP.Chemscore.Internal.Correction>
0.0120

> <Gold.Rescore>
     Score         DG    S(hbond)    S(metal)    S(lipo)     H(rot)  DE(clash)    DE(int)     intcor
     14.09     -14.64       1.60        0.00      82.23       2.27       0.04       0.52       ----

> <Gold.Chemscore.Fitness>
14.0850

> <Gold.Chemscore.DG>
-14.6436

> <Gold.Chemscore.ZeroCoef>
-5.4800

> <Gold.Chemscore.Hbond>
1.5992

> <Gold.Chemscore.Metal>
0.0000

> <Gold.Chemscore.Lipo>
82.2289

> <Gold.Chemscore.Internal_Hbond>
0.0000

> <Gold.Chemscore.DEClash>
0.0416

> <Gold.Chemscore.DEInternal>
0.5169

> <Gold.Chemscore.Rot>
2.2650

> <Gold.Chemscore.Internal.Correction>
   9.000000E+99

> <Gold.Chemscore.Hbonds>
donor molecule, donor type, donor heavy atom, donor atom, acceptor molecule, acceptor atom, score
      L1  H     1    19       P1  7949  0.66
      P1  H 10752 10764       L1     1  0.05

> <Gold.Chemscore.Hbond.Weighted>
-5.3412

> <Gold.Chemscore.Metal.Weighted>
-0.0000

> <Gold.Chemscore.Lipo.Weighted>
-9.6208

> <Gold.Chemscore.Internal_Hbond.Weighted>
0.0000

> <Gold.Chemscore.DEClash.Weighted>
0.0416

> <Gold.Chemscore.DEInternal.Weighted>
0.5169

> <Gold.Chemscore.Rot.Weighted>
5.7984

> <Gold.Chemscore.Internal.Correction.Weighted>
   9.000000E+99

> <Gold.Protein.RotatedTorsions>
[ 6907 6896 6895 6894 ] final  132.85 input  -60.11 | X-H torsion
[ 7974 7965 7964 7962 ] final   99.98 input  175.53 | X-H torsion
[ 8008 7997 7996 7995 ] final   64.07 input   59.86 | X-H torsion
[ 10167 10162 10161 10158 ] final  -91.30 input  -65.29 | X-H torsion
[ 10718 10713 10712 10709 ] final  123.93 input   66.30 | X-H torsion
[ 10763 10752 10751 10750 ] final  -93.25 input  -60.55 | X-H torsion
[ 11005 11000 10999 10996 ] final -105.16 input  -57.11 | X-H torsion

> <Gold.Protein.ActiveResidues>
 VAL166  LYS551  ARG553  GLY616  TRP617  ASP618  TYR619  PRO620  LYS621  CYS622 
 ASP623  PHE694  ASN695  SER759  ASP760  ASP761  ALA762  ILE779  LEU786  VAL792 
 PHE793  MET794  SER795  GLU796  ALA797  LYS798  CYS799  TRP800  GLU811  SER814 

> <Gold.Protein.RotatedAtoms>
  152.3281  133.5928  159.5790 H   0  0  0  0  0  0  0  0  0  0  0  0  # atno 6907 bound_to 6896
  150.7408  133.9909  159.3615 H   0  0  0  0  0  0  0  0  0  0  0  0  # atno 6908 bound_to 6896
  151.7787  135.0768  160.0421 H   0  0  0  0  0  0  0  0  0  0  0  0  # atno 6909 bound_to 6896
  145.3916  139.2362  143.3349 H   0  0  0  0  0  0  0  0  0  0  0  0  # atno 7974 bound_to 7965
  155.6402  140.3497  155.4712 H   0  0  0  0  0  0  0  0  0  0  0  0  # atno 8008 bound_to 7997
  155.9932  140.1198  157.0641 H   0  0  0  0  0  0  0  0  0  0  0  0  # atno 8009 bound_to 7997
  154.4225  140.1115  156.5581 H   0  0  0  0  0  0  0  0  0  0  0  0  # atno 8010 bound_to 7997
  140.3463  143.2915  151.9778 H   0  0  0  0  0  0  0  0  0  0  0  0  # atno 10167 bound_to 10162
  157.5625  131.1088  150.8512 H   0  0  0  0  0  0  0  0  0  0  0  0  # atno 10718 bound_to 10713
  154.6940  135.5201  153.8432 H   0  0  0  0  0  0  0  0  0  0  0  0  # atno 10763 bound_to 10752
  153.0653  135.6583  154.0377 H   0  0  0  0  0  0  0  0  0  0  0  0  # atno 10764 bound_to 10752
  154.0247  135.2990  155.3356 H   0  0  0  0  0  0  0  0  0  0  0  0  # atno 10765 bound_to 10752
  141.1067  133.8784  157.1700 H   0  0  0  0  0  0  0  0  0  0  0  0  # atno 11005 bound_to 11000
  146.2795  140.4600  142.8782 LP  0  0  0  0  0  0  0  0  0  0  0  0  # atno 17320 bound_to 7965
  144.8436  140.6895  143.6213 LP  0  0  0  0  0  0  0  0  0  0  0  0  # atno 17321 bound_to 7965
  139.4833  144.6114  151.7426 LP  0  0  0  0  0  0  0  0  0  0  0  0  # atno 17342 bound_to 10162
  140.5262  144.0802  150.6038 LP  0  0  0  0  0  0  0  0  0  0  0  0  # atno 17343 bound_to 10162
  156.9006  130.5245  149.5283 LP  0  0  0  0  0  0  0  0  0  0  0  0  # atno 17370 bound_to 10713
  156.0676  130.5716  150.9320 LP  0  0  0  0  0  0  0  0  0  0  0  0  # atno 17371 bound_to 10713
  139.9940  135.0054  157.0040 LP  0  0  0  0  0  0  0  0  0  0  0  0  # atno 17394 bound_to 11000
  140.4885  134.1217  155.7228 LP  0  0  0  0  0  0  0  0  0  0  0  0  # atno 17395 bound_to 11000

$$$$
