AV-unprocessed.smi:2520|AV-procd|sdf|9912|dock6
  -GOLD-   2272013553D 1   1.00000     0.00000
 Structure written by MMmdl.
 41 44  0  0  0  0  0  0  0  0  1 V2000
  149.6659  134.3542  155.8857 O   0  0  0  0  0  0  0  0  0  0  0  0
  149.4187  134.8426  154.7845 C   0  0  0  0  0  0  0  0  0  0  0  0
  150.0134  135.9849  154.3789 N   0  0  0  0  0  0  0  0  0  0  0  0
  150.9614  136.8341  155.0230 C   0  0  0  0  0  0  0  0  0  0  0  0
  150.9364  138.1791  154.5961 C   0  0  0  0  0  0  0  0  0  0  0  0
  151.8415  139.0838  155.1772 C   0  0  0  0  0  0  0  0  0  0  0  0
  152.7194  138.5797  156.1515 C   0  0  0  0  0  0  0  0  0  0  0  0
  152.7131  137.2837  156.5300 N   0  0  0  0  0  0  0  0  0  0  0  0
  151.8480  136.4308  155.9722 N   0  0  0  0  0  0  0  0  0  0  0  0
  148.5599  134.2865  153.9177 N   0  0  0  0  0  0  0  0  0  0  0  0
  147.7920  133.0601  154.1280 C   0  0  1  0  0  0  0  0  0  0  0  0
  146.5827  133.2693  155.0686 C   0  0  1  0  0  0  0  0  0  0  0  0
  146.4114  134.5096  155.9120 C   0  0  0  0  0  0  0  0  0  0  0  0
  145.4843  135.3788  155.0567 C   0  0  0  0  0  0  0  0  0  0  0  0
  145.6076  134.8596  153.7338 O   0  0  0  0  0  0  0  0  0  0  0  0
  145.7216  133.4415  153.8273 C   0  0  1  0  0  0  0  0  0  0  0  0
  146.8154  132.7825  152.9608 C   0  0  0  0  0  0  0  0  0  0  0  0
  146.5677  131.3171  152.6069 C   0  0  0  0  0  0  0  0  0  0  0  0
  145.8574  131.2906  151.2496 C   0  0  0  0  0  0  0  0  0  0  0  0
  146.1549  132.6443  150.5979 C   0  0  0  0  0  0  0  0  0  0  0  0
  147.0769  133.3756  151.5756 C   0  0  0  0  0  0  0  0  0  0  0  0
  149.7503  136.2842  153.4513 H   0  0  0  0  0  0  0  0  0  0  0  0
  150.2400  138.5135  153.8408 H   0  0  0  0  0  0  0  0  0  0  0  0
  151.8616  140.1236  154.8870 H   0  0  0  0  0  0  0  0  0  0  0  0
  153.4389  139.2240  156.6346 H   0  0  0  0  0  0  0  0  0  0  0  0
  148.4187  134.7561  153.0340 H   0  0  0  0  0  0  0  0  0  0  0  0
  148.3910  132.1896  154.4011 H   0  0  0  0  0  0  0  0  0  0  0  0
  146.3352  132.3438  155.5912 H   0  0  0  0  0  0  0  0  0  0  0  0
  145.9603  134.2904  156.8798 H   0  0  0  0  0  0  0  0  0  0  0  0
  147.3599  135.0112  156.1033 H   0  0  0  0  0  0  0  0  0  0  0  0
  144.4496  135.2703  155.3843 H   0  0  0  0  0  0  0  0  0  0  0  0
  145.7463  136.4363  155.0956 H   0  0  0  0  0  0  0  0  0  0  0  0
  144.7612  132.9262  153.8727 H   0  0  0  0  0  0  0  0  0  0  0  0
  147.5195  130.7905  152.5239 H   0  0  0  0  0  0  0  0  0  0  0  0
  145.9875  130.7949  153.3685 H   0  0  0  0  0  0  0  0  0  0  0  0
  146.2048  130.4581  150.6370 H   0  0  0  0  0  0  0  0  0  0  0  0
  144.7818  131.1721  151.3848 H   0  0  0  0  0  0  0  0  0  0  0  0
  146.6132  132.5379  149.6144 H   0  0  0  0  0  0  0  0  0  0  0  0
  145.2270  133.2033  150.4707 H   0  0  0  0  0  0  0  0  0  0  0  0
  146.9174  134.4535  151.5383 H   0  0  0  0  0  0  0  0  0  0  0  0
  148.1152  133.2029  151.2889 H   0  0  0  0  0  0  0  0  0  0  0  0
  1  2  2  0  0  0  0
  2  3  1  0  0  0  0
  2 10  1  0  0  0  0
  3  4  1  0  0  0  0
  3 22  1  0  0  0  0
  4  9  1  0  0  0  0
  4  5  2  0  0  0  0
  5  6  1  0  0  0  0
  5 23  1  0  0  0  0
  6  7  2  0  0  0  0
  6 24  1  0  0  0  0
  7  8  1  0  0  0  0
  7 25  1  0  0  0  0
  8  9  2  0  0  0  0
 10 11  1  0  0  0  0
 10 26  1  0  0  0  0
 11 17  1  0  0  0  0
 11 12  1  0  0  0  0
 11 27  1  0  0  0  0
 12 16  1  0  0  0  0
 12 13  1  0  0  0  0
 12 28  1  0  0  0  0
 13 14  1  0  0  0  0
 13 29  1  0  0  0  0
 13 30  1  0  0  0  0
 14 15  1  0  0  0  0
 14 31  1  0  0  0  0
 14 32  1  0  0  0  0
 15 16  1  0  0  0  0
 16 17  1  0  0  0  0
 16 33  1  0  0  0  0
 17 21  1  0  0  0  0
 17 18  1  0  0  0  0
 18 19  1  0  0  0  0
 18 34  1  0  0  0  0
 18 35  1  0  0  0  0
 19 20  1  0  0  0  0
 19 36  1  0  0  0  0
 19 37  1  0  0  0  0
 20 21  1  0  0  0  0
 20 38  1  0  0  0  0
 20 39  1  0  0  0  0
 21 40  1  0  0  0  0
 21 41  1  0  0  0  0
M  END
> <s_m_source_file>
AV-unprocessed.smi

> <i_m_source_file_index>
2520

> <i_lp_mmshare_version>
43012

> <i_f3d_flags>
0

> <s_epik_input>
bjFuW2NIXVtjSF1bY0hdYzFbTkhdQyg9TylbTkhdW0NAQEhdMltDQEBIXShbQ0gyXVtDSDJdTzMpW0NASF0zQzI0W0NIMl1bQ0gyXVtDSDJdW0NIMl00

> <s_epik_cmdline>
J2VwaWtfcHl0aG9uJywgJy1waCcsICc3LjAnLCAnLXRuJywgJzgnLCAnLW1hJywgJzIwMCcsICctbWV0YWxfYmluZGluZycsICctaW1hZScsICc8aW5maWxlLm1hZT4nLCAnLW9tYWUnLCAnPG91dGZpbGUubWFlPic=

> <r_lp_tautomer_probability>
1

> <r_epik_Ionization_Penalty>
0.00552561

> <r_epik_Ionization_Penalty_Charging>
0

> <r_epik_Ionization_Penalty_Neutral>
0.00552561

> <r_epik_State_Penalty>
-0

> <r_epik_Charging_Adjusted_Penalty>
0

> <i_epik_Tot_Q>
0

> <i_epik_Tot_abs_Q>
0

> <r_epik_Metal_State_Penalty>
-0

> <b_epik_Metal_Only>
0

> <s_lp_Force_Field>
OPLS_2005

> <r_lp_Energy>
62.4045

> <b_lp_Chiralities_Consistent>
1

> <s_lp_Variant>
AV-unprocessed.smi:2520-6

> <Gold.Version>
5.8.1

> <Gold.Id.Protein>
6NUR|6NUR_protein|mol2

> <Gold.PLP.Fitness>
38.0496

> <Gold.PLP.PLP>
-29.7860

> <Gold.PLP.part.hbond>
-4.9392

> <Gold.PLP.part.metal>
0.0000

> <Gold.PLP.part.buried>
-1.2942

> <Gold.PLP.part.nonpolar>
-23.7364

> <Gold.PLP.part.repulsive>
0.2061

> <Gold.PLP.ligand.clash>
0.0000

> <Gold.PLP.ligand.torsion>
0.2640

> <Gold.PLP.Chemscore.Hbond>
2.8620

> <Gold.PLP.Chemscore.CHOScore>
0.0000

> <Gold.PLP.Chemscore.Metal>
0.0000

> <Gold.Chemscore.Hbonds>
donor molecule, donor type, donor heavy atom, donor atom, acceptor molecule, acceptor atom, score
      L1  H     3    22       P1  7948  0.95
      L1  H    10    26       P1  7948  0.94
      P1  H 10752 10765       L1     9  0.76

> <Gold.PLP.Chemscore.Internal.Correction>
0.2056

> <Gold.Rescore>
     Score         DG    S(hbond)    S(metal)    S(lipo)     H(rot)  DE(clash)    DE(int)     intcor
     16.63     -17.14       2.01        0.00      64.26       1.00       0.09       0.41       ----

> <Gold.Chemscore.Fitness>
16.6301

> <Gold.Chemscore.DG>
-17.1366

> <Gold.Chemscore.ZeroCoef>
-5.4800

> <Gold.Chemscore.Hbond>
2.0054

> <Gold.Chemscore.Metal>
0.0000

> <Gold.Chemscore.Lipo>
64.2613

> <Gold.Chemscore.Internal_Hbond>
0.0000

> <Gold.Chemscore.DEClash>
0.0917

> <Gold.Chemscore.DEInternal>
0.4148

> <Gold.Chemscore.Rot>
1.0000

> <Gold.Chemscore.Internal.Correction>
   9.000000E+99

> <Gold.Chemscore.Hbonds>
donor molecule, donor type, donor heavy atom, donor atom, acceptor molecule, acceptor atom, score
      L1  H     3    22       P1  7948  0.21
      L1  H    10    26       P1  7948  0.50
      P1  H 10752 10765       L1     9  0.03

> <Gold.Chemscore.Hbond.Weighted>
-6.6981

> <Gold.Chemscore.Metal.Weighted>
-0.0000

> <Gold.Chemscore.Lipo.Weighted>
-7.5186

> <Gold.Chemscore.Internal_Hbond.Weighted>
0.0000

> <Gold.Chemscore.DEClash.Weighted>
0.0917

> <Gold.Chemscore.DEInternal.Weighted>
0.4148

> <Gold.Chemscore.Rot.Weighted>
2.5600

> <Gold.Chemscore.Internal.Correction.Weighted>
   9.000000E+99

> <Gold.Protein.RotatedTorsions>
[ 6907 6896 6895 6894 ] final -132.73 input  -60.11 | X-H torsion
[ 7974 7965 7964 7962 ] final -100.30 input  175.53 | X-H torsion
[ 8008 7997 7996 7995 ] final  171.57 input   59.86 | X-H torsion
[ 10167 10162 10161 10158 ] final  -50.10 input  -65.29 | X-H torsion
[ 10718 10713 10712 10709 ] final   97.61 input   66.30 | X-H torsion
[ 10763 10752 10751 10750 ] final -168.56 input  -60.55 | X-H torsion
[ 11005 11000 10999 10996 ] final   96.07 input  -57.11 | X-H torsion

> <Gold.Protein.ActiveResidues>
 VAL166  LYS551  ARG553  GLY616  TRP617  ASP618  TYR619  PRO620  LYS621  CYS622 
 ASP623  PHE694  ASN695  SER759  ASP760  ASP761  ALA762  ILE779  LEU786  VAL792 
 PHE793  MET794  SER795  GLU796  ALA797  LYS798  CYS799  TRP800  GLU811  SER814 

> <Gold.Protein.RotatedAtoms>
  150.9658  133.6397  159.2746 H   0  0  0  0  0  0  0  0  0  0  0  0  # atno 6907 bound_to 6896
  151.3703  135.0920  159.9473 H   0  0  0  0  0  0  0  0  0  0  0  0  # atno 6908 bound_to 6896
  152.5165  133.9213  159.7590 H   0  0  0  0  0  0  0  0  0  0  0  0  # atno 6909 bound_to 6896
  145.2963  140.9366  143.2849 H   0  0  0  0  0  0  0  0  0  0  0  0  # atno 7974 bound_to 7965
  156.1258  140.1508  156.9138 H   0  0  0  0  0  0  0  0  0  0  0  0  # atno 8008 bound_to 7997
  154.4870  140.0862  156.7551 H   0  0  0  0  0  0  0  0  0  0  0  0  # atno 8009 bound_to 7997
  155.4346  140.3428  155.4286 H   0  0  0  0  0  0  0  0  0  0  0  0  # atno 8010 bound_to 7997
  140.6653  143.2671  151.4311 H   0  0  0  0  0  0  0  0  0  0  0  0  # atno 10167 bound_to 10162
  157.6909  131.0615  150.4670 H   0  0  0  0  0  0  0  0  0  0  0  0  # atno 10718 bound_to 10713
  154.6616  135.2925  154.9860 H   0  0  0  0  0  0  0  0  0  0  0  0  # atno 10763 bound_to 10752
  154.0917  135.6589  153.4857 H   0  0  0  0  0  0  0  0  0  0  0  0  # atno 10764 bound_to 10752
  153.0433  135.5221  154.7569 H   0  0  0  0  0  0  0  0  0  0  0  0  # atno 10765 bound_to 10752
  139.8784  134.8932  156.4104 H   0  0  0  0  0  0  0  0  0  0  0  0  # atno 11005 bound_to 11000
  144.9130  139.4505  143.6577 LP  0  0  0  0  0  0  0  0  0  0  0  0  # atno 17320 bound_to 7965
  146.3167  139.7949  142.8977 LP  0  0  0  0  0  0  0  0  0  0  0  0  # atno 17321 bound_to 7965
  139.5900  144.1519  152.2077 LP  0  0  0  0  0  0  0  0  0  0  0  0  # atno 17342 bound_to 10162
  140.0871  144.5652  150.7081 LP  0  0  0  0  0  0  0  0  0  0  0  0  # atno 17343 bound_to 10162
  156.5011  130.4117  149.6353 LP  0  0  0  0  0  0  0  0  0  0  0  0  # atno 17370 bound_to 10713
  156.3327  130.7340  151.2272 LP  0  0  0  0  0  0  0  0  0  0  0  0  # atno 17371 bound_to 10713
  140.9204  133.7649  155.9900 LP  0  0  0  0  0  0  0  0  0  0  0  0  # atno 17394 bound_to 11000
  140.8446  134.3026  157.5300 LP  0  0  0  0  0  0  0  0  0  0  0  0  # atno 17395 bound_to 11000

$$$$
