AV-unprocessed.smi:1858|AV-procd|sdf|7542|dock7
  -GOLD-   22720 9253D 1   1.00000     0.00000
 Structure written by MMmdl.
 48 49  0  0  0  0  0  0  0  0  1 V2000
  152.4257  143.3630  161.1862 C   0  0  0  0  0  0  0  0  0  0  0  0
  152.1963  142.6657  159.9306 N   0  0  0  0  0  0  0  0  0  0  0  0
  151.0350  142.6718  159.2525 C   0  0  0  0  0  0  0  0  0  0  0  0
  150.0562  143.3032  159.6527 O   0  0  0  0  0  0  0  0  0  0  0  0
  151.0479  141.8579  158.0336 C   0  0  0  0  0  0  0  0  0  0  0  0
  152.1159  140.8994  157.8269 C   0  0  0  0  0  0  0  0  0  0  0  0
  152.1805  140.1733  156.6932 C   0  0  0  0  0  0  0  0  0  0  0  0
  151.1836  140.3156  155.6272 C   0  0  0  0  0  0  0  0  0  0  0  0
  151.2552  139.6765  154.5776 O   0  0  0  0  0  0  0  0  0  0  0  0
  150.1747  141.2043  155.8750 N   0  0  0  0  0  0  0  0  0  0  0  0
  149.1248  141.4764  154.8817 C   0  0  0  0  0  0  0  0  0  0  0  0
  147.7380  141.3414  155.5173 C   0  0  0  0  0  0  0  0  0  0  0  0
  147.3644  140.2607  155.9717 O   0  0  0  0  0  0  0  0  0  0  0  0
  146.9846  142.4515  155.5177 N   0  0  0  0  0  0  0  0  0  0  0  0
  145.5890  142.5495  155.9363 C   0  0  0  0  0  0  0  0  0  0  0  0
  144.6543  142.7648  154.7191 C   0  0  0  0  0  0  0  0  0  0  0  0
  144.9307  143.9866  153.8202 C   0  0  0  0  0  0  0  0  0  0  0  0
  144.7701  145.3725  154.4709 C   0  0  0  0  0  0  0  0  0  0  0  0
  143.4907  145.5542  155.3128 C   0  0  0  0  0  0  0  0  0  0  0  0
  143.6987  145.4670  156.8391 C   0  0  0  0  0  0  0  0  0  0  0  0
  144.0680  144.0852  157.4192 C   0  0  0  0  0  0  0  0  0  0  0  0
  145.4886  143.6037  157.0623 C   0  0  0  0  0  0  0  0  0  0  0  0
  150.1160  141.9614  157.0621 C   0  0  0  0  0  0  0  0  0  0  0  0
  153.4425  143.1774  161.5324 H   0  0  0  0  0  0  0  0  0  0  0  0
  151.7360  143.0140  161.9555 H   0  0  0  0  0  0  0  0  0  0  0  0
  152.2973  144.4389  161.0628 H   0  0  0  0  0  0  0  0  0  0  0  0
  152.9638  142.1266  159.5569 H   0  0  0  0  0  0  0  0  0  0  0  0
  152.8757  140.7566  158.5819 H   0  0  0  0  0  0  0  0  0  0  0  0
  152.9882  139.4678  156.5645 H   0  0  0  0  0  0  0  0  0  0  0  0
  149.2163  142.4713  154.4434 H   0  0  0  0  0  0  0  0  0  0  0  0
  149.2242  140.7846  154.0431 H   0  0  0  0  0  0  0  0  0  0  0  0
  147.3948  143.2913  155.1365 H   0  0  0  0  0  0  0  0  0  0  0  0
  145.3064  141.5932  156.3803 H   0  0  0  0  0  0  0  0  0  0  0  0
  144.7223  141.8809  154.0840 H   0  0  0  0  0  0  0  0  0  0  0  0
  143.6140  142.7672  155.0394 H   0  0  0  0  0  0  0  0  0  0  0  0
  145.9262  143.9091  153.3845 H   0  0  0  0  0  0  0  0  0  0  0  0
  144.2438  143.9318  152.9750 H   0  0  0  0  0  0  0  0  0  0  0  0
  145.6537  145.6306  155.0523 H   0  0  0  0  0  0  0  0  0  0  0  0
  144.7563  146.1049  153.6628 H   0  0  0  0  0  0  0  0  0  0  0  0
  143.1020  146.5516  155.1039 H   0  0  0  0  0  0  0  0  0  0  0  0
  142.7030  144.8744  154.9873 H   0  0  0  0  0  0  0  0  0  0  0  0
  144.4452  146.2011  157.1454 H   0  0  0  0  0  0  0  0  0  0  0  0
  142.7712  145.7865  157.3155 H   0  0  0  0  0  0  0  0  0  0  0  0
  144.0209  144.1797  158.5048 H   0  0  0  0  0  0  0  0  0  0  0  0
  143.3148  143.3370  157.1741 H   0  0  0  0  0  0  0  0  0  0  0  0
  145.9266  143.1567  157.9559 H   0  0  0  0  0  0  0  0  0  0  0  0
  146.1272  144.4617  156.8550 H   0  0  0  0  0  0  0  0  0  0  0  0
  149.2753  142.6396  157.0988 H   0  0  0  0  0  0  0  0  0  0  0  0
  1  2  1  0  0  0  0
  1 24  1  0  0  0  0
  1 25  1  0  0  0  0
  1 26  1  0  0  0  0
  2  3  1  0  0  0  0
  2 27  1  0  0  0  0
  3  4  2  0  0  0  0
  3  5  1  0  0  0  0
  5 23  2  0  0  0  0
  5  6  1  0  0  0  0
  6  7  2  0  0  0  0
  6 28  1  0  0  0  0
  7  8  1  0  0  0  0
  7 29  1  0  0  0  0
  8  9  2  0  0  0  0
  8 10  1  0  0  0  0
 10 11  1  0  0  0  0
 10 23  1  0  0  0  0
 11 12  1  0  0  0  0
 11 30  1  0  0  0  0
 11 31  1  0  0  0  0
 12 13  2  0  0  0  0
 12 14  1  0  0  0  0
 14 15  1  0  0  0  0
 14 32  1  0  0  0  0
 15 22  1  0  0  0  0
 15 16  1  0  0  0  0
 15 33  1  0  0  0  0
 16 17  1  0  0  0  0
 16 34  1  0  0  0  0
 16 35  1  0  0  0  0
 17 18  1  0  0  0  0
 17 36  1  0  0  0  0
 17 37  1  0  0  0  0
 18 19  1  0  0  0  0
 18 38  1  0  0  0  0
 18 39  1  0  0  0  0
 19 20  1  0  0  0  0
 19 40  1  0  0  0  0
 19 41  1  0  0  0  0
 20 21  1  0  0  0  0
 20 42  1  0  0  0  0
 20 43  1  0  0  0  0
 21 22  1  0  0  0  0
 21 44  1  0  0  0  0
 21 45  1  0  0  0  0
 22 46  1  0  0  0  0
 22 47  1  0  0  0  0
 23 48  1  0  0  0  0
M  END
> <s_m_source_file>
AV-unprocessed.smi

> <i_m_source_file_index>
1858

> <i_lp_mmshare_version>
43012

> <i_f3d_flags>
0

> <s_epik_input>
W0NIM11bTkhdQyg9TyljMVtjSF1bY0hdYyg9TyluKFtjSF0xKVtDSDJdQyg9TylbTkhdW0NIXTJbQ0gyXVtDSDJdW0NIMl1bQ0gyXVtDSDJdW0NIMl1bQ0gyXTI=

> <s_epik_cmdline>
J2VwaWtfcHl0aG9uJywgJy1waCcsICc3LjAnLCAnLXRuJywgJzgnLCAnLW1hJywgJzIwMCcsICctbWV0YWxfYmluZGluZycsICctaW1hZScsICc8aW5maWxlLm1hZT4nLCAnLW9tYWUnLCAnPG91dGZpbGUubWFlPic=

> <r_lp_tautomer_probability>
1

> <r_epik_Ionization_Penalty>
3.70383e-07

> <r_epik_Ionization_Penalty_Charging>
5.00098e-08

> <r_epik_Ionization_Penalty_Neutral>
3.20374e-07

> <r_epik_State_Penalty>
-0

> <r_epik_Charging_Adjusted_Penalty>
5.00098e-08

> <i_epik_Tot_Q>
0

> <i_epik_Tot_abs_Q>
0

> <r_epik_Metal_State_Penalty>
-0

> <b_epik_Metal_Only>
0

> <s_lp_Force_Field>
OPLS_2005

> <r_lp_Energy>
33.6896

> <b_lp_Chiralities_Consistent>
1

> <s_lp_Variant>
AV-unprocessed.smi:1858-1

> <Gold.Version>
5.8.1

> <Gold.Id.Protein>
6NUR|6NUR_protein|mol2

> <Gold.PLP.Fitness>
41.8229

> <Gold.PLP.PLP>
-34.4155

> <Gold.PLP.part.hbond>
-3.0000

> <Gold.PLP.part.metal>
0.0000

> <Gold.PLP.part.buried>
-4.0065

> <Gold.PLP.part.nonpolar>
-27.0577

> <Gold.PLP.part.repulsive>
0.3249

> <Gold.PLP.ligand.clash>
0.0710

> <Gold.PLP.ligand.torsion>
0.2322

> <Gold.PLP.Chemscore.Hbond>
1.6268

> <Gold.PLP.Chemscore.CHOScore>
1.0000

> <Gold.PLP.Chemscore.Metal>
0.0000

> <Gold.Chemscore.Hbonds>
donor molecule, donor type, donor heavy atom, donor atom, acceptor molecule, acceptor atom, score
      L1  H    14    32       P1  8028  0.59
      P1  H  7989  7998       L1     9  1.00
      L1  C    23    48       P1  8028  0.90

> <Gold.PLP.Chemscore.Internal.Correction>
0.0626

> <Gold.Rescore>
     Score         DG    S(hbond)    S(metal)    S(lipo)     H(rot)  DE(clash)    DE(int)     intcor
     12.20     -14.46       0.97        0.00      81.33       1.48       1.93       0.34       ----

> <Gold.Chemscore.Fitness>
12.1964

> <Gold.Chemscore.DG>
-14.4590

> <Gold.Chemscore.ZeroCoef>
-5.4800

> <Gold.Chemscore.Hbond>
0.9746

> <Gold.Chemscore.Metal>
0.0000

> <Gold.Chemscore.Lipo>
81.3314

> <Gold.Chemscore.Internal_Hbond>
0.0000

> <Gold.Chemscore.DEClash>
1.9262

> <Gold.Chemscore.DEInternal>
0.3364

> <Gold.Chemscore.Rot>
1.4812

> <Gold.Chemscore.Internal.Correction>
   9.000000E+99

> <Gold.Chemscore.Hbonds>
donor molecule, donor type, donor heavy atom, donor atom, acceptor molecule, acceptor atom, score
      L1  H    14    32       P1  8028  0.10
      P1  H  7989  7998       L1     9  0.35

> <Gold.Chemscore.Hbond.Weighted>
-3.2552

> <Gold.Chemscore.Metal.Weighted>
-0.0000

> <Gold.Chemscore.Lipo.Weighted>
-9.5158

> <Gold.Chemscore.Internal_Hbond.Weighted>
0.0000

> <Gold.Chemscore.DEClash.Weighted>
1.9262

> <Gold.Chemscore.DEInternal.Weighted>
0.3364

> <Gold.Chemscore.Rot.Weighted>
3.7920

> <Gold.Chemscore.Internal.Correction.Weighted>
   9.000000E+99

> <Gold.Protein.RotatedTorsions>
[ 6907 6896 6895 6894 ] final   91.41 input  -60.11 | X-H torsion
[ 7974 7965 7964 7962 ] final  -40.89 input  175.53 | X-H torsion
[ 8008 7997 7996 7995 ] final  120.90 input   59.86 | X-H torsion
[ 10167 10162 10161 10158 ] final  137.15 input  -65.29 | X-H torsion
[ 10718 10713 10712 10709 ] final -113.76 input   66.30 | X-H torsion
[ 10763 10752 10751 10750 ] final   51.24 input  -60.55 | X-H torsion
[ 11005 11000 10999 10996 ] final    9.22 input  -57.11 | X-H torsion

> <Gold.Protein.ActiveResidues>
 VAL166  LYS551  ARG553  GLY616  TRP617  ASP618  TYR619  PRO620  LYS621  CYS622 
 ASP623  PHE694  ASN695  SER759  ASP760  ASP761  ALA762  ILE779  LEU786  VAL792 
 PHE793  MET794  SER795  GLU796  ALA797  LYS798  CYS799  TRP800  GLU811  SER814 

> <Gold.Protein.RotatedAtoms>
  152.5450  134.1661  159.8577 H   0  0  0  0  0  0  0  0  0  0  0  0  # atno 6907 bound_to 6896
  151.1675  133.4798  159.2601 H   0  0  0  0  0  0  0  0  0  0  0  0  # atno 6908 bound_to 6896
  151.1309  135.0141  159.8637 H   0  0  0  0  0  0  0  0  0  0  0  0  # atno 6909 bound_to 6896
  146.0262  140.6789  142.9154 H   0  0  0  0  0  0  0  0  0  0  0  0  # atno 7974 bound_to 7965
  156.2663  140.2820  156.1222 H   0  0  0  0  0  0  0  0  0  0  0  0  # atno 8008 bound_to 7997
  155.1143  140.0391  157.2750 H   0  0  0  0  0  0  0  0  0  0  0  0  # atno 8009 bound_to 7997
  154.6719  140.2589  155.7005 H   0  0  0  0  0  0  0  0  0  0  0  0  # atno 8010 bound_to 7997
  139.5154  144.6426  151.5529 H   0  0  0  0  0  0  0  0  0  0  0  0  # atno 10167 bound_to 10162
  156.0787  130.5990  150.8684 H   0  0  0  0  0  0  0  0  0  0  0  0  # atno 10718 bound_to 10713
  152.9785  135.5852  154.4383 H   0  0  0  0  0  0  0  0  0  0  0  0  # atno 10763 bound_to 10752
  154.3988  135.2768  155.2111 H   0  0  0  0  0  0  0  0  0  0  0  0  # atno 10764 bound_to 10752
  154.3952  135.6116  153.5920 H   0  0  0  0  0  0  0  0  0  0  0  0  # atno 10765 bound_to 10752
  140.5281  134.0493  155.7865 H   0  0  0  0  0  0  0  0  0  0  0  0  # atno 11005 bound_to 11000
  144.7010  140.3654  143.7156 LP  0  0  0  0  0  0  0  0  0  0  0  0  # atno 17320 bound_to 7965
  145.7114  139.1686  143.2536 LP  0  0  0  0  0  0  0  0  0  0  0  0  # atno 17321 bound_to 7965
  140.6198  143.9280  150.6517 LP  0  0  0  0  0  0  0  0  0  0  0  0  # atno 17342 bound_to 10162
  140.2550  143.3565  152.1373 LP  0  0  0  0  0  0  0  0  0  0  0  0  # atno 17343 bound_to 10162
  157.5894  131.0945  150.9144 LP  0  0  0  0  0  0  0  0  0  0  0  0  # atno 17370 bound_to 10713
  156.9323  130.5354  149.5279 LP  0  0  0  0  0  0  0  0  0  0  0  0  # atno 17371 bound_to 10713
  141.1296  133.9324  157.2562 LP  0  0  0  0  0  0  0  0  0  0  0  0  # atno 17394 bound_to 11000
  139.9569  135.0163  156.9153 LP  0  0  0  0  0  0  0  0  0  0  0  0  # atno 17395 bound_to 11000

$$$$
