AV-unprocessed.smi:2198|AV-procd|sdf|8912|dock5
  -GOLD-   2272012133D 1   1.00000     0.00000
 Structure written by MMmdl.
 43 44  0  0  0  0  0  0  0  0  1 V2000
  150.8033  134.2126  155.7037 C   0  0  0  0  0  0  0  0  0  0  0  0
  150.8119  135.7265  155.7265 C   0  0  0  0  0  0  0  0  0  0  0  0
  151.7735  136.4492  155.2535 N   0  0  0  0  0  0  0  0  0  0  0  0
  151.6682  137.8449  155.3310 C   0  0  0  0  0  0  0  0  0  0  0  0
  152.8344  138.6249  154.7484 C   0  0  0  0  0  0  0  0  0  0  0  0
  150.5826  138.4504  155.8956 C   0  0  0  0  0  0  0  0  0  0  0  0
  150.4370  139.9687  155.9930 C   0  0  0  0  0  0  0  0  0  0  0  0
  151.4645  140.6924  156.8672 C   0  0  0  0  0  0  0  0  0  0  0  0
  152.5086  140.1327  157.2039 O   0  0  0  0  0  0  0  0  0  0  0  0
  151.1465  141.9430  157.2338 N   0  0  0  0  0  0  0  0  0  0  0  0
  151.9615  142.8048  158.0844 C   0  0  1  0  0  0  0  0  0  0  0  0
  151.3496  144.2164  158.1283 C   0  0  0  0  0  0  0  0  0  0  0  0
  152.1492  145.1408  159.0589 C   0  0  0  0  0  0  0  0  0  0  0  0
  152.2593  144.5483  160.4726 C   0  0  0  0  0  0  0  0  0  0  0  0
  152.8717  143.1345  160.4488 C   0  0  1  0  0  0  0  0  0  0  0  0
  152.9663  142.5409  161.8618 C   0  0  0  0  0  0  0  0  0  0  0  0
  152.0737  142.2136  159.5051 C   0  0  0  0  0  0  0  0  0  0  0  0
  149.4900  137.6157  156.4315 C   0  0  0  0  0  0  0  0  0  0  0  0
  148.4666  138.0565  156.9523 O   0  0  0  0  0  0  0  0  0  0  0  0
  149.6752  136.2819  156.3117 N   0  0  0  0  0  0  0  0  0  0  0  0
  148.9544  135.6677  156.6618 H   0  0  0  0  0  0  0  0  0  0  0  0
  150.8612  133.8527  154.6762 H   0  0  0  0  0  0  0  0  0  0  0  0
  149.8972  133.8078  156.1566 H   0  0  0  0  0  0  0  0  0  0  0  0
  151.6614  133.8240  156.2522 H   0  0  0  0  0  0  0  0  0  0  0  0
  153.3506  139.1811  155.5310 H   0  0  0  0  0  0  0  0  0  0  0  0
  152.4887  139.3291  153.9915 H   0  0  0  0  0  0  0  0  0  0  0  0
  153.5592  137.9599  154.2773 H   0  0  0  0  0  0  0  0  0  0  0  0
  150.4548  140.4167  154.9987 H   0  0  0  0  0  0  0  0  0  0  0  0
  149.4444  140.1965  156.3821 H   0  0  0  0  0  0  0  0  0  0  0  0
  150.2695  142.3233  156.9083 H   0  0  0  0  0  0  0  0  0  0  0  0
  152.9623  142.8841  157.6550 H   0  0  0  0  0  0  0  0  0  0  0  0
  151.3194  144.6430  157.1249 H   0  0  0  0  0  0  0  0  0  0  0  0
  150.3159  144.1629  158.4736 H   0  0  0  0  0  0  0  0  0  0  0  0
  153.1477  145.2967  158.6484 H   0  0  0  0  0  0  0  0  0  0  0  0
  151.6766  146.1223  159.1030 H   0  0  0  0  0  0  0  0  0  0  0  0
  152.8648  145.2063  161.0968 H   0  0  0  0  0  0  0  0  0  0  0  0
  151.2693  144.5145  160.9298 H   0  0  0  0  0  0  0  0  0  0  0  0
  153.8871  143.2147  160.0578 H   0  0  0  0  0  0  0  0  0  0  0  0
  151.9801  142.4373  162.3153 H   0  0  0  0  0  0  0  0  0  0  0  0
  153.5673  143.1747  162.5147 H   0  0  0  0  0  0  0  0  0  0  0  0
  153.4293  141.5540  161.8434 H   0  0  0  0  0  0  0  0  0  0  0  0
  151.0751  142.0499  159.9134 H   0  0  0  0  0  0  0  0  0  0  0  0
  152.5517  141.2340  159.4614 H   0  0  0  0  0  0  0  0  0  0  0  0
  1  2  1  0  0  0  0
  1 22  1  0  0  0  0
  1 23  1  0  0  0  0
  1 24  1  0  0  0  0
  2 20  1  0  0  0  0
  2  3  2  0  0  0  0
  3  4  1  0  0  0  0
  4  5  1  0  0  0  0
  4  6  2  0  0  0  0
  5 25  1  0  0  0  0
  5 26  1  0  0  0  0
  5 27  1  0  0  0  0
  6  7  1  0  0  0  0
  6 18  1  0  0  0  0
  7  8  1  0  0  0  0
  7 28  1  0  0  0  0
  7 29  1  0  0  0  0
  8  9  2  0  0  0  0
  8 10  1  0  0  0  0
 10 11  1  0  0  0  0
 10 30  1  0  0  0  0
 11 17  1  0  0  0  0
 11 12  1  0  0  0  0
 11 31  1  0  0  0  0
 12 13  1  0  0  0  0
 12 32  1  0  0  0  0
 12 33  1  0  0  0  0
 13 14  1  0  0  0  0
 13 34  1  0  0  0  0
 13 35  1  0  0  0  0
 14 15  1  0  0  0  0
 14 36  1  0  0  0  0
 14 37  1  0  0  0  0
 15 16  1  0  0  0  0
 15 17  1  0  0  0  0
 15 38  1  0  0  0  0
 16 39  1  0  0  0  0
 16 40  1  0  0  0  0
 16 41  1  0  0  0  0
 17 42  1  0  0  0  0
 17 43  1  0  0  0  0
 18 19  2  0  0  0  0
 18 20  1  0  0  0  0
 20 21  1  0  0  0  0
M  END
> <s_m_source_file>
AV-unprocessed.smi

> <i_m_source_file_index>
2198

> <i_lp_mmshare_version>
43012

> <i_f3d_flags>
0

> <s_epik_input>
W0NIM11jMW5jKFtDSDNdKWMoYyg9TylbbkhdMSlbQ0gyXUMoPU8pW05IXVtDQEBIXTJbQ0gyXVtDSDJdW0NIMl1bQ0BASF0oW0NIM10pW0NIMl0y

> <s_epik_cmdline>
J2VwaWtfcHl0aG9uJywgJy1waCcsICc3LjAnLCAnLXRuJywgJzgnLCAnLW1hJywgJzIwMCcsICctbWV0YWxfYmluZGluZycsICctaW1hZScsICc8aW5maWxlLm1hZT4nLCAnLW9tYWUnLCAnPG91dGZpbGUubWFlPic=

> <r_lp_tautomer_probability>
0.839158

> <r_epik_Ionization_Penalty>
0.000372587

> <r_epik_Ionization_Penalty_Charging>
0.000337977

> <r_epik_Ionization_Penalty_Neutral>
3.46101e-05

> <r_epik_State_Penalty>
0.09125

> <r_epik_Charging_Adjusted_Penalty>
0.091588

> <i_epik_Tot_Q>
0

> <i_epik_Tot_abs_Q>
0

> <r_epik_Metal_State_Penalty>
0.25197

> <b_epik_Metal_Only>
0

> <s_lp_Force_Field>
OPLS_2005

> <r_lp_Energy>
10.3452

> <b_lp_Chiralities_Consistent>
1

> <s_lp_Variant>
AV-unprocessed.smi:2198-2

> <Gold.Version>
5.8.1

> <Gold.Id.Protein>
6NUR|6NUR_protein|mol2

> <Gold.PLP.Fitness>
48.1612

> <Gold.PLP.PLP>
-42.6957

> <Gold.PLP.part.hbond>
-2.0000

> <Gold.PLP.part.metal>
0.0000

> <Gold.PLP.part.buried>
-4.8857

> <Gold.PLP.part.nonpolar>
-34.8254

> <Gold.PLP.part.repulsive>
0.1878

> <Gold.PLP.ligand.clash>
0.0000

> <Gold.PLP.ligand.torsion>
0.2703

> <Gold.PLP.Chemscore.Hbond>
2.0000

> <Gold.PLP.Chemscore.CHOScore>
0.0000

> <Gold.PLP.Chemscore.Metal>
0.0000

> <Gold.Chemscore.Hbonds>
donor molecule, donor type, donor heavy atom, donor atom, acceptor molecule, acceptor atom, score
      P1  H  7997  8009       L1     9  1.00
      P1  H 10752 10764       L1     3  1.00

> <Gold.PLP.Chemscore.Internal.Correction>
0.0060

> <Gold.Rescore>
     Score         DG    S(hbond)    S(metal)    S(lipo)     H(rot)  DE(clash)    DE(int)     intcor
     20.69     -21.33       1.93        0.00     112.63       1.48       0.05       0.59       ----

> <Gold.Chemscore.Fitness>
20.6950

> <Gold.Chemscore.DG>
-21.3287

> <Gold.Chemscore.ZeroCoef>
-5.4800

> <Gold.Chemscore.Hbond>
1.9343

> <Gold.Chemscore.Metal>
0.0000

> <Gold.Chemscore.Lipo>
112.6275

> <Gold.Chemscore.Internal_Hbond>
0.0000

> <Gold.Chemscore.DEClash>
0.0471

> <Gold.Chemscore.DEInternal>
0.5867

> <Gold.Chemscore.Rot>
1.4801

> <Gold.Chemscore.Internal.Correction>
   9.000000E+99

> <Gold.Chemscore.Hbonds>
donor molecule, donor type, donor heavy atom, donor atom, acceptor molecule, acceptor atom, score
      P1  H  7997  8009       L1     9  0.97
      P1  H 10752 10764       L1     3  0.83

> <Gold.Chemscore.Hbond.Weighted>
-6.4604

> <Gold.Chemscore.Metal.Weighted>
-0.0000

> <Gold.Chemscore.Lipo.Weighted>
-13.1774

> <Gold.Chemscore.Internal_Hbond.Weighted>
0.0000

> <Gold.Chemscore.DEClash.Weighted>
0.0471

> <Gold.Chemscore.DEInternal.Weighted>
0.5867

> <Gold.Chemscore.Rot.Weighted>
3.7891

> <Gold.Chemscore.Internal.Correction.Weighted>
   9.000000E+99

> <Gold.Protein.RotatedTorsions>
[ 6907 6896 6895 6894 ] final   81.72 input  -60.11 | X-H torsion
[ 7974 7965 7964 7962 ] final   35.70 input  175.53 | X-H torsion
[ 8008 7997 7996 7995 ] final -176.03 input   59.86 | X-H torsion
[ 10167 10162 10161 10158 ] final  171.28 input  -65.29 | X-H torsion
[ 10718 10713 10712 10709 ] final  -34.18 input   66.30 | X-H torsion
[ 10763 10752 10751 10750 ] final  -60.26 input  -60.55 | X-H torsion
[ 11005 11000 10999 10996 ] final  106.32 input  -57.11 | X-H torsion

> <Gold.Protein.ActiveResidues>
 VAL166  LYS551  ARG553  GLY616  TRP617  ASP618  TYR619  PRO620  LYS621  CYS622 
 ASP623  PHE694  ASN695  SER759  ASP760  ASP761  ALA762  ILE779  LEU786  VAL792 
 PHE793  MET794  SER795  GLU796  ALA797  LYS798  CYS799  TRP800  GLU811  SER814 

> <Gold.Protein.RotatedAtoms>
  152.5277  134.3160  159.9130 H   0  0  0  0  0  0  0  0  0  0  0  0  # atno 6907 bound_to 6896
  151.3110  133.4074  159.2654 H   0  0  0  0  0  0  0  0  0  0  0  0  # atno 6908 bound_to 6896
  151.0039  134.9360  159.8026 H   0  0  0  0  0  0  0  0  0  0  0  0  # atno 6909 bound_to 6896
  146.1264  139.6110  142.9255 H   0  0  0  0  0  0  0  0  0  0  0  0  # atno 7974 bound_to 7965
  155.9898  140.1199  157.0648 H   0  0  0  0  0  0  0  0  0  0  0  0  # atno 8008 bound_to 7997
  154.4208  140.1128  156.5619 H   0  0  0  0  0  0  0  0  0  0  0  0  # atno 8009 bound_to 7997
  155.6357  140.3473  155.4700 H   0  0  0  0  0  0  0  0  0  0  0  0  # atno 8010 bound_to 7997
  139.5042  144.3503  151.9929 H   0  0  0  0  0  0  0  0  0  0  0  0  # atno 10167 bound_to 10162
  156.3536  130.4312  149.7683 H   0  0  0  0  0  0  0  0  0  0  0  0  # atno 10718 bound_to 10713
  154.2664  135.6298  153.5294 H   0  0  0  0  0  0  0  0  0  0  0  0  # atno 10763 bound_to 10752
  152.9887  135.5600  154.5648 H   0  0  0  0  0  0  0  0  0  0  0  0  # atno 10764 bound_to 10752
  154.5208  135.2882  155.1239 H   0  0  0  0  0  0  0  0  0  0  0  0  # atno 10765 bound_to 10752
  139.8812  134.9365  156.5649 H   0  0  0  0  0  0  0  0  0  0  0  0  # atno 11005 bound_to 11000
  145.5355  141.0424  143.2359 LP  0  0  0  0  0  0  0  0  0  0  0  0  # atno 17320 bound_to 7965
  144.7647  139.6873  143.7220 LP  0  0  0  0  0  0  0  0  0  0  0  0  # atno 17321 bound_to 7965
  140.2940  144.3722  150.6080 LP  0  0  0  0  0  0  0  0  0  0  0  0  # atno 17342 bound_to 10162
  140.5925  143.2167  151.7227 LP  0  0  0  0  0  0  0  0  0  0  0  0  # atno 17343 bound_to 10162
  156.4874  130.8069  151.3080 LP  0  0  0  0  0  0  0  0  0  0  0  0  # atno 17370 bound_to 10713
  157.7464  130.9986  150.2860 LP  0  0  0  0  0  0  0  0  0  0  0  0  # atno 17371 bound_to 10713
  140.8142  133.8405  155.8837 LP  0  0  0  0  0  0  0  0  0  0  0  0  # atno 17394 bound_to 11000
  140.9478  134.1817  157.4750 LP  0  0  0  0  0  0  0  0  0  0  0  0  # atno 17395 bound_to 11000

$$$$
