AV-unprocessed.smi:2573|AV-procd|sdf|10112|dock3
  -GOLD-   2272014133D 1   1.00000     0.00000
 Structure written by MMmdl.
 38 39  0  0  0  0  0  0  0  0  1 V2000
  155.2033  140.1960  161.9819 C   0  0  0  0  0  0  0  0  0  0  0  0
  154.6007  140.9780  160.8067 C   0  0  0  0  0  0  0  0  0  0  0  0
  153.3983  140.2813  160.1436 C   0  0  0  0  0  0  0  0  0  0  0  0
  152.6547  141.1751  159.2564 N   0  0  0  0  0  0  0  0  0  0  0  0
  152.2649  140.9177  157.9851 C   0  0  0  0  0  0  0  0  0  0  0  0
  152.4688  139.8759  157.3624 O   0  0  0  0  0  0  0  0  0  0  0  0
  151.6054  142.0039  157.5189 N   0  0  0  0  0  0  0  0  0  0  0  0
  150.9990  142.1514  156.1967 C   0  0  0  0  0  0  0  0  0  0  0  0
  149.6304  141.4441  156.1187 C   0  0  2  0  0  0  0  0  0  0  0  0
  149.8226  140.0831  156.4515 O   0  0  0  0  0  0  0  0  0  0  0  0
  149.0277  141.5140  154.6997 C   0  0  0  0  0  0  0  0  0  0  0  0
  147.5178  141.2202  154.6257 C   0  0  0  0  0  0  0  0  0  0  0  0
  147.1812  141.0039  153.3544 F   0  0  0  0  0  0  0  0  0  0  0  0
  147.1977  140.1382  155.3350 F   0  0  0  0  0  0  0  0  0  0  0  0
  146.8206  142.2632  155.0762 F   0  0  0  0  0  0  0  0  0  0  0  0
  151.5588  142.9798  158.5253 C   0  0  0  0  0  0  0  0  0  0  0  0
  150.9819  144.2618  158.5473 C   0  0  0  0  0  0  0  0  0  0  0  0
  151.1128  145.0094  159.7412 C   0  0  0  0  0  0  0  0  0  0  0  0
  151.7993  144.4746  160.8624 C   0  0  0  0  0  0  0  0  0  0  0  0
  152.3675  143.1803  160.8143 C   0  0  0  0  0  0  0  0  0  0  0  0
  152.2224  142.4591  159.6165 C   0  0  0  0  0  0  0  0  0  0  0  0
  156.0013  140.7664  162.4574 H   0  0  0  0  0  0  0  0  0  0  0  0
  155.6292  139.2475  161.6547 H   0  0  0  0  0  0  0  0  0  0  0  0
  154.4491  139.9827  162.7399 H   0  0  0  0  0  0  0  0  0  0  0  0
  154.2818  141.9569  161.1652 H   0  0  0  0  0  0  0  0  0  0  0  0
  155.3759  141.1682  160.0638 H   0  0  0  0  0  0  0  0  0  0  0  0
  153.7362  139.4004  159.5954 H   0  0  0  0  0  0  0  0  0  0  0  0
  152.7206  139.9093  160.9128 H   0  0  0  0  0  0  0  0  0  0  0  0
  150.8790  143.2190  156.0104 H   0  0  0  0  0  0  0  0  0  0  0  0
  151.6729  141.7956  155.4150 H   0  0  0  0  0  0  0  0  0  0  0  0
  148.9355  141.8956  156.8280 H   0  0  0  0  0  0  0  0  0  0  0  0
  148.9854  139.7048  156.6739 H   0  0  0  0  0  0  0  0  0  0  0  0
  149.1872  142.5166  154.3010 H   0  0  0  0  0  0  0  0  0  0  0  0
  149.5684  140.8394  154.0341 H   0  0  0  0  0  0  0  0  0  0  0  0
  150.4586  144.6634  157.6922 H   0  0  0  0  0  0  0  0  0  0  0  0
  150.6847  145.9992  159.8003 H   0  0  0  0  0  0  0  0  0  0  0  0
  151.8883  145.0622  161.7643 H   0  0  0  0  0  0  0  0  0  0  0  0
  152.8897  142.7669  161.6644 H   0  0  0  0  0  0  0  0  0  0  0  0
  1  2  1  0  0  0  0
  1 22  1  0  0  0  0
  1 23  1  0  0  0  0
  1 24  1  0  0  0  0
  2  3  1  0  0  0  0
  2 25  1  0  0  0  0
  2 26  1  0  0  0  0
  3  4  1  0  0  0  0
  3 27  1  0  0  0  0
  3 28  1  0  0  0  0
  4 21  1  0  0  0  0
  4  5  1  0  0  0  0
  5  6  2  0  0  0  0
  5  7  1  0  0  0  0
  7  8  1  0  0  0  0
  7 16  1  0  0  0  0
  8  9  1  0  0  0  0
  8 29  1  0  0  0  0
  8 30  1  0  0  0  0
  9 10  1  0  0  0  0
  9 11  1  0  0  0  0
  9 31  1  0  0  0  0
 10 32  1  0  0  0  0
 11 12  1  0  0  0  0
 11 33  1  0  0  0  0
 11 34  1  0  0  0  0
 12 13  1  0  0  0  0
 12 14  1  0  0  0  0
 12 15  1  0  0  0  0
 16 21  2  0  0  0  0
 16 17  1  0  0  0  0
 17 18  2  0  0  0  0
 17 35  1  0  0  0  0
 18 19  1  0  0  0  0
 18 36  1  0  0  0  0
 19 20  2  0  0  0  0
 19 37  1  0  0  0  0
 20 21  1  0  0  0  0
 20 38  1  0  0  0  0
M  END
> <s_m_source_file>
AV-unprocessed.smi

> <i_m_source_file_index>
2573

> <i_lp_mmshare_version>
43012

> <i_f3d_flags>
0

> <s_epik_input>
W2NIXTFbY0hdW2NIXVtjSF1jKGMxMiluKFtDSDJdW0NIMl1bQ0gzXSljKD1PKW4yW0NIMl1bQ0BIXShbT0hdKVtDSDJdQyhGKShGKUY=

> <s_epik_cmdline>
J2VwaWtfcHl0aG9uJywgJy1waCcsICc3LjAnLCAnLXRuJywgJzgnLCAnLW1hJywgJzIwMCcsICctbWV0YWxfYmluZGluZycsICctaW1hZScsICc8aW5maWxlLm1hZT4nLCAnLW9tYWUnLCAnPG91dGZpbGUubWFlPic=

> <r_lp_tautomer_probability>
1

> <r_epik_Ionization_Penalty>
2.4024e-06

> <r_epik_Ionization_Penalty_Charging>
3.10219e-09

> <r_epik_Ionization_Penalty_Neutral>
2.3993e-06

> <r_epik_State_Penalty>
-0

> <r_epik_Charging_Adjusted_Penalty>
3.10219e-09

> <i_epik_Tot_Q>
0

> <i_epik_Tot_abs_Q>
0

> <r_epik_Metal_State_Penalty>
-0

> <b_epik_Metal_Only>
0

> <s_lp_Force_Field>
OPLS_2005

> <r_lp_Energy>
43.3878

> <b_lp_Chiralities_Consistent>
1

> <s_lp_Variant>
AV-unprocessed.smi:2573-1

> <Gold.Version>
5.8.1

> <Gold.Id.Protein>
6NUR|6NUR_protein|mol2

> <Gold.PLP.Fitness>
48.1849

> <Gold.PLP.PLP>
-46.6645

> <Gold.PLP.part.hbond>
-1.0000

> <Gold.PLP.part.metal>
0.0000

> <Gold.PLP.part.buried>
-6.0489

> <Gold.PLP.part.nonpolar>
-39.5121

> <Gold.PLP.part.repulsive>
0.0000

> <Gold.PLP.ligand.clash>
0.0000

> <Gold.PLP.ligand.torsion>
0.7524

> <Gold.PLP.Chemscore.Hbond>
0.9750

> <Gold.PLP.Chemscore.CHOScore>
0.0000

> <Gold.PLP.Chemscore.Metal>
0.0000

> <Gold.Chemscore.Hbonds>
donor molecule, donor type, donor heavy atom, donor atom, acceptor molecule, acceptor atom, score
      P1  H  7997  8009       L1     6  0.98

> <Gold.PLP.Chemscore.Internal.Correction>
0.1001

> <Gold.Rescore>
     Score         DG    S(hbond)    S(metal)    S(lipo)     H(rot)  DE(clash)    DE(int)     intcor
     13.37     -15.41       0.77        0.00     117.08       2.48       0.19       1.85       ----

> <Gold.Chemscore.Fitness>
13.3718

> <Gold.Chemscore.DG>
-15.4142

> <Gold.Chemscore.ZeroCoef>
-5.4800

> <Gold.Chemscore.Hbond>
0.7747

> <Gold.Chemscore.Metal>
0.0000

> <Gold.Chemscore.Lipo>
117.0827

> <Gold.Chemscore.Internal_Hbond>
0.0000

> <Gold.Chemscore.DEClash>
0.1904

> <Gold.Chemscore.DEInternal>
1.8520

> <Gold.Chemscore.Rot>
2.4812

> <Gold.Chemscore.Internal.Correction>
   9.000000E+99

> <Gold.Chemscore.Hbonds>
donor molecule, donor type, donor heavy atom, donor atom, acceptor molecule, acceptor atom, score
      P1  H  7997  8009       L1     6  0.41

> <Gold.Chemscore.Hbond.Weighted>
-2.5873

> <Gold.Chemscore.Metal.Weighted>
-0.0000

> <Gold.Chemscore.Lipo.Weighted>
-13.6987

> <Gold.Chemscore.Internal_Hbond.Weighted>
0.0000

> <Gold.Chemscore.DEClash.Weighted>
0.1904

> <Gold.Chemscore.DEInternal.Weighted>
1.8520

> <Gold.Chemscore.Rot.Weighted>
6.3518

> <Gold.Chemscore.Internal.Correction.Weighted>
   9.000000E+99

> <Gold.Protein.RotatedTorsions>
[ 6907 6896 6895 6894 ] final -107.11 input  -60.11 | X-H torsion
[ 7974 7965 7964 7962 ] final   26.06 input  175.53 | X-H torsion
[ 8008 7997 7996 7995 ] final  177.60 input   59.86 | X-H torsion
[ 10167 10162 10161 10158 ] final  -57.23 input  -65.29 | X-H torsion
[ 10718 10713 10712 10709 ] final  -58.49 input   66.30 | X-H torsion
[ 10763 10752 10751 10750 ] final   78.89 input  -60.55 | X-H torsion
[ 11005 11000 10999 10996 ] final -113.34 input  -57.11 | X-H torsion

> <Gold.Protein.ActiveResidues>
 VAL166  LYS551  ARG553  GLY616  TRP617  ASP618  TYR619  PRO620  LYS621  CYS622 
 ASP623  PHE694  ASN695  SER759  ASP760  ASP761  ALA762  ILE779  LEU786  VAL792 
 PHE793  MET794  SER795  GLU796  ALA797  LYS798  CYS799  TRP800  GLU811  SER814 

> <Gold.Protein.RotatedAtoms>
  150.7426  133.9875  159.3595 H   0  0  0  0  0  0  0  0  0  0  0  0  # atno 6907 bound_to 6896
  151.7820  135.0757  160.0384 H   0  0  0  0  0  0  0  0  0  0  0  0  # atno 6908 bound_to 6896
  152.3267  133.5876  159.5818 H   0  0  0  0  0  0  0  0  0  0  0  0  # atno 6909 bound_to 6896
  146.1857  139.7381  142.8868 H   0  0  0  0  0  0  0  0  0  0  0  0  # atno 7974 bound_to 7965
  156.0638  140.1354  156.9909 H   0  0  0  0  0  0  0  0  0  0  0  0  # atno 8008 bound_to 7997
  154.4495  140.0986  156.6628 H   0  0  0  0  0  0  0  0  0  0  0  0  # atno 8009 bound_to 7997
  155.5335  140.3459  155.4433 H   0  0  0  0  0  0  0  0  0  0  0  0  # atno 8010 bound_to 7997
  140.6270  143.2443  151.5337 H   0  0  0  0  0  0  0  0  0  0  0  0  # atno 10167 bound_to 10162
  156.1131  130.4173  150.0585 H   0  0  0  0  0  0  0  0  0  0  0  0  # atno 10718 bound_to 10713
  153.0909  135.4860  154.8688 H   0  0  0  0  0  0  0  0  0  0  0  0  # atno 10763 bound_to 10752
  154.7268  135.3051  154.8960 H   0  0  0  0  0  0  0  0  0  0  0  0  # atno 10764 bound_to 10752
  153.9607  135.6812  153.4798 H   0  0  0  0  0  0  0  0  0  0  0  0  # atno 10765 bound_to 10752
  141.0620  133.9520  157.2649 H   0  0  0  0  0  0  0  0  0  0  0  0  # atno 11005 bound_to 11000
  145.3945  141.0377  143.3105 LP  0  0  0  0  0  0  0  0  0  0  0  0  # atno 17320 bound_to 7965
  144.8393  139.5498  143.6907 LP  0  0  0  0  0  0  0  0  0  0  0  0  # atno 17321 bound_to 7965
  139.5489  144.2447  152.1494 LP  0  0  0  0  0  0  0  0  0  0  0  0  # atno 17342 bound_to 10162
  140.1681  144.4962  150.6595 LP  0  0  0  0  0  0  0  0  0  0  0  0  # atno 17343 bound_to 10162
  156.8543  130.9470  151.3623 LP  0  0  0  0  0  0  0  0  0  0  0  0  # atno 17370 bound_to 10713
  157.6313  130.8731  149.9279 LP  0  0  0  0  0  0  0  0  0  0  0  0  # atno 17371 bound_to 10713
  139.9441  135.0187  156.8800 LP  0  0  0  0  0  0  0  0  0  0  0  0  # atno 17394 bound_to 11000
  140.5849  134.0317  155.7478 LP  0  0  0  0  0  0  0  0  0  0  0  0  # atno 17395 bound_to 11000

$$$$
