AV-unprocessed.smi:2718|AV-procd|sdf|10490|dock1
  -GOLD-   2272014533D 1   1.00000     0.00000
 Structure written by MMmdl.
 47 48  0  0  0  0  0  0  0  0  1 V2000
  145.9756  132.5446  150.5537 C   0  0  0  0  0  0  0  0  0  0  0  0
  146.3924  133.1007  151.9008 C   0  0  0  0  0  0  0  0  0  0  0  0
  145.6649  134.3668  152.3181 C   0  0  0  0  0  0  0  0  0  0  0  0
  147.3351  132.5012  152.6526 C   0  0  0  0  0  0  0  0  0  0  0  0
  147.8207  132.9471  153.9849 C   0  0  2  0  0  0  0  0  0  0  0  0
  149.2038  133.5510  154.1426 C   0  0  1  0  0  0  0  0  0  0  0  0
  149.3732  134.7187  155.0643 C   0  0  0  0  0  0  0  0  0  0  0  0
  149.2632  134.6446  156.2888 O   0  0  0  0  0  0  0  0  0  0  0  0
  149.6320  135.8708  154.4285 N   0  0  0  0  0  0  0  0  0  0  0  0
  149.7917  137.1711  155.0736 C   0  0  0  0  0  0  0  0  0  0  0  0
  148.8168  138.2371  154.5252 C   0  0  1  0  0  0  0  0  0  0  0  0
  147.4133  138.0908  155.1315 C   0  0  0  0  0  0  0  0  0  0  0  0
  149.3451  139.6388  154.6794 C   0  0  0  0  0  0  0  0  0  0  0  0
  150.5192  139.9250  155.2586 N   0  0  0  0  0  0  0  0  0  0  0  0
  150.6477  141.2972  155.1880 N   0  0  0  0  0  0  0  0  0  0  0  0
  149.5397  141.7055  154.5716 C   0  0  0  0  0  0  0  0  0  0  0  0
  148.6879  140.7284  154.2265 N   0  0  0  0  0  0  0  0  0  0  0  0
  147.4128  140.8475  153.5470 C   0  0  0  0  0  0  0  0  0  0  0  0
  148.9008  132.1743  154.7250 C   0  0  0  0  0  0  0  0  0  0  0  0
  148.7229  131.9169  156.2170 C   0  0  0  0  0  0  0  0  0  0  0  0
  149.5928  130.9779  154.0888 C   0  0  0  0  0  0  0  0  0  0  0  0
  144.9102  132.3132  150.5544 H   0  0  0  0  0  0  0  0  0  0  0  0
  146.5201  131.6317  150.3100 H   0  0  0  0  0  0  0  0  0  0  0  0
  146.1680  133.2746  149.7672 H   0  0  0  0  0  0  0  0  0  0  0  0
  144.5941  134.1763  152.3930 H   0  0  0  0  0  0  0  0  0  0  0  0
  145.8207  135.1499  151.5757 H   0  0  0  0  0  0  0  0  0  0  0  0
  146.0048  134.7472  153.2809 H   0  0  0  0  0  0  0  0  0  0  0  0
  147.8033  131.6049  152.2717 H   0  0  0  0  0  0  0  0  0  0  0  0
  147.0164  133.3786  154.5789 H   0  0  0  0  0  0  0  0  0  0  0  0
  149.8380  133.5629  153.2567 H   0  0  0  0  0  0  0  0  0  0  0  0
  149.7017  135.8513  153.4211 H   0  0  0  0  0  0  0  0  0  0  0  0
  149.6799  137.0681  156.1543 H   0  0  0  0  0  0  0  0  0  0  0  0
  150.8195  137.4922  154.9013 H   0  0  0  0  0  0  0  0  0  0  0  0
  148.7023  138.0371  153.4602 H   0  0  0  0  0  0  0  0  0  0  0  0
  146.7165  138.7984  154.6811 H   0  0  0  0  0  0  0  0  0  0  0  0
  147.4233  138.2710  156.2069 H   0  0  0  0  0  0  0  0  0  0  0  0
  147.0178  137.0883  154.9669 H   0  0  0  0  0  0  0  0  0  0  0  0
  149.3452  142.7479  154.3650 H   0  0  0  0  0  0  0  0  0  0  0  0
  147.1764  141.8977  153.3734 H   0  0  0  0  0  0  0  0  0  0  0  0
  146.6255  140.4057  154.1583 H   0  0  0  0  0  0  0  0  0  0  0  0
  147.4560  140.3330  152.5870 H   0  0  0  0  0  0  0  0  0  0  0  0
  149.6830  131.9835  156.7291 H   0  0  0  0  0  0  0  0  0  0  0  0
  148.3106  130.9215  156.3840 H   0  0  0  0  0  0  0  0  0  0  0  0
  148.0358  132.6306  156.6701 H   0  0  0  0  0  0  0  0  0  0  0  0
  150.5508  130.7917  154.5749 H   0  0  0  0  0  0  0  0  0  0  0  0
  149.7795  131.1493  153.0282 H   0  0  0  0  0  0  0  0  0  0  0  0
  148.9740  130.0853  154.1846 H   0  0  0  0  0  0  0  0  0  0  0  0
  1  2  1  0  0  0  0
  1 22  1  0  0  0  0
  1 23  1  0  0  0  0
  1 24  1  0  0  0  0
  2  3  1  0  0  0  0
  2  4  2  0  0  0  0
  3 25  1  0  0  0  0
  3 26  1  0  0  0  0
  3 27  1  0  0  0  0
  4  5  1  0  0  0  0
  4 28  1  0  0  0  0
  5 19  1  0  0  0  0
  5  6  1  0  0  0  0
  5 29  1  0  0  0  0
  6  7  1  0  0  0  0
  6 19  1  0  0  0  0
  6 30  1  0  0  0  0
  7  8  2  0  0  0  0
  7  9  1  0  0  0  0
  9 10  1  0  0  0  0
  9 31  1  0  0  0  0
 10 11  1  0  0  0  0
 10 32  1  0  0  0  0
 10 33  1  0  0  0  0
 11 12  1  0  0  0  0
 11 13  1  0  0  0  0
 11 34  1  0  0  0  0
 12 35  1  0  0  0  0
 12 36  1  0  0  0  0
 12 37  1  0  0  0  0
 13 17  1  0  0  0  0
 13 14  2  0  0  0  0
 14 15  1  0  0  0  0
 15 16  2  0  0  0  0
 16 17  1  0  0  0  0
 16 38  1  0  0  0  0
 17 18  1  0  0  0  0
 18 39  1  0  0  0  0
 18 40  1  0  0  0  0
 18 41  1  0  0  0  0
 19 20  1  0  0  0  0
 19 21  1  0  0  0  0
 20 42  1  0  0  0  0
 20 43  1  0  0  0  0
 20 44  1  0  0  0  0
 21 45  1  0  0  0  0
 21 46  1  0  0  0  0
 21 47  1  0  0  0  0
M  END
> <s_m_source_file>
AV-unprocessed.smi

> <i_m_source_file_index>
2718

> <i_lp_mmshare_version>
43012

> <i_f3d_flags>
0

> <s_epik_input>
W0NIM11DKFtDSDNdKT1bQ0hdW0NAQEhdKEMxKFtDSDNdKVtDSDNdKVtDQEhdMUMoPU8pW05IXVtDSDJdW0NASF0oW0NIM10pYzJubltjSF1uMltDSDNd

> <s_epik_cmdline>
J2VwaWtfcHl0aG9uJywgJy1waCcsICc3LjAnLCAnLXRuJywgJzgnLCAnLW1hJywgJzIwMCcsICctbWV0YWxfYmluZGluZycsICctaW1hZScsICc8aW5maWxlLm1hZT4nLCAnLW9tYWUnLCAnPG91dGZpbGUubWFlPic=

> <r_lp_tautomer_probability>
1

> <r_epik_Ionization_Penalty>
0.000449586

> <r_epik_Ionization_Penalty_Charging>
0

> <r_epik_Ionization_Penalty_Neutral>
0.000449586

> <r_epik_State_Penalty>
0.000243372

> <r_epik_Charging_Adjusted_Penalty>
0.000243372

> <i_epik_Tot_Q>
0

> <i_epik_Tot_abs_Q>
0

> <r_epik_Metal_State_Penalty>
-0

> <b_epik_Metal_Only>
0

> <s_lp_Force_Field>
OPLS_2005

> <r_lp_Energy>
15.9496

> <b_lp_Chiralities_Consistent>
1

> <s_lp_Variant>
AV-unprocessed.smi:2718-5

> <Gold.Version>
5.8.1

> <Gold.Id.Protein>
6NUR|6NUR_protein|mol2

> <Gold.PLP.Fitness>
37.7724

> <Gold.PLP.PLP>
-32.9766

> <Gold.PLP.part.hbond>
-2.0000

> <Gold.PLP.part.metal>
0.0000

> <Gold.PLP.part.buried>
-0.1268

> <Gold.PLP.part.nonpolar>
-29.5672

> <Gold.PLP.part.repulsive>
0.1686

> <Gold.PLP.ligand.clash>
0.0000

> <Gold.PLP.ligand.torsion>
0.4184

> <Gold.PLP.Chemscore.Hbond>
0.7852

> <Gold.PLP.Chemscore.CHOScore>
1.0000

> <Gold.PLP.Chemscore.Metal>
0.0000

> <Gold.Chemscore.Hbonds>
donor molecule, donor type, donor heavy atom, donor atom, acceptor molecule, acceptor atom, score
      L1  H     9    31       P1  7948  0.74
      P1  H  7989  7998       L1    15  0.08
      L1  C    16    38       P1  8028  1.00

> <Gold.PLP.Chemscore.Internal.Correction>
0.2773

> <Gold.Rescore>
     Score         DG    S(hbond)    S(metal)    S(lipo)     H(rot)  DE(clash)    DE(int)     intcor
      8.96     -10.87       0.89        0.00      63.47       1.95       0.03       1.87       ----

> <Gold.Chemscore.Fitness>
8.9617

> <Gold.Chemscore.DG>
-10.8654

> <Gold.Chemscore.ZeroCoef>
-5.4800

> <Gold.Chemscore.Hbond>
0.8863

> <Gold.Chemscore.Metal>
0.0000

> <Gold.Chemscore.Lipo>
63.4670

> <Gold.Chemscore.Internal_Hbond>
0.0000

> <Gold.Chemscore.DEClash>
0.0308

> <Gold.Chemscore.DEInternal>
1.8728

> <Gold.Chemscore.Rot>
1.9533

> <Gold.Chemscore.Internal.Correction>
   9.000000E+99

> <Gold.Chemscore.Hbonds>
donor molecule, donor type, donor heavy atom, donor atom, acceptor molecule, acceptor atom, score
      L1  H     9    31       P1  7948  0.09

> <Gold.Chemscore.Hbond.Weighted>
-2.9603

> <Gold.Chemscore.Metal.Weighted>
-0.0000

> <Gold.Chemscore.Lipo.Weighted>
-7.4256

> <Gold.Chemscore.Internal_Hbond.Weighted>
0.0000

> <Gold.Chemscore.DEClash.Weighted>
0.0308

> <Gold.Chemscore.DEInternal.Weighted>
1.8728

> <Gold.Chemscore.Rot.Weighted>
5.0005

> <Gold.Chemscore.Internal.Correction.Weighted>
   9.000000E+99

> <Gold.Protein.RotatedTorsions>
[ 6907 6896 6895 6894 ] final  125.63 input  -60.11 | X-H torsion
[ 7974 7965 7964 7962 ] final  115.18 input  175.53 | X-H torsion
[ 8008 7997 7996 7995 ] final  -82.25 input   59.86 | X-H torsion
[ 10167 10162 10161 10158 ] final -176.24 input  -65.29 | X-H torsion
[ 10718 10713 10712 10709 ] final -167.99 input   66.30 | X-H torsion
[ 10763 10752 10751 10750 ] final  -29.88 input  -60.55 | X-H torsion
[ 11005 11000 10999 10996 ] final   53.37 input  -57.11 | X-H torsion

> <Gold.Protein.ActiveResidues>
 VAL166  LYS551  ARG553  GLY616  TRP617  ASP618  TYR619  PRO620  LYS621  CYS622 
 ASP623  PHE694  ASN695  SER759  ASP760  ASP761  ALA762  ILE779  LEU786  VAL792 
 PHE793  MET794  SER795  GLU796  ALA797  LYS798  CYS799  TRP800  GLU811  SER814 

> <Gold.Protein.RotatedAtoms>
  152.3975  133.6768  159.6288 H   0  0  0  0  0  0  0  0  0  0  0  0  # atno 6907 bound_to 6896
  150.7872  133.8848  159.3305 H   0  0  0  0  0  0  0  0  0  0  0  0  # atno 6908 bound_to 6896
  151.6622  135.0989  160.0233 H   0  0  0  0  0  0  0  0  0  0  0  0  # atno 6909 bound_to 6896
  145.1952  139.2980  143.4347 H   0  0  0  0  0  0  0  0  0  0  0  0  # atno 7974 bound_to 7965
  154.6067  140.0636  156.9440 H   0  0  0  0  0  0  0  0  0  0  0  0  # atno 8008 bound_to 7997
  155.2042  140.3317  155.4320 H   0  0  0  0  0  0  0  0  0  0  0  0  # atno 8009 bound_to 7997
  156.2351  140.1859  156.7123 H   0  0  0  0  0  0  0  0  0  0  0  0  # atno 8010 bound_to 7997
  139.5540  144.2037  152.1127 H   0  0  0  0  0  0  0  0  0  0  0  0  # atno 10167 bound_to 10162
  156.6904  130.9157  151.3068 H   0  0  0  0  0  0  0  0  0  0  0  0  # atno 10718 bound_to 10713
  153.7718  135.6912  153.4905 H   0  0  0  0  0  0  0  0  0  0  0  0  # atno 10763 bound_to 10752
  153.1869  135.4485  155.0099 H   0  0  0  0  0  0  0  0  0  0  0  0  # atno 10764 bound_to 10752
  154.8115  135.3379  154.7227 H   0  0  0  0  0  0  0  0  0  0  0  0  # atno 10765 bound_to 10752
  140.0772  134.5388  155.8984 H   0  0  0  0  0  0  0  0  0  0  0  0  # atno 11005 bound_to 11000
  146.3428  140.2178  142.8591 LP  0  0  0  0  0  0  0  0  0  0  0  0  # atno 17320 bound_to 7965
  145.0001  140.8624  143.5286 LP  0  0  0  0  0  0  0  0  0  0  0  0  # atno 17321 bound_to 7965
  140.1537  144.5090  150.6672 LP  0  0  0  0  0  0  0  0  0  0  0  0  # atno 17342 bound_to 10162
  140.6809  143.2326  151.5387 LP  0  0  0  0  0  0  0  0  0  0  0  0  # atno 17343 bound_to 10162
  157.7011  130.9334  150.0788 LP  0  0  0  0  0  0  0  0  0  0  0  0  # atno 17370 bound_to 10713
  156.1802  130.3650  149.9046 LP  0  0  0  0  0  0  0  0  0  0  0  0  # atno 17371 bound_to 10713
  141.2034  133.6631  156.6060 LP  0  0  0  0  0  0  0  0  0  0  0  0  # atno 17394 bound_to 11000
  140.3540  134.7744  157.4487 LP  0  0  0  0  0  0  0  0  0  0  0  0  # atno 17395 bound_to 11000

$$$$
