AV-unprocessed.smi:2906|AV-procd|sdf|11162|dock3
  -GOLD-   2272016 43D 1   1.00000     0.00000
 Structure written by MMmdl.
 40 41  0  0  0  0  0  0  0  0  1 V2000
  145.4343  137.4661  153.1726 C   0  0  0  0  0  0  0  0  0  0  0  0
  145.9857  137.3123  154.5993 C   0  0  0  0  0  0  0  0  0  0  0  0
  147.4630  137.7171  154.7402 C   0  0  0  0  0  0  0  0  0  0  0  0
  148.2944  136.8841  155.1044 O   0  0  0  0  0  0  0  0  0  0  0  0
  147.8055  138.9908  154.4534 N   0  0  0  0  0  0  0  0  0  0  0  0
  146.8426  140.0059  154.0398 C   0  0  0  0  0  0  0  0  0  0  0  0
  147.6558  141.1871  153.5132 C   0  0  0  0  0  0  0  0  0  0  0  0
  149.0739  141.0010  154.0532 C   0  0  1  0  0  0  0  0  0  0  0  0
  149.3767  141.9623  155.1104 N   0  0  0  0  0  0  0  0  0  0  0  0
  150.3935  141.8571  155.9780 C   0  0  0  0  0  0  0  0  0  0  0  0
  151.1885  140.9165  155.9797 O   0  0  0  0  0  0  0  0  0  0  0  0
  150.4202  142.9007  156.8254 N   0  0  0  0  0  0  0  0  0  0  0  0
  151.3285  143.1426  157.8888 C   0  0  0  0  0  0  0  0  0  0  0  0
  151.8212  142.1913  158.6896 N   0  0  0  0  0  0  0  0  0  0  0  0
  152.6930  142.7088  159.6526 C   0  0  0  0  0  0  0  0  0  0  0  0
  153.3476  141.7882  160.6372 C   0  0  0  0  0  0  0  0  0  0  0  0
  153.2118  142.2880  162.0798 C   0  0  0  0  0  0  0  0  0  0  0  0
  152.8487  144.0711  159.5667 C   0  0  0  0  0  0  0  0  0  0  0  0
  151.9056  144.7571  158.2708 S   0  0  0  0  0  0  0  0  0  0  0  0
  149.1521  139.5485  154.5528 C   0  0  0  0  0  0  0  0  0  0  0  0
  144.3878  137.1642  153.1304 H   0  0  0  0  0  0  0  0  0  0  0  0
  145.9835  136.8459  152.4633 H   0  0  0  0  0  0  0  0  0  0  0  0
  145.4913  138.5009  152.8328 H   0  0  0  0  0  0  0  0  0  0  0  0
  145.3855  137.9194  155.2776 H   0  0  0  0  0  0  0  0  0  0  0  0
  145.8723  136.2746  154.9144 H   0  0  0  0  0  0  0  0  0  0  0  0
  146.1542  139.6337  153.2795 H   0  0  0  0  0  0  0  0  0  0  0  0
  146.2543  140.3057  154.9081 H   0  0  0  0  0  0  0  0  0  0  0  0
  147.6809  141.1441  152.4234 H   0  0  0  0  0  0  0  0  0  0  0  0
  147.2117  142.1460  153.7838 H   0  0  0  0  0  0  0  0  0  0  0  0
  149.7846  141.1532  153.2384 H   0  0  0  0  0  0  0  0  0  0  0  0
  148.7696  142.7655  155.1817 H   0  0  0  0  0  0  0  0  0  0  0  0
  149.7079  143.6038  156.6955 H   0  0  0  0  0  0  0  0  0  0  0  0
  152.9140  140.7905  160.5619 H   0  0  0  0  0  0  0  0  0  0  0  0
  154.4045  141.6734  160.3943 H   0  0  0  0  0  0  0  0  0  0  0  0
  153.6916  141.6001  162.7758 H   0  0  0  0  0  0  0  0  0  0  0  0
  152.1641  142.3775  162.3680 H   0  0  0  0  0  0  0  0  0  0  0  0
  153.6789  143.2656  162.2035 H   0  0  0  0  0  0  0  0  0  0  0  0
  153.4603  144.7104  160.1856 H   0  0  0  0  0  0  0  0  0  0  0  0
  149.5142  139.4854  155.5804 H   0  0  0  0  0  0  0  0  0  0  0  0
  149.8385  138.9786  153.9252 H   0  0  0  0  0  0  0  0  0  0  0  0
  1  2  1  0  0  0  0
  1 21  1  0  0  0  0
  1 22  1  0  0  0  0
  1 23  1  0  0  0  0
  2  3  1  0  0  0  0
  2 24  1  0  0  0  0
  2 25  1  0  0  0  0
  3  4  2  0  0  0  0
  3  5  1  0  0  0  0
  5 20  1  0  0  0  0
  5  6  1  0  0  0  0
  6  7  1  0  0  0  0
  6 26  1  0  0  0  0
  6 27  1  0  0  0  0
  7  8  1  0  0  0  0
  7 28  1  0  0  0  0
  7 29  1  0  0  0  0
  8  9  1  0  0  0  0
  8 20  1  0  0  0  0
  8 30  1  0  0  0  0
  9 10  1  0  0  0  0
  9 31  1  0  0  0  0
 10 11  2  0  0  0  0
 10 12  1  0  0  0  0
 12 13  1  0  0  0  0
 12 32  1  0  0  0  0
 13 19  1  0  0  0  0
 13 14  2  0  0  0  0
 14 15  1  0  0  0  0
 15 16  1  0  0  0  0
 15 18  2  0  0  0  0
 16 17  1  0  0  0  0
 16 33  1  0  0  0  0
 16 34  1  0  0  0  0
 17 35  1  0  0  0  0
 17 36  1  0  0  0  0
 17 37  1  0  0  0  0
 18 19  1  0  0  0  0
 18 38  1  0  0  0  0
 20 39  1  0  0  0  0
 20 40  1  0  0  0  0
M  END
> <s_m_source_file>
AV-unprocessed.smi

> <i_m_source_file_index>
2906

> <i_lp_mmshare_version>
43012

> <i_f3d_flags>
0

> <s_epik_input>
W0NIM11bQ0gyXUMoPU8pTjFbQ0gyXVtDSDJdW0NASF0oW0NIMl0xKVtOSF1DKD1PKVtOSF1jMm5jKFtjSF1zMilbQ0gyXVtDSDNd

> <s_epik_cmdline>
J2VwaWtfcHl0aG9uJywgJy1waCcsICc3LjAnLCAnLXRuJywgJzgnLCAnLW1hJywgJzIwMCcsICctbWV0YWxfYmluZGluZycsICctaW1hZScsICc8aW5maWxlLm1hZT4nLCAnLW9tYWUnLCAnPG91dGZpbGUubWFlPic=

> <r_lp_tautomer_probability>
1

> <r_epik_Ionization_Penalty>
0.000174744

> <r_epik_Ionization_Penalty_Charging>
0

> <r_epik_Ionization_Penalty_Neutral>
0.000174744

> <r_epik_State_Penalty>
-0

> <r_epik_Charging_Adjusted_Penalty>
0

> <i_epik_Tot_Q>
0

> <i_epik_Tot_abs_Q>
0

> <r_epik_Metal_State_Penalty>
0.0273865

> <b_epik_Metal_Only>
0

> <s_lp_Force_Field>
OPLS_2005

> <r_lp_Energy>
22.1367

> <b_lp_Chiralities_Consistent>
1

> <s_lp_Variant>
AV-unprocessed.smi:2906-1

> <Gold.Version>
5.8.1

> <Gold.Id.Protein>
6NUR|6NUR_protein|mol2

> <Gold.PLP.Fitness>
44.3635

> <Gold.PLP.PLP>
-40.0895

> <Gold.PLP.part.hbond>
-2.0000

> <Gold.PLP.part.metal>
0.0000

> <Gold.PLP.part.buried>
-4.3882

> <Gold.PLP.part.nonpolar>
-33.2675

> <Gold.PLP.part.repulsive>
0.3509

> <Gold.PLP.ligand.clash>
0.0000

> <Gold.PLP.ligand.torsion>
0.5923

> <Gold.PLP.Chemscore.Hbond>
1.8160

> <Gold.PLP.Chemscore.CHOScore>
0.0000

> <Gold.PLP.Chemscore.Metal>
0.0000

> <Gold.Chemscore.Hbonds>
donor molecule, donor type, donor heavy atom, donor atom, acceptor molecule, acceptor atom, score
      L1  H     9    31       P1  8028  0.80
      L1  H    12    32       P1  8028  1.00

> <Gold.PLP.Chemscore.Internal.Correction>
0.0107

> <Gold.Rescore>
     Score         DG    S(hbond)    S(metal)    S(lipo)     H(rot)  DE(clash)    DE(int)     intcor
     16.37     -19.18       1.93        0.00      92.88       1.41       0.13       2.69       ----

> <Gold.Chemscore.Fitness>
16.3680

> <Gold.Chemscore.DG>
-19.1815

> <Gold.Chemscore.ZeroCoef>
-5.4800

> <Gold.Chemscore.Hbond>
1.9296

> <Gold.Chemscore.Metal>
0.0000

> <Gold.Chemscore.Lipo>
92.8786

> <Gold.Chemscore.Internal_Hbond>
0.0000

> <Gold.Chemscore.DEClash>
0.1262

> <Gold.Chemscore.DEInternal>
2.6873

> <Gold.Chemscore.Rot>
1.4102

> <Gold.Chemscore.Internal.Correction>
   9.000000E+99

> <Gold.Chemscore.Hbonds>
donor molecule, donor type, donor heavy atom, donor atom, acceptor molecule, acceptor atom, score
      L1  H     9    31       P1  8028  0.76
      L1  H    12    32       P1  8028  0.94

> <Gold.Chemscore.Hbond.Weighted>
-6.4448

> <Gold.Chemscore.Metal.Weighted>
-0.0000

> <Gold.Chemscore.Lipo.Weighted>
-10.8668

> <Gold.Chemscore.Internal_Hbond.Weighted>
0.0000

> <Gold.Chemscore.DEClash.Weighted>
0.1262

> <Gold.Chemscore.DEInternal.Weighted>
2.6873

> <Gold.Chemscore.Rot.Weighted>
3.6101

> <Gold.Chemscore.Internal.Correction.Weighted>
   9.000000E+99

> <Gold.Protein.RotatedTorsions>
[ 6907 6896 6895 6894 ] final  109.67 input  -60.11 | X-H torsion
[ 7974 7965 7964 7962 ] final -151.37 input  175.53 | X-H torsion
[ 8008 7997 7996 7995 ] final   55.11 input   59.86 | X-H torsion
[ 10167 10162 10161 10158 ] final  114.10 input  -65.29 | X-H torsion
[ 10718 10713 10712 10709 ] final -159.60 input   66.30 | X-H torsion
[ 10763 10752 10751 10750 ] final -113.09 input  -60.55 | X-H torsion
[ 11005 11000 10999 10996 ] final  -40.18 input  -57.11 | X-H torsion

> <Gold.Protein.ActiveResidues>
 VAL166  LYS551  ARG553  GLY616  TRP617  ASP618  TYR619  PRO620  LYS621  CYS622 
 ASP623  PHE694  ASN695  SER759  ASP760  ASP761  ALA762  ILE779  LEU786  VAL792 
 PHE793  MET794  SER795  GLU796  ALA797  LYS798  CYS799  TRP800  GLU811  SER814 

> <Gold.Protein.RotatedAtoms>
  152.5056  133.8911  159.7393 H   0  0  0  0  0  0  0  0  0  0  0  0  # atno 6907 bound_to 6896
  150.9349  133.6714  159.2809 H   0  0  0  0  0  0  0  0  0  0  0  0  # atno 6908 bound_to 6896
  151.4046  135.0981  159.9619 H   0  0  0  0  0  0  0  0  0  0  0  0  # atno 6909 bound_to 6896
  144.7853  140.4806  143.5810 H   0  0  0  0  0  0  0  0  0  0  0  0  # atno 7974 bound_to 7965
  155.4958  140.3473  155.4362 H   0  0  0  0  0  0  0  0  0  0  0  0  # atno 8008 bound_to 7997
  156.0947  140.1419  156.9575 H   0  0  0  0  0  0  0  0  0  0  0  0  # atno 8009 bound_to 7997
  154.4656  140.0919  156.6988 H   0  0  0  0  0  0  0  0  0  0  0  0  # atno 8010 bound_to 7997
  139.6413  144.7124  151.2232 H   0  0  0  0  0  0  0  0  0  0  0  0  # atno 10167 bound_to 10162
  156.5704  130.8686  151.2836 H   0  0  0  0  0  0  0  0  0  0  0  0  # atno 10718 bound_to 10713
  154.8380  135.4467  154.1295 H   0  0  0  0  0  0  0  0  0  0  0  0  # atno 10763 bound_to 10752
  153.2509  135.6926  153.7686 H   0  0  0  0  0  0  0  0  0  0  0  0  # atno 10764 bound_to 10752
  153.6999  135.3373  155.3198 H   0  0  0  0  0  0  0  0  0  0  0  0  # atno 10765 bound_to 10752
  141.0156  133.6887  156.2287 H   0  0  0  0  0  0  0  0  0  0  0  0  # atno 11005 bound_to 11000
  145.5938  139.1498  143.3167 LP  0  0  0  0  0  0  0  0  0  0  0  0  # atno 17320 bound_to 7965
  146.2082  140.6062  142.9071 LP  0  0  0  0  0  0  0  0  0  0  0  0  # atno 17321 bound_to 7965
  140.7492  143.6308  150.8425 LP  0  0  0  0  0  0  0  0  0  0  0  0  # atno 17342 bound_to 10162
  139.9945  143.5811  152.2898 LP  0  0  0  0  0  0  0  0  0  0  0  0  # atno 17343 bound_to 10162
  157.7349  130.9754  150.2054 LP  0  0  0  0  0  0  0  0  0  0  0  0  # atno 17370 bound_to 10713
  156.2719  130.3723  149.8022 LP  0  0  0  0  0  0  0  0  0  0  0  0  # atno 17371 bound_to 10713
  140.6660  134.4918  157.5585 LP  0  0  0  0  0  0  0  0  0  0  0  0  # atno 17394 bound_to 11000
  139.9115  134.8335  156.1512 LP  0  0  0  0  0  0  0  0  0  0  0  0  # atno 17395 bound_to 11000

$$$$
