AV-unprocessed.smi:1046|AV-procd|sdf|4552|dock10
  -GOLD-   22720 2583D 1   1.00000     0.00000
 Structure written by MMmdl.
 54 56  0  0  0  0  0  0  0  0  3 V2000
  151.9381  144.6073  160.6234 C   0  0  0  0  0  0  0  0  0  0  0  0
  151.8499  143.4910  159.5968 C   0  0  0  0  0  0  0  0  0  0  0  0
  151.0239  143.6785  158.4657 C   0  0  0  0  0  0  0  0  0  0  0  0
  150.9663  142.6406  157.5433 C   0  0  0  0  0  0  0  0  0  0  0  0
  150.2561  142.5208  156.3473 N   0  3  0  0  0  0  0  0  0  0  0  0
  150.5209  141.3116  155.7805 C   0  0  0  0  0  0  0  0  0  0  0  0
  151.3888  140.6549  156.5979 N   0  0  0  0  0  0  0  0  0  0  0  0
  151.9917  139.3224  156.4456 C   0  0  0  0  0  0  0  0  0  0  0  0
  150.9425  138.2007  156.3140 C   0  0  2  0  0  0  0  0  0  0  0  0
  151.3546  137.0732  157.0629 O   0  0  0  0  0  0  0  0  0  0  0  0
  150.7436  137.7764  154.8447 C   0  0  0  0  0  0  0  0  0  0  0  0
  149.8000  136.6388  154.6955 N   0  3  0  0  0  0  0  0  0  0  0  0
  148.6418  136.7403  155.6211 C   0  0  0  0  0  0  0  0  0  0  0  0
  147.6573  135.5764  155.3846 C   0  0  0  0  0  0  0  0  0  0  0  0
  148.2771  134.2586  155.5207 N   0  0  0  0  0  0  0  0  0  0  0  0
  148.5975  133.9236  156.9122 C   0  0  0  0  0  0  0  0  0  0  0  0
  148.9989  132.4590  157.1500 C   0  0  0  0  0  0  0  0  0  0  0  0
  150.2167  132.4183  157.8609 O   0  0  0  0  0  0  0  0  0  0  0  0
  149.4133  134.1832  154.5993 C   0  0  0  0  0  0  0  0  0  0  0  0
  150.4496  135.3052  154.8126 C   0  0  0  0  0  0  0  0  0  0  0  0
  151.6945  141.4466  157.7126 C   0  0  0  0  0  0  0  0  0  0  0  0
  152.5107  141.2452  158.8237 C   0  0  0  0  0  0  0  0  0  0  0  0
  152.5816  142.2885  159.7745 C   0  0  0  0  0  0  0  0  0  0  0  0
  153.4640  142.0952  160.9964 C   0  0  0  0  0  0  0  0  0  0  0  0
  151.3693  145.4833  160.3100 H   0  0  0  0  0  0  0  0  0  0  0  0
  152.9735  144.9176  160.7664 H   0  0  0  0  0  0  0  0  0  0  0  0
  151.5393  144.2760  161.5827 H   0  0  0  0  0  0  0  0  0  0  0  0
  150.4618  144.5903  158.3250 H   0  0  0  0  0  0  0  0  0  0  0  0
  150.1156  140.9419  154.8497 H   0  0  0  0  0  0  0  0  0  0  0  0
  152.6093  139.3558  155.5471 H   0  0  0  0  0  0  0  0  0  0  0  0
  152.6742  139.1353  157.2749 H   0  0  0  0  0  0  0  0  0  0  0  0
  150.0048  138.5608  156.7360 H   0  0  0  0  0  0  0  0  0  0  0  0
  152.1103  136.6890  156.6445 H   0  0  0  0  0  0  0  0  0  0  0  0
  150.3846  138.6169  154.2485 H   0  0  0  0  0  0  0  0  0  0  0  0
  151.7152  137.5047  154.4287 H   0  0  0  0  0  0  0  0  0  0  0  0
  148.9911  136.7524  156.6546 H   0  0  0  0  0  0  0  0  0  0  0  0
  148.1234  137.6854  155.4542 H   0  0  0  0  0  0  0  0  0  0  0  0
  146.8118  135.6611  156.0685 H   0  0  0  0  0  0  0  0  0  0  0  0
  147.2366  135.6684  154.3822 H   0  0  0  0  0  0  0  0  0  0  0  0
  149.3811  134.5775  157.2942 H   0  0  0  0  0  0  0  0  0  0  0  0
  147.7192  134.1262  157.5269 H   0  0  0  0  0  0  0  0  0  0  0  0
  148.2333  131.9380  157.7259 H   0  0  0  0  0  0  0  0  0  0  0  0
  149.1321  131.9202  156.2122 H   0  0  0  0  0  0  0  0  0  0  0  0
  150.5949  131.5575  157.7620 H   0  0  0  0  0  0  0  0  0  0  0  0
  149.8981  133.2103  154.6684 H   0  0  0  0  0  0  0  0  0  0  0  0
  149.0397  134.2455  153.5762 H   0  0  0  0  0  0  0  0  0  0  0  0
  151.2346  135.2019  154.0648 H   0  0  0  0  0  0  0  0  0  0  0  0
  150.9327  135.2075  155.7854 H   0  0  0  0  0  0  0  0  0  0  0  0
  153.0691  140.3323  158.9636 H   0  0  0  0  0  0  0  0  0  0  0  0
  153.8984  141.0953  161.0211 H   0  0  0  0  0  0  0  0  0  0  0  0
  152.8886  142.2286  161.9128 H   0  0  0  0  0  0  0  0  0  0  0  0
  154.2829  142.8152  160.9929 H   0  0  0  0  0  0  0  0  0  0  0  0
  149.4189  136.7007  153.7618 H   0  0  0  0  0  0  0  0  0  0  0  0
  149.6370  143.2128  155.9445 H   0  0  0  0  0  0  0  0  0  0  0  0
  1  2  1  0  0  0  0
  1 25  1  0  0  0  0
  1 26  1  0  0  0  0
  1 27  1  0  0  0  0
  2 23  1  0  0  0  0
  2  3  2  0  0  0  0
  3  4  1  0  0  0  0
  3 28  1  0  0  0  0
  4 21  2  0  0  0  0
  4  5  1  0  0  0  0
  5  6  2  0  0  0  0
  5 54  1  0  0  0  0
  6  7  1  0  0  0  0
  6 29  1  0  0  0  0
  7  8  1  0  0  0  0
  7 21  1  0  0  0  0
  8  9  1  0  0  0  0
  8 30  1  0  0  0  0
  8 31  1  0  0  0  0
  9 10  1  0  0  0  0
  9 11  1  0  0  0  0
  9 32  1  0  0  0  0
 10 33  1  0  0  0  0
 11 12  1  0  0  0  0
 11 34  1  0  0  0  0
 11 35  1  0  0  0  0
 12 20  1  0  0  0  0
 12 13  1  0  0  0  0
 12 53  1  0  0  0  0
 13 14  1  0  0  0  0
 13 36  1  0  0  0  0
 13 37  1  0  0  0  0
 14 15  1  0  0  0  0
 14 38  1  0  0  0  0
 14 39  1  0  0  0  0
 15 16  1  0  0  0  0
 15 19  1  0  0  0  0
 16 17  1  0  0  0  0
 16 40  1  0  0  0  0
 16 41  1  0  0  0  0
 17 18  1  0  0  0  0
 17 42  1  0  0  0  0
 17 43  1  0  0  0  0
 18 44  1  0  0  0  0
 19 20  1  0  0  0  0
 19 45  1  0  0  0  0
 19 46  1  0  0  0  0
 20 47  1  0  0  0  0
 20 48  1  0  0  0  0
 21 22  1  0  0  0  0
 22 23  2  0  0  0  0
 22 49  1  0  0  0  0
 23 24  1  0  0  0  0
 24 50  1  0  0  0  0
 24 51  1  0  0  0  0
 24 52  1  0  0  0  0
M  CHG  1   5   1
M  CHG  1  12   1
M  END
> <s_m_source_file>
AV-unprocessed.smi

> <i_m_source_file_index>
1046

> <i_lp_mmshare_version>
43012

> <i_f3d_flags>
0

> <s_epik_input>
W0NIM11jKFtjSF0xKWMoW0NIM10pW2NIXWMoYzEyKW4oW2NIXW4yKVtDSDJdW0NASF0oW09IXSlbQ0gyXU4zW0NIMl1bQ0gyXU4oW0NIMl1bQ0gyXTMpW0NIMl1bQ0gyXVtPSF0=

> <s_epik_cmdline>
J2VwaWtfcHl0aG9uJywgJy1waCcsICc3LjAnLCAnLXRuJywgJzgnLCAnLW1hJywgJzIwMCcsICctbWV0YWxfYmluZGluZycsICctaW1hZScsICc8aW5maWxlLm1hZT4nLCAnLW9tYWUnLCAnPG91dGZpbGUubWFlPic=

> <r_epik_Ionization_Penalty>
1.22056

> <r_epik_Ionization_Penalty_Charging>
1.17959

> <r_epik_Ionization_Penalty_Neutral>
0.0409743

> <r_epik_State_Penalty>
1.27074

> <r_epik_Charging_Adjusted_Penalty>
2.45032

> <i_epik_Tot_Q>
2

> <i_epik_Tot_abs_Q>
2

> <r_epik_Metal_State_Penalty>
5.26922

> <b_epik_Metal_Only>
0

> <s_lp_Force_Field>
OPLS_2005

> <r_lp_Energy>
41.2385

> <b_lp_Chiralities_Consistent>
1

> <s_lp_Variant>
AV-unprocessed.smi:1046-5

> <Gold.Version>
5.8.1

> <Gold.Id.Protein>
6NUR|6NUR_protein|mol2

> <Gold.PLP.Fitness>
55.3603

> <Gold.PLP.PLP>
-42.8245

> <Gold.PLP.part.hbond>
-3.0000

> <Gold.PLP.part.metal>
0.0000

> <Gold.PLP.part.buried>
-5.7424

> <Gold.PLP.part.nonpolar>
-34.8565

> <Gold.PLP.part.repulsive>
0.1841

> <Gold.PLP.ligand.clash>
0.0000

> <Gold.PLP.ligand.torsion>
1.2487

> <Gold.PLP.Chemscore.Hbond>
5.0000

> <Gold.PLP.Chemscore.CHOScore>
0.0000

> <Gold.PLP.Chemscore.Metal>
0.0000

> <Gold.Chemscore.Hbonds>
donor molecule, donor type, donor heavy atom, donor atom, acceptor molecule, acceptor atom, score
      L1  H     5    54       P1  8028  2.00
      L1  H    12    53       P1  7948  2.00
      P1  H  6896  6908       L1    18  1.00

> <Gold.PLP.Chemscore.Internal.Correction>
0.0332

> <Gold.Rescore>
     Score         DG    S(hbond)    S(metal)    S(lipo)     H(rot)  DE(clash)    DE(int)     intcor
     17.99     -20.43       2.88        0.00     117.64       3.29       0.04       2.40       ----

> <Gold.Chemscore.Fitness>
17.9928

> <Gold.Chemscore.DG>
-20.4326

> <Gold.Chemscore.ZeroCoef>
-5.4800

> <Gold.Chemscore.Hbond>
2.8774

> <Gold.Chemscore.Metal>
0.0000

> <Gold.Chemscore.Lipo>
117.6385

> <Gold.Chemscore.Internal_Hbond>
0.0000

> <Gold.Chemscore.DEClash>
0.0428

> <Gold.Chemscore.DEInternal>
2.3970

> <Gold.Chemscore.Rot>
3.2896

> <Gold.Chemscore.Internal.Correction>
   9.000000E+99

> <Gold.Chemscore.Hbonds>
donor molecule, donor type, donor heavy atom, donor atom, acceptor molecule, acceptor atom, score
      L1  H     5    54       P1  8028  1.00
      L1  H    12    53       P1  7948  0.88
      P1  H  6896  6908       L1    18  0.82

> <Gold.Chemscore.Hbond.Weighted>
-9.6104

> <Gold.Chemscore.Metal.Weighted>
-0.0000

> <Gold.Chemscore.Lipo.Weighted>
-13.7637

> <Gold.Chemscore.Internal_Hbond.Weighted>
0.0000

> <Gold.Chemscore.DEClash.Weighted>
0.0428

> <Gold.Chemscore.DEInternal.Weighted>
2.3970

> <Gold.Chemscore.Rot.Weighted>
8.4215

> <Gold.Chemscore.Internal.Correction.Weighted>
   9.000000E+99

> <Gold.Protein.RotatedTorsions>
[ 6907 6896 6895 6894 ] final   91.75 input  -60.11 | X-H torsion
[ 7974 7965 7964 7962 ] final   15.02 input  175.53 | X-H torsion
[ 8008 7997 7996 7995 ] final  -93.90 input   59.86 | X-H torsion
[ 10167 10162 10161 10158 ] final   52.91 input  -65.29 | X-H torsion
[ 10718 10713 10712 10709 ] final -118.25 input   66.30 | X-H torsion
[ 10763 10752 10751 10750 ] final  179.51 input  -60.55 | X-H torsion
[ 11005 11000 10999 10996 ] final   83.63 input  -57.11 | X-H torsion

> <Gold.Protein.ActiveResidues>
 VAL166  LYS551  ARG553  GLY616  TRP617  ASP618  TYR619  PRO620  LYS621  CYS622 
 ASP623  PHE694  ASN695  SER759  ASP760  ASP761  ALA762  ILE779  LEU786  VAL792 
 PHE793  MET794  SER795  GLU796  ALA797  LYS798  CYS799  TRP800  GLU811  SER814 

> <Gold.Protein.RotatedAtoms>
  152.5451  134.1609  159.8556 H   0  0  0  0  0  0  0  0  0  0  0  0  # atno 6907 bound_to 6896
  151.1627  133.4827  159.2601 H   0  0  0  0  0  0  0  0  0  0  0  0  # atno 6908 bound_to 6896
  151.1356  135.0164  159.8657 H   0  0  0  0  0  0  0  0  0  0  0  0  # atno 6909 bound_to 6896
  146.2289  139.8955  142.8548 H   0  0  0  0  0  0  0  0  0  0  0  0  # atno 7974 bound_to 7965
  154.7415  140.0494  157.0815 H   0  0  0  0  0  0  0  0  0  0  0  0  # atno 8008 bound_to 7997
  155.0172  140.3143  155.4788 H   0  0  0  0  0  0  0  0  0  0  0  0  # atno 8009 bound_to 7997
  156.2865  140.2173  156.5289 H   0  0  0  0  0  0  0  0  0  0  0  0  # atno 8010 bound_to 7997
  140.2464  144.3528  150.6363 H   0  0  0  0  0  0  0  0  0  0  0  0  # atno 10167 bound_to 10162
  156.1093  130.6236  150.9268 H   0  0  0  0  0  0  0  0  0  0  0  0  # atno 10718 bound_to 10713
  154.5216  135.2794  155.1257 H   0  0  0  0  0  0  0  0  0  0  0  0  # atno 10763 bound_to 10752
  154.2813  135.6285  153.5352 H   0  0  0  0  0  0  0  0  0  0  0  0  # atno 10764 bound_to 10752
  152.9938  135.5652  154.5707 H   0  0  0  0  0  0  0  0  0  0  0  0  # atno 10765 bound_to 10752
  139.9025  134.8159  156.2336 H   0  0  0  0  0  0  0  0  0  0  0  0  # atno 11005 bound_to 11000
  145.2375  140.9997  143.3955 LP  0  0  0  0  0  0  0  0  0  0  0  0  # atno 17320 bound_to 7965
  144.9479  139.4115  143.6417 LP  0  0  0  0  0  0  0  0  0  0  0  0  # atno 17321 bound_to 7965
  140.6075  143.2168  151.6953 LP  0  0  0  0  0  0  0  0  0  0  0  0  # atno 17342 bound_to 10162
  139.5060  144.3696  152.0483 LP  0  0  0  0  0  0  0  0  0  0  0  0  # atno 17343 bound_to 10162
  157.6273  131.0924  150.8510 LP  0  0  0  0  0  0  0  0  0  0  0  0  # atno 17370 bound_to 10713
  156.8623  130.5117  149.5303 LP  0  0  0  0  0  0  0  0  0  0  0  0  # atno 17371 bound_to 10713
  141.0330  133.6978  156.1463 LP  0  0  0  0  0  0  0  0  0  0  0  0  # atno 17394 bound_to 11000
  140.7069  134.4504  157.5583 LP  0  0  0  0  0  0  0  0  0  0  0  0  # atno 17395 bound_to 11000

$$$$
