AV-unprocessed.smi:1936|AV-procd|sdf|7830|dock4
  -GOLD-   22720 9573D 1   1.00000     0.00000
 Structure written by MMmdl.
 38 39  0  0  0  0  0  0  0  0  1 V2000
  146.1263  135.3437  155.6941 C   0  0  0  0  0  0  0  0  0  0  0  0
  146.8896  136.4407  154.9339 C   0  0  1  0  0  0  0  0  0  0  0  0
  148.3957  136.4195  155.2756 C   0  0  0  0  0  0  0  0  0  0  0  0
  149.1926  137.4836  154.6634 N   0  0  0  0  0  0  0  0  0  0  0  0
  150.6097  137.4016  155.0122 C   0  0  0  0  0  0  0  0  0  0  0  0
  151.4245  138.5479  154.3880 C   0  0  0  0  0  0  0  0  0  0  0  0
  150.8734  139.7993  154.7844 O   0  0  0  0  0  0  0  0  0  0  0  0
  149.5060  139.9369  154.4127 C   0  0  0  0  0  0  0  0  0  0  0  0
  148.6860  138.7983  155.0432 C   0  0  0  0  0  0  0  0  0  0  0  0
  146.7063  136.2416  153.4976 N   0  0  0  0  0  0  0  0  0  0  0  0
  145.5295  136.0561  152.8802 C   0  0  0  0  0  0  0  0  0  0  0  0
  144.4532  136.0193  153.4789 O   0  0  0  0  0  0  0  0  0  0  0  0
  145.6003  135.8908  151.3569 C   0  0  0  0  0  0  0  0  0  0  0  0
  145.4710  134.5071  150.9287 N   0  0  0  0  0  0  0  0  0  0  0  0
  144.4116  133.9056  150.2812 C   0  0  0  0  0  0  0  0  0  0  0  0
  144.7460  132.5966  150.0832 C   0  0  0  0  0  0  0  0  0  0  0  0
  146.0462  132.4904  150.6514 C   0  0  0  0  0  0  0  0  0  0  0  0
  146.4766  133.6343  151.1590 N   0  0  0  0  0  0  0  0  0  0  0  0
  146.2249  135.4723  156.7724 H   0  0  0  0  0  0  0  0  0  0  0  0
  146.5006  134.3510  155.4415 H   0  0  0  0  0  0  0  0  0  0  0  0
  145.0614  135.3682  155.4607 H   0  0  0  0  0  0  0  0  0  0  0  0
  146.4743  137.4044  155.2365 H   0  0  0  0  0  0  0  0  0  0  0  0
  148.4877  136.5241  156.3574 H   0  0  0  0  0  0  0  0  0  0  0  0
  148.8254  135.4429  155.0457 H   0  0  0  0  0  0  0  0  0  0  0  0
  150.7258  137.4244  156.0968 H   0  0  0  0  0  0  0  0  0  0  0  0
  151.0280  136.4551  154.6712 H   0  0  0  0  0  0  0  0  0  0  0  0
  152.4632  138.4957  154.7144 H   0  0  0  0  0  0  0  0  0  0  0  0
  151.4263  138.4720  153.2994 H   0  0  0  0  0  0  0  0  0  0  0  0
  149.1388  140.9043  154.7555 H   0  0  0  0  0  0  0  0  0  0  0  0
  149.4132  139.9250  153.3255 H   0  0  0  0  0  0  0  0  0  0  0  0
  147.6432  138.8957  154.7387 H   0  0  0  0  0  0  0  0  0  0  0  0
  148.7043  138.9020  156.1293 H   0  0  0  0  0  0  0  0  0  0  0  0
  147.5403  136.2571  152.9284 H   0  0  0  0  0  0  0  0  0  0  0  0
  144.8139  136.4869  150.8908 H   0  0  0  0  0  0  0  0  0  0  0  0
  146.5540  136.2756  150.9935 H   0  0  0  0  0  0  0  0  0  0  0  0
  143.5198  134.4544  150.0163 H   0  0  0  0  0  0  0  0  0  0  0  0
  144.1531  131.8318  149.6040 H   0  0  0  0  0  0  0  0  0  0  0  0
  146.6854  131.6219  150.7103 H   0  0  0  0  0  0  0  0  0  0  0  0
  1  2  1  0  0  0  0
  1 19  1  0  0  0  0
  1 20  1  0  0  0  0
  1 21  1  0  0  0  0
  2  3  1  0  0  0  0
  2 10  1  0  0  0  0
  2 22  1  0  0  0  0
  3  4  1  0  0  0  0
  3 23  1  0  0  0  0
  3 24  1  0  0  0  0
  4  9  1  0  0  0  0
  4  5  1  0  0  0  0
  5  6  1  0  0  0  0
  5 25  1  0  0  0  0
  5 26  1  0  0  0  0
  6  7  1  0  0  0  0
  6 27  1  0  0  0  0
  6 28  1  0  0  0  0
  7  8  1  0  0  0  0
  8  9  1  0  0  0  0
  8 29  1  0  0  0  0
  8 30  1  0  0  0  0
  9 31  1  0  0  0  0
  9 32  1  0  0  0  0
 10 11  1  0  0  0  0
 10 33  1  0  0  0  0
 11 12  2  0  0  0  0
 11 13  1  0  0  0  0
 13 14  1  0  0  0  0
 13 34  1  0  0  0  0
 13 35  1  0  0  0  0
 14 18  1  0  0  0  0
 14 15  1  0  0  0  0
 15 16  2  0  0  0  0
 15 36  1  0  0  0  0
 16 17  1  0  0  0  0
 16 37  1  0  0  0  0
 17 18  2  0  0  0  0
 17 38  1  0  0  0  0
M  END
> <s_m_source_file>
AV-unprocessed.smi

> <i_m_source_file_index>
1936

> <i_lp_mmshare_version>
43012

> <i_f3d_flags>
0

> <s_epik_input>
W0NIMl0xW0NIMl1PW0NIMl1bQ0gyXU4xW0NIMl1bQ0BASF0oW0NIM10pW05IXUMoPU8pW0NIMl1uMltjSF1bY0hdW2NIXW4y

> <s_epik_cmdline>
J2VwaWtfcHl0aG9uJywgJy1waCcsICc3LjAnLCAnLXRuJywgJzgnLCAnLW1hJywgJzIwMCcsICctbWV0YWxfYmluZGluZycsICctaW1hZScsICc8aW5maWxlLm1hZT4nLCAnLW9tYWUnLCAnPG91dGZpbGUubWFlPic=

> <r_lp_tautomer_probability>
1

> <r_epik_Ionization_Penalty>
0.196927

> <r_epik_Ionization_Penalty_Charging>
0

> <r_epik_Ionization_Penalty_Neutral>
0.196927

> <r_epik_State_Penalty>
0.186684

> <r_epik_Charging_Adjusted_Penalty>
0.186684

> <i_epik_Tot_Q>
0

> <i_epik_Tot_abs_Q>
0

> <r_epik_Metal_State_Penalty>
0.186682

> <b_epik_Metal_Only>
0

> <s_lp_Force_Field>
OPLS_2005

> <r_lp_Energy>
27.4163

> <b_lp_Chiralities_Consistent>
1

> <s_lp_Variant>
AV-unprocessed.smi:1936-2

> <Gold.Version>
5.8.1

> <Gold.Id.Protein>
6NUR|6NUR_protein|mol2

> <Gold.PLP.Fitness>
37.0067

> <Gold.PLP.PLP>
-25.9785

> <Gold.PLP.part.hbond>
-2.0000

> <Gold.PLP.part.metal>
0.0000

> <Gold.PLP.part.buried>
-5.8611

> <Gold.PLP.part.nonpolar>
-19.4528

> <Gold.PLP.part.repulsive>
1.0050

> <Gold.PLP.ligand.clash>
0.0000

> <Gold.PLP.ligand.torsion>
0.4388

> <Gold.PLP.Chemscore.Hbond>
1.9500

> <Gold.PLP.Chemscore.CHOScore>
1.9993

> <Gold.PLP.Chemscore.Metal>
0.0000

> <Gold.Chemscore.Hbonds>
donor molecule, donor type, donor heavy atom, donor atom, acceptor molecule, acceptor atom, score
      L1  H    10    33       P1  7948  1.00
      P1  H  7989  7998       L1     7  0.90
      L1  C    15    36       P1 10186  0.95
      L1  C    17    38       P1 10747  1.00

> <Gold.PLP.Chemscore.Internal.Correction>
0.0577

> <Gold.Rescore>
     Score         DG    S(hbond)    S(metal)    S(lipo)     H(rot)  DE(clash)    DE(int)     intcor
     10.55     -10.96       1.07        0.00      57.03       1.85       0.14       0.27       ----

> <Gold.Chemscore.Fitness>
10.5500

> <Gold.Chemscore.DG>
-10.9645

> <Gold.Chemscore.ZeroCoef>
-5.4800

> <Gold.Chemscore.Hbond>
1.0661

> <Gold.Chemscore.Metal>
0.0000

> <Gold.Chemscore.Lipo>
57.0273

> <Gold.Chemscore.Internal_Hbond>
0.0000

> <Gold.Chemscore.DEClash>
0.1415

> <Gold.Chemscore.DEInternal>
0.2729

> <Gold.Chemscore.Rot>
1.8549

> <Gold.Chemscore.Internal.Correction>
   9.000000E+99

> <Gold.Chemscore.Hbonds>
donor molecule, donor type, donor heavy atom, donor atom, acceptor molecule, acceptor atom, score
      L1  H    10    33       P1  7948  1.00
      P1  H  7989  7998       L1     7  0.05

> <Gold.Chemscore.Hbond.Weighted>
-3.5608

> <Gold.Chemscore.Metal.Weighted>
-0.0000

> <Gold.Chemscore.Lipo.Weighted>
-6.6722

> <Gold.Chemscore.Internal_Hbond.Weighted>
0.0000

> <Gold.Chemscore.DEClash.Weighted>
0.1415

> <Gold.Chemscore.DEInternal.Weighted>
0.2729

> <Gold.Chemscore.Rot.Weighted>
4.7485

> <Gold.Chemscore.Internal.Correction.Weighted>
   9.000000E+99

> <Gold.Protein.RotatedTorsions>
[ 6907 6896 6895 6894 ] final -113.90 input  -60.11 | X-H torsion
[ 7974 7965 7964 7962 ] final  120.60 input  175.53 | X-H torsion
[ 8008 7997 7996 7995 ] final   57.53 input   59.86 | X-H torsion
[ 10167 10162 10161 10158 ] final   98.95 input  -65.29 | X-H torsion
[ 10718 10713 10712 10709 ] final  107.98 input   66.30 | X-H torsion
[ 10763 10752 10751 10750 ] final  -76.93 input  -60.55 | X-H torsion
[ 11005 11000 10999 10996 ] final  174.39 input  -57.11 | X-H torsion

> <Gold.Protein.ActiveResidues>
 VAL166  LYS551  ARG553  GLY616  TRP617  ASP618  TYR619  PRO620  LYS621  CYS622 
 ASP623  PHE694  ASN695  SER759  ASP760  ASP761  ALA762  ILE779  LEU786  VAL792 
 PHE793  MET794  SER795  GLU796  ALA797  LYS798  CYS799  TRP800  GLU811  SER814 

> <Gold.Protein.RotatedAtoms>
  150.7862  133.8878  159.3304 H   0  0  0  0  0  0  0  0  0  0  0  0  # atno 6907 bound_to 6896
  151.6728  135.0971  160.0211 H   0  0  0  0  0  0  0  0  0  0  0  0  # atno 6908 bound_to 6896
  152.3927  133.6663  159.6286 H   0  0  0  0  0  0  0  0  0  0  0  0  # atno 6909 bound_to 6896
  145.1292  139.3338  143.4674 H   0  0  0  0  0  0  0  0  0  0  0  0  # atno 7974 bound_to 7965
  155.5353  140.3483  155.4435 H   0  0  0  0  0  0  0  0  0  0  0  0  # atno 8008 bound_to 7997
  156.0690  140.1358  156.9878 H   0  0  0  0  0  0  0  0  0  0  0  0  # atno 8009 bound_to 7997
  154.4518  140.0969  156.6615 H   0  0  0  0  0  0  0  0  0  0  0  0  # atno 8010 bound_to 7997
  139.7662  144.6938  151.0221 H   0  0  0  0  0  0  0  0  0  0  0  0  # atno 10167 bound_to 10162
  157.6606  131.0884  150.6237 H   0  0  0  0  0  0  0  0  0  0  0  0  # atno 10718 bound_to 10713
  154.5064  135.5781  153.6570 H   0  0  0  0  0  0  0  0  0  0  0  0  # atno 10763 bound_to 10752
  152.9888  135.6148  154.2936 H   0  0  0  0  0  0  0  0  0  0  0  0  # atno 10764 bound_to 10752
  154.2848  135.2850  155.2661 H   0  0  0  0  0  0  0  0  0  0  0  0  # atno 10765 bound_to 10752
  140.3508  134.7197  157.4266 H   0  0  0  0  0  0  0  0  0  0  0  0  # atno 11005 bound_to 11000
  146.3515  140.1284  142.8598 LP  0  0  0  0  0  0  0  0  0  0  0  0  # atno 17320 bound_to 7965
  145.0654  140.9117  143.4914 LP  0  0  0  0  0  0  0  0  0  0  0  0  # atno 17321 bound_to 7965
  140.7811  143.4640  151.0238 LP  0  0  0  0  0  0  0  0  0  0  0  0  # atno 17342 bound_to 10162
  139.8325  143.7672  152.3180 LP  0  0  0  0  0  0  0  0  0  0  0  0  # atno 17343 bound_to 10162
  156.6540  130.4493  149.5710 LP  0  0  0  0  0  0  0  0  0  0  0  0  # atno 17370 bound_to 10713
  156.2116  130.6682  151.1276 LP  0  0  0  0  0  0  0  0  0  0  0  0  # atno 17371 bound_to 10713
  140.0705  134.5869  155.8647 LP  0  0  0  0  0  0  0  0  0  0  0  0  # atno 17394 bound_to 11000
  141.2013  133.6617  156.5941 LP  0  0  0  0  0  0  0  0  0  0  0  0  # atno 17395 bound_to 11000

$$$$
