AV-unprocessed.smi:1831|AV-procd|sdf|7456|dock1
  -GOLD-   22720 9143D 1   1.00000     0.00000
 Structure written by MMmdl.
 41 42  0  0  0  0  0  0  0  0  2 V2000
  151.3442  140.9855  157.0220 C   0  0  0  0  0  0  0  0  0  0  0  0
  151.0753  139.8552  156.0882 C   0  0  0  0  0  0  0  0  0  0  0  0
  150.7923  140.0362  154.7918 N   0  0  0  0  0  0  0  0  0  0  0  0
  150.5786  138.8371  154.1248 N   0  0  0  0  0  0  0  0  0  0  0  0
  150.7054  137.7844  154.9377 C   0  0  0  0  0  0  0  0  0  0  0  0
  150.5150  136.4913  154.3892 N   0  0  0  0  0  0  0  0  0  0  0  0
  149.9159  135.4330  154.9585 C   0  0  0  0  0  0  0  0  0  0  0  0
  149.4121  135.4180  156.0814 O   0  0  0  0  0  0  0  0  0  0  0  0
  149.9288  134.3701  154.1406 N   0  0  0  0  0  0  0  0  0  0  0  0
  149.3868  133.0517  154.4566 C   0  0  0  0  0  0  0  0  0  0  0  0
  148.0025  132.8224  153.8187 C   0  0  2  0  0  0  0  0  0  0  0  0
  147.5216  131.3725  153.8016 C   0  0  0  0  0  0  0  0  0  0  0  0
  146.4908  131.3774  152.6793 C   0  0  0  0  0  0  0  0  0  0  0  0
  147.0559  132.2683  151.6419 N   0  3  1  0  0  0  0  0  0  0  0  0
  146.0722  132.8570  150.6895 C   0  0  0  0  0  0  0  0  0  0  0  0
  145.1844  133.9178  151.3681 C   0  0  0  0  0  0  0  0  0  0  0  0
  145.1797  131.7654  150.0682 C   0  0  0  0  0  0  0  0  0  0  0  0
  147.9266  133.2475  152.3426 C   0  0  0  0  0  0  0  0  0  0  0  0
  151.1004  138.1759  156.6113 S   0  0  0  0  0  0  0  0  0  0  0  0
  151.5645  141.8982  156.4673 H   0  0  0  0  0  0  0  0  0  0  0  0
  152.1979  140.7502  157.6575 H   0  0  0  0  0  0  0  0  0  0  0  0
  150.4735  141.1606  157.6541 H   0  0  0  0  0  0  0  0  0  0  0  0
  150.8841  136.3577  153.4592 H   0  0  0  0  0  0  0  0  0  0  0  0
  150.3651  134.4753  153.2360 H   0  0  0  0  0  0  0  0  0  0  0  0
  150.0886  132.3092  154.0756 H   0  0  0  0  0  0  0  0  0  0  0  0
  149.3426  132.9000  155.5366 H   0  0  0  0  0  0  0  0  0  0  0  0
  147.2636  133.4080  154.3686 H   0  0  0  0  0  0  0  0  0  0  0  0
  148.3424  130.7002  153.5468 H   0  0  0  0  0  0  0  0  0  0  0  0
  147.1035  131.0509  154.7561 H   0  0  0  0  0  0  0  0  0  0  0  0
  146.2973  130.3754  152.2946 H   0  0  0  0  0  0  0  0  0  0  0  0
  145.5502  131.7893  153.0493 H   0  0  0  0  0  0  0  0  0  0  0  0
  146.6275  133.3457  149.8873 H   0  0  0  0  0  0  0  0  0  0  0  0
  144.4395  134.3052  150.6724 H   0  0  0  0  0  0  0  0  0  0  0  0
  145.7620  134.7738  151.7173 H   0  0  0  0  0  0  0  0  0  0  0  0
  144.6510  133.5009  152.2230 H   0  0  0  0  0  0  0  0  0  0  0  0
  144.4495  132.2007  149.3853 H   0  0  0  0  0  0  0  0  0  0  0  0
  144.6285  131.2212  150.8360 H   0  0  0  0  0  0  0  0  0  0  0  0
  145.7540  131.0388  149.4940 H   0  0  0  0  0  0  0  0  0  0  0  0
  147.5441  134.2665  152.2732 H   0  0  0  0  0  0  0  0  0  0  0  0
  148.9084  133.2318  151.8680 H   0  0  0  0  0  0  0  0  0  0  0  0
  147.6786  131.6893  151.0967 H   0  0  0  0  0  0  0  0  0  0  0  0
  1  2  1  0  0  0  0
  1 20  1  0  0  0  0
  1 21  1  0  0  0  0
  1 22  1  0  0  0  0
  2 19  1  0  0  0  0
  2  3  2  0  0  0  0
  3  4  1  0  0  0  0
  4  5  2  0  0  0  0
  5  6  1  0  0  0  0
  5 19  1  0  0  0  0
  6  7  1  0  0  0  0
  6 23  1  0  0  0  0
  7  8  2  0  0  0  0
  7  9  1  0  0  0  0
  9 10  1  0  0  0  0
  9 24  1  0  0  0  0
 10 11  1  0  0  0  0
 10 25  1  0  0  0  0
 10 26  1  0  0  0  0
 11 18  1  0  0  0  0
 11 12  1  0  0  0  0
 11 27  1  0  0  0  0
 12 13  1  0  0  0  0
 12 28  1  0  0  0  0
 12 29  1  0  0  0  0
 13 14  1  0  0  0  0
 13 30  1  0  0  0  0
 13 31  1  0  0  0  0
 14 15  1  0  0  0  0
 14 18  1  0  0  0  0
 14 41  1  0  0  0  0
 15 16  1  0  0  0  0
 15 17  1  0  0  0  0
 15 32  1  0  0  0  0
 16 33  1  0  0  0  0
 16 34  1  0  0  0  0
 16 35  1  0  0  0  0
 17 36  1  0  0  0  0
 17 37  1  0  0  0  0
 17 38  1  0  0  0  0
 18 39  1  0  0  0  0
 18 40  1  0  0  0  0
M  CHG  1  14   1
M  END
> <s_m_source_file>
AV-unprocessed.smi

> <i_m_source_file_index>
1831

> <i_lp_mmshare_version>
43012

> <i_f3d_flags>
0

> <s_epik_input>
W0NIM11jMW5uYyhzMSlbTkhdQyg9TylbTkhdW0NIMl1bQ0BASF0yW0NIMl1bQ0gyXU4oW0NIMl0yKVtDSF0oW0NIM10pW0NIM10=

> <s_epik_cmdline>
J2VwaWtfcHl0aG9uJywgJy1waCcsICc3LjAnLCAnLXRuJywgJzgnLCAnLW1hJywgJzIwMCcsICctbWV0YWxfYmluZGluZycsICctaW1hZScsICc8aW5maWxlLm1hZT4nLCAnLW9tYWUnLCAnPG91dGZpbGUubWFlPic=

> <r_lp_tautomer_probability>
1

> <r_epik_Ionization_Penalty>
0.00080807

> <r_epik_Ionization_Penalty_Charging>
0.000218981

> <r_epik_Ionization_Penalty_Neutral>
0.00058909

> <r_epik_State_Penalty>
-0

> <r_epik_Charging_Adjusted_Penalty>
0.000218981

> <i_epik_Tot_Q>
1

> <i_epik_Tot_abs_Q>
1

> <r_epik_Metal_State_Penalty>
0.236062

> <b_epik_Metal_Only>
0

> <s_lp_Force_Field>
OPLS_2005

> <r_lp_Energy>
28.9112

> <b_lp_Chiralities_Consistent>
1

> <s_lp_Variant>
AV-unprocessed.smi:1831-1

> <Gold.Version>
5.8.1

> <Gold.Id.Protein>
6NUR|6NUR_protein|mol2

> <Gold.PLP.Fitness>
39.3507

> <Gold.PLP.PLP>
-31.4446

> <Gold.PLP.part.hbond>
-4.7901

> <Gold.PLP.part.metal>
0.0000

> <Gold.PLP.part.buried>
-3.0838

> <Gold.PLP.part.nonpolar>
-23.4689

> <Gold.PLP.part.repulsive>
0.4724

> <Gold.PLP.ligand.clash>
0.0000

> <Gold.PLP.ligand.torsion>
0.5731

> <Gold.PLP.Chemscore.Hbond>
3.0000

> <Gold.PLP.Chemscore.CHOScore>
0.0000

> <Gold.PLP.Chemscore.Metal>
0.0000

> <Gold.Chemscore.Hbonds>
donor molecule, donor type, donor heavy atom, donor atom, acceptor molecule, acceptor atom, score
      L1  H     6    23       P1  7949  0.80
      L1  H    14    41       P1 10747  1.00
      P1  H  7989  7998       L1     3  0.85

> <Gold.PLP.Chemscore.Internal.Correction>
0.0522

> <Gold.Rescore>
     Score         DG    S(hbond)    S(metal)    S(lipo)     H(rot)  DE(clash)    DE(int)     intcor
     15.95     -17.12       2.25        0.00      69.11       1.54       0.41       0.77       ----

> <Gold.Chemscore.Fitness>
15.9510

> <Gold.Chemscore.DG>
-17.1249

> <Gold.Chemscore.ZeroCoef>
-5.4800

> <Gold.Chemscore.Hbond>
2.2456

> <Gold.Chemscore.Metal>
0.0000

> <Gold.Chemscore.Lipo>
69.1105

> <Gold.Chemscore.Internal_Hbond>
0.0000

> <Gold.Chemscore.DEClash>
0.4079

> <Gold.Chemscore.DEInternal>
0.7661

> <Gold.Chemscore.Rot>
1.5396

> <Gold.Chemscore.Internal.Correction>
   9.000000E+99

> <Gold.Chemscore.Hbonds>
donor molecule, donor type, donor heavy atom, donor atom, acceptor molecule, acceptor atom, score
      L1  H     6    23       P1  7949  0.11
      L1  H    14    41       P1 10747  1.00
      P1  H  7989  7998       L1     3  0.15

> <Gold.Chemscore.Hbond.Weighted>
-7.5003

> <Gold.Chemscore.Metal.Weighted>
-0.0000

> <Gold.Chemscore.Lipo.Weighted>
-8.0859

> <Gold.Chemscore.Internal_Hbond.Weighted>
0.0000

> <Gold.Chemscore.DEClash.Weighted>
0.4079

> <Gold.Chemscore.DEInternal.Weighted>
0.7661

> <Gold.Chemscore.Rot.Weighted>
3.9413

> <Gold.Chemscore.Internal.Correction.Weighted>
   9.000000E+99

> <Gold.Protein.RotatedTorsions>
[ 6907 6896 6895 6894 ] final    3.20 input  -60.11 | X-H torsion
[ 7974 7965 7964 7962 ] final  -77.59 input  175.53 | X-H torsion
[ 8008 7997 7996 7995 ] final  -36.11 input   59.86 | X-H torsion
[ 10167 10162 10161 10158 ] final  -94.98 input  -65.29 | X-H torsion
[ 10718 10713 10712 10709 ] final   -1.16 input   66.30 | X-H torsion
[ 10763 10752 10751 10750 ] final  122.94 input  -60.55 | X-H torsion
[ 11005 11000 10999 10996 ] final -151.97 input  -57.11 | X-H torsion

> <Gold.Protein.ActiveResidues>
 VAL166  LYS551  ARG553  GLY616  TRP617  ASP618  TYR619  PRO620  LYS621  CYS622 
 ASP623  PHE694  ASN695  SER759  ASP760  ASP761  ALA762  ILE779  LEU786  VAL792 
 PHE793  MET794  SER795  GLU796  ALA797  LYS798  CYS799  TRP800  GLU811  SER814 

> <Gold.Protein.RotatedAtoms>
  151.6213  135.1032  160.0101 H   0  0  0  0  0  0  0  0  0  0  0  0  # atno 6907 bound_to 6896
  152.4156  133.7029  159.6445 H   0  0  0  0  0  0  0  0  0  0  0  0  # atno 6908 bound_to 6896
  150.8045  133.8463  159.3234 H   0  0  0  0  0  0  0  0  0  0  0  0  # atno 6909 bound_to 6896
  145.5976  140.9416  143.1258 H   0  0  0  0  0  0  0  0  0  0  0  0  # atno 7974 bound_to 7965
  154.4080  140.1639  156.2320 H   0  0  0  0  0  0  0  0  0  0  0  0  # atno 8008 bound_to 7997
  155.9274  140.3417  155.6199 H   0  0  0  0  0  0  0  0  0  0  0  0  # atno 8009 bound_to 7997
  155.7148  140.0761  157.2346 H   0  0  0  0  0  0  0  0  0  0  0  0  # atno 8010 bound_to 7997
  140.3088  143.3117  152.0170 H   0  0  0  0  0  0  0  0  0  0  0  0  # atno 10167 bound_to 10162
  156.8097  130.5420  149.5710 H   0  0  0  0  0  0  0  0  0  0  0  0  # atno 10718 bound_to 10713
  153.6377  135.3385  155.3061 H   0  0  0  0  0  0  0  0  0  0  0  0  # atno 10763 bound_to 10752
  154.8566  135.4311  154.2038 H   0  0  0  0  0  0  0  0  0  0  0  0  # atno 10764 bound_to 10752
  153.2949  135.7020  153.7331 H   0  0  0  0  0  0  0  0  0  0  0  0  # atno 10765 bound_to 10752
  140.7239  134.3696  157.5178 H   0  0  0  0  0  0  0  0  0  0  0  0  # atno 11005 bound_to 11000
  144.7324  139.7687  143.7342 LP  0  0  0  0  0  0  0  0  0  0  0  0  # atno 17320 bound_to 7965
  146.1600  139.4711  142.9994 LP  0  0  0  0  0  0  0  0  0  0  0  0  # atno 17321 bound_to 7965
  139.4898  144.6400  151.6897 LP  0  0  0  0  0  0  0  0  0  0  0  0  # atno 17342 bound_to 10162
  140.5586  144.0306  150.6159 LP  0  0  0  0  0  0  0  0  0  0  0  0  # atno 17343 bound_to 10162
  156.1052  130.5999  150.9959 LP  0  0  0  0  0  0  0  0  0  0  0  0  # atno 17370 bound_to 10713
  157.6512  131.0896  150.8046 LP  0  0  0  0  0  0  0  0  0  0  0  0  # atno 17371 bound_to 10713
  139.8841  134.8973  156.2721 LP  0  0  0  0  0  0  0  0  0  0  0  0  # atno 17394 bound_to 11000
  140.9979  133.7169  156.0915 LP  0  0  0  0  0  0  0  0  0  0  0  0  # atno 17395 bound_to 11000

$$$$
