AV-unprocessed.smi:160|AV-procd|sdf|1345|dock10
  -GOLD-   2262019 43D 1   1.00000     0.00000
 Structure written by MMmdl.
 29 30  0  0  0  0  0  0  0  0  1 V2000
  142.8019  134.1995  155.6494 N   0  0  0  0  0  0  0  0  0  0  0  0
  143.4911  135.3424  155.5698 C   0  0  0  0  0  0  0  0  0  0  0  0
  143.2379  136.3147  156.2792 O   0  0  0  0  0  0  0  0  0  0  0  0
  144.6019  135.3789  154.5569 C   0  0  0  0  0  0  0  0  0  0  0  0
  145.5201  136.3901  154.5525 N   0  0  0  0  0  0  0  0  0  0  0  0
  146.2543  136.0000  153.5185 C   0  0  0  0  0  0  0  0  0  0  0  0
  145.8444  134.8603  152.9525 N   0  0  0  0  0  0  0  0  0  0  0  0
  146.3930  134.1364  151.7610 C   0  0  2  0  0  0  0  0  0  0  0  0
  145.4605  134.2516  150.7276 O   0  0  0  0  0  0  0  0  0  0  0  0
  144.6961  133.0536  150.6286 C   0  0  1  0  0  0  0  0  0  0  0  0
  144.0104  132.9391  149.2556 C   0  0  0  0  0  0  0  0  0  0  0  0
  142.8811  132.0966  149.3466 O   0  0  0  0  0  0  0  0  0  0  0  0
  145.7442  131.9778  150.9414 C   0  0  1  0  0  0  0  0  0  0  0  0
  146.5123  131.6839  149.7849 O   0  0  0  0  0  0  0  0  0  0  0  0
  146.5739  132.6323  152.0472 C   0  0  1  0  0  0  0  0  0  0  0  0
  147.9273  132.2166  152.0251 O   0  0  0  0  0  0  0  0  0  0  0  0
  144.7424  134.4370  153.6224 N   0  0  0  0  0  0  0  0  0  0  0  0
  147.3148  134.6626  151.5093 H   0  0  0  0  0  0  0  0  0  0  0  0
  143.9427  133.0366  151.4180 H   0  0  0  0  0  0  0  0  0  0  0  0
  145.2820  131.0515  151.2840 H   0  0  0  0  0  0  0  0  0  0  0  0
  146.1494  132.3824  153.0201 H   0  0  0  0  0  0  0  0  0  0  0  0
  142.0407  134.1151  156.3068 H   0  0  0  0  0  0  0  0  0  0  0  0
  143.0459  133.4283  155.0452 H   0  0  0  0  0  0  0  0  0  0  0  0
  147.1092  136.5580  153.1655 H   0  0  0  0  0  0  0  0  0  0  0  0
  143.7213  133.9174  148.8705 H   0  0  0  0  0  0  0  0  0  0  0  0
  144.6923  132.4915  148.5321 H   0  0  0  0  0  0  0  0  0  0  0  0
  142.1044  132.6218  149.2282 H   0  0  0  0  0  0  0  0  0  0  0  0
  147.3228  131.2830  150.0613 H   0  0  0  0  0  0  0  0  0  0  0  0
  148.0438  131.6098  151.3099 H   0  0  0  0  0  0  0  0  0  0  0  0
  1  2  1  0  0  0  0
  1 22  1  0  0  0  0
  1 23  1  0  0  0  0
  2  3  2  0  0  0  0
  2  4  1  0  0  0  0
  4 17  2  0  0  0  0
  4  5  1  0  0  0  0
  5  6  2  0  0  0  0
  6  7  1  0  0  0  0
  6 24  1  0  0  0  0
  7  8  1  0  0  0  0
  7 17  1  0  0  0  0
  8 18  1  0  0  0  0
  8 15  1  0  0  0  0
  8  9  1  0  0  0  0
  9 10  1  0  0  0  0
 10 19  1  0  0  0  0
 10 11  1  0  0  0  0
 10 13  1  0  0  0  0
 11 12  1  0  0  0  0
 11 25  1  0  0  0  0
 11 26  1  0  0  0  0
 12 27  1  0  0  0  0
 13 20  1  0  0  0  0
 13 14  1  0  0  0  0
 13 15  1  0  0  0  0
 14 28  1  0  0  0  0
 15 21  1  0  0  0  0
 15 16  1  0  0  0  0
 16 29  1  0  0  0  0
M  END
> <s_m_source_file>
AV-unprocessed.smi

> <i_m_source_file_index>
160

> <i_lp_mmshare_version>
43012

> <i_f3d_flags>
0

> <s_epik_input>
W05IMl1DKD1PKWMxbltjSF1uKG4xKVtDQEBIXTJPW0NASF0oW0NIMl1bT0hdKVtDQEBIXShbT0hdKVtDQEhdMltPSF0=

> <s_epik_cmdline>
J2VwaWtfcHl0aG9uJywgJy1waCcsICc3LjAnLCAnLXRuJywgJzgnLCAnLW1hJywgJzIwMCcsICctbWV0YWxfYmluZGluZycsICctaW1hZScsICc8aW5maWxlLm1hZT4nLCAnLW9tYWUnLCAnPG91dGZpbGUubWFlPic=

> <r_lp_tautomer_probability>
1

> <r_epik_Ionization_Penalty>
1.06932e-05

> <r_epik_Ionization_Penalty_Charging>
0

> <r_epik_Ionization_Penalty_Neutral>
1.06932e-05

> <r_epik_State_Penalty>
-0

> <r_epik_Charging_Adjusted_Penalty>
0

> <i_epik_Tot_Q>
0

> <i_epik_Tot_abs_Q>
0

> <r_epik_Metal_State_Penalty>
0.0142097

> <b_epik_Metal_Only>
0

> <s_epik_Chemistry_Notes>
This compound contains an acetal/aminal-like group ( X-CH(R)-Y where X, Y are N, S, or O) that may be acid/base labile, releasing an aldehyde.

> <s_lp_Force_Field>
OPLS_2005

> <r_lp_Energy>
41.9483

> <b_lp_Chiralities_Consistent>
1

> <s_lp_Variant>
AV-unprocessed.smi:160-3

> <Gold.Version>
5.8.1

> <Gold.Id.Protein>
6NUR|6NUR_protein|mol2

> <Gold.PLP.Fitness>
43.1283

> <Gold.PLP.PLP>
-24.7115

> <Gold.PLP.part.hbond>
-6.6358

> <Gold.PLP.part.metal>
0.0000

> <Gold.PLP.part.buried>
-5.2020

> <Gold.PLP.part.nonpolar>
-13.1856

> <Gold.PLP.part.repulsive>
0.3115

> <Gold.PLP.ligand.clash>
0.0000

> <Gold.PLP.ligand.torsion>
0.5369

> <Gold.PLP.Chemscore.Hbond>
5.4900

> <Gold.PLP.Chemscore.CHOScore>
1.0000

> <Gold.PLP.Chemscore.Metal>
0.0000

> <Gold.Chemscore.Hbonds>
donor molecule, donor type, donor heavy atom, donor atom, acceptor molecule, acceptor atom, score
      L1  H     1    22       P1 11000  1.00
      L1  H     1    23       P1 10957  0.80
      L1  H    12    27       P1 10186  0.78
      L1  H    14    28       P1 10747  1.00
      L1  H    16    29       P1 10747  1.00
      P1  H 10785 10796       L1    12  0.91
      L1  C     6    24       P1  7948  1.00

> <Gold.PLP.Chemscore.Internal.Correction>
0.0207

> <Gold.Rescore>
     Score         DG    S(hbond)    S(metal)    S(lipo)     H(rot)  DE(clash)    DE(int)     intcor
     15.75     -16.08       5.08        0.00      34.48       4.06       0.01       0.33       ----

> <Gold.Chemscore.Fitness>
15.7453

> <Gold.Chemscore.DG>
-16.0805

> <Gold.Chemscore.ZeroCoef>
-5.4800

> <Gold.Chemscore.Hbond>
5.0778

> <Gold.Chemscore.Metal>
0.0000

> <Gold.Chemscore.Lipo>
34.4810

> <Gold.Chemscore.Internal_Hbond>
0.0000

> <Gold.Chemscore.DEClash>
0.0060

> <Gold.Chemscore.DEInternal>
0.3292

> <Gold.Chemscore.Rot>
4.0600

> <Gold.Chemscore.Internal.Correction>
   9.000000E+99

> <Gold.Chemscore.Hbonds>
donor molecule, donor type, donor heavy atom, donor atom, acceptor molecule, acceptor atom, score
      L1  H     1    22       P1 11000  0.87
      L1  H     1    23       P1 10957  0.80
      L1  H    12    27       P1 10186  0.74
      L1  H    14    28       P1 10747  1.00
      L1  H    16    29       P1 10747  0.92
      P1  H 10785 10796       L1    12  0.79

> <Gold.Chemscore.Hbond.Weighted>
-16.9598

> <Gold.Chemscore.Metal.Weighted>
-0.0000

> <Gold.Chemscore.Lipo.Weighted>
-4.0343

> <Gold.Chemscore.Internal_Hbond.Weighted>
0.0000

> <Gold.Chemscore.DEClash.Weighted>
0.0060

> <Gold.Chemscore.DEInternal.Weighted>
0.3292

> <Gold.Chemscore.Rot.Weighted>
10.3936

> <Gold.Chemscore.Internal.Correction.Weighted>
   9.000000E+99

> <Gold.Protein.RotatedTorsions>
[ 6907 6896 6895 6894 ] final  -46.19 input  -60.11 | X-H torsion
[ 7974 7965 7964 7962 ] final -131.12 input  175.53 | X-H torsion
[ 8008 7997 7996 7995 ] final -171.73 input   59.86 | X-H torsion
[ 10167 10162 10161 10158 ] final  -12.48 input  -65.29 | X-H torsion
[ 10718 10713 10712 10709 ] final  177.11 input   66.30 | X-H torsion
[ 10763 10752 10751 10750 ] final   51.62 input  -60.55 | X-H torsion
[ 11005 11000 10999 10996 ] final  117.61 input  -57.11 | X-H torsion

> <Gold.Protein.ActiveResidues>
 VAL166  LYS551  ARG553  GLY616  TRP617  ASP618  TYR619  PRO620  LYS621  CYS622 
 ASP623  PHE694  ASN695  SER759  ASP760  ASP761  ALA762  ILE779  LEU786  VAL792 
 PHE793  MET794  SER795  GLU796  ALA797  LYS798  CYS799  TRP800  GLU811  SER814 

> <Gold.Protein.RotatedAtoms>
  150.9139  134.8556  159.7443 H   0  0  0  0  0  0  0  0  0  0  0  0  # atno 6907 bound_to 6896
  152.4958  134.4318  159.9524 H   0  0  0  0  0  0  0  0  0  0  0  0  # atno 6908 bound_to 6896
  151.4358  133.3618  159.2810 H   0  0  0  0  0  0  0  0  0  0  0  0  # atno 6909 bound_to 6896
  144.9409  140.7237  143.4847 H   0  0  0  0  0  0  0  0  0  0  0  0  # atno 7974 bound_to 7965
  155.9353  140.1098  157.1099 H   0  0  0  0  0  0  0  0  0  0  0  0  # atno 8008 bound_to 7997
  154.4078  140.1229  156.4922 H   0  0  0  0  0  0  0  0  0  0  0  0  # atno 8009 bound_to 7997
  155.7029  140.3471  155.4943 H   0  0  0  0  0  0  0  0  0  0  0  0  # atno 8010 bound_to 7997
  140.7162  143.5528  150.9282 H   0  0  0  0  0  0  0  0  0  0  0  0  # atno 10167 bound_to 10162
  156.9101  130.9907  151.3022 H   0  0  0  0  0  0  0  0  0  0  0  0  # atno 10718 bound_to 10713
  152.9786  135.5840  154.4445 H   0  0  0  0  0  0  0  0  0  0  0  0  # atno 10763 bound_to 10752
  154.4042  135.2769  155.2079 H   0  0  0  0  0  0  0  0  0  0  0  0  # atno 10764 bound_to 10752
  154.3897  135.6128  153.5890 H   0  0  0  0  0  0  0  0  0  0  0  0  # atno 10765 bound_to 10752
  139.9080  134.9612  156.7377 H   0  0  0  0  0  0  0  0  0  0  0  0  # atno 11005 bound_to 11000
  145.2993  139.1856  143.4698 LP  0  0  0  0  0  0  0  0  0  0  0  0  # atno 17320 bound_to 7965
  146.3285  140.2981  142.8619 LP  0  0  0  0  0  0  0  0  0  0  0  0  # atno 17321 bound_to 7965
  139.9252  143.6558  152.3088 LP  0  0  0  0  0  0  0  0  0  0  0  0  # atno 17342 bound_to 10162
  139.6989  144.7637  151.1307 LP  0  0  0  0  0  0  0  0  0  0  0  0  # atno 17343 bound_to 10162
  157.5972  130.8486  149.8748 LP  0  0  0  0  0  0  0  0  0  0  0  0  # atno 17370 bound_to 10713
  156.0540  130.3712  150.1135 LP  0  0  0  0  0  0  0  0  0  0  0  0  # atno 17371 bound_to 10713
  140.6874  133.9420  155.7946 LP  0  0  0  0  0  0  0  0  0  0  0  0  # atno 17394 bound_to 11000
  141.0466  134.0545  157.3836 LP  0  0  0  0  0  0  0  0  0  0  0  0  # atno 17395 bound_to 11000

$$$$
