AV-unprocessed.smi:1232|AV-procd|sdf|5170|dock10
  -GOLD-   22720 4243D 1   1.00000     0.00000
 Structure written by MMmdl.
 53 54  0  0  0  0  0  0  0  0  1 V2000
  148.0758  132.9831  152.4775 C   0  0  0  0  0  0  0  0  0  0  0  0
  148.6475  133.1665  153.8791 C   0  0  0  0  0  0  0  0  0  0  0  0
  148.8328  132.1853  154.5968 O   0  0  0  0  0  0  0  0  0  0  0  0
  148.9115  134.4338  154.2452 N   0  0  0  0  0  0  0  0  0  0  0  0
  149.4922  134.9275  155.5021 C   0  0  1  0  0  0  0  0  0  0  0  0
  150.5320  136.0318  155.2373 C   0  0  0  0  0  0  0  0  0  0  0  0
  151.6515  135.9706  155.7463 O   0  0  0  0  0  0  0  0  0  0  0  0
  150.1563  137.0281  154.4194 N   0  0  0  0  0  0  0  0  0  0  0  0
  150.9987  138.1558  154.0341 C   0  0  0  0  0  0  0  0  0  0  0  0
  151.3044  139.1301  155.1635 C   0  0  0  0  0  0  0  0  0  0  0  0
  150.5016  140.2620  155.4167 C   0  0  0  0  0  0  0  0  0  0  0  0
  150.8479  141.1234  156.4749 C   0  0  0  0  0  0  0  0  0  0  0  0
  151.9915  140.8338  157.2569 C   0  0  0  0  0  0  0  0  0  0  0  0
  152.3564  141.6806  158.3269 N   0  0  0  0  0  0  0  0  0  0  0  0
  152.4049  141.1060  159.6701 C   0  0  0  0  0  0  0  0  0  0  0  0
  153.0926  142.0766  160.6440 C   0  0  0  0  0  0  0  0  0  0  0  0
  152.4357  143.3390  160.6062 O   0  0  0  0  0  0  0  0  0  0  0  0
  152.4983  143.9376  159.3147 C   0  0  2  0  0  0  0  0  0  0  0  0
  151.8512  145.3243  159.3959 C   0  0  0  0  0  0  0  0  0  0  0  0
  151.7870  143.0259  158.2956 C   0  0  0  0  0  0  0  0  0  0  0  0
  152.7683  139.7524  157.0000 N   0  0  0  0  0  0  0  0  0  0  0  0
  152.4314  138.9293  155.9848 C   0  0  0  0  0  0  0  0  0  0  0  0
  148.4442  135.2446  156.6149 C   0  0  0  0  0  0  0  0  0  0  0  0
  149.0939  135.7111  157.9327 C   0  0  0  0  0  0  0  0  0  0  0  0
  147.5219  134.0441  156.9038 C   0  0  0  0  0  0  0  0  0  0  0  0
  147.2744  133.6987  152.2905 H   0  0  0  0  0  0  0  0  0  0  0  0
  147.6700  131.9785  152.3537 H   0  0  0  0  0  0  0  0  0  0  0  0
  148.8553  133.1323  151.7299 H   0  0  0  0  0  0  0  0  0  0  0  0
  148.6977  135.1469  153.5636 H   0  0  0  0  0  0  0  0  0  0  0  0
  150.0604  134.0705  155.8680 H   0  0  0  0  0  0  0  0  0  0  0  0
  149.2237  137.0004  154.0332 H   0  0  0  0  0  0  0  0  0  0  0  0
  151.9303  137.7849  153.6028 H   0  0  0  0  0  0  0  0  0  0  0  0
  150.4897  138.7035  153.2409 H   0  0  0  0  0  0  0  0  0  0  0  0
  149.6343  140.4769  154.8104 H   0  0  0  0  0  0  0  0  0  0  0  0
  150.2436  141.9981  156.6624 H   0  0  0  0  0  0  0  0  0  0  0  0
  151.3897  140.8942  160.0092 H   0  0  0  0  0  0  0  0  0  0  0  0
  152.9499  140.1611  159.6588 H   0  0  0  0  0  0  0  0  0  0  0  0
  153.0474  141.6832  161.6595 H   0  0  0  0  0  0  0  0  0  0  0  0
  154.1485  142.1952  160.3952 H   0  0  0  0  0  0  0  0  0  0  0  0
  153.5445  144.0604  159.0283 H   0  0  0  0  0  0  0  0  0  0  0  0
  151.8842  145.8300  158.4307 H   0  0  0  0  0  0  0  0  0  0  0  0
  152.3697  145.9544  160.1189 H   0  0  0  0  0  0  0  0  0  0  0  0
  150.8071  145.2551  159.7024 H   0  0  0  0  0  0  0  0  0  0  0  0
  151.8667  143.4737  157.3062 H   0  0  0  0  0  0  0  0  0  0  0  0
  150.7231  142.9604  158.5279 H   0  0  0  0  0  0  0  0  0  0  0  0
  153.0835  138.0831  155.8258 H   0  0  0  0  0  0  0  0  0  0  0  0
  147.8140  136.0691  156.2825 H   0  0  0  0  0  0  0  0  0  0  0  0
  149.7882  134.9642  158.3185 H   0  0  0  0  0  0  0  0  0  0  0  0
  148.3396  135.8882  158.6998 H   0  0  0  0  0  0  0  0  0  0  0  0
  149.6410  136.6458  157.8087 H   0  0  0  0  0  0  0  0  0  0  0  0
  148.0935  133.1792  157.2411 H   0  0  0  0  0  0  0  0  0  0  0  0
  146.9527  133.7438  156.0246 H   0  0  0  0  0  0  0  0  0  0  0  0
  146.7976  134.2848  157.6821 H   0  0  0  0  0  0  0  0  0  0  0  0
  1  2  1  0  0  0  0
  1 26  1  0  0  0  0
  1 27  1  0  0  0  0
  1 28  1  0  0  0  0
  2  3  2  0  0  0  0
  2  4  1  0  0  0  0
  4  5  1  0  0  0  0
  4 29  1  0  0  0  0
  5  6  1  0  0  0  0
  5 23  1  0  0  0  0
  5 30  1  0  0  0  0
  6  7  2  0  0  0  0
  6  8  1  0  0  0  0
  8  9  1  0  0  0  0
  8 31  1  0  0  0  0
  9 10  1  0  0  0  0
  9 32  1  0  0  0  0
  9 33  1  0  0  0  0
 10 22  1  0  0  0  0
 10 11  2  0  0  0  0
 11 12  1  0  0  0  0
 11 34  1  0  0  0  0
 12 13  2  0  0  0  0
 12 35  1  0  0  0  0
 13 14  1  0  0  0  0
 13 21  1  0  0  0  0
 14 20  1  0  0  0  0
 14 15  1  0  0  0  0
 15 16  1  0  0  0  0
 15 36  1  0  0  0  0
 15 37  1  0  0  0  0
 16 17  1  0  0  0  0
 16 38  1  0  0  0  0
 16 39  1  0  0  0  0
 17 18  1  0  0  0  0
 18 19  1  0  0  0  0
 18 20  1  0  0  0  0
 18 40  1  0  0  0  0
 19 41  1  0  0  0  0
 19 42  1  0  0  0  0
 19 43  1  0  0  0  0
 20 44  1  0  0  0  0
 20 45  1  0  0  0  0
 21 22  2  0  0  0  0
 22 46  1  0  0  0  0
 23 24  1  0  0  0  0
 23 25  1  0  0  0  0
 23 47  1  0  0  0  0
 24 48  1  0  0  0  0
 24 49  1  0  0  0  0
 24 50  1  0  0  0  0
 25 51  1  0  0  0  0
 25 52  1  0  0  0  0
 25 53  1  0  0  0  0
M  END
> <s_m_source_file>
AV-unprocessed.smi

> <i_m_source_file_index>
1232

> <i_lp_mmshare_version>
43012

> <i_f3d_flags>
0

> <s_epik_input>
W0NIM11DKD1PKVtOSF1bQ0BASF0oW0NIXShbQ0gzXSlbQ0gzXSlDKD1PKVtOSF1bQ0gyXWMxW2NIXVtjSF1jKG5bY0hdMSlOMltDSDJdW0NIMl1PW0NAQEhdKFtDSDNdKVtDSDJdMg==

> <s_epik_cmdline>
J2VwaWtfcHl0aG9uJywgJy1waCcsICc3LjAnLCAnLXRuJywgJzgnLCAnLW1hJywgJzIwMCcsICctbWV0YWxfYmluZGluZycsICctaW1hZScsICc8aW5maWxlLm1hZT4nLCAnLW9tYWUnLCAnPG91dGZpbGUubWFlPic=

> <r_lp_tautomer_probability>
1

> <r_epik_Ionization_Penalty>
0.00557618

> <r_epik_Ionization_Penalty_Charging>
0

> <r_epik_Ionization_Penalty_Neutral>
0.00557618

> <r_epik_State_Penalty>
0.00408363

> <r_epik_Charging_Adjusted_Penalty>
0.00408363

> <i_epik_Tot_Q>
0

> <i_epik_Tot_abs_Q>
0

> <r_epik_Metal_State_Penalty>
-0

> <b_epik_Metal_Only>
0

> <s_lp_Force_Field>
OPLS_2005

> <r_lp_Energy>
20.9167

> <b_lp_Chiralities_Consistent>
1

> <s_lp_Variant>
AV-unprocessed.smi:1232-4

> <Gold.Version>
5.8.1

> <Gold.Id.Protein>
6NUR|6NUR_protein|mol2

> <Gold.PLP.Fitness>
54.3780

> <Gold.PLP.PLP>
-47.0484

> <Gold.PLP.part.hbond>
-4.3091

> <Gold.PLP.part.metal>
0.0000

> <Gold.PLP.part.buried>
-5.2080

> <Gold.PLP.part.nonpolar>
-37.6767

> <Gold.PLP.part.repulsive>
0.1767

> <Gold.PLP.ligand.clash>
0.0000

> <Gold.PLP.ligand.torsion>
1.4359

> <Gold.PLP.Chemscore.Hbond>
3.1758

> <Gold.PLP.Chemscore.CHOScore>
0.0000

> <Gold.PLP.Chemscore.Metal>
0.0000

> <Gold.Chemscore.Hbonds>
donor molecule, donor type, donor heavy atom, donor atom, acceptor molecule, acceptor atom, score
      L1  H     4    29       P1  7948  1.00
      L1  H     8    31       P1  7948  0.11
      P1  H  7997  8010       L1    21  1.00
      P1  H 10752 10764       L1     7  1.00

> <Gold.PLP.Chemscore.Internal.Correction>
0.6741

> <Gold.Rescore>
     Score         DG    S(hbond)    S(metal)    S(lipo)     H(rot)  DE(clash)    DE(int)     intcor
     20.78     -22.26       2.92        0.00     106.68       2.13       0.14       1.33       ----

> <Gold.Chemscore.Fitness>
20.7823

> <Gold.Chemscore.DG>
-22.2561

> <Gold.Chemscore.ZeroCoef>
-5.4800

> <Gold.Chemscore.Hbond>
2.9196

> <Gold.Chemscore.Metal>
0.0000

> <Gold.Chemscore.Lipo>
106.6811

> <Gold.Chemscore.Internal_Hbond>
0.0000

> <Gold.Chemscore.DEClash>
0.1437

> <Gold.Chemscore.DEInternal>
1.3300

> <Gold.Chemscore.Rot>
2.1317

> <Gold.Chemscore.Internal.Correction>
   9.000000E+99

> <Gold.Chemscore.Hbonds>
donor molecule, donor type, donor heavy atom, donor atom, acceptor molecule, acceptor atom, score
      L1  H     4    29       P1  7948  0.73
      L1  H     8    31       P1  7948  0.11
      P1  H  7997  8010       L1    21  0.51
      P1  H 10752 10764       L1     7  1.00

> <Gold.Chemscore.Hbond.Weighted>
-9.7516

> <Gold.Chemscore.Metal.Weighted>
-0.0000

> <Gold.Chemscore.Lipo.Weighted>
-12.4817

> <Gold.Chemscore.Internal_Hbond.Weighted>
0.0000

> <Gold.Chemscore.DEClash.Weighted>
0.1437

> <Gold.Chemscore.DEInternal.Weighted>
1.3300

> <Gold.Chemscore.Rot.Weighted>
5.4572

> <Gold.Chemscore.Internal.Correction.Weighted>
   9.000000E+99

> <Gold.Protein.RotatedTorsions>
[ 6907 6896 6895 6894 ] final   45.38 input  -60.11 | X-H torsion
[ 7974 7965 7964 7962 ] final  139.09 input  175.53 | X-H torsion
[ 8008 7997 7996 7995 ] final   48.82 input   59.86 | X-H torsion
[ 10167 10162 10161 10158 ] final   10.29 input  -65.29 | X-H torsion
[ 10718 10713 10712 10709 ] final  144.55 input   66.30 | X-H torsion
[ 10763 10752 10751 10750 ] final  -31.81 input  -60.55 | X-H torsion
[ 11005 11000 10999 10996 ] final  -78.92 input  -57.11 | X-H torsion

> <Gold.Protein.ActiveResidues>
 VAL166  LYS551  ARG553  GLY616  TRP617  ASP618  TYR619  PRO620  LYS621  CYS622 
 ASP623  PHE694  ASN695  SER759  ASP760  ASP761  ALA762  ILE779  LEU786  VAL792 
 PHE793  MET794  SER795  GLU796  ALA797  LYS798  CYS799  TRP800  GLU811  SER814 

> <Gold.Protein.RotatedAtoms>
  152.2439  134.8201  160.0456 H   0  0  0  0  0  0  0  0  0  0  0  0  # atno 6907 bound_to 6896
  151.8906  133.3510  159.3805 H   0  0  0  0  0  0  0  0  0  0  0  0  # atno 6908 bound_to 6896
  150.7062  134.4854  159.5534 H   0  0  0  0  0  0  0  0  0  0  0  0  # atno 6909 bound_to 6896
  144.9311  139.5046  143.5617 H   0  0  0  0  0  0  0  0  0  0  0  0  # atno 7974 bound_to 7965
  155.3920  140.3434  155.4252 H   0  0  0  0  0  0  0  0  0  0  0  0  # atno 8008 bound_to 7997
  156.1552  140.1583  156.8737 H   0  0  0  0  0  0  0  0  0  0  0  0  # atno 8009 bound_to 7997
  154.5088  140.0795  156.7930 H   0  0  0  0  0  0  0  0  0  0  0  0  # atno 8010 bound_to 7997
  140.6203  143.8219  150.7167 H   0  0  0  0  0  0  0  0  0  0  0  0  # atno 10167 bound_to 10162
  157.3558  131.0958  151.0959 H   0  0  0  0  0  0  0  0  0  0  0  0  # atno 10718 bound_to 10713
  153.8035  135.6888  153.4852 H   0  0  0  0  0  0  0  0  0  0  0  0  # atno 10763 bound_to 10752
  153.1673  135.4556  154.9853 H   0  0  0  0  0  0  0  0  0  0  0  0  # atno 10764 bound_to 10752
  154.7997  135.3333  154.7521 H   0  0  0  0  0  0  0  0  0  0  0  0  # atno 10765 bound_to 10752
  141.1666  133.7084  156.8045 H   0  0  0  0  0  0  0  0  0  0  0  0  # atno 11005 bound_to 11000
  146.3247  139.8261  142.8917 LP  0  0  0  0  0  0  0  0  0  0  0  0  # atno 17320 bound_to 7965
  145.3141  141.0227  143.3538 LP  0  0  0  0  0  0  0  0  0  0  0  0  # atno 17321 bound_to 7965
  140.1808  143.4117  152.1934 LP  0  0  0  0  0  0  0  0  0  0  0  0  # atno 17342 bound_to 10162
  139.5433  144.7276  151.4664 LP  0  0  0  0  0  0  0  0  0  0  0  0  # atno 17343 bound_to 10162
  157.2117  130.6441  149.5777 LP  0  0  0  0  0  0  0  0  0  0  0  0  # atno 17370 bound_to 10713
  155.9729  130.4658  150.6265 LP  0  0  0  0  0  0  0  0  0  0  0  0  # atno 17371 bound_to 10713
  140.2232  134.8741  157.3399 LP  0  0  0  0  0  0  0  0  0  0  0  0  # atno 17394 bound_to 11000
  140.1966  134.4306  155.7686 LP  0  0  0  0  0  0  0  0  0  0  0  0  # atno 17395 bound_to 11000

$$$$
