AV-unprocessed.smi:3287|AV-procd|sdf|12595|dock9
  -GOLD-   2272018523D 1   1.00000     0.00000
 Structure written by MMmdl.
 43 44  0  0  0  0  0  0  0  0  2 V2000
  151.9853  143.0841  161.2645 C   0  0  0  0  0  0  0  0  0  0  0  0
  152.7948  143.6061  160.0601 C   0  0  1  0  0  0  0  0  0  0  0  0
  153.1611  142.4693  159.0838 C   0  0  0  0  0  0  0  0  0  0  0  0
  151.9493  141.9846  158.2697 C   0  0  0  0  0  0  0  0  0  0  0  0
  151.2816  143.1418  157.5058 C   0  0  1  0  0  0  0  0  0  0  0  0
  150.1107  142.6368  156.7546 N   0  3  0  0  0  0  0  0  0  0  0  0
  150.3394  141.3942  155.9851 C   0  0  0  0  0  0  0  0  0  0  0  0
  149.5720  141.4058  154.6517 C   0  0  1  0  0  0  0  0  0  0  0  0
  150.2054  140.5164  153.7524 O   0  0  0  0  0  0  0  0  0  0  0  0
  148.1081  141.0506  154.8612 C   0  0  0  0  0  0  0  0  0  0  0  0
  147.2425  141.9063  155.5770 C   0  0  0  0  0  0  0  0  0  0  0  0
  145.8940  141.5266  155.7299 C   0  0  0  0  0  0  0  0  0  0  0  0
  145.3837  140.3844  155.2228 N   0  0  0  0  0  0  0  0  0  0  0  0
  146.2147  139.5711  154.5370 C   0  0  0  0  0  0  0  0  0  0  0  0
  147.5788  139.8568  154.3274 C   0  0  0  0  0  0  0  0  0  0  0  0
  150.8964  144.2780  158.4775 C   0  0  0  0  0  0  0  0  0  0  0  0
  152.1123  144.7665  159.2915 C   0  0  1  0  0  0  0  0  0  0  0  0
  151.7558  145.9643  160.1873 C   0  0  0  0  0  0  0  0  0  0  0  0
  150.9940  142.7363  160.9764 H   0  0  0  0  0  0  0  0  0  0  0  0
  151.8579  143.8551  162.0240 H   0  0  0  0  0  0  0  0  0  0  0  0
  152.4983  142.2506  161.7448 H   0  0  0  0  0  0  0  0  0  0  0  0
  153.7322  143.9892  160.4657 H   0  0  0  0  0  0  0  0  0  0  0  0
  153.9309  142.8222  158.3965 H   0  0  0  0  0  0  0  0  0  0  0  0
  153.6046  141.6333  159.6259 H   0  0  0  0  0  0  0  0  0  0  0  0
  152.2707  141.2136  157.5685 H   0  0  0  0  0  0  0  0  0  0  0  0
  151.2263  141.5089  158.9337 H   0  0  0  0  0  0  0  0  0  0  0  0
  152.0040  143.5249  156.7832 H   0  0  0  0  0  0  0  0  0  0  0  0
  149.3786  142.4457  157.4236 H   0  0  0  0  0  0  0  0  0  0  0  0
  151.4052  141.2576  155.8010 H   0  0  0  0  0  0  0  0  0  0  0  0
  150.0070  140.5463  156.5859 H   0  0  0  0  0  0  0  0  0  0  0  0
  149.6247  142.4038  154.2137 H   0  0  0  0  0  0  0  0  0  0  0  0
  149.7761  140.5840  152.9125 H   0  0  0  0  0  0  0  0  0  0  0  0
  147.5978  142.8343  156.0007 H   0  0  0  0  0  0  0  0  0  0  0  0
  145.2065  142.1592  156.2717 H   0  0  0  0  0  0  0  0  0  0  0  0
  145.7790  138.6658  154.1409 H   0  0  0  0  0  0  0  0  0  0  0  0
  148.1989  139.1715  153.7683 H   0  0  0  0  0  0  0  0  0  0  0  0
  150.4866  145.1221  157.9233 H   0  0  0  0  0  0  0  0  0  0  0  0
  150.1051  143.9429  159.1493 H   0  0  0  0  0  0  0  0  0  0  0  0
  152.8446  145.1362  158.5718 H   0  0  0  0  0  0  0  0  0  0  0  0
  150.9607  145.7209  160.8921 H   0  0  0  0  0  0  0  0  0  0  0  0
  151.4128  146.8088  159.5891 H   0  0  0  0  0  0  0  0  0  0  0  0
  152.6216  146.2994  160.7592 H   0  0  0  0  0  0  0  0  0  0  0  0
  149.7854  143.3569  156.1251 H   0  0  0  0  0  0  0  0  0  0  0  0
  1  2  1  0  0  0  0
  1 19  1  0  0  0  0
  1 20  1  0  0  0  0
  1 21  1  0  0  0  0
  2 17  1  0  0  0  0
  2  3  1  0  0  0  0
  2 22  1  0  0  0  0
  3  4  1  0  0  0  0
  3 23  1  0  0  0  0
  3 24  1  0  0  0  0
  4  5  1  0  0  0  0
  4 25  1  0  0  0  0
  4 26  1  0  0  0  0
  5  6  1  0  0  0  0
  5 16  1  0  0  0  0
  5 27  1  0  0  0  0
  6  7  1  0  0  0  0
  6 28  1  0  0  0  0
  6 43  1  0  0  0  0
  7  8  1  0  0  0  0
  7 29  1  0  0  0  0
  7 30  1  0  0  0  0
  8  9  1  0  0  0  0
  8 10  1  0  0  0  0
  8 31  1  0  0  0  0
  9 32  1  0  0  0  0
 10 15  1  0  0  0  0
 10 11  2  0  0  0  0
 11 12  1  0  0  0  0
 11 33  1  0  0  0  0
 12 13  2  0  0  0  0
 12 34  1  0  0  0  0
 13 14  1  0  0  0  0
 14 15  2  0  0  0  0
 14 35  1  0  0  0  0
 15 36  1  0  0  0  0
 16 17  1  0  0  0  0
 16 37  1  0  0  0  0
 16 38  1  0  0  0  0
 17 18  1  0  0  0  0
 17 39  1  0  0  0  0
 18 40  1  0  0  0  0
 18 41  1  0  0  0  0
 18 42  1  0  0  0  0
M  CHG  1   6   1
M  END
> <s_m_source_file>
AV-unprocessed.smi

> <i_m_source_file_index>
3287

> <i_lp_mmshare_version>
43012

> <i_f3d_flags>
0

> <s_epik_input>
W0NIM11bQ0BASF0xW0NIMl1bQ0gyXVtDQEhdKFtDSDJdW0NASF0xW0NIM10pW05IXVtDSDJdW0NASF0oW09IXSljMltjSF1bY0hdbltjSF1bY0hdMg==

> <s_epik_cmdline>
J2VwaWtfcHl0aG9uJywgJy1waCcsICc3LjAnLCAnLXRuJywgJzgnLCAnLW1hJywgJzIwMCcsICctbWV0YWxfYmluZGluZycsICctaW1hZScsICc8aW5maWxlLm1hZT4nLCAnLW9tYWUnLCAnPG91dGZpbGUubWFlPic=

> <r_lp_tautomer_probability>
1

> <r_epik_Ionization_Penalty>
0.00537262

> <r_epik_Ionization_Penalty_Charging>
0.00321624

> <r_epik_Ionization_Penalty_Neutral>
0.00215638

> <r_epik_State_Penalty>
-0

> <r_epik_Charging_Adjusted_Penalty>
0.00321624

> <i_epik_Tot_Q>
1

> <i_epik_Tot_abs_Q>
1

> <r_epik_Metal_State_Penalty>
-0

> <b_epik_Metal_Only>
0

> <s_lp_Force_Field>
OPLS_2005

> <r_lp_Energy>
17.7653

> <b_lp_Chiralities_Consistent>
1

> <s_lp_Variant>
AV-unprocessed.smi:3287-6

> <Gold.Version>
5.8.1

> <Gold.Id.Protein>
6NUR|6NUR_protein|mol2

> <Gold.PLP.Fitness>
50.1656

> <Gold.PLP.PLP>
-40.2160

> <Gold.PLP.part.hbond>
-2.7915

> <Gold.PLP.part.metal>
0.0000

> <Gold.PLP.part.buried>
-2.4931

> <Gold.PLP.part.nonpolar>
-34.4255

> <Gold.PLP.part.repulsive>
0.1520

> <Gold.PLP.ligand.clash>
0.0000

> <Gold.PLP.ligand.torsion>
0.6395

> <Gold.PLP.Chemscore.Hbond>
3.7360

> <Gold.PLP.Chemscore.CHOScore>
0.0000

> <Gold.PLP.Chemscore.Metal>
0.0000

> <Gold.Chemscore.Hbonds>
donor molecule, donor type, donor heavy atom, donor atom, acceptor molecule, acceptor atom, score
      L1  H     6    43       P1  8028  2.00
      L1  H     9    32       P1  7957  0.99
      P1  H  7989  7998       L1     9  0.55

> <Gold.PLP.Chemscore.Internal.Correction>
0.0206

> <Gold.Rescore>
     Score         DG    S(hbond)    S(metal)    S(lipo)     H(rot)  DE(clash)    DE(int)     intcor
     21.89     -22.80       2.24        0.00     125.75       1.90       0.36       0.55       ----

> <Gold.Chemscore.Fitness>
21.8939

> <Gold.Chemscore.DG>
-22.8006

> <Gold.Chemscore.ZeroCoef>
-5.4800

> <Gold.Chemscore.Hbond>
2.2396

> <Gold.Chemscore.Metal>
0.0000

> <Gold.Chemscore.Lipo>
125.7525

> <Gold.Chemscore.Internal_Hbond>
0.0000

> <Gold.Chemscore.DEClash>
0.3573

> <Gold.Chemscore.DEInternal>
0.5493

> <Gold.Chemscore.Rot>
1.9035

> <Gold.Chemscore.Internal.Correction>
   9.000000E+99

> <Gold.Chemscore.Hbonds>
donor molecule, donor type, donor heavy atom, donor atom, acceptor molecule, acceptor atom, score
      L1  H     6    43       P1  8028  0.98
      L1  H     9    32       P1  7957  0.94
      P1  H  7989  7998       L1     9  0.21

> <Gold.Chemscore.Hbond.Weighted>
-7.4804

> <Gold.Chemscore.Metal.Weighted>
-0.0000

> <Gold.Chemscore.Lipo.Weighted>
-14.7130

> <Gold.Chemscore.Internal_Hbond.Weighted>
0.0000

> <Gold.Chemscore.DEClash.Weighted>
0.3573

> <Gold.Chemscore.DEInternal.Weighted>
0.5493

> <Gold.Chemscore.Rot.Weighted>
4.8729

> <Gold.Chemscore.Internal.Correction.Weighted>
   9.000000E+99

> <Gold.Protein.RotatedTorsions>
[ 6907 6896 6895 6894 ] final  -74.03 input  -60.11 | X-H torsion
[ 7974 7965 7964 7962 ] final  -12.52 input  175.53 | X-H torsion
[ 8008 7997 7996 7995 ] final   20.12 input   59.86 | X-H torsion
[ 10167 10162 10161 10158 ] final  -11.23 input  -65.29 | X-H torsion
[ 10718 10713 10712 10709 ] final  158.67 input   66.30 | X-H torsion
[ 10763 10752 10751 10750 ] final -151.85 input  -60.55 | X-H torsion
[ 11005 11000 10999 10996 ] final    2.63 input  -57.11 | X-H torsion

> <Gold.Protein.ActiveResidues>
 VAL166  LYS551  ARG553  GLY616  TRP617  ASP618  TYR619  PRO620  LYS621  CYS622 
 ASP623  PHE694  ASN695  SER759  ASP760  ASP761  ALA762  ILE779  LEU786  VAL792 
 PHE793  MET794  SER795  GLU796  ALA797  LYS798  CYS799  TRP800  GLU811  SER814 

> <Gold.Protein.RotatedAtoms>
  150.7108  134.4929  159.5523 H   0  0  0  0  0  0  0  0  0  0  0  0  # atno 6907 bound_to 6896
  152.2542  134.8098  160.0450 H   0  0  0  0  0  0  0  0  0  0  0  0  # atno 6908 bound_to 6896
  151.8834  133.3465  159.3811 H   0  0  0  0  0  0  0  0  0  0  0  0  # atno 6909 bound_to 6896
  146.2149  140.3069  142.8379 H   0  0  0  0  0  0  0  0  0  0  0  0  # atno 7974 bound_to 7965
  154.9308  140.3040  155.5168 H   0  0  0  0  0  0  0  0  0  0  0  0  # atno 8008 bound_to 7997
  156.3003  140.2354  156.4305 H   0  0  0  0  0  0  0  0  0  0  0  0  # atno 8009 bound_to 7997
  154.8239  140.0422  157.1419 H   0  0  0  0  0  0  0  0  0  0  0  0  # atno 8010 bound_to 7997
  140.7133  143.5662  150.9141 H   0  0  0  0  0  0  0  0  0  0  0  0  # atno 10167 bound_to 10162
  157.1747  131.0618  151.2164 H   0  0  0  0  0  0  0  0  0  0  0  0  # atno 10718 bound_to 10713
  154.8032  135.3250  154.7499 H   0  0  0  0  0  0  0  0  0  0  0  0  # atno 10763 bound_to 10752
  153.8162  135.6891  153.4838 H   0  0  0  0  0  0  0  0  0  0  0  0  # atno 10764 bound_to 10752
  153.1760  135.4604  154.9910 H   0  0  0  0  0  0  0  0  0  0  0  0  # atno 10765 bound_to 10752
  140.6021  133.9826  155.8137 H   0  0  0  0  0  0  0  0  0  0  0  0  # atno 11005 bound_to 11000
  144.9016  140.7650  143.5863 LP  0  0  0  0  0  0  0  0  0  0  0  0  # atno 17320 bound_to 7965
  145.2995  139.1855  143.4697 LP  0  0  0  0  0  0  0  0  0  0  0  0  # atno 17321 bound_to 7965
  139.9388  143.6406  152.3059 LP  0  0  0  0  0  0  0  0  0  0  0  0  # atno 17342 bound_to 10162
  139.6883  144.7649  151.1484 LP  0  0  0  0  0  0  0  0  0  0  0  0  # atno 17343 bound_to 10162
  157.4010  130.7333  149.6767 LP  0  0  0  0  0  0  0  0  0  0  0  0  # atno 17370 bound_to 10713
  155.9733  130.4121  150.4013 LP  0  0  0  0  0  0  0  0  0  0  0  0  # atno 17371 bound_to 10713
  141.0865  133.9982  157.3305 LP  0  0  0  0  0  0  0  0  0  0  0  0  # atno 17394 bound_to 11000
  139.9228  135.0201  156.8126 LP  0  0  0  0  0  0  0  0  0  0  0  0  # atno 17395 bound_to 11000

$$$$
