AV-unprocessed.smi:2702|AV-procd|sdf|10430|dock3
  -GOLD-   2272014473D 1   1.00000     0.00000
 Structure written by MMmdl.
 47 48  0  0  0  0  0  0  0  0  1 V2000
  147.0818  136.0947  162.1019 C   0  0  0  0  0  0  0  0  0  0  0  0
  147.2074  137.1506  161.1659 O   0  0  0  0  0  0  0  0  0  0  0  0
  147.2452  136.6877  159.8268 C   0  0  0  0  0  0  0  0  0  0  0  0
  148.6143  136.9268  159.2236 C   0  0  0  0  0  0  0  0  0  0  0  0
  148.8504  136.7597  157.9016 C   0  0  0  0  0  0  0  0  0  0  0  0
  150.1860  136.9823  157.3480 C   0  0  0  0  0  0  0  0  0  0  0  0
  150.4370  136.8537  156.1494 O   0  0  0  0  0  0  0  0  0  0  0  0
  151.1341  137.3436  158.2622 N   0  0  0  0  0  0  0  0  0  0  0  0
  152.5268  137.6112  157.8580 C   0  0  0  0  0  0  0  0  0  0  0  0
  153.0591  138.9671  158.3462 C   0  0  0  0  0  0  0  0  0  0  0  0
  154.2563  139.1284  158.5873 O   0  0  0  0  0  0  0  0  0  0  0  0
  152.1440  139.9419  158.4641 N   0  0  0  0  0  0  0  0  0  0  0  0
  152.4031  141.3176  158.8880 C   0  0  2  0  0  0  0  0  0  0  0  0
  152.7706  141.3117  160.3845 C   0  0  0  0  0  0  0  0  0  0  0  0
  152.9827  142.7317  160.9274 C   0  0  0  0  0  0  0  0  0  0  0  0
  151.7532  143.6146  160.6623 C   0  0  0  0  0  0  0  0  0  0  0  0
  151.3789  143.6582  159.1668 C   0  0  1  0  0  0  0  0  0  0  0  0
  152.3806  144.5045  158.3544 C   0  0  0  0  0  0  0  0  0  0  0  0
  151.1703  142.2211  158.6175 C   0  0  1  0  0  0  0  0  0  0  0  0
  150.7269  142.2181  157.1409 C   0  0  0  0  0  0  0  0  0  0  0  0
  150.8354  137.4957  159.6311 C   0  0  0  0  0  0  0  0  0  0  0  0
  149.6433  137.2957  160.0959 N   0  0  0  0  0  0  0  0  0  0  0  0
  147.0624  136.5020  163.1126 H   0  0  0  0  0  0  0  0  0  0  0  0
  147.9234  135.4041  162.0332 H   0  0  0  0  0  0  0  0  0  0  0  0
  146.1572  135.5373  161.9461 H   0  0  0  0  0  0  0  0  0  0  0  0
  147.0173  135.6210  159.7921 H   0  0  0  0  0  0  0  0  0  0  0  0
  146.4886  137.1986  159.2289 H   0  0  0  0  0  0  0  0  0  0  0  0
  148.0476  136.4634  157.2422 H   0  0  0  0  0  0  0  0  0  0  0  0
  153.1983  136.8304  158.2202 H   0  0  0  0  0  0  0  0  0  0  0  0
  152.6141  137.5706  156.7706 H   0  0  0  0  0  0  0  0  0  0  0  0
  151.1865  139.7146  158.2382 H   0  0  0  0  0  0  0  0  0  0  0  0
  153.2560  141.7183  158.3384 H   0  0  0  0  0  0  0  0  0  0  0  0
  151.9791  140.8256  160.9570 H   0  0  0  0  0  0  0  0  0  0  0  0
  153.6733  140.7209  160.5452 H   0  0  0  0  0  0  0  0  0  0  0  0
  153.1847  142.6911  161.9980 H   0  0  0  0  0  0  0  0  0  0  0  0
  153.8672  143.1734  160.4678 H   0  0  0  0  0  0  0  0  0  0  0  0
  150.9084  143.2254  161.2322 H   0  0  0  0  0  0  0  0  0  0  0  0
  151.9296  144.6230  161.0380 H   0  0  0  0  0  0  0  0  0  0  0  0
  150.4202  144.1745  159.0992 H   0  0  0  0  0  0  0  0  0  0  0  0
  153.3675  144.0454  158.3094 H   0  0  0  0  0  0  0  0  0  0  0  0
  152.5003  145.4942  158.7960 H   0  0  0  0  0  0  0  0  0  0  0  0
  152.0396  144.6551  157.3304 H   0  0  0  0  0  0  0  0  0  0  0  0
  150.3376  141.7975  159.1817 H   0  0  0  0  0  0  0  0  0  0  0  0
  151.5445  142.4970  156.4759 H   0  0  0  0  0  0  0  0  0  0  0  0
  149.9060  142.9160  156.9753 H   0  0  0  0  0  0  0  0  0  0  0  0
  150.3768  141.2332  156.8310 H   0  0  0  0  0  0  0  0  0  0  0  0
  151.6731  137.7954  160.2630 H   0  0  0  0  0  0  0  0  0  0  0  0
  1  2  1  0  0  0  0
  1 23  1  0  0  0  0
  1 24  1  0  0  0  0
  1 25  1  0  0  0  0
  2  3  1  0  0  0  0
  3  4  1  0  0  0  0
  3 26  1  0  0  0  0
  3 27  1  0  0  0  0
  4 22  1  0  0  0  0
  4  5  2  0  0  0  0
  5  6  1  0  0  0  0
  5 28  1  0  0  0  0
  6  7  2  0  0  0  0
  6  8  1  0  0  0  0
  8  9  1  0  0  0  0
  8 21  1  0  0  0  0
  9 10  1  0  0  0  0
  9 29  1  0  0  0  0
  9 30  1  0  0  0  0
 10 11  2  0  0  0  0
 10 12  1  0  0  0  0
 12 13  1  0  0  0  0
 12 31  1  0  0  0  0
 13 19  1  0  0  0  0
 13 14  1  0  0  0  0
 13 32  1  0  0  0  0
 14 15  1  0  0  0  0
 14 33  1  0  0  0  0
 14 34  1  0  0  0  0
 15 16  1  0  0  0  0
 15 35  1  0  0  0  0
 15 36  1  0  0  0  0
 16 17  1  0  0  0  0
 16 37  1  0  0  0  0
 16 38  1  0  0  0  0
 17 18  1  0  0  0  0
 17 19  1  0  0  0  0
 17 39  1  0  0  0  0
 18 40  1  0  0  0  0
 18 41  1  0  0  0  0
 18 42  1  0  0  0  0
 19 20  1  0  0  0  0
 19 43  1  0  0  0  0
 20 44  1  0  0  0  0
 20 45  1  0  0  0  0
 20 46  1  0  0  0  0
 21 22  2  0  0  0  0
 21 47  1  0  0  0  0
M  END
> <s_m_source_file>
AV-unprocessed.smi

> <i_m_source_file_index>
2702

> <i_lp_mmshare_version>
43012

> <i_f3d_flags>
0

> <s_epik_input>
W0NIM11PW0NIMl1jMVtjSF1jKD1PKW4oW2NIXW4xKVtDSDJdQyg9TylbTkhdW0NAQEhdMltDSDJdW0NIMl1bQ0gyXVtDQEBIXShbQ0gzXSlbQ0BIXTJbQ0gzXQ==

> <s_epik_cmdline>
J2VwaWtfcHl0aG9uJywgJy1waCcsICc3LjAnLCAnLXRuJywgJzgnLCAnLW1hJywgJzIwMCcsICctbWV0YWxfYmluZGluZycsICctaW1hZScsICc8aW5maWxlLm1hZT4nLCAnLW9tYWUnLCAnPG91dGZpbGUubWFlPic=

> <r_lp_tautomer_probability>
1

> <r_epik_Ionization_Penalty>
1.22164e-06

> <r_epik_Ionization_Penalty_Charging>
3.17988e-07

> <r_epik_Ionization_Penalty_Neutral>
9.03656e-07

> <r_epik_State_Penalty>
-0

> <r_epik_Charging_Adjusted_Penalty>
3.17988e-07

> <i_epik_Tot_Q>
0

> <i_epik_Tot_abs_Q>
0

> <r_epik_Metal_State_Penalty>
-0

> <b_epik_Metal_Only>
0

> <s_lp_Force_Field>
OPLS_2005

> <r_lp_Energy>
19.3371

> <b_lp_Chiralities_Consistent>
1

> <s_lp_Variant>
AV-unprocessed.smi:2702-1

> <Gold.Version>
5.8.1

> <Gold.Id.Protein>
6NUR|6NUR_protein|mol2

> <Gold.PLP.Fitness>
47.6205

> <Gold.PLP.PLP>
-40.8833

> <Gold.PLP.part.hbond>
-4.0000

> <Gold.PLP.part.metal>
0.0000

> <Gold.PLP.part.buried>
-4.3668

> <Gold.PLP.part.nonpolar>
-33.2803

> <Gold.PLP.part.repulsive>
0.1200

> <Gold.PLP.ligand.clash>
0.0000

> <Gold.PLP.ligand.torsion>
1.0165

> <Gold.PLP.Chemscore.Hbond>
2.9200

> <Gold.PLP.Chemscore.CHOScore>
0.0000

> <Gold.PLP.Chemscore.Metal>
0.0000

> <Gold.Chemscore.Hbonds>
donor molecule, donor type, donor heavy atom, donor atom, acceptor molecule, acceptor atom, score
      P1  H  6931  6943       L1     2  0.37
      P1  H  6934  6947       L1     2  1.00
      P1  H  7997  8010       L1    11  0.90

> <Gold.PLP.Chemscore.Internal.Correction>
0.0102

> <Gold.Rescore>
     Score         DG    S(hbond)    S(metal)    S(lipo)     H(rot)  DE(clash)    DE(int)     intcor
     19.19     -20.45       2.18        0.00     107.94       1.93       0.21       1.05       ----

> <Gold.Chemscore.Fitness>
19.1853

> <Gold.Chemscore.DG>
-20.4478

> <Gold.Chemscore.ZeroCoef>
-5.4800

> <Gold.Chemscore.Hbond>
2.1783

> <Gold.Chemscore.Metal>
0.0000

> <Gold.Chemscore.Lipo>
107.9397

> <Gold.Chemscore.Internal_Hbond>
0.0000

> <Gold.Chemscore.DEClash>
0.2113

> <Gold.Chemscore.DEInternal>
1.0512

> <Gold.Chemscore.Rot>
1.9284

> <Gold.Chemscore.Internal.Correction>
   9.000000E+99

> <Gold.Chemscore.Hbonds>
donor molecule, donor type, donor heavy atom, donor atom, acceptor molecule, acceptor atom, score
      P1  H  6931  6943       L1    22  0.21
      P1  H  6934  6947       L1     2  0.34
      P1  H  7997  8010       L1    11  0.85

> <Gold.Chemscore.Hbond.Weighted>
-7.2757

> <Gold.Chemscore.Metal.Weighted>
-0.0000

> <Gold.Chemscore.Lipo.Weighted>
-12.6289

> <Gold.Chemscore.Internal_Hbond.Weighted>
0.0000

> <Gold.Chemscore.DEClash.Weighted>
0.2113

> <Gold.Chemscore.DEInternal.Weighted>
1.0512

> <Gold.Chemscore.Rot.Weighted>
4.9368

> <Gold.Chemscore.Internal.Correction.Weighted>
   9.000000E+99

> <Gold.Protein.RotatedTorsions>
[ 6907 6896 6895 6894 ] final  127.99 input  -60.11 | X-H torsion
[ 7974 7965 7964 7962 ] final   24.36 input  175.53 | X-H torsion
[ 8008 7997 7996 7995 ] final  -12.65 input   59.86 | X-H torsion
[ 10167 10162 10161 10158 ] final  111.13 input  -65.29 | X-H torsion
[ 10718 10713 10712 10709 ] final -148.25 input   66.30 | X-H torsion
[ 10763 10752 10751 10750 ] final  162.88 input  -60.55 | X-H torsion
[ 11005 11000 10999 10996 ] final   31.20 input  -57.11 | X-H torsion

> <Gold.Protein.ActiveResidues>
 VAL166  LYS551  ARG553  GLY616  TRP617  ASP618  TYR619  PRO620  LYS621  CYS622 
 ASP623  PHE694  ASN695  SER759  ASP760  ASP761  ALA762  ILE779  LEU786  VAL792 
 PHE793  MET794  SER795  GLU796  ALA797  LYS798  CYS799  TRP800  GLU811  SER814 

> <Gold.Protein.RotatedAtoms>
  152.3761  133.6483  159.6124 H   0  0  0  0  0  0  0  0  0  0  0  0  # atno 6907 bound_to 6896
  150.7705  133.9190  159.3401 H   0  0  0  0  0  0  0  0  0  0  0  0  # atno 6908 bound_to 6896
  151.7004  135.0932  160.0301 H   0  0  0  0  0  0  0  0  0  0  0  0  # atno 6909 bound_to 6896
  146.1941  139.7616  142.8810 H   0  0  0  0  0  0  0  0  0  0  0  0  # atno 7974 bound_to 7965
  154.5359  140.2270  155.8724 H   0  0  0  0  0  0  0  0  0  0  0  0  # atno 8008 bound_to 7997
  156.1811  140.3100  155.9113 H   0  0  0  0  0  0  0  0  0  0  0  0  # atno 8009 bound_to 7997
  155.3356  140.0447  157.3034 H   0  0  0  0  0  0  0  0  0  0  0  0  # atno 8010 bound_to 7997
  139.6634  144.7128  151.1821 H   0  0  0  0  0  0  0  0  0  0  0  0  # atno 10167 bound_to 10162
  156.4179  130.8014  151.2235 H   0  0  0  0  0  0  0  0  0  0  0  0  # atno 10718 bound_to 10713
  154.2852  135.2762  155.2679 H   0  0  0  0  0  0  0  0  0  0  0  0  # atno 10763 bound_to 10752
  154.5183  135.5763  153.6663 H   0  0  0  0  0  0  0  0  0  0  0  0  # atno 10764 bound_to 10752
  152.9923  135.6198  154.3013 H   0  0  0  0  0  0  0  0  0  0  0  0  # atno 10765 bound_to 10752
  140.2864  134.2914  155.7787 H   0  0  0  0  0  0  0  0  0  0  0  0  # atno 11005 bound_to 11000
  145.3699  141.0341  143.3237 LP  0  0  0  0  0  0  0  0  0  0  0  0  # atno 17320 bound_to 7965
  144.8545  139.5270  143.6841 LP  0  0  0  0  0  0  0  0  0  0  0  0  # atno 17321 bound_to 7965
  140.7589  143.5957  150.8750 LP  0  0  0  0  0  0  0  0  0  0  0  0  # atno 17342 bound_to 10162
  139.9617  143.6157  152.3000 LP  0  0  0  0  0  0  0  0  0  0  0  0  # atno 17343 bound_to 10162
  157.7508  131.0237  150.3846 LP  0  0  0  0  0  0  0  0  0  0  0  0  # atno 17370 bound_to 10713
  156.4157  130.3943  149.6860 LP  0  0  0  0  0  0  0  0  0  0  0  0  # atno 17371 bound_to 10713
  141.2154  133.7557  156.9558 LP  0  0  0  0  0  0  0  0  0  0  0  0  # atno 17394 bound_to 11000
  140.1236  134.9401  157.2238 LP  0  0  0  0  0  0  0  0  0  0  0  0  # atno 17395 bound_to 11000

$$$$
