AV-unprocessed.smi:2868|AV-procd|sdf|11027|dock7
  -GOLD-   2272015493D 1   1.00000     0.00000
 Structure written by MMmdl.
 49 50  0  0  0  0  0  0  0  0  1 V2000
  149.8264  134.5382  154.8269 C   0  0  0  0  0  0  0  0  0  0  0  0
  149.8971  135.1826  156.2223 C   0  0  0  0  0  0  0  0  0  0  0  0
  149.1023  134.3105  157.2171 C   0  0  0  0  0  0  0  0  0  0  0  0
  151.3761  135.2875  156.6507 C   0  0  0  0  0  0  0  0  0  0  0  0
  149.2944  136.5159  156.1061 N   0  0  0  0  0  0  0  0  0  0  0  0
  149.6571  137.5394  155.3085 C   0  0  0  0  0  0  0  0  0  0  0  0
  150.5978  137.4637  154.5173 O   0  0  0  0  0  0  0  0  0  0  0  0
  148.8914  138.6531  155.4390 N   0  0  0  0  0  0  0  0  0  0  0  0
  148.1691  139.0819  156.6488 C   0  0  0  0  0  0  0  0  0  0  0  0
  148.9252  140.2628  157.2836 C   0  0  0  0  0  0  0  0  0  0  0  0
  149.1016  141.4222  156.2786 C   0  0  0  0  0  0  0  0  0  0  0  0
  149.9785  142.4375  156.8532 N   0  0  0  0  0  0  0  0  0  0  0  0
  151.1242  142.1931  157.5081 C   0  0  0  0  0  0  0  0  0  0  0  0
  151.5663  141.0618  157.7069 O   0  0  0  0  0  0  0  0  0  0  0  0
  151.8941  143.4134  158.0128 C   0  0  0  0  0  0  0  0  0  0  0  0
  152.1905  143.2712  159.4946 C   0  0  0  0  0  0  0  0  0  0  0  0
  152.8873  142.1499  159.9912 C   0  0  0  0  0  0  0  0  0  0  0  0
  153.1358  142.0634  161.3745 C   0  0  0  0  0  0  0  0  0  0  0  0
  152.6765  143.1053  162.2048 C   0  0  0  0  0  0  0  0  0  0  0  0
  152.0091  144.1837  161.7408 N   0  0  0  0  0  0  0  0  0  0  0  0
  151.7739  144.2585  160.4131 C   0  0  0  0  0  0  0  0  0  0  0  0
  149.6582  140.9185  154.9263 C   0  0  0  0  0  0  0  0  0  0  0  0
  148.8653  139.7027  154.4132 C   0  0  0  0  0  0  0  0  0  0  0  0
  150.2654  133.5398  154.8275 H   0  0  0  0  0  0  0  0  0  0  0  0
  150.3644  135.1314  154.0863 H   0  0  0  0  0  0  0  0  0  0  0  0
  148.7952  134.4415  154.4843 H   0  0  0  0  0  0  0  0  0  0  0  0
  148.0473  134.2594  156.9455 H   0  0  0  0  0  0  0  0  0  0  0  0
  149.1623  134.6916  158.2365 H   0  0  0  0  0  0  0  0  0  0  0  0
  149.4849  133.2896  157.2363 H   0  0  0  0  0  0  0  0  0  0  0  0
  151.8591  134.3096  156.6364 H   0  0  0  0  0  0  0  0  0  0  0  0
  151.4841  135.6804  157.6615 H   0  0  0  0  0  0  0  0  0  0  0  0
  151.9379  135.9397  155.9812 H   0  0  0  0  0  0  0  0  0  0  0  0
  148.5041  136.6845  156.7112 H   0  0  0  0  0  0  0  0  0  0  0  0
  147.1613  139.3945  156.3712 H   0  0  0  0  0  0  0  0  0  0  0  0
  148.0293  138.2917  157.3862 H   0  0  0  0  0  0  0  0  0  0  0  0
  148.3927  140.6136  158.1683 H   0  0  0  0  0  0  0  0  0  0  0  0
  149.9014  139.9168  157.6275 H   0  0  0  0  0  0  0  0  0  0  0  0
  148.1166  141.8598  156.1041 H   0  0  0  0  0  0  0  0  0  0  0  0
  149.6961  143.3999  156.7386 H   0  0  0  0  0  0  0  0  0  0  0  0
  152.8249  143.5337  157.4564 H   0  0  0  0  0  0  0  0  0  0  0  0
  151.3045  144.3142  157.8375 H   0  0  0  0  0  0  0  0  0  0  0  0
  153.2230  141.3683  159.3255 H   0  0  0  0  0  0  0  0  0  0  0  0
  153.6653  141.2186  161.7896 H   0  0  0  0  0  0  0  0  0  0  0  0
  152.8498  143.0717  163.2702 H   0  0  0  0  0  0  0  0  0  0  0  0
  151.2359  145.1317  160.0744 H   0  0  0  0  0  0  0  0  0  0  0  0
  149.6294  141.7172  154.1843 H   0  0  0  0  0  0  0  0  0  0  0  0
  150.7071  140.6391  155.0383 H   0  0  0  0  0  0  0  0  0  0  0  0
  149.2709  139.3701  153.4568 H   0  0  0  0  0  0  0  0  0  0  0  0
  147.8321  139.9880  154.2099 H   0  0  0  0  0  0  0  0  0  0  0  0
  1  2  1  0  0  0  0
  1 24  1  0  0  0  0
  1 25  1  0  0  0  0
  1 26  1  0  0  0  0
  2  3  1  0  0  0  0
  2  4  1  0  0  0  0
  2  5  1  0  0  0  0
  3 27  1  0  0  0  0
  3 28  1  0  0  0  0
  3 29  1  0  0  0  0
  4 30  1  0  0  0  0
  4 31  1  0  0  0  0
  4 32  1  0  0  0  0
  5  6  1  0  0  0  0
  5 33  1  0  0  0  0
  6  7  2  0  0  0  0
  6  8  1  0  0  0  0
  8 23  1  0  0  0  0
  8  9  1  0  0  0  0
  9 10  1  0  0  0  0
  9 34  1  0  0  0  0
  9 35  1  0  0  0  0
 10 11  1  0  0  0  0
 10 36  1  0  0  0  0
 10 37  1  0  0  0  0
 11 12  1  0  0  0  0
 11 22  1  0  0  0  0
 11 38  1  0  0  0  0
 12 13  1  0  0  0  0
 12 39  1  0  0  0  0
 13 14  2  0  0  0  0
 13 15  1  0  0  0  0
 15 16  1  0  0  0  0
 15 40  1  0  0  0  0
 15 41  1  0  0  0  0
 16 21  1  0  0  0  0
 16 17  2  0  0  0  0
 17 18  1  0  0  0  0
 17 42  1  0  0  0  0
 18 19  2  0  0  0  0
 18 43  1  0  0  0  0
 19 20  1  0  0  0  0
 19 44  1  0  0  0  0
 20 21  2  0  0  0  0
 21 45  1  0  0  0  0
 22 23  1  0  0  0  0
 22 46  1  0  0  0  0
 22 47  1  0  0  0  0
 23 48  1  0  0  0  0
 23 49  1  0  0  0  0
M  END
> <s_m_source_file>
AV-unprocessed.smi

> <i_m_source_file_index>
2868

> <i_lp_mmshare_version>
43012

> <i_f3d_flags>
0

> <s_epik_input>
W0NIM11DKFtDSDNdKShbQ0gzXSlbTkhdQyg9TylOMVtDSDJdW0NIMl1bQ0hdKFtDSDJdW0NIMl0xKVtOSF1DKD1PKVtDSDJdYzJbY0hdW2NIXVtjSF1uW2NIXTI=

> <s_epik_cmdline>
J2VwaWtfcHl0aG9uJywgJy1waCcsICc3LjAnLCAnLXRuJywgJzgnLCAnLW1hJywgJzIwMCcsICctbWV0YWxfYmluZGluZycsICctaW1hZScsICc8aW5maWxlLm1hZT4nLCAnLW9tYWUnLCAnPG91dGZpbGUubWFlPic=

> <r_epik_Ionization_Penalty>
0.00419782

> <r_epik_Ionization_Penalty_Charging>
0

> <r_epik_Ionization_Penalty_Neutral>
0.00419782

> <r_epik_State_Penalty>
0.0029617

> <r_epik_Charging_Adjusted_Penalty>
0.0029617

> <i_epik_Tot_Q>
0

> <i_epik_Tot_abs_Q>
0

> <r_epik_Metal_State_Penalty>
-0

> <b_epik_Metal_Only>
0

> <s_lp_Force_Field>
OPLS_2005

> <r_lp_Energy>
29.348

> <b_lp_Chiralities_Consistent>
1

> <s_lp_Variant>
AV-unprocessed.smi:2868-1

> <Gold.Version>
5.8.1

> <Gold.Id.Protein>
6NUR|6NUR_protein|mol2

> <Gold.PLP.Fitness>
42.7108

> <Gold.PLP.PLP>
-40.7909

> <Gold.PLP.part.hbond>
-1.0000

> <Gold.PLP.part.metal>
0.0000

> <Gold.PLP.part.buried>
-6.6467

> <Gold.PLP.part.nonpolar>
-34.2412

> <Gold.PLP.part.repulsive>
0.4262

> <Gold.PLP.ligand.clash>
0.0000

> <Gold.PLP.ligand.torsion>
0.5397

> <Gold.PLP.Chemscore.Hbond>
0.9760

> <Gold.PLP.Chemscore.CHOScore>
0.0000

> <Gold.PLP.Chemscore.Metal>
0.0000

> <Gold.Chemscore.Hbonds>
donor molecule, donor type, donor heavy atom, donor atom, acceptor molecule, acceptor atom, score
      L1  H    12    39       P1  8028  0.99

> <Gold.PLP.Chemscore.Internal.Correction>
0.0712

> <Gold.Rescore>
     Score         DG    S(hbond)    S(metal)    S(lipo)     H(rot)  DE(clash)    DE(int)     intcor
     13.47     -17.53       0.96        0.00     108.82       1.52       0.10       3.97       ----

> <Gold.Chemscore.Fitness>
13.4662

> <Gold.Chemscore.DG>
-17.5341

> <Gold.Chemscore.ZeroCoef>
-5.4800

> <Gold.Chemscore.Hbond>
0.9618

> <Gold.Chemscore.Metal>
0.0000

> <Gold.Chemscore.Lipo>
108.8219

> <Gold.Chemscore.Internal_Hbond>
0.0000

> <Gold.Chemscore.DEClash>
0.1025

> <Gold.Chemscore.DEInternal>
3.9654

> <Gold.Chemscore.Rot>
1.5197

> <Gold.Chemscore.Internal.Correction>
   9.000000E+99

> <Gold.Chemscore.Hbonds>
donor molecule, donor type, donor heavy atom, donor atom, acceptor molecule, acceptor atom, score
      L1  H    12    39       P1  8028  0.93

> <Gold.Chemscore.Hbond.Weighted>
-3.2124

> <Gold.Chemscore.Metal.Weighted>
-0.0000

> <Gold.Chemscore.Lipo.Weighted>
-12.7322

> <Gold.Chemscore.Internal_Hbond.Weighted>
0.0000

> <Gold.Chemscore.DEClash.Weighted>
0.1025

> <Gold.Chemscore.DEInternal.Weighted>
3.9654

> <Gold.Chemscore.Rot.Weighted>
3.8904

> <Gold.Chemscore.Internal.Correction.Weighted>
   9.000000E+99

> <Gold.Protein.RotatedTorsions>
[ 6907 6896 6895 6894 ] final    1.18 input  -60.11 | X-H torsion
[ 7974 7965 7964 7962 ] final   -8.44 input  175.53 | X-H torsion
[ 8008 7997 7996 7995 ] final   47.80 input   59.86 | X-H torsion
[ 10167 10162 10161 10158 ] final  -38.14 input  -65.29 | X-H torsion
[ 10718 10713 10712 10709 ] final  107.01 input   66.30 | X-H torsion
[ 10763 10752 10751 10750 ] final  159.20 input  -60.55 | X-H torsion
[ 11005 11000 10999 10996 ] final -137.72 input  -57.11 | X-H torsion

> <Gold.Protein.ActiveResidues>
 VAL166  LYS551  ARG553  GLY616  TRP617  ASP618  TYR619  PRO620  LYS621  CYS622 
 ASP623  PHE694  ASN695  SER759  ASP760  ASP761  ALA762  ILE779  LEU786  VAL792 
 PHE793  MET794  SER795  GLU796  ALA797  LYS798  CYS799  TRP800  GLU811  SER814 

> <Gold.Protein.RotatedAtoms>
  151.5885  135.1054  160.0033 H   0  0  0  0  0  0  0  0  0  0  0  0  # atno 6907 bound_to 6896
  152.4318  133.7287  159.6585 H   0  0  0  0  0  0  0  0  0  0  0  0  # atno 6908 bound_to 6896
  150.8211  133.8180  159.3161 H   0  0  0  0  0  0  0  0  0  0  0  0  # atno 6909 bound_to 6896
  146.2280  140.2468  142.8345 H   0  0  0  0  0  0  0  0  0  0  0  0  # atno 7974 bound_to 7965
  155.3751  140.3425  155.4244 H   0  0  0  0  0  0  0  0  0  0  0  0  # atno 8008 bound_to 7997
  156.1641  140.1610  156.8595 H   0  0  0  0  0  0  0  0  0  0  0  0  # atno 8009 bound_to 7997
  154.5168  140.0776  156.8078 H   0  0  0  0  0  0  0  0  0  0  0  0  # atno 8010 bound_to 7997
  140.7100  143.3296  151.2600 H   0  0  0  0  0  0  0  0  0  0  0  0  # atno 10167 bound_to 10162
  157.6646  131.0863  150.6092 H   0  0  0  0  0  0  0  0  0  0  0  0  # atno 10718 bound_to 10713
  154.2281  135.2779  155.2900 H   0  0  0  0  0  0  0  0  0  0  0  0  # atno 10763 bound_to 10752
  154.5646  135.5636  153.7042 H   0  0  0  0  0  0  0  0  0  0  0  0  # atno 10764 bound_to 10752
  153.0026  135.6306  154.2422 H   0  0  0  0  0  0  0  0  0  0  0  0  # atno 10765 bound_to 10752
  140.8684  134.2081  157.4666 H   0  0  0  0  0  0  0  0  0  0  0  0  # atno 11005 bound_to 11000
  144.9442  140.8111  143.5611 LP  0  0  0  0  0  0  0  0  0  0  0  0  # atno 17320 bound_to 7965
  145.2422  139.2067  143.4986 LP  0  0  0  0  0  0  0  0  0  0  0  0  # atno 17321 bound_to 7965
  139.6774  143.9914  152.2789 LP  0  0  0  0  0  0  0  0  0  0  0  0  # atno 17342 bound_to 10162
  139.9532  144.6606  150.8151 LP  0  0  0  0  0  0  0  0  0  0  0  0  # atno 17343 bound_to 10162
  156.6393  130.4454  149.5758 LP  0  0  0  0  0  0  0  0  0  0  0  0  # atno 17370 bound_to 10713
  156.2222  130.6744  151.1379 LP  0  0  0  0  0  0  0  0  0  0  0  0  # atno 17371 bound_to 10713
  139.8710  134.9763  156.4914 LP  0  0  0  0  0  0  0  0  0  0  0  0  # atno 17394 bound_to 11000
  140.8602  133.8066  155.9257 LP  0  0  0  0  0  0  0  0  0  0  0  0  # atno 17395 bound_to 11000

$$$$
