AV-unprocessed.smi:1531|AV-procd|sdf|6157|dock1
  -GOLD-   22720 6303D 1   1.00000     0.00000
 Structure written by MMmdl.
 44 45  0  0  0  0  0  0  0  0  1 V2000
  152.1060  145.0884  159.4636 C   0  0  0  0  0  0  0  0  0  0  0  0
  152.3042  143.5747  159.3024 C   0  0  0  0  0  0  0  0  0  0  0  0
  153.1712  142.9289  160.4074 C   0  0  1  0  0  0  0  0  0  0  0  0
  152.4096  142.8912  161.7506 C   0  0  0  0  0  0  0  0  0  0  0  0
  153.2685  142.3025  162.8811 C   0  0  0  0  0  0  0  0  0  0  0  0
  153.7832  140.9023  162.5191 C   0  0  0  0  0  0  0  0  0  0  0  0
  154.5517  140.9226  161.1879 C   0  0  0  0  0  0  0  0  0  0  0  0
  153.7151  141.5226  160.0393 C   0  0  1  0  0  0  0  0  0  0  0  0
  152.6279  140.6139  159.6720 N   0  0  0  0  0  0  0  0  0  0  0  0
  152.7592  139.4549  159.0117 C   0  0  0  0  0  0  0  0  0  0  0  0
  153.8385  138.9998  158.6327 O   0  0  0  0  0  0  0  0  0  0  0  0
  151.5661  138.8674  158.8253 N   0  0  0  0  0  0  0  0  0  0  0  0
  151.3010  137.6557  158.1396 C   0  0  0  0  0  0  0  0  0  0  0  0
  152.2819  136.8604  157.4924 C   0  0  0  0  0  0  0  0  0  0  0  0
  151.7402  135.7831  156.9449 N   0  0  0  0  0  0  0  0  0  0  0  0
  150.4169  135.8691  157.2318 N   0  0  0  0  0  0  0  0  0  0  0  0
  149.5133  134.8262  156.7798 C   0  0  0  0  0  0  0  0  0  0  0  0
  149.4634  134.7616  155.2519 C   0  0  0  0  0  0  0  0  0  0  0  0
  149.1630  135.8897  154.6022 N   0  0  0  0  0  0  0  0  0  0  0  0
  149.6945  133.7070  154.6645 O   0  0  0  0  0  0  0  0  0  0  0  0
  150.1142  137.0036  157.9597 C   0  0  0  0  0  0  0  0  0  0  0  0
  151.4102  145.4671  158.7146 H   0  0  0  0  0  0  0  0  0  0  0  0
  153.0427  145.6320  159.3400 H   0  0  0  0  0  0  0  0  0  0  0  0
  151.7007  145.3317  160.4459 H   0  0  0  0  0  0  0  0  0  0  0  0
  151.3209  143.1032  159.3083 H   0  0  0  0  0  0  0  0  0  0  0  0
  152.7249  143.3668  158.3181 H   0  0  0  0  0  0  0  0  0  0  0  0
  154.0355  143.5789  160.5533 H   0  0  0  0  0  0  0  0  0  0  0  0
  152.0936  143.8976  162.0274 H   0  0  0  0  0  0  0  0  0  0  0  0
  151.4964  142.3043  161.6443 H   0  0  0  0  0  0  0  0  0  0  0  0
  154.1137  142.9629  163.0796 H   0  0  0  0  0  0  0  0  0  0  0  0
  152.6887  142.2575  163.8035 H   0  0  0  0  0  0  0  0  0  0  0  0
  154.4288  140.5278  163.3137 H   0  0  0  0  0  0  0  0  0  0  0  0
  152.9444  140.2083  162.4515 H   0  0  0  0  0  0  0  0  0  0  0  0
  155.4603  141.5132  161.3124 H   0  0  0  0  0  0  0  0  0  0  0  0
  154.8806  139.9147  160.9311 H   0  0  0  0  0  0  0  0  0  0  0  0
  154.3852  141.6388  159.1863 H   0  0  0  0  0  0  0  0  0  0  0  0
  151.6977  140.8990  159.9413 H   0  0  0  0  0  0  0  0  0  0  0  0
  150.7604  139.3436  159.2036 H   0  0  0  0  0  0  0  0  0  0  0  0
  153.3458  137.0240  157.4041 H   0  0  0  0  0  0  0  0  0  0  0  0
  149.8455  133.8706  157.1876 H   0  0  0  0  0  0  0  0  0  0  0  0
  148.5143  135.0133  157.1773 H   0  0  0  0  0  0  0  0  0  0  0  0
  149.1215  135.8974  153.5934 H   0  0  0  0  0  0  0  0  0  0  0  0
  148.9814  136.7343  155.1254 H   0  0  0  0  0  0  0  0  0  0  0  0
  149.1067  137.2296  158.2762 H   0  0  0  0  0  0  0  0  0  0  0  0
  1  2  1  0  0  0  0
  1 22  1  0  0  0  0
  1 23  1  0  0  0  0
  1 24  1  0  0  0  0
  2  3  1  0  0  0  0
  2 25  1  0  0  0  0
  2 26  1  0  0  0  0
  3  8  1  0  0  0  0
  3  4  1  0  0  0  0
  3 27  1  0  0  0  0
  4  5  1  0  0  0  0
  4 28  1  0  0  0  0
  4 29  1  0  0  0  0
  5  6  1  0  0  0  0
  5 30  1  0  0  0  0
  5 31  1  0  0  0  0
  6  7  1  0  0  0  0
  6 32  1  0  0  0  0
  6 33  1  0  0  0  0
  7  8  1  0  0  0  0
  7 34  1  0  0  0  0
  7 35  1  0  0  0  0
  8  9  1  0  0  0  0
  8 36  1  0  0  0  0
  9 10  1  0  0  0  0
  9 37  1  0  0  0  0
 10 11  2  0  0  0  0
 10 12  1  0  0  0  0
 12 13  1  0  0  0  0
 12 38  1  0  0  0  0
 13 21  2  0  0  0  0
 13 14  1  0  0  0  0
 14 15  2  0  0  0  0
 14 39  1  0  0  0  0
 15 16  1  0  0  0  0
 16 17  1  0  0  0  0
 16 21  1  0  0  0  0
 17 18  1  0  0  0  0
 17 40  1  0  0  0  0
 17 41  1  0  0  0  0
 18 19  1  0  0  0  0
 18 20  2  0  0  0  0
 19 42  1  0  0  0  0
 19 43  1  0  0  0  0
 21 44  1  0  0  0  0
M  END
> <s_m_source_file>
AV-unprocessed.smi

> <i_m_source_file_index>
1531

> <i_lp_mmshare_version>
43012

> <i_f3d_flags>
0

> <s_epik_input>
W0NIM11bQ0gyXVtDQEBIXTFbQ0gyXVtDSDJdW0NIMl1bQ0gyXVtDQEhdMVtOSF1DKD1PKVtOSF1jMltjSF1ubihbY0hdMilbQ0gyXUMoPU8pW05IMl0=

> <s_epik_cmdline>
J2VwaWtfcHl0aG9uJywgJy1waCcsICc3LjAnLCAnLXRuJywgJzgnLCAnLW1hJywgJzIwMCcsICctbWV0YWxfYmluZGluZycsICctaW1hZScsICc8aW5maWxlLm1hZT4nLCAnLW9tYWUnLCAnPG91dGZpbGUubWFlPic=

> <r_lp_tautomer_probability>
1

> <r_epik_Ionization_Penalty>
4.83437e-05

> <r_epik_Ionization_Penalty_Charging>
0

> <r_epik_Ionization_Penalty_Neutral>
4.83437e-05

> <r_epik_State_Penalty>
-0

> <r_epik_Charging_Adjusted_Penalty>
0

> <i_epik_Tot_Q>
0

> <i_epik_Tot_abs_Q>
0

> <r_epik_Metal_State_Penalty>
-0

> <b_epik_Metal_Only>
0

> <s_lp_Force_Field>
OPLS_2005

> <r_lp_Energy>
14.4879

> <b_lp_Chiralities_Consistent>
1

> <s_lp_Variant>
AV-unprocessed.smi:1531-2

> <Gold.Version>
5.8.1

> <Gold.Id.Protein>
6NUR|6NUR_protein|mol2

> <Gold.PLP.Fitness>
48.7641

> <Gold.PLP.PLP>
-40.3646

> <Gold.PLP.part.hbond>
-2.9115

> <Gold.PLP.part.metal>
0.0000

> <Gold.PLP.part.buried>
-4.8523

> <Gold.PLP.part.nonpolar>
-32.1880

> <Gold.PLP.part.repulsive>
0.3370

> <Gold.PLP.ligand.clash>
0.0000

> <Gold.PLP.ligand.torsion>
0.3230

> <Gold.PLP.Chemscore.Hbond>
3.0000

> <Gold.PLP.Chemscore.CHOScore>
0.0000

> <Gold.PLP.Chemscore.Metal>
0.0000

> <Gold.Chemscore.Hbonds>
donor molecule, donor type, donor heavy atom, donor atom, acceptor molecule, acceptor atom, score
      L1  H    19    42       P1  7948  1.00
      P1  H  7997  8010       L1    11  1.00
      P1  H 10752 10764       L1    15  0.06

> <Gold.PLP.Chemscore.Internal.Correction>
0.0454

> <Gold.Rescore>
     Score         DG    S(hbond)    S(metal)    S(lipo)     H(rot)  DE(clash)    DE(int)     intcor
     19.45     -21.46       2.77        0.00     104.28       2.13       0.13       1.88       ----

> <Gold.Chemscore.Fitness>
19.4517

> <Gold.Chemscore.DG>
-21.4585

> <Gold.Chemscore.ZeroCoef>
-5.4800

> <Gold.Chemscore.Hbond>
2.7665

> <Gold.Chemscore.Metal>
0.0000

> <Gold.Chemscore.Lipo>
104.2760

> <Gold.Chemscore.Internal_Hbond>
0.0000

> <Gold.Chemscore.DEClash>
0.1303

> <Gold.Chemscore.DEInternal>
1.8765

> <Gold.Chemscore.Rot>
2.1335

> <Gold.Chemscore.Internal.Correction>
   9.000000E+99

> <Gold.Chemscore.Hbonds>
donor molecule, donor type, donor heavy atom, donor atom, acceptor molecule, acceptor atom, score
      L1  H    19    42       P1  7948  0.85
      P1  H  7997  8010       L1    11  0.93
      P1  H 10752 10764       L1    15  0.04

> <Gold.Chemscore.Hbond.Weighted>
-9.2400

> <Gold.Chemscore.Metal.Weighted>
-0.0000

> <Gold.Chemscore.Lipo.Weighted>
-12.2003

> <Gold.Chemscore.Internal_Hbond.Weighted>
0.0000

> <Gold.Chemscore.DEClash.Weighted>
0.1303

> <Gold.Chemscore.DEInternal.Weighted>
1.8765

> <Gold.Chemscore.Rot.Weighted>
5.4618

> <Gold.Chemscore.Internal.Correction.Weighted>
   9.000000E+99

> <Gold.Protein.RotatedTorsions>
[ 6907 6896 6895 6894 ] final -146.59 input  -60.11 | X-H torsion
[ 7974 7965 7964 7962 ] final   49.67 input  175.53 | X-H torsion
[ 8008 7997 7996 7995 ] final   11.06 input   59.86 | X-H torsion
[ 10167 10162 10161 10158 ] final  175.39 input  -65.29 | X-H torsion
[ 10718 10713 10712 10709 ] final  -75.79 input   66.30 | X-H torsion
[ 10763 10752 10751 10750 ] final  -37.09 input  -60.55 | X-H torsion
[ 11005 11000 10999 10996 ] final  133.01 input  -57.11 | X-H torsion

> <Gold.Protein.ActiveResidues>
 VAL166  LYS551  ARG553  GLY616  TRP617  ASP618  TYR619  PRO620  LYS621  CYS622 
 ASP623  PHE694  ASN695  SER759  ASP760  ASP761  ALA762  ILE779  LEU786  VAL792 
 PHE793  MET794  SER795  GLU796  ALA797  LYS798  CYS799  TRP800  GLU811  SER814 

> <Gold.Protein.RotatedAtoms>
  151.1438  133.4953  159.2596 H   0  0  0  0  0  0  0  0  0  0  0  0  # atno 6907 bound_to 6896
  151.1627  135.0280  159.8727 H   0  0  0  0  0  0  0  0  0  0  0  0  # atno 6908 bound_to 6896
  152.5463  134.1310  159.8492 H   0  0  0  0  0  0  0  0  0  0  0  0  # atno 6909 bound_to 6896
  146.0087  139.4519  142.9970 H   0  0  0  0  0  0  0  0  0  0  0  0  # atno 7974 bound_to 7965
  154.8017  140.2853  155.5916 H   0  0  0  0  0  0  0  0  0  0  0  0  # atno 8008 bound_to 7997
  156.2978  140.2585  156.2816 H   0  0  0  0  0  0  0  0  0  0  0  0  # atno 8009 bound_to 7997
  154.9550  140.0378  157.2152 H   0  0  0  0  0  0  0  0  0  0  0  0  # atno 8010 bound_to 7997
  139.5176  144.3036  152.0356 H   0  0  0  0  0  0  0  0  0  0  0  0  # atno 10167 bound_to 10162
  156.0196  130.4449  150.3096 H   0  0  0  0  0  0  0  0  0  0  0  0  # atno 10718 bound_to 10713
  153.8906  135.6812  153.4761 H   0  0  0  0  0  0  0  0  0  0  0  0  # atno 10763 bound_to 10752
  153.1183  135.4751  154.9150 H   0  0  0  0  0  0  0  0  0  0  0  0  # atno 10764 bound_to 10752
  154.7624  135.3214  154.8305 H   0  0  0  0  0  0  0  0  0  0  0  0  # atno 10765 bound_to 10752
  139.9825  134.9543  156.9664 H   0  0  0  0  0  0  0  0  0  0  0  0  # atno 11005 bound_to 11000
  145.7376  141.0020  143.1318 LP  0  0  0  0  0  0  0  0  0  0  0  0  # atno 17320 bound_to 7965
  144.6945  139.9060  143.7461 LP  0  0  0  0  0  0  0  0  0  0  0  0  # atno 17321 bound_to 7965
  140.2483  144.4196  150.6232 LP  0  0  0  0  0  0  0  0  0  0  0  0  # atno 17342 bound_to 10162
  140.6242  143.2179  151.6630 LP  0  0  0  0  0  0  0  0  0  0  0  0  # atno 17343 bound_to 10162
  157.1198  131.0244  151.3014 LP  0  0  0  0  0  0  0  0  0  0  0  0  # atno 17370 bound_to 10713
  157.4637  130.7668  149.7259 LP  0  0  0  0  0  0  0  0  0  0  0  0  # atno 17371 bound_to 10713
  140.5067  134.1043  155.7261 LP  0  0  0  0  0  0  0  0  0  0  0  0  # atno 17394 bound_to 11000
  141.1495  133.8994  157.2132 LP  0  0  0  0  0  0  0  0  0  0  0  0  # atno 17395 bound_to 11000

$$$$
