AV-unprocessed.smi:2413|AV-procd|sdf|9535|dock5
  -GOLD-   2272013163D 1   1.00000     0.00000
 Structure written by MMmdl.
 45 46  0  0  0  0  0  0  0  0  1 V2000
  147.5039  136.6885  160.2576 C   0  0  0  0  0  0  0  0  0  0  0  0
  148.5696  136.5815  159.1721 C   0  0  0  0  0  0  0  0  0  0  0  0
  149.7595  136.5141  159.4785 O   0  0  0  0  0  0  0  0  0  0  0  0
  148.1275  136.5673  157.9059 N   0  0  0  0  0  0  0  0  0  0  0  0
  148.9771  136.4858  156.7227 C   0  0  0  0  0  0  0  0  0  0  0  0
  149.6320  137.8394  156.3987 C   0  0  1  0  0  0  0  0  0  0  0  0
  150.4953  138.3507  157.5679 C   0  0  0  0  0  0  0  0  0  0  0  0
  151.2033  139.5729  157.1951 N   0  0  0  0  0  0  0  0  0  0  0  0
  151.8028  140.3448  158.2167 C   0  0  0  0  0  0  0  0  0  0  0  0
  152.6193  139.7800  159.2279 C   0  0  0  0  0  0  0  0  0  0  0  0
  153.1332  140.6619  160.1977 C   0  0  0  0  0  0  0  0  0  0  0  0
  152.8703  141.9840  160.1697 N   0  0  0  0  0  0  0  0  0  0  0  0
  152.1232  142.4411  159.1580 C   0  0  0  0  0  0  0  0  0  0  0  0
  151.6985  143.9189  159.2058 C   0  0  0  0  0  0  0  0  0  0  0  0
  152.3418  144.7198  158.0488 C   0  0  0  0  0  0  0  0  0  0  0  0
  152.1774  144.5945  160.5121 C   0  0  0  0  0  0  0  0  0  0  0  0
  150.1649  144.0142  159.1085 C   0  0  0  0  0  0  0  0  0  0  0  0
  151.5573  141.6770  158.2155 N   0  0  0  0  0  0  0  0  0  0  0  0
  151.9260  139.4832  155.9260 C   0  0  0  0  0  0  0  0  0  0  0  0
  151.0179  138.9160  154.8230 C   0  0  0  0  0  0  0  0  0  0  0  0
  150.4595  137.6792  155.2497 O   0  0  0  0  0  0  0  0  0  0  0  0
  146.8304  137.5216  160.0536 H   0  0  0  0  0  0  0  0  0  0  0  0
  147.9602  136.8507  161.2347 H   0  0  0  0  0  0  0  0  0  0  0  0
  146.9161  135.7714  160.3026 H   0  0  0  0  0  0  0  0  0  0  0  0
  147.1326  136.6343  157.7485 H   0  0  0  0  0  0  0  0  0  0  0  0
  149.7409  135.7203  156.8705 H   0  0  0  0  0  0  0  0  0  0  0  0
  148.3668  136.1541  155.8822 H   0  0  0  0  0  0  0  0  0  0  0  0
  148.8517  138.5725  156.1840 H   0  0  0  0  0  0  0  0  0  0  0  0
  149.8410  138.5383  158.4194 H   0  0  0  0  0  0  0  0  0  0  0  0
  151.2209  137.5930  157.8670 H   0  0  0  0  0  0  0  0  0  0  0  0
  152.8559  138.7286  159.2818 H   0  0  0  0  0  0  0  0  0  0  0  0
  153.7541  140.3023  161.0047 H   0  0  0  0  0  0  0  0  0  0  0  0
  152.0812  145.7774  158.1044 H   0  0  0  0  0  0  0  0  0  0  0  0
  152.0090  144.3657  157.0723 H   0  0  0  0  0  0  0  0  0  0  0  0
  153.4299  144.6486  158.0728 H   0  0  0  0  0  0  0  0  0  0  0  0
  153.2598  144.5206  160.6238 H   0  0  0  0  0  0  0  0  0  0  0  0
  151.7221  144.1451  161.3954 H   0  0  0  0  0  0  0  0  0  0  0  0
  151.9179  145.6536  160.5299 H   0  0  0  0  0  0  0  0  0  0  0  0
  149.8268  145.0505  159.1388 H   0  0  0  0  0  0  0  0  0  0  0  0
  149.6827  143.4866  159.9320 H   0  0  0  0  0  0  0  0  0  0  0  0
  149.7992  143.5759  158.1793 H   0  0  0  0  0  0  0  0  0  0  0  0
  152.2955  140.4559  155.6016 H   0  0  0  0  0  0  0  0  0  0  0  0
  152.7959  138.8396  156.0623 H   0  0  0  0  0  0  0  0  0  0  0  0
  150.2235  139.6207  154.5714 H   0  0  0  0  0  0  0  0  0  0  0  0
  151.5942  138.7496  153.9127 H   0  0  0  0  0  0  0  0  0  0  0  0
  1  2  1  0  0  0  0
  1 22  1  0  0  0  0
  1 23  1  0  0  0  0
  1 24  1  0  0  0  0
  2  3  2  0  0  0  0
  2  4  1  0  0  0  0
  4  5  1  0  0  0  0
  4 25  1  0  0  0  0
  5  6  1  0  0  0  0
  5 26  1  0  0  0  0
  5 27  1  0  0  0  0
  6 21  1  0  0  0  0
  6  7  1  0  0  0  0
  6 28  1  0  0  0  0
  7  8  1  0  0  0  0
  7 29  1  0  0  0  0
  7 30  1  0  0  0  0
  8  9  1  0  0  0  0
  8 19  1  0  0  0  0
  9 18  1  0  0  0  0
  9 10  2  0  0  0  0
 10 11  1  0  0  0  0
 10 31  1  0  0  0  0
 11 12  2  0  0  0  0
 11 32  1  0  0  0  0
 12 13  1  0  0  0  0
 13 14  1  0  0  0  0
 13 18  2  0  0  0  0
 14 15  1  0  0  0  0
 14 16  1  0  0  0  0
 14 17  1  0  0  0  0
 15 33  1  0  0  0  0
 15 34  1  0  0  0  0
 15 35  1  0  0  0  0
 16 36  1  0  0  0  0
 16 37  1  0  0  0  0
 16 38  1  0  0  0  0
 17 39  1  0  0  0  0
 17 40  1  0  0  0  0
 17 41  1  0  0  0  0
 19 20  1  0  0  0  0
 19 42  1  0  0  0  0
 19 43  1  0  0  0  0
 20 21  1  0  0  0  0
 20 44  1  0  0  0  0
 20 45  1  0  0  0  0
M  END
> <s_m_source_file>
AV-unprocessed.smi

> <i_m_source_file_index>
2413

> <i_lp_mmshare_version>
43012

> <i_f3d_flags>
0

> <s_epik_input>
W0NIM11DKD1PKVtOSF1bQ0gyXVtDQEBIXTFbQ0gyXU4oW0NIMl1bQ0gyXU8xKWMyW2NIXVtjSF1uYyhuMilDKFtDSDNdKShbQ0gzXSlbQ0gzXQ==

> <s_epik_cmdline>
J2VwaWtfcHl0aG9uJywgJy1waCcsICc3LjAnLCAnLXRuJywgJzgnLCAnLW1hJywgJzIwMCcsICctbWV0YWxfYmluZGluZycsICctaW1hZScsICc8aW5maWxlLm1hZT4nLCAnLW9tYWUnLCAnPG91dGZpbGUubWFlPic=

> <r_lp_tautomer_probability>
1

> <r_epik_Ionization_Penalty>
0.0132021

> <r_epik_Ionization_Penalty_Charging>
0

> <r_epik_Ionization_Penalty_Neutral>
0.0132021

> <r_epik_State_Penalty>
0.0102452

> <r_epik_Charging_Adjusted_Penalty>
0.0102452

> <i_epik_Tot_Q>
0

> <i_epik_Tot_abs_Q>
0

> <r_epik_Metal_State_Penalty>
0.0100219

> <b_epik_Metal_Only>
0

> <s_lp_Force_Field>
OPLS_2005

> <r_lp_Energy>
8.35197

> <b_lp_Chiralities_Consistent>
1

> <s_lp_Variant>
AV-unprocessed.smi:2413-2

> <Gold.Version>
5.8.1

> <Gold.Id.Protein>
6NUR|6NUR_protein|mol2

> <Gold.PLP.Fitness>
39.0932

> <Gold.PLP.PLP>
-37.2106

> <Gold.PLP.part.hbond>
-1.0000

> <Gold.PLP.part.metal>
0.0000

> <Gold.PLP.part.buried>
-6.4119

> <Gold.PLP.part.nonpolar>
-29.5451

> <Gold.PLP.part.repulsive>
0.1432

> <Gold.PLP.ligand.clash>
0.0000

> <Gold.PLP.ligand.torsion>
0.8733

> <Gold.PLP.Chemscore.Hbond>
1.0000

> <Gold.PLP.Chemscore.CHOScore>
0.0000

> <Gold.PLP.Chemscore.Metal>
0.0000

> <Gold.Chemscore.Hbonds>
donor molecule, donor type, donor heavy atom, donor atom, acceptor molecule, acceptor atom, score
      P1  H  6896  6909       L1     3  1.00

> <Gold.PLP.Chemscore.Internal.Correction>
0.6292

> <Gold.Rescore>
     Score         DG    S(hbond)    S(metal)    S(lipo)     H(rot)  DE(clash)    DE(int)     intcor
     13.91     -14.80       1.00        0.00      89.06       1.73       0.04       0.85       ----

> <Gold.Chemscore.Fitness>
13.9134

> <Gold.Chemscore.DG>
-14.8016

> <Gold.Chemscore.ZeroCoef>
-5.4800

> <Gold.Chemscore.Hbond>
0.9997

> <Gold.Chemscore.Metal>
0.0000

> <Gold.Chemscore.Lipo>
89.0574

> <Gold.Chemscore.Internal_Hbond>
0.0000

> <Gold.Chemscore.DEClash>
0.0361

> <Gold.Chemscore.DEInternal>
0.8522

> <Gold.Chemscore.Rot>
1.7332

> <Gold.Chemscore.Internal.Correction>
   9.000000E+99

> <Gold.Chemscore.Hbonds>
donor molecule, donor type, donor heavy atom, donor atom, acceptor molecule, acceptor atom, score
      P1  H  6896  6909       L1     3  0.98

> <Gold.Chemscore.Hbond.Weighted>
-3.3390

> <Gold.Chemscore.Metal.Weighted>
-0.0000

> <Gold.Chemscore.Lipo.Weighted>
-10.4197

> <Gold.Chemscore.Internal_Hbond.Weighted>
0.0000

> <Gold.Chemscore.DEClash.Weighted>
0.0361

> <Gold.Chemscore.DEInternal.Weighted>
0.8522

> <Gold.Chemscore.Rot.Weighted>
4.4370

> <Gold.Chemscore.Internal.Correction.Weighted>
   9.000000E+99

> <Gold.Protein.RotatedTorsions>
[ 6907 6896 6895 6894 ] final   69.75 input  -60.11 | X-H torsion
[ 7974 7965 7964 7962 ] final   16.41 input  175.53 | X-H torsion
[ 8008 7997 7996 7995 ] final  -47.08 input   59.86 | X-H torsion
[ 10167 10162 10161 10158 ] final  154.81 input  -65.29 | X-H torsion
[ 10718 10713 10712 10709 ] final  -43.08 input   66.30 | X-H torsion
[ 10763 10752 10751 10750 ] final -165.03 input  -60.55 | X-H torsion
[ 11005 11000 10999 10996 ] final -124.48 input  -57.11 | X-H torsion

> <Gold.Protein.ActiveResidues>
 VAL166  LYS551  ARG553  GLY616  TRP617  ASP618  TYR619  PRO620  LYS621  CYS622 
 ASP623  PHE694  ASN695  SER759  ASP760  ASP761  ALA762  ILE779  LEU786  VAL792 
 PHE793  MET794  SER795  GLU796  ALA797  LYS798  CYS799  TRP800  GLU811  SER814 

> <Gold.Protein.RotatedAtoms>
  152.4706  134.4970  159.9712 H   0  0  0  0  0  0  0  0  0  0  0  0  # atno 6907 bound_to 6896
  151.4997  133.3501  159.2875 H   0  0  0  0  0  0  0  0  0  0  0  0  # atno 6908 bound_to 6896
  150.8714  134.8116  159.7219 H   0  0  0  0  0  0  0  0  0  0  0  0  # atno 6909 bound_to 6896
  146.2250  139.8752  142.8580 H   0  0  0  0  0  0  0  0  0  0  0  0  # atno 7974 bound_to 7965
  154.4013  140.1355  156.4117 H   0  0  0  0  0  0  0  0  0  0  0  0  # atno 8008 bound_to 7997
  155.7727  140.3483  155.5235 H   0  0  0  0  0  0  0  0  0  0  0  0  # atno 8009 bound_to 7997
  155.8751  140.0978  157.1514 H   0  0  0  0  0  0  0  0  0  0  0  0  # atno 8010 bound_to 7997
  139.4822  144.5154  151.7959 H   0  0  0  0  0  0  0  0  0  0  0  0  # atno 10167 bound_to 10162
  156.2527  130.4189  149.8631 H   0  0  0  0  0  0  0  0  0  0  0  0  # atno 10718 bound_to 10713
  154.6971  135.2981  154.9395 H   0  0  0  0  0  0  0  0  0  0  0  0  # atno 10763 bound_to 10752
  154.0339  135.6666  153.4787 H   0  0  0  0  0  0  0  0  0  0  0  0  # atno 10764 bound_to 10752
  153.0654  135.5091  154.8095 H   0  0  0  0  0  0  0  0  0  0  0  0  # atno 10765 bound_to 10752
  140.9837  134.0637  157.3735 H   0  0  0  0  0  0  0  0  0  0  0  0  # atno 11005 bound_to 11000
  145.2568  141.0063  143.3849 LP  0  0  0  0  0  0  0  0  0  0  0  0  # atno 17320 bound_to 7965
  144.9331  139.4276  143.6485 LP  0  0  0  0  0  0  0  0  0  0  0  0  # atno 17321 bound_to 7965
  140.4662  144.1652  150.5912 LP  0  0  0  0  0  0  0  0  0  0  0  0  # atno 17342 bound_to 10162
  140.4431  143.2518  151.9446 LP  0  0  0  0  0  0  0  0  0  0  0  0  # atno 17343 bound_to 10162
  156.6174  130.8612  151.3468 LP  0  0  0  0  0  0  0  0  0  0  0  0  # atno 17370 bound_to 10713
  157.7221  130.9572  150.1480 LP  0  0  0  0  0  0  0  0  0  0  0  0  # atno 17371 bound_to 10713
  139.8961  135.0144  156.7036 LP  0  0  0  0  0  0  0  0  0  0  0  0  # atno 17394 bound_to 11000
  140.7147  133.9193  155.8107 LP  0  0  0  0  0  0  0  0  0  0  0  0  # atno 17395 bound_to 11000

$$$$
