AV-unprocessed.smi:2336|AV-procd|sdf|9328|dock8
  -GOLD-   2272012543D 1   1.00000     0.00000
 Structure written by MMmdl.
 50 51  0  0  0  0  0  0  0  0  2 V2000
  149.0384  137.7637  157.6719 C   0  0  0  0  0  0  0  0  0  0  0  0
  147.8106  137.3179  156.8590 C   0  0  0  0  0  0  0  0  0  0  0  0
  147.6928  135.7842  156.8377 C   0  0  0  0  0  0  0  0  0  0  0  0
  147.6827  137.9347  155.4338 C   0  0  1  0  0  0  0  0  0  0  0  0
  146.4018  137.5303  154.6584 C   0  0  0  0  0  0  0  0  0  0  0  0
  146.6936  136.5747  153.5980 N   0  0  0  0  0  0  0  0  0  0  0  0
  145.7866  135.7526  153.0547 C   0  0  0  0  0  0  0  0  0  0  0  0
  144.6057  135.7350  153.3995 O   0  0  0  0  0  0  0  0  0  0  0  0
  146.3418  134.9807  152.1042 N   0  0  0  0  0  0  0  0  0  0  0  0
  145.7478  133.9843  151.2794 C   0  0  0  0  0  0  0  0  0  0  0  0
  144.4620  134.0805  150.6917 C   0  0  0  0  0  0  0  0  0  0  0  0
  143.9988  133.0097  149.9007 C   0  0  0  0  0  0  0  0  0  0  0  0
  144.7142  131.8884  149.6722 N   0  0  0  0  0  0  0  0  0  0  0  0
  145.9359  131.7966  150.2377 C   0  0  0  0  0  0  0  0  0  0  0  0
  146.4931  132.8090  151.0444 C   0  0  0  0  0  0  0  0  0  0  0  0
  147.7264  132.6505  151.5829 F   0  0  0  0  0  0  0  0  0  0  0  0
  147.9413  139.3869  155.4381 N   0  0  0  0  0  0  0  0  0  0  0  0
  146.9444  140.2002  156.1478 C   0  0  0  0  0  0  0  0  0  0  0  0
  147.4339  141.6583  156.2435 C   0  0  0  0  0  0  0  0  0  0  0  0
  147.6671  142.2362  154.8982 N   0  3  0  0  0  0  0  0  0  0  0  0
  146.4255  142.6124  154.1832 C   0  0  0  0  0  0  0  0  0  0  0  0
  148.5719  141.3656  154.1103 C   0  0  0  0  0  0  0  0  0  0  0  0
  148.0682  139.9077  154.0734 C   0  0  0  0  0  0  0  0  0  0  0  0
  149.9592  137.3295  157.2846 H   0  0  0  0  0  0  0  0  0  0  0  0
  148.9483  137.4379  158.7084 H   0  0  0  0  0  0  0  0  0  0  0  0
  149.1466  138.8477  157.6859 H   0  0  0  0  0  0  0  0  0  0  0  0
  146.9437  137.6631  157.4229 H   0  0  0  0  0  0  0  0  0  0  0  0
  148.5426  135.3227  156.3342 H   0  0  0  0  0  0  0  0  0  0  0  0
  146.7863  135.4651  156.3228 H   0  0  0  0  0  0  0  0  0  0  0  0
  147.6529  135.3806  157.8500 H   0  0  0  0  0  0  0  0  0  0  0  0
  148.5085  137.4822  154.8825 H   0  0  0  0  0  0  0  0  0  0  0  0
  145.6583  137.0905  155.3242 H   0  0  0  0  0  0  0  0  0  0  0  0
  145.9412  138.4101  154.2067 H   0  0  0  0  0  0  0  0  0  0  0  0
  147.6444  136.5351  153.2614 H   0  0  0  0  0  0  0  0  0  0  0  0
  147.3230  135.1420  151.9285 H   0  0  0  0  0  0  0  0  0  0  0  0
  143.8197  134.9355  150.8277 H   0  0  0  0  0  0  0  0  0  0  0  0
  143.0230  133.0554  149.4404 H   0  0  0  0  0  0  0  0  0  0  0  0
  146.4867  130.8885  150.0422 H   0  0  0  0  0  0  0  0  0  0  0  0
  145.9813  140.1643  155.6383 H   0  0  0  0  0  0  0  0  0  0  0  0
  146.7751  139.8181  157.1515 H   0  0  0  0  0  0  0  0  0  0  0  0
  146.7150  142.2682  156.7917 H   0  0  0  0  0  0  0  0  0  0  0  0
  148.3658  141.6973  156.8094 H   0  0  0  0  0  0  0  0  0  0  0  0
  145.8061  141.7450  153.9560 H   0  0  0  0  0  0  0  0  0  0  0  0
  146.6635  143.1128  153.2443 H   0  0  0  0  0  0  0  0  0  0  0  0
  145.8334  143.3036  154.7837 H   0  0  0  0  0  0  0  0  0  0  0  0
  148.6825  141.7583  153.0989 H   0  0  0  0  0  0  0  0  0  0  0  0
  149.5646  141.3967  154.5619 H   0  0  0  0  0  0  0  0  0  0  0  0
  148.7890  139.3089  153.5154 H   0  0  0  0  0  0  0  0  0  0  0  0
  147.1185  139.8344  153.5424 H   0  0  0  0  0  0  0  0  0  0  0  0
  148.1631  143.1041  155.0439 H   0  0  0  0  0  0  0  0  0  0  0  0
  1  2  1  0  0  0  0
  1 24  1  0  0  0  0
  1 25  1  0  0  0  0
  1 26  1  0  0  0  0
  2  3  1  0  0  0  0
  2  4  1  0  0  0  0
  2 27  1  0  0  0  0
  3 28  1  0  0  0  0
  3 29  1  0  0  0  0
  3 30  1  0  0  0  0
  4  5  1  0  0  0  0
  4 17  1  0  0  0  0
  4 31  1  0  0  0  0
  5  6  1  0  0  0  0
  5 32  1  0  0  0  0
  5 33  1  0  0  0  0
  6  7  1  0  0  0  0
  6 34  1  0  0  0  0
  7  8  2  0  0  0  0
  7  9  1  0  0  0  0
  9 10  1  0  0  0  0
  9 35  1  0  0  0  0
 10 15  1  0  0  0  0
 10 11  2  0  0  0  0
 11 12  1  0  0  0  0
 11 36  1  0  0  0  0
 12 13  2  0  0  0  0
 12 37  1  0  0  0  0
 13 14  1  0  0  0  0
 14 15  2  0  0  0  0
 14 38  1  0  0  0  0
 15 16  1  0  0  0  0
 17 23  1  0  0  0  0
 17 18  1  0  0  0  0
 18 19  1  0  0  0  0
 18 39  1  0  0  0  0
 18 40  1  0  0  0  0
 19 20  1  0  0  0  0
 19 41  1  0  0  0  0
 19 42  1  0  0  0  0
 20 21  1  0  0  0  0
 20 22  1  0  0  0  0
 20 50  1  0  0  0  0
 21 43  1  0  0  0  0
 21 44  1  0  0  0  0
 21 45  1  0  0  0  0
 22 23  1  0  0  0  0
 22 46  1  0  0  0  0
 22 47  1  0  0  0  0
 23 48  1  0  0  0  0
 23 49  1  0  0  0  0
M  CHG  1  20   1
M  END
> <s_m_source_file>
AV-unprocessed.smi

> <i_m_source_file_index>
2336

> <i_lp_mmshare_version>
43012

> <i_f3d_flags>
0

> <s_epik_input>
W0NIMl0xW0NIMl1OKFtDSDNdKVtDSDJdW0NIMl1OMVtDQEhdKFtDSF0oW0NIM10pW0NIM10pW0NIMl1bTkhdQyg9TylbTkhdYzJbY0hdW2NIXW5bY0hdYzJG

> <s_epik_cmdline>
J2VwaWtfcHl0aG9uJywgJy1waCcsICc3LjAnLCAnLXRuJywgJzgnLCAnLW1hJywgJzIwMCcsICctbWV0YWxfYmluZGluZycsICctaW1hZScsICc8aW5maWxlLm1hZT4nLCAnLW9tYWUnLCAnPG91dGZpbGUubWFlPic=

> <r_epik_Ionization_Penalty>
0.0313013

> <r_epik_Ionization_Penalty_Charging>
0.0272987

> <r_epik_Ionization_Penalty_Neutral>
0.00400259

> <r_epik_State_Penalty>
0.0776825

> <r_epik_Charging_Adjusted_Penalty>
0.104981

> <i_epik_Tot_Q>
1

> <i_epik_Tot_abs_Q>
1

> <r_epik_Metal_State_Penalty>
0.0776139

> <b_epik_Metal_Only>
0

> <s_lp_Force_Field>
OPLS_2005

> <r_lp_Energy>
31.1795

> <b_lp_Chiralities_Consistent>
1

> <s_lp_Variant>
AV-unprocessed.smi:2336-2

> <Gold.Version>
5.8.1

> <Gold.Id.Protein>
6NUR|6NUR_protein|mol2

> <Gold.PLP.Fitness>
44.2023

> <Gold.PLP.PLP>
-28.8698

> <Gold.PLP.part.hbond>
-3.3559

> <Gold.PLP.part.metal>
0.0000

> <Gold.PLP.part.buried>
0.2341

> <Gold.PLP.part.nonpolar>
-25.1877

> <Gold.PLP.part.repulsive>
0.4322

> <Gold.PLP.ligand.clash>
0.0000

> <Gold.PLP.ligand.torsion>
1.2867

> <Gold.PLP.Chemscore.Hbond>
4.0000

> <Gold.PLP.Chemscore.CHOScore>
1.8482

> <Gold.PLP.Chemscore.Metal>
0.0000

> <Gold.Chemscore.Hbonds>
donor molecule, donor type, donor heavy atom, donor atom, acceptor molecule, acceptor atom, score
      L1  H     6    34       P1  7948  1.00
      L1  H     9    35       P1  7948  1.00
      L1  H    20    50       P1  8028  2.00
      L1  C    12    37       P1 10186  1.00
      L1  C    14    38       P1 10747  0.82

> <Gold.PLP.Chemscore.Internal.Correction>
0.3611

> <Gold.Rescore>
     Score         DG    S(hbond)    S(metal)    S(lipo)     H(rot)  DE(clash)    DE(int)     intcor
     17.06     -19.10       2.92        0.00      69.77       1.67       0.79       1.25       ----

> <Gold.Chemscore.Fitness>
17.0576

> <Gold.Chemscore.DG>
-19.0962

> <Gold.Chemscore.ZeroCoef>
-5.4800

> <Gold.Chemscore.Hbond>
2.9155

> <Gold.Chemscore.Metal>
0.0000

> <Gold.Chemscore.Lipo>
69.7725

> <Gold.Chemscore.Internal_Hbond>
0.0000

> <Gold.Chemscore.DEClash>
0.7883

> <Gold.Chemscore.DEInternal>
1.2502

> <Gold.Chemscore.Rot>
1.6739

> <Gold.Chemscore.Internal.Correction>
   9.000000E+99

> <Gold.Chemscore.Hbonds>
donor molecule, donor type, donor heavy atom, donor atom, acceptor molecule, acceptor atom, score
      L1  H     6    34       P1  7948  0.95
      L1  H     9    35       P1  7948  0.95
      L1  H    20    50       P1  8028  0.96
      P1  H 10785 10796       L1    13  0.01

> <Gold.Chemscore.Hbond.Weighted>
-9.7379

> <Gold.Chemscore.Metal.Weighted>
-0.0000

> <Gold.Chemscore.Lipo.Weighted>
-8.1634

> <Gold.Chemscore.Internal_Hbond.Weighted>
0.0000

> <Gold.Chemscore.DEClash.Weighted>
0.7883

> <Gold.Chemscore.DEInternal.Weighted>
1.2502

> <Gold.Chemscore.Rot.Weighted>
4.2851

> <Gold.Chemscore.Internal.Correction.Weighted>
   9.000000E+99

> <Gold.Protein.RotatedTorsions>
[ 6907 6896 6895 6894 ] final -166.42 input  -60.11 | X-H torsion
[ 7974 7965 7964 7962 ] final  -75.30 input  175.53 | X-H torsion
[ 8008 7997 7996 7995 ] final  -68.73 input   59.86 | X-H torsion
[ 10167 10162 10161 10158 ] final -170.42 input  -65.29 | X-H torsion
[ 10718 10713 10712 10709 ] final -138.33 input   66.30 | X-H torsion
[ 10763 10752 10751 10750 ] final  -69.62 input  -60.55 | X-H torsion
[ 11005 11000 10999 10996 ] final   17.37 input  -57.11 | X-H torsion

> <Gold.Protein.ActiveResidues>
 VAL166  LYS551  ARG553  GLY616  TRP617  ASP618  TYR619  PRO620  LYS621  CYS622 
 ASP623  PHE694  ASN695  SER759  ASP760  ASP761  ALA762  ILE779  LEU786  VAL792 
 PHE793  MET794  SER795  GLU796  ALA797  LYS798  CYS799  TRP800  GLU811  SER814 

> <Gold.Protein.RotatedAtoms>
  151.4434  133.3637  159.2784 H   0  0  0  0  0  0  0  0  0  0  0  0  # atno 6907 bound_to 6896
  150.9142  134.8560  159.7456 H   0  0  0  0  0  0  0  0  0  0  0  0  # atno 6908 bound_to 6896
  152.4948  134.4366  159.9582 H   0  0  0  0  0  0  0  0  0  0  0  0  # atno 6909 bound_to 6896
  145.6278  140.9346  143.1103 H   0  0  0  0  0  0  0  0  0  0  0  0  # atno 7974 bound_to 7965
  154.4889  140.0867  156.7549 H   0  0  0  0  0  0  0  0  0  0  0  0  # atno 8008 bound_to 7997
  155.4281  140.3448  155.4259 H   0  0  0  0  0  0  0  0  0  0  0  0  # atno 8009 bound_to 7997
  156.1301  140.1499  156.9066 H   0  0  0  0  0  0  0  0  0  0  0  0  # atno 8010 bound_to 7997
  139.5863  144.1312  152.1579 H   0  0  0  0  0  0  0  0  0  0  0  0  # atno 10167 bound_to 10162
  156.2981  130.7413  151.1457 H   0  0  0  0  0  0  0  0  0  0  0  0  # atno 10718 bound_to 10713
  154.4060  135.6020  153.5924 H   0  0  0  0  0  0  0  0  0  0  0  0  # atno 10763 bound_to 10752
  152.9789  135.5918  154.4127 H   0  0  0  0  0  0  0  0  0  0  0  0  # atno 10764 bound_to 10752
  154.3933  135.2842  155.2120 H   0  0  0  0  0  0  0  0  0  0  0  0  # atno 10765 bound_to 10752
  140.4367  134.1363  155.7686 H   0  0  0  0  0  0  0  0  0  0  0  0  # atno 11005 bound_to 11000
  144.7205  139.8045  143.7383 LP  0  0  0  0  0  0  0  0  0  0  0  0  # atno 17320 bound_to 7965
  146.1380  139.4431  143.0126 LP  0  0  0  0  0  0  0  0  0  0  0  0  # atno 17321 bound_to 7965
  140.0876  144.5648  150.7077 LP  0  0  0  0  0  0  0  0  0  0  0  0  # atno 17342 bound_to 10162
  140.7134  143.2523  151.4511 LP  0  0  0  0  0  0  0  0  0  0  0  0  # atno 17343 bound_to 10162
  157.7361  131.0566  150.5435 LP  0  0  0  0  0  0  0  0  0  0  0  0  # atno 17370 bound_to 10713
  156.5559  130.4243  149.6086 LP  0  0  0  0  0  0  0  0  0  0  0  0  # atno 17371 bound_to 10713
  141.1723  133.8585  157.1533 LP  0  0  0  0  0  0  0  0  0  0  0  0  # atno 17394 bound_to 11000
  140.0097  134.9993  157.0369 LP  0  0  0  0  0  0  0  0  0  0  0  0  # atno 17395 bound_to 11000

$$$$
