AV-unprocessed.smi:55|AV-procd|sdf|572|dock4
  -GOLD-   2262016473D 1   1.00000     0.00000
 Structure written by MMmdl.
 30 31  0  0  0  0  0  0  0  0  2 V2000
  150.7920  142.8196  158.9203 C   0  0  0  0  0  0  0  0  0  0  0  0
  151.0335  141.8627  157.7659 C   0  0  0  0  0  0  0  0  0  0  0  0
  150.2546  141.8542  156.6611 C   0  0  0  0  0  0  0  0  0  0  0  0
  150.4781  140.9792  155.6105 N   0  0  0  0  0  0  0  0  0  0  0  0
  149.6016  140.9748  154.3725 C   0  0  1  0  0  0  0  0  0  0  0  0
  148.8170  139.6540  154.2653 C   0  0  0  0  0  0  0  0  0  0  0  0
  147.3806  140.1117  154.0824 C   0  0  2  0  0  0  0  0  0  0  0  0
  147.0516  140.1939  152.7080 O   0  0  0  0  0  0  0  0  0  0  0  0
  147.3806  141.4860  154.7615 C   0  0  2  0  0  0  0  0  0  0  0  0
  146.2679  142.4669  154.3522 C   0  0  0  0  0  0  0  0  0  0  0  0
  145.0011  141.9517  154.7053 O   0  0  0  0  0  0  0  0  0  0  0  0
  148.6646  142.0116  154.4460 O   0  0  0  0  0  0  0  0  0  0  0  0
  151.5619  140.0646  155.6820 C   0  0  0  0  0  0  0  0  0  0  0  0
  151.7392  139.3032  154.7307 O   0  0  0  0  0  0  0  0  0  0  0  0
  152.3527  140.0660  156.7928 N   0  5  0  0  0  0  0  0  0  0  0  0
  152.1494  140.9123  157.8426 C   0  0  0  0  0  0  0  0  0  0  0  0
  152.8691  140.9003  158.8411 O   0  0  0  0  0  0  0  0  0  0  0  0
  150.2742  141.1620  153.5338 H   0  0  0  0  0  0  0  0  0  0  0  0
  146.6775  139.4290  154.5604 H   0  0  0  0  0  0  0  0  0  0  0  0
  147.3438  141.3370  155.8422 H   0  0  0  0  0  0  0  0  0  0  0  0
  149.9343  143.4644  158.7285 H   0  0  0  0  0  0  0  0  0  0  0  0
  151.6642  143.4551  159.0765 H   0  0  0  0  0  0  0  0  0  0  0  0
  150.5993  142.2660  159.8399 H   0  0  0  0  0  0  0  0  0  0  0  0
  149.4384  142.5579  156.6107 H   0  0  0  0  0  0  0  0  0  0  0  0
  149.1939  139.0381  153.4479 H   0  0  0  0  0  0  0  0  0  0  0  0
  148.9129  139.0914  155.1952 H   0  0  0  0  0  0  0  0  0  0  0  0
  147.8526  140.1631  152.2073 H   0  0  0  0  0  0  0  0  0  0  0  0
  146.4061  143.4183  154.8662 H   0  0  0  0  0  0  0  0  0  0  0  0
  146.2934  142.6791  153.2832 H   0  0  0  0  0  0  0  0  0  0  0  0
  144.7009  141.3891  154.0077 H   0  0  0  0  0  0  0  0  0  0  0  0
  1  2  1  0  0  0  0
  1 21  1  0  0  0  0
  1 22  1  0  0  0  0
  1 23  1  0  0  0  0
  2 16  1  0  0  0  0
  2  3  2  0  0  0  0
  3  4  1  0  0  0  0
  3 24  1  0  0  0  0
  4  5  1  0  0  0  0
  4 13  1  0  0  0  0
  5 18  1  0  0  0  0
  5 12  1  0  0  0  0
  5  6  1  0  0  0  0
  6  7  1  0  0  0  0
  6 25  1  0  0  0  0
  6 26  1  0  0  0  0
  7 19  1  0  0  0  0
  7  8  1  0  0  0  0
  7  9  1  0  0  0  0
  8 27  1  0  0  0  0
  9 20  1  0  0  0  0
  9 10  1  0  0  0  0
  9 12  1  0  0  0  0
 10 11  1  0  0  0  0
 10 28  1  0  0  0  0
 10 29  1  0  0  0  0
 11 30  1  0  0  0  0
 13 14  2  0  0  0  0
 13 15  1  0  0  0  0
 15 16  1  0  0  0  0
 16 17  2  0  0  0  0
M  CHG  1  15  -1
M  END
> <s_m_source_file>
AV-unprocessed.smi

> <i_m_source_file_index>
55

> <i_lp_mmshare_version>
43012

> <i_f3d_flags>
0

> <s_epik_input>
Tz1jMVtuSF1jKD1PKW4oW2NIXWMxW0NIM10pW0NAQEhdMltDSDJdW0NAQEhdKFtPSF0pW0NAQEhdKE8yKVtDSDJdW09IXQ==

> <s_epik_cmdline>
J2VwaWtfcHl0aG9uJywgJy1waCcsICc3LjAnLCAnLXRuJywgJzgnLCAnLW1hJywgJzIwMCcsICctbWV0YWxfYmluZGluZycsICctaW1hZScsICc8aW5maWxlLm1hZT4nLCAnLW9tYWUnLCAnPG91dGZpbGUubWFlPic=

> <r_lp_tautomer_probability>
0.999537

> <r_epik_Ionization_Penalty>
3.66603

> <r_epik_Ionization_Penalty_Charging>
1.09773e-07

> <r_epik_Ionization_Penalty_Neutral>
3.66603

> <r_epik_State_Penalty>
3.66562

> <r_epik_Charging_Adjusted_Penalty>
3.66562

> <i_epik_Tot_Q>
-1

> <i_epik_Tot_abs_Q>
1

> <r_epik_Metal_State_Penalty>
0.234536

> <b_epik_Metal_Only>
1

> <s_epik_Chemistry_Notes>
This compound contains an acetal/aminal-like group ( X-CH(R)-Y where X, Y are N, S, or O) that may be acid/base labile, releasing an aldehyde.

> <s_lp_Force_Field>
OPLS_2005

> <r_lp_Energy>
39.9297

> <b_lp_Chiralities_Consistent>
1

> <s_lp_Variant>
AV-unprocessed.smi:55-12

> <Gold.Version>
5.8.1

> <Gold.Id.Protein>
6NUR|6NUR_protein|mol2

> <Gold.PLP.Fitness>
45.9043

> <Gold.PLP.PLP>
-29.5243

> <Gold.PLP.part.hbond>
-5.0000

> <Gold.PLP.part.metal>
0.0000

> <Gold.PLP.part.buried>
-2.3590

> <Gold.PLP.part.nonpolar>
-23.5669

> <Gold.PLP.part.repulsive>
1.2909

> <Gold.PLP.ligand.clash>
0.0000

> <Gold.PLP.ligand.torsion>
0.0618

> <Gold.PLP.Chemscore.Hbond>
4.5000

> <Gold.PLP.Chemscore.CHOScore>
1.0000

> <Gold.PLP.Chemscore.Metal>
0.0000

> <Gold.Chemscore.Hbonds>
donor molecule, donor type, donor heavy atom, donor atom, acceptor molecule, acceptor atom, score
      L1  H     8    27       P1  7957  1.00
      L1  H    11    30       P1 10175  1.00
      P1  H  7989  7998       L1    14  0.50
      P1  H  7997  8010       L1    15  2.00
      L1  C     3    24       P1  8028  1.00

> <Gold.PLP.Chemscore.Internal.Correction>
0.0036

> <Gold.Rescore>
     Score         DG    S(hbond)    S(metal)    S(lipo)     H(rot)  DE(clash)    DE(int)     intcor
     10.31     -12.39       2.60        0.00      43.55       2.69       1.02       1.06       ----

> <Gold.Chemscore.Fitness>
10.3091

> <Gold.Chemscore.DG>
-12.3935

> <Gold.Chemscore.ZeroCoef>
-5.4800

> <Gold.Chemscore.Hbond>
2.6039

> <Gold.Chemscore.Metal>
0.0000

> <Gold.Chemscore.Lipo>
43.5514

> <Gold.Chemscore.Internal_Hbond>
0.0000

> <Gold.Chemscore.DEClash>
1.0204

> <Gold.Chemscore.DEInternal>
1.0640

> <Gold.Chemscore.Rot>
2.6871

> <Gold.Chemscore.Internal.Correction>
   9.000000E+99

> <Gold.Chemscore.Hbonds>
donor molecule, donor type, donor heavy atom, donor atom, acceptor molecule, acceptor atom, score
      L1  H     8    27       P1  7957  0.93
      L1  H    11    30       P1 10175  0.37
      P1  H  7989  7998       L1    14  0.02
      P1  H  7997  8010       L1    15  0.42

> <Gold.Chemscore.Hbond.Weighted>
-8.6970

> <Gold.Chemscore.Metal.Weighted>
-0.0000

> <Gold.Chemscore.Lipo.Weighted>
-5.0955

> <Gold.Chemscore.Internal_Hbond.Weighted>
0.0000

> <Gold.Chemscore.DEClash.Weighted>
1.0204

> <Gold.Chemscore.DEInternal.Weighted>
1.0640

> <Gold.Chemscore.Rot.Weighted>
6.8791

> <Gold.Chemscore.Internal.Correction.Weighted>
   9.000000E+99

> <Gold.Protein.RotatedTorsions>
[ 6907 6896 6895 6894 ] final  157.38 input  -60.11 | X-H torsion
[ 7974 7965 7964 7962 ] final    2.65 input  175.53 | X-H torsion
[ 8008 7997 7996 7995 ] final   72.97 input   59.86 | X-H torsion
[ 10167 10162 10161 10158 ] final -157.25 input  -65.29 | X-H torsion
[ 10718 10713 10712 10709 ] final   75.25 input   66.30 | X-H torsion
[ 10763 10752 10751 10750 ] final   78.61 input  -60.55 | X-H torsion
[ 11005 11000 10999 10996 ] final   -3.71 input  -57.11 | X-H torsion

> <Gold.Protein.ActiveResidues>
 VAL166  LYS551  ARG553  GLY616  TRP617  ASP618  TYR619  PRO620  LYS621  CYS622 
 ASP623  PHE694  ASN695  SER759  ASP760  ASP761  ALA762  ILE779  LEU786  VAL792 
 PHE793  MET794  SER795  GLU796  ALA797  LYS798  CYS799  TRP800  GLU811  SER814 

> <Gold.Protein.RotatedAtoms>
  152.0160  133.3880  159.4238 H   0  0  0  0  0  0  0  0  0  0  0  0  # atno 6907 bound_to 6896
  150.6895  134.3679  159.4988 H   0  0  0  0  0  0  0  0  0  0  0  0  # atno 6908 bound_to 6896
  152.1446  134.9036  160.0602 H   0  0  0  0  0  0  0  0  0  0  0  0  # atno 6909 bound_to 6896
  146.2444  140.0804  142.8357 H   0  0  0  0  0  0  0  0  0  0  0  0  # atno 7974 bound_to 7965
  155.7768  140.3483  155.5276 H   0  0  0  0  0  0  0  0  0  0  0  0  # atno 8008 bound_to 7997
  155.8768  140.0995  157.1533 H   0  0  0  0  0  0  0  0  0  0  0  0  # atno 8009 bound_to 7997
  154.4021  140.1330  156.4134 H   0  0  0  0  0  0  0  0  0  0  0  0  # atno 8010 bound_to 7997
  139.6785  143.9621  152.2324 H   0  0  0  0  0  0  0  0  0  0  0  0  # atno 10167 bound_to 10162
  157.6626  130.9717  150.1327 H   0  0  0  0  0  0  0  0  0  0  0  0  # atno 10718 bound_to 10713
  153.0887  135.4870  154.8648 H   0  0  0  0  0  0  0  0  0  0  0  0  # atno 10763 bound_to 10752
  154.7243  135.3046  154.8999 H   0  0  0  0  0  0  0  0  0  0  0  0  # atno 10764 bound_to 10752
  153.9654  135.6807  153.4799 H   0  0  0  0  0  0  0  0  0  0  0  0  # atno 10765 bound_to 10752
  140.6723  133.9226  155.8502 H   0  0  0  0  0  0  0  0  0  0  0  0  # atno 11005 bound_to 11000
  145.0738  140.9173  143.4866 LP  0  0  0  0  0  0  0  0  0  0  0  0  # atno 17320 bound_to 7965
  145.0943  139.2867  143.5718 LP  0  0  0  0  0  0  0  0  0  0  0  0  # atno 17321 bound_to 7965
  139.9405  144.6684  150.8271 LP  0  0  0  0  0  0  0  0  0  0  0  0  # atno 17342 bound_to 10162
  140.7644  143.3248  151.2541 LP  0  0  0  0  0  0  0  0  0  0  0  0  # atno 17343 bound_to 10162
  156.2170  130.3671  149.8602 LP  0  0  0  0  0  0  0  0  0  0  0  0  # atno 17370 bound_to 10713
  156.6465  130.8726  151.3523 LP  0  0  0  0  0  0  0  0  0  0  0  0  # atno 17371 bound_to 10713
  141.0383  134.0658  157.3933 LP  0  0  0  0  0  0  0  0  0  0  0  0  # atno 17394 bound_to 11000
  139.8978  135.0152  156.7116 LP  0  0  0  0  0  0  0  0  0  0  0  0  # atno 17395 bound_to 11000

$$$$
