AV-unprocessed.smi:618|AV-procd|sdf|3081|dock5
  -GOLD-   22720 0 03D 1   1.00000     0.00000
 Structure written by MMmdl.
 41 43  0  0  0  0  0  0  0  0  2 V2000
  150.5939  136.5272  150.7260 O   0  0  0  0  0  0  0  0  0  0  0  0
  149.8600  136.4387  151.7099 C   0  0  0  0  0  0  0  0  0  0  0  0
  148.9823  135.4414  151.8889 N   0  0  0  0  0  0  0  0  0  0  0  0
  148.7681  134.3342  150.9619 C   0  0  0  0  0  0  0  0  0  0  0  0
  147.5802  133.4520  151.3858 C   0  0  1  0  0  0  0  0  0  0  0  0
  147.4571  132.1928  150.4943 C   0  0  0  0  0  0  0  0  0  0  0  0
  146.3724  131.3488  151.0282 N   0  3  1  0  0  0  0  0  0  0  0  0
  146.0524  130.0928  150.3282 C   0  0  0  0  0  0  0  0  0  0  0  0
  145.3792  129.2073  151.3964 C   0  0  0  0  0  0  0  0  0  0  0  0
  145.5191  129.9741  152.7246 C   0  0  0  0  0  0  0  0  0  0  0  0
  146.6218  130.9839  152.4242 C   0  0  2  0  0  0  0  0  0  0  0  0
  146.6887  132.2616  153.2696 C   0  0  0  0  0  0  0  0  0  0  0  0
  147.7544  133.0598  152.7528 O   0  0  0  0  0  0  0  0  0  0  0  0
  149.8413  137.2952  152.7455 N   0  0  0  0  0  0  0  0  0  0  0  0
  150.6157  138.4723  152.9302 C   0  0  0  0  0  0  0  0  0  0  0  0
  151.2414  139.1859  151.8793 C   0  0  0  0  0  0  0  0  0  0  0  0
  151.9691  140.3511  152.1882 C   0  0  0  0  0  0  0  0  0  0  0  0
  152.0382  140.7648  153.5325 C   0  0  0  0  0  0  0  0  0  0  0  0
  151.4346  140.1030  154.5422 N   0  0  0  0  0  0  0  0  0  0  0  0
  150.7379  138.9872  154.2385 C   0  0  0  0  0  0  0  0  0  0  0  0
  148.4186  135.4496  152.7266 H   0  0  0  0  0  0  0  0  0  0  0  0
  148.5707  134.7667  149.9809 H   0  0  0  0  0  0  0  0  0  0  0  0
  149.6742  133.7349  150.8555 H   0  0  0  0  0  0  0  0  0  0  0  0
  146.6611  134.0355  151.3045 H   0  0  0  0  0  0  0  0  0  0  0  0
  147.2329  132.4701  149.4638 H   0  0  0  0  0  0  0  0  0  0  0  0
  148.3938  131.6329  150.4856 H   0  0  0  0  0  0  0  0  0  0  0  0
  145.4072  130.2766  149.4687 H   0  0  0  0  0  0  0  0  0  0  0  0
  146.9686  129.6197  149.9716 H   0  0  0  0  0  0  0  0  0  0  0  0
  144.3300  129.0213  151.1636 H   0  0  0  0  0  0  0  0  0  0  0  0
  145.8795  128.2394  151.4517 H   0  0  0  0  0  0  0  0  0  0  0  0
  144.5867  130.4914  152.9552 H   0  0  0  0  0  0  0  0  0  0  0  0
  145.7613  129.3238  153.5660 H   0  0  0  0  0  0  0  0  0  0  0  0
  147.5832  130.4684  152.4843 H   0  0  0  0  0  0  0  0  0  0  0  0
  145.7488  132.8148  153.2383 H   0  0  0  0  0  0  0  0  0  0  0  0
  146.8932  132.0213  154.3131 H   0  0  0  0  0  0  0  0  0  0  0  0
  149.2456  137.0439  153.5208 H   0  0  0  0  0  0  0  0  0  0  0  0
  151.1671  138.8739  150.8492 H   0  0  0  0  0  0  0  0  0  0  0  0
  152.4590  140.9179  151.4106 H   0  0  0  0  0  0  0  0  0  0  0  0
  152.5878  141.6542  153.8028 H   0  0  0  0  0  0  0  0  0  0  0  0
  150.2666  138.4853  155.0710 H   0  0  0  0  0  0  0  0  0  0  0  0
  145.5274  131.9022  151.0231 H   0  0  0  0  0  0  0  0  0  0  0  0
  1  2  2  0  0  0  0
  2  3  1  0  0  0  0
  2 14  1  0  0  0  0
  3  4  1  0  0  0  0
  3 21  1  0  0  0  0
  4  5  1  0  0  0  0
  4 22  1  0  0  0  0
  4 23  1  0  0  0  0
  5 13  1  0  0  0  0
  5  6  1  0  0  0  0
  5 24  1  0  0  0  0
  6  7  1  0  0  0  0
  6 25  1  0  0  0  0
  6 26  1  0  0  0  0
  7 11  1  0  0  0  0
  7  8  1  0  0  0  0
  7 41  1  0  0  0  0
  8  9  1  0  0  0  0
  8 27  1  0  0  0  0
  8 28  1  0  0  0  0
  9 10  1  0  0  0  0
  9 29  1  0  0  0  0
  9 30  1  0  0  0  0
 10 11  1  0  0  0  0
 10 31  1  0  0  0  0
 10 32  1  0  0  0  0
 11 12  1  0  0  0  0
 11 33  1  0  0  0  0
 12 13  1  0  0  0  0
 12 34  1  0  0  0  0
 12 35  1  0  0  0  0
 14 15  1  0  0  0  0
 14 36  1  0  0  0  0
 15 20  1  0  0  0  0
 15 16  2  0  0  0  0
 16 17  1  0  0  0  0
 16 37  1  0  0  0  0
 17 18  2  0  0  0  0
 17 38  1  0  0  0  0
 18 19  1  0  0  0  0
 18 39  1  0  0  0  0
 19 20  2  0  0  0  0
 20 40  1  0  0  0  0
M  CHG  1   7   1
M  END
> <s_m_source_file>
AV-unprocessed.smi

> <i_m_source_file_index>
618

> <i_lp_mmshare_version>
43012

> <i_f3d_flags>
0

> <s_epik_input>
W2NIXTFuW2NIXVtjSF1bY0hdYzFbTkhdQyg9TylbTkhdW0NIMl1bQ0BIXShbQ0gyXTIpT1tDSDJdW0NAQEhdKE4yMylbQ0gyXVtDSDJdW0NIMl0z

> <s_epik_cmdline>
J2VwaWtfcHl0aG9uJywgJy1waCcsICc3LjAnLCAnLXRuJywgJzgnLCAnLW1hJywgJzIwMCcsICctbWV0YWxfYmluZGluZycsICctaW1hZScsICc8aW5maWxlLm1hZT4nLCAnLW9tYWUnLCAnPG91dGZpbGUubWFlPic=

> <r_epik_Ionization_Penalty>
0.111044

> <r_epik_Ionization_Penalty_Charging>
0.10673

> <r_epik_Ionization_Penalty_Neutral>
0.00431361

> <r_epik_State_Penalty>
0.0978747

> <r_epik_Charging_Adjusted_Penalty>
0.204605

> <i_epik_Tot_Q>
1

> <i_epik_Tot_abs_Q>
1

> <r_epik_Metal_State_Penalty>
0.0947591

> <b_epik_Metal_Only>
0

> <s_lp_Force_Field>
OPLS_2005

> <r_lp_Energy>
39.3215

> <b_lp_Chiralities_Consistent>
1

> <s_lp_Variant>
AV-unprocessed.smi:618-8

> <Gold.Version>
5.8.1

> <Gold.Id.Protein>
6NUR|6NUR_protein|mol2

> <Gold.PLP.Fitness>
50.5576

> <Gold.PLP.PLP>
-35.8693

> <Gold.PLP.part.hbond>
-4.4828

> <Gold.PLP.part.metal>
0.0000

> <Gold.PLP.part.buried>
-4.8440

> <Gold.PLP.part.nonpolar>
-27.4813

> <Gold.PLP.part.repulsive>
0.3106

> <Gold.PLP.ligand.clash>
0.0000

> <Gold.PLP.ligand.torsion>
0.1363

> <Gold.PLP.Chemscore.Hbond>
4.0000

> <Gold.PLP.Chemscore.CHOScore>
0.9867

> <Gold.PLP.Chemscore.Metal>
0.0000

> <Gold.PLP.Chemscore.Internal.Correction>
0.0010

> <Gold.Rescore>
     Score         DG    S(hbond)    S(metal)    S(lipo)     H(rot)  DE(clash)    DE(int)     intcor
     19.90     -21.35       2.55        0.00      90.49       1.27       0.13       1.31       ----

> <Gold.Chemscore.Fitness>
19.9014

> <Gold.Chemscore.DG>
-21.3498

> <Gold.Chemscore.ZeroCoef>
-5.4800

> <Gold.Chemscore.Hbond>
2.5515

> <Gold.Chemscore.Metal>
0.0000

> <Gold.Chemscore.Lipo>
90.4919

> <Gold.Chemscore.Internal_Hbond>
0.0000

> <Gold.Chemscore.DEClash>
0.1343

> <Gold.Chemscore.DEInternal>
1.3141

> <Gold.Chemscore.Rot>
1.2656

> <Gold.Chemscore.Internal.Correction>
   9.000000E+99

> <Gold.Chemscore.Hbond.Weighted>
-8.5221

> <Gold.Chemscore.Metal.Weighted>
-0.0000

> <Gold.Chemscore.Lipo.Weighted>
-10.5876

> <Gold.Chemscore.Internal_Hbond.Weighted>
0.0000

> <Gold.Chemscore.DEClash.Weighted>
0.1343

> <Gold.Chemscore.DEInternal.Weighted>
1.3141

> <Gold.Chemscore.Rot.Weighted>
3.2399

> <Gold.Chemscore.Internal.Correction.Weighted>
   9.000000E+99

> <Gold.Protein.RotatedTorsions>
[ 6907 6896 6895 6894 ] final   58.12 input  -60.11 | X-H torsion
[ 7974 7965 7964 7962 ] final  113.95 input  175.53 | X-H torsion
[ 8008 7997 7996 7995 ] final -131.92 input   59.86 | X-H torsion
[ 10167 10162 10161 10158 ] final  152.66 input  -65.29 | X-H torsion
[ 10718 10713 10712 10709 ] final  148.50 input   66.30 | X-H torsion
[ 10763 10752 10751 10750 ] final  -62.92 input  -60.55 | X-H torsion
[ 11005 11000 10999 10996 ] final   77.57 input  -57.11 | X-H torsion

> <Gold.Protein.ActiveResidues>
 VAL166  LYS551  ARG553  GLY616  TRP617  ASP618  TYR619  PRO620  LYS621  CYS622 
 ASP623  PHE694  ASN695  SER759  ASP760  ASP761  ALA762  ILE779  LEU786  VAL792 
 PHE793  MET794  SER795  GLU796  ALA797  LYS798  CYS799  TRP800  GLU811  SER814 

> <Gold.Protein.RotatedAtoms>
  152.3794  134.6613  160.0147 H   0  0  0  0  0  0  0  0  0  0  0  0  # atno 6907 bound_to 6896
  151.6881  133.3306  159.3244 H   0  0  0  0  0  0  0  0  0  0  0  0  # atno 6908 bound_to 6896
  150.7736  134.6658  159.6409 H   0  0  0  0  0  0  0  0  0  0  0  0  # atno 6909 bound_to 6896
  145.2105  139.2908  143.4271 H   0  0  0  0  0  0  0  0  0  0  0  0  # atno 7974 bound_to 7965
  155.3202  140.0462  157.3039 H   0  0  0  0  0  0  0  0  0  0  0  0  # atno 8008 bound_to 7997
  154.5384  140.2280  155.8649 H   0  0  0  0  0  0  0  0  0  0  0  0  # atno 8009 bound_to 7997
  156.1857  140.3063  155.9240 H   0  0  0  0  0  0  0  0  0  0  0  0  # atno 8010 bound_to 7997
  139.4831  144.5339  151.7678 H   0  0  0  0  0  0  0  0  0  0  0  0  # atno 10167 bound_to 10162
  157.3079  131.0882  151.1340 H   0  0  0  0  0  0  0  0  0  0  0  0  # atno 10718 bound_to 10713
  154.3072  135.6223  153.5450 H   0  0  0  0  0  0  0  0  0  0  0  0  # atno 10763 bound_to 10752
  152.9833  135.5692  154.5217 H   0  0  0  0  0  0  0  0  0  0  0  0  # atno 10764 bound_to 10752
  154.4860  135.2865  155.1510 H   0  0  0  0  0  0  0  0  0  0  0  0  # atno 10765 bound_to 10752
  139.9249  134.7694  156.1539 H   0  0  0  0  0  0  0  0  0  0  0  0  # atno 11005 bound_to 11000
  146.3398  140.2379  142.8595 LP  0  0  0  0  0  0  0  0  0  0  0  0  # atno 17320 bound_to 7965
  144.9860  140.8504  143.5368 LP  0  0  0  0  0  0  0  0  0  0  0  0  # atno 17321 bound_to 7965
  140.4868  144.1368  150.5942 LP  0  0  0  0  0  0  0  0  0  0  0  0  # atno 17342 bound_to 10162
  140.4216  143.2609  151.9709 LP  0  0  0  0  0  0  0  0  0  0  0  0  # atno 17343 bound_to 10162
  157.2673  130.6687  149.6003 LP  0  0  0  0  0  0  0  0  0  0  0  0  # atno 17370 bound_to 10713
  155.9675  130.4490  150.5641 LP  0  0  0  0  0  0  0  0  0  0  0  0  # atno 17371 bound_to 10713
  141.0798  133.6759  156.2313 LP  0  0  0  0  0  0  0  0  0  0  0  0  # atno 17394 bound_to 11000
  140.6366  134.5209  157.5565 LP  0  0  0  0  0  0  0  0  0  0  0  0  # atno 17395 bound_to 11000

$$$$
