AV-unprocessed.smi:1007|AV-procd|sdf|4403|dock9
  -GOLD-   22720 2343D 1   1.00000     0.00000
 Structure written by MMmdl.
 57 59  0  0  0  0  0  0  0  0  3 V2000
  150.8846  142.3546  157.0554 C   0  0  0  0  0  0  0  0  0  0  0  0
  150.3523  141.1490  156.5292 O   0  0  0  0  0  0  0  0  0  0  0  0
  150.5790  140.0112  157.3484 C   0  0  0  0  0  0  0  0  0  0  0  0
  149.6838  138.8301  156.9280 C   0  0  0  0  0  0  0  0  0  0  0  0
  150.0855  138.1671  155.6835 N   0  0  0  0  0  0  0  0  0  0  0  0
  149.1827  137.0820  155.3010 C   0  0  0  0  0  0  0  0  0  0  0  0
  147.8135  137.5774  154.7904 C   0  0  0  0  0  0  0  0  0  0  0  0
  147.9892  138.5077  153.6449 N   0  3  0  0  0  0  0  0  0  0  0  0
  146.6905  138.9553  153.0779 C   0  0  0  0  0  0  0  0  0  0  0  0
  146.0136  137.8818  152.2020 C   0  0  1  0  0  0  0  0  0  0  0  0
  146.9502  137.3945  151.2600 O   0  0  0  0  0  0  0  0  0  0  0  0
  145.4838  136.7026  153.0419 C   0  0  0  0  0  0  0  0  0  0  0  0
  144.8599  135.6570  152.2201 N   0  0  0  0  0  0  0  0  0  0  0  0
  143.7841  135.7187  151.3885 C   0  0  0  0  0  0  0  0  0  0  0  0
  143.5979  134.4750  150.8653 N   0  3  0  0  0  0  0  0  0  0  0  0
  144.5709  133.6076  151.3669 C   0  0  0  0  0  0  0  0  0  0  0  0
  144.7936  132.2554  151.1353 C   0  0  0  0  0  0  0  0  0  0  0  0
  145.8835  131.6567  151.8068 C   0  0  0  0  0  0  0  0  0  0  0  0
  146.1531  130.1790  151.5781 C   0  0  0  0  0  0  0  0  0  0  0  0
  146.7100  132.4137  152.6775 C   0  0  0  0  0  0  0  0  0  0  0  0
  147.8809  131.7601  153.3919 C   0  0  0  0  0  0  0  0  0  0  0  0
  146.4653  133.7875  152.9020 C   0  0  0  0  0  0  0  0  0  0  0  0
  145.3865  134.3608  152.2333 C   0  0  0  0  0  0  0  0  0  0  0  0
  148.9022  139.6236  154.0126 C   0  0  0  0  0  0  0  0  0  0  0  0
  150.2409  139.0675  154.5389 C   0  0  0  0  0  0  0  0  0  0  0  0
  150.6397  143.1810  156.3883 H   0  0  0  0  0  0  0  0  0  0  0  0
  151.9697  142.3143  157.1468 H   0  0  0  0  0  0  0  0  0  0  0  0
  150.4586  142.5797  158.0341 H   0  0  0  0  0  0  0  0  0  0  0  0
  151.6368  139.7469  157.3408 H   0  0  0  0  0  0  0  0  0  0  0  0
  150.3363  140.2951  158.3728 H   0  0  0  0  0  0  0  0  0  0  0  0
  149.7158  138.0973  157.7352 H   0  0  0  0  0  0  0  0  0  0  0  0
  148.6468  139.1553  156.8662 H   0  0  0  0  0  0  0  0  0  0  0  0
  149.6559  136.4870  154.5185 H   0  0  0  0  0  0  0  0  0  0  0  0
  149.0412  136.4034  156.1429 H   0  0  0  0  0  0  0  0  0  0  0  0
  147.2198  136.7190  154.4739 H   0  0  0  0  0  0  0  0  0  0  0  0
  147.2539  138.0687  155.5875 H   0  0  0  0  0  0  0  0  0  0  0  0
  146.0107  139.2198  153.8894 H   0  0  0  0  0  0  0  0  0  0  0  0
  146.8491  139.8698  152.5041 H   0  0  0  0  0  0  0  0  0  0  0  0
  145.1787  138.3150  151.6533 H   0  0  0  0  0  0  0  0  0  0  0  0
  147.4708  136.7198  151.6696 H   0  0  0  0  0  0  0  0  0  0  0  0
  146.2951  136.2388  153.6049 H   0  0  0  0  0  0  0  0  0  0  0  0
  144.7526  137.0422  153.7766 H   0  0  0  0  0  0  0  0  0  0  0  0
  143.1825  136.5927  151.1842 H   0  0  0  0  0  0  0  0  0  0  0  0
  144.1608  131.6852  150.4709 H   0  0  0  0  0  0  0  0  0  0  0  0
  146.0764  129.6270  152.5151 H   0  0  0  0  0  0  0  0  0  0  0  0
  147.1522  130.0301  151.1680 H   0  0  0  0  0  0  0  0  0  0  0  0
  145.4384  129.7465  150.8773 H   0  0  0  0  0  0  0  0  0  0  0  0
  148.4239  132.4777  154.0079 H   0  0  0  0  0  0  0  0  0  0  0  0
  148.5847  131.3416  152.6718 H   0  0  0  0  0  0  0  0  0  0  0  0
  147.5326  130.9582  154.0431 H   0  0  0  0  0  0  0  0  0  0  0  0
  147.0935  134.3629  153.5652 H   0  0  0  0  0  0  0  0  0  0  0  0
  149.1064  140.2485  153.1446 H   0  0  0  0  0  0  0  0  0  0  0  0
  148.4285  140.2675  154.7545 H   0  0  0  0  0  0  0  0  0  0  0  0
  150.9142  139.8875  154.7856 H   0  0  0  0  0  0  0  0  0  0  0  0
  150.7335  138.5254  153.7305 H   0  0  0  0  0  0  0  0  0  0  0  0
  148.4517  137.9765  152.9204 H   0  0  0  0  0  0  0  0  0  0  0  0
  142.8597  134.2384  150.2144 H   0  0  0  0  0  0  0  0  0  0  0  0
  1  2  1  0  0  0  0
  1 26  1  0  0  0  0
  1 27  1  0  0  0  0
  1 28  1  0  0  0  0
  2  3  1  0  0  0  0
  3  4  1  0  0  0  0
  3 29  1  0  0  0  0
  3 30  1  0  0  0  0
  4  5  1  0  0  0  0
  4 31  1  0  0  0  0
  4 32  1  0  0  0  0
  5 25  1  0  0  0  0
  5  6  1  0  0  0  0
  6  7  1  0  0  0  0
  6 33  1  0  0  0  0
  6 34  1  0  0  0  0
  7  8  1  0  0  0  0
  7 35  1  0  0  0  0
  7 36  1  0  0  0  0
  8  9  1  0  0  0  0
  8 24  1  0  0  0  0
  8 56  1  0  0  0  0
  9 10  1  0  0  0  0
  9 37  1  0  0  0  0
  9 38  1  0  0  0  0
 10 11  1  0  0  0  0
 10 12  1  0  0  0  0
 10 39  1  0  0  0  0
 11 40  1  0  0  0  0
 12 13  1  0  0  0  0
 12 41  1  0  0  0  0
 12 42  1  0  0  0  0
 13 23  1  0  0  0  0
 13 14  1  0  0  0  0
 14 15  2  0  0  0  0
 14 43  1  0  0  0  0
 15 16  1  0  0  0  0
 15 57  1  0  0  0  0
 16 23  2  0  0  0  0
 16 17  1  0  0  0  0
 17 18  2  0  0  0  0
 17 44  1  0  0  0  0
 18 19  1  0  0  0  0
 18 20  1  0  0  0  0
 19 45  1  0  0  0  0
 19 46  1  0  0  0  0
 19 47  1  0  0  0  0
 20 21  1  0  0  0  0
 20 22  2  0  0  0  0
 21 48  1  0  0  0  0
 21 49  1  0  0  0  0
 21 50  1  0  0  0  0
 22 23  1  0  0  0  0
 22 51  1  0  0  0  0
 24 25  1  0  0  0  0
 24 52  1  0  0  0  0
 24 53  1  0  0  0  0
 25 54  1  0  0  0  0
 25 55  1  0  0  0  0
M  CHG  1   8   1
M  CHG  1  15   1
M  END
> <s_m_source_file>
AV-unprocessed.smi

> <i_m_source_file_index>
1007

> <i_lp_mmshare_version>
43012

> <i_f3d_flags>
0

> <s_epik_input>
W0NIM11PW0NIMl1bQ0gyXU4xW0NIMl1bQ0gyXU4oW0NIMl1bQ0gyXTEpW0NIMl1bQ0BIXShbT0hdKVtDSDJdbihbY0hdbjIpYyhjMjMpW2NIXWMoW0NIM10pYyhbY0hdMylbQ0gzXQ==

> <s_epik_cmdline>
J2VwaWtfcHl0aG9uJywgJy1waCcsICc3LjAnLCAnLXRuJywgJzgnLCAnLW1hJywgJzIwMCcsICctbWV0YWxfYmluZGluZycsICctaW1hZScsICc8aW5maWxlLm1hZT4nLCAnLW9tYWUnLCAnPG91dGZpbGUubWFlPic=

> <r_epik_Ionization_Penalty>
1.19231

> <r_epik_Ionization_Penalty_Charging>
1.17974

> <r_epik_Ionization_Penalty_Neutral>
0.0125676

> <r_epik_State_Penalty>
1.24499

> <r_epik_Charging_Adjusted_Penalty>
2.42472

> <i_epik_Tot_Q>
2

> <i_epik_Tot_abs_Q>
2

> <r_epik_Metal_State_Penalty>
5.24866

> <b_epik_Metal_Only>
0

> <s_lp_Force_Field>
OPLS_2005

> <r_lp_Energy>
41.9182

> <b_lp_Chiralities_Consistent>
1

> <s_lp_Variant>
AV-unprocessed.smi:1007-6

> <Gold.Version>
5.8.1

> <Gold.Id.Protein>
6NUR|6NUR_protein|mol2

> <Gold.PLP.Fitness>
57.0532

> <Gold.PLP.PLP>
-37.5891

> <Gold.PLP.part.hbond>
-3.7297

> <Gold.PLP.part.metal>
0.0000

> <Gold.PLP.part.buried>
-3.6066

> <Gold.PLP.part.nonpolar>
-32.4153

> <Gold.PLP.part.repulsive>
0.1303

> <Gold.PLP.ligand.clash>
0.0000

> <Gold.PLP.ligand.torsion>
0.3524

> <Gold.PLP.Chemscore.Hbond>
5.7223

> <Gold.PLP.Chemscore.CHOScore>
0.9410

> <Gold.PLP.Chemscore.Metal>
0.0000

> <Gold.Chemscore.Hbonds>
donor molecule, donor type, donor heavy atom, donor atom, acceptor molecule, acceptor atom, score
      L1  H     8    56       P1  7948  1.76
      L1  H    11    40       P1  7948  0.83
      L1  H    15    57       P1 10186  2.00
      P1  H  7954  7966       L1    11  0.85
      L1  C    14    43       P1 10171  0.94

> <Gold.PLP.Chemscore.Internal.Correction>
0.1791

> <Gold.Rescore>
     Score         DG    S(hbond)    S(metal)    S(lipo)     H(rot)  DE(clash)    DE(int)     intcor
     17.21     -19.75       2.94        0.00      95.75       2.64       0.11       2.43       ----

> <Gold.Chemscore.Fitness>
17.2070

> <Gold.Chemscore.DG>
-19.7504

> <Gold.Chemscore.ZeroCoef>
-5.4800

> <Gold.Chemscore.Hbond>
2.9443

> <Gold.Chemscore.Metal>
0.0000

> <Gold.Chemscore.Lipo>
95.7510

> <Gold.Chemscore.Internal_Hbond>
0.0000

> <Gold.Chemscore.DEClash>
0.1124

> <Gold.Chemscore.DEInternal>
2.4310

> <Gold.Chemscore.Rot>
2.6432

> <Gold.Chemscore.Internal.Correction>
   9.000000E+99

> <Gold.Chemscore.Hbonds>
donor molecule, donor type, donor heavy atom, donor atom, acceptor molecule, acceptor atom, score
      L1  H     8    56       P1  7948  0.83
      L1  H    11    40       P1  7948  0.77
      L1  H    15    57       P1 10186  0.85
      P1  H  7954  7966       L1    11  0.15

> <Gold.Chemscore.Hbond.Weighted>
-9.8341

> <Gold.Chemscore.Metal.Weighted>
-0.0000

> <Gold.Chemscore.Lipo.Weighted>
-11.2029

> <Gold.Chemscore.Internal_Hbond.Weighted>
0.0000

> <Gold.Chemscore.DEClash.Weighted>
0.1124

> <Gold.Chemscore.DEInternal.Weighted>
2.4310

> <Gold.Chemscore.Rot.Weighted>
6.7665

> <Gold.Chemscore.Internal.Correction.Weighted>
   9.000000E+99

> <Gold.Protein.RotatedTorsions>
[ 6907 6896 6895 6894 ] final -103.30 input  -60.11 | X-H torsion
[ 7974 7965 7964 7962 ] final  -83.05 input  175.53 | X-H torsion
[ 8008 7997 7996 7995 ] final -172.10 input   59.86 | X-H torsion
[ 10167 10162 10161 10158 ] final  -95.93 input  -65.29 | X-H torsion
[ 10718 10713 10712 10709 ] final  159.73 input   66.30 | X-H torsion
[ 10763 10752 10751 10750 ] final  170.30 input  -60.55 | X-H torsion
[ 11005 11000 10999 10996 ] final -142.09 input  -57.11 | X-H torsion

> <Gold.Protein.ActiveResidues>
 VAL166  LYS551  ARG553  GLY616  TRP617  ASP618  TYR619  PRO620  LYS621  CYS622 
 ASP623  PHE694  ASN695  SER759  ASP760  ASP761  ALA762  ILE779  LEU786  VAL792 
 PHE793  MET794  SER795  GLU796  ALA797  LYS798  CYS799  TRP800  GLU811  SER814 

> <Gold.Protein.RotatedAtoms>
  150.7234  134.0450  159.3778 H   0  0  0  0  0  0  0  0  0  0  0  0  # atno 6907 bound_to 6896
  151.8425  135.0583  160.0459 H   0  0  0  0  0  0  0  0  0  0  0  0  # atno 6908 bound_to 6896
  152.2852  133.5472  159.5559 H   0  0  0  0  0  0  0  0  0  0  0  0  # atno 6909 bound_to 6896
  145.5251  140.9527  143.1634 H   0  0  0  0  0  0  0  0  0  0  0  0  # atno 7974 bound_to 7965
  155.9402  140.1107  157.1062 H   0  0  0  0  0  0  0  0  0  0  0  0  # atno 8008 bound_to 7997
  154.4088  140.1220  156.4983 H   0  0  0  0  0  0  0  0  0  0  0  0  # atno 8009 bound_to 7997
  155.6971  140.3472  155.4920 H   0  0  0  0  0  0  0  0  0  0  0  0  # atno 8010 bound_to 7997
  140.2991  143.3174  152.0267 H   0  0  0  0  0  0  0  0  0  0  0  0  # atno 10167 bound_to 10162
  157.1602  131.0585  151.2236 H   0  0  0  0  0  0  0  0  0  0  0  0  # atno 10718 bound_to 10713
  154.3956  135.2754  155.2128 H   0  0  0  0  0  0  0  0  0  0  0  0  # atno 10763 bound_to 10752
  154.4175  135.6008  153.5993 H   0  0  0  0  0  0  0  0  0  0  0  0  # atno 10764 bound_to 10752
  152.9831  135.5964  154.4217 H   0  0  0  0  0  0  0  0  0  0  0  0  # atno 10765 bound_to 10752
  140.8259  134.2575  157.4879 H   0  0  0  0  0  0  0  0  0  0  0  0  # atno 11005 bound_to 11000
  144.7655  139.6855  143.7216 LP  0  0  0  0  0  0  0  0  0  0  0  0  # atno 17320 bound_to 7965
  146.2081  139.5418  142.9699 LP  0  0  0  0  0  0  0  0  0  0  0  0  # atno 17321 bound_to 7965
  139.4919  144.6469  151.6759 LP  0  0  0  0  0  0  0  0  0  0  0  0  # atno 17342 bound_to 10162
  140.5667  144.0178  150.6196 LP  0  0  0  0  0  0  0  0  0  0  0  0  # atno 17343 bound_to 10162
  157.4140  130.7401  149.6861 LP  0  0  0  0  0  0  0  0  0  0  0  0  # atno 17370 bound_to 10713
  155.9755  130.4088  150.3844 LP  0  0  0  0  0  0  0  0  0  0  0  0  # atno 17371 bound_to 10713
  139.8706  134.9560  156.4225 LP  0  0  0  0  0  0  0  0  0  0  0  0  # atno 17394 bound_to 11000
  140.9049  133.7753  155.9724 LP  0  0  0  0  0  0  0  0  0  0  0  0  # atno 17395 bound_to 11000

$$$$
