AV-unprocessed.smi:2127|AV-procd|sdf|8680|dock1
  -GOLD-   2272011433D 1   1.00000     0.00000
 Structure written by MMmdl.
 34 35  0  0  0  0  0  0  0  0  1 V2000
  150.1796  141.2161  157.7604 O   0  0  0  0  0  0  0  0  0  0  0  0
  149.8816  142.2447  157.1549 C   0  0  0  0  0  0  0  0  0  0  0  0
  150.2046  143.4964  157.5250 N   0  0  0  0  0  0  0  0  0  0  0  0
  150.9411  143.9492  158.6554 C   0  0  0  0  0  0  0  0  0  0  0  0
  151.8325  143.1555  159.4193 C   0  0  0  0  0  0  0  0  0  0  0  0
  152.4950  143.7402  160.5160 C   0  0  0  0  0  0  0  0  0  0  0  0
  152.2456  145.0943  160.8104 C   0  0  0  0  0  0  0  0  0  0  0  0
  151.4009  145.8630  160.0923 N   0  0  0  0  0  0  0  0  0  0  0  0
  150.7692  145.2955  159.0428 C   0  0  0  0  0  0  0  0  0  0  0  0
  149.1733  142.2499  156.0161 N   0  0  0  0  0  0  0  0  0  0  0  0
  148.6780  141.0668  155.3099 C   0  0  1  0  0  0  0  0  0  0  0  0
  147.8077  141.4906  154.1054 C   0  0  0  0  0  0  0  0  0  0  0  0
  146.8192  140.4105  153.6373 C   0  0  0  0  0  0  0  0  0  0  0  0
  147.4706  139.1206  153.1165 C   0  0  0  0  0  0  0  0  0  0  0  0
  148.2435  138.3391  154.1929 C   0  0  0  0  0  0  0  0  0  0  0  0
  149.5610  138.9035  154.4579 N   0  0  0  0  0  0  0  0  0  0  0  0
  149.8389  140.1210  154.9489 C   0  0  0  0  0  0  0  0  0  0  0  0
  151.0062  140.4804  155.1023 O   0  0  0  0  0  0  0  0  0  0  0  0
  149.8762  144.2287  156.9126 H   0  0  0  0  0  0  0  0  0  0  0  0
  152.0281  142.1193  159.1976 H   0  0  0  0  0  0  0  0  0  0  0  0
  153.1801  143.1624  161.1187 H   0  0  0  0  0  0  0  0  0  0  0  0
  152.7374  145.5722  161.6447 H   0  0  0  0  0  0  0  0  0  0  0  0
  150.1011  145.9419  158.4922 H   0  0  0  0  0  0  0  0  0  0  0  0
  148.9776  143.1409  155.5831 H   0  0  0  0  0  0  0  0  0  0  0  0
  148.0487  140.5194  156.0143 H   0  0  0  0  0  0  0  0  0  0  0  0
  147.2209  142.3711  154.3709 H   0  0  0  0  0  0  0  0  0  0  0  0
  148.4432  141.8010  153.2749 H   0  0  0  0  0  0  0  0  0  0  0  0
  146.1324  140.1693  154.4496 H   0  0  0  0  0  0  0  0  0  0  0  0
  146.2011  140.8301  152.8428 H   0  0  0  0  0  0  0  0  0  0  0  0
  146.6787  138.4774  152.7311 H   0  0  0  0  0  0  0  0  0  0  0  0
  148.1181  139.3384  152.2661 H   0  0  0  0  0  0  0  0  0  0  0  0
  147.6680  138.2639  155.1166 H   0  0  0  0  0  0  0  0  0  0  0  0
  148.4001  137.3172  153.8470 H   0  0  0  0  0  0  0  0  0  0  0  0
  150.3484  138.3110  154.2365 H   0  0  0  0  0  0  0  0  0  0  0  0
  1  2  2  0  0  0  0
  2  3  1  0  0  0  0
  2 10  1  0  0  0  0
  3  4  1  0  0  0  0
  3 19  1  0  0  0  0
  4  9  1  0  0  0  0
  4  5  2  0  0  0  0
  5  6  1  0  0  0  0
  5 20  1  0  0  0  0
  6  7  2  0  0  0  0
  6 21  1  0  0  0  0
  7  8  1  0  0  0  0
  7 22  1  0  0  0  0
  8  9  2  0  0  0  0
  9 23  1  0  0  0  0
 10 11  1  0  0  0  0
 10 24  1  0  0  0  0
 11 17  1  0  0  0  0
 11 12  1  0  0  0  0
 11 25  1  0  0  0  0
 12 13  1  0  0  0  0
 12 26  1  0  0  0  0
 12 27  1  0  0  0  0
 13 14  1  0  0  0  0
 13 28  1  0  0  0  0
 13 29  1  0  0  0  0
 14 15  1  0  0  0  0
 14 30  1  0  0  0  0
 14 31  1  0  0  0  0
 15 16  1  0  0  0  0
 15 32  1  0  0  0  0
 15 33  1  0  0  0  0
 16 17  1  0  0  0  0
 16 34  1  0  0  0  0
 17 18  2  0  0  0  0
M  END
> <s_m_source_file>
AV-unprocessed.smi

> <i_m_source_file_index>
2127

> <i_lp_mmshare_version>
43012

> <i_f3d_flags>
0

> <s_epik_input>
W2NIXTFuW2NIXVtjSF1bY0hdYzFbTkhdQyg9TylbTkhdW0NAQEhdMltDSDJdW0NIMl1bQ0gyXVtDSDJdW05IXUMyPU8=

> <s_epik_cmdline>
J2VwaWtfcHl0aG9uJywgJy1waCcsICc3LjAnLCAnLXRuJywgJzgnLCAnLW1hJywgJzIwMCcsICctbWV0YWxfYmluZGluZycsICctaW1hZScsICc8aW5maWxlLm1hZT4nLCAnLW9tYWUnLCAnPG91dGZpbGUubWFlPic=

> <r_epik_Ionization_Penalty>
0.00420494

> <r_epik_Ionization_Penalty_Charging>
0

> <r_epik_Ionization_Penalty_Neutral>
0.00420494

> <r_epik_State_Penalty>
0.0029968

> <r_epik_Charging_Adjusted_Penalty>
0.0029968

> <i_epik_Tot_Q>
0

> <i_epik_Tot_abs_Q>
0

> <r_epik_Metal_State_Penalty>
-0

> <b_epik_Metal_Only>
0

> <s_lp_Force_Field>
OPLS_2005

> <r_lp_Energy>
13.2034

> <b_lp_Chiralities_Consistent>
1

> <s_lp_Variant>
AV-unprocessed.smi:2127-2

> <Gold.Version>
5.8.1

> <Gold.Id.Protein>
6NUR|6NUR_protein|mol2

> <Gold.PLP.Fitness>
43.3697

> <Gold.PLP.PLP>
-31.5521

> <Gold.PLP.part.hbond>
-4.2349

> <Gold.PLP.part.metal>
0.0000

> <Gold.PLP.part.buried>
-3.1919

> <Gold.PLP.part.nonpolar>
-25.3661

> <Gold.PLP.part.repulsive>
0.4761

> <Gold.PLP.ligand.clash>
0.0000

> <Gold.PLP.ligand.torsion>
0.1049

> <Gold.PLP.Chemscore.Hbond>
3.0000

> <Gold.PLP.Chemscore.CHOScore>
1.0000

> <Gold.PLP.Chemscore.Metal>
0.0000

> <Gold.Chemscore.Hbonds>
donor molecule, donor type, donor heavy atom, donor atom, acceptor molecule, acceptor atom, score
      L1  H     3    19       P1  8028  1.00
      L1  H    10    24       P1  8028  1.00
      P1  H  7989  7998       L1    18  1.00
      L1  C     9    23       P1  8029  1.00

> <Gold.PLP.Chemscore.Internal.Correction>
0.0274

> <Gold.Rescore>
     Score         DG    S(hbond)    S(metal)    S(lipo)     H(rot)  DE(clash)    DE(int)     intcor
     20.88     -21.94       2.78        0.00      83.35       1.00       0.11       0.95       ----

> <Gold.Chemscore.Fitness>
20.8835

> <Gold.Chemscore.DG>
-21.9437

> <Gold.Chemscore.ZeroCoef>
-5.4800

> <Gold.Chemscore.Hbond>
2.7760

> <Gold.Chemscore.Metal>
0.0000

> <Gold.Chemscore.Lipo>
83.3489

> <Gold.Chemscore.Internal_Hbond>
0.0000

> <Gold.Chemscore.DEClash>
0.1067

> <Gold.Chemscore.DEInternal>
0.9535

> <Gold.Chemscore.Rot>
1.0000

> <Gold.Chemscore.Internal.Correction>
   9.000000E+99

> <Gold.Chemscore.Hbonds>
donor molecule, donor type, donor heavy atom, donor atom, acceptor molecule, acceptor atom, score
      L1  H     3    19       P1  8028  0.78
      L1  H    10    24       P1  8028  0.93
      P1  H  7989  7998       L1    18  0.58

> <Gold.Chemscore.Hbond.Weighted>
-9.2718

> <Gold.Chemscore.Metal.Weighted>
-0.0000

> <Gold.Chemscore.Lipo.Weighted>
-9.7518

> <Gold.Chemscore.Internal_Hbond.Weighted>
0.0000

> <Gold.Chemscore.DEClash.Weighted>
0.1067

> <Gold.Chemscore.DEInternal.Weighted>
0.9535

> <Gold.Chemscore.Rot.Weighted>
2.5600

> <Gold.Chemscore.Internal.Correction.Weighted>
   9.000000E+99

> <Gold.Protein.RotatedTorsions>
[ 6907 6896 6895 6894 ] final  129.53 input  -60.11 | X-H torsion
[ 7974 7965 7964 7962 ] final   65.73 input  175.53 | X-H torsion
[ 8008 7997 7996 7995 ] final   79.39 input   59.86 | X-H torsion
[ 10167 10162 10161 10158 ] final  131.39 input  -65.29 | X-H torsion
[ 10718 10713 10712 10709 ] final  -56.08 input   66.30 | X-H torsion
[ 10763 10752 10751 10750 ] final  -38.54 input  -60.55 | X-H torsion
[ 11005 11000 10999 10996 ] final  116.82 input  -57.11 | X-H torsion

> <Gold.Protein.ActiveResidues>
 VAL166  LYS551  ARG553  GLY616  TRP617  ASP618  TYR619  PRO620  LYS621  CYS622 
 ASP623  PHE694  ASN695  SER759  ASP760  ASP761  ALA762  ILE779  LEU786  VAL792 
 PHE793  MET794  SER795  GLU796  ALA797  LYS798  CYS799  TRP800  GLU811  SER814 

> <Gold.Protein.RotatedAtoms>
  152.3615  133.6302  159.6018 H   0  0  0  0  0  0  0  0  0  0  0  0  # atno 6907 bound_to 6896
  150.7604  133.9416  159.3467 H   0  0  0  0  0  0  0  0  0  0  0  0  # atno 6908 bound_to 6896
  151.7254  135.0887  160.0342 H   0  0  0  0  0  0  0  0  0  0  0  0  # atno 6909 bound_to 6896
  145.8350  139.3161  143.0965 H   0  0  0  0  0  0  0  0  0  0  0  0  # atno 7974 bound_to 7965
  155.8691  140.3450  155.5808 H   0  0  0  0  0  0  0  0  0  0  0  0  # atno 8008 bound_to 7997
  155.7848  140.0863  157.2059 H   0  0  0  0  0  0  0  0  0  0  0  0  # atno 8009 bound_to 7997
  154.4016  140.1494  156.3081 H   0  0  0  0  0  0  0  0  0  0  0  0  # atno 8010 bound_to 7997
  139.5386  144.6708  151.4701 H   0  0  0  0  0  0  0  0  0  0  0  0  # atno 10167 bound_to 10162
  156.1317  130.4159  150.0257 H   0  0  0  0  0  0  0  0  0  0  0  0  # atno 10718 bound_to 10713
  153.9145  135.6789  153.4750 H   0  0  0  0  0  0  0  0  0  0  0  0  # atno 10763 bound_to 10752
  153.1061  135.4805  154.8950 H   0  0  0  0  0  0  0  0  0  0  0  0  # atno 10764 bound_to 10752
  154.7510  135.3185  154.8514 H   0  0  0  0  0  0  0  0  0  0  0  0  # atno 10765 bound_to 10752
  139.9054  134.9603  156.7256 H   0  0  0  0  0  0  0  0  0  0  0  0  # atno 11005 bound_to 11000
  145.9528  140.8895  143.0250 LP  0  0  0  0  0  0  0  0  0  0  0  0  # atno 17320 bound_to 7965
  144.6737  140.1704  143.7415 LP  0  0  0  0  0  0  0  0  0  0  0  0  # atno 17321 bound_to 7965
  140.6605  143.8508  150.6883 LP  0  0  0  0  0  0  0  0  0  0  0  0  # atno 17342 bound_to 10162
  140.1901  143.4043  152.1869 LP  0  0  0  0  0  0  0  0  0  0  0  0  # atno 17343 bound_to 10162
  156.8167  130.9344  151.3642 LP  0  0  0  0  0  0  0  0  0  0  0  0  # atno 17370 bound_to 10713
  157.6494  130.8872  149.9603 LP  0  0  0  0  0  0  0  0  0  0  0  0  # atno 17371 bound_to 10713
  140.6966  133.9343  155.7998 LP  0  0  0  0  0  0  0  0  0  0  0  0  # atno 17394 bound_to 11000
  141.0403  134.0631  157.3910 LP  0  0  0  0  0  0  0  0  0  0  0  0  # atno 17395 bound_to 11000

$$$$
