AV-unprocessed.smi:2972|AV-procd|sdf|11336|dock1
  -GOLD-   2272016243D 1   1.00000     0.00000
 Structure written by MMmdl.
 33 34  0  0  0  0  0  0  0  0  1 V2000
  150.7080  140.6926  156.4271 O   0  0  0  0  0  0  0  0  0  0  0  0
  150.1325  141.7566  156.1963 C   0  0  0  0  0  0  0  0  0  0  0  0
  149.1015  141.9154  155.3475 N   0  0  0  0  0  0  0  0  0  0  0  0
  148.4619  140.9303  154.5486 C   0  0  0  0  0  0  0  0  0  0  0  0
  147.5072  141.4298  153.6339 C   0  0  0  0  0  0  0  0  0  0  0  0
  146.8165  140.5341  152.7943 C   0  0  0  0  0  0  0  0  0  0  0  0
  147.0998  139.1601  152.8930 C   0  0  0  0  0  0  0  0  0  0  0  0
  146.2861  138.0145  151.8919 Cl  0  0  0  0  0  0  0  0  0  0  0  0
  148.0643  138.7447  153.8297 C   0  0  0  0  0  0  0  0  0  0  0  0
  148.7270  139.6024  154.6345 N   0  0  0  0  0  0  0  0  0  0  0  0
  150.4665  142.9191  156.7760 N   0  0  0  0  0  0  0  0  0  0  0  0
  151.5431  143.0995  157.7458 C   0  0  0  0  0  0  0  0  0  0  0  0
  151.4878  142.0043  158.8313 C   0  0  0  0  0  0  0  0  0  0  0  0
  152.5659  142.2221  159.9054 C   0  0  0  0  0  0  0  0  0  0  0  0
  152.4577  143.6222  160.5295 C   0  0  0  0  0  0  0  0  0  0  0  0
  152.5183  144.7156  159.4514 C   0  0  0  0  0  0  0  0  0  0  0  0
  151.4392  144.5007  158.3777 C   0  0  0  0  0  0  0  0  0  0  0  0
  148.7311  142.8502  155.2629 H   0  0  0  0  0  0  0  0  0  0  0  0
  147.3023  142.4888  153.5723 H   0  0  0  0  0  0  0  0  0  0  0  0
  146.0837  140.8972  152.0890 H   0  0  0  0  0  0  0  0  0  0  0  0
  148.3117  137.6989  153.9375 H   0  0  0  0  0  0  0  0  0  0  0  0
  149.9385  143.7429  156.5279 H   0  0  0  0  0  0  0  0  0  0  0  0
  152.5018  143.0338  157.2271 H   0  0  0  0  0  0  0  0  0  0  0  0
  150.5039  142.0009  159.3029 H   0  0  0  0  0  0  0  0  0  0  0  0
  151.6172  141.0193  158.3813 H   0  0  0  0  0  0  0  0  0  0  0  0
  152.4763  141.4610  160.6812 H   0  0  0  0  0  0  0  0  0  0  0  0
  153.5538  142.0952  159.4607 H   0  0  0  0  0  0  0  0  0  0  0  0
  151.5210  143.7048  161.0822 H   0  0  0  0  0  0  0  0  0  0  0  0
  153.2589  143.7696  161.2543 H   0  0  0  0  0  0  0  0  0  0  0  0
  152.3955  145.6972  159.9100 H   0  0  0  0  0  0  0  0  0  0  0  0
  153.5038  144.7137  158.9839 H   0  0  0  0  0  0  0  0  0  0  0  0
  151.5323  145.2667  157.6069 H   0  0  0  0  0  0  0  0  0  0  0  0
  150.4536  144.6324  158.8268 H   0  0  0  0  0  0  0  0  0  0  0  0
  1  2  2  0  0  0  0
  2  3  1  0  0  0  0
  2 11  1  0  0  0  0
  3  4  1  0  0  0  0
  3 18  1  0  0  0  0
  4 10  1  0  0  0  0
  4  5  2  0  0  0  0
  5  6  1  0  0  0  0
  5 19  1  0  0  0  0
  6  7  2  0  0  0  0
  6 20  1  0  0  0  0
  7  8  1  0  0  0  0
  7  9  1  0  0  0  0
  9 10  2  0  0  0  0
  9 21  1  0  0  0  0
 11 12  1  0  0  0  0
 11 22  1  0  0  0  0
 12 17  1  0  0  0  0
 12 13  1  0  0  0  0
 12 23  1  0  0  0  0
 13 14  1  0  0  0  0
 13 24  1  0  0  0  0
 13 25  1  0  0  0  0
 14 15  1  0  0  0  0
 14 26  1  0  0  0  0
 14 27  1  0  0  0  0
 15 16  1  0  0  0  0
 15 28  1  0  0  0  0
 15 29  1  0  0  0  0
 16 17  1  0  0  0  0
 16 30  1  0  0  0  0
 16 31  1  0  0  0  0
 17 32  1  0  0  0  0
 17 33  1  0  0  0  0
M  END
> <s_m_source_file>
AV-unprocessed.smi

> <i_m_source_file_index>
2972

> <i_lp_mmshare_version>
43012

> <i_f3d_flags>
0

> <s_epik_input>
W0NIMl0xW0NIMl1bQ0gyXVtDSDJdW0NIMl1bQ0hdMVtOSF1DKD1PKVtOSF1jMltjSF1bY0hdYyhDbClbY0hdbjI=

> <s_epik_cmdline>
J2VwaWtfcHl0aG9uJywgJy1waCcsICc3LjAnLCAnLXRuJywgJzgnLCAnLW1hJywgJzIwMCcsICctbWV0YWxfYmluZGluZycsICctaW1hZScsICc8aW5maWxlLm1hZT4nLCAnLW9tYWUnLCAnPG91dGZpbGUubWFlPic=

> <r_lp_tautomer_probability>
1

> <r_epik_Ionization_Penalty>
4.0409e-05

> <r_epik_Ionization_Penalty_Charging>
0

> <r_epik_Ionization_Penalty_Neutral>
4.0409e-05

> <r_epik_State_Penalty>
-0

> <r_epik_Charging_Adjusted_Penalty>
0

> <i_epik_Tot_Q>
0

> <i_epik_Tot_abs_Q>
0

> <r_epik_Metal_State_Penalty>
-0

> <b_epik_Metal_Only>
0

> <s_lp_Force_Field>
OPLS_2005

> <r_lp_Energy>
12.1461

> <b_lp_Chiralities_Consistent>
1

> <s_lp_Variant>
AV-unprocessed.smi:2972-1

> <Gold.Version>
5.8.1

> <Gold.Id.Protein>
6NUR|6NUR_protein|mol2

> <Gold.PLP.Fitness>
46.3003

> <Gold.PLP.PLP>
-37.9119

> <Gold.PLP.part.hbond>
-2.0000

> <Gold.PLP.part.metal>
0.0000

> <Gold.PLP.part.buried>
-1.7211

> <Gold.PLP.part.nonpolar>
-34.8758

> <Gold.PLP.part.repulsive>
0.3286

> <Gold.PLP.ligand.clash>
0.0000

> <Gold.PLP.ligand.torsion>
0.1434

> <Gold.PLP.Chemscore.Hbond>
2.0000

> <Gold.PLP.Chemscore.CHOScore>
0.8906

> <Gold.PLP.Chemscore.Metal>
0.0000

> <Gold.Chemscore.Hbonds>
donor molecule, donor type, donor heavy atom, donor atom, acceptor molecule, acceptor atom, score
      L1  H     3    18       P1  8028  1.00
      L1  H    11    22       P1  8028  1.00
      L1  C     9    21       P1  7948  0.65

> <Gold.PLP.Chemscore.Internal.Correction>
0.0035

> <Gold.Rescore>
     Score         DG    S(hbond)    S(metal)    S(lipo)     H(rot)  DE(clash)    DE(int)     intcor
     19.29     -21.82       1.94        0.00     106.03       1.00       0.26       2.26       ----

> <Gold.Chemscore.Fitness>
19.2896

> <Gold.Chemscore.DG>
-21.8160

> <Gold.Chemscore.ZeroCoef>
-5.4800

> <Gold.Chemscore.Hbond>
1.9431

> <Gold.Chemscore.Metal>
0.0000

> <Gold.Chemscore.Lipo>
106.0346

> <Gold.Chemscore.Internal_Hbond>
0.0000

> <Gold.Chemscore.DEClash>
0.2644

> <Gold.Chemscore.DEInternal>
2.2620

> <Gold.Chemscore.Rot>
1.0000

> <Gold.Chemscore.Internal.Correction>
   9.000000E+99

> <Gold.Chemscore.Hbonds>
donor molecule, donor type, donor heavy atom, donor atom, acceptor molecule, acceptor atom, score
      L1  H     3    18       P1  8028  0.94
      L1  H    11    22       P1  8028  0.99

> <Gold.Chemscore.Hbond.Weighted>
-6.4900

> <Gold.Chemscore.Metal.Weighted>
-0.0000

> <Gold.Chemscore.Lipo.Weighted>
-12.4061

> <Gold.Chemscore.Internal_Hbond.Weighted>
0.0000

> <Gold.Chemscore.DEClash.Weighted>
0.2644

> <Gold.Chemscore.DEInternal.Weighted>
2.2620

> <Gold.Chemscore.Rot.Weighted>
2.5600

> <Gold.Chemscore.Internal.Correction.Weighted>
   9.000000E+99

> <Gold.Protein.RotatedTorsions>
[ 6907 6896 6895 6894 ] final -104.33 input  -60.11 | X-H torsion
[ 7974 7965 7964 7962 ] final  -81.08 input  175.53 | X-H torsion
[ 8008 7997 7996 7995 ] final  164.67 input   59.86 | X-H torsion
[ 10167 10162 10161 10158 ] final  -25.85 input  -65.29 | X-H torsion
[ 10718 10713 10712 10709 ] final   96.07 input   66.30 | X-H torsion
[ 10763 10752 10751 10750 ] final  100.08 input  -60.55 | X-H torsion
[ 11005 11000 10999 10996 ] final  -25.03 input  -57.11 | X-H torsion

> <Gold.Protein.ActiveResidues>
 VAL166  LYS551  ARG553  GLY616  TRP617  ASP618  TYR619  PRO620  LYS621  CYS622 
 ASP623  PHE694  ASN695  SER759  ASP760  ASP761  ALA762  ILE779  LEU786  VAL792 
 PHE793  MET794  SER795  GLU796  ALA797  LYS798  CYS799  TRP800  GLU811  SER814 

> <Gold.Protein.RotatedAtoms>
  150.7282  134.0295  159.3728 H   0  0  0  0  0  0  0  0  0  0  0  0  # atno 6907 bound_to 6896
  151.8263  135.0633  160.0440 H   0  0  0  0  0  0  0  0  0  0  0  0  # atno 6908 bound_to 6896
  152.2966  133.5578  159.5628 H   0  0  0  0  0  0  0  0  0  0  0  0  # atno 6909 bound_to 6896
  145.5514  140.9496  143.1497 H   0  0  0  0  0  0  0  0  0  0  0  0  # atno 7974 bound_to 7965
  156.1862  140.1690  156.8181 H   0  0  0  0  0  0  0  0  0  0  0  0  # atno 8008 bound_to 7997
  154.5417  140.0735  156.8553 H   0  0  0  0  0  0  0  0  0  0  0  0  # atno 8009 bound_to 7997
  155.3202  140.3373  155.4244 H   0  0  0  0  0  0  0  0  0  0  0  0  # atno 8010 bound_to 7997
  140.7285  143.4229  151.0923 H   0  0  0  0  0  0  0  0  0  0  0  0  # atno 10167 bound_to 10162
  157.6931  131.0566  150.4435 H   0  0  0  0  0  0  0  0  0  0  0  0  # atno 10718 bound_to 10713
  153.3095  135.4091  155.1323 H   0  0  0  0  0  0  0  0  0  0  0  0  # atno 10763 bound_to 10752
  154.8572  135.3561  154.5743 H   0  0  0  0  0  0  0  0  0  0  0  0  # atno 10764 bound_to 10752
  153.6171  135.7066  153.5383 H   0  0  0  0  0  0  0  0  0  0  0  0  # atno 10765 bound_to 10752
  140.8900  133.7594  156.0409 H   0  0  0  0  0  0  0  0  0  0  0  0  # atno 11005 bound_to 11000
  144.7527  139.7152  143.7266 LP  0  0  0  0  0  0  0  0  0  0  0  0  # atno 17320 bound_to 7965
  146.1914  139.5156  142.9802 LP  0  0  0  0  0  0  0  0  0  0  0  0  # atno 17321 bound_to 7965
  139.7877  143.8264  152.3147 LP  0  0  0  0  0  0  0  0  0  0  0  0  # atno 17342 bound_to 10162
  139.8237  144.7284  150.9540 LP  0  0  0  0  0  0  0  0  0  0  0  0  # atno 17343 bound_to 10162
  156.4791  130.4070  149.6472 LP  0  0  0  0  0  0  0  0  0  0  0  0  # atno 17370 bound_to 10713
  156.3524  130.7439  151.2400 LP  0  0  0  0  0  0  0  0  0  0  0  0  # atno 17371 bound_to 10713
  140.8358  134.3125  157.5332 LP  0  0  0  0  0  0  0  0  0  0  0  0  # atno 17394 bound_to 11000
  139.8728  134.9388  156.3726 LP  0  0  0  0  0  0  0  0  0  0  0  0  # atno 17395 bound_to 11000

$$$$
