AV-unprocessed.smi:726|AV-procd|sdf|3510|dock4
  -GOLD-   22720 0503D 1   1.00000     0.00000
 Structure written by MMmdl.
 24 24  0  0  0  0  0  0  0  0  2 V2000
  152.4513  139.1664  158.7021 C   0  0  0  0  0  0  0  0  0  0  0  0
  151.7587  140.1351  157.7501 C   0  0  0  0  0  0  0  0  0  0  0  0
  151.3342  141.3292  158.2028 C   0  0  0  0  0  0  0  0  0  0  0  0
  150.6412  142.2297  157.3194 C   0  0  0  0  0  0  0  0  0  0  0  0
  150.2397  143.4287  157.7592 O   0  0  0  0  0  0  0  0  0  0  0  0
  150.3910  141.8518  156.0547 C   0  0  0  0  0  0  0  0  0  0  0  0
  150.8127  140.5498  155.5342 C   0  0  0  0  0  0  0  0  0  0  0  0
  150.5216  140.2187  154.3851 O   0  0  0  0  0  0  0  0  0  0  0  0
  151.5302  139.7427  156.3905 N   0  0  0  0  0  0  0  0  0  0  0  0
  152.1187  138.4667  155.8787 C   0  0  2  0  0  0  0  0  0  0  0  0
  153.1331  138.6719  154.7253 C   0  0  0  0  0  0  0  0  0  0  0  0
  151.0484  137.3924  155.6129 C   0  0  0  0  0  0  0  0  0  0  0  0
  149.8468  137.7202  155.7279 O   0  0  0  0  0  0  0  0  0  0  0  0
  151.4550  136.2520  155.2987 O   0  5  0  0  0  0  0  0  0  0  0  0
  152.3722  139.5121  159.7333 H   0  0  0  0  0  0  0  0  0  0  0  0
  153.5131  139.0854  158.4679 H   0  0  0  0  0  0  0  0  0  0  0  0
  151.9961  138.1767  158.6698 H   0  0  0  0  0  0  0  0  0  0  0  0
  151.4968  141.6108  159.2331 H   0  0  0  0  0  0  0  0  0  0  0  0
  149.7489  143.8364  157.0622 H   0  0  0  0  0  0  0  0  0  0  0  0
  149.8648  142.5263  155.3943 H   0  0  0  0  0  0  0  0  0  0  0  0
  152.7530  138.0060  156.6290 H   0  0  0  0  0  0  0  0  0  0  0  0
  153.6674  137.7440  154.5184 H   0  0  0  0  0  0  0  0  0  0  0  0
  153.8797  139.4197  154.9932 H   0  0  0  0  0  0  0  0  0  0  0  0
  152.6741  138.9794  153.7868 H   0  0  0  0  0  0  0  0  0  0  0  0
  1  2  1  0  0  0  0
  1 15  1  0  0  0  0
  1 16  1  0  0  0  0
  1 17  1  0  0  0  0
  2  9  1  0  0  0  0
  2  3  2  0  0  0  0
  3  4  1  0  0  0  0
  3 18  1  0  0  0  0
  4  5  1  0  0  0  0
  4  6  2  0  0  0  0
  5 19  1  0  0  0  0
  6  7  1  0  0  0  0
  6 20  1  0  0  0  0
  7  8  2  0  0  0  0
  7  9  1  0  0  0  0
  9 10  1  0  0  0  0
 10 11  1  0  0  0  0
 10 12  1  0  0  0  0
 10 21  1  0  0  0  0
 11 22  1  0  0  0  0
 11 23  1  0  0  0  0
 11 24  1  0  0  0  0
 12 13  2  0  0  0  0
 12 14  1  0  0  0  0
M  CHG  1  14  -1
M  END
> <s_m_source_file>
AV-unprocessed.smi

> <i_m_source_file_index>
726

> <i_lp_mmshare_version>
43012

> <i_f3d_flags>
0

> <s_epik_input>
W0NIM11jMVtjSF1jKFtPSF0pW2NIXWMoPU8pbjFbQ0BIXShbQ0gzXSlDKD1PKVtPSF0=

> <s_epik_cmdline>
J2VwaWtfcHl0aG9uJywgJy1waCcsICc3LjAnLCAnLXRuJywgJzgnLCAnLW1hJywgJzIwMCcsICctbWV0YWxfYmluZGluZycsICctaW1hZScsICc8aW5maWxlLm1hZT4nLCAnLW9tYWUnLCAnPG91dGZpbGUubWFlPic=

> <r_lp_tautomer_probability>
0.999984

> <r_epik_Ionization_Penalty>
0.316948

> <r_epik_Ionization_Penalty_Charging>
0.000813874

> <r_epik_Ionization_Penalty_Neutral>
0.316134

> <r_epik_State_Penalty>
0.363429

> <r_epik_Charging_Adjusted_Penalty>
0.364242

> <i_epik_Tot_Q>
-1

> <i_epik_Tot_abs_Q>
1

> <r_epik_Metal_State_Penalty>
0.363429

> <b_epik_Metal_Only>
0

> <s_lp_Force_Field>
OPLS_2005

> <r_lp_Energy>
20.5014

> <b_lp_Chiralities_Consistent>
1

> <s_lp_Variant>
AV-unprocessed.smi:726-1

> <Gold.Version>
5.8.1

> <Gold.Id.Protein>
6NUR|6NUR_protein|mol2

> <Gold.PLP.Fitness>
37.3327

> <Gold.PLP.PLP>
-25.4062

> <Gold.PLP.part.hbond>
-3.0000

> <Gold.PLP.part.metal>
0.0000

> <Gold.PLP.part.buried>
-2.9982

> <Gold.PLP.part.nonpolar>
-20.1768

> <Gold.PLP.part.repulsive>
0.2513

> <Gold.PLP.ligand.clash>
0.0000

> <Gold.PLP.ligand.torsion>
0.1834

> <Gold.PLP.Chemscore.Hbond>
4.0000

> <Gold.PLP.Chemscore.CHOScore>
0.0000

> <Gold.PLP.Chemscore.Metal>
0.0000

> <Gold.Chemscore.Hbonds>
donor molecule, donor type, donor heavy atom, donor atom, acceptor molecule, acceptor atom, score
      L1  H     5    19       P1  8028  1.00
      P1  H  7989  7998       L1     8  1.00
      P1  H 10752 10764       L1    14  2.00

> <Gold.PLP.Chemscore.Internal.Correction>
0.2932

> <Gold.Rescore>
     Score         DG    S(hbond)    S(metal)    S(lipo)     H(rot)  DE(clash)    DE(int)     intcor
     12.86     -14.34       2.63        0.00      45.56       2.06       0.04       1.43       ----

> <Gold.Chemscore.Fitness>
12.8609

> <Gold.Chemscore.DG>
-14.3363

> <Gold.Chemscore.ZeroCoef>
-5.4800

> <Gold.Chemscore.Hbond>
2.6339

> <Gold.Chemscore.Metal>
0.0000

> <Gold.Chemscore.Lipo>
45.5602

> <Gold.Chemscore.Internal_Hbond>
0.0000

> <Gold.Chemscore.DEClash>
0.0407

> <Gold.Chemscore.DEInternal>
1.4348

> <Gold.Chemscore.Rot>
2.0592

> <Gold.Chemscore.Internal.Correction>
   9.000000E+99

> <Gold.Chemscore.Hbonds>
donor molecule, donor type, donor heavy atom, donor atom, acceptor molecule, acceptor atom, score
      L1  H     5    19       P1  8028  0.88
      P1  H  7989  7998       L1     8  0.48
      P1  H 10752 10764       L1    14  0.99

> <Gold.Chemscore.Hbond.Weighted>
-8.7972

> <Gold.Chemscore.Metal.Weighted>
-0.0000

> <Gold.Chemscore.Lipo.Weighted>
-5.3305

> <Gold.Chemscore.Internal_Hbond.Weighted>
0.0000

> <Gold.Chemscore.DEClash.Weighted>
0.0407

> <Gold.Chemscore.DEInternal.Weighted>
1.4348

> <Gold.Chemscore.Rot.Weighted>
5.2715

> <Gold.Chemscore.Internal.Correction.Weighted>
   9.000000E+99

> <Gold.Protein.RotatedTorsions>
[ 6907 6896 6895 6894 ] final  -51.88 input  -60.11 | X-H torsion
[ 7974 7965 7964 7962 ] final   61.37 input  175.53 | X-H torsion
[ 8008 7997 7996 7995 ] final -155.99 input   59.86 | X-H torsion
[ 10167 10162 10161 10158 ] final  104.51 input  -65.29 | X-H torsion
[ 10718 10713 10712 10709 ] final  -63.18 input   66.30 | X-H torsion
[ 10763 10752 10751 10750 ] final  -68.72 input  -60.55 | X-H torsion
[ 11005 11000 10999 10996 ] final   36.18 input  -57.11 | X-H torsion

> <Gold.Protein.ActiveResidues>
 VAL166  LYS551  ARG553  GLY616  TRP617  ASP618  TYR619  PRO620  LYS621  CYS622 
 ASP623  PHE694  ASN695  SER759  ASP760  ASP761  ALA762  ILE779  LEU786  VAL792 
 PHE793  MET794  SER795  GLU796  ALA797  LYS798  CYS799  TRP800  GLU811  SER814 

> <Gold.Protein.RotatedAtoms>
  150.8569  134.7911  159.7052 H   0  0  0  0  0  0  0  0  0  0  0  0  # atno 6907 bound_to 6896
  152.4618  134.5163  159.9779 H   0  0  0  0  0  0  0  0  0  0  0  0  # atno 6908 bound_to 6896
  151.5274  133.3417  159.2948 H   0  0  0  0  0  0  0  0  0  0  0  0  # atno 6909 bound_to 6896
  145.8855  139.3473  143.0680 H   0  0  0  0  0  0  0  0  0  0  0  0  # atno 7974 bound_to 7965
  155.7104  140.0777  157.2373 H   0  0  0  0  0  0  0  0  0  0  0  0  # atno 8008 bound_to 7997
  154.4059  140.1631  156.2343 H   0  0  0  0  0  0  0  0  0  0  0  0  # atno 8009 bound_to 7997
  155.9288  140.3392  155.6235 H   0  0  0  0  0  0  0  0  0  0  0  0  # atno 8010 bound_to 7997
  139.7171  144.7066  151.0932 H   0  0  0  0  0  0  0  0  0  0  0  0  # atno 10167 bound_to 10162
  156.0807  130.4217  150.1240 H   0  0  0  0  0  0  0  0  0  0  0  0  # atno 10718 bound_to 10713
  154.3930  135.6048  153.5854 H   0  0  0  0  0  0  0  0  0  0  0  0  # atno 10763 bound_to 10752
  152.9787  135.5888  154.4275 H   0  0  0  0  0  0  0  0  0  0  0  0  # atno 10764 bound_to 10752
  154.4062  135.2843  155.2044 H   0  0  0  0  0  0  0  0  0  0  0  0  # atno 10765 bound_to 10752
  140.2351  134.3481  155.7948 H   0  0  0  0  0  0  0  0  0  0  0  0  # atno 11005 bound_to 11000
  145.8972  140.9266  143.0521 LP  0  0  0  0  0  0  0  0  0  0  0  0  # atno 17320 bound_to 7965
  144.6728  140.0984  143.7462 LP  0  0  0  0  0  0  0  0  0  0  0  0  # atno 17321 bound_to 7965
  140.7746  143.5215  150.9530 LP  0  0  0  0  0  0  0  0  0  0  0  0  # atno 17342 bound_to 10162
  139.8901  143.6963  152.3146 LP  0  0  0  0  0  0  0  0  0  0  0  0  # atno 17343 bound_to 10162
  156.9272  130.9702  151.3539 LP  0  0  0  0  0  0  0  0  0  0  0  0  # atno 17370 bound_to 10713
  157.5923  130.8452  149.8677 LP  0  0  0  0  0  0  0  0  0  0  0  0  # atno 17371 bound_to 10713
  141.2215  133.7267  156.8795 LP  0  0  0  0  0  0  0  0  0  0  0  0  # atno 17394 bound_to 11000
  140.1710  134.9100  157.2833 LP  0  0  0  0  0  0  0  0  0  0  0  0  # atno 17395 bound_to 11000

$$$$
