AV-unprocessed.smi:2043|AV-procd|sdf|8296|dock4
  -GOLD-   2272010563D 1   1.00000     0.00000
 Structure written by MMmdl.
 29 30  0  0  0  0  0  0  0  0  1 V2000
  147.3396  138.8611  153.2910 C   0  0  0  0  0  0  0  0  0  0  0  0
  148.3344  139.7275  153.9848 C   0  0  0  0  0  0  0  0  0  0  0  0
  149.6203  139.3839  154.1260 N   0  0  0  0  0  0  0  0  0  0  0  0
  150.3503  140.3468  154.8091 N   0  0  0  0  0  0  0  0  0  0  0  0
  149.5895  141.3908  155.1657 C   0  0  0  0  0  0  0  0  0  0  0  0
  150.0783  142.5177  155.8778 N   0  0  0  0  0  0  0  0  0  0  0  0
  150.9748  142.5465  156.8796 C   0  0  0  0  0  0  0  0  0  0  0  0
  151.5460  141.5634  157.3521 O   0  0  0  0  0  0  0  0  0  0  0  0
  151.1778  143.7998  157.3112 N   0  0  0  0  0  0  0  0  0  0  0  0
  152.0901  144.1866  158.3815 C   0  0  0  0  0  0  0  0  0  0  0  0
  151.9379  143.2780  159.5989 C   0  0  0  0  0  0  0  0  0  0  0  0
  152.2978  143.7951  161.0012 C   0  0  0  0  0  0  0  0  0  0  0  0
  152.7960  142.3884  161.3422 C   0  0  0  0  0  0  0  0  0  0  0  0
  152.9624  142.1587  159.8378 C   0  0  0  0  0  0  0  0  0  0  0  0
  147.9034  141.2807  154.6899 S   0  0  0  0  0  0  0  0  0  0  0  0
  147.8425  138.1508  152.6339 H   0  0  0  0  0  0  0  0  0  0  0  0
  146.6644  139.4715  152.6912 H   0  0  0  0  0  0  0  0  0  0  0  0
  146.7541  138.3070  154.0246 H   0  0  0  0  0  0  0  0  0  0  0  0
  149.6964  143.4074  155.5933 H   0  0  0  0  0  0  0  0  0  0  0  0
  150.6646  144.5452  156.8639 H   0  0  0  0  0  0  0  0  0  0  0  0
  153.1063  144.1208  157.9928 H   0  0  0  0  0  0  0  0  0  0  0  0
  151.9399  145.2325  158.6542 H   0  0  0  0  0  0  0  0  0  0  0  0
  150.9373  142.8414  159.6322 H   0  0  0  0  0  0  0  0  0  0  0  0
  153.1018  144.5331  160.9882 H   0  0  0  0  0  0  0  0  0  0  0  0
  151.4485  144.1377  161.5932 H   0  0  0  0  0  0  0  0  0  0  0  0
  153.7231  142.3570  161.9151 H   0  0  0  0  0  0  0  0  0  0  0  0
  152.0215  141.7596  161.7842 H   0  0  0  0  0  0  0  0  0  0  0  0
  152.6521  141.1734  159.4887 H   0  0  0  0  0  0  0  0  0  0  0  0
  153.9620  142.4149  159.4822 H   0  0  0  0  0  0  0  0  0  0  0  0
  1  2  1  0  0  0  0
  1 16  1  0  0  0  0
  1 17  1  0  0  0  0
  1 18  1  0  0  0  0
  2 15  1  0  0  0  0
  2  3  2  0  0  0  0
  3  4  1  0  0  0  0
  4  5  2  0  0  0  0
  5  6  1  0  0  0  0
  5 15  1  0  0  0  0
  6  7  1  0  0  0  0
  6 19  1  0  0  0  0
  7  8  2  0  0  0  0
  7  9  1  0  0  0  0
  9 10  1  0  0  0  0
  9 20  1  0  0  0  0
 10 11  1  0  0  0  0
 10 21  1  0  0  0  0
 10 22  1  0  0  0  0
 11 14  1  0  0  0  0
 11 12  1  0  0  0  0
 11 23  1  0  0  0  0
 12 13  1  0  0  0  0
 12 24  1  0  0  0  0
 12 25  1  0  0  0  0
 13 14  1  0  0  0  0
 13 26  1  0  0  0  0
 13 27  1  0  0  0  0
 14 28  1  0  0  0  0
 14 29  1  0  0  0  0
M  END
> <s_m_source_file>
AV-unprocessed.smi

> <i_m_source_file_index>
2043

> <i_lp_mmshare_version>
43012

> <i_f3d_flags>
0

> <s_epik_input>
W0NIM11jMW5uYyhzMSlbTkhdQyg9TylbTkhdW0NIMl1bQ0hdMltDSDJdW0NIMl1bQ0gyXTI=

> <s_epik_cmdline>
J2VwaWtfcHl0aG9uJywgJy1waCcsICc3LjAnLCAnLXRuJywgJzgnLCAnLW1hJywgJzIwMCcsICctbWV0YWxfYmluZGluZycsICctaW1hZScsICc8aW5maWxlLm1hZT4nLCAnLW9tYWUnLCAnPG91dGZpbGUubWFlPic=

> <r_lp_tautomer_probability>
1

> <r_epik_Ionization_Penalty>
0.000387707

> <r_epik_Ionization_Penalty_Charging>
0

> <r_epik_Ionization_Penalty_Neutral>
0.000387707

> <r_epik_State_Penalty>
-0

> <r_epik_Charging_Adjusted_Penalty>
0

> <i_epik_Tot_Q>
0

> <i_epik_Tot_abs_Q>
0

> <r_epik_Metal_State_Penalty>
0.190371

> <b_epik_Metal_Only>
0

> <s_lp_Force_Field>
OPLS_2005

> <r_lp_Energy>
11.3872

> <b_lp_Chiralities_Consistent>
1

> <s_lp_Variant>
AV-unprocessed.smi:2043-1

> <Gold.Version>
5.8.1

> <Gold.Id.Protein>
6NUR|6NUR_protein|mol2

> <Gold.PLP.Fitness>
41.8586

> <Gold.PLP.PLP>
-35.6759

> <Gold.PLP.part.hbond>
-2.9174

> <Gold.PLP.part.metal>
0.0000

> <Gold.PLP.part.buried>
-4.0640

> <Gold.PLP.part.nonpolar>
-29.5449

> <Gold.PLP.part.repulsive>
0.9575

> <Gold.PLP.ligand.clash>
0.0000

> <Gold.PLP.ligand.torsion>
0.8175

> <Gold.PLP.Chemscore.Hbond>
2.5866

> <Gold.PLP.Chemscore.CHOScore>
0.0000

> <Gold.PLP.Chemscore.Metal>
0.0000

> <Gold.Chemscore.Hbonds>
donor molecule, donor type, donor heavy atom, donor atom, acceptor molecule, acceptor atom, score
      L1  H     6    19       P1  8028  1.00
      L1  H     9    20       P1  8028  0.60
      P1  H  7989  7998       L1     4  1.00

> <Gold.PLP.Chemscore.Internal.Correction>
0.0580

> <Gold.Rescore>
     Score         DG    S(hbond)    S(metal)    S(lipo)     H(rot)  DE(clash)    DE(int)     intcor
     15.99     -19.47       2.62        0.00      72.71       1.27       0.08       3.39       ----

> <Gold.Chemscore.Fitness>
15.9890

> <Gold.Chemscore.DG>
-19.4656

> <Gold.Chemscore.ZeroCoef>
-5.4800

> <Gold.Chemscore.Hbond>
2.6175

> <Gold.Chemscore.Metal>
0.0000

> <Gold.Chemscore.Lipo>
72.7113

> <Gold.Chemscore.Internal_Hbond>
0.0000

> <Gold.Chemscore.DEClash>
0.0846

> <Gold.Chemscore.DEInternal>
3.3920

> <Gold.Chemscore.Rot>
1.2750

> <Gold.Chemscore.Internal.Correction>
   9.000000E+99

> <Gold.Chemscore.Hbonds>
donor molecule, donor type, donor heavy atom, donor atom, acceptor molecule, acceptor atom, score
      L1  H     6    19       P1  8028  0.94
      L1  H     9    20       P1  8028  0.54
      P1  H  7989  7998       L1     4  0.25

> <Gold.Chemscore.Hbond.Weighted>
-8.7424

> <Gold.Chemscore.Metal.Weighted>
-0.0000

> <Gold.Chemscore.Lipo.Weighted>
-8.5072

> <Gold.Chemscore.Internal_Hbond.Weighted>
0.0000

> <Gold.Chemscore.DEClash.Weighted>
0.0846

> <Gold.Chemscore.DEInternal.Weighted>
3.3920

> <Gold.Chemscore.Rot.Weighted>
3.2640

> <Gold.Chemscore.Internal.Correction.Weighted>
   9.000000E+99

> <Gold.Protein.RotatedTorsions>
[ 6907 6896 6895 6894 ] final -116.52 input  -60.11 | X-H torsion
[ 7974 7965 7964 7962 ] final   -8.95 input  175.53 | X-H torsion
[ 8008 7997 7996 7995 ] final  126.94 input   59.86 | X-H torsion
[ 10167 10162 10161 10158 ] final -153.70 input  -65.29 | X-H torsion
[ 10718 10713 10712 10709 ] final  119.41 input   66.30 | X-H torsion
[ 10763 10752 10751 10750 ] final  -74.78 input  -60.55 | X-H torsion
[ 11005 11000 10999 10996 ] final  116.36 input  -57.11 | X-H torsion

> <Gold.Protein.ActiveResidues>
 VAL166  LYS551  ARG553  GLY616  TRP617  ASP618  TYR619  PRO620  LYS621  CYS622 
 ASP623  PHE694  ASN695  SER759  ASP760  ASP761  ALA762  ILE779  LEU786  VAL792 
 PHE793  MET794  SER795  GLU796  ALA797  LYS798  CYS799  TRP800  GLU811  SER814 

> <Gold.Protein.RotatedAtoms>
  150.8062  133.8506  159.3204 H   0  0  0  0  0  0  0  0  0  0  0  0  # atno 6907 bound_to 6896
  151.6304  135.1022  160.0130 H   0  0  0  0  0  0  0  0  0  0  0  0  # atno 6908 bound_to 6896
  152.4153  133.6988  159.6468 H   0  0  0  0  0  0  0  0  0  0  0  0  # atno 6909 bound_to 6896
  146.2266  140.2544  142.8349 H   0  0  0  0  0  0  0  0  0  0  0  0  # atno 7974 bound_to 7965
  156.2877  140.2681  156.2192 H   0  0  0  0  0  0  0  0  0  0  0  0  # atno 8008 bound_to 7997
  155.0185  140.0386  157.2446 H   0  0  0  0  0  0  0  0  0  0  0  0  # atno 8009 bound_to 7997
  154.7456  140.2733  155.6341 H   0  0  0  0  0  0  0  0  0  0  0  0  # atno 8010 bound_to 7997
  139.7075  143.9163  152.2454 H   0  0  0  0  0  0  0  0  0  0  0  0  # atno 10167 bound_to 10162
  157.5963  131.1057  150.7892 H   0  0  0  0  0  0  0  0  0  0  0  0  # atno 10718 bound_to 10713
  154.4776  135.5853  153.6366 H   0  0  0  0  0  0  0  0  0  0  0  0  # atno 10763 bound_to 10752
  152.9843  135.6082  154.3287 H   0  0  0  0  0  0  0  0  0  0  0  0  # atno 10764 bound_to 10752
  154.3175  135.2844  155.2515 H   0  0  0  0  0  0  0  0  0  0  0  0  # atno 10765 bound_to 10752
  139.9039  134.9597  156.7186 H   0  0  0  0  0  0  0  0  0  0  0  0  # atno 11005 bound_to 11000
  144.9387  140.8055  143.5644 LP  0  0  0  0  0  0  0  0  0  0  0  0  # atno 17320 bound_to 7965
  145.2494  139.2038  143.4951 LP  0  0  0  0  0  0  0  0  0  0  0  0  # atno 17321 bound_to 7965
  139.9023  144.6905  150.8652 LP  0  0  0  0  0  0  0  0  0  0  0  0  # atno 17342 bound_to 10162
  140.7725  143.3505  151.2024 LP  0  0  0  0  0  0  0  0  0  0  0  0  # atno 17343 bound_to 10162
  156.8302  130.5013  149.5332 LP  0  0  0  0  0  0  0  0  0  0  0  0  # atno 17370 bound_to 10713
  156.1027  130.5981  150.9920 LP  0  0  0  0  0  0  0  0  0  0  0  0  # atno 17371 bound_to 10713
  140.7018  133.9299  155.8029 LP  0  0  0  0  0  0  0  0  0  0  0  0  # atno 17394 bound_to 11000
  141.0365  134.0681  157.3952 LP  0  0  0  0  0  0  0  0  0  0  0  0  # atno 17395 bound_to 11000

$$$$
