AV-unprocessed.smi:2770|AV-procd|sdf|10661|dock1
  -GOLD-   2272015103D 1   1.00000     0.00000
 Structure written by MMmdl.
 35 36  0  0  0  0  0  0  0  0  2 V2000
  145.4684  143.0434  154.1157 C   0  0  0  0  0  0  0  0  0  0  0  0
  146.8711  142.6956  154.2832 N   0  0  0  0  0  0  0  0  0  0  0  0
  147.3659  141.4572  154.1416 C   0  0  0  0  0  0  0  0  0  0  0  0
  146.6665  140.4850  153.8540 O   0  0  0  0  0  0  0  0  0  0  0  0
  148.8734  141.2985  154.3783 C   0  0  1  0  0  0  0  0  0  0  0  0
  149.3145  141.7823  155.7783 C   0  0  0  0  0  0  0  0  0  0  0  0
  150.7336  141.5189  155.9775 N   0  0  0  0  0  0  0  0  0  0  0  0
  151.2247  142.0251  157.1880 C   0  0  0  0  0  0  0  0  0  0  0  0
  152.0926  141.3036  158.0406 C   0  0  0  0  0  0  0  0  0  0  0  0
  152.5336  141.8994  159.2403 C   0  0  0  0  0  0  0  0  0  0  0  0
  152.1017  143.2017  159.5647 C   0  0  0  0  0  0  0  0  0  0  0  0
  151.2356  143.8786  158.6803 C   0  0  0  0  0  0  0  0  0  0  0  0
  150.7261  145.2772  158.9563 C   0  0  0  0  0  0  0  0  0  0  0  0
  150.8362  143.2707  157.5408 N   0  3  0  0  0  0  0  0  0  0  0  0
  151.0813  140.1221  155.7554 C   0  0  0  0  0  0  0  0  0  0  0  0
  150.6083  139.6810  154.3605 C   0  0  0  0  0  0  0  0  0  0  0  0
  149.2092  139.9177  154.2376 O   0  0  0  0  0  0  0  0  0  0  0  0
  145.3177  144.0997  154.3387 H   0  0  0  0  0  0  0  0  0  0  0  0
  144.8387  142.4600  154.7890 H   0  0  0  0  0  0  0  0  0  0  0  0
  145.1441  142.8614  153.0905 H   0  0  0  0  0  0  0  0  0  0  0  0
  147.5085  143.4427  154.5190 H   0  0  0  0  0  0  0  0  0  0  0  0
  149.3914  141.8747  153.6092 H   0  0  0  0  0  0  0  0  0  0  0  0
  149.1284  142.8524  155.8826 H   0  0  0  0  0  0  0  0  0  0  0  0
  148.7355  141.2754  156.5519 H   0  0  0  0  0  0  0  0  0  0  0  0
  152.4183  140.3063  157.7831 H   0  0  0  0  0  0  0  0  0  0  0  0
  153.1956  141.3630  159.9040 H   0  0  0  0  0  0  0  0  0  0  0  0
  152.4318  143.6712  160.4801 H   0  0  0  0  0  0  0  0  0  0  0  0
  151.0969  145.6494  159.9119 H   0  0  0  0  0  0  0  0  0  0  0  0
  149.6361  145.2853  158.9879 H   0  0  0  0  0  0  0  0  0  0  0  0
  151.0534  145.9625  158.1738 H   0  0  0  0  0  0  0  0  0  0  0  0
  152.1605  139.9910  155.8442 H   0  0  0  0  0  0  0  0  0  0  0  0
  150.6153  139.4976  156.5189 H   0  0  0  0  0  0  0  0  0  0  0  0
  151.1488  140.2148  153.5771 H   0  0  0  0  0  0  0  0  0  0  0  0
  150.8032  138.6186  154.2149 H   0  0  0  0  0  0  0  0  0  0  0  0
  150.2088  143.7778  156.9161 H   0  0  0  0  0  0  0  0  0  0  0  0
  1  2  1  0  0  0  0
  1 18  1  0  0  0  0
  1 19  1  0  0  0  0
  1 20  1  0  0  0  0
  2  3  1  0  0  0  0
  2 21  1  0  0  0  0
  3  4  2  0  0  0  0
  3  5  1  0  0  0  0
  5 17  1  0  0  0  0
  5  6  1  0  0  0  0
  5 22  1  0  0  0  0
  6  7  1  0  0  0  0
  6 23  1  0  0  0  0
  6 24  1  0  0  0  0
  7  8  1  0  0  0  0
  7 15  1  0  0  0  0
  8 14  1  0  0  0  0
  8  9  2  0  0  0  0
  9 10  1  0  0  0  0
  9 25  1  0  0  0  0
 10 11  2  0  0  0  0
 10 26  1  0  0  0  0
 11 12  1  0  0  0  0
 11 27  1  0  0  0  0
 12 13  1  0  0  0  0
 12 14  2  0  0  0  0
 13 28  1  0  0  0  0
 13 29  1  0  0  0  0
 13 30  1  0  0  0  0
 14 35  1  0  0  0  0
 15 16  1  0  0  0  0
 15 31  1  0  0  0  0
 15 32  1  0  0  0  0
 16 17  1  0  0  0  0
 16 33  1  0  0  0  0
 16 34  1  0  0  0  0
M  CHG  1  14   1
M  END
> <s_m_source_file>
AV-unprocessed.smi

> <i_m_source_file_index>
2770

> <i_lp_mmshare_version>
43012

> <i_f3d_flags>
0

> <s_epik_input>
W0NIM11bTkhdQyg9TylbQ0BASF0xW0NIMl1OKFtDSDJdW0NIMl1PMSljMltjSF1bY0hdW2NIXWMobjIpW0NIM10=

> <s_epik_cmdline>
J2VwaWtfcHl0aG9uJywgJy1waCcsICc3LjAnLCAnLXRuJywgJzgnLCAnLW1hJywgJzIwMCcsICctbWV0YWxfYmluZGluZycsICctaW1hZScsICc8aW5maWxlLm1hZT4nLCAnLW9tYWUnLCAnPG91dGZpbGUubWFlPic=

> <r_lp_tautomer_probability>
0.999994

> <r_epik_Ionization_Penalty>
2.33902

> <r_epik_Ionization_Penalty_Charging>
2.33902

> <r_epik_Ionization_Penalty_Neutral>
5.66859e-08

> <r_epik_State_Penalty>
2.4925

> <r_epik_Charging_Adjusted_Penalty>
4.83152

> <i_epik_Tot_Q>
1

> <i_epik_Tot_abs_Q>
1

> <r_epik_Metal_State_Penalty>
2.50392

> <b_epik_Metal_Only>
0

> <s_lp_Force_Field>
OPLS_2005

> <r_lp_Energy>
23.4151

> <b_lp_Chiralities_Consistent>
1

> <s_lp_Variant>
AV-unprocessed.smi:2770-4

> <Gold.Version>
5.8.1

> <Gold.Id.Protein>
6NUR|6NUR_protein|mol2

> <Gold.PLP.Fitness>
42.7323

> <Gold.PLP.PLP>
-34.4116

> <Gold.PLP.part.hbond>
-1.8948

> <Gold.PLP.part.metal>
0.0000

> <Gold.PLP.part.buried>
-0.6954

> <Gold.PLP.part.nonpolar>
-32.2799

> <Gold.PLP.part.repulsive>
0.6418

> <Gold.PLP.ligand.clash>
0.0000

> <Gold.PLP.ligand.torsion>
0.2649

> <Gold.PLP.Chemscore.Hbond>
2.9175

> <Gold.PLP.Chemscore.CHOScore>
0.0000

> <Gold.PLP.Chemscore.Metal>
0.0000

> <Gold.Chemscore.Hbonds>
donor molecule, donor type, donor heavy atom, donor atom, acceptor molecule, acceptor atom, score
      L1  H     2    21       P1  8028  0.71
      L1  H    14    35       P1  8028  1.95

> <Gold.PLP.Chemscore.Internal.Correction>
0.0980

> <Gold.Rescore>
     Score         DG    S(hbond)    S(metal)    S(lipo)     H(rot)  DE(clash)    DE(int)     intcor
     15.80     -17.12       1.44        0.00      86.78       1.30       0.95       0.38       ----

> <Gold.Chemscore.Fitness>
15.7961

> <Gold.Chemscore.DG>
-17.1179

> <Gold.Chemscore.ZeroCoef>
-5.4800

> <Gold.Chemscore.Hbond>
1.4379

> <Gold.Chemscore.Metal>
0.0000

> <Gold.Chemscore.Lipo>
86.7848

> <Gold.Chemscore.Internal_Hbond>
0.0000

> <Gold.Chemscore.DEClash>
0.9456

> <Gold.Chemscore.DEInternal>
0.3762

> <Gold.Chemscore.Rot>
1.2963

> <Gold.Chemscore.Internal.Correction>
   9.000000E+99

> <Gold.Chemscore.Hbonds>
donor molecule, donor type, donor heavy atom, donor atom, acceptor molecule, acceptor atom, score
      L1  H     2    21       P1  8028  0.21
      L1  H    14    35       P1  8028  0.92

> <Gold.Chemscore.Hbond.Weighted>
-4.8026

> <Gold.Chemscore.Metal.Weighted>
-0.0000

> <Gold.Chemscore.Lipo.Weighted>
-10.1538

> <Gold.Chemscore.Internal_Hbond.Weighted>
0.0000

> <Gold.Chemscore.DEClash.Weighted>
0.9456

> <Gold.Chemscore.DEInternal.Weighted>
0.3762

> <Gold.Chemscore.Rot.Weighted>
3.3185

> <Gold.Chemscore.Internal.Correction.Weighted>
   9.000000E+99

> <Gold.Protein.RotatedTorsions>
[ 6907 6896 6895 6894 ] final -163.22 input  -60.11 | X-H torsion
[ 7974 7965 7964 7962 ] final  139.61 input  175.53 | X-H torsion
[ 8008 7997 7996 7995 ] final  117.07 input   59.86 | X-H torsion
[ 10167 10162 10161 10158 ] final  131.56 input  -65.29 | X-H torsion
[ 10718 10713 10712 10709 ] final  153.68 input   66.30 | X-H torsion
[ 10763 10752 10751 10750 ] final   93.99 input  -60.55 | X-H torsion
[ 11005 11000 10999 10996 ] final   68.93 input  -57.11 | X-H torsion

> <Gold.Protein.ActiveResidues>
 VAL166  LYS551  ARG553  GLY616  TRP617  ASP618  TYR619  PRO620  LYS621  CYS622 
 ASP623  PHE694  ASN695  SER759  ASP760  ASP761  ALA762  ILE779  LEU786  VAL792 
 PHE793  MET794  SER795  GLU796  ALA797  LYS798  CYS799  TRP800  GLU811  SER814 

> <Gold.Protein.RotatedAtoms>
  151.3926  133.3784  159.2722 H   0  0  0  0  0  0  0  0  0  0  0  0  # atno 6907 bound_to 6896
  150.9494  134.8896  159.7673 H   0  0  0  0  0  0  0  0  0  0  0  0  # atno 6908 bound_to 6896
  152.5105  134.3880  159.9426 H   0  0  0  0  0  0  0  0  0  0  0  0  # atno 6909 bound_to 6896
  144.9263  139.5103  143.5639 H   0  0  0  0  0  0  0  0  0  0  0  0  # atno 7974 bound_to 7965
  156.2474  140.2904  156.0622 H   0  0  0  0  0  0  0  0  0  0  0  0  # atno 8008 bound_to 7997
  155.1763  140.0403  157.2890 H   0  0  0  0  0  0  0  0  0  0  0  0  # atno 8009 bound_to 7997
  154.6290  140.2495  155.7463 H   0  0  0  0  0  0  0  0  0  0  0  0  # atno 8010 bound_to 7997
  139.5378  144.6700  151.4726 H   0  0  0  0  0  0  0  0  0  0  0  0  # atno 10167 bound_to 10162
  157.2415  131.0760  151.1789 H   0  0  0  0  0  0  0  0  0  0  0  0  # atno 10718 bound_to 10713
  153.2366  135.4305  155.0653 H   0  0  0  0  0  0  0  0  0  0  0  0  # atno 10763 bound_to 10752
  154.8321  135.3392  154.6710 H   0  0  0  0  0  0  0  0  0  0  0  0  # atno 10764 bound_to 10752
  153.7135  135.7021  153.5087 H   0  0  0  0  0  0  0  0  0  0  0  0  # atno 10765 bound_to 10752
  139.9683  134.6944  156.0500 H   0  0  0  0  0  0  0  0  0  0  0  0  # atno 11005 bound_to 11000
  146.3227  139.8180  142.8932 LP  0  0  0  0  0  0  0  0  0  0  0  0  # atno 17320 bound_to 7965
  145.3214  141.0245  143.3498 LP  0  0  0  0  0  0  0  0  0  0  0  0  # atno 17321 bound_to 7965
  140.6594  143.8531  150.6870 LP  0  0  0  0  0  0  0  0  0  0  0  0  # atno 17342 bound_to 10162
  140.1921  143.4028  152.1855 LP  0  0  0  0  0  0  0  0  0  0  0  0  # atno 17343 bound_to 10162
  157.3373  130.7015  149.6360 LP  0  0  0  0  0  0  0  0  0  0  0  0  # atno 17370 bound_to 10713
  155.9670  130.4290  150.4813 LP  0  0  0  0  0  0  0  0  0  0  0  0  # atno 17371 bound_to 10713
  141.1363  133.6574  156.3602 LP  0  0  0  0  0  0  0  0  0  0  0  0  # atno 17394 bound_to 11000
  140.5349  134.6177  157.5361 LP  0  0  0  0  0  0  0  0  0  0  0  0  # atno 17395 bound_to 11000

$$$$
