AV-unprocessed.smi:2013|AV-procd|sdf|8160|dock10
  -GOLD-   2272010403D 1   1.00000     0.00000
 Structure written by MMmdl.
 50 51  0  0  0  0  0  0  0  0  1 V2000
  147.8047  139.6462  152.3878 C   0  0  0  0  0  0  0  0  0  0  0  0
  147.7630  140.3189  153.7749 C   0  0  0  0  0  0  0  0  0  0  0  0
  146.9853  141.6453  153.7264 C   0  0  0  0  0  0  0  0  0  0  0  0
  149.1220  140.4502  154.5354 C   0  0  1  0  0  0  0  0  0  0  0  0
  148.9718  140.9014  156.0172 C   0  0  0  0  0  0  0  0  0  0  0  0
  150.0570  141.7741  156.4523 N   0  0  0  0  0  0  0  0  0  0  0  0
  150.2358  142.2101  157.7079 C   0  0  0  0  0  0  0  0  0  0  0  0
  149.4535  141.9642  158.6270 O   0  0  0  0  0  0  0  0  0  0  0  0
  151.4875  143.0595  157.9596 C   0  0  0  0  0  0  0  0  0  0  0  0
  152.2335  142.6135  159.1427 N   0  0  0  0  0  0  0  0  0  0  0  0
  153.0047  141.4674  159.0780 C   0  0  0  0  0  0  0  0  0  0  0  0
  153.7383  141.0044  160.1136 C   0  0  0  0  0  0  0  0  0  0  0  0
  153.7570  141.7055  161.3919 C   0  0  0  0  0  0  0  0  0  0  0  0
  154.4244  141.3248  162.3543 O   0  0  0  0  0  0  0  0  0  0  0  0
  152.9501  142.8681  161.4341 N   0  0  0  0  0  0  0  0  0  0  0  0
  152.9084  143.6503  162.6523 C   0  0  0  0  0  0  0  0  0  0  0  0
  152.1931  143.3524  160.3450 C   0  0  0  0  0  0  0  0  0  0  0  0
  151.5228  144.3850  160.4274 O   0  0  0  0  0  0  0  0  0  0  0  0
  150.0689  139.3381  154.3210 N   0  0  0  0  0  0  0  0  0  0  0  0
  151.4101  139.6234  154.8276 C   0  0  0  0  0  0  0  0  0  0  0  0
  152.4047  138.5072  154.4680 C   0  0  0  0  0  0  0  0  0  0  0  0
  151.9267  137.2650  154.9732 O   0  0  0  0  0  0  0  0  0  0  0  0
  150.6406  136.9256  154.4653 C   0  0  0  0  0  0  0  0  0  0  0  0
  149.6318  138.0336  154.8149 C   0  0  0  0  0  0  0  0  0  0  0  0
  148.2481  140.2802  151.6237 H   0  0  0  0  0  0  0  0  0  0  0  0
  146.7924  139.4221  152.0506 H   0  0  0  0  0  0  0  0  0  0  0  0
  148.3450  138.7006  152.4016 H   0  0  0  0  0  0  0  0  0  0  0  0
  147.1496  139.6561  154.3864 H   0  0  0  0  0  0  0  0  0  0  0  0
  147.4807  142.3769  153.0874 H   0  0  0  0  0  0  0  0  0  0  0  0
  146.8886  142.0809  154.7214 H   0  0  0  0  0  0  0  0  0  0  0  0
  145.9787  141.4954  153.3349 H   0  0  0  0  0  0  0  0  0  0  0  0
  149.5842  141.3028  154.0354 H   0  0  0  0  0  0  0  0  0  0  0  0
  148.0364  141.4406  156.1635 H   0  0  0  0  0  0  0  0  0  0  0  0
  148.9299  140.0441  156.6892 H   0  0  0  0  0  0  0  0  0  0  0  0
  150.7436  142.0299  155.7573 H   0  0  0  0  0  0  0  0  0  0  0  0
  152.1376  143.0450  157.0827 H   0  0  0  0  0  0  0  0  0  0  0  0
  151.1754  144.0974  158.0805 H   0  0  0  0  0  0  0  0  0  0  0  0
  153.0292  140.9146  158.1500 H   0  0  0  0  0  0  0  0  0  0  0  0
  154.3233  140.1044  159.9934 H   0  0  0  0  0  0  0  0  0  0  0  0
  151.8616  143.8575  162.8824 H   0  0  0  0  0  0  0  0  0  0  0  0
  153.4640  144.5693  162.4586 H   0  0  0  0  0  0  0  0  0  0  0  0
  153.3477  143.1026  163.4856 H   0  0  0  0  0  0  0  0  0  0  0  0
  151.7701  140.5682  154.4193 H   0  0  0  0  0  0  0  0  0  0  0  0
  151.3906  139.7365  155.9113 H   0  0  0  0  0  0  0  0  0  0  0  0
  152.5391  138.4421  153.3873 H   0  0  0  0  0  0  0  0  0  0  0  0
  153.3829  138.7164  154.9009 H   0  0  0  0  0  0  0  0  0  0  0  0
  150.6958  136.7826  153.3850 H   0  0  0  0  0  0  0  0  0  0  0  0
  150.3256  135.9761  154.8979 H   0  0  0  0  0  0  0  0  0  0  0  0
  149.5022  138.0650  155.8970 H   0  0  0  0  0  0  0  0  0  0  0  0
  148.6717  137.7619  154.3886 H   0  0  0  0  0  0  0  0  0  0  0  0
  1  2  1  0  0  0  0
  1 25  1  0  0  0  0
  1 26  1  0  0  0  0
  1 27  1  0  0  0  0
  2  3  1  0  0  0  0
  2  4  1  0  0  0  0
  2 28  1  0  0  0  0
  3 29  1  0  0  0  0
  3 30  1  0  0  0  0
  3 31  1  0  0  0  0
  4  5  1  0  0  0  0
  4 19  1  0  0  0  0
  4 32  1  0  0  0  0
  5  6  1  0  0  0  0
  5 33  1  0  0  0  0
  5 34  1  0  0  0  0
  6  7  1  0  0  0  0
  6 35  1  0  0  0  0
  7  8  2  0  0  0  0
  7  9  1  0  0  0  0
  9 10  1  0  0  0  0
  9 36  1  0  0  0  0
  9 37  1  0  0  0  0
 10 17  1  0  0  0  0
 10 11  1  0  0  0  0
 11 12  2  0  0  0  0
 11 38  1  0  0  0  0
 12 13  1  0  0  0  0
 12 39  1  0  0  0  0
 13 14  2  0  0  0  0
 13 15  1  0  0  0  0
 15 16  1  0  0  0  0
 15 17  1  0  0  0  0
 16 40  1  0  0  0  0
 16 41  1  0  0  0  0
 16 42  1  0  0  0  0
 17 18  2  0  0  0  0
 19 24  1  0  0  0  0
 19 20  1  0  0  0  0
 20 21  1  0  0  0  0
 20 43  1  0  0  0  0
 20 44  1  0  0  0  0
 21 22  1  0  0  0  0
 21 45  1  0  0  0  0
 21 46  1  0  0  0  0
 22 23  1  0  0  0  0
 23 24  1  0  0  0  0
 23 47  1  0  0  0  0
 23 48  1  0  0  0  0
 24 49  1  0  0  0  0
 24 50  1  0  0  0  0
M  END
> <s_m_source_file>
AV-unprocessed.smi

> <i_m_source_file_index>
2013

> <i_lp_mmshare_version>
43012

> <i_f3d_flags>
0

> <s_epik_input>
W0NIMl0xW0NIMl1PW0NIMl1bQ0gyXU4xW0NASF0oW0NIXShbQ0gzXSlbQ0gzXSlbQ0gyXVtOSF1DKD1PKVtDSDJdbjJbY0hdW2NIXWMoPU8pbihbQ0gzXSljMj1P

> <s_epik_cmdline>
J2VwaWtfcHl0aG9uJywgJy1waCcsICc3LjAnLCAnLXRuJywgJzgnLCAnLW1hJywgJzIwMCcsICctbWV0YWxfYmluZGluZycsICctaW1hZScsICc8aW5maWxlLm1hZT4nLCAnLW9tYWUnLCAnPG91dGZpbGUubWFlPic=

> <r_lp_tautomer_probability>
1

> <r_epik_Ionization_Penalty>
0.45351

> <r_epik_Ionization_Penalty_Charging>
1.24653e-08

> <r_epik_Ionization_Penalty_Neutral>
0.45351

> <r_epik_State_Penalty>
0.456487

> <r_epik_Charging_Adjusted_Penalty>
0.456487

> <i_epik_Tot_Q>
0

> <i_epik_Tot_abs_Q>
0

> <r_epik_Metal_State_Penalty>
0.456449

> <b_epik_Metal_Only>
0

> <s_lp_Force_Field>
OPLS_2005

> <r_lp_Energy>
45.5307

> <b_lp_Chiralities_Consistent>
1

> <s_lp_Variant>
AV-unprocessed.smi:2013-4

> <Gold.Version>
5.8.1

> <Gold.Id.Protein>
6NUR|6NUR_protein|mol2

> <Gold.PLP.Fitness>
48.9814

> <Gold.PLP.PLP>
-47.4313

> <Gold.PLP.part.hbond>
-2.8136

> <Gold.PLP.part.metal>
0.0000

> <Gold.PLP.part.buried>
-1.4339

> <Gold.PLP.part.nonpolar>
-43.2914

> <Gold.PLP.part.repulsive>
0.4885

> <Gold.PLP.ligand.clash>
0.0000

> <Gold.PLP.ligand.torsion>
0.9678

> <Gold.PLP.Chemscore.Hbond>
0.9760

> <Gold.PLP.Chemscore.CHOScore>
0.0000

> <Gold.PLP.Chemscore.Metal>
0.0000

> <Gold.Chemscore.Hbonds>
donor molecule, donor type, donor heavy atom, donor atom, acceptor molecule, acceptor atom, score
      P1  H 10752 10763       L1    22  0.93

> <Gold.PLP.Chemscore.Internal.Correction>
0.5577

> <Gold.Rescore>
     Score         DG    S(hbond)    S(metal)    S(lipo)     H(rot)  DE(clash)    DE(int)     intcor
     10.07     -13.07       0.43        0.00     100.81       2.20       1.98       1.02       ----

> <Gold.Chemscore.Fitness>
10.0737

> <Gold.Chemscore.DG>
-13.0706

> <Gold.Chemscore.ZeroCoef>
-5.4800

> <Gold.Chemscore.Hbond>
0.4305

> <Gold.Chemscore.Metal>
0.0000

> <Gold.Chemscore.Lipo>
100.8085

> <Gold.Chemscore.Internal_Hbond>
0.0000

> <Gold.Chemscore.DEClash>
1.9770

> <Gold.Chemscore.DEInternal>
1.0199

> <Gold.Chemscore.Rot>
2.2039

> <Gold.Chemscore.Internal.Correction>
   9.000000E+99

> <Gold.Chemscore.Hbonds>
donor molecule, donor type, donor heavy atom, donor atom, acceptor molecule, acceptor atom, score
      P1  H 10752 10763       L1    22  0.29

> <Gold.Chemscore.Hbond.Weighted>
-1.4380

> <Gold.Chemscore.Metal.Weighted>
-0.0000

> <Gold.Chemscore.Lipo.Weighted>
-11.7946

> <Gold.Chemscore.Internal_Hbond.Weighted>
0.0000

> <Gold.Chemscore.DEClash.Weighted>
1.9770

> <Gold.Chemscore.DEInternal.Weighted>
1.0199

> <Gold.Chemscore.Rot.Weighted>
5.6420

> <Gold.Chemscore.Internal.Correction.Weighted>
   9.000000E+99

> <Gold.Protein.RotatedTorsions>
[ 6907 6896 6895 6894 ] final  -35.63 input  -60.11 | X-H torsion
[ 7974 7965 7964 7962 ] final   17.34 input  175.53 | X-H torsion
[ 8008 7997 7996 7995 ] final  -90.71 input   59.86 | X-H torsion
[ 10167 10162 10161 10158 ] final  142.37 input  -65.29 | X-H torsion
[ 10718 10713 10712 10709 ] final  -75.35 input   66.30 | X-H torsion
[ 10763 10752 10751 10750 ] final   59.99 input  -60.55 | X-H torsion
[ 11005 11000 10999 10996 ] final -124.85 input  -57.11 | X-H torsion

> <Gold.Protein.ActiveResidues>
 VAL166  LYS551  ARG553  GLY616  TRP617  ASP618  TYR619  PRO620  LYS621  CYS622 
 ASP623  PHE694  ASN695  SER759  ASP760  ASP761  ALA762  ILE779  LEU786  VAL792 
 PHE793  MET794  SER795  GLU796  ALA797  LYS798  CYS799  TRP800  GLU811  SER814 

> <Gold.Protein.RotatedAtoms>
  151.0374  134.9583  159.8143 H   0  0  0  0  0  0  0  0  0  0  0  0  # atno 6907 bound_to 6896
  152.5357  134.2702  159.8978 H   0  0  0  0  0  0  0  0  0  0  0  0  # atno 6908 bound_to 6896
  151.2713  133.4211  159.2655 H   0  0  0  0  0  0  0  0  0  0  0  0  # atno 6909 bound_to 6896
  146.2221  139.8616  142.8603 H   0  0  0  0  0  0  0  0  0  0  0  0  # atno 7974 bound_to 7965
  154.7019  140.0527  157.0466 H   0  0  0  0  0  0  0  0  0  0  0  0  # atno 8008 bound_to 7997
  155.0673  140.3196  155.4622 H   0  0  0  0  0  0  0  0  0  0  0  0  # atno 8009 bound_to 7997
  156.2762  140.2088  156.5800 H   0  0  0  0  0  0  0  0  0  0  0  0  # atno 8010 bound_to 7997
  139.4996  144.6111  151.6269 H   0  0  0  0  0  0  0  0  0  0  0  0  # atno 10167 bound_to 10162
  156.0210  130.4439  150.3030 H   0  0  0  0  0  0  0  0  0  0  0  0  # atno 10718 bound_to 10713
  152.9909  135.5552  154.5801 H   0  0  0  0  0  0  0  0  0  0  0  0  # atno 10763 bound_to 10752
  154.5184  135.2806  155.1285 H   0  0  0  0  0  0  0  0  0  0  0  0  # atno 10764 bound_to 10752
  154.2649  135.6374  153.5341 H   0  0  0  0  0  0  0  0  0  0  0  0  # atno 10765 bound_to 10752
  140.9808  134.0675  157.3766 H   0  0  0  0  0  0  0  0  0  0  0  0  # atno 11005 bound_to 11000
  145.2698  141.0105  143.3778 LP  0  0  0  0  0  0  0  0  0  0  0  0  # atno 17320 bound_to 7965
  144.9232  139.4386  143.6531 LP  0  0  0  0  0  0  0  0  0  0  0  0  # atno 17321 bound_to 7965
  140.5786  143.9985  150.6255 LP  0  0  0  0  0  0  0  0  0  0  0  0  # atno 17342 bound_to 10162
  140.3127  143.3188  152.0863 LP  0  0  0  0  0  0  0  0  0  0  0  0  # atno 17343 bound_to 10162
  157.1132  131.0227  151.3039 LP  0  0  0  0  0  0  0  0  0  0  0  0  # atno 17370 bound_to 10713
  157.4687  130.7696  149.7303 LP  0  0  0  0  0  0  0  0  0  0  0  0  # atno 17371 bound_to 10713
  139.8949  135.0138  156.6977 LP  0  0  0  0  0  0  0  0  0  0  0  0  # atno 17394 bound_to 11000
  140.7189  133.9158  155.8133 LP  0  0  0  0  0  0  0  0  0  0  0  0  # atno 17395 bound_to 11000

$$$$
