AV-unprocessed.smi:184|AV-procd|sdf|1461|dock7
  -GOLD-   2262019273D 1   1.00000     0.00000
 Structure written by MMmdl.
 54 58  0  0  0  0  0  0  0  0  1 V2000
  154.0747  140.8211  160.5016 O   0  0  0  0  0  0  0  0  0  0  0  0
  153.3525  141.2717  159.6156 C   0  0  0  0  0  0  0  0  0  0  0  0
  152.7485  140.3150  158.5714 C   0  0  0  0  0  0  0  0  0  0  0  0
  151.9762  140.9872  157.5131 N   0  0  0  0  0  0  0  0  0  0  0  0
  151.4595  140.2231  156.5158 C   0  0  0  0  0  0  0  0  0  0  0  0
  150.7332  140.8130  155.5293 N   0  0  0  0  0  0  0  0  0  0  0  0
  150.2232  140.0815  154.5347 C   0  0  0  0  0  0  0  0  0  0  0  0
  150.3118  138.7654  154.3375 N   0  0  0  0  0  0  0  0  0  0  0  0
  151.0294  138.1640  155.3283 C   0  0  0  0  0  0  0  0  0  0  0  0
  151.6312  138.8108  156.4452 C   0  0  0  0  0  0  0  0  0  0  0  0
  152.2595  137.8683  157.2514 N   0  0  0  0  0  0  0  0  0  0  0  0
  152.0551  136.7347  156.6383 C   0  0  0  0  0  0  0  0  0  0  0  0
  151.3317  136.8206  155.4702 N   0  0  0  0  0  0  0  0  0  0  0  0
  150.9573  135.7195  154.5945 C   0  0  0  0  0  0  0  0  0  0  0  0
  150.1675  134.5855  155.3039 C   0  0  0  0  0  0  0  0  0  0  0  0
  149.2082  135.1969  156.1472 O   0  0  0  0  0  0  0  0  0  0  0  0
  149.3975  133.7087  154.2962 C   0  0  0  0  0  0  0  0  0  0  0  0
  150.3375  132.7524  153.5394 C   0  0  0  0  0  0  0  0  0  0  0  0
  151.0678  131.9539  154.4643 O   0  0  0  0  0  0  0  0  0  0  0  0
  151.9018  132.7210  155.3256 C   0  0  0  0  0  0  0  0  0  0  0  0
  151.0405  133.6646  156.1835 C   0  0  0  0  0  0  0  0  0  0  0  0
  151.2580  142.2153  157.8592 C   0  0  1  0  0  0  0  0  0  0  0  0
  150.0511  141.9218  158.7839 C   0  0  0  0  0  0  0  0  0  0  0  0
  149.3673  143.2126  159.2573 C   0  0  0  0  0  0  0  0  0  0  0  0
  150.3714  144.1411  159.9558 C   0  0  0  0  0  0  0  0  0  0  0  0
  151.5463  144.4749  159.0231 C   0  0  0  0  0  0  0  0  0  0  0  0
  152.2550  143.2104  158.4993 C   0  0  1  0  0  0  0  0  0  0  0  0
  153.0613  142.5818  159.5457 N   0  0  0  0  0  0  0  0  0  0  0  0
  153.5591  139.7439  158.1166 H   0  0  0  0  0  0  0  0  0  0  0  0
  152.1139  139.6064  159.1055 H   0  0  0  0  0  0  0  0  0  0  0  0
  149.6646  140.6289  153.7898 H   0  0  0  0  0  0  0  0  0  0  0  0
  152.4306  135.7974  157.0226 H   0  0  0  0  0  0  0  0  0  0  0  0
  150.3664  136.1303  153.7743 H   0  0  0  0  0  0  0  0  0  0  0  0
  151.8668  135.3306  154.1375 H   0  0  0  0  0  0  0  0  0  0  0  0
  149.6633  135.6419  156.8458 H   0  0  0  0  0  0  0  0  0  0  0  0
  148.6555  133.1073  154.8241 H   0  0  0  0  0  0  0  0  0  0  0  0
  148.8419  134.3286  153.5915 H   0  0  0  0  0  0  0  0  0  0  0  0
  149.7559  132.0935  152.8948 H   0  0  0  0  0  0  0  0  0  0  0  0
  151.0235  133.2973  152.8903 H   0  0  0  0  0  0  0  0  0  0  0  0
  152.4604  132.0405  155.9682 H   0  0  0  0  0  0  0  0  0  0  0  0
  152.6360  133.2729  154.7386 H   0  0  0  0  0  0  0  0  0  0  0  0
  151.6678  134.2393  156.8650 H   0  0  0  0  0  0  0  0  0  0  0  0
  150.3984  133.0512  156.8176 H   0  0  0  0  0  0  0  0  0  0  0  0
  150.8656  142.6929  156.9623 H   0  0  0  0  0  0  0  0  0  0  0  0
  149.3268  141.2947  158.2627 H   0  0  0  0  0  0  0  0  0  0  0  0
  150.3687  141.3539  159.6589 H   0  0  0  0  0  0  0  0  0  0  0  0
  148.9210  143.7261  158.4049 H   0  0  0  0  0  0  0  0  0  0  0  0
  148.5496  142.9710  159.9369 H   0  0  0  0  0  0  0  0  0  0  0  0
  149.8733  145.0594  160.2675 H   0  0  0  0  0  0  0  0  0  0  0  0
  150.7418  143.6666  160.8655 H   0  0  0  0  0  0  0  0  0  0  0  0
  151.1717  145.0498  158.1752 H   0  0  0  0  0  0  0  0  0  0  0  0
  152.2588  145.1225  159.5353 H   0  0  0  0  0  0  0  0  0  0  0  0
  152.9644  143.5211  157.7305 H   0  0  0  0  0  0  0  0  0  0  0  0
  153.4531  143.1905  160.2496 H   0  0  0  0  0  0  0  0  0  0  0  0
  1  2  2  0  0  0  0
  2 28  1  0  0  0  0
  2  3  1  0  0  0  0
  3  4  1  0  0  0  0
  3 29  1  0  0  0  0
  3 30  1  0  0  0  0
  4  5  1  0  0  0  0
  4 22  1  0  0  0  0
  5 10  1  0  0  0  0
  5  6  2  0  0  0  0
  6  7  1  0  0  0  0
  7  8  2  0  0  0  0
  7 31  1  0  0  0  0
  8  9  1  0  0  0  0
  9 13  1  0  0  0  0
  9 10  2  0  0  0  0
 10 11  1  0  0  0  0
 11 12  2  0  0  0  0
 12 13  1  0  0  0  0
 12 32  1  0  0  0  0
 13 14  1  0  0  0  0
 14 15  1  0  0  0  0
 14 33  1  0  0  0  0
 14 34  1  0  0  0  0
 15 21  1  0  0  0  0
 15 16  1  0  0  0  0
 15 17  1  0  0  0  0
 16 35  1  0  0  0  0
 17 18  1  0  0  0  0
 17 36  1  0  0  0  0
 17 37  1  0  0  0  0
 18 19  1  0  0  0  0
 18 38  1  0  0  0  0
 18 39  1  0  0  0  0
 19 20  1  0  0  0  0
 20 21  1  0  0  0  0
 20 40  1  0  0  0  0
 20 41  1  0  0  0  0
 21 42  1  0  0  0  0
 21 43  1  0  0  0  0
 22 27  1  0  0  0  0
 22 23  1  0  0  0  0
 22 44  1  0  0  0  0
 23 24  1  0  0  0  0
 23 45  1  0  0  0  0
 23 46  1  0  0  0  0
 24 25  1  0  0  0  0
 24 47  1  0  0  0  0
 24 48  1  0  0  0  0
 25 26  1  0  0  0  0
 25 49  1  0  0  0  0
 25 50  1  0  0  0  0
 26 27  1  0  0  0  0
 26 51  1  0  0  0  0
 26 52  1  0  0  0  0
 27 28  1  0  0  0  0
 27 53  1  0  0  0  0
 28 54  1  0  0  0  0
M  END
> <s_m_source_file>
AV-unprocessed.smi

> <i_m_source_file_index>
184

> <i_lp_mmshare_version>
43012

> <i_f3d_flags>
0

> <s_epik_input>
W0NIMl0xW0NIMl1bQ0gyXVtDSDJdW0NASF0oW0NASF0xMilbTkhdQyg9TylbQ0gyXU4yYyhuW2NIXW4zKWMoYzM0KW5bY0hdbjRbQ0gyXUM1KFtPSF0pW0NIMl1bQ0gyXU9bQ0gyXVtDSDJdNQ==

> <s_epik_cmdline>
J2VwaWtfcHl0aG9uJywgJy1waCcsICc3LjAnLCAnLXRuJywgJzgnLCAnLW1hJywgJzIwMCcsICctbWV0YWxfYmluZGluZycsICctaW1hZScsICc8aW5maWxlLm1hZT4nLCAnLW9tYWUnLCAnPG91dGZpbGUubWFlPic=

> <r_lp_tautomer_probability>
1

> <r_epik_Ionization_Penalty>
0.000822761

> <r_epik_Ionization_Penalty_Charging>
0

> <r_epik_Ionization_Penalty_Neutral>
0.000822761

> <r_epik_State_Penalty>
0.000403048

> <r_epik_Charging_Adjusted_Penalty>
0.000403048

> <i_epik_Tot_Q>
0

> <i_epik_Tot_abs_Q>
0

> <r_epik_Metal_State_Penalty>
-0

> <b_epik_Metal_Only>
0

> <s_lp_Force_Field>
OPLS_2005

> <r_lp_Energy>
37.4229

> <b_lp_Chiralities_Consistent>
1

> <s_lp_Variant>
AV-unprocessed.smi:184-1

> <Gold.Version>
5.8.1

> <Gold.Id.Protein>
6NUR|6NUR_protein|mol2

> <Gold.PLP.Fitness>
44.3105

> <Gold.PLP.PLP>
-41.9243

> <Gold.PLP.part.hbond>
-1.0000

> <Gold.PLP.part.metal>
0.0000

> <Gold.PLP.part.buried>
-4.7343

> <Gold.PLP.part.nonpolar>
-36.5921

> <Gold.PLP.part.repulsive>
0.3005

> <Gold.PLP.ligand.clash>
0.0000

> <Gold.PLP.ligand.torsion>
0.4032

> <Gold.PLP.Chemscore.Hbond>
0.0000

> <Gold.PLP.Chemscore.CHOScore>
0.9991

> <Gold.PLP.Chemscore.Metal>
0.0000

> <Gold.Chemscore.Hbonds>
donor molecule, donor type, donor heavy atom, donor atom, acceptor molecule, acceptor atom, score
      L1  C     7    31       P1  7957  0.54

> <Gold.PLP.Chemscore.Internal.Correction>
0.1954

> <Gold.Rescore>
     Score         DG    S(hbond)    S(metal)    S(lipo)     H(rot)  DE(clash)    DE(int)     intcor
      9.30     -11.04       0.00        0.00      87.46       1.83       0.02       1.72       ----

> <Gold.Chemscore.Fitness>
9.2990

> <Gold.Chemscore.DG>
-11.0393

> <Gold.Chemscore.ZeroCoef>
-5.4800

> <Gold.Chemscore.Hbond>
0.0000

> <Gold.Chemscore.Metal>
0.0000

> <Gold.Chemscore.Lipo>
87.4572

> <Gold.Chemscore.Internal_Hbond>
0.0000

> <Gold.Chemscore.DEClash>
0.0243

> <Gold.Chemscore.DEInternal>
1.7160

> <Gold.Chemscore.Rot>
1.8255

> <Gold.Chemscore.Internal.Correction>
   9.000000E+99

> <Gold.Chemscore.Hbond.Weighted>
-0.0000

> <Gold.Chemscore.Metal.Weighted>
-0.0000

> <Gold.Chemscore.Lipo.Weighted>
-10.2325

> <Gold.Chemscore.Internal_Hbond.Weighted>
0.0000

> <Gold.Chemscore.DEClash.Weighted>
0.0243

> <Gold.Chemscore.DEInternal.Weighted>
1.7160

> <Gold.Chemscore.Rot.Weighted>
4.6732

> <Gold.Chemscore.Internal.Correction.Weighted>
   9.000000E+99

> <Gold.Protein.RotatedTorsions>
[ 6907 6896 6895 6894 ] final  -57.15 input  -60.11 | X-H torsion
[ 7974 7965 7964 7962 ] final -176.00 input  175.53 | X-H torsion
[ 8008 7997 7996 7995 ] final  107.70 input   59.86 | X-H torsion
[ 10167 10162 10161 10158 ] final  -61.58 input  -65.29 | X-H torsion
[ 10718 10713 10712 10709 ] final  -97.06 input   66.30 | X-H torsion
[ 10763 10752 10751 10750 ] final -145.16 input  -60.55 | X-H torsion
[ 11005 11000 10999 10996 ] final   27.12 input  -57.11 | X-H torsion

> <Gold.Protein.ActiveResidues>
 VAL166  LYS551  ARG553  GLY616  TRP617  ASP618  TYR619  PRO620  LYS621  CYS622 
 ASP623  PHE694  ASN695  SER759  ASP760  ASP761  ALA762  ILE779  LEU786  VAL792 
 PHE793  MET794  SER795  GLU796  ALA797  LYS798  CYS799  TRP800  GLU811  SER814 

> <Gold.Protein.RotatedAtoms>
  150.8109  134.7263  159.6686 H   0  0  0  0  0  0  0  0  0  0  0  0  # atno 6907 bound_to 6896
  152.4229  134.5919  159.9986 H   0  0  0  0  0  0  0  0  0  0  0  0  # atno 6908 bound_to 6896
  151.6129  133.3308  159.3107 H   0  0  0  0  0  0  0  0  0  0  0  0  # atno 6909 bound_to 6896
  144.7127  140.1237  143.6403 H   0  0  0  0  0  0  0  0  0  0  0  0  # atno 7974 bound_to 7965
  156.1845  140.3090  155.9212 H   0  0  0  0  0  0  0  0  0  0  0  0  # atno 8008 bound_to 7997
  155.3310  140.0461  157.3059 H   0  0  0  0  0  0  0  0  0  0  0  0  # atno 8009 bound_to 7997
  154.5380  140.2252  155.8699 H   0  0  0  0  0  0  0  0  0  0  0  0  # atno 8010 bound_to 7997
  140.5997  143.2358  151.5957 H   0  0  0  0  0  0  0  0  0  0  0  0  # atno 10167 bound_to 10162
  156.0075  130.5178  150.6318 H   0  0  0  0  0  0  0  0  0  0  0  0  # atno 10718 bound_to 10713
  154.8396  135.3420  154.6460 H   0  0  0  0  0  0  0  0  0  0  0  0  # atno 10763 bound_to 10752
  153.7072  135.6966  153.5051 H   0  0  0  0  0  0  0  0  0  0  0  0  # atno 10764 bound_to 10752
  153.2478  135.4363  155.0720 H   0  0  0  0  0  0  0  0  0  0  0  0  # atno 10765 bound_to 10752
  140.3297  134.2452  155.7704 H   0  0  0  0  0  0  0  0  0  0  0  0  # atno 11005 bound_to 11000
  145.9348  139.2630  143.1303 LP  0  0  0  0  0  0  0  0  0  0  0  0  # atno 17320 bound_to 7965
  145.9485  140.8927  143.0271 LP  0  0  0  0  0  0  0  0  0  0  0  0  # atno 17321 bound_to 7965
  139.5282  144.2995  152.1086 LP  0  0  0  0  0  0  0  0  0  0  0  0  # atno 17342 bound_to 10162
  140.2173  144.4502  150.6358 LP  0  0  0  0  0  0  0  0  0  0  0  0  # atno 17343 bound_to 10162
  157.4114  131.0824  151.1217 LP  0  0  0  0  0  0  0  0  0  0  0  0  # atno 17370 bound_to 10713
  157.1847  130.6325  149.5684 LP  0  0  0  0  0  0  0  0  0  0  0  0  # atno 17371 bound_to 10713
  141.2066  133.7827  157.0165 LP  0  0  0  0  0  0  0  0  0  0  0  0  # atno 17394 bound_to 11000
  140.0871  134.9614  157.1718 LP  0  0  0  0  0  0  0  0  0  0  0  0  # atno 17395 bound_to 11000

$$$$
