AV-unprocessed.smi:1106|AV-procd|sdf|4778|dock10
  -GOLD-   22720 3323D 1   1.00000     0.00000
 Structure written by MMmdl.
 48 49  0  0  0  0  0  0  0  0  2 V2000
  148.3013  141.5365  154.4336 C   0  0  0  0  0  0  0  0  0  0  0  0
  147.9005  140.0801  154.1563 C   0  0  0  0  0  0  0  0  0  0  0  0
  148.9386  139.1394  154.4879 N   0  0  0  0  0  0  0  0  0  0  0  0
  150.2750  139.4419  154.3118 C   0  0  0  0  0  0  0  0  0  0  0  0
  151.2676  138.5764  154.6111 C   0  0  0  0  0  0  0  0  0  0  0  0
  152.6397  138.9164  154.4275 C   0  0  0  0  0  0  0  0  0  0  0  0
  153.7469  139.2135  154.2695 N   0  0  0  0  0  0  0  0  0  0  0  0
  150.9760  137.2468  155.1425 C   0  0  0  0  0  0  0  0  0  0  0  0
  151.8441  136.4303  155.4589 O   0  0  0  0  0  0  0  0  0  0  0  0
  149.5947  136.9614  155.2881 N   0  0  0  0  0  0  0  0  0  0  0  0
  149.2287  135.6603  155.8248 C   0  0  0  0  0  0  0  0  0  0  0  0
  148.6761  134.6945  154.7538 C   0  0  1  0  0  0  0  0  0  0  0  0
  148.8449  133.3682  155.2149 O   0  0  0  0  0  0  0  0  0  0  0  0
  147.1659  134.9055  154.5282 C   0  0  0  0  0  0  0  0  0  0  0  0
  146.7232  134.3969  153.2052 N   0  3  2  0  0  0  0  0  0  0  0  0
  145.4133  134.9525  152.7742 C   0  0  0  0  0  0  0  0  0  0  0  0
  145.0712  134.5143  151.3406 C   0  0  0  0  0  0  0  0  0  0  0  0
  145.0765  132.9815  151.2082 C   0  0  1  0  0  0  0  0  0  0  0  0
  144.7680  132.5349  149.7723 C   0  0  0  0  0  0  0  0  0  0  0  0
  146.4276  132.4343  151.6993 C   0  0  0  0  0  0  0  0  0  0  0  0
  146.7395  132.9143  153.1269 C   0  0  0  0  0  0  0  0  0  0  0  0
  148.5545  137.8737  154.9891 C   0  0  0  0  0  0  0  0  0  0  0  0
  147.3672  137.5859  155.1632 O   0  0  0  0  0  0  0  0  0  0  0  0
  147.4765  142.2117  154.2069 H   0  0  0  0  0  0  0  0  0  0  0  0
  149.1533  141.8425  153.8261 H   0  0  0  0  0  0  0  0  0  0  0  0
  148.5685  141.6782  155.4812 H   0  0  0  0  0  0  0  0  0  0  0  0
  147.0365  139.7981  154.7595 H   0  0  0  0  0  0  0  0  0  0  0  0
  147.6221  139.9113  153.1144 H   0  0  0  0  0  0  0  0  0  0  0  0
  150.5388  140.4141  153.9201 H   0  0  0  0  0  0  0  0  0  0  0  0
  150.0789  135.2448  156.3688 H   0  0  0  0  0  0  0  0  0  0  0  0
  148.4875  135.8521  156.6027 H   0  0  0  0  0  0  0  0  0  0  0  0
  149.2201  134.8209  153.8181 H   0  0  0  0  0  0  0  0  0  0  0  0
  149.7287  133.2700  155.5369 H   0  0  0  0  0  0  0  0  0  0  0  0
  146.6212  134.4023  155.3290 H   0  0  0  0  0  0  0  0  0  0  0  0
  146.9077  135.9628  154.6078 H   0  0  0  0  0  0  0  0  0  0  0  0
  144.6330  134.6219  153.4615 H   0  0  0  0  0  0  0  0  0  0  0  0
  145.4295  136.0410  152.8192 H   0  0  0  0  0  0  0  0  0  0  0  0
  144.0943  134.9096  151.0608 H   0  0  0  0  0  0  0  0  0  0  0  0
  145.7911  134.9501  150.6462 H   0  0  0  0  0  0  0  0  0  0  0  0
  144.2939  132.5815  151.8544 H   0  0  0  0  0  0  0  0  0  0  0  0
  145.5147  132.9077  149.0706 H   0  0  0  0  0  0  0  0  0  0  0  0
  143.7941  132.9028  149.4481 H   0  0  0  0  0  0  0  0  0  0  0  0
  144.7510  131.4474  149.6936 H   0  0  0  0  0  0  0  0  0  0  0  0
  146.4227  131.3441  151.6727 H   0  0  0  0  0  0  0  0  0  0  0  0
  147.2241  132.7553  151.0263 H   0  0  0  0  0  0  0  0  0  0  0  0
  147.7209  132.5398  153.4208 H   0  0  0  0  0  0  0  0  0  0  0  0
  146.0165  132.5021  153.8326 H   0  0  0  0  0  0  0  0  0  0  0  0
  147.4146  134.7166  152.5414 H   0  0  0  0  0  0  0  0  0  0  0  0
  1  2  1  0  0  0  0
  1 24  1  0  0  0  0
  1 25  1  0  0  0  0
  1 26  1  0  0  0  0
  2  3  1  0  0  0  0
  2 27  1  0  0  0  0
  2 28  1  0  0  0  0
  3 22  1  0  0  0  0
  3  4  1  0  0  0  0
  4  5  2  0  0  0  0
  4 29  1  0  0  0  0
  5  6  1  0  0  0  0
  5  8  1  0  0  0  0
  6  7  3  0  0  0  0
  8  9  2  0  0  0  0
  8 10  1  0  0  0  0
 10 11  1  0  0  0  0
 10 22  1  0  0  0  0
 11 12  1  0  0  0  0
 11 30  1  0  0  0  0
 11 31  1  0  0  0  0
 12 13  1  0  0  0  0
 12 14  1  0  0  0  0
 12 32  1  0  0  0  0
 13 33  1  0  0  0  0
 14 15  1  0  0  0  0
 14 34  1  0  0  0  0
 14 35  1  0  0  0  0
 15 21  1  0  0  0  0
 15 16  1  0  0  0  0
 15 48  1  0  0  0  0
 16 17  1  0  0  0  0
 16 36  1  0  0  0  0
 16 37  1  0  0  0  0
 17 18  1  0  0  0  0
 17 38  1  0  0  0  0
 17 39  1  0  0  0  0
 18 19  1  0  0  0  0
 18 20  1  0  0  0  0
 18 40  1  0  0  0  0
 19 41  1  0  0  0  0
 19 42  1  0  0  0  0
 19 43  1  0  0  0  0
 20 21  1  0  0  0  0
 20 44  1  0  0  0  0
 20 45  1  0  0  0  0
 21 46  1  0  0  0  0
 21 47  1  0  0  0  0
 22 23  2  0  0  0  0
M  CHG  1  15   1
M  END
> <s_m_source_file>
AV-unprocessed.smi

> <i_m_source_file_index>
1106

> <i_lp_mmshare_version>
43012

> <i_f3d_flags>
0

> <s_epik_input>
W0NIM11bQ0gyXW4xW2NIXWMoQyNOKWMoPU8pbihjMT1PKVtDSDJdW0NASF0oW09IXSlbQ0gyXU4yW0NIMl1bQ0gyXVtDSF0oW0NIM10pW0NIMl1bQ0gyXTI=

> <s_epik_cmdline>
J2VwaWtfcHl0aG9uJywgJy1waCcsICc3LjAnLCAnLXRuJywgJzgnLCAnLW1hJywgJzIwMCcsICctbWV0YWxfYmluZGluZycsICctaW1hZScsICc8aW5maWxlLm1hZT4nLCAnLW9tYWUnLCAnPG91dGZpbGUubWFlPic=

> <r_epik_Ionization_Penalty>
0.00136816

> <r_epik_Ionization_Penalty_Charging>
0.00136813

> <r_epik_Ionization_Penalty_Neutral>
3.19882e-08

> <r_epik_State_Penalty>
0.000910892

> <r_epik_Charging_Adjusted_Penalty>
0.00227902

> <i_epik_Tot_Q>
1

> <i_epik_Tot_abs_Q>
1

> <r_epik_Metal_State_Penalty>
-0

> <b_epik_Metal_Only>
0

> <s_lp_Force_Field>
OPLS_2005

> <r_lp_Energy>
28.6797

> <b_lp_Chiralities_Consistent>
1

> <s_lp_Variant>
AV-unprocessed.smi:1106-2

> <Gold.Version>
5.8.1

> <Gold.Id.Protein>
6NUR|6NUR_protein|mol2

> <Gold.PLP.Fitness>
47.3669

> <Gold.PLP.PLP>
-37.6556

> <Gold.PLP.part.hbond>
-3.0000

> <Gold.PLP.part.metal>
0.0000

> <Gold.PLP.part.buried>
-2.1227

> <Gold.PLP.part.nonpolar>
-32.2233

> <Gold.PLP.part.repulsive>
0.1170

> <Gold.PLP.ligand.clash>
0.0067

> <Gold.PLP.ligand.torsion>
1.1425

> <Gold.PLP.Chemscore.Hbond>
3.9760

> <Gold.PLP.Chemscore.CHOScore>
0.0000

> <Gold.PLP.Chemscore.Metal>
0.0000

> <Gold.Chemscore.Hbonds>
donor molecule, donor type, donor heavy atom, donor atom, acceptor molecule, acceptor atom, score
      L1  H    15    48       P1  7948  1.01
      P1  H  7997  8008       L1     7  1.00
      P1  H 10752 10763       L1     9  1.00

> <Gold.PLP.Chemscore.Internal.Correction>
0.0750

> <Gold.Rescore>
     Score         DG    S(hbond)    S(metal)    S(lipo)     H(rot)  DE(clash)    DE(int)     intcor
     13.77     -17.28       2.80        0.00      75.23       2.48       0.04       3.48       ----

> <Gold.Chemscore.Fitness>
13.7695

> <Gold.Chemscore.DG>
-17.2820

> <Gold.Chemscore.ZeroCoef>
-5.4800

> <Gold.Chemscore.Hbond>
2.8021

> <Gold.Chemscore.Metal>
0.0000

> <Gold.Chemscore.Lipo>
75.2264

> <Gold.Chemscore.Internal_Hbond>
0.0000

> <Gold.Chemscore.DEClash>
0.0357

> <Gold.Chemscore.DEInternal>
3.4768

> <Gold.Chemscore.Rot>
2.4838

> <Gold.Chemscore.Internal.Correction>
   9.000000E+99

> <Gold.Chemscore.Hbonds>
donor molecule, donor type, donor heavy atom, donor atom, acceptor molecule, acceptor atom, score
      L1  H    15    48       P1  7948  0.45
      P1  H  7997  8008       L1     7  0.98
      P1  H 10752 10763       L1     9  0.95

> <Gold.Chemscore.Hbond.Weighted>
-9.3589

> <Gold.Chemscore.Metal.Weighted>
-0.0000

> <Gold.Chemscore.Lipo.Weighted>
-8.8015

> <Gold.Chemscore.Internal_Hbond.Weighted>
0.0000

> <Gold.Chemscore.DEClash.Weighted>
0.0357

> <Gold.Chemscore.DEInternal.Weighted>
3.4768

> <Gold.Chemscore.Rot.Weighted>
6.3585

> <Gold.Chemscore.Internal.Correction.Weighted>
   9.000000E+99

> <Gold.Protein.RotatedTorsions>
[ 6907 6896 6895 6894 ] final  112.29 input  -60.11 | X-H torsion
[ 7974 7965 7964 7962 ] final -153.54 input  175.53 | X-H torsion
[ 8008 7997 7996 7995 ] final    7.53 input   59.86 | X-H torsion
[ 10167 10162 10161 10158 ] final   -6.44 input  -65.29 | X-H torsion
[ 10718 10713 10712 10709 ] final   70.66 input   66.30 | X-H torsion
[ 10763 10752 10751 10750 ] final   89.12 input  -60.55 | X-H torsion
[ 11005 11000 10999 10996 ] final   71.39 input  -57.11 | X-H torsion

> <Gold.Protein.ActiveResidues>
 VAL166  LYS551  ARG553  GLY616  TRP617  ASP618  TYR619  PRO620  LYS621  CYS622 
 ASP623  PHE694  ASN695  SER759  ASP760  ASP761  ALA762  ILE779  LEU786  VAL792 
 PHE793  MET794  SER795  GLU796  ALA797  LYS798  CYS799  TRP800  GLU811  SER814 

> <Gold.Protein.RotatedAtoms>
  152.4924  133.8536  159.7214 H   0  0  0  0  0  0  0  0  0  0  0  0  # atno 6907 bound_to 6896
  150.9067  133.7040  159.2872 H   0  0  0  0  0  0  0  0  0  0  0  0  # atno 6908 bound_to 6896
  151.4463  135.1029  159.9737 H   0  0  0  0  0  0  0  0  0  0  0  0  # atno 6909 bound_to 6896
  144.7735  140.4511  143.5890 H   0  0  0  0  0  0  0  0  0  0  0  0  # atno 7974 bound_to 7965
  154.7550  140.2774  155.6261 H   0  0  0  0  0  0  0  0  0  0  0  0  # atno 8008 bound_to 7997
  156.2904  140.2671  156.2241 H   0  0  0  0  0  0  0  0  0  0  0  0  # atno 8009 bound_to 7997
  155.0088  140.0372  157.2380 H   0  0  0  0  0  0  0  0  0  0  0  0  # atno 8010 bound_to 7997
  140.6997  143.6194  150.8627 H   0  0  0  0  0  0  0  0  0  0  0  0  # atno 10167 bound_to 10162
  157.6411  130.9489  150.0682 H   0  0  0  0  0  0  0  0  0  0  0  0  # atno 10718 bound_to 10713
  153.1838  135.4482  155.0062 H   0  0  0  0  0  0  0  0  0  0  0  0  # atno 10763 bound_to 10752
  154.8047  135.3269  154.7464 H   0  0  0  0  0  0  0  0  0  0  0  0  # atno 10764 bound_to 10752
  153.7925  135.6969  153.4924 H   0  0  0  0  0  0  0  0  0  0  0  0  # atno 10765 bound_to 10752
  139.9546  134.7167  156.0783 H   0  0  0  0  0  0  0  0  0  0  0  0  # atno 11005 bound_to 11000
  145.6253  139.1529  143.2999 LP  0  0  0  0  0  0  0  0  0  0  0  0  # atno 17320 bound_to 7965
  146.1899  140.6360  142.9150 LP  0  0  0  0  0  0  0  0  0  0  0  0  # atno 17321 bound_to 7965
  139.9915  143.5842  152.2908 LP  0  0  0  0  0  0  0  0  0  0  0  0  # atno 17342 bound_to 10162
  139.6499  144.7660  151.2169 LP  0  0  0  0  0  0  0  0  0  0  0  0  # atno 17343 bound_to 10162
  156.1694  130.3646  149.9187 LP  0  0  0  0  0  0  0  0  0  0  0  0  # atno 17370 bound_to 10713
  156.7166  130.8990  151.3614 LP  0  0  0  0  0  0  0  0  0  0  0  0  # atno 17371 bound_to 10713
  141.1215  133.6611  156.3227 LP  0  0  0  0  0  0  0  0  0  0  0  0  # atno 17394 bound_to 11000
  140.5639  134.5907  157.5441 LP  0  0  0  0  0  0  0  0  0  0  0  0  # atno 17395 bound_to 11000

$$$$
