AV-unprocessed.smi:37|AV-procd|sdf|306|dock9
  -GOLD-   2262016113D 1   1.00000     0.00000
 Structure written by MMmdl.
 44 45  0  0  0  0  0  0  0  0  1 V2000
  151.1707  143.8884  158.9635 C   0  0  0  0  0  0  0  0  0  0  0  0
  151.8664  144.0489  160.3231 C   0  0  0  0  0  0  0  0  0  0  0  0
  152.6766  142.8216  160.7448 C   0  0  0  0  0  0  0  0  0  0  0  0
  153.2545  142.7502  161.8308 O   0  0  0  0  0  0  0  0  0  0  0  0
  152.6752  141.8746  159.7978 O   0  0  0  0  0  0  0  0  0  0  0  0
  153.5765  140.7840  159.8875 C   0  0  0  0  0  0  0  0  0  0  0  0
  152.8344  139.4449  159.7326 C   0  0  1  0  0  0  0  0  0  0  0  0
  152.4892  139.2603  158.3578 O   0  0  0  0  0  0  0  0  0  0  0  0
  152.6393  137.9205  157.9926 C   0  0  2  0  0  0  0  0  0  0  0  0
  151.3441  137.1564  158.2264 N   0  0  0  0  0  0  0  0  0  0  0  0
  150.1668  137.7775  158.6339 C   0  0  0  0  0  0  0  0  0  0  0  0
  149.0026  137.1101  158.8156 C   0  0  0  0  0  0  0  0  0  0  0  0
  147.9082  137.7820  159.2117 F   0  0  0  0  0  0  0  0  0  0  0  0
  148.9194  135.6747  158.5684 C   0  0  0  0  0  0  0  0  0  0  0  0
  147.9152  134.9817  158.7188 O   0  0  0  0  0  0  0  0  0  0  0  0
  150.1085  135.1001  158.1131 N   0  0  0  0  0  0  0  0  0  0  0  0
  151.3112  135.7782  157.9107 C   0  0  0  0  0  0  0  0  0  0  0  0
  152.2865  135.1736  157.4669 O   0  0  0  0  0  0  0  0  0  0  0  0
  153.7798  137.3925  158.8748 C   0  0  1  0  0  0  0  0  0  0  0  0
  155.5215  137.8536  158.0148 Br  0  0  0  0  0  0  0  0  0  0  0  0
  153.5726  138.1627  160.1722 C   0  0  1  0  0  0  0  0  0  0  0  0
  154.7990  138.3514  160.8701 O   0  0  0  0  0  0  0  0  0  0  0  0
  155.5461  137.2935  161.2349 C   0  0  0  0  0  0  0  0  0  0  0  0
  155.4732  136.1610  160.7580 O   0  0  0  0  0  0  0  0  0  0  0  0
  156.5459  137.6286  162.3399 C   0  0  0  0  0  0  0  0  0  0  0  0
  156.3803  136.7292  163.5724 C   0  0  0  0  0  0  0  0  0  0  0  0
  150.0924  134.1128  157.9018 H   0  0  0  0  0  0  0  0  0  0  0  0
  150.6050  144.7862  158.7144 H   0  0  0  0  0  0  0  0  0  0  0  0
  150.4727  143.0503  158.9700 H   0  0  0  0  0  0  0  0  0  0  0  0
  151.8933  143.7223  158.1637 H   0  0  0  0  0  0  0  0  0  0  0  0
  152.5339  144.9105  160.2954 H   0  0  0  0  0  0  0  0  0  0  0  0
  151.1221  144.2528  161.0932 H   0  0  0  0  0  0  0  0  0  0  0  0
  154.3420  140.8710  159.1153 H   0  0  0  0  0  0  0  0  0  0  0  0
  154.0877  140.8171  160.8503 H   0  0  0  0  0  0  0  0  0  0  0  0
  151.9155  139.5147  160.3145 H   0  0  0  0  0  0  0  0  0  0  0  0
  152.8223  137.8279  156.9206 H   0  0  0  0  0  0  0  0  0  0  0  0
  150.1413  138.8415  158.8093 H   0  0  0  0  0  0  0  0  0  0  0  0
  153.7585  136.3130  159.0156 H   0  0  0  0  0  0  0  0  0  0  0  0
  152.8866  137.5748  160.7847 H   0  0  0  0  0  0  0  0  0  0  0  0
  157.5550  137.5223  161.9410 H   0  0  0  0  0  0  0  0  0  0  0  0
  156.4254  138.6751  162.6205 H   0  0  0  0  0  0  0  0  0  0  0  0
  157.1611  136.9340  164.3050 H   0  0  0  0  0  0  0  0  0  0  0  0
  156.4447  135.6733  163.3076 H   0  0  0  0  0  0  0  0  0  0  0  0
  155.4202  136.8976  164.0614 H   0  0  0  0  0  0  0  0  0  0  0  0
  1  2  1  0  0  0  0
  1 28  1  0  0  0  0
  1 29  1  0  0  0  0
  1 30  1  0  0  0  0
  2  3  1  0  0  0  0
  2 31  1  0  0  0  0
  2 32  1  0  0  0  0
  3  4  2  0  0  0  0
  3  5  1  0  0  0  0
  5  6  1  0  0  0  0
  6  7  1  0  0  0  0
  6 33  1  0  0  0  0
  6 34  1  0  0  0  0
  7 21  1  0  0  0  0
  7  8  1  0  0  0  0
  7 35  1  0  0  0  0
  8  9  1  0  0  0  0
  9 10  1  0  0  0  0
  9 19  1  0  0  0  0
  9 36  1  0  0  0  0
 10 17  1  0  0  0  0
 10 11  1  0  0  0  0
 11 12  2  0  0  0  0
 11 37  1  0  0  0  0
 12 13  1  0  0  0  0
 12 14  1  0  0  0  0
 14 15  2  0  0  0  0
 14 16  1  0  0  0  0
 16 27  1  0  0  0  0
 16 17  1  0  0  0  0
 17 18  2  0  0  0  0
 19 20  1  0  0  0  0
 19 21  1  0  0  0  0
 19 38  1  0  0  0  0
 21 22  1  0  0  0  0
 21 39  1  0  0  0  0
 22 23  1  0  0  0  0
 23 24  2  0  0  0  0
 23 25  1  0  0  0  0
 25 26  1  0  0  0  0
 25 40  1  0  0  0  0
 25 41  1  0  0  0  0
 26 42  1  0  0  0  0
 26 43  1  0  0  0  0
 26 44  1  0  0  0  0
M  END
> <s_m_source_file>
AV-unprocessed.smi

> <i_m_source_file_index>
37

> <i_lp_mmshare_version>
43012

> <i_f3d_flags>
0

> <s_epik_input>
W0NIM11bQ0gyXUMoPU8pT1tDSDJdW0NAQEhdMU9bQ0BASF0objJbY0hdYyhGKWMoPU8pW25IXWMyPU8pW0NAQEhdKEJyKVtDQEhdMU9DKD1PKVtDSDJdW0NIM10=

> <s_epik_cmdline>
J2VwaWtfcHl0aG9uJywgJy1waCcsICc3LjAnLCAnLXRuJywgJzgnLCAnLW1hJywgJzIwMCcsICctbWV0YWxfYmluZGluZycsICctaW1hZScsICc8aW5maWxlLm1hZT4nLCAnLW9tYWUnLCAnPG91dGZpbGUubWFlPic=

> <r_lp_tautomer_probability>
0.999537

> <r_epik_Ionization_Penalty>
0.104106

> <r_epik_Ionization_Penalty_Charging>
0.104106

> <r_epik_Ionization_Penalty_Neutral>
3.94675e-16

> <r_epik_State_Penalty>
0.0940182

> <r_epik_Charging_Adjusted_Penalty>
0.198124

> <i_epik_Tot_Q>
0

> <i_epik_Tot_abs_Q>
0

> <r_epik_Metal_State_Penalty>
3.05314

> <b_epik_Metal_Only>
0

> <s_epik_Chemistry_Notes>
This compound has an ester and may undergo hydrolysis at high or low pH. This compound contains an acetal/aminal-like group ( X-CH(R)-Y where X, Y are N, S, or O) that may be acid/base labile, releasing an aldehyde.

> <s_lp_Force_Field>
OPLS_2005

> <r_lp_Energy>
23.6922

> <b_lp_Chiralities_Consistent>
1

> <s_lp_Variant>
AV-unprocessed.smi:37-4

> <Gold.Version>
5.8.1

> <Gold.Id.Protein>
6NUR|6NUR_protein|mol2

> <Gold.PLP.Fitness>
42.2558

> <Gold.PLP.PLP>
-37.9508

> <Gold.PLP.part.hbond>
-2.0894

> <Gold.PLP.part.metal>
0.0000

> <Gold.PLP.part.buried>
-7.2389

> <Gold.PLP.part.nonpolar>
-29.0505

> <Gold.PLP.part.repulsive>
0.2275

> <Gold.PLP.ligand.clash>
0.0000

> <Gold.PLP.ligand.torsion>
0.9174

> <Gold.PLP.Chemscore.Hbond>
2.0000

> <Gold.PLP.Chemscore.CHOScore>
0.0000

> <Gold.PLP.Chemscore.Metal>
0.0000

> <Gold.PLP.Chemscore.Internal.Correction>
0.1399

> <Gold.Rescore>
     Score         DG    S(hbond)    S(metal)    S(lipo)     H(rot)  DE(clash)    DE(int)     intcor
      9.09     -11.38       1.69        0.00      75.00       3.33       0.04       2.25       ----

> <Gold.Chemscore.Fitness>
9.0852

> <Gold.Chemscore.DG>
-11.3778

> <Gold.Chemscore.ZeroCoef>
-5.4800

> <Gold.Chemscore.Hbond>
1.6910

> <Gold.Chemscore.Metal>
0.0000

> <Gold.Chemscore.Lipo>
75.0032

> <Gold.Chemscore.Internal_Hbond>
0.0000

> <Gold.Chemscore.DEClash>
0.0380

> <Gold.Chemscore.DEInternal>
2.2546

> <Gold.Chemscore.Rot>
3.3303

> <Gold.Chemscore.Internal.Correction>
   9.000000E+99

> <Gold.Chemscore.Hbonds>
donor molecule, donor type, donor heavy atom, donor atom, acceptor molecule, acceptor atom, score
      P1  H 10752 10765       L1    18  0.01

> <Gold.Chemscore.Hbond.Weighted>
-5.6480

> <Gold.Chemscore.Metal.Weighted>
-0.0000

> <Gold.Chemscore.Lipo.Weighted>
-8.7754

> <Gold.Chemscore.Internal_Hbond.Weighted>
0.0000

> <Gold.Chemscore.DEClash.Weighted>
0.0380

> <Gold.Chemscore.DEInternal.Weighted>
2.2546

> <Gold.Chemscore.Rot.Weighted>
8.5256

> <Gold.Chemscore.Internal.Correction.Weighted>
   9.000000E+99

> <Gold.Protein.RotatedTorsions>
[ 6907 6896 6895 6894 ] final   96.79 input  -60.11 | X-H torsion
[ 7974 7965 7964 7962 ] final   23.66 input  175.53 | X-H torsion
[ 8008 7997 7996 7995 ] final  -83.71 input   59.86 | X-H torsion
[ 10167 10162 10161 10158 ] final  -14.81 input  -65.29 | X-H torsion
[ 10718 10713 10712 10709 ] final  113.20 input   66.30 | X-H torsion
[ 10763 10752 10751 10750 ] final -111.36 input  -60.55 | X-H torsion
[ 11005 11000 10999 10996 ] final  101.95 input  -57.11 | X-H torsion

> <Gold.Protein.ActiveResidues>
 VAL166  LYS551  ARG553  GLY616  TRP617  ASP618  TYR619  PRO620  LYS621  CYS622 
 ASP623  PHE694  ASN695  SER759  ASP760  ASP761  ALA762  ILE779  LEU786  VAL792 
 PHE793  MET794  SER795  GLU796  ALA797  LYS798  CYS799  TRP800  GLU811  SER814 

> <Gold.Protein.RotatedAtoms>
  152.5431  134.0833  159.8244 H   0  0  0  0  0  0  0  0  0  0  0  0  # atno 6907 bound_to 6896
  151.0932  133.5292  159.2621 H   0  0  0  0  0  0  0  0  0  0  0  0  # atno 6908 bound_to 6896
  151.2076  135.0477  159.8952 H   0  0  0  0  0  0  0  0  0  0  0  0  # atno 6909 bound_to 6896
  146.1974  139.7714  142.8787 H   0  0  0  0  0  0  0  0  0  0  0  0  # atno 7974 bound_to 7965
  154.6220  140.0615  156.9626 H   0  0  0  0  0  0  0  0  0  0  0  0  # atno 8008 bound_to 7997
  155.1803  140.3298  155.4358 H   0  0  0  0  0  0  0  0  0  0  0  0  # atno 8009 bound_to 7997
  156.2436  140.1899  156.6899 H   0  0  0  0  0  0  0  0  0  0  0  0  # atno 8010 bound_to 7997
  140.7208  143.5283  150.9551 H   0  0  0  0  0  0  0  0  0  0  0  0  # atno 10167 bound_to 10162
  157.6351  131.0980  150.7006 H   0  0  0  0  0  0  0  0  0  0  0  0  # atno 10718 bound_to 10713
  154.8296  135.4530  154.1027 H   0  0  0  0  0  0  0  0  0  0  0  0  # atno 10763 bound_to 10752
  153.2312  135.6905  153.7894 H   0  0  0  0  0  0  0  0  0  0  0  0  # atno 10764 bound_to 10752
  153.7276  135.3332  155.3256 H   0  0  0  0  0  0  0  0  0  0  0  0  # atno 10765 bound_to 10752
  139.8775  134.9204  156.4984 H   0  0  0  0  0  0  0  0  0  0  0  0  # atno 11005 bound_to 11000
  145.3598  141.0323  143.3291 LP  0  0  0  0  0  0  0  0  0  0  0  0  # atno 17320 bound_to 7965
  144.8609  139.5178  143.6812 LP  0  0  0  0  0  0  0  0  0  0  0  0  # atno 17321 bound_to 7965
  139.9002  143.6845  152.3132 LP  0  0  0  0  0  0  0  0  0  0  0  0  # atno 17342 bound_to 10162
  139.7192  144.7606  151.0984 LP  0  0  0  0  0  0  0  0  0  0  0  0  # atno 17343 bound_to 10162
  156.7339  130.4718  149.5493 LP  0  0  0  0  0  0  0  0  0  0  0  0  # atno 17370 bound_to 10713
  156.1584  130.6357  151.0687 LP  0  0  0  0  0  0  0  0  0  0  0  0  # atno 17371 bound_to 10713
  140.8607  133.8062  155.9262 LP  0  0  0  0  0  0  0  0  0  0  0  0  # atno 17394 bound_to 11000
  140.9052  134.2329  157.5018 LP  0  0  0  0  0  0  0  0  0  0  0  0  # atno 17395 bound_to 11000

$$$$
