AV-unprocessed.smi:521|AV-procd|sdf|2800|dock3
  -GOLD-   2262023273D 1   1.00000     0.00000
 Structure written by MMmdl.
 41 43  0  0  0  0  0  0  0  0  2 V2000
  147.0897  136.7294  162.3800 C   0  0  0  0  0  0  0  0  0  0  0  0
  147.7118  137.1952  161.1915 O   0  0  0  0  0  0  0  0  0  0  0  0
  147.9960  136.2796  160.1991 C   0  0  0  0  0  0  0  0  0  0  0  0
  147.8213  134.8803  160.3491 C   0  0  0  0  0  0  0  0  0  0  0  0
  148.1337  134.0040  159.2943 C   0  0  0  0  0  0  0  0  0  0  0  0
  148.6218  134.5135  158.0794 C   0  0  0  0  0  0  0  0  0  0  0  0
  148.7987  135.8996  157.9189 C   0  0  0  0  0  0  0  0  0  0  0  0
  148.4894  136.7923  158.9765 C   0  0  0  0  0  0  0  0  0  0  0  0
  148.6423  138.1609  158.8910 O   0  0  0  0  0  0  0  0  0  0  0  0
  149.1151  138.7148  157.6723 C   0  0  0  0  0  0  0  0  0  0  0  0
  150.5584  139.1866  157.8835 C   0  0  0  0  0  0  0  0  0  0  0  0
  150.6882  140.6390  157.7129 N   0  0  0  0  0  0  0  0  0  0  0  0
  150.0775  141.4794  156.8296 C   0  0  0  0  0  0  0  0  0  0  0  0
  149.0847  141.0942  155.7795 C   0  0  0  0  0  0  0  0  0  0  0  0
  148.7407  142.1595  154.9182 O   0  0  0  0  0  0  0  0  0  0  0  0
  150.5409  142.7364  157.0866 N   0  3  0  0  0  0  0  0  0  0  0  0
  151.4481  142.7000  158.1462 C   0  0  0  0  0  0  0  0  0  0  0  0
  152.1717  143.7160  158.7629 C   0  0  0  0  0  0  0  0  0  0  0  0
  153.0113  143.3359  159.8307 C   0  0  0  0  0  0  0  0  0  0  0  0
  153.1074  141.9920  160.2471 C   0  0  0  0  0  0  0  0  0  0  0  0
  152.3703  140.9704  159.6127 C   0  0  0  0  0  0  0  0  0  0  0  0
  151.5443  141.3547  158.5568 C   0  0  0  0  0  0  0  0  0  0  0  0
  146.9484  137.5666  163.0633 H   0  0  0  0  0  0  0  0  0  0  0  0
  147.7084  135.9899  162.8903 H   0  0  0  0  0  0  0  0  0  0  0  0
  146.1073  136.3017  162.1752 H   0  0  0  0  0  0  0  0  0  0  0  0
  147.4479  134.4518  161.2666 H   0  0  0  0  0  0  0  0  0  0  0  0
  147.9985  132.9397  159.4181 H   0  0  0  0  0  0  0  0  0  0  0  0
  148.8614  133.8405  157.2691 H   0  0  0  0  0  0  0  0  0  0  0  0
  149.1751  136.2527  156.9711 H   0  0  0  0  0  0  0  0  0  0  0  0
  149.0883  137.9650  156.8801 H   0  0  0  0  0  0  0  0  0  0  0  0
  148.4876  139.5551  157.3711 H   0  0  0  0  0  0  0  0  0  0  0  0
  150.9245  138.9088  158.8723 H   0  0  0  0  0  0  0  0  0  0  0  0
  151.2198  138.7057  157.1621 H   0  0  0  0  0  0  0  0  0  0  0  0
  149.4927  140.2759  155.1859 H   0  0  0  0  0  0  0  0  0  0  0  0
  148.1789  140.7258  156.2622 H   0  0  0  0  0  0  0  0  0  0  0  0
  148.9987  142.9715  155.3281 H   0  0  0  0  0  0  0  0  0  0  0  0
  152.0981  144.7463  158.4470 H   0  0  0  0  0  0  0  0  0  0  0  0
  153.5921  144.0905  160.3411 H   0  0  0  0  0  0  0  0  0  0  0  0
  153.7598  141.7392  161.0705 H   0  0  0  0  0  0  0  0  0  0  0  0
  152.4494  139.9442  159.9402 H   0  0  0  0  0  0  0  0  0  0  0  0
  150.2480  143.5571  156.5717 H   0  0  0  0  0  0  0  0  0  0  0  0
  1  2  1  0  0  0  0
  1 23  1  0  0  0  0
  1 24  1  0  0  0  0
  1 25  1  0  0  0  0
  2  3  1  0  0  0  0
  3  8  1  0  0  0  0
  3  4  2  0  0  0  0
  4  5  1  0  0  0  0
  4 26  1  0  0  0  0
  5  6  2  0  0  0  0
  5 27  1  0  0  0  0
  6  7  1  0  0  0  0
  6 28  1  0  0  0  0
  7  8  2  0  0  0  0
  7 29  1  0  0  0  0
  8  9  1  0  0  0  0
  9 10  1  0  0  0  0
 10 11  1  0  0  0  0
 10 30  1  0  0  0  0
 10 31  1  0  0  0  0
 11 12  1  0  0  0  0
 11 32  1  0  0  0  0
 11 33  1  0  0  0  0
 12 22  1  0  0  0  0
 12 13  1  0  0  0  0
 13 14  1  0  0  0  0
 13 16  2  0  0  0  0
 14 15  1  0  0  0  0
 14 34  1  0  0  0  0
 14 35  1  0  0  0  0
 15 36  1  0  0  0  0
 16 17  1  0  0  0  0
 16 41  1  0  0  0  0
 17 22  2  0  0  0  0
 17 18  1  0  0  0  0
 18 19  2  0  0  0  0
 18 37  1  0  0  0  0
 19 20  1  0  0  0  0
 19 38  1  0  0  0  0
 20 21  2  0  0  0  0
 20 39  1  0  0  0  0
 21 22  1  0  0  0  0
 21 40  1  0  0  0  0
M  CHG  1  16   1
M  END
> <s_m_source_file>
AV-unprocessed.smi

> <i_m_source_file_index>
521

> <i_lp_mmshare_version>
43012

> <i_f3d_flags>
0

> <s_epik_input>
W0NIM11PYzFbY0hdW2NIXVtjSF1bY0hdYzFPW0NIMl1bQ0gyXW4oYyhuMilbQ0gyXVtPSF0pYyhjMjMpW2NIXVtjSF1bY0hdW2NIXTM=

> <s_epik_cmdline>
J2VwaWtfcHl0aG9uJywgJy1waCcsICc3LjAnLCAnLXRuJywgJzgnLCAnLW1hJywgJzIwMCcsICctbWV0YWxfYmluZGluZycsICctaW1hZScsICc8aW5maWxlLm1hZT4nLCAnLW9tYWUnLCAnPG91dGZpbGUubWFlPic=

> <r_lp_tautomer_probability>
1

> <r_epik_Ionization_Penalty>
1.50718

> <r_epik_Ionization_Penalty_Charging>
1.50632

> <r_epik_Ionization_Penalty_Neutral>
0.000855784

> <r_epik_State_Penalty>
1.59697

> <r_epik_Charging_Adjusted_Penalty>
3.1033

> <i_epik_Tot_Q>
1

> <i_epik_Tot_abs_Q>
1

> <r_epik_Metal_State_Penalty>
5.64835

> <b_epik_Metal_Only>
0

> <s_lp_Force_Field>
OPLS_2005

> <r_lp_Energy>
22.6327

> <b_lp_Chiralities_Consistent>
1

> <s_lp_Variant>
AV-unprocessed.smi:521-2

> <Gold.Version>
5.8.1

> <Gold.Id.Protein>
6NUR|6NUR_protein|mol2

> <Gold.PLP.Fitness>
54.7576

> <Gold.PLP.PLP>
-42.4546

> <Gold.PLP.part.hbond>
-5.0746

> <Gold.PLP.part.metal>
0.0000

> <Gold.PLP.part.buried>
-6.1279

> <Gold.PLP.part.nonpolar>
-31.9934

> <Gold.PLP.part.repulsive>
0.0167

> <Gold.PLP.ligand.clash>
0.0000

> <Gold.PLP.ligand.torsion>
1.1051

> <Gold.PLP.Chemscore.Hbond>
4.7920

> <Gold.PLP.Chemscore.CHOScore>
0.0000

> <Gold.PLP.Chemscore.Metal>
0.0000

> <Gold.Chemscore.Hbonds>
donor molecule, donor type, donor heavy atom, donor atom, acceptor molecule, acceptor atom, score
      L1  H    15    36       P1  8028  1.00
      L1  H    16    41       P1  8028  2.00
      P1  H  6931  6943       L1     2  0.94
      P1  H  6934  6947       L1     2  0.85

> <Gold.PLP.Chemscore.Internal.Correction>
0.1373

> <Gold.Rescore>
     Score         DG    S(hbond)    S(metal)    S(lipo)     H(rot)  DE(clash)    DE(int)     intcor
     19.94     -21.81       3.36        0.00      99.21       2.54       0.06       1.81       ----

> <Gold.Chemscore.Fitness>
19.9444

> <Gold.Chemscore.DG>
-21.8128

> <Gold.Chemscore.ZeroCoef>
-5.4800

> <Gold.Chemscore.Hbond>
3.3639

> <Gold.Chemscore.Metal>
0.0000

> <Gold.Chemscore.Lipo>
99.2101

> <Gold.Chemscore.Internal_Hbond>
0.0000

> <Gold.Chemscore.DEClash>
0.0628

> <Gold.Chemscore.DEInternal>
1.8056

> <Gold.Chemscore.Rot>
2.5431

> <Gold.Chemscore.Internal.Correction>
   9.000000E+99

> <Gold.Chemscore.Hbonds>
donor molecule, donor type, donor heavy atom, donor atom, acceptor molecule, acceptor atom, score
      L1  H    15    36       P1  8028  0.98
      L1  H    16    41       P1  8028  0.94
      P1  H  6931  6943       L1     2  0.23
      P1  H  6934  6947       L1     2  0.54

> <Gold.Chemscore.Hbond.Weighted>
-11.2355

> <Gold.Chemscore.Metal.Weighted>
-0.0000

> <Gold.Chemscore.Lipo.Weighted>
-11.6076

> <Gold.Chemscore.Internal_Hbond.Weighted>
0.0000

> <Gold.Chemscore.DEClash.Weighted>
0.0628

> <Gold.Chemscore.DEInternal.Weighted>
1.8056

> <Gold.Chemscore.Rot.Weighted>
6.5103

> <Gold.Chemscore.Internal.Correction.Weighted>
   9.000000E+99

> <Gold.Protein.RotatedTorsions>
[ 6907 6896 6895 6894 ] final -143.79 input  -60.11 | X-H torsion
[ 7974 7965 7964 7962 ] final   -0.63 input  175.53 | X-H torsion
[ 8008 7997 7996 7995 ] final -162.83 input   59.86 | X-H torsion
[ 10167 10162 10161 10158 ] final -134.40 input  -65.29 | X-H torsion
[ 10718 10713 10712 10709 ] final    9.39 input   66.30 | X-H torsion
[ 10763 10752 10751 10750 ] final  -46.54 input  -60.55 | X-H torsion
[ 11005 11000 10999 10996 ] final  130.50 input  -57.11 | X-H torsion

> <Gold.Protein.ActiveResidues>
 VAL166  LYS551  ARG553  GLY616  TRP617  ASP618  TYR619  PRO620  LYS621  CYS622 
 ASP623  PHE694  ASN695  SER759  ASP760  ASP761  ALA762  ILE779  LEU786  VAL792 
 PHE793  MET794  SER795  GLU796  ALA797  LYS798  CYS799  TRP800  GLU811  SER814 

> <Gold.Protein.RotatedAtoms>
  151.1052  133.5213  159.2607 H   0  0  0  0  0  0  0  0  0  0  0  0  # atno 6907 bound_to 6896
  151.2029  135.0449  159.8889 H   0  0  0  0  0  0  0  0  0  0  0  0  # atno 6908 bound_to 6896
  152.5446  134.0878  159.8317 H   0  0  0  0  0  0  0  0  0  0  0  0  # atno 6909 bound_to 6896
  146.2425  140.1299  142.8338 H   0  0  0  0  0  0  0  0  0  0  0  0  # atno 7974 bound_to 7965
  155.8125  140.0907  157.1895 H   0  0  0  0  0  0  0  0  0  0  0  0  # atno 8008 bound_to 7997
  154.3979  140.1452  156.3463 H   0  0  0  0  0  0  0  0  0  0  0  0  # atno 8009 bound_to 7997
  155.8350  140.3441  155.5598 H   0  0  0  0  0  0  0  0  0  0  0  0  # atno 8010 bound_to 7997
  139.8884  143.6752  152.2616 H   0  0  0  0  0  0  0  0  0  0  0  0  # atno 10167 bound_to 10162
  156.9656  130.5949  149.5665 H   0  0  0  0  0  0  0  0  0  0  0  0  # atno 10718 bound_to 10713
  154.0467  135.6636  153.4796 H   0  0  0  0  0  0  0  0  0  0  0  0  # atno 10763 bound_to 10752
  153.0480  135.5102  154.7790 H   0  0  0  0  0  0  0  0  0  0  0  0  # atno 10764 bound_to 10752
  154.6783  135.3041  154.9614 H   0  0  0  0  0  0  0  0  0  0  0  0  # atno 10765 bound_to 10752
  139.9676  134.9586  156.9303 H   0  0  0  0  0  0  0  0  0  0  0  0  # atno 11005 bound_to 11000
  145.0335  140.8889  143.5095 LP  0  0  0  0  0  0  0  0  0  0  0  0  # atno 17320 bound_to 7965
  145.1367  139.2598  143.5511 LP  0  0  0  0  0  0  0  0  0  0  0  0  # atno 17321 bound_to 7965
  139.7132  144.7616  151.1078 LP  0  0  0  0  0  0  0  0  0  0  0  0  # atno 17342 bound_to 10162
  140.7731  143.5304  150.9430 LP  0  0  0  0  0  0  0  0  0  0  0  0  # atno 17343 bound_to 10162
  156.0304  130.5396  150.8519 LP  0  0  0  0  0  0  0  0  0  0  0  0  # atno 17370 bound_to 10713
  157.5628  131.0946  150.9534 LP  0  0  0  0  0  0  0  0  0  0  0  0  # atno 17371 bound_to 10713
  140.5364  134.0763  155.7329 LP  0  0  0  0  0  0  0  0  0  0  0  0  # atno 17394 bound_to 11000
  141.1355  133.9228  157.2442 LP  0  0  0  0  0  0  0  0  0  0  0  0  # atno 17395 bound_to 11000

$$$$
