AV-unprocessed.smi:671|AV-procd|sdf|3286|dock9
  -GOLD-   22720 0243D 1   1.00000     0.00000
 Structure written by MMmdl.
 50 51  0  0  0  0  0  0  0  0  2 V2000
  150.7626  141.6002  156.2826 C   0  0  0  0  0  0  0  0  0  0  0  0
  149.6171  141.3133  155.3706 C   0  0  0  0  0  0  0  0  0  0  0  0
  148.6793  142.2297  155.0099 N   0  3  0  0  0  0  0  0  0  0  0  0
  147.7816  141.6737  154.1846 N   0  0  0  0  0  0  0  0  0  0  0  0
  146.6795  142.4890  153.6738 C   0  0  0  0  0  0  0  0  0  0  0  0
  148.0881  140.3635  153.9689 C   0  0  0  0  0  0  0  0  0  0  0  0
  147.2936  139.4412  153.1034 C   0  0  0  0  0  0  0  0  0  0  0  0
  149.2464  140.1294  154.7206 C   0  0  0  0  0  0  0  0  0  0  0  0
  149.9705  138.8134  154.8186 C   0  0  0  0  0  0  0  0  0  0  0  0
  149.1472  137.7153  155.5226 C   0  0  1  0  0  0  0  0  0  0  0  0
  148.0763  138.3091  156.4474 C   0  0  0  0  0  0  0  0  0  0  0  0
  148.5058  136.8471  154.5291 N   0  0  0  0  0  0  0  0  0  0  0  0
  147.5387  135.9275  154.6987 C   0  0  0  0  0  0  0  0  0  0  0  0
  147.0672  135.6899  155.8087 O   0  0  0  0  0  0  0  0  0  0  0  0
  147.1598  135.2901  153.5785 N   0  0  0  0  0  0  0  0  0  0  0  0
  146.1324  134.2518  153.4873 C   0  0  2  0  0  0  0  0  0  0  0  0
  146.7163  132.8897  153.9161 C   0  0  0  0  0  0  0  0  0  0  0  0
  146.5569  131.9455  152.7193 C   0  0  0  0  0  0  0  0  0  0  0  0
  146.4124  132.8618  151.5078 C   0  0  0  0  0  0  0  0  0  0  0  0
  145.6152  134.0520  152.0431 C   0  0  2  0  0  0  0  0  0  0  0  0
  145.6471  135.2799  151.1176 C   0  0  0  0  0  0  0  0  0  0  0  0
  150.6383  141.0653  157.2241 H   0  0  0  0  0  0  0  0  0  0  0  0
  150.8248  142.6674  156.4971 H   0  0  0  0  0  0  0  0  0  0  0  0
  151.6993  141.2857  155.8223 H   0  0  0  0  0  0  0  0  0  0  0  0
  145.7359  142.0744  154.0294 H   0  0  0  0  0  0  0  0  0  0  0  0
  146.6988  142.4699  152.5839 H   0  0  0  0  0  0  0  0  0  0  0  0
  146.7772  143.5188  154.0206 H   0  0  0  0  0  0  0  0  0  0  0  0
  147.5263  138.4011  153.3292 H   0  0  0  0  0  0  0  0  0  0  0  0
  147.5177  139.6277  152.0535 H   0  0  0  0  0  0  0  0  0  0  0  0
  146.2263  139.5938  153.2650 H   0  0  0  0  0  0  0  0  0  0  0  0
  150.2451  138.4712  153.8200 H   0  0  0  0  0  0  0  0  0  0  0  0
  150.9163  138.9481  155.3447 H   0  0  0  0  0  0  0  0  0  0  0  0
  149.8369  137.1503  156.1499 H   0  0  0  0  0  0  0  0  0  0  0  0
  148.5253  138.9480  157.2084 H   0  0  0  0  0  0  0  0  0  0  0  0
  147.5240  137.5227  156.9633 H   0  0  0  0  0  0  0  0  0  0  0  0
  147.3574  138.9106  155.8899 H   0  0  0  0  0  0  0  0  0  0  0  0
  148.9197  136.8766  153.6085 H   0  0  0  0  0  0  0  0  0  0  0  0
  147.6207  135.5423  152.7165 H   0  0  0  0  0  0  0  0  0  0  0  0
  145.2912  134.5012  154.1365 H   0  0  0  0  0  0  0  0  0  0  0  0
  147.7724  132.9776  154.1768 H   0  0  0  0  0  0  0  0  0  0  0  0
  146.2061  132.4943  154.7954 H   0  0  0  0  0  0  0  0  0  0  0  0
  147.3908  131.2497  152.6206 H   0  0  0  0  0  0  0  0  0  0  0  0
  145.6471  131.3553  152.8388 H   0  0  0  0  0  0  0  0  0  0  0  0
  147.3981  133.1884  151.1726 H   0  0  0  0  0  0  0  0  0  0  0  0
  145.9196  132.3691  150.6690 H   0  0  0  0  0  0  0  0  0  0  0  0
  144.5751  133.7304  152.1206 H   0  0  0  0  0  0  0  0  0  0  0  0
  146.6683  135.6075  150.9294 H   0  0  0  0  0  0  0  0  0  0  0  0
  145.0984  136.1162  151.5515 H   0  0  0  0  0  0  0  0  0  0  0  0
  145.1945  135.0512  150.1528 H   0  0  0  0  0  0  0  0  0  0  0  0
  148.6072  143.2015  155.2841 H   0  0  0  0  0  0  0  0  0  0  0  0
  1  2  1  0  0  0  0
  1 22  1  0  0  0  0
  1 23  1  0  0  0  0
  1 24  1  0  0  0  0
  2  8  1  0  0  0  0
  2  3  2  0  0  0  0
  3  4  1  0  0  0  0
  3 50  1  0  0  0  0
  4  5  1  0  0  0  0
  4  6  1  0  0  0  0
  5 25  1  0  0  0  0
  5 26  1  0  0  0  0
  5 27  1  0  0  0  0
  6  7  1  0  0  0  0
  6  8  2  0  0  0  0
  7 28  1  0  0  0  0
  7 29  1  0  0  0  0
  7 30  1  0  0  0  0
  8  9  1  0  0  0  0
  9 10  1  0  0  0  0
  9 31  1  0  0  0  0
  9 32  1  0  0  0  0
 10 11  1  0  0  0  0
 10 12  1  0  0  0  0
 10 33  1  0  0  0  0
 11 34  1  0  0  0  0
 11 35  1  0  0  0  0
 11 36  1  0  0  0  0
 12 13  1  0  0  0  0
 12 37  1  0  0  0  0
 13 14  2  0  0  0  0
 13 15  1  0  0  0  0
 15 16  1  0  0  0  0
 15 38  1  0  0  0  0
 16 20  1  0  0  0  0
 16 17  1  0  0  0  0
 16 39  1  0  0  0  0
 17 18  1  0  0  0  0
 17 40  1  0  0  0  0
 17 41  1  0  0  0  0
 18 19  1  0  0  0  0
 18 42  1  0  0  0  0
 18 43  1  0  0  0  0
 19 20  1  0  0  0  0
 19 44  1  0  0  0  0
 19 45  1  0  0  0  0
 20 21  1  0  0  0  0
 20 46  1  0  0  0  0
 21 47  1  0  0  0  0
 21 48  1  0  0  0  0
 21 49  1  0  0  0  0
M  CHG  1   3   1
M  END
> <s_m_source_file>
AV-unprocessed.smi

> <i_m_source_file_index>
671

> <i_lp_mmshare_version>
43012

> <i_f3d_flags>
0

> <s_epik_input>
W0NIM11jMW5uKFtDSDNdKWMoW0NIM10pYzFbQ0gyXVtDQEhdKFtDSDNdKVtOSF1DKD1PKVtOSF1bQ0BASF0yW0NIMl1bQ0gyXVtDSDJdW0NASF0yW0NIM10=

> <s_epik_cmdline>
J2VwaWtfcHl0aG9uJywgJy1waCcsICc3LjAnLCAnLXRuJywgJzgnLCAnLW1hJywgJzIwMCcsICctbWV0YWxfYmluZGluZycsICctaW1hZScsICc8aW5maWxlLm1hZT4nLCAnLW9tYWUnLCAnPG91dGZpbGUubWFlPic=

> <r_lp_tautomer_probability>
1

> <r_epik_Ionization_Penalty>
2.28705

> <r_epik_Ionization_Penalty_Charging>
2.28698

> <r_epik_Ionization_Penalty_Neutral>
6.23157e-05

> <r_epik_State_Penalty>
2.43671

> <r_epik_Charging_Adjusted_Penalty>
4.72369

> <i_epik_Tot_Q>
1

> <i_epik_Tot_abs_Q>
1

> <r_epik_Metal_State_Penalty>
2.44911

> <b_epik_Metal_Only>
0

> <s_lp_Force_Field>
OPLS_2005

> <r_lp_Energy>
35.2288

> <b_lp_Chiralities_Consistent>
1

> <s_lp_Variant>
AV-unprocessed.smi:671-14

> <Gold.Version>
5.8.1

> <Gold.Id.Protein>
6NUR|6NUR_protein|mol2

> <Gold.PLP.Fitness>
45.3469

> <Gold.PLP.PLP>
-35.5194

> <Gold.PLP.part.hbond>
-3.0000

> <Gold.PLP.part.metal>
0.0000

> <Gold.PLP.part.buried>
-4.5894

> <Gold.PLP.part.nonpolar>
-28.7097

> <Gold.PLP.part.repulsive>
0.2266

> <Gold.PLP.ligand.clash>
0.0000

> <Gold.PLP.ligand.torsion>
1.0016

> <Gold.PLP.Chemscore.Hbond>
3.9360

> <Gold.PLP.Chemscore.CHOScore>
0.0000

> <Gold.PLP.Chemscore.Metal>
0.0000

> <Gold.Chemscore.Hbonds>
donor molecule, donor type, donor heavy atom, donor atom, acceptor molecule, acceptor atom, score
      L1  H     3    50       P1  8028  2.00
      L1  H    12    37       P1  7948  0.99
      L1  H    15    38       P1  7948  1.00

> <Gold.PLP.Chemscore.Internal.Correction>
0.0229

> <Gold.Rescore>
     Score         DG    S(hbond)    S(metal)    S(lipo)     H(rot)  DE(clash)    DE(int)     intcor
     18.47     -20.46       2.90        0.00      78.08       1.51       0.02       1.97       ----

> <Gold.Chemscore.Fitness>
18.4667

> <Gold.Chemscore.DG>
-20.4615

> <Gold.Chemscore.ZeroCoef>
-5.4800

> <Gold.Chemscore.Hbond>
2.9045

> <Gold.Chemscore.Metal>
0.0000

> <Gold.Chemscore.Lipo>
78.0790

> <Gold.Chemscore.Internal_Hbond>
0.0000

> <Gold.Chemscore.DEClash>
0.0235

> <Gold.Chemscore.DEInternal>
1.9714

> <Gold.Chemscore.Rot>
1.5057

> <Gold.Chemscore.Internal.Correction>
   9.000000E+99

> <Gold.Chemscore.Hbonds>
donor molecule, donor type, donor heavy atom, donor atom, acceptor molecule, acceptor atom, score
      L1  H     3    50       P1  8028  0.97
      L1  H    12    37       P1  7948  0.93
      L1  H    15    38       P1  7948  0.96

> <Gold.Chemscore.Hbond.Weighted>
-9.7010

> <Gold.Chemscore.Metal.Weighted>
-0.0000

> <Gold.Chemscore.Lipo.Weighted>
-9.1352

> <Gold.Chemscore.Internal_Hbond.Weighted>
0.0000

> <Gold.Chemscore.DEClash.Weighted>
0.0235

> <Gold.Chemscore.DEInternal.Weighted>
1.9714

> <Gold.Chemscore.Rot.Weighted>
3.8547

> <Gold.Chemscore.Internal.Correction.Weighted>
   9.000000E+99

> <Gold.Protein.RotatedTorsions>
[ 6907 6896 6895 6894 ] final  134.30 input  -60.11 | X-H torsion
[ 7974 7965 7964 7962 ] final    5.29 input  175.53 | X-H torsion
[ 8008 7997 7996 7995 ] final  116.53 input   59.86 | X-H torsion
[ 10167 10162 10161 10158 ] final  158.41 input  -65.29 | X-H torsion
[ 10718 10713 10712 10709 ] final  -61.53 input   66.30 | X-H torsion
[ 10763 10752 10751 10750 ] final  157.82 input  -60.55 | X-H torsion
[ 11005 11000 10999 10996 ] final   20.72 input  -57.11 | X-H torsion

> <Gold.Protein.ActiveResidues>
 VAL166  LYS551  ARG553  GLY616  TRP617  ASP618  TYR619  PRO620  LYS621  CYS622 
 ASP623  PHE694  ASN695  SER759  ASP760  ASP761  ALA762  ILE779  LEU786  VAL792 
 PHE793  MET794  SER795  GLU796  ALA797  LYS798  CYS799  TRP800  GLU811  SER814 

> <Gold.Protein.RotatedAtoms>
  152.3128  133.5770  159.5691 H   0  0  0  0  0  0  0  0  0  0  0  0  # atno 6907 bound_to 6896
  150.7331  134.0127  159.3684 H   0  0  0  0  0  0  0  0  0  0  0  0  # atno 6908 bound_to 6896
  151.8018  135.0707  160.0452 H   0  0  0  0  0  0  0  0  0  0  0  0  # atno 6909 bound_to 6896
  146.2441  140.0406  142.8382 H   0  0  0  0  0  0  0  0  0  0  0  0  # atno 7974 bound_to 7965
  156.2444  140.2915  156.0537 H   0  0  0  0  0  0  0  0  0  0  0  0  # atno 8008 bound_to 7997
  155.1852  140.0405  157.2907 H   0  0  0  0  0  0  0  0  0  0  0  0  # atno 8009 bound_to 7997
  154.6232  140.2481  155.7531 H   0  0  0  0  0  0  0  0  0  0  0  0  # atno 8010 bound_to 7997
  139.4827  144.4827  151.8421 H   0  0  0  0  0  0  0  0  0  0  0  0  # atno 10167 bound_to 10162
  156.0916  130.4199  150.1006 H   0  0  0  0  0  0  0  0  0  0  0  0  # atno 10718 bound_to 10713
  154.2062  135.2788  155.2974 H   0  0  0  0  0  0  0  0  0  0  0  0  # atno 10763 bound_to 10752
  154.5815  135.5588  153.7193 H   0  0  0  0  0  0  0  0  0  0  0  0  # atno 10764 bound_to 10752
  153.0075  135.6346  154.2201 H   0  0  0  0  0  0  0  0  0  0  0  0  # atno 10765 bound_to 10752
  140.3995  134.1733  155.7663 H   0  0  0  0  0  0  0  0  0  0  0  0  # atno 11005 bound_to 11000
  145.1073  140.9383  143.4677 LP  0  0  0  0  0  0  0  0  0  0  0  0  # atno 17320 bound_to 7965
  145.0612  139.3104  143.5879 LP  0  0  0  0  0  0  0  0  0  0  0  0  # atno 17321 bound_to 7965
  140.4304  144.2123  150.5888 LP  0  0  0  0  0  0  0  0  0  0  0  0  # atno 17342 bound_to 10162
  140.4785  143.2387  151.8989 LP  0  0  0  0  0  0  0  0  0  0  0  0  # atno 17343 bound_to 10162
  156.9015  130.9622  151.3575 LP  0  0  0  0  0  0  0  0  0  0  0  0  # atno 17370 bound_to 10713
  157.6066  130.8552  149.8885 LP  0  0  0  0  0  0  0  0  0  0  0  0  # atno 17371 bound_to 10713
  141.1862  133.8308  157.1078 LP  0  0  0  0  0  0  0  0  0  0  0  0  # atno 17394 bound_to 11000
  140.0347  134.9884  157.0848 LP  0  0  0  0  0  0  0  0  0  0  0  0  # atno 17395 bound_to 11000

$$$$
