AV-unprocessed.smi:2739|AV-procd|sdf|10551|dock3
  -GOLD-   2272015 03D 1   1.00000     0.00000
 Structure written by MMmdl.
 35 35  0  0  0  0  0  0  0  0  1 V2000
  152.0918  145.0369  159.2381 C   0  0  0  0  0  0  0  0  0  0  0  0
  151.8659  143.7049  158.5082 C   0  0  0  0  0  0  0  0  0  0  0  0
  152.6273  142.5135  159.1304 C   0  0  1  0  0  0  0  0  0  0  0  0
  152.6329  142.5591  160.6687 C   0  0  0  0  0  0  0  0  0  0  0  0
  152.1637  141.2154  158.6339 N   0  0  0  0  0  0  0  0  0  0  0  0
  152.8706  140.0755  158.5389 C   0  0  0  0  0  0  0  0  0  0  0  0
  154.0439  139.9627  158.8918 O   0  0  0  0  0  0  0  0  0  0  0  0
  152.1362  138.8726  157.9469 C   0  0  0  0  0  0  0  0  0  0  0  0
  151.5468  139.2049  156.6625 N   0  0  0  0  0  0  0  0  0  0  0  0
  151.7014  138.5568  155.4560 C   0  0  0  0  0  0  0  0  0  0  0  0
  150.9636  139.2395  154.5323 C   0  0  0  0  0  0  0  0  0  0  0  0
  150.3840  140.3101  155.2739 C   0  0  0  0  0  0  0  0  0  0  0  0
  149.4626  141.3991  154.7888 C   0  0  2  0  0  0  0  0  0  0  0  0
  148.1212  141.3736  155.5342 C   0  0  0  0  0  0  0  0  0  0  0  0
  149.2019  141.2991  153.4040 O   0  0  0  0  0  0  0  0  0  0  0  0
  150.7376  140.2804  156.5509 N   0  0  0  0  0  0  0  0  0  0  0  0
  151.4907  145.8282  158.7894 H   0  0  0  0  0  0  0  0  0  0  0  0
  153.1350  145.3497  159.1889 H   0  0  0  0  0  0  0  0  0  0  0  0
  151.8120  144.9623  160.2892 H   0  0  0  0  0  0  0  0  0  0  0  0
  150.7981  143.4836  158.5176 H   0  0  0  0  0  0  0  0  0  0  0  0
  152.1337  143.8196  157.4575 H   0  0  0  0  0  0  0  0  0  0  0  0
  153.6665  142.5898  158.8082 H   0  0  0  0  0  0  0  0  0  0  0  0
  153.1024  143.4747  161.0289 H   0  0  0  0  0  0  0  0  0  0  0  0
  153.1908  141.7195  161.0845 H   0  0  0  0  0  0  0  0  0  0  0  0
  151.6239  142.5258  161.0802 H   0  0  0  0  0  0  0  0  0  0  0  0
  151.2074  141.1847  158.3102 H   0  0  0  0  0  0  0  0  0  0  0  0
  152.8297  138.0419  157.8093 H   0  0  0  0  0  0  0  0  0  0  0  0
  151.3579  138.5314  158.6318 H   0  0  0  0  0  0  0  0  0  0  0  0
  152.3181  137.6755  155.3568 H   0  0  0  0  0  0  0  0  0  0  0  0
  150.8540  139.0091  153.4829 H   0  0  0  0  0  0  0  0  0  0  0  0
  149.9319  142.3702  154.9522 H   0  0  0  0  0  0  0  0  0  0  0  0
  148.2661  141.5046  156.6070 H   0  0  0  0  0  0  0  0  0  0  0  0
  147.6011  140.4269  155.3823 H   0  0  0  0  0  0  0  0  0  0  0  0
  147.4646  142.1740  155.1917 H   0  0  0  0  0  0  0  0  0  0  0  0
  148.5534  140.6246  153.2710 H   0  0  0  0  0  0  0  0  0  0  0  0
  1  2  1  0  0  0  0
  1 17  1  0  0  0  0
  1 18  1  0  0  0  0
  1 19  1  0  0  0  0
  2  3  1  0  0  0  0
  2 20  1  0  0  0  0
  2 21  1  0  0  0  0
  3  4  1  0  0  0  0
  3  5  1  0  0  0  0
  3 22  1  0  0  0  0
  4 23  1  0  0  0  0
  4 24  1  0  0  0  0
  4 25  1  0  0  0  0
  5  6  1  0  0  0  0
  5 26  1  0  0  0  0
  6  7  2  0  0  0  0
  6  8  1  0  0  0  0
  8  9  1  0  0  0  0
  8 27  1  0  0  0  0
  8 28  1  0  0  0  0
  9 16  1  0  0  0  0
  9 10  1  0  0  0  0
 10 11  2  0  0  0  0
 10 29  1  0  0  0  0
 11 12  1  0  0  0  0
 11 30  1  0  0  0  0
 12 13  1  0  0  0  0
 12 16  2  0  0  0  0
 13 14  1  0  0  0  0
 13 15  1  0  0  0  0
 13 31  1  0  0  0  0
 14 32  1  0  0  0  0
 14 33  1  0  0  0  0
 14 34  1  0  0  0  0
 15 35  1  0  0  0  0
M  END
> <s_m_source_file>
AV-unprocessed.smi

> <i_m_source_file_index>
2739

> <i_lp_mmshare_version>
43012

> <i_f3d_flags>
0

> <s_epik_input>
W0NIM11bQ0gyXVtDQEhdKFtDSDNdKVtOSF1DKD1PKVtDSDJdbjFbY0hdW2NIXWMobjEpW0NASF0oW0NIM10pW09IXQ==

> <s_epik_cmdline>
J2VwaWtfcHl0aG9uJywgJy1waCcsICc3LjAnLCAnLXRuJywgJzgnLCAnLW1hJywgJzIwMCcsICctbWV0YWxfYmluZGluZycsICctaW1hZScsICc8aW5maWxlLm1hZT4nLCAnLW9tYWUnLCAnPG91dGZpbGUubWFlPic=

> <r_lp_tautomer_probability>
1

> <r_epik_Ionization_Penalty>
5.22246e-06

> <r_epik_Ionization_Penalty_Charging>
0

> <r_epik_Ionization_Penalty_Neutral>
5.22246e-06

> <r_epik_State_Penalty>
-0

> <r_epik_Charging_Adjusted_Penalty>
0

> <i_epik_Tot_Q>
0

> <i_epik_Tot_abs_Q>
0

> <r_epik_Metal_State_Penalty>
-0

> <b_epik_Metal_Only>
0

> <s_lp_Force_Field>
OPLS_2005

> <r_lp_Energy>
1.58762

> <b_lp_Chiralities_Consistent>
1

> <s_lp_Variant>
AV-unprocessed.smi:2739-2

> <Gold.Version>
5.8.1

> <Gold.Id.Protein>
6NUR|6NUR_protein|mol2

> <Gold.PLP.Fitness>
42.1547

> <Gold.PLP.PLP>
-37.1299

> <Gold.PLP.part.hbond>
-4.0000

> <Gold.PLP.part.metal>
0.0000

> <Gold.PLP.part.buried>
-2.3876

> <Gold.PLP.part.nonpolar>
-30.8560

> <Gold.PLP.part.repulsive>
0.1071

> <Gold.PLP.ligand.clash>
0.0000

> <Gold.PLP.ligand.torsion>
0.5596

> <Gold.PLP.Chemscore.Hbond>
2.0000

> <Gold.PLP.Chemscore.CHOScore>
0.0000

> <Gold.PLP.Chemscore.Metal>
0.0000

> <Gold.Chemscore.Hbonds>
donor molecule, donor type, donor heavy atom, donor atom, acceptor molecule, acceptor atom, score
      P1  H  7997  8008       L1     7  1.00
      P1  H  8011  8017       L1    15  0.99

> <Gold.PLP.Chemscore.Internal.Correction>
0.1440

> <Gold.Rescore>
     Score         DG    S(hbond)    S(metal)    S(lipo)     H(rot)  DE(clash)    DE(int)     intcor
     13.52     -15.61       1.89        0.00      83.93       2.34       0.04       2.05       ----

> <Gold.Chemscore.Fitness>
13.5233

> <Gold.Chemscore.DG>
-15.6125

> <Gold.Chemscore.ZeroCoef>
-5.4800

> <Gold.Chemscore.Hbond>
1.8909

> <Gold.Chemscore.Metal>
0.0000

> <Gold.Chemscore.Lipo>
83.9283

> <Gold.Chemscore.Internal_Hbond>
0.0000

> <Gold.Chemscore.DEClash>
0.0391

> <Gold.Chemscore.DEInternal>
2.0500

> <Gold.Chemscore.Rot>
2.3448

> <Gold.Chemscore.Internal.Correction>
   9.000000E+99

> <Gold.Chemscore.Hbonds>
donor molecule, donor type, donor heavy atom, donor atom, acceptor molecule, acceptor atom, score
      P1  H  7997  8008       L1     7  0.25
      P1  H  8011  8017       L1    15  0.93

> <Gold.Chemscore.Hbond.Weighted>
-6.3156

> <Gold.Chemscore.Metal.Weighted>
-0.0000

> <Gold.Chemscore.Lipo.Weighted>
-9.8196

> <Gold.Chemscore.Internal_Hbond.Weighted>
0.0000

> <Gold.Chemscore.DEClash.Weighted>
0.0391

> <Gold.Chemscore.DEInternal.Weighted>
2.0500

> <Gold.Chemscore.Rot.Weighted>
6.0027

> <Gold.Chemscore.Internal.Correction.Weighted>
   9.000000E+99

> <Gold.Protein.RotatedTorsions>
[ 6907 6896 6895 6894 ] final -120.55 input  -60.11 | X-H torsion
[ 7974 7965 7964 7962 ] final  116.16 input  175.53 | X-H torsion
[ 8008 7997 7996 7995 ] final -106.73 input   59.86 | X-H torsion
[ 10167 10162 10161 10158 ] final  -50.61 input  -65.29 | X-H torsion
[ 10718 10713 10712 10709 ] final -131.17 input   66.30 | X-H torsion
[ 10763 10752 10751 10750 ] final  -58.31 input  -60.55 | X-H torsion
[ 11005 11000 10999 10996 ] final  -80.78 input  -57.11 | X-H torsion

> <Gold.Protein.ActiveResidues>
 VAL166  LYS551  ARG553  GLY616  TRP617  ASP618  TYR619  PRO620  LYS621  CYS622 
 ASP623  PHE694  ASN695  SER759  ASP760  ASP761  ALA762  ILE779  LEU786  VAL792 
 PHE793  MET794  SER795  GLU796  ALA797  LYS798  CYS799  TRP800  GLU811  SER814 

> <Gold.Protein.RotatedAtoms>
  150.8403  133.7946  159.3063 H   0  0  0  0  0  0  0  0  0  0  0  0  # atno 6907 bound_to 6896
  151.5650  135.1063  159.9991 H   0  0  0  0  0  0  0  0  0  0  0  0  # atno 6908 bound_to 6896
  152.4468  133.7509  159.6750 H   0  0  0  0  0  0  0  0  0  0  0  0  # atno 6909 bound_to 6896
  145.1831  139.3039  143.4407 H   0  0  0  0  0  0  0  0  0  0  0  0  # atno 7974 bound_to 7965
  154.9188  140.0408  157.1987 H   0  0  0  0  0  0  0  0  0  0  0  0  # atno 8008 bound_to 7997
  154.8274  140.2893  155.5724 H   0  0  0  0  0  0  0  0  0  0  0  0  # atno 8009 bound_to 7997
  156.2984  140.2507  156.3193 H   0  0  0  0  0  0  0  0  0  0  0  0  # atno 8010 bound_to 7997
  140.6629  143.2651  151.4384 H   0  0  0  0  0  0  0  0  0  0  0  0  # atno 10167 bound_to 10162
  156.2217  130.6983  151.0763 H   0  0  0  0  0  0  0  0  0  0  0  0  # atno 10718 bound_to 10713
  154.2361  135.6352  153.5191 H   0  0  0  0  0  0  0  0  0  0  0  0  # atno 10763 bound_to 10752
  152.9939  135.5531  154.5961 H   0  0  0  0  0  0  0  0  0  0  0  0  # atno 10764 bound_to 10752
  154.5455  135.2898  155.1031 H   0  0  0  0  0  0  0  0  0  0  0  0  # atno 10765 bound_to 10752
  141.1667  133.7166  156.8323 H   0  0  0  0  0  0  0  0  0  0  0  0  # atno 11005 bound_to 11000
  146.3449  140.2017  142.8589 LP  0  0  0  0  0  0  0  0  0  0  0  0  # atno 17320 bound_to 7965
  145.0116  140.8719  143.5220 LP  0  0  0  0  0  0  0  0  0  0  0  0  # atno 17321 bound_to 7965
  139.5868  144.1586  152.2039 LP  0  0  0  0  0  0  0  0  0  0  0  0  # atno 17342 bound_to 10162
  140.0928  144.5606  150.7043 LP  0  0  0  0  0  0  0  0  0  0  0  0  # atno 17343 bound_to 10162
  157.7091  131.0743  150.6565 LP  0  0  0  0  0  0  0  0  0  0  0  0  # atno 17370 bound_to 10713
  156.6628  130.4517  149.5682 LP  0  0  0  0  0  0  0  0  0  0  0  0  # atno 17371 bound_to 10713
  140.2042  134.8875  157.3203 LP  0  0  0  0  0  0  0  0  0  0  0  0  # atno 17394 bound_to 11000
  140.2155  134.4087  155.7591 LP  0  0  0  0  0  0  0  0  0  0  0  0  # atno 17395 bound_to 11000

$$$$
