AV-unprocessed.smi:67|AV-procd|sdf|630|dock9
  -GOLD-   2262016523D 1   1.00000     0.00000
 Structure written by MMmdl.
 49 51  0  0  0  0  0  0  0  0  3 V2000
  146.6614  135.2027  152.1723 O   0  0  0  0  0  0  0  0  0  0  0  0
  145.7226  136.2599  152.0724 C   0  0  2  0  0  0  0  0  0  0  0  0
  145.7039  137.0286  153.4125 C   0  0  0  0  0  0  0  0  0  0  0  0
  146.9308  137.8480  153.6011 N   0  3  2  0  0  0  0  0  0  0  0  0
  147.5471  137.6770  154.9424 C   0  0  0  0  0  0  0  0  0  0  0  0
  148.9267  138.3529  155.0070 C   0  0  0  0  0  0  0  0  0  0  0  0
  148.8338  139.8334  154.5797 C   0  0  1  0  0  0  0  0  0  0  0  0
  150.0587  140.5637  154.6860 O   0  0  0  0  0  0  0  0  0  0  0  0
  150.6305  140.9167  155.8942 C   0  0  0  0  0  0  0  0  0  0  0  0
  151.1495  139.8527  156.6604 C   0  0  0  0  0  0  0  0  0  0  0  0
  151.7564  140.0850  157.9086 C   0  0  0  0  0  0  0  0  0  0  0  0
  151.8537  141.3946  158.4116 C   0  0  0  0  0  0  0  0  0  0  0  0
  151.3416  142.4757  157.6641 C   0  0  0  0  0  0  0  0  0  0  0  0
  151.4285  143.9043  158.1798 C   0  0  0  0  0  0  0  0  0  0  0  0
  150.1993  144.3762  158.3868 F   0  0  0  0  0  0  0  0  0  0  0  0
  152.1119  143.9852  159.3218 F   0  0  0  0  0  0  0  0  0  0  0  0
  152.0317  144.6684  157.2693 F   0  0  0  0  0  0  0  0  0  0  0  0
  150.7350  142.2316  156.4136 C   0  0  0  0  0  0  0  0  0  0  0  0
  148.0784  140.0326  153.2483 C   0  0  0  0  0  0  0  0  0  0  0  0
  146.7367  139.2829  153.2657 C   0  0  0  0  0  0  0  0  0  0  0  0
  144.3612  135.6652  151.7002 C   0  0  0  0  0  0  0  0  0  0  0  0
  144.4424  135.4582  150.1854 C   0  0  0  0  0  0  0  0  0  0  0  0
  145.4103  136.4523  149.6826 N   0  3  0  0  0  0  0  0  0  0  0  0
  146.0495  137.1150  150.8373 C   0  0  0  0  0  0  0  0  0  0  0  0
  147.5344  135.5667  152.1699 H   0  0  0  0  0  0  0  0  0  0  0  0
  144.8163  137.6610  153.4717 H   0  0  0  0  0  0  0  0  0  0  0  0
  145.5980  136.3118  154.2287 H   0  0  0  0  0  0  0  0  0  0  0  0
  146.8851  138.0907  155.7050 H   0  0  0  0  0  0  0  0  0  0  0  0
  147.6622  136.6149  155.1629 H   0  0  0  0  0  0  0  0  0  0  0  0
  149.3168  138.2896  156.0233 H   0  0  0  0  0  0  0  0  0  0  0  0
  149.6187  137.7857  154.3903 H   0  0  0  0  0  0  0  0  0  0  0  0
  148.2067  140.3079  155.3357 H   0  0  0  0  0  0  0  0  0  0  0  0
  151.0814  138.8419  156.2855 H   0  0  0  0  0  0  0  0  0  0  0  0
  152.1478  139.2565  158.4805 H   0  0  0  0  0  0  0  0  0  0  0  0
  152.3219  141.5586  159.3708 H   0  0  0  0  0  0  0  0  0  0  0  0
  150.3604  143.0877  155.8816 H   0  0  0  0  0  0  0  0  0  0  0  0
  147.9001  141.0959  153.0853 H   0  0  0  0  0  0  0  0  0  0  0  0
  148.6527  139.6949  152.3898 H   0  0  0  0  0  0  0  0  0  0  0  0
  146.2622  139.3781  152.2891 H   0  0  0  0  0  0  0  0  0  0  0  0
  146.0598  139.7377  153.9909 H   0  0  0  0  0  0  0  0  0  0  0  0
  144.1243  134.7479  152.2411 H   0  0  0  0  0  0  0  0  0  0  0  0
  143.5706  136.3851  151.9179 H   0  0  0  0  0  0  0  0  0  0  0  0
  144.8248  134.4622  149.9597 H   0  0  0  0  0  0  0  0  0  0  0  0
  143.4728  135.5641  149.6985 H   0  0  0  0  0  0  0  0  0  0  0  0
  146.1113  135.9738  149.1345 H   0  0  0  0  0  0  0  0  0  0  0  0
  145.5948  138.1015  150.9325 H   0  0  0  0  0  0  0  0  0  0  0  0
  147.1197  137.2578  150.6809 H   0  0  0  0  0  0  0  0  0  0  0  0
  144.9435  137.1398  149.1082 H   0  0  0  0  0  0  0  0  0  0  0  0
  147.6048  137.4850  152.9417 H   0  0  0  0  0  0  0  0  0  0  0  0
  1  2  1  0  0  0  0
  1 25  1  0  0  0  0
  2 24  1  0  0  0  0
  2  3  1  0  0  0  0
  2 21  1  0  0  0  0
  3  4  1  0  0  0  0
  3 26  1  0  0  0  0
  3 27  1  0  0  0  0
  4 20  1  0  0  0  0
  4  5  1  0  0  0  0
  4 49  1  0  0  0  0
  5  6  1  0  0  0  0
  5 28  1  0  0  0  0
  5 29  1  0  0  0  0
  6  7  1  0  0  0  0
  6 30  1  0  0  0  0
  6 31  1  0  0  0  0
  7  8  1  0  0  0  0
  7 19  1  0  0  0  0
  7 32  1  0  0  0  0
  8  9  1  0  0  0  0
  9 18  1  0  0  0  0
  9 10  2  0  0  0  0
 10 11  1  0  0  0  0
 10 33  1  0  0  0  0
 11 12  2  0  0  0  0
 11 34  1  0  0  0  0
 12 13  1  0  0  0  0
 12 35  1  0  0  0  0
 13 14  1  0  0  0  0
 13 18  2  0  0  0  0
 14 15  1  0  0  0  0
 14 16  1  0  0  0  0
 14 17  1  0  0  0  0
 18 36  1  0  0  0  0
 19 20  1  0  0  0  0
 19 37  1  0  0  0  0
 19 38  1  0  0  0  0
 20 39  1  0  0  0  0
 20 40  1  0  0  0  0
 21 22  1  0  0  0  0
 21 41  1  0  0  0  0
 21 42  1  0  0  0  0
 22 23  1  0  0  0  0
 22 43  1  0  0  0  0
 22 44  1  0  0  0  0
 23 24  1  0  0  0  0
 23 45  1  0  0  0  0
 23 48  1  0  0  0  0
 24 46  1  0  0  0  0
 24 47  1  0  0  0  0
M  CHG  1   4   1
M  CHG  1  23   1
M  END
> <s_m_source_file>
AV-unprocessed.smi

> <i_m_source_file_index>
67

> <i_lp_mmshare_version>
43012

> <i_f3d_flags>
0

> <s_epik_input>
W0NIMl0xW05IXVtDSDJdW0NIMl1bQ0BAXTEoW09IXSlbQ0gyXU4yW0NIMl1bQ0gyXVtDSF0oW0NIMl1bQ0gyXTIpT2MzW2NIXVtjSF1bY0hdYyhDKEYpKEYpRilbY0hdMw==

> <s_epik_cmdline>
J2VwaWtfcHl0aG9uJywgJy1waCcsICc3LjAnLCAnLXRuJywgJzgnLCAnLW1hJywgJzIwMCcsICctbWV0YWxfYmluZGluZycsICctaW1hZScsICc8aW5maWxlLm1hZT4nLCAnLW9tYWUnLCAnPG91dGZpbGUubWFlPic=

> <r_lp_tautomer_probability>
1

> <r_epik_Ionization_Penalty>
0.0989853

> <r_epik_Ionization_Penalty_Charging>
0.0989662

> <r_epik_Ionization_Penalty_Neutral>
1.91014e-05

> <r_epik_State_Penalty>
0.0852826

> <r_epik_Charging_Adjusted_Penalty>
0.184249

> <i_epik_Tot_Q>
2

> <i_epik_Tot_abs_Q>
2

> <r_epik_Metal_State_Penalty>
0.0849414

> <b_epik_Metal_Only>
0

> <s_lp_Force_Field>
OPLS_2005

> <r_lp_Energy>
59.8113

> <b_lp_Chiralities_Consistent>
1

> <s_lp_Variant>
AV-unprocessed.smi:67-2

> <Gold.Version>
5.8.1

> <Gold.Id.Protein>
6NUR|6NUR_protein|mol2

> <Gold.PLP.Fitness>
58.1624

> <Gold.PLP.PLP>
-43.3279

> <Gold.PLP.part.hbond>
-4.7930

> <Gold.PLP.part.metal>
0.0000

> <Gold.PLP.part.buried>
1.1331

> <Gold.PLP.part.nonpolar>
-40.0312

> <Gold.PLP.part.repulsive>
0.2529

> <Gold.PLP.ligand.clash>
0.0000

> <Gold.PLP.ligand.torsion>
1.0193

> <Gold.PLP.Chemscore.Hbond>
5.4480

> <Gold.PLP.Chemscore.CHOScore>
0.0000

> <Gold.PLP.Chemscore.Metal>
0.0000

> <Gold.Chemscore.Hbonds>
donor molecule, donor type, donor heavy atom, donor atom, acceptor molecule, acceptor atom, score
      L1  H     1    25       P1  7948  1.00
      L1  H     4    49       P1  7948  1.53
      L1  H    23    45       P1  7921  0.75
      L1  H    23    48       P1 10171  0.51
      P1  H  7989  7998       L1     8  0.84

> <Gold.PLP.Chemscore.Internal.Correction>
0.5291

> <Gold.Rescore>
     Score         DG    S(hbond)    S(metal)    S(lipo)     H(rot)  DE(clash)    DE(int)     intcor
     21.16     -24.10       4.00        0.00      93.84       2.24       1.86       1.08       ----

> <Gold.Chemscore.Fitness>
21.1628

> <Gold.Chemscore.DG>
-24.1026

> <Gold.Chemscore.ZeroCoef>
-5.4800

> <Gold.Chemscore.Hbond>
4.0015

> <Gold.Chemscore.Metal>
0.0000

> <Gold.Chemscore.Lipo>
93.8426

> <Gold.Chemscore.Internal_Hbond>
0.0000

> <Gold.Chemscore.DEClash>
1.8556

> <Gold.Chemscore.DEInternal>
1.0843

> <Gold.Chemscore.Rot>
2.2352

> <Gold.Chemscore.Internal.Correction>
   9.000000E+99

> <Gold.Chemscore.Hbonds>
donor molecule, donor type, donor heavy atom, donor atom, acceptor molecule, acceptor atom, score
      L1  H     1    25       P1  7948  0.97
      L1  H     4    49       P1  7948  0.75
      L1  H    23    45       P1  7921  0.73
      L1  H    23    48       P1 10171  0.52
      P1  H  7989  7998       L1     8  0.18

> <Gold.Chemscore.Hbond.Weighted>
-13.3652

> <Gold.Chemscore.Metal.Weighted>
-0.0000

> <Gold.Chemscore.Lipo.Weighted>
-10.9796

> <Gold.Chemscore.Internal_Hbond.Weighted>
0.0000

> <Gold.Chemscore.DEClash.Weighted>
1.8556

> <Gold.Chemscore.DEInternal.Weighted>
1.0843

> <Gold.Chemscore.Rot.Weighted>
5.7221

> <Gold.Chemscore.Internal.Correction.Weighted>
   9.000000E+99

> <Gold.Protein.RotatedTorsions>
[ 6907 6896 6895 6894 ] final  140.28 input  -60.11 | X-H torsion
[ 7974 7965 7964 7962 ] final -154.21 input  175.53 | X-H torsion
[ 8008 7997 7996 7995 ] final -107.90 input   59.86 | X-H torsion
[ 10167 10162 10161 10158 ] final  148.23 input  -65.29 | X-H torsion
[ 10718 10713 10712 10709 ] final   35.57 input   66.30 | X-H torsion
[ 10763 10752 10751 10750 ] final   70.77 input  -60.55 | X-H torsion
[ 11005 11000 10999 10996 ] final   55.65 input  -57.11 | X-H torsion

> <Gold.Protein.ActiveResidues>
 VAL166  LYS551  ARG553  GLY616  TRP617  ASP618  TYR619  PRO620  LYS621  CYS622 
 ASP623  PHE694  ASN695  SER759  ASP760  ASP761  ALA762  ILE779  LEU786  VAL792 
 PHE793  MET794  SER795  GLU796  ALA797  LYS798  CYS799  TRP800  GLU811  SER814 

> <Gold.Protein.RotatedAtoms>
  152.2449  133.5166  159.5291 H   0  0  0  0  0  0  0  0  0  0  0  0  # atno 6907 bound_to 6896
  150.7075  134.1039  159.3984 H   0  0  0  0  0  0  0  0  0  0  0  0  # atno 6908 bound_to 6896
  151.8959  135.0398  160.0553 H   0  0  0  0  0  0  0  0  0  0  0  0  # atno 6909 bound_to 6896
  144.7701  140.4419  143.5913 H   0  0  0  0  0  0  0  0  0  0  0  0  # atno 7974 bound_to 7965
  154.9363  140.0404  157.2074 H   0  0  0  0  0  0  0  0  0  0  0  0  # atno 8008 bound_to 7997
  154.8112  140.2868  155.5830 H   0  0  0  0  0  0  0  0  0  0  0  0  # atno 8009 bound_to 7997
  156.2971  140.2536  156.3000 H   0  0  0  0  0  0  0  0  0  0  0  0  # atno 8010 bound_to 7997
  139.4878  144.5696  151.7081 H   0  0  0  0  0  0  0  0  0  0  0  0  # atno 10167 bound_to 10162
  157.3243  130.7464  149.6805 H   0  0  0  0  0  0  0  0  0  0  0  0  # atno 10718 bound_to 10713
  153.0361  135.5161  154.7492 H   0  0  0  0  0  0  0  0  0  0  0  0  # atno 10763 bound_to 10752
  154.6468  135.2919  155.0038 H   0  0  0  0  0  0  0  0  0  0  0  0  # atno 10764 bound_to 10752
  154.0937  135.6646  153.4909 H   0  0  0  0  0  0  0  0  0  0  0  0  # atno 10765 bound_to 10752
  140.0590  134.5629  155.9174 H   0  0  0  0  0  0  0  0  0  0  0  0  # atno 11005 bound_to 11000
  145.6351  139.1542  143.2947 LP  0  0  0  0  0  0  0  0  0  0  0  0  # atno 17320 bound_to 7965
  146.1840  140.6452  142.9176 LP  0  0  0  0  0  0  0  0  0  0  0  0  # atno 17321 bound_to 7965
  140.5280  144.0775  150.6044 LP  0  0  0  0  0  0  0  0  0  0  0  0  # atno 17342 bound_to 10162
  140.3755  143.2831  152.0229 LP  0  0  0  0  0  0  0  0  0  0  0  0  # atno 17343 bound_to 10162
  155.9689  130.4214  150.4467 LP  0  0  0  0  0  0  0  0  0  0  0  0  # atno 17370 bound_to 10713
  157.2488  131.0542  151.2392 LP  0  0  0  0  0  0  0  0  0  0  0  0  # atno 17371 bound_to 10713
  141.1965  133.6592  156.5694 LP  0  0  0  0  0  0  0  0  0  0  0  0  # atno 17394 bound_to 11000
  140.3799  134.7532  157.4654 LP  0  0  0  0  0  0  0  0  0  0  0  0  # atno 17395 bound_to 11000

$$$$
