AV-unprocessed.smi:2293|AV-procd|sdf|9214|dock10
  -GOLD-   2272012433D 1   1.00000     0.00000
 Structure written by MMmdl.
 34 35  0  0  0  0  0  0  0  0  1 V2000
  150.0204  140.8517  154.7443 C   0  0  0  0  0  0  0  0  0  0  0  0
  150.8819  140.4696  155.9352 C   0  0  0  0  0  0  0  0  0  0  0  0
  150.6444  141.1911  157.1087 N   0  0  0  0  0  0  0  0  0  0  0  0
  151.3286  140.9321  158.1748 C   0  0  0  0  0  0  0  0  0  0  0  0
  152.3192  139.9366  158.1920 N   0  0  0  0  0  0  0  0  0  0  0  0
  153.0184  139.7332  159.4721 C   0  0  0  0  0  0  0  0  0  0  0  0
  154.0557  140.8430  159.7545 C   0  0  2  0  0  0  0  0  0  0  0  0
  154.9238  140.4015  160.7797 O   0  0  0  0  0  0  0  0  0  0  0  0
  153.3703  142.1472  160.1331 C   0  0  0  0  0  0  0  0  0  0  0  0
  152.9804  142.3737  161.4706 C   0  0  0  0  0  0  0  0  0  0  0  0
  152.3501  143.5803  161.8324 C   0  0  0  0  0  0  0  0  0  0  0  0
  152.1092  144.5691  160.8594 C   0  0  0  0  0  0  0  0  0  0  0  0
  152.5010  144.3517  159.5243 C   0  0  0  0  0  0  0  0  0  0  0  0
  152.2728  145.3032  158.5883 F   0  0  0  0  0  0  0  0  0  0  0  0
  153.1313  143.1454  159.1623 C   0  0  0  0  0  0  0  0  0  0  0  0
  152.6129  139.1846  157.0918 C   0  0  0  0  0  0  0  0  0  0  0  0
  153.4785  138.3071  157.1207 O   0  0  0  0  0  0  0  0  0  0  0  0
  151.8261  139.4905  155.8862 C   0  0  0  0  0  0  0  0  0  0  0  0
  152.1272  138.6706  154.6377 C   0  0  0  0  0  0  0  0  0  0  0  0
  150.6430  141.1783  153.9108 H   0  0  0  0  0  0  0  0  0  0  0  0
  149.3396  141.6672  154.9918 H   0  0  0  0  0  0  0  0  0  0  0  0
  149.4197  140.0017  154.4198 H   0  0  0  0  0  0  0  0  0  0  0  0
  151.1775  141.4614  159.1173 H   0  0  0  0  0  0  0  0  0  0  0  0
  152.2688  139.7329  160.2660 H   0  0  0  0  0  0  0  0  0  0  0  0
  153.4829  138.7473  159.5425 H   0  0  0  0  0  0  0  0  0  0  0  0
  154.6635  141.0255  158.8673 H   0  0  0  0  0  0  0  0  0  0  0  0
  155.5921  141.0572  160.9090 H   0  0  0  0  0  0  0  0  0  0  0  0
  153.1644  141.6230  162.2255 H   0  0  0  0  0  0  0  0  0  0  0  0
  152.0527  143.7474  162.8572 H   0  0  0  0  0  0  0  0  0  0  0  0
  151.6263  145.4944  161.1373 H   0  0  0  0  0  0  0  0  0  0  0  0
  153.4325  142.9895  158.1365 H   0  0  0  0  0  0  0  0  0  0  0  0
  151.9694  137.6102  154.8377 H   0  0  0  0  0  0  0  0  0  0  0  0
  153.1670  138.8083  154.3392 H   0  0  0  0  0  0  0  0  0  0  0  0
  151.5035  138.9390  153.7866 H   0  0  0  0  0  0  0  0  0  0  0  0
  1  2  1  0  0  0  0
  1 20  1  0  0  0  0
  1 21  1  0  0  0  0
  1 22  1  0  0  0  0
  2 18  2  0  0  0  0
  2  3  1  0  0  0  0
  3  4  2  0  0  0  0
  4  5  1  0  0  0  0
  4 23  1  0  0  0  0
  5  6  1  0  0  0  0
  5 16  1  0  0  0  0
  6  7  1  0  0  0  0
  6 24  1  0  0  0  0
  6 25  1  0  0  0  0
  7  8  1  0  0  0  0
  7  9  1  0  0  0  0
  7 26  1  0  0  0  0
  8 27  1  0  0  0  0
  9 15  1  0  0  0  0
  9 10  2  0  0  0  0
 10 11  1  0  0  0  0
 10 28  1  0  0  0  0
 11 12  2  0  0  0  0
 11 29  1  0  0  0  0
 12 13  1  0  0  0  0
 12 30  1  0  0  0  0
 13 14  1  0  0  0  0
 13 15  2  0  0  0  0
 15 31  1  0  0  0  0
 16 17  2  0  0  0  0
 16 18  1  0  0  0  0
 18 19  1  0  0  0  0
 19 32  1  0  0  0  0
 19 33  1  0  0  0  0
 19 34  1  0  0  0  0
M  END
> <s_m_source_file>
AV-unprocessed.smi

> <i_m_source_file_index>
2293

> <i_lp_mmshare_version>
43012

> <i_f3d_flags>
0

> <s_epik_input>
W0NIM11jMW5bY0hdbihjKD1PKWMxW0NIM10pW0NIMl1bQ0BIXShbT0hdKWMyW2NIXVtjSF1bY0hdYyhGKVtjSF0y

> <s_epik_cmdline>
J2VwaWtfcHl0aG9uJywgJy1waCcsICc3LjAnLCAnLXRuJywgJzgnLCAnLW1hJywgJzIwMCcsICctbWV0YWxfYmluZGluZycsICctaW1hZScsICc8aW5maWxlLm1hZT4nLCAnLW9tYWUnLCAnPG91dGZpbGUubWFlPic=

> <r_lp_tautomer_probability>
1

> <r_epik_Ionization_Penalty>
5.08222e-05

> <r_epik_Ionization_Penalty_Charging>
7.56727e-08

> <r_epik_Ionization_Penalty_Neutral>
5.07465e-05

> <r_epik_State_Penalty>
-0

> <r_epik_Charging_Adjusted_Penalty>
7.56727e-08

> <i_epik_Tot_Q>
0

> <i_epik_Tot_abs_Q>
0

> <r_epik_Metal_State_Penalty>
-0

> <b_epik_Metal_Only>
0

> <s_lp_Force_Field>
OPLS_2005

> <r_lp_Energy>
18.7837

> <b_lp_Chiralities_Consistent>
1

> <s_lp_Variant>
AV-unprocessed.smi:2293-1

> <Gold.Version>
5.8.1

> <Gold.Id.Protein>
6NUR|6NUR_protein|mol2

> <Gold.PLP.Fitness>
48.4737

> <Gold.PLP.PLP>
-50.0481

> <Gold.PLP.part.hbond>
-1.0000

> <Gold.PLP.part.metal>
0.0000

> <Gold.PLP.part.buried>
-4.2792

> <Gold.PLP.part.nonpolar>
-43.3019

> <Gold.PLP.part.repulsive>
0.0376

> <Gold.PLP.ligand.clash>
0.0000

> <Gold.PLP.ligand.torsion>
0.9666

> <Gold.PLP.Chemscore.Hbond>
0.1176

> <Gold.PLP.Chemscore.CHOScore>
0.0000

> <Gold.PLP.Chemscore.Metal>
0.0000

> <Gold.Chemscore.Hbonds>
donor molecule, donor type, donor heavy atom, donor atom, acceptor molecule, acceptor atom, score
      P1  H  7997  8009       L1    17  0.07

> <Gold.PLP.Chemscore.Internal.Correction>
0.0062

> <Gold.Rescore>
     Score         DG    S(hbond)    S(metal)    S(lipo)     H(rot)  DE(clash)    DE(int)     intcor
     13.12     -13.99       0.01        0.00     116.55       2.02       0.30       0.57       ----

> <Gold.Chemscore.Fitness>
13.1194

> <Gold.Chemscore.DG>
-13.9881

> <Gold.Chemscore.ZeroCoef>
-5.4800

> <Gold.Chemscore.Hbond>
0.0114

> <Gold.Chemscore.Metal>
0.0000

> <Gold.Chemscore.Lipo>
116.5495

> <Gold.Chemscore.Internal_Hbond>
0.0000

> <Gold.Chemscore.DEClash>
0.2997

> <Gold.Chemscore.DEInternal>
0.5690

> <Gold.Chemscore.Rot>
2.0181

> <Gold.Chemscore.Internal.Correction>
   9.000000E+99

> <Gold.Chemscore.Hbond.Weighted>
-0.0382

> <Gold.Chemscore.Metal.Weighted>
-0.0000

> <Gold.Chemscore.Lipo.Weighted>
-13.6363

> <Gold.Chemscore.Internal_Hbond.Weighted>
0.0000

> <Gold.Chemscore.DEClash.Weighted>
0.2997

> <Gold.Chemscore.DEInternal.Weighted>
0.5690

> <Gold.Chemscore.Rot.Weighted>
5.1663

> <Gold.Chemscore.Internal.Correction.Weighted>
   9.000000E+99

> <Gold.Protein.RotatedTorsions>
[ 6907 6896 6895 6894 ] final  -51.94 input  -60.11 | X-H torsion
[ 7974 7965 7964 7962 ] final -130.65 input  175.53 | X-H torsion
[ 8008 7997 7996 7995 ] final  135.11 input   59.86 | X-H torsion
[ 10167 10162 10161 10158 ] final   -7.41 input  -65.29 | X-H torsion
[ 10718 10713 10712 10709 ] final  -97.60 input   66.30 | X-H torsion
[ 10763 10752 10751 10750 ] final  -95.23 input  -60.55 | X-H torsion
[ 11005 11000 10999 10996 ] final  -71.61 input  -57.11 | X-H torsion

> <Gold.Protein.ActiveResidues>
 VAL166  LYS551  ARG553  GLY616  TRP617  ASP618  TYR619  PRO620  LYS621  CYS622 
 ASP623  PHE694  ASN695  SER759  ASP760  ASP761  ALA762  ILE779  LEU786  VAL792 
 PHE793  MET794  SER795  GLU796  ALA797  LYS798  CYS799  TRP800  GLU811  SER814 

> <Gold.Protein.RotatedAtoms>
  150.8564  134.7904  159.7048 H   0  0  0  0  0  0  0  0  0  0  0  0  # atno 6907 bound_to 6896
  152.4614  134.5171  159.9781 H   0  0  0  0  0  0  0  0  0  0  0  0  # atno 6908 bound_to 6896
  151.5283  133.3415  159.2949 H   0  0  0  0  0  0  0  0  0  0  0  0  # atno 6909 bound_to 6896
  144.9454  140.7285  143.4821 H   0  0  0  0  0  0  0  0  0  0  0  0  # atno 7974 bound_to 7965
  156.3002  140.2479  156.3527 H   0  0  0  0  0  0  0  0  0  0  0  0  # atno 8008 bound_to 7997
  154.8951  140.0408  157.1880 H   0  0  0  0  0  0  0  0  0  0  0  0  # atno 8009 bound_to 7997
  154.8558  140.2913  155.5574 H   0  0  0  0  0  0  0  0  0  0  0  0  # atno 8010 bound_to 7997
  140.7028  143.6084  150.8728 H   0  0  0  0  0  0  0  0  0  0  0  0  # atno 10167 bound_to 10162
  156.0087  130.5201  150.6399 H   0  0  0  0  0  0  0  0  0  0  0  0  # atno 10718 bound_to 10713
  154.7129  135.5128  153.8694 H   0  0  0  0  0  0  0  0  0  0  0  0  # atno 10763 bound_to 10752
  153.0796  135.6627  154.0082 H   0  0  0  0  0  0  0  0  0  0  0  0  # atno 10764 bound_to 10752
  153.9920  135.3019  155.3390 H   0  0  0  0  0  0  0  0  0  0  0  0  # atno 10765 bound_to 10752
  141.1595  133.6822  156.6931 H   0  0  0  0  0  0  0  0  0  0  0  0  # atno 11005 bound_to 11000
  145.2926  139.1878  143.4732 LP  0  0  0  0  0  0  0  0  0  0  0  0  # atno 17320 bound_to 7965
  146.3301  140.2905  142.8615 LP  0  0  0  0  0  0  0  0  0  0  0  0  # atno 17321 bound_to 7965
  139.9807  143.5954  152.2943 LP  0  0  0  0  0  0  0  0  0  0  0  0  # atno 17342 bound_to 10162
  139.6574  144.7662  151.2029 LP  0  0  0  0  0  0  0  0  0  0  0  0  # atno 17343 bound_to 10162
  157.4181  131.0833  151.1157 LP  0  0  0  0  0  0  0  0  0  0  0  0  # atno 17370 bound_to 10713
  157.1768  130.6292  149.5658 LP  0  0  0  0  0  0  0  0  0  0  0  0  # atno 17371 bound_to 10713
  140.3015  134.8160  157.4101 LP  0  0  0  0  0  0  0  0  0  0  0  0  # atno 17394 bound_to 11000
  140.1258  134.5160  155.8146 LP  0  0  0  0  0  0  0  0  0  0  0  0  # atno 17395 bound_to 11000

$$$$
