AV-unprocessed.smi:213|AV-procd|sdf|1643|dock10
  -GOLD-   2262020 13D 1   1.00000     0.00000
 Structure written by MMmdl.
 58 61  0  0  0  0  0  0  0  0  1 V2000
  148.0621  141.8773  157.3195 C   0  0  0  0  0  0  0  0  0  0  0  0
  148.9958  140.8327  156.6815 C   0  0  2  0  0  0  0  0  0  0  0  0
  150.4676  141.3040  156.6488 C   0  0  0  0  0  0  0  0  0  0  0  0
  150.9322  142.0115  157.8431 N   0  0  0  0  0  0  0  0  0  0  0  0
  151.3331  143.3760  157.5172 C   0  0  0  0  0  0  0  0  0  0  0  0
  151.8216  144.1451  158.7567 C   0  0  0  0  0  0  0  0  0  0  0  0
  152.8991  143.4370  159.3605 O   0  0  0  0  0  0  0  0  0  0  0  0
  152.5405  142.1119  159.7378 C   0  0  0  0  0  0  0  0  0  0  0  0
  152.0474  141.3353  158.5043 C   0  0  0  0  0  0  0  0  0  0  0  0
  148.5336  140.4659  155.3396 N   0  0  0  0  0  0  0  0  0  0  0  0
  148.7978  141.3316  154.1916 C   0  0  0  0  0  0  0  0  0  0  0  0
  147.8135  139.3300  155.1302 C   0  0  0  0  0  0  0  0  0  0  0  0
  147.6873  138.4577  156.1661 N   0  0  0  0  0  0  0  0  0  0  0  0
  146.9890  137.3278  156.0261 C   0  0  0  0  0  0  0  0  0  0  0  0
  146.3459  136.8738  154.9502 N   0  0  0  0  0  0  0  0  0  0  0  0
  146.4764  137.7327  153.9002 C   0  0  0  0  0  0  0  0  0  0  0  0
  147.1843  138.9701  153.8993 C   0  0  0  0  0  0  0  0  0  0  0  0
  147.1029  139.5466  152.6351 N   0  0  0  0  0  0  0  0  0  0  0  0
  146.3823  138.7112  151.9395 C   0  0  0  0  0  0  0  0  0  0  0  0
  145.9700  137.5902  152.6210 N   0  0  0  0  0  0  0  0  0  0  0  0
  145.1766  136.4942  152.0953 C   0  0  0  0  0  0  0  0  0  0  0  0
  145.9462  135.1568  152.0474 C   0  0  1  0  0  0  0  0  0  0  0  0
  146.0244  134.6703  153.3722 O   0  0  0  0  0  0  0  0  0  0  0  0
  145.2972  134.0790  151.1507 C   0  0  2  0  0  0  0  0  0  0  0  0
  143.8611  133.7166  151.5321 C   0  0  0  0  0  0  0  0  0  0  0  0
  143.6752  132.3351  150.9280 C   0  0  0  0  0  0  0  0  0  0  0  0
  145.1049  131.8210  150.7411 C   0  0  0  0  0  0  0  0  0  0  0  0
  145.9406  132.8225  151.3049 O   0  0  0  0  0  0  0  0  0  0  0  0
  148.3421  142.0738  158.3545 H   0  0  0  0  0  0  0  0  0  0  0  0
  147.0281  141.5319  157.3231 H   0  0  0  0  0  0  0  0  0  0  0  0
  148.0922  142.8272  156.7855 H   0  0  0  0  0  0  0  0  0  0  0  0
  148.9720  139.9377  157.2970 H   0  0  0  0  0  0  0  0  0  0  0  0
  151.1147  140.4439  156.4691 H   0  0  0  0  0  0  0  0  0  0  0  0
  150.5975  141.9566  155.7846 H   0  0  0  0  0  0  0  0  0  0  0  0
  152.1269  143.3598  156.7685 H   0  0  0  0  0  0  0  0  0  0  0  0
  150.4948  143.9118  157.0706 H   0  0  0  0  0  0  0  0  0  0  0  0
  152.1625  145.1416  158.4756 H   0  0  0  0  0  0  0  0  0  0  0  0
  151.0115  144.2735  159.4763 H   0  0  0  0  0  0  0  0  0  0  0  0
  153.4086  141.6183  160.1746 H   0  0  0  0  0  0  0  0  0  0  0  0
  151.7681  142.1424  160.5079 H   0  0  0  0  0  0  0  0  0  0  0  0
  151.7532  140.3368  158.8241 H   0  0  0  0  0  0  0  0  0  0  0  0
  152.8731  141.2099  157.8023 H   0  0  0  0  0  0  0  0  0  0  0  0
  147.9088  141.4306  153.5676 H   0  0  0  0  0  0  0  0  0  0  0  0
  149.6034  140.9204  153.5829 H   0  0  0  0  0  0  0  0  0  0  0  0
  149.0920  142.3326  154.5051 H   0  0  0  0  0  0  0  0  0  0  0  0
  146.9394  136.6970  156.9012 H   0  0  0  0  0  0  0  0  0  0  0  0
  146.1424  138.8853  150.9007 H   0  0  0  0  0  0  0  0  0  0  0  0
  144.2852  136.3951  152.7161 H   0  0  0  0  0  0  0  0  0  0  0  0
  144.8322  136.7678  151.0968 H   0  0  0  0  0  0  0  0  0  0  0  0
  146.9664  135.3378  151.7069 H   0  0  0  0  0  0  0  0  0  0  0  0
  146.5915  133.9146  153.3817 H   0  0  0  0  0  0  0  0  0  0  0  0
  145.3388  134.3775  150.1012 H   0  0  0  0  0  0  0  0  0  0  0  0
  143.7658  133.6568  152.6175 H   0  0  0  0  0  0  0  0  0  0  0  0
  143.1293  134.4385  151.1688 H   0  0  0  0  0  0  0  0  0  0  0  0
  143.0866  131.6904  151.5811 H   0  0  0  0  0  0  0  0  0  0  0  0
  143.1668  132.3949  149.9651 H   0  0  0  0  0  0  0  0  0  0  0  0
  145.2715  130.8617  151.2314 H   0  0  0  0  0  0  0  0  0  0  0  0
  145.3388  131.7080  149.6818 H   0  0  0  0  0  0  0  0  0  0  0  0
  1  2  1  0  0  0  0
  1 29  1  0  0  0  0
  1 30  1  0  0  0  0
  1 31  1  0  0  0  0
  2  3  1  0  0  0  0
  2 10  1  0  0  0  0
  2 32  1  0  0  0  0
  3  4  1  0  0  0  0
  3 33  1  0  0  0  0
  3 34  1  0  0  0  0
  4  9  1  0  0  0  0
  4  5  1  0  0  0  0
  5  6  1  0  0  0  0
  5 35  1  0  0  0  0
  5 36  1  0  0  0  0
  6  7  1  0  0  0  0
  6 37  1  0  0  0  0
  6 38  1  0  0  0  0
  7  8  1  0  0  0  0
  8  9  1  0  0  0  0
  8 39  1  0  0  0  0
  8 40  1  0  0  0  0
  9 41  1  0  0  0  0
  9 42  1  0  0  0  0
 10 11  1  0  0  0  0
 10 12  1  0  0  0  0
 11 43  1  0  0  0  0
 11 44  1  0  0  0  0
 11 45  1  0  0  0  0
 12 17  1  0  0  0  0
 12 13  2  0  0  0  0
 13 14  1  0  0  0  0
 14 15  2  0  0  0  0
 14 46  1  0  0  0  0
 15 16  1  0  0  0  0
 16 20  1  0  0  0  0
 16 17  2  0  0  0  0
 17 18  1  0  0  0  0
 18 19  2  0  0  0  0
 19 20  1  0  0  0  0
 19 47  1  0  0  0  0
 20 21  1  0  0  0  0
 21 22  1  0  0  0  0
 21 48  1  0  0  0  0
 21 49  1  0  0  0  0
 22 23  1  0  0  0  0
 22 24  1  0  0  0  0
 22 50  1  0  0  0  0
 23 51  1  0  0  0  0
 24 28  1  0  0  0  0
 24 25  1  0  0  0  0
 24 52  1  0  0  0  0
 25 26  1  0  0  0  0
 25 53  1  0  0  0  0
 25 54  1  0  0  0  0
 26 27  1  0  0  0  0
 26 55  1  0  0  0  0
 26 56  1  0  0  0  0
 27 28  1  0  0  0  0
 27 57  1  0  0  0  0
 27 58  1  0  0  0  0
M  END
> <s_m_source_file>
AV-unprocessed.smi

> <i_m_source_file_index>
213

> <i_lp_mmshare_version>
43012

> <i_f3d_flags>
0

> <s_epik_input>
W0NIMl0xW0NIMl1PW0NIMl1bQ0gyXU4xW0NIMl1bQ0BASF0oW0NIM10pTihbQ0gzXSljKG5bY0hdbjIpYyhjMjMpbltjSF1uM1tDSDJdW0NASF0oW09IXSlbQ0BASF00W0NIMl1bQ0gyXVtDSDJdTzQ=

> <s_epik_cmdline>
J2VwaWtfcHl0aG9uJywgJy1waCcsICc3LjAnLCAnLXRuJywgJzgnLCAnLW1hJywgJzIwMCcsICctbWV0YWxfYmluZGluZycsICctaW1hZScsICc8aW5maWxlLm1hZT4nLCAnLW9tYWUnLCAnPG91dGZpbGUubWFlPic=

> <r_lp_tautomer_probability>
1

> <r_epik_Ionization_Penalty>
0.423322

> <r_epik_Ionization_Penalty_Charging>
0

> <r_epik_Ionization_Penalty_Neutral>
0.423322

> <r_epik_State_Penalty>
0.569486

> <r_epik_Charging_Adjusted_Penalty>
0.569486

> <i_epik_Tot_Q>
0

> <i_epik_Tot_abs_Q>
0

> <r_epik_Metal_State_Penalty>
0.568671

> <b_epik_Metal_Only>
0

> <s_lp_Force_Field>
OPLS_2005

> <r_lp_Energy>
51.7694

> <b_lp_Chiralities_Consistent>
1

> <s_lp_Variant>
AV-unprocessed.smi:213-11

> <Gold.Version>
5.8.1

> <Gold.Id.Protein>
6NUR|6NUR_protein|mol2

> <Gold.PLP.Fitness>
42.3987

> <Gold.PLP.PLP>
-42.3507

> <Gold.PLP.part.hbond>
0.0000

> <Gold.PLP.part.metal>
0.0000

> <Gold.PLP.part.buried>
-5.7572

> <Gold.PLP.part.nonpolar>
-39.0398

> <Gold.PLP.part.repulsive>
2.0064

> <Gold.PLP.ligand.clash>
0.0000

> <Gold.PLP.ligand.torsion>
1.5739

> <Gold.PLP.Chemscore.Hbond>
0.0000

> <Gold.PLP.Chemscore.CHOScore>
0.9479

> <Gold.PLP.Chemscore.Metal>
0.0000

> <Gold.Chemscore.Hbonds>
donor molecule, donor type, donor heavy atom, donor atom, acceptor molecule, acceptor atom, score
      L1  C    19    47       P1 10171  0.95

> <Gold.PLP.Chemscore.Internal.Correction>
0.3520

> <Gold.Rescore>
     Score         DG    S(hbond)    S(metal)    S(lipo)     H(rot)  DE(clash)    DE(int)     intcor
      7.55     -10.89       0.00        0.00     106.11       2.74       0.72       2.61       ----

> <Gold.Chemscore.Fitness>
7.5518

> <Gold.Chemscore.DG>
-10.8864

> <Gold.Chemscore.ZeroCoef>
-5.4800

> <Gold.Chemscore.Hbond>
0.0000

> <Gold.Chemscore.Metal>
0.0000

> <Gold.Chemscore.Lipo>
106.1114

> <Gold.Chemscore.Internal_Hbond>
0.0000

> <Gold.Chemscore.DEClash>
0.7243

> <Gold.Chemscore.DEInternal>
2.6102

> <Gold.Chemscore.Rot>
2.7378

> <Gold.Chemscore.Internal.Correction>
   9.000000E+99

> <Gold.Chemscore.Hbond.Weighted>
-0.0000

> <Gold.Chemscore.Metal.Weighted>
-0.0000

> <Gold.Chemscore.Lipo.Weighted>
-12.4150

> <Gold.Chemscore.Internal_Hbond.Weighted>
0.0000

> <Gold.Chemscore.DEClash.Weighted>
0.7243

> <Gold.Chemscore.DEInternal.Weighted>
2.6102

> <Gold.Chemscore.Rot.Weighted>
7.0087

> <Gold.Chemscore.Internal.Correction.Weighted>
   9.000000E+99

> <Gold.Protein.RotatedTorsions>
[ 6907 6896 6895 6894 ] final  -53.72 input  -60.11 | X-H torsion
[ 7974 7965 7964 7962 ] final -122.65 input  175.53 | X-H torsion
[ 8008 7997 7996 7995 ] final  121.62 input   59.86 | X-H torsion
[ 10167 10162 10161 10158 ] final  -79.57 input  -65.29 | X-H torsion
[ 10718 10713 10712 10709 ] final  127.64 input   66.30 | X-H torsion
[ 10763 10752 10751 10750 ] final -162.91 input  -60.55 | X-H torsion
[ 11005 11000 10999 10996 ] final  135.50 input  -57.11 | X-H torsion

> <Gold.Protein.ActiveResidues>
 VAL166  LYS551  ARG553  GLY616  TRP617  ASP618  TYR619  PRO620  LYS621  CYS622 
 ASP623  PHE694  ASN695  SER759  ASP760  ASP761  ALA762  ILE779  LEU786  VAL792 
 PHE793  MET794  SER795  GLU796  ALA797  LYS798  CYS799  TRP800  GLU811  SER814 

> <Gold.Protein.RotatedAtoms>
  150.8401  134.7690  159.6925 H   0  0  0  0  0  0  0  0  0  0  0  0  # atno 6907 bound_to 6896
  152.4490  134.5430  159.9854 H   0  0  0  0  0  0  0  0  0  0  0  0  # atno 6908 bound_to 6896
  151.5571  133.3371  159.3000 H   0  0  0  0  0  0  0  0  0  0  0  0  # atno 6909 bound_to 6896
  145.0271  140.8037  143.4346 H   0  0  0  0  0  0  0  0  0  0  0  0  # atno 7974 bound_to 7965
  156.2694  140.2804  156.1338 H   0  0  0  0  0  0  0  0  0  0  0  0  # atno 8008 bound_to 7997
  155.1026  140.0390  157.2719 H   0  0  0  0  0  0  0  0  0  0  0  0  # atno 8009 bound_to 7997
  154.6803  140.2607  155.6921 H   0  0  0  0  0  0  0  0  0  0  0  0  # atno 8010 bound_to 7997
  140.4581  143.2462  151.8389 H   0  0  0  0  0  0  0  0  0  0  0  0  # atno 10167 bound_to 10162
  157.5315  131.1098  150.9002 H   0  0  0  0  0  0  0  0  0  0  0  0  # atno 10718 bound_to 10713
  154.7171  135.3018  154.9106 H   0  0  0  0  0  0  0  0  0  0  0  0  # atno 10763 bound_to 10752
  153.9989  135.6709  153.4762 H   0  0  0  0  0  0  0  0  0  0  0  0  # atno 10764 bound_to 10752
  153.0803  135.5013  154.8404 H   0  0  0  0  0  0  0  0  0  0  0  0  # atno 10765 bound_to 10752
  139.9983  134.9488  157.0015 H   0  0  0  0  0  0  0  0  0  0  0  0  # atno 11005 bound_to 11000
  145.1819  139.2347  143.5288 LP  0  0  0  0  0  0  0  0  0  0  0  0  # atno 17320 bound_to 7965
  146.3493  140.1594  142.8591 LP  0  0  0  0  0  0  0  0  0  0  0  0  # atno 17321 bound_to 7965
  139.4803  144.5040  151.9022 LP  0  0  0  0  0  0  0  0  0  0  0  0  # atno 17342 bound_to 10162
  140.4126  144.2348  150.5888 LP  0  0  0  0  0  0  0  0  0  0  0  0  # atno 17343 bound_to 10162
  156.9582  130.5445  149.5285 LP  0  0  0  0  0  0  0  0  0  0  0  0  # atno 17370 bound_to 10713
  156.0426  130.5506  150.8806 LP  0  0  0  0  0  0  0  0  0  0  0  0  # atno 17371 bound_to 10713
  140.4775  134.1323  155.7212 LP  0  0  0  0  0  0  0  0  0  0  0  0  # atno 17394 bound_to 11000
  141.1622  133.8771  157.1815 LP  0  0  0  0  0  0  0  0  0  0  0  0  # atno 17395 bound_to 11000

$$$$
