AV-unprocessed.smi:3014|AV-procd|sdf|11468|dock10
  -GOLD-   2272016403D 1   1.00000     0.00000
 Structure written by MMmdl.
 45 46  0  0  0  0  0  0  0  0  1 V2000
  153.2172  142.6683  161.8516 C   0  0  0  0  0  0  0  0  0  0  0  0
  152.9652  142.7704  160.3405 C   0  0  2  0  0  0  0  0  0  0  0  0
  152.1151  144.0083  159.9942 C   0  0  0  0  0  0  0  0  0  0  0  0
  151.8531  144.1078  158.4831 C   0  0  0  0  0  0  0  0  0  0  0  0
  151.1969  142.8258  157.9491 C   0  0  0  0  0  0  0  0  0  0  0  0
  152.0499  141.5882  158.2724 C   0  0  2  0  0  0  0  0  0  0  0  0
  151.3340  140.4450  157.8094 O   0  0  0  0  0  0  0  0  0  0  0  0
  152.0962  139.2557  157.6155 C   0  0  0  0  0  0  0  0  0  0  0  0
  151.2098  138.0108  157.7335 C   0  0  0  0  0  0  0  0  0  0  0  0
  151.1435  137.2211  156.7913 O   0  0  0  0  0  0  0  0  0  0  0  0
  150.5537  137.8702  158.9003 N   0  0  0  0  0  0  0  0  0  0  0  0
  149.6798  136.8230  159.2930 C   0  0  0  0  0  0  0  0  0  0  0  0
  149.0944  136.0832  158.2432 C   0  0  0  0  0  0  0  0  0  0  0  0
  148.2239  135.0367  158.6038 C   0  0  0  0  0  0  0  0  0  0  0  0
  147.9560  134.7478  159.8935 N   0  0  0  0  0  0  0  0  0  0  0  0
  148.5511  135.4989  160.8283 C   0  0  0  0  0  0  0  0  0  0  0  0
  148.2763  135.2037  162.1666 N   0  0  0  0  0  0  0  0  0  0  0  0
  148.6718  136.1156  163.2366 C   0  0  0  0  0  0  0  0  0  0  0  0
  147.5907  133.9712  162.5441 C   0  0  0  0  0  0  0  0  0  0  0  0
  149.3912  136.5121  160.5806 N   0  0  0  0  0  0  0  0  0  0  0  0
  152.3056  141.4899  159.7907 C   0  0  0  0  0  0  0  0  0  0  0  0
  152.2827  142.5602  162.4033 H   0  0  0  0  0  0  0  0  0  0  0  0
  153.7234  143.5584  162.2260 H   0  0  0  0  0  0  0  0  0  0  0  0
  153.8448  141.8087  162.0885 H   0  0  0  0  0  0  0  0  0  0  0  0
  153.9351  142.8824  159.8531 H   0  0  0  0  0  0  0  0  0  0  0  0
  151.1630  143.9625  160.5248 H   0  0  0  0  0  0  0  0  0  0  0  0
  152.6165  144.9137  160.3382 H   0  0  0  0  0  0  0  0  0  0  0  0
  151.2162  144.9671  158.2715 H   0  0  0  0  0  0  0  0  0  0  0  0
  152.7934  144.2824  157.9587 H   0  0  0  0  0  0  0  0  0  0  0  0
  150.2042  142.7151  158.3875 H   0  0  0  0  0  0  0  0  0  0  0  0
  151.0521  142.9053  156.8711 H   0  0  0  0  0  0  0  0  0  0  0  0
  153.0024  141.6908  157.7503 H   0  0  0  0  0  0  0  0  0  0  0  0
  152.6274  139.2765  156.6634 H   0  0  0  0  0  0  0  0  0  0  0  0
  152.8544  139.2060  158.3970 H   0  0  0  0  0  0  0  0  0  0  0  0
  150.6991  138.5969  159.5857 H   0  0  0  0  0  0  0  0  0  0  0  0
  149.3005  136.3037  157.2060 H   0  0  0  0  0  0  0  0  0  0  0  0
  147.7406  134.4288  157.8533 H   0  0  0  0  0  0  0  0  0  0  0  0
  148.1879  137.0845  163.1078 H   0  0  0  0  0  0  0  0  0  0  0  0
  149.7517  136.2673  163.2281 H   0  0  0  0  0  0  0  0  0  0  0  0
  148.3978  135.7346  164.2202 H   0  0  0  0  0  0  0  0  0  0  0  0
  148.1713  133.1030  162.2311 H   0  0  0  0  0  0  0  0  0  0  0  0
  146.6106  133.9196  162.0688 H   0  0  0  0  0  0  0  0  0  0  0  0
  147.4406  133.9009  163.6215 H   0  0  0  0  0  0  0  0  0  0  0  0
  152.9426  140.6334  160.0114 H   0  0  0  0  0  0  0  0  0  0  0  0
  151.3615  141.3123  160.3079 H   0  0  0  0  0  0  0  0  0  0  0  0
  1  2  1  0  0  0  0
  1 22  1  0  0  0  0
  1 23  1  0  0  0  0
  1 24  1  0  0  0  0
  2 21  1  0  0  0  0
  2  3  1  0  0  0  0
  2 25  1  0  0  0  0
  3  4  1  0  0  0  0
  3 26  1  0  0  0  0
  3 27  1  0  0  0  0
  4  5  1  0  0  0  0
  4 28  1  0  0  0  0
  4 29  1  0  0  0  0
  5  6  1  0  0  0  0
  5 30  1  0  0  0  0
  5 31  1  0  0  0  0
  6  7  1  0  0  0  0
  6 21  1  0  0  0  0
  6 32  1  0  0  0  0
  7  8  1  0  0  0  0
  8  9  1  0  0  0  0
  8 33  1  0  0  0  0
  8 34  1  0  0  0  0
  9 10  2  0  0  0  0
  9 11  1  0  0  0  0
 11 12  1  0  0  0  0
 11 35  1  0  0  0  0
 12 20  1  0  0  0  0
 12 13  2  0  0  0  0
 13 14  1  0  0  0  0
 13 36  1  0  0  0  0
 14 15  2  0  0  0  0
 14 37  1  0  0  0  0
 15 16  1  0  0  0  0
 16 17  1  0  0  0  0
 16 20  2  0  0  0  0
 17 18  1  0  0  0  0
 17 19  1  0  0  0  0
 18 38  1  0  0  0  0
 18 39  1  0  0  0  0
 18 40  1  0  0  0  0
 19 41  1  0  0  0  0
 19 42  1  0  0  0  0
 19 43  1  0  0  0  0
 21 44  1  0  0  0  0
 21 45  1  0  0  0  0
M  END
> <s_m_source_file>
AV-unprocessed.smi

> <i_m_source_file_index>
3014

> <i_lp_mmshare_version>
43012

> <i_f3d_flags>
0

> <s_epik_input>
W0NIM11bQ0BASF0xW0NIMl1bQ0gyXVtDSDJdW0NASF0oW0NIMl0xKU9bQ0gyXUMoPU8pW05IXWMyW2NIXVtjSF1uYyhuMilOKFtDSDNdKVtDSDNd

> <s_epik_cmdline>
J2VwaWtfcHl0aG9uJywgJy1waCcsICc3LjAnLCAnLXRuJywgJzgnLCAnLW1hJywgJzIwMCcsICctbWV0YWxfYmluZGluZycsICctaW1hZScsICc8aW5maWxlLm1hZT4nLCAnLW9tYWUnLCAnPG91dGZpbGUubWFlPic=

> <r_lp_tautomer_probability>
1

> <r_epik_Ionization_Penalty>
0.000308195

> <r_epik_Ionization_Penalty_Charging>
0

> <r_epik_Ionization_Penalty_Neutral>
0.000308195

> <r_epik_State_Penalty>
-0

> <r_epik_Charging_Adjusted_Penalty>
0

> <i_epik_Tot_Q>
0

> <i_epik_Tot_abs_Q>
0

> <r_epik_Metal_State_Penalty>
-0

> <b_epik_Metal_Only>
0

> <s_lp_Force_Field>
OPLS_2005

> <r_lp_Energy>
8.92974

> <b_lp_Chiralities_Consistent>
1

> <s_lp_Variant>
AV-unprocessed.smi:3014-3

> <Gold.Version>
5.8.1

> <Gold.Id.Protein>
6NUR|6NUR_protein|mol2

> <Gold.PLP.Fitness>
47.2993

> <Gold.PLP.PLP>
-45.7008

> <Gold.PLP.part.hbond>
-1.0000

> <Gold.PLP.part.metal>
0.0000

> <Gold.PLP.part.buried>
-5.7623

> <Gold.PLP.part.nonpolar>
-39.6444

> <Gold.PLP.part.repulsive>
0.2106

> <Gold.PLP.ligand.clash>
0.0000

> <Gold.PLP.ligand.torsion>
0.4824

> <Gold.PLP.Chemscore.Hbond>
0.8480

> <Gold.PLP.Chemscore.CHOScore>
0.0000

> <Gold.PLP.Chemscore.Metal>
0.0000

> <Gold.Chemscore.Hbonds>
donor molecule, donor type, donor heavy atom, donor atom, acceptor molecule, acceptor atom, score
      P1  H  6931  6943       L1    20  0.44

> <Gold.PLP.Chemscore.Internal.Correction>
0.0193

> <Gold.Rescore>
     Score         DG    S(hbond)    S(metal)    S(lipo)     H(rot)  DE(clash)    DE(int)     intcor
     15.22     -17.08       0.83        0.00     106.63       1.43       0.03       1.82       ----

> <Gold.Chemscore.Fitness>
15.2246

> <Gold.Chemscore.DG>
-17.0777

> <Gold.Chemscore.ZeroCoef>
-5.4800

> <Gold.Chemscore.Hbond>
0.8338

> <Gold.Chemscore.Metal>
0.0000

> <Gold.Chemscore.Lipo>
106.6320

> <Gold.Chemscore.Internal_Hbond>
0.0000

> <Gold.Chemscore.DEClash>
0.0323

> <Gold.Chemscore.DEInternal>
1.8209

> <Gold.Chemscore.Rot>
1.4310

> <Gold.Chemscore.Internal.Correction>
   9.000000E+99

> <Gold.Chemscore.Hbonds>
donor molecule, donor type, donor heavy atom, donor atom, acceptor molecule, acceptor atom, score
      P1  H  6931  6943       L1    20  0.35

> <Gold.Chemscore.Hbond.Weighted>
-2.7850

> <Gold.Chemscore.Metal.Weighted>
-0.0000

> <Gold.Chemscore.Lipo.Weighted>
-12.4759

> <Gold.Chemscore.Internal_Hbond.Weighted>
0.0000

> <Gold.Chemscore.DEClash.Weighted>
0.0323

> <Gold.Chemscore.DEInternal.Weighted>
1.8209

> <Gold.Chemscore.Rot.Weighted>
3.6632

> <Gold.Chemscore.Internal.Correction.Weighted>
   9.000000E+99

> <Gold.Protein.RotatedTorsions>
[ 6907 6896 6895 6894 ] final   69.54 input  -60.11 | X-H torsion
[ 7974 7965 7964 7962 ] final  176.35 input  175.53 | X-H torsion
[ 8008 7997 7996 7995 ] final   81.87 input   59.86 | X-H torsion
[ 10167 10162 10161 10158 ] final -122.87 input  -65.29 | X-H torsion
[ 10718 10713 10712 10709 ] final  -63.19 input   66.30 | X-H torsion
[ 10763 10752 10751 10750 ] final    7.84 input  -60.55 | X-H torsion
[ 11005 11000 10999 10996 ] final  -15.51 input  -57.11 | X-H torsion

> <Gold.Protein.ActiveResidues>
 VAL166  LYS551  ARG553  GLY616  TRP617  ASP618  TYR619  PRO620  LYS621  CYS622 
 ASP623  PHE694  ASN695  SER759  ASP760  ASP761  ALA762  ILE779  LEU786  VAL792 
 PHE793  MET794  SER795  GLU796  ALA797  LYS798  CYS799  TRP800  GLU811  SER814 

> <Gold.Protein.RotatedAtoms>
  152.4693  134.5000  159.9721 H   0  0  0  0  0  0  0  0  0  0  0  0  # atno 6907 bound_to 6896
  151.5031  133.3494  159.2880 H   0  0  0  0  0  0  0  0  0  0  0  0  # atno 6908 bound_to 6896
  150.8693  134.8092  159.7205 H   0  0  0  0  0  0  0  0  0  0  0  0  # atno 6909 bound_to 6896
  144.7186  140.0084  143.6440 H   0  0  0  0  0  0  0  0  0  0  0  0  # atno 7974 bound_to 7965
  155.9030  140.3432  155.6041 H   0  0  0  0  0  0  0  0  0  0  0  0  # atno 8008 bound_to 7997
  155.7477  140.0816  157.2235 H   0  0  0  0  0  0  0  0  0  0  0  0  # atno 8009 bound_to 7997
  154.4046  140.1559  156.2676 H   0  0  0  0  0  0  0  0  0  0  0  0  # atno 8010 bound_to 7997
  140.0096  143.5455  152.2268 H   0  0  0  0  0  0  0  0  0  0  0  0  # atno 10167 bound_to 10162
  156.0807  130.4218  150.1242 H   0  0  0  0  0  0  0  0  0  0  0  0  # atno 10718 bound_to 10713
  153.2318  135.6893  153.7882 H   0  0  0  0  0  0  0  0  0  0  0  0  # atno 10763 bound_to 10752
  153.7043  135.3292  155.3233 H   0  0  0  0  0  0  0  0  0  0  0  0  # atno 10764 bound_to 10752
  154.8317  135.4575  154.1206 H   0  0  0  0  0  0  0  0  0  0  0  0  # atno 10765 bound_to 10752
  140.7974  133.8240  155.9437 H   0  0  0  0  0  0  0  0  0  0  0  0  # atno 11005 bound_to 11000
  146.0278  139.3308  143.0773 LP  0  0  0  0  0  0  0  0  0  0  0  0  # atno 17320 bound_to 7965
  145.8489  140.9539  143.0760 LP  0  0  0  0  0  0  0  0  0  0  0  0  # atno 17321 bound_to 7965
  139.6214  144.7629  151.2732 LP  0  0  0  0  0  0  0  0  0  0  0  0  # atno 17342 bound_to 10162
  140.7386  143.6642  150.8138 LP  0  0  0  0  0  0  0  0  0  0  0  0  # atno 17343 bound_to 10162
  156.9274  130.9703  151.3538 LP  0  0  0  0  0  0  0  0  0  0  0  0  # atno 17370 bound_to 10713
  157.5922  130.8452  149.8676 LP  0  0  0  0  0  0  0  0  0  0  0  0  # atno 17371 bound_to 10713
  140.9329  134.1999  157.4851 LP  0  0  0  0  0  0  0  0  0  0  0  0  # atno 17394 bound_to 11000
  139.8725  134.9840  156.5222 LP  0  0  0  0  0  0  0  0  0  0  0  0  # atno 17395 bound_to 11000

$$$$
