AV-unprocessed.smi:1832|AV-procd|sdf|7464|dock4
  -GOLD-   22720 9153D 1   1.00000     0.00000
 Structure written by MMmdl.
 35 35  0  0  0  0  0  0  0  0  1 V2000
  147.8705  141.0120  153.9822 C   0  0  0  0  0  0  0  0  0  0  0  0
  149.1997  141.0882  154.7408 C   0  0  0  0  0  0  0  0  0  0  0  0
  149.8974  139.7220  154.8402 C   0  0  0  0  0  0  0  0  0  0  0  0
  150.2405  139.3909  156.2182 N   0  0  0  0  0  0  0  0  0  0  0  0
  151.4881  139.2511  156.6912 C   0  0  0  0  0  0  0  0  0  0  0  0
  152.4930  139.3761  155.9895 O   0  0  0  0  0  0  0  0  0  0  0  0
  151.6053  138.8967  158.1808 C   0  0  0  0  0  0  0  0  0  0  0  0
  152.2690  139.9420  158.9784 N   0  0  0  0  0  0  0  0  0  0  0  0
  151.8969  141.2765  158.7203 C   0  0  0  0  0  0  0  0  0  0  0  0
  152.4333  142.3177  159.3949 C   0  0  0  0  0  0  0  0  0  0  0  0
  152.0600  143.7154  159.1583 C   0  0  0  0  0  0  0  0  0  0  0  0
  151.5518  144.1282  158.1150 O   0  0  0  0  0  0  0  0  0  0  0  0
  152.3197  144.5390  160.1885 N   0  0  0  0  0  0  0  0  0  0  0  0
  152.0459  145.9680  160.1920 C   0  0  0  0  0  0  0  0  0  0  0  0
  153.4249  142.0121  160.4082 C   0  0  0  0  0  0  0  0  0  0  0  0
  153.7807  140.7379  160.6636 C   0  0  0  0  0  0  0  0  0  0  0  0
  153.1899  139.6125  159.9342 C   0  0  0  0  0  0  0  0  0  0  0  0
  153.5040  138.4451  160.1679 O   0  0  0  0  0  0  0  0  0  0  0  0
  147.3985  141.9929  153.9254 H   0  0  0  0  0  0  0  0  0  0  0  0
  147.1737  140.3355  154.4777 H   0  0  0  0  0  0  0  0  0  0  0  0
  148.0188  140.6546  152.9628 H   0  0  0  0  0  0  0  0  0  0  0  0
  149.8575  141.8007  154.2418 H   0  0  0  0  0  0  0  0  0  0  0  0
  149.0162  141.4850  155.7399 H   0  0  0  0  0  0  0  0  0  0  0  0
  149.2701  138.9387  154.4109 H   0  0  0  0  0  0  0  0  0  0  0  0
  150.8193  139.7336  154.2582 H   0  0  0  0  0  0  0  0  0  0  0  0
  149.4721  139.2656  156.8614 H   0  0  0  0  0  0  0  0  0  0  0  0
  150.6111  138.6897  158.5817 H   0  0  0  0  0  0  0  0  0  0  0  0
  152.1454  137.9527  158.2640 H   0  0  0  0  0  0  0  0  0  0  0  0
  151.1453  141.3761  157.9504 H   0  0  0  0  0  0  0  0  0  0  0  0
  152.7380  144.1474  161.0197 H   0  0  0  0  0  0  0  0  0  0  0  0
  152.3601  146.4036  161.1405 H   0  0  0  0  0  0  0  0  0  0  0  0
  150.9798  146.1596  160.0647 H   0  0  0  0  0  0  0  0  0  0  0  0
  152.5893  146.4694  159.3900 H   0  0  0  0  0  0  0  0  0  0  0  0
  153.8909  142.8058  160.9743 H   0  0  0  0  0  0  0  0  0  0  0  0
  154.5205  140.5390  161.4250 H   0  0  0  0  0  0  0  0  0  0  0  0
  1  2  1  0  0  0  0
  1 19  1  0  0  0  0
  1 20  1  0  0  0  0
  1 21  1  0  0  0  0
  2  3  1  0  0  0  0
  2 22  1  0  0  0  0
  2 23  1  0  0  0  0
  3  4  1  0  0  0  0
  3 24  1  0  0  0  0
  3 25  1  0  0  0  0
  4  5  1  0  0  0  0
  4 26  1  0  0  0  0
  5  6  2  0  0  0  0
  5  7  1  0  0  0  0
  7  8  1  0  0  0  0
  7 27  1  0  0  0  0
  7 28  1  0  0  0  0
  8 17  1  0  0  0  0
  8  9  1  0  0  0  0
  9 10  2  0  0  0  0
  9 29  1  0  0  0  0
 10 11  1  0  0  0  0
 10 15  1  0  0  0  0
 11 12  2  0  0  0  0
 11 13  1  0  0  0  0
 13 14  1  0  0  0  0
 13 30  1  0  0  0  0
 14 31  1  0  0  0  0
 14 32  1  0  0  0  0
 14 33  1  0  0  0  0
 15 16  2  0  0  0  0
 15 34  1  0  0  0  0
 16 17  1  0  0  0  0
 16 35  1  0  0  0  0
 17 18  2  0  0  0  0
M  END
> <s_m_source_file>
AV-unprocessed.smi

> <i_m_source_file_index>
1832

> <i_lp_mmshare_version>
43012

> <i_f3d_flags>
0

> <s_epik_input>
W0NIM11bQ0gyXVtDSDJdW05IXUMoPU8pW0NIMl1uMVtjSF1jKEMoPU8pW05IXVtDSDNdKVtjSF1bY0hdYzE9Tw==

> <s_epik_cmdline>
J2VwaWtfcHl0aG9uJywgJy1waCcsICc3LjAnLCAnLXRuJywgJzgnLCAnLW1hJywgJzIwMCcsICctbWV0YWxfYmluZGluZycsICctaW1hZScsICc8aW5maWxlLm1hZT4nLCAnLW9tYWUnLCAnPG91dGZpbGUubWFlPic=

> <r_lp_tautomer_probability>
1

> <r_epik_Ionization_Penalty>
3.67838e-07

> <r_epik_Ionization_Penalty_Charging>
4.72549e-08

> <r_epik_Ionization_Penalty_Neutral>
3.20583e-07

> <r_epik_State_Penalty>
-0

> <r_epik_Charging_Adjusted_Penalty>
4.72549e-08

> <i_epik_Tot_Q>
0

> <i_epik_Tot_abs_Q>
0

> <r_epik_Metal_State_Penalty>
-0

> <b_epik_Metal_Only>
0

> <s_lp_Force_Field>
OPLS_2005

> <r_lp_Energy>
14.7098

> <b_lp_Chiralities_Consistent>
1

> <s_lp_Variant>
AV-unprocessed.smi:1832-1

> <Gold.Version>
5.8.1

> <Gold.Id.Protein>
6NUR|6NUR_protein|mol2

> <Gold.PLP.Fitness>
39.2634

> <Gold.PLP.PLP>
-37.8964

> <Gold.PLP.part.hbond>
-1.0000

> <Gold.PLP.part.metal>
0.0000

> <Gold.PLP.part.buried>
-5.4310

> <Gold.PLP.part.nonpolar>
-32.9922

> <Gold.PLP.part.repulsive>
0.2299

> <Gold.PLP.ligand.clash>
0.0000

> <Gold.PLP.ligand.torsion>
0.8325

> <Gold.PLP.Chemscore.Hbond>
1.0000

> <Gold.PLP.Chemscore.CHOScore>
0.0000

> <Gold.PLP.Chemscore.Metal>
0.0000

> <Gold.Chemscore.Hbonds>
donor molecule, donor type, donor heavy atom, donor atom, acceptor molecule, acceptor atom, score
      P1  H  7997  8009       L1     6  1.00

> <Gold.PLP.Chemscore.Internal.Correction>
0.0320

> <Gold.Rescore>
     Score         DG    S(hbond)    S(metal)    S(lipo)     H(rot)  DE(clash)    DE(int)     intcor
     12.98     -13.49       1.00        0.00      78.81       1.78       0.05       0.46       ----

> <Gold.Chemscore.Fitness>
12.9779

> <Gold.Chemscore.DG>
-13.4882

> <Gold.Chemscore.ZeroCoef>
-5.4800

> <Gold.Chemscore.Hbond>
1.0000

> <Gold.Chemscore.Metal>
0.0000

> <Gold.Chemscore.Lipo>
78.8137

> <Gold.Chemscore.Internal_Hbond>
0.0000

> <Gold.Chemscore.DEClash>
0.0462

> <Gold.Chemscore.DEInternal>
0.4641

> <Gold.Chemscore.Rot>
1.7785

> <Gold.Chemscore.Internal.Correction>
   9.000000E+99

> <Gold.Chemscore.Hbonds>
donor molecule, donor type, donor heavy atom, donor atom, acceptor molecule, acceptor atom, score
      P1  H  7997  8009       L1     6  0.95

> <Gold.Chemscore.Hbond.Weighted>
-3.3400

> <Gold.Chemscore.Metal.Weighted>
-0.0000

> <Gold.Chemscore.Lipo.Weighted>
-9.2212

> <Gold.Chemscore.Internal_Hbond.Weighted>
0.0000

> <Gold.Chemscore.DEClash.Weighted>
0.0462

> <Gold.Chemscore.DEInternal.Weighted>
0.4641

> <Gold.Chemscore.Rot.Weighted>
4.5530

> <Gold.Chemscore.Internal.Correction.Weighted>
   9.000000E+99

> <Gold.Protein.RotatedTorsions>
[ 6907 6896 6895 6894 ] final  120.98 input  -60.11 | X-H torsion
[ 7974 7965 7964 7962 ] final  -29.45 input  175.53 | X-H torsion
[ 8008 7997 7996 7995 ] final -158.28 input   59.86 | X-H torsion
[ 10167 10162 10161 10158 ] final  -41.73 input  -65.29 | X-H torsion
[ 10718 10713 10712 10709 ] final  176.43 input   66.30 | X-H torsion
[ 10763 10752 10751 10750 ] final  164.04 input  -60.55 | X-H torsion
[ 11005 11000 10999 10996 ] final  110.90 input  -57.11 | X-H torsion

> <Gold.Protein.ActiveResidues>
 VAL166  LYS551  ARG553  GLY616  TRP617  ASP618  TYR619  PRO620  LYS621  CYS622 
 ASP623  PHE694  ASN695  SER759  ASP760  ASP761  ALA762  ILE779  LEU786  VAL792 
 PHE793  MET794  SER795  GLU796  ALA797  LYS798  CYS799  TRP800  GLU811  SER814 

> <Gold.Protein.RotatedAtoms>
  152.4357  133.7356  159.6611 H   0  0  0  0  0  0  0  0  0  0  0  0  # atno 6907 bound_to 6896
  150.8240  133.8192  159.3132 H   0  0  0  0  0  0  0  0  0  0  0  0  # atno 6908 bound_to 6896
  151.5866  135.1058  160.0081 H   0  0  0  0  0  0  0  0  0  0  0  0  # atno 6909 bound_to 6896
  146.1215  140.5414  142.8733 H   0  0  0  0  0  0  0  0  0  0  0  0  # atno 7974 bound_to 7965
  155.7452  140.0819  157.2227 H   0  0  0  0  0  0  0  0  0  0  0  0  # atno 8008 bound_to 7997
  154.4017  140.1570  156.2717 H   0  0  0  0  0  0  0  0  0  0  0  0  # atno 8009 bound_to 7997
  155.8983  140.3411  155.6010 H   0  0  0  0  0  0  0  0  0  0  0  0  # atno 8010 bound_to 7997
  140.6993  143.3078  151.3108 H   0  0  0  0  0  0  0  0  0  0  0  0  # atno 10167 bound_to 10162
  156.9203  130.9938  151.3006 H   0  0  0  0  0  0  0  0  0  0  0  0  # atno 10718 bound_to 10713
  154.3029  135.2758  155.2602 H   0  0  0  0  0  0  0  0  0  0  0  0  # atno 10763 bound_to 10752
  154.5032  135.5802  153.6550 H   0  0  0  0  0  0  0  0  0  0  0  0  # atno 10764 bound_to 10752
  152.9898  135.6163  154.3201 H   0  0  0  0  0  0  0  0  0  0  0  0  # atno 10765 bound_to 10752
  139.8892  134.9495  156.6350 H   0  0  0  0  0  0  0  0  0  0  0  0  # atno 11005 bound_to 11000
  144.7602  140.5403  143.6741 LP  0  0  0  0  0  0  0  0  0  0  0  0  # atno 17320 bound_to 7965
  145.5455  139.1476  143.3423 LP  0  0  0  0  0  0  0  0  0  0  0  0  # atno 17321 bound_to 7965
  139.6489  144.0398  152.2612 LP  0  0  0  0  0  0  0  0  0  0  0  0  # atno 17342 bound_to 10162
  139.9928  144.6349  150.7799 LP  0  0  0  0  0  0  0  0  0  0  0  0  # atno 17343 bound_to 10162
  157.5912  130.8445  149.8662 LP  0  0  0  0  0  0  0  0  0  0  0  0  # atno 17370 bound_to 10713
  156.0494  130.3721  150.1237 LP  0  0  0  0  0  0  0  0  0  0  0  0  # atno 17371 bound_to 10713
  140.7638  133.8795  155.8438 LP  0  0  0  0  0  0  0  0  0  0  0  0  # atno 17394 bound_to 11000
  140.9900  134.1291  157.4417 LP  0  0  0  0  0  0  0  0  0  0  0  0  # atno 17395 bound_to 11000

$$$$
