AV-unprocessed.smi:3232|AV-procd|sdf|12346|dock9
  -GOLD-   2272018213D 1   1.00000     0.00000
 Structure written by MMmdl.
 40 41  0  0  0  0  0  0  0  0  2 V2000
  146.5133  128.8719  151.6862 C   0  0  0  0  0  0  0  0  0  0  0  0
  146.7014  130.0487  152.6530 C   0  0  0  0  0  0  0  0  0  0  0  0
  146.8915  131.3343  151.9394 N   0  3  1  0  0  0  0  0  0  0  0  0
  145.9204  131.5897  150.8540 C   0  0  0  0  0  0  0  0  0  0  0  0
  145.9049  133.1034  150.6856 C   0  0  0  0  0  0  0  0  0  0  0  0
  146.0572  133.6022  152.1172 C   0  0  0  0  0  0  0  0  0  0  0  0
  146.9095  132.5284  152.8227 C   0  0  2  0  0  0  0  0  0  0  0  0
  148.3641  132.9689  153.0898 C   0  0  0  0  0  0  0  0  0  0  0  0
  148.4422  134.2144  153.8452 N   0  0  0  0  0  0  0  0  0  0  0  0
  148.1830  134.3407  155.1558 C   0  0  0  0  0  0  0  0  0  0  0  0
  147.8462  133.3939  155.8679 O   0  0  0  0  0  0  0  0  0  0  0  0
  148.3310  135.7521  155.7428 C   0  0  1  0  0  0  0  0  0  0  0  0
  147.9491  135.8185  157.2330 C   0  0  0  0  0  0  0  0  0  0  0  0
  149.6820  136.2475  155.5224 N   0  0  0  0  0  0  0  0  0  0  0  0
  150.8648  135.7810  155.9330 C   0  0  0  0  0  0  0  0  0  0  0  0
  151.8987  136.4985  155.5170 N   0  0  0  0  0  0  0  0  0  0  0  0
  151.2380  137.4580  154.8038 C   0  0  0  0  0  0  0  0  0  0  0  0
  149.9096  137.3516  154.7714 N   0  0  0  0  0  0  0  0  0  0  0  0
  146.4248  127.9338  152.2343 H   0  0  0  0  0  0  0  0  0  0  0  0
  147.3616  128.7796  151.0075 H   0  0  0  0  0  0  0  0  0  0  0  0
  145.6114  128.9842  151.0846 H   0  0  0  0  0  0  0  0  0  0  0  0
  145.8531  130.1210  153.3350 H   0  0  0  0  0  0  0  0  0  0  0  0
  147.5815  129.8561  153.2679 H   0  0  0  0  0  0  0  0  0  0  0  0
  146.1954  131.0730  149.9341 H   0  0  0  0  0  0  0  0  0  0  0  0
  144.9288  131.2457  151.1531 H   0  0  0  0  0  0  0  0  0  0  0  0
  146.7605  133.4210  150.0879 H   0  0  0  0  0  0  0  0  0  0  0  0
  144.9986  133.4687  150.2015 H   0  0  0  0  0  0  0  0  0  0  0  0
  146.4844  134.6044  152.1602 H   0  0  0  0  0  0  0  0  0  0  0  0
  145.0742  133.6503  152.5881 H   0  0  0  0  0  0  0  0  0  0  0  0
  146.4278  132.2847  153.7716 H   0  0  0  0  0  0  0  0  0  0  0  0
  148.9063  132.1870  153.6246 H   0  0  0  0  0  0  0  0  0  0  0  0
  148.8892  133.1151  152.1451 H   0  0  0  0  0  0  0  0  0  0  0  0
  148.7210  135.0417  153.3370 H   0  0  0  0  0  0  0  0  0  0  0  0
  147.6407  136.4041  155.2034 H   0  0  0  0  0  0  0  0  0  0  0  0
  146.9378  135.4452  157.3985 H   0  0  0  0  0  0  0  0  0  0  0  0
  147.9801  136.8467  157.5945 H   0  0  0  0  0  0  0  0  0  0  0  0
  148.6270  135.2311  157.8537 H   0  0  0  0  0  0  0  0  0  0  0  0
  150.9715  134.8976  156.5458 H   0  0  0  0  0  0  0  0  0  0  0  0
  151.7516  138.2574  154.2905 H   0  0  0  0  0  0  0  0  0  0  0  0
  147.8020  131.3044  151.5033 H   0  0  0  0  0  0  0  0  0  0  0  0
  1  2  1  0  0  0  0
  1 19  1  0  0  0  0
  1 20  1  0  0  0  0
  1 21  1  0  0  0  0
  2  3  1  0  0  0  0
  2 22  1  0  0  0  0
  2 23  1  0  0  0  0
  3  7  1  0  0  0  0
  3  4  1  0  0  0  0
  3 40  1  0  0  0  0
  4  5  1  0  0  0  0
  4 24  1  0  0  0  0
  4 25  1  0  0  0  0
  5  6  1  0  0  0  0
  5 26  1  0  0  0  0
  5 27  1  0  0  0  0
  6  7  1  0  0  0  0
  6 28  1  0  0  0  0
  6 29  1  0  0  0  0
  7  8  1  0  0  0  0
  7 30  1  0  0  0  0
  8  9  1  0  0  0  0
  8 31  1  0  0  0  0
  8 32  1  0  0  0  0
  9 10  1  0  0  0  0
  9 33  1  0  0  0  0
 10 11  2  0  0  0  0
 10 12  1  0  0  0  0
 12 13  1  0  0  0  0
 12 14  1  0  0  0  0
 12 34  1  0  0  0  0
 13 35  1  0  0  0  0
 13 36  1  0  0  0  0
 13 37  1  0  0  0  0
 14 18  1  0  0  0  0
 14 15  1  0  0  0  0
 15 16  2  0  0  0  0
 15 38  1  0  0  0  0
 16 17  1  0  0  0  0
 17 18  2  0  0  0  0
 17 39  1  0  0  0  0
M  CHG  1   3   1
M  END
> <s_m_source_file>
AV-unprocessed.smi

> <i_m_source_file_index>
3232

> <i_lp_mmshare_version>
43012

> <i_f3d_flags>
0

> <s_epik_input>
W0NIM11bQ0gyXU4xW0NIMl1bQ0gyXVtDSDJdW0NASF0xW0NIMl1bTkhdQyg9TylbQ0BIXShbQ0gzXSluMltjSF1uW2NIXW4y

> <s_epik_cmdline>
J2VwaWtfcHl0aG9uJywgJy1waCcsICc3LjAnLCAnLXRuJywgJzgnLCAnLW1hJywgJzIwMCcsICctbWV0YWxfYmluZGluZycsICctaW1hZScsICc8aW5maWxlLm1hZT4nLCAnLW9tYWUnLCAnPG91dGZpbGUubWFlPic=

> <r_lp_tautomer_probability>
1

> <r_epik_Ionization_Penalty>
0.00177695

> <r_epik_Ionization_Penalty_Charging>
0.00176881

> <r_epik_Ionization_Penalty_Neutral>
8.13528e-06

> <r_epik_State_Penalty>
0.00119827

> <r_epik_Charging_Adjusted_Penalty>
0.00296709

> <i_epik_Tot_Q>
1

> <i_epik_Tot_abs_Q>
1

> <r_epik_Metal_State_Penalty>
-0

> <b_epik_Metal_Only>
0

> <s_lp_Force_Field>
OPLS_2005

> <r_lp_Energy>
32.5075

> <b_lp_Chiralities_Consistent>
1

> <s_lp_Variant>
AV-unprocessed.smi:3232-8

> <Gold.Version>
5.8.1

> <Gold.Id.Protein>
6NUR|6NUR_protein|mol2

> <Gold.PLP.Fitness>
36.5672

> <Gold.PLP.PLP>
-27.8548

> <Gold.PLP.part.hbond>
-3.0000

> <Gold.PLP.part.metal>
0.0000

> <Gold.PLP.part.buried>
-4.8994

> <Gold.PLP.part.nonpolar>
-21.1108

> <Gold.PLP.part.repulsive>
0.2655

> <Gold.PLP.ligand.clash>
0.0000

> <Gold.PLP.ligand.torsion>
0.1825

> <Gold.PLP.Chemscore.Hbond>
3.0000

> <Gold.PLP.Chemscore.CHOScore>
0.0000

> <Gold.PLP.Chemscore.Metal>
0.0000

> <Gold.Chemscore.Hbonds>
donor molecule, donor type, donor heavy atom, donor atom, acceptor molecule, acceptor atom, score
      L1  H     3    40       P1 10747  1.00
      L1  H     9    33       P1  7948  1.00
      P1  H 10752 10764       L1    16  1.00

> <Gold.PLP.Chemscore.Internal.Correction>
0.0775

> <Gold.Rescore>
     Score         DG    S(hbond)    S(metal)    S(lipo)     H(rot)  DE(clash)    DE(int)     intcor
     14.48     -14.70       2.70        0.00      56.11       2.49       0.01       0.20       ----

> <Gold.Chemscore.Fitness>
14.4826

> <Gold.Chemscore.DG>
-14.6976

> <Gold.Chemscore.ZeroCoef>
-5.4800

> <Gold.Chemscore.Hbond>
2.7013

> <Gold.Chemscore.Metal>
0.0000

> <Gold.Chemscore.Lipo>
56.1116

> <Gold.Chemscore.Internal_Hbond>
0.0000

> <Gold.Chemscore.DEClash>
0.0149

> <Gold.Chemscore.DEInternal>
0.2002

> <Gold.Chemscore.Rot>
2.4882

> <Gold.Chemscore.Internal.Correction>
   9.000000E+99

> <Gold.Chemscore.Hbonds>
donor molecule, donor type, donor heavy atom, donor atom, acceptor molecule, acceptor atom, score
      L1  H     3    40       P1 10747  0.99
      L1  H     9    33       P1  7948  0.60
      P1  H 10752 10764       L1    16  0.74

> <Gold.Chemscore.Hbond.Weighted>
-9.0223

> <Gold.Chemscore.Metal.Weighted>
-0.0000

> <Gold.Chemscore.Lipo.Weighted>
-6.5651

> <Gold.Chemscore.Internal_Hbond.Weighted>
0.0000

> <Gold.Chemscore.DEClash.Weighted>
0.0149

> <Gold.Chemscore.DEInternal.Weighted>
0.2002

> <Gold.Chemscore.Rot.Weighted>
6.3697

> <Gold.Chemscore.Internal.Correction.Weighted>
   9.000000E+99

> <Gold.Protein.RotatedTorsions>
[ 6907 6896 6895 6894 ] final  130.35 input  -60.11 | X-H torsion
[ 7974 7965 7964 7962 ] final   75.88 input  175.53 | X-H torsion
[ 8008 7997 7996 7995 ] final  -14.83 input   59.86 | X-H torsion
[ 10167 10162 10161 10158 ] final -165.72 input  -65.29 | X-H torsion
[ 10718 10713 10712 10709 ] final    4.40 input   66.30 | X-H torsion
[ 10763 10752 10751 10750 ] final  -50.94 input  -60.55 | X-H torsion
[ 11005 11000 10999 10996 ] final   25.14 input  -57.11 | X-H torsion

> <Gold.Protein.ActiveResidues>
 VAL166  LYS551  ARG553  GLY616  TRP617  ASP618  TYR619  PRO620  LYS621  CYS622 
 ASP623  PHE694  ASN695  SER759  ASP760  ASP761  ALA762  ILE779  LEU786  VAL792 
 PHE793  MET794  SER795  GLU796  ALA797  LYS798  CYS799  TRP800  GLU811  SER814 

> <Gold.Protein.RotatedAtoms>
  152.3535  133.6208  159.5961 H   0  0  0  0  0  0  0  0  0  0  0  0  # atno 6907 bound_to 6896
  150.7553  133.9537  159.3502 H   0  0  0  0  0  0  0  0  0  0  0  0  # atno 6908 bound_to 6896
  151.7386  135.0860  160.0363 H   0  0  0  0  0  0  0  0  0  0  0  0  # atno 6909 bound_to 6896
  145.7100  139.2611  143.1656 H   0  0  0  0  0  0  0  0  0  0  0  0  # atno 7974 bound_to 7965
  154.5178  140.2212  155.9032 H   0  0  0  0  0  0  0  0  0  0  0  0  # atno 8008 bound_to 7997
  156.1628  140.3138  155.8802 H   0  0  0  0  0  0  0  0  0  0  0  0  # atno 8009 bound_to 7997
  155.3717  140.0467  157.3036 H   0  0  0  0  0  0  0  0  0  0  0  0  # atno 8010 bound_to 7997
  139.6163  144.0713  152.1891 H   0  0  0  0  0  0  0  0  0  0  0  0  # atno 10167 bound_to 10162
  156.8920  130.5691  149.5649 H   0  0  0  0  0  0  0  0  0  0  0  0  # atno 10718 bound_to 10713
  154.1185  135.6538  153.4898 H   0  0  0  0  0  0  0  0  0  0  0  0  # atno 10763 bound_to 10752
  153.0233  135.5264  154.7121 H   0  0  0  0  0  0  0  0  0  0  0  0  # atno 10764 bound_to 10752
  154.6321  135.2977  155.0173 H   0  0  0  0  0  0  0  0  0  0  0  0  # atno 10765 bound_to 10752
  140.3511  134.2228  155.7680 H   0  0  0  0  0  0  0  0  0  0  0  0  # atno 11005 bound_to 11000
  146.0721  140.7857  142.9683 LP  0  0  0  0  0  0  0  0  0  0  0  0  # atno 17320 bound_to 7965
  144.6944  140.3358  143.7208 LP  0  0  0  0  0  0  0  0  0  0  0  0  # atno 17321 bound_to 7965
  140.0344  144.6056  150.7461 LP  0  0  0  0  0  0  0  0  0  0  0  0  # atno 17342 bound_to 10162
  140.7353  143.2739  151.3802 LP  0  0  0  0  0  0  0  0  0  0  0  0  # atno 17343 bound_to 10162
  156.0624  130.5674  150.9220 LP  0  0  0  0  0  0  0  0  0  0  0  0  # atno 17370 bound_to 10713
  157.6078  131.0938  150.8849 LP  0  0  0  0  0  0  0  0  0  0  0  0  # atno 17371 bound_to 10713
  141.2012  133.7969  157.0453 LP  0  0  0  0  0  0  0  0  0  0  0  0  # atno 17394 bound_to 11000
  140.0702  134.9706  157.1455 LP  0  0  0  0  0  0  0  0  0  0  0  0  # atno 17395 bound_to 11000

$$$$
