AV-unprocessed.smi:160|AV-procd|sdf|1362|dock5
  -GOLD-   2262019 73D 1   1.00000     0.00000
 Structure written by MMmdl.
 28 29  0  0  0  0  0  0  0  0  2 V2000
  147.7294  136.9155  160.5623 N   0  5  0  0  0  0  0  0  0  0  0  0
  148.4068  136.6186  159.4317 C   0  0  0  0  0  0  0  0  0  0  0  0
  149.0035  135.5686  159.1956 O   0  0  0  0  0  0  0  0  0  0  0  0
  148.4017  137.7137  158.3914 C   0  0  0  0  0  0  0  0  0  0  0  0
  147.5777  138.7976  158.5246 N   0  0  0  0  0  0  0  0  0  0  0  0
  147.9088  139.4529  157.4204 C   0  0  0  0  0  0  0  0  0  0  0  0
  148.8322  138.8393  156.6752 N   0  0  0  0  0  0  0  0  0  0  0  0
  149.4585  139.2608  155.3831 C   0  0  1  0  0  0  0  0  0  0  0  0
  148.4508  139.2970  154.4177 O   0  0  0  0  0  0  0  0  0  0  0  0
  148.5057  140.5194  153.6861 C   0  0  1  0  0  0  0  0  0  0  0  0
  147.1239  140.8808  153.1130 C   0  0  0  0  0  0  0  0  0  0  0  0
  146.9472  140.2765  151.8493 O   0  0  0  0  0  0  0  0  0  0  0  0
  149.0944  141.5272  154.6837 C   0  0  1  0  0  0  0  0  0  0  0  0
  148.0854  142.0696  155.5180 O   0  0  0  0  0  0  0  0  0  0  0  0
  150.0924  140.6655  155.4475 C   0  0  1  0  0  0  0  0  0  0  0  0
  150.3902  141.1578  156.7438 O   0  0  0  0  0  0  0  0  0  0  0  0
  149.1796  137.6903  157.3047 N   0  0  0  0  0  0  0  0  0  0  0  0
  150.1828  138.4757  155.1632 H   0  0  0  0  0  0  0  0  0  0  0  0
  149.2263  140.3948  152.8754 H   0  0  0  0  0  0  0  0  0  0  0  0
  149.5900  142.3553  154.1762 H   0  0  0  0  0  0  0  0  0  0  0  0
  151.0212  140.6187  154.8774 H   0  0  0  0  0  0  0  0  0  0  0  0
  146.9590  136.2984  160.8459 H   0  0  0  0  0  0  0  0  0  0  0  0
  147.4649  140.3986  157.1463 H   0  0  0  0  0  0  0  0  0  0  0  0
  146.3236  140.5824  153.7911 H   0  0  0  0  0  0  0  0  0  0  0  0
  147.0455  141.9591  152.9705 H   0  0  0  0  0  0  0  0  0  0  0  0
  147.7255  139.7815  151.6440 H   0  0  0  0  0  0  0  0  0  0  0  0
  148.3047  142.9700  155.7046 H   0  0  0  0  0  0  0  0  0  0  0  0
  151.2231  141.6027  156.7138 H   0  0  0  0  0  0  0  0  0  0  0  0
  1  2  1  0  0  0  0
  1 22  1  0  0  0  0
  2  3  2  0  0  0  0
  2  4  1  0  0  0  0
  4 17  2  0  0  0  0
  4  5  1  0  0  0  0
  5  6  2  0  0  0  0
  6  7  1  0  0  0  0
  6 23  1  0  0  0  0
  7  8  1  0  0  0  0
  7 17  1  0  0  0  0
  8 18  1  0  0  0  0
  8 15  1  0  0  0  0
  8  9  1  0  0  0  0
  9 10  1  0  0  0  0
 10 19  1  0  0  0  0
 10 11  1  0  0  0  0
 10 13  1  0  0  0  0
 11 12  1  0  0  0  0
 11 24  1  0  0  0  0
 11 25  1  0  0  0  0
 12 26  1  0  0  0  0
 13 20  1  0  0  0  0
 13 14  1  0  0  0  0
 13 15  1  0  0  0  0
 14 27  1  0  0  0  0
 15 21  1  0  0  0  0
 15 16  1  0  0  0  0
 16 28  1  0  0  0  0
M  CHG  1   1  -1
M  END
> <s_m_source_file>
AV-unprocessed.smi

> <i_m_source_file_index>
160

> <i_lp_mmshare_version>
43012

> <i_f3d_flags>
0

> <s_epik_input>
W05IMl1DKD1PKWMxbltjSF1uKG4xKVtDQEBIXTJPW0NASF0oW0NIMl1bT0hdKVtDQEBIXShbT0hdKVtDQEhdMltPSF0=

> <s_epik_cmdline>
J2VwaWtfcHl0aG9uJywgJy1waCcsICc3LjAnLCAnLXRuJywgJzgnLCAnLW1hJywgJzIwMCcsICctbWV0YWxfYmluZGluZycsICctaW1hZScsICc8aW5maWxlLm1hZT4nLCAnLW9tYWUnLCAnPG91dGZpbGUubWFlPic=

> <r_lp_tautomer_probability>
1

> <r_epik_Ionization_Penalty>
6.6993

> <r_epik_Ionization_Penalty_Charging>
6.6993

> <r_epik_Ionization_Penalty_Neutral>
6.01698e-06

> <r_epik_State_Penalty>
6.69929

> <r_epik_Charging_Adjusted_Penalty>
13.3986

> <i_epik_Tot_Q>
-1

> <i_epik_Tot_abs_Q>
1

> <r_epik_Metal_State_Penalty>
2.62798

> <b_epik_Metal_Only>
1

> <s_epik_Chemistry_Notes>
This compound contains an acetal/aminal-like group ( X-CH(R)-Y where X, Y are N, S, or O) that may be acid/base labile, releasing an aldehyde.

> <s_lp_Force_Field>
OPLS_2005

> <r_lp_Energy>
51.4857

> <b_lp_Chiralities_Consistent>
1

> <s_lp_Variant>
AV-unprocessed.smi:160-20

> <Gold.Version>
5.8.1

> <Gold.Id.Protein>
6NUR|6NUR_protein|mol2

> <Gold.PLP.Fitness>
40.0869

> <Gold.PLP.PLP>
-22.4995

> <Gold.PLP.part.hbond>
-6.1757

> <Gold.PLP.part.metal>
0.0000

> <Gold.PLP.part.buried>
-0.7213

> <Gold.PLP.part.nonpolar>
-14.8347

> <Gold.PLP.part.repulsive>
0.1244

> <Gold.PLP.ligand.clash>
0.0000

> <Gold.PLP.ligand.torsion>
0.4005

> <Gold.PLP.Chemscore.Hbond>
6.1280

> <Gold.PLP.Chemscore.CHOScore>
0.0000

> <Gold.PLP.Chemscore.Metal>
0.0000

> <Gold.Chemscore.Hbonds>
donor molecule, donor type, donor heavy atom, donor atom, acceptor molecule, acceptor atom, score
      L1  H    12    26       P1  7957  0.82
      L1  H    14    27       P1  8028  1.00
      P1  H  6896  6908       L1     3  1.00
      P1  H  6931  6943       L1     1  0.60
      P1  H  6934  6947       L1     1  1.07

> <Gold.PLP.Chemscore.Internal.Correction>
0.0045

> <Gold.Rescore>
     Score         DG    S(hbond)    S(metal)    S(lipo)     H(rot)  DE(clash)    DE(int)     intcor
     10.00     -11.62       3.81        0.00      32.00       4.04       1.23       0.38       ----

> <Gold.Chemscore.Fitness>
10.0028

> <Gold.Chemscore.DG>
-11.6200

> <Gold.Chemscore.ZeroCoef>
-5.4800

> <Gold.Chemscore.Hbond>
3.8142

> <Gold.Chemscore.Metal>
0.0000

> <Gold.Chemscore.Lipo>
31.9969

> <Gold.Chemscore.Internal_Hbond>
0.0000

> <Gold.Chemscore.DEClash>
1.2330

> <Gold.Chemscore.DEInternal>
0.3842

> <Gold.Chemscore.Rot>
4.0403

> <Gold.Chemscore.Internal.Correction>
   9.000000E+99

> <Gold.Chemscore.Hbonds>
donor molecule, donor type, donor heavy atom, donor atom, acceptor molecule, acceptor atom, score
      L1  H    12    26       P1  7957  0.81
      L1  H    14    27       P1  8028  0.96
      P1  H  6896  6908       L1     3  0.98
      P1  H  6931  6943       L1     1  0.20
      P1  H  6934  6947       L1     1  0.36

> <Gold.Chemscore.Hbond.Weighted>
-12.7395

> <Gold.Chemscore.Metal.Weighted>
-0.0000

> <Gold.Chemscore.Lipo.Weighted>
-3.7436

> <Gold.Chemscore.Internal_Hbond.Weighted>
0.0000

> <Gold.Chemscore.DEClash.Weighted>
1.2330

> <Gold.Chemscore.DEInternal.Weighted>
0.3842

> <Gold.Chemscore.Rot.Weighted>
10.3431

> <Gold.Chemscore.Internal.Correction.Weighted>
   9.000000E+99

> <Gold.Protein.RotatedTorsions>
[ 6907 6896 6895 6894 ] final  175.64 input  -60.11 | X-H torsion
[ 7974 7965 7964 7962 ] final   16.41 input  175.53 | X-H torsion
[ 8008 7997 7996 7995 ] final -148.40 input   59.86 | X-H torsion
[ 10167 10162 10161 10158 ] final -111.66 input  -65.29 | X-H torsion
[ 10718 10713 10712 10709 ] final  104.47 input   66.30 | X-H torsion
[ 10763 10752 10751 10750 ] final -100.55 input  -60.55 | X-H torsion
[ 11005 11000 10999 10996 ] final -171.81 input  -57.11 | X-H torsion

> <Gold.Protein.ActiveResidues>
 VAL166  LYS551  ARG553  GLY616  TRP617  ASP618  TYR619  PRO620  LYS621  CYS622 
 ASP623  PHE694  ASN695  SER759  ASP760  ASP761  ALA762  ILE779  LEU786  VAL792 
 PHE793  MET794  SER795  GLU796  ALA797  LYS798  CYS799  TRP800  GLU811  SER814 

> <Gold.Protein.RotatedAtoms>
  151.7330  133.3318  159.3345 H   0  0  0  0  0  0  0  0  0  0  0  0  # atno 6907 bound_to 6896
  150.7605  134.6346  159.6214 H   0  0  0  0  0  0  0  0  0  0  0  0  # atno 6908 bound_to 6896
  152.3580  134.6915  160.0268 H   0  0  0  0  0  0  0  0  0  0  0  0  # atno 6909 bound_to 6896
  146.2250  139.8752  142.8580 H   0  0  0  0  0  0  0  0  0  0  0  0  # atno 7974 bound_to 7965
  155.5911  140.0652  157.2758 H   0  0  0  0  0  0  0  0  0  0  0  0  # atno 8008 bound_to 7997
  154.4305  140.1835  156.1122 H   0  0  0  0  0  0  0  0  0  0  0  0  # atno 8009 bound_to 7997
  156.0232  140.3314  155.7064 H   0  0  0  0  0  0  0  0  0  0  0  0  # atno 8010 bound_to 7997
  140.1312  143.4359  152.1626 H   0  0  0  0  0  0  0  0  0  0  0  0  # atno 10167 bound_to 10162
  157.6739  131.0804  150.5712 H   0  0  0  0  0  0  0  0  0  0  0  0  # atno 10718 bound_to 10713
  154.7587  135.4931  153.9424 H   0  0  0  0  0  0  0  0  0  0  0  0  # atno 10763 bound_to 10752
  153.1226  135.6735  153.9317 H   0  0  0  0  0  0  0  0  0  0  0  0  # atno 10764 bound_to 10752
  153.9045  135.3106  155.3427 H   0  0  0  0  0  0  0  0  0  0  0  0  # atno 10765 bound_to 10752
  140.5041  134.5865  157.4997 H   0  0  0  0  0  0  0  0  0  0  0  0  # atno 11005 bound_to 11000
  145.2568  141.0063  143.3849 LP  0  0  0  0  0  0  0  0  0  0  0  0  # atno 17320 bound_to 7965
  144.9330  139.4276  143.6486 LP  0  0  0  0  0  0  0  0  0  0  0  0  # atno 17321 bound_to 7965
  139.5519  144.7344  151.4410 LP  0  0  0  0  0  0  0  0  0  0  0  0  # atno 17342 bound_to 10162
  140.6816  143.8069  150.7129 LP  0  0  0  0  0  0  0  0  0  0  0  0  # atno 17343 bound_to 10162
  156.6013  130.4355  149.5896 LP  0  0  0  0  0  0  0  0  0  0  0  0  # atno 17370 bound_to 10713
  156.2504  130.6904  151.1639 LP  0  0  0  0  0  0  0  0  0  0  0  0  # atno 17371 bound_to 10713
  139.9696  134.7314  156.0067 LP  0  0  0  0  0  0  0  0  0  0  0  0  # atno 17394 bound_to 11000
  141.1420  133.6563  156.3758 LP  0  0  0  0  0  0  0  0  0  0  0  0  # atno 17395 bound_to 11000

$$$$
