AV-unprocessed.smi:72|AV-procd|sdf|740|dock8
  -GOLD-   2262017 73D 1   1.00000     0.00000
 Structure written by MMmdl.
 28 29  0  0  0  0  0  0  0  0  2 V2000
  152.7049  136.0407  158.4380 N   0  0  0  0  0  0  0  0  0  0  0  0
  152.2745  136.9984  157.7401 C   0  0  0  0  0  0  0  0  0  0  0  0
  151.6421  138.1316  158.3785 N   0  0  0  0  0  0  0  0  0  0  0  0
  151.2466  139.1096  157.6227 C   0  0  0  0  0  0  0  0  0  0  0  0
  151.4408  139.0949  156.1763 N   0  0  0  0  0  0  0  0  0  0  0  0
  150.9856  140.2333  155.2743 C   0  0  1  0  0  0  0  0  0  0  0  0
  150.1095  139.7489  154.2961 O   0  0  0  0  0  0  0  0  0  0  0  0
  148.7622  139.9842  154.6949 C   0  0  2  0  0  0  0  0  0  0  0  0
  147.7990  139.8678  153.5011 C   0  0  0  0  0  0  0  0  0  0  0  0
  148.0771  138.6907  152.7731 O   0  0  0  0  0  0  0  0  0  0  0  0
  148.8615  141.3694  155.3401 C   0  0  2  0  0  0  0  0  0  0  0  0
  148.8447  142.3828  154.3473 O   0  0  0  0  0  0  0  0  0  0  0  0
  150.1976  141.2913  156.0788 C   0  0  2  0  0  0  0  0  0  0  0  0
  150.8507  142.5451  156.1515 O   0  0  0  0  0  0  0  0  0  0  0  0
  152.0217  137.9450  155.5754 C   0  0  0  0  0  0  0  0  0  0  0  0
  152.1325  137.9248  154.3492 O   0  0  0  0  0  0  0  0  0  0  0  0
  152.4283  136.9195  156.3742 N   0  5  0  0  0  0  0  0  0  0  0  0
  151.8946  140.6053  154.7981 H   0  0  0  0  0  0  0  0  0  0  0  0
  148.4806  139.2699  155.4708 H   0  0  0  0  0  0  0  0  0  0  0  0
  148.0356  141.5556  156.0272 H   0  0  0  0  0  0  0  0  0  0  0  0
  150.0238  140.9207  157.0904 H   0  0  0  0  0  0  0  0  0  0  0  0
  153.1239  135.3097  157.8819 H   0  0  0  0  0  0  0  0  0  0  0  0
  150.7494  139.9905  158.0279 H   0  0  0  0  0  0  0  0  0  0  0  0
  146.7695  139.7994  153.8538 H   0  0  0  0  0  0  0  0  0  0  0  0
  147.8641  140.7390  152.8484 H   0  0  0  0  0  0  0  0  0  0  0  0
  148.7800  138.8739  152.1683 H   0  0  0  0  0  0  0  0  0  0  0  0
  149.1405  143.1880  154.7446 H   0  0  0  0  0  0  0  0  0  0  0  0
  150.2196  143.2177  155.9416 H   0  0  0  0  0  0  0  0  0  0  0  0
  1  2  2  0  0  0  0
  1 22  1  0  0  0  0
  2 17  1  0  0  0  0
  2  3  1  0  0  0  0
  3  4  2  0  0  0  0
  4  5  1  0  0  0  0
  4 23  1  0  0  0  0
  5  6  1  0  0  0  0
  5 15  1  0  0  0  0
  6 18  1  0  0  0  0
  6 13  1  0  0  0  0
  6  7  1  0  0  0  0
  7  8  1  0  0  0  0
  8 19  1  0  0  0  0
  8  9  1  0  0  0  0
  8 11  1  0  0  0  0
  9 10  1  0  0  0  0
  9 24  1  0  0  0  0
  9 25  1  0  0  0  0
 10 26  1  0  0  0  0
 11 20  1  0  0  0  0
 11 12  1  0  0  0  0
 11 13  1  0  0  0  0
 12 27  1  0  0  0  0
 13 21  1  0  0  0  0
 13 14  1  0  0  0  0
 14 28  1  0  0  0  0
 15 16  2  0  0  0  0
 15 17  1  0  0  0  0
M  CHG  1  17  -1
M  END
> <s_m_source_file>
AV-unprocessed.smi

> <i_m_source_file_index>
72

> <i_lp_mmshare_version>
43012

> <i_f3d_flags>
0

> <s_epik_input>
W05IMl1jMW5bY0hdbihjKD1PKW4xKVtDQEBIXTJPW0NASF0oW0NIMl1bT0hdKVtDQEBIXShbT0hdKVtDQEhdMltPSF0=

> <s_epik_cmdline>
J2VwaWtfcHl0aG9uJywgJy1waCcsICc3LjAnLCAnLXRuJywgJzgnLCAnLW1hJywgJzIwMCcsICctbWV0YWxfYmluZGluZycsICctaW1hZScsICc8aW5maWxlLm1hZT4nLCAnLW9tYWUnLCAnPG91dGZpbGUubWFlPic=

> <r_lp_tautomer_probability>
7.17554e-07

> <r_epik_Ionization_Penalty>
12.8705

> <r_epik_Ionization_Penalty_Charging>
5.64144

> <r_epik_Ionization_Penalty_Neutral>
7.22905

> <r_epik_State_Penalty>
3.30104

> <r_epik_Charging_Adjusted_Penalty>
8.94249

> <i_epik_Tot_Q>
-1

> <i_epik_Tot_abs_Q>
1

> <r_epik_Metal_State_Penalty>
0.529074

> <b_epik_Metal_Only>
1

> <s_epik_Chemistry_Notes>
This compound contains an acetal/aminal-like group ( X-CH(R)-Y where X, Y are N, S, or O) that may be acid/base labile, releasing an aldehyde.

> <s_lp_Force_Field>
OPLS_2005

> <r_lp_Energy>
36.2844

> <b_lp_Chiralities_Consistent>
1

> <s_lp_Variant>
AV-unprocessed.smi:72-78

> <Gold.Version>
5.8.1

> <Gold.Id.Protein>
6NUR|6NUR_protein|mol2

> <Gold.PLP.Fitness>
40.7191

> <Gold.PLP.PLP>
-24.5607

> <Gold.PLP.part.hbond>
-8.3867

> <Gold.PLP.part.metal>
0.0000

> <Gold.PLP.part.buried>
-1.6603

> <Gold.PLP.part.nonpolar>
-15.5573

> <Gold.PLP.part.repulsive>
0.2653

> <Gold.PLP.ligand.clash>
0.0000

> <Gold.PLP.ligand.torsion>
0.1733

> <Gold.PLP.Chemscore.Hbond>
5.4946

> <Gold.PLP.Chemscore.CHOScore>
0.0000

> <Gold.PLP.Chemscore.Metal>
0.0000

> <Gold.Chemscore.Hbonds>
donor molecule, donor type, donor heavy atom, donor atom, acceptor molecule, acceptor atom, score
      L1  H    10    26       P1  7957  0.98
      L1  H    12    27       P1  8028  1.00
      L1  H    14    28       P1  8028  1.00
      P1  H  6896  6908       L1     1  0.45
      P1  H  8011  8017       L1    12  0.11
      P1  H 10752 10765       L1    17  1.82

> <Gold.PLP.Chemscore.Internal.Correction>
0.0213

> <Gold.Rescore>
     Score         DG    S(hbond)    S(metal)    S(lipo)     H(rot)  DE(clash)    DE(int)     intcor
      9.65     -11.21       4.01        0.00      22.84       4.04       0.04       1.52       ----

> <Gold.Chemscore.Fitness>
9.6482

> <Gold.Chemscore.DG>
-11.2065

> <Gold.Chemscore.ZeroCoef>
-5.4800

> <Gold.Chemscore.Hbond>
4.0113

> <Gold.Chemscore.Metal>
0.0000

> <Gold.Chemscore.Lipo>
22.8357

> <Gold.Chemscore.Internal_Hbond>
0.0000

> <Gold.Chemscore.DEClash>
0.0431

> <Gold.Chemscore.DEInternal>
1.5151

> <Gold.Chemscore.Rot>
4.0403

> <Gold.Chemscore.Internal.Correction>
   9.000000E+99

> <Gold.Chemscore.Hbonds>
donor molecule, donor type, donor heavy atom, donor atom, acceptor molecule, acceptor atom, score
      L1  H    10    26       P1  7957  0.87
      L1  H    12    27       P1  8028  0.97
      L1  H    14    28       P1  8028  0.93
      P1  H  6896  6908       L1     1  0.13
      P1  H  8011  8017       L1    12  0.04
      P1  H 10752 10765       L1    17  0.46

> <Gold.Chemscore.Hbond.Weighted>
-13.3978

> <Gold.Chemscore.Metal.Weighted>
-0.0000

> <Gold.Chemscore.Lipo.Weighted>
-2.6718

> <Gold.Chemscore.Internal_Hbond.Weighted>
0.0000

> <Gold.Chemscore.DEClash.Weighted>
0.0431

> <Gold.Chemscore.DEInternal.Weighted>
1.5151

> <Gold.Chemscore.Rot.Weighted>
10.3431

> <Gold.Chemscore.Internal.Correction.Weighted>
   9.000000E+99

> <Gold.Protein.RotatedTorsions>
[ 6907 6896 6895 6894 ] final  -91.39 input  -60.11 | X-H torsion
[ 7974 7965 7964 7962 ] final  133.11 input  175.53 | X-H torsion
[ 8008 7997 7996 7995 ] final -100.98 input   59.86 | X-H torsion
[ 10167 10162 10161 10158 ] final   42.37 input  -65.29 | X-H torsion
[ 10718 10713 10712 10709 ] final  165.55 input   66.30 | X-H torsion
[ 10763 10752 10751 10750 ] final -145.73 input  -60.55 | X-H torsion
[ 11005 11000 10999 10996 ] final   75.20 input  -57.11 | X-H torsion

> <Gold.Protein.ActiveResidues>
 VAL166  LYS551  ARG553  GLY616  TRP617  ASP618  TYR619  PRO620  LYS621  CYS622 
 ASP623  PHE694  ASN695  SER759  ASP760  ASP761  ALA762  ILE779  LEU786  VAL792 
 PHE793  MET794  SER795  GLU796  ALA797  LYS798  CYS799  TRP800  GLU811  SER814 

> <Gold.Protein.RotatedAtoms>
  150.6892  134.2284  159.4424 H   0  0  0  0  0  0  0  0  0  0  0  0  # atno 6907 bound_to 6896
  152.0237  134.9806  160.0580 H   0  0  0  0  0  0  0  0  0  0  0  0  # atno 6908 bound_to 6896
  152.1373  133.4408  159.4786 H   0  0  0  0  0  0  0  0  0  0  0  0  # atno 6909 bound_to 6896
  144.9898  139.4418  143.5345 H   0  0  0  0  0  0  0  0  0  0  0  0  # atno 7974 bound_to 7965
  154.8362  140.0437  157.1511 H   0  0  0  0  0  0  0  0  0  0  0  0  # atno 8008 bound_to 7997
  154.9097  140.3012  155.5252 H   0  0  0  0  0  0  0  0  0  0  0  0  # atno 8009 bound_to 7997
  156.2990  140.2360  156.4135 H   0  0  0  0  0  0  0  0  0  0  0  0  # atno 8010 bound_to 7997
  140.3551  144.2301  150.6142 H   0  0  0  0  0  0  0  0  0  0  0  0  # atno 10167 bound_to 10162
  157.0786  131.0386  151.2584 H   0  0  0  0  0  0  0  0  0  0  0  0  # atno 10718 bound_to 10713
  154.8370  135.3405  154.6550 H   0  0  0  0  0  0  0  0  0  0  0  0  # atno 10763 bound_to 10752
  153.7164  135.6961  153.5028 H   0  0  0  0  0  0  0  0  0  0  0  0  # atno 10764 bound_to 10752
  153.2414  135.4383  155.0655 H   0  0  0  0  0  0  0  0  0  0  0  0  # atno 10765 bound_to 10752
  139.9355  134.7497  156.1241 H   0  0  0  0  0  0  0  0  0  0  0  0  # atno 11005 bound_to 11000
  146.3429  139.9223  142.8765 LP  0  0  0  0  0  0  0  0  0  0  0  0  # atno 17320 bound_to 7965
  145.2301  140.9969  143.3995 LP  0  0  0  0  0  0  0  0  0  0  0  0  # atno 17321 bound_to 7965
  140.5182  143.2272  151.8430 LP  0  0  0  0  0  0  0  0  0  0  0  0  # atno 17342 bound_to 10162
  139.4821  144.4869  151.9235 LP  0  0  0  0  0  0  0  0  0  0  0  0  # atno 17343 bound_to 10162
  157.4819  130.7770  149.7422 LP  0  0  0  0  0  0  0  0  0  0  0  0  # atno 17370 bound_to 10713
  155.9930  130.3927  150.2918 LP  0  0  0  0  0  0  0  0  0  0  0  0  # atno 17371 bound_to 10713
  141.0966  133.6693  156.2659 LP  0  0  0  0  0  0  0  0  0  0  0  0  # atno 17394 bound_to 11000
  140.6087  134.5480  157.5530 LP  0  0  0  0  0  0  0  0  0  0  0  0  # atno 17395 bound_to 11000

$$$$
