AV-unprocessed.smi:269|AV-procd|sdf|2043|dock10
  -GOLD-   2262021263D 1   1.00000     0.00000
 Structure written by MMmdl.
 61 64  0  0  0  0  0  0  0  0  1 V2000
  151.4432  145.4622  159.5077 C   0  0  0  0  0  0  0  0  0  0  0  0
  152.0061  144.0460  159.6875 C   0  0  0  0  0  0  0  0  0  0  0  0
  151.9073  143.2738  158.4551 N   0  0  0  0  0  0  0  0  0  0  0  0
  150.7611  142.9592  157.8318 C   0  0  0  0  0  0  0  0  0  0  0  0
  149.6495  143.2763  158.2545 O   0  0  0  0  0  0  0  0  0  0  0  0
  150.8859  142.1807  156.5173 C   0  0  0  0  0  0  0  0  0  0  0  0
  150.1174  140.9158  156.4844 N   0  0  0  0  0  0  0  0  0  0  0  0
  150.5098  140.1376  155.3037 C   0  0  0  0  0  0  0  0  0  0  0  0
  149.7927  138.7753  155.3044 C   0  0  0  0  0  0  0  0  0  0  0  0
  148.3489  138.9687  155.3285 N   0  0  0  0  0  0  0  0  0  0  0  0
  147.6430  137.8299  155.1695 C   0  0  0  0  0  0  0  0  0  0  0  0
  147.9435  136.7996  155.9970 N   0  0  0  0  0  0  0  0  0  0  0  0
  147.2799  135.6443  155.8921 C   0  0  0  0  0  0  0  0  0  0  0  0
  146.3023  135.3165  155.0442 N   0  0  0  0  0  0  0  0  0  0  0  0
  146.0001  136.3520  154.2089 C   0  0  0  0  0  0  0  0  0  0  0  0
  146.6127  137.6366  154.2062 C   0  0  0  0  0  0  0  0  0  0  0  0
  146.0361  138.4343  153.2257 N   0  0  0  0  0  0  0  0  0  0  0  0
  145.1350  137.6649  152.6791 C   0  0  0  0  0  0  0  0  0  0  0  0
  145.0563  136.3906  153.1964 N   0  0  0  0  0  0  0  0  0  0  0  0
  144.1480  135.3322  152.7771 C   0  0  0  0  0  0  0  0  0  0  0  0
  144.8049  134.2043  151.9264 C   0  0  0  0  0  0  0  0  0  0  0  0
  145.7146  134.8059  150.8167 C   0  0  0  0  0  0  0  0  0  0  0  0
  144.9791  135.5527  149.8681 O   0  0  0  0  0  0  0  0  0  0  0  0
  145.6486  133.2806  152.8412 C   0  0  0  0  0  0  0  0  0  0  0  0
  146.0693  131.9696  152.1515 C   0  0  0  0  0  0  0  0  0  0  0  0
  144.9223  131.2804  151.6723 O   0  0  0  0  0  0  0  0  0  0  0  0
  144.1986  132.0222  150.6993 C   0  0  0  0  0  0  0  0  0  0  0  0
  143.6777  133.3312  151.3195 C   0  0  0  0  0  0  0  0  0  0  0  0
  147.9263  139.7796  156.4635 C   0  0  0  0  0  0  0  0  0  0  0  0
  148.6621  141.1323  156.4578 C   0  0  0  0  0  0  0  0  0  0  0  0
  151.5548  146.0428  160.4236 H   0  0  0  0  0  0  0  0  0  0  0  0
  150.3818  145.4390  159.2588 H   0  0  0  0  0  0  0  0  0  0  0  0
  151.9626  145.9948  158.7103 H   0  0  0  0  0  0  0  0  0  0  0  0
  153.0572  144.1014  159.9717 H   0  0  0  0  0  0  0  0  0  0  0  0
  151.4910  143.5321  160.5007 H   0  0  0  0  0  0  0  0  0  0  0  0
  152.7741  142.9731  158.0332 H   0  0  0  0  0  0  0  0  0  0  0  0
  150.5850  142.8177  155.6831 H   0  0  0  0  0  0  0  0  0  0  0  0
  151.9449  141.9626  156.3713 H   0  0  0  0  0  0  0  0  0  0  0  0
  150.2776  140.6860  154.3886 H   0  0  0  0  0  0  0  0  0  0  0  0
  151.5880  139.9717  155.3106 H   0  0  0  0  0  0  0  0  0  0  0  0
  150.0723  138.2092  154.4149 H   0  0  0  0  0  0  0  0  0  0  0  0
  150.1067  138.1892  156.1693 H   0  0  0  0  0  0  0  0  0  0  0  0
  147.5754  134.8710  156.5860 H   0  0  0  0  0  0  0  0  0  0  0  0
  144.5033  138.0064  151.8720 H   0  0  0  0  0  0  0  0  0  0  0  0
  143.6941  134.9092  153.6743 H   0  0  0  0  0  0  0  0  0  0  0  0
  143.3268  135.7937  152.2272 H   0  0  0  0  0  0  0  0  0  0  0  0
  146.4775  135.4539  151.2480 H   0  0  0  0  0  0  0  0  0  0  0  0
  146.2567  134.0328  150.2749 H   0  0  0  0  0  0  0  0  0  0  0  0
  145.1662  135.2116  149.0069 H   0  0  0  0  0  0  0  0  0  0  0  0
  146.5363  133.8016  153.2019 H   0  0  0  0  0  0  0  0  0  0  0  0
  145.0683  133.0210  153.7275 H   0  0  0  0  0  0  0  0  0  0  0  0
  146.7698  132.1502  151.3357 H   0  0  0  0  0  0  0  0  0  0  0  0
  146.5864  131.3272  152.8646 H   0  0  0  0  0  0  0  0  0  0  0  0
  144.8220  132.2109  149.8250 H   0  0  0  0  0  0  0  0  0  0  0  0
  143.3597  131.4163  150.3567 H   0  0  0  0  0  0  0  0  0  0  0  0
  142.9640  133.0688  152.1019 H   0  0  0  0  0  0  0  0  0  0  0  0
  143.1088  133.8924  150.5779 H   0  0  0  0  0  0  0  0  0  0  0  0
  146.8490  139.9438  156.4152 H   0  0  0  0  0  0  0  0  0  0  0  0
  148.1286  139.2544  157.3977 H   0  0  0  0  0  0  0  0  0  0  0  0
  148.3350  141.6983  157.3299 H   0  0  0  0  0  0  0  0  0  0  0  0
  148.3816  141.7139  155.5778 H   0  0  0  0  0  0  0  0  0  0  0  0
  1  2  1  0  0  0  0
  1 31  1  0  0  0  0
  1 32  1  0  0  0  0
  1 33  1  0  0  0  0
  2  3  1  0  0  0  0
  2 34  1  0  0  0  0
  2 35  1  0  0  0  0
  3  4  1  0  0  0  0
  3 36  1  0  0  0  0
  4  5  2  0  0  0  0
  4  6  1  0  0  0  0
  6  7  1  0  0  0  0
  6 37  1  0  0  0  0
  6 38  1  0  0  0  0
  7 30  1  0  0  0  0
  7  8  1  0  0  0  0
  8  9  1  0  0  0  0
  8 39  1  0  0  0  0
  8 40  1  0  0  0  0
  9 10  1  0  0  0  0
  9 41  1  0  0  0  0
  9 42  1  0  0  0  0
 10 11  1  0  0  0  0
 10 29  1  0  0  0  0
 11 16  1  0  0  0  0
 11 12  2  0  0  0  0
 12 13  1  0  0  0  0
 13 14  2  0  0  0  0
 13 43  1  0  0  0  0
 14 15  1  0  0  0  0
 15 19  1  0  0  0  0
 15 16  2  0  0  0  0
 16 17  1  0  0  0  0
 17 18  2  0  0  0  0
 18 19  1  0  0  0  0
 18 44  1  0  0  0  0
 19 20  1  0  0  0  0
 20 21  1  0  0  0  0
 20 45  1  0  0  0  0
 20 46  1  0  0  0  0
 21 28  1  0  0  0  0
 21 22  1  0  0  0  0
 21 24  1  0  0  0  0
 22 23  1  0  0  0  0
 22 47  1  0  0  0  0
 22 48  1  0  0  0  0
 23 49  1  0  0  0  0
 24 25  1  0  0  0  0
 24 50  1  0  0  0  0
 24 51  1  0  0  0  0
 25 26  1  0  0  0  0
 25 52  1  0  0  0  0
 25 53  1  0  0  0  0
 26 27  1  0  0  0  0
 27 28  1  0  0  0  0
 27 54  1  0  0  0  0
 27 55  1  0  0  0  0
 28 56  1  0  0  0  0
 28 57  1  0  0  0  0
 29 30  1  0  0  0  0
 29 58  1  0  0  0  0
 29 59  1  0  0  0  0
 30 60  1  0  0  0  0
 30 61  1  0  0  0  0
M  END
> <s_m_source_file>
AV-unprocessed.smi

> <i_m_source_file_index>
269

> <i_lp_mmshare_version>
43012

> <i_f3d_flags>
0

> <s_epik_input>
W0NIM11bQ0gyXVtOSF1DKD1PKVtDSDJdTjFbQ0gyXVtDSDJdTihbQ0gyXVtDSDJdMSljKG5bY0hdbjIpYyhjMjMpbltjSF1uM1tDSDJdQzQoW0NIMl1bT0hdKVtDSDJdW0NIMl1PW0NIMl1bQ0gyXTQ=

> <s_epik_cmdline>
J2VwaWtfcHl0aG9uJywgJy1waCcsICc3LjAnLCAnLXRuJywgJzgnLCAnLW1hJywgJzIwMCcsICctbWV0YWxfYmluZGluZycsICctaW1hZScsICc8aW5maWxlLm1hZT4nLCAnLW9tYWUnLCAnPG91dGZpbGUubWFlPic=

> <r_lp_tautomer_probability>
1

> <r_epik_Ionization_Penalty>
0.90547

> <r_epik_Ionization_Penalty_Charging>
0

> <r_epik_Ionization_Penalty_Neutral>
0.90547

> <r_epik_State_Penalty>
0.940417

> <r_epik_Charging_Adjusted_Penalty>
0.940417

> <i_epik_Tot_Q>
0

> <i_epik_Tot_abs_Q>
0

> <r_epik_Metal_State_Penalty>
0.947257

> <b_epik_Metal_Only>
0

> <s_lp_Force_Field>
OPLS_2005

> <r_lp_Energy>
47.1209

> <b_lp_Chiralities_Consistent>
1

> <s_lp_Variant>
AV-unprocessed.smi:269-2

> <Gold.Version>
5.8.1

> <Gold.Id.Protein>
6NUR|6NUR_protein|mol2

> <Gold.PLP.Fitness>
45.6745

> <Gold.PLP.PLP>
-38.7967

> <Gold.PLP.part.hbond>
-2.0000

> <Gold.PLP.part.metal>
0.0000

> <Gold.PLP.part.buried>
-6.6193

> <Gold.PLP.part.nonpolar>
-31.0094

> <Gold.PLP.part.repulsive>
0.7523

> <Gold.PLP.ligand.clash>
0.0000

> <Gold.PLP.ligand.torsion>
0.7256

> <Gold.PLP.Chemscore.Hbond>
0.9920

> <Gold.PLP.Chemscore.CHOScore>
1.7133

> <Gold.PLP.Chemscore.Metal>
0.0000

> <Gold.Chemscore.Hbonds>
donor molecule, donor type, donor heavy atom, donor atom, acceptor molecule, acceptor atom, score
      L1  H    23    49       P1  7921  1.00
      L1  C    18    44       P1 10171  1.00
      L1  C    18    44       P1 10175  0.43

> <Gold.PLP.Chemscore.Internal.Correction>
0.2133

> <Gold.Rescore>
     Score         DG    S(hbond)    S(metal)    S(lipo)     H(rot)  DE(clash)    DE(int)     intcor
      8.51     -10.89       1.00        0.00      90.52       3.32       0.32       2.06       ----

> <Gold.Chemscore.Fitness>
8.5077

> <Gold.Chemscore.DG>
-10.8921

> <Gold.Chemscore.ZeroCoef>
-5.4800

> <Gold.Chemscore.Hbond>
0.9950

> <Gold.Chemscore.Metal>
0.0000

> <Gold.Chemscore.Lipo>
90.5231

> <Gold.Chemscore.Internal_Hbond>
0.0000

> <Gold.Chemscore.DEClash>
0.3209

> <Gold.Chemscore.DEInternal>
2.0636

> <Gold.Chemscore.Rot>
3.3213

> <Gold.Chemscore.Internal.Correction>
   9.000000E+99

> <Gold.Chemscore.Hbonds>
donor molecule, donor type, donor heavy atom, donor atom, acceptor molecule, acceptor atom, score
      L1  H    23    49       P1  7921  0.99

> <Gold.Chemscore.Hbond.Weighted>
-3.3234

> <Gold.Chemscore.Metal.Weighted>
-0.0000

> <Gold.Chemscore.Lipo.Weighted>
-10.5912

> <Gold.Chemscore.Internal_Hbond.Weighted>
0.0000

> <Gold.Chemscore.DEClash.Weighted>
0.3209

> <Gold.Chemscore.DEInternal.Weighted>
2.0636

> <Gold.Chemscore.Rot.Weighted>
8.5024

> <Gold.Chemscore.Internal.Correction.Weighted>
   9.000000E+99

> <Gold.Protein.RotatedTorsions>
[ 6907 6896 6895 6894 ] final   74.32 input  -60.11 | X-H torsion
[ 7974 7965 7964 7962 ] final   62.56 input  175.53 | X-H torsion
[ 8008 7997 7996 7995 ] final -104.41 input   59.86 | X-H torsion
[ 10167 10162 10161 10158 ] final   38.59 input  -65.29 | X-H torsion
[ 10718 10713 10712 10709 ] final -142.00 input   66.30 | X-H torsion
[ 10763 10752 10751 10750 ] final    4.20 input  -60.55 | X-H torsion
[ 11005 11000 10999 10996 ] final   71.12 input  -57.11 | X-H torsion

> <Gold.Protein.ActiveResidues>
 VAL166  LYS551  ARG553  GLY616  TRP617  ASP618  TYR619  PRO620  LYS621  CYS622 
 ASP623  PHE694  ASN695  SER759  ASP760  ASP761  ALA762  ILE779  LEU786  VAL792 
 PHE793  MET794  SER795  GLU796  ALA797  LYS798  CYS799  TRP800  GLU811  SER814 

> <Gold.Protein.RotatedAtoms>
  152.4970  134.4289  159.9505 H   0  0  0  0  0  0  0  0  0  0  0  0  # atno 6907 bound_to 6896
  151.4266  133.3676  159.2771 H   0  0  0  0  0  0  0  0  0  0  0  0  # atno 6908 bound_to 6896
  150.9185  134.8625  159.7532 H   0  0  0  0  0  0  0  0  0  0  0  0  # atno 6909 bound_to 6896
  145.8719  139.3384  143.0757 H   0  0  0  0  0  0  0  0  0  0  0  0  # atno 7974 bound_to 7965
  154.8849  140.0418  157.1804 H   0  0  0  0  0  0  0  0  0  0  0  0  # atno 8008 bound_to 7997
  154.8600  140.2942  155.5524 H   0  0  0  0  0  0  0  0  0  0  0  0  # atno 8009 bound_to 7997
  156.2998  140.2448  156.3573 H   0  0  0  0  0  0  0  0  0  0  0  0  # atno 8010 bound_to 7997
  140.3921  144.1838  150.6131 H   0  0  0  0  0  0  0  0  0  0  0  0  # atno 10167 bound_to 10162
  156.3407  130.7636  151.1771 H   0  0  0  0  0  0  0  0  0  0  0  0  # atno 10718 bound_to 10713
  153.2741  135.6935  153.7451 H   0  0  0  0  0  0  0  0  0  0  0  0  # atno 10763 bound_to 10752
  153.6463  135.3384  155.3087 H   0  0  0  0  0  0  0  0  0  0  0  0  # atno 10764 bound_to 10752
  154.8474  135.4444  154.1773 H   0  0  0  0  0  0  0  0  0  0  0  0  # atno 10765 bound_to 10752
  139.9561  134.7142  156.0751 H   0  0  0  0  0  0  0  0  0  0  0  0  # atno 11005 bound_to 11000
  145.9126  140.9169  143.0446 LP  0  0  0  0  0  0  0  0  0  0  0  0  # atno 17320 bound_to 7965
  144.6726  140.1181  143.7451 LP  0  0  0  0  0  0  0  0  0  0  0  0  # atno 17321 bound_to 7965
  140.4828  143.2373  151.8930 LP  0  0  0  0  0  0  0  0  0  0  0  0  # atno 17342 bound_to 10162
  139.4788  144.5250  151.8747 LP  0  0  0  0  0  0  0  0  0  0  0  0  # atno 17343 bound_to 10162
  157.7446  131.0455  150.4848 LP  0  0  0  0  0  0  0  0  0  0  0  0  # atno 17370 bound_to 10713
  156.5028  130.4121  149.6344 LP  0  0  0  0  0  0  0  0  0  0  0  0  # atno 17371 bound_to 10713
  141.1232  133.6607  156.3268 LP  0  0  0  0  0  0  0  0  0  0  0  0  # atno 17394 bound_to 11000
  140.5607  134.5937  157.5433 LP  0  0  0  0  0  0  0  0  0  0  0  0  # atno 17395 bound_to 11000

$$$$
