AV-unprocessed.smi:1576|AV-procd|sdf|6348|dock5
  -GOLD-   22720 6563D 1   1.00000     0.00000
 Structure written by MMmdl.
 45 47  0  0  0  0  0  0  0  0  3 V2000
  151.0959  140.5254  154.9817 O   0  0  0  0  0  0  0  0  0  0  0  0
  150.5212  140.7549  156.0518 C   0  0  0  0  0  0  0  0  0  0  0  0
  149.8177  139.7878  156.6673 N   0  0  0  0  0  0  0  0  0  0  0  0
  149.5540  138.4600  156.2368 C   0  0  0  0  0  0  0  0  0  0  0  0
  149.2370  137.4991  157.2203 C   0  0  0  0  0  0  0  0  0  0  0  0
  148.9460  136.1745  156.8352 C   0  0  0  0  0  0  0  0  0  0  0  0
  148.9654  135.8329  155.4638 C   0  0  0  0  0  0  0  0  0  0  0  0
  148.6888  134.5452  154.9864 N   0  0  0  0  0  0  0  0  0  0  0  0
  147.5005  134.4967  154.1385 C   0  0  0  0  0  0  0  0  0  0  0  0
  147.1303  133.0426  153.7967 C   0  0  0  0  0  0  0  0  0  0  0  0
  148.3261  132.3021  153.1764 C   0  0  0  0  0  0  0  0  0  0  0  0
  149.5534  132.4113  154.0955 C   0  0  0  0  0  0  0  0  0  0  0  0
  149.8627  133.8817  154.4252 C   0  0  0  0  0  0  0  0  0  0  0  0
  149.2568  136.7842  154.5504 N   0  3  0  0  0  0  0  0  0  0  0  0
  149.5422  138.0633  154.8777 C   0  0  0  0  0  0  0  0  0  0  0  0
  150.5170  141.9172  156.7583 N   0  5  0  0  0  0  0  0  0  0  0  0
  151.6209  142.3920  157.5976 C   0  0  1  0  0  0  0  0  0  0  0  0
  151.3908  143.8541  158.0287 C   0  0  0  0  0  0  0  0  0  0  0  0
  152.3621  144.1881  159.1697 C   0  0  0  0  0  0  0  0  0  0  0  0
  152.5859  142.6260  160.1054 S   0  0  0  0  0  0  0  0  0  0  0  0
  154.0206  142.3041  160.1633 O   0  0  0  0  0  0  0  0  0  0  0  0
  151.7742  142.6679  161.3318 O   0  0  0  0  0  0  0  0  0  0  0  0
  151.7561  141.5460  158.8740 C   0  0  0  0  0  0  0  0  0  0  0  0
  149.4688  140.0279  157.5837 H   0  0  0  0  0  0  0  0  0  0  0  0
  149.2217  137.7716  158.2656 H   0  0  0  0  0  0  0  0  0  0  0  0
  148.7100  135.4351  157.5861 H   0  0  0  0  0  0  0  0  0  0  0  0
  146.6655  134.9815  154.6463 H   0  0  0  0  0  0  0  0  0  0  0  0
  147.6843  135.0557  153.2198 H   0  0  0  0  0  0  0  0  0  0  0  0
  146.8100  132.5246  154.7017 H   0  0  0  0  0  0  0  0  0  0  0  0
  146.2816  133.0235  153.1127 H   0  0  0  0  0  0  0  0  0  0  0  0
  148.0746  131.2552  153.0048 H   0  0  0  0  0  0  0  0  0  0  0  0
  148.5584  132.7319  152.2013 H   0  0  0  0  0  0  0  0  0  0  0  0
  149.3677  131.8614  155.0192 H   0  0  0  0  0  0  0  0  0  0  0  0
  150.4181  131.9431  153.6249 H   0  0  0  0  0  0  0  0  0  0  0  0
  150.1807  134.4031  153.5214 H   0  0  0  0  0  0  0  0  0  0  0  0
  150.6902  133.9364  155.1340 H   0  0  0  0  0  0  0  0  0  0  0  0
  149.7347  138.7169  154.0400 H   0  0  0  0  0  0  0  0  0  0  0  0
  152.5761  142.3593  157.0709 H   0  0  0  0  0  0  0  0  0  0  0  0
  151.5063  144.5455  157.1935 H   0  0  0  0  0  0  0  0  0  0  0  0
  150.3700  143.9685  158.3970 H   0  0  0  0  0  0  0  0  0  0  0  0
  153.3349  144.4970  158.7842 H   0  0  0  0  0  0  0  0  0  0  0  0
  151.9863  144.9709  159.8281 H   0  0  0  0  0  0  0  0  0  0  0  0
  150.7800  141.2738  159.2769 H   0  0  0  0  0  0  0  0  0  0  0  0
  152.3355  140.6359  158.7187 H   0  0  0  0  0  0  0  0  0  0  0  0
  149.2577  136.5266  153.5635 H   0  0  0  0  0  0  0  0  0  0  0  0
  1  2  2  0  0  0  0
  2  3  1  0  0  0  0
  2 16  1  0  0  0  0
  3  4  1  0  0  0  0
  3 24  1  0  0  0  0
  4 15  1  0  0  0  0
  4  5  2  0  0  0  0
  5  6  1  0  0  0  0
  5 25  1  0  0  0  0
  6  7  2  0  0  0  0
  6 26  1  0  0  0  0
  7  8  1  0  0  0  0
  7 14  1  0  0  0  0
  8 13  1  0  0  0  0
  8  9  1  0  0  0  0
  9 10  1  0  0  0  0
  9 27  1  0  0  0  0
  9 28  1  0  0  0  0
 10 11  1  0  0  0  0
 10 29  1  0  0  0  0
 10 30  1  0  0  0  0
 11 12  1  0  0  0  0
 11 31  1  0  0  0  0
 11 32  1  0  0  0  0
 12 13  1  0  0  0  0
 12 33  1  0  0  0  0
 12 34  1  0  0  0  0
 13 35  1  0  0  0  0
 13 36  1  0  0  0  0
 14 15  2  0  0  0  0
 14 45  1  0  0  0  0
 15 37  1  0  0  0  0
 16 17  1  0  0  0  0
 17 23  1  0  0  0  0
 17 18  1  0  0  0  0
 17 38  1  0  0  0  0
 18 19  1  0  0  0  0
 18 39  1  0  0  0  0
 18 40  1  0  0  0  0
 19 20  1  0  0  0  0
 19 41  1  0  0  0  0
 19 42  1  0  0  0  0
 20 21  2  0  0  0  0
 20 22  2  0  0  0  0
 20 23  1  0  0  0  0
 23 43  1  0  0  0  0
 23 44  1  0  0  0  0
M  CHG  1  14   1
M  CHG  1  16  -1
M  END
> <s_m_source_file>
AV-unprocessed.smi

> <i_m_source_file_index>
1576

> <i_lp_mmshare_version>
43012

> <i_f3d_flags>
0

> <s_epik_input>
Tz1TMSg9TylbQ0gyXVtDSDJdW0NASF0oW0NIMl0xKVtOSF1DKD1PKVtOSF1jMltjSF1bY0hdYyhuW2NIXTIpTjNbQ0gyXVtDSDJdW0NIMl1bQ0gyXVtDSDJdMw==

> <s_epik_cmdline>
J2VwaWtfcHl0aG9uJywgJy1waCcsICc3LjAnLCAnLXRuJywgJzgnLCAnLW1hJywgJzIwMCcsICctbWV0YWxfYmluZGluZycsICctaW1hZScsICc8aW5maWxlLm1hZT4nLCAnLW9tYWUnLCAnPG91dGZpbGUubWFlPic=

> <r_lp_tautomer_probability>
0.999994

> <r_epik_Ionization_Penalty>
8.26491

> <r_epik_Ionization_Penalty_Charging>
8.26491

> <r_epik_Ionization_Penalty_Neutral>
3.15169e-06

> <r_epik_State_Penalty>
7.8977

> <r_epik_Charging_Adjusted_Penalty>
16.1626

> <i_epik_Tot_Q>
0

> <i_epik_Tot_abs_Q>
2

> <r_epik_Metal_State_Penalty>
3.88896

> <b_epik_Metal_Only>
1

> <s_lp_Force_Field>
OPLS_2005

> <r_lp_Energy>
27.2537

> <b_lp_Chiralities_Consistent>
1

> <s_lp_Variant>
AV-unprocessed.smi:1576-6

> <Gold.Version>
5.8.1

> <Gold.Id.Protein>
6NUR|6NUR_protein|mol2

> <Gold.PLP.Fitness>
43.1766

> <Gold.PLP.PLP>
-34.5382

> <Gold.PLP.part.hbond>
-3.0000

> <Gold.PLP.part.metal>
0.0000

> <Gold.PLP.part.buried>
-4.4706

> <Gold.PLP.part.nonpolar>
-26.7002

> <Gold.PLP.part.repulsive>
0.3719

> <Gold.PLP.ligand.clash>
0.0000

> <Gold.PLP.ligand.torsion>
1.0401

> <Gold.PLP.Chemscore.Hbond>
3.5234

> <Gold.PLP.Chemscore.CHOScore>
0.0000

> <Gold.PLP.Chemscore.Metal>
0.0000

> <Gold.Chemscore.Hbonds>
donor molecule, donor type, donor heavy atom, donor atom, acceptor molecule, acceptor atom, score
      L1  H    14    45       P1  7948  2.00
      P1  H  6933  6945       L1    22  0.38
      P1  H  7989  7998       L1     1  0.99

> <Gold.PLP.Chemscore.Internal.Correction>
0.1484

> <Gold.Rescore>
     Score         DG    S(hbond)    S(metal)    S(lipo)     H(rot)  DE(clash)    DE(int)     intcor
     17.35     -19.52       2.55        0.00      74.25       1.24       0.01       2.15       ----

> <Gold.Chemscore.Fitness>
17.3492

> <Gold.Chemscore.DG>
-19.5154

> <Gold.Chemscore.ZeroCoef>
-5.4800

> <Gold.Chemscore.Hbond>
2.5491

> <Gold.Chemscore.Metal>
0.0000

> <Gold.Chemscore.Lipo>
74.2488

> <Gold.Chemscore.Internal_Hbond>
0.0000

> <Gold.Chemscore.DEClash>
0.0118

> <Gold.Chemscore.DEInternal>
2.1544

> <Gold.Chemscore.Rot>
1.2366

> <Gold.Chemscore.Internal.Correction>
   9.000000E+99

> <Gold.Chemscore.Hbonds>
donor molecule, donor type, donor heavy atom, donor atom, acceptor molecule, acceptor atom, score
      L1  H    14    45       P1  7948  0.94
      P1  H  6933  6945       L1    22  0.38
      P1  H  7989  7998       L1     1  0.93

> <Gold.Chemscore.Hbond.Weighted>
-8.5140

> <Gold.Chemscore.Metal.Weighted>
-0.0000

> <Gold.Chemscore.Lipo.Weighted>
-8.6871

> <Gold.Chemscore.Internal_Hbond.Weighted>
0.0000

> <Gold.Chemscore.DEClash.Weighted>
0.0118

> <Gold.Chemscore.DEInternal.Weighted>
2.1544

> <Gold.Chemscore.Rot.Weighted>
3.1657

> <Gold.Chemscore.Internal.Correction.Weighted>
   9.000000E+99

> <Gold.Protein.RotatedTorsions>
[ 6907 6896 6895 6894 ] final  -56.35 input  -60.11 | X-H torsion
[ 7974 7965 7964 7962 ] final  -34.39 input  175.53 | X-H torsion
[ 8008 7997 7996 7995 ] final  172.66 input   59.86 | X-H torsion
[ 10167 10162 10161 10158 ] final -158.64 input  -65.29 | X-H torsion
[ 10718 10713 10712 10709 ] final -122.71 input   66.30 | X-H torsion
[ 10763 10752 10751 10750 ] final  105.89 input  -60.55 | X-H torsion
[ 11005 11000 10999 10996 ] final   28.36 input  -57.11 | X-H torsion

> <Gold.Protein.ActiveResidues>
 VAL166  LYS551  ARG553  GLY616  TRP617  ASP618  TYR619  PRO620  LYS621  CYS622 
 ASP623  PHE694  ASN695  SER759  ASP760  ASP761  ALA762  ILE779  LEU786  VAL792 
 PHE793  MET794  SER795  GLU796  ALA797  LYS798  CYS799  TRP800  GLU811  SER814 

> <Gold.Protein.RotatedAtoms>
  150.8175  134.7365  159.6742 H   0  0  0  0  0  0  0  0  0  0  0  0  # atno 6907 bound_to 6896
  152.4293  134.5805  159.9956 H   0  0  0  0  0  0  0  0  0  0  0  0  # atno 6908 bound_to 6896
  151.5998  133.3320  159.3081 H   0  0  0  0  0  0  0  0  0  0  0  0  # atno 6909 bound_to 6896
  146.0834  140.6032  142.8898 H   0  0  0  0  0  0  0  0  0  0  0  0  # atno 7974 bound_to 7965
  156.1152  140.1480  156.9282 H   0  0  0  0  0  0  0  0  0  0  0  0  # atno 8008 bound_to 7997
  154.4796  140.0883  156.7387 H   0  0  0  0  0  0  0  0  0  0  0  0  # atno 8009 bound_to 7997
  155.4525  140.3435  155.4305 H   0  0  0  0  0  0  0  0  0  0  0  0  # atno 8010 bound_to 7997
  139.6677  143.9801  152.2264 H   0  0  0  0  0  0  0  0  0  0  0  0  # atno 10167 bound_to 10162
  156.1441  130.6487  150.9815 H   0  0  0  0  0  0  0  0  0  0  0  0  # atno 10718 bound_to 10713
  153.3855  135.3895  155.1887 H   0  0  0  0  0  0  0  0  0  0  0  0  # atno 10763 bound_to 10752
  154.8713  135.3736  154.4803 H   0  0  0  0  0  0  0  0  0  0  0  0  # atno 10764 bound_to 10752
  153.5284  135.7086  153.5757 H   0  0  0  0  0  0  0  0  0  0  0  0  # atno 10765 bound_to 10752
  140.3164  134.2592  155.7724 H   0  0  0  0  0  0  0  0  0  0  0  0  # atno 11005 bound_to 11000
  144.7308  140.4667  143.6939 LP  0  0  0  0  0  0  0  0  0  0  0  0  # atno 17320 bound_to 7965
  145.6176  139.1520  143.3040 LP  0  0  0  0  0  0  0  0  0  0  0  0  # atno 17321 bound_to 7965
  139.9556  144.6591  150.8129 LP  0  0  0  0  0  0  0  0  0  0  0  0  # atno 17342 bound_to 10162
  140.7606  143.3154  151.2745 LP  0  0  0  0  0  0  0  0  0  0  0  0  # atno 17343 bound_to 10162
  157.6601  131.0882  150.7858 LP  0  0  0  0  0  0  0  0  0  0  0  0  # atno 17370 bound_to 10713
  156.7931  130.4896  149.5381 LP  0  0  0  0  0  0  0  0  0  0  0  0  # atno 17371 bound_to 10713
  141.2096  133.7743  156.9983 LP  0  0  0  0  0  0  0  0  0  0  0  0  # atno 17394 bound_to 11000
  140.0979  134.9553  157.1878 LP  0  0  0  0  0  0  0  0  0  0  0  0  # atno 17395 bound_to 11000

$$$$
