AV-unprocessed.smi:2399|AV-procd|sdf|9500|dock2
  -GOLD-   2272013133D 1   1.00000     0.00000
 Structure written by MMmdl.
 53 55  0  0  0  0  0  0  0  0  2 V2000
  148.0561  131.7860  153.5126 C   0  0  0  0  0  0  0  0  0  0  0  0
  147.4137  132.9456  153.0041 O   0  0  0  0  0  0  0  0  0  0  0  0
  146.4804  132.7878  151.9979 C   0  0  0  0  0  0  0  0  0  0  0  0
  145.9699  131.5286  151.5913 C   0  0  0  0  0  0  0  0  0  0  0  0
  145.0204  131.4695  150.5567 C   0  0  0  0  0  0  0  0  0  0  0  0
  144.6117  132.6754  149.9600 C   0  0  0  0  0  0  0  0  0  0  0  0
  143.5912  132.6865  148.8416 C   0  0  0  0  0  0  0  0  0  0  0  0
  145.0882  133.8782  150.3390 N   0  0  0  0  0  0  0  0  0  0  0  0
  146.0040  133.9492  151.3365 C   0  0  0  0  0  0  0  0  0  0  0  0
  146.5544  135.1791  151.7916 N   0  0  0  0  0  0  0  0  0  0  0  0
  145.9163  136.2332  152.3289 C   0  0  0  0  0  0  0  0  0  0  0  0
  144.7036  136.3091  152.5290 O   0  0  0  0  0  0  0  0  0  0  0  0
  146.7776  137.2128  152.6400 N   0  0  0  0  0  0  0  0  0  0  0  0
  146.4170  138.4821  153.2648 C   0  0  2  0  0  0  0  0  0  0  0  0
  147.0717  139.6442  152.4977 C   0  0  0  0  0  0  0  0  0  0  0  0
  146.8266  140.9906  153.2057 C   0  0  0  0  0  0  0  0  0  0  0  0
  147.2960  140.9719  154.6191 N   0  3  2  0  0  0  0  0  0  0  0  0
  148.7813  141.0058  154.7780 C   0  0  0  0  0  0  0  0  0  0  0  0
  149.4860  139.7394  154.2732 C   0  0  0  0  0  0  0  0  0  0  0  0
  150.8606  139.7606  154.9464 C   0  0  0  0  0  0  0  0  0  0  0  0
  150.6819  140.5514  156.2492 C   0  0  0  0  0  0  0  0  0  0  0  0
  149.2392  141.0699  156.2426 C   0  0  0  0  0  0  0  0  0  0  0  0
  146.6162  139.8857  155.3773 C   0  0  0  0  0  0  0  0  0  0  0  0
  146.8539  138.5028  154.7426 C   0  0  0  0  0  0  0  0  0  0  0  0
  148.7546  132.0774  154.2968 H   0  0  0  0  0  0  0  0  0  0  0  0
  148.6266  131.2735  152.7370 H   0  0  0  0  0  0  0  0  0  0  0  0
  147.3382  131.0925  153.9524 H   0  0  0  0  0  0  0  0  0  0  0  0
  146.2868  130.6057  152.0524 H   0  0  0  0  0  0  0  0  0  0  0  0
  144.6183  130.5206  150.2331 H   0  0  0  0  0  0  0  0  0  0  0  0
  143.4160  131.6812  148.4577 H   0  0  0  0  0  0  0  0  0  0  0  0
  143.9351  133.3091  148.0150 H   0  0  0  0  0  0  0  0  0  0  0  0
  142.6428  133.0857  149.2010 H   0  0  0  0  0  0  0  0  0  0  0  0
  147.5572  135.2556  151.7056 H   0  0  0  0  0  0  0  0  0  0  0  0
  147.7559  137.0648  152.4387 H   0  0  0  0  0  0  0  0  0  0  0  0
  145.3341  138.6124  153.2151 H   0  0  0  0  0  0  0  0  0  0  0  0
  148.1434  139.4707  152.3930 H   0  0  0  0  0  0  0  0  0  0  0  0
  146.6727  139.6876  151.4834 H   0  0  0  0  0  0  0  0  0  0  0  0
  147.2854  141.8050  152.6468 H   0  0  0  0  0  0  0  0  0  0  0  0
  145.7569  141.2050  153.2058 H   0  0  0  0  0  0  0  0  0  0  0  0
  149.1956  141.8638  154.2473 H   0  0  0  0  0  0  0  0  0  0  0  0
  148.9380  138.8520  154.5944 H   0  0  0  0  0  0  0  0  0  0  0  0
  149.5722  139.7045  153.1868 H   0  0  0  0  0  0  0  0  0  0  0  0
  151.2407  138.7540  155.1236 H   0  0  0  0  0  0  0  0  0  0  0  0
  151.5788  140.2725  154.3045 H   0  0  0  0  0  0  0  0  0  0  0  0
  150.8697  139.9318  157.1269 H   0  0  0  0  0  0  0  0  0  0  0  0
  151.3881  141.3821  156.2806 H   0  0  0  0  0  0  0  0  0  0  0  0
  149.1710  142.0744  156.6619 H   0  0  0  0  0  0  0  0  0  0  0  0
  148.6200  140.4127  156.8552 H   0  0  0  0  0  0  0  0  0  0  0  0
  146.9172  139.8838  156.4240 H   0  0  0  0  0  0  0  0  0  0  0  0
  145.5456  140.0950  155.3842 H   0  0  0  0  0  0  0  0  0  0  0  0
  146.3017  137.7484  155.3040 H   0  0  0  0  0  0  0  0  0  0  0  0
  147.9068  138.2313  154.8271 H   0  0  0  0  0  0  0  0  0  0  0  0
  146.9710  141.8365  155.0282 H   0  0  0  0  0  0  0  0  0  0  0  0
  1  2  1  0  0  0  0
  1 25  1  0  0  0  0
  1 26  1  0  0  0  0
  1 27  1  0  0  0  0
  2  3  1  0  0  0  0
  3  9  1  0  0  0  0
  3  4  2  0  0  0  0
  4  5  1  0  0  0  0
  4 28  1  0  0  0  0
  5  6  2  0  0  0  0
  5 29  1  0  0  0  0
  6  7  1  0  0  0  0
  6  8  1  0  0  0  0
  7 30  1  0  0  0  0
  7 31  1  0  0  0  0
  7 32  1  0  0  0  0
  8  9  2  0  0  0  0
  9 10  1  0  0  0  0
 10 11  1  0  0  0  0
 10 33  1  0  0  0  0
 11 12  2  0  0  0  0
 11 13  1  0  0  0  0
 13 14  1  0  0  0  0
 13 34  1  0  0  0  0
 14 24  1  0  0  0  0
 14 15  1  0  0  0  0
 14 35  1  0  0  0  0
 15 16  1  0  0  0  0
 15 36  1  0  0  0  0
 15 37  1  0  0  0  0
 16 17  1  0  0  0  0
 16 38  1  0  0  0  0
 16 39  1  0  0  0  0
 17 18  1  0  0  0  0
 17 23  1  0  0  0  0
 17 53  1  0  0  0  0
 18 22  1  0  0  0  0
 18 19  1  0  0  0  0
 18 40  1  0  0  0  0
 19 20  1  0  0  0  0
 19 41  1  0  0  0  0
 19 42  1  0  0  0  0
 20 21  1  0  0  0  0
 20 43  1  0  0  0  0
 20 44  1  0  0  0  0
 21 22  1  0  0  0  0
 21 45  1  0  0  0  0
 21 46  1  0  0  0  0
 22 47  1  0  0  0  0
 22 48  1  0  0  0  0
 23 24  1  0  0  0  0
 23 49  1  0  0  0  0
 23 50  1  0  0  0  0
 24 51  1  0  0  0  0
 24 52  1  0  0  0  0
M  CHG  1  17   1
M  END
> <s_m_source_file>
AV-unprocessed.smi

> <i_m_source_file_index>
2399

> <i_lp_mmshare_version>
43012

> <i_f3d_flags>
0

> <s_epik_input>
W0NIM11PYzFbY0hdW2NIXWMoW0NIM10pbmMxW05IXUMoPU8pW05IXVtDSF0yW0NIMl1bQ0gyXU4oW0NIMl1bQ0gyXTIpW0NIXTNbQ0gyXVtDSDJdW0NIMl1bQ0gyXTM=

> <s_epik_cmdline>
J2VwaWtfcHl0aG9uJywgJy1waCcsICc3LjAnLCAnLXRuJywgJzgnLCAnLW1hJywgJzIwMCcsICctbWV0YWxfYmluZGluZycsICctaW1hZScsICc8aW5maWxlLm1hZT4nLCAnLW9tYWUnLCAnPG91dGZpbGUubWFlPic=

> <r_lp_tautomer_probability>
1

> <r_epik_Ionization_Penalty>
0.00183805

> <r_epik_Ionization_Penalty_Charging>
0.00179121

> <r_epik_Ionization_Penalty_Neutral>
4.68398e-05

> <r_epik_State_Penalty>
0.00121448

> <r_epik_Charging_Adjusted_Penalty>
0.0030057

> <i_epik_Tot_Q>
1

> <i_epik_Tot_abs_Q>
1

> <r_epik_Metal_State_Penalty>
-0

> <b_epik_Metal_Only>
0

> <s_lp_Force_Field>
OPLS_2005

> <r_lp_Energy>
44.4335

> <b_lp_Chiralities_Consistent>
1

> <s_lp_Variant>
AV-unprocessed.smi:2399-2

> <Gold.Version>
5.8.1

> <Gold.Id.Protein>
6NUR|6NUR_protein|mol2

> <Gold.PLP.Fitness>
40.0811

> <Gold.PLP.PLP>
-37.5814

> <Gold.PLP.part.hbond>
-1.8955

> <Gold.PLP.part.metal>
0.0000

> <Gold.PLP.part.buried>
-1.2340

> <Gold.PLP.part.nonpolar>
-35.7903

> <Gold.PLP.part.repulsive>
1.3894

> <Gold.PLP.ligand.clash>
1.8450

> <Gold.PLP.ligand.torsion>
0.8431

> <Gold.PLP.Chemscore.Hbond>
1.9920

> <Gold.PLP.Chemscore.CHOScore>
0.0000

> <Gold.PLP.Chemscore.Metal>
0.0000

> <Gold.Chemscore.Hbonds>
donor molecule, donor type, donor heavy atom, donor atom, acceptor molecule, acceptor atom, score
      L1  H    10    33       P1  7948  0.99
      L1  H    13    34       P1  7948  1.00

> <Gold.PLP.Chemscore.Internal.Correction>
0.0549

> <Gold.Rescore>
     Score         DG    S(hbond)    S(metal)    S(lipo)     H(rot)  DE(clash)    DE(int)     intcor
     17.09     -20.32       1.89        0.00     103.06       1.38       0.12       3.10       ----

> <Gold.Chemscore.Fitness>
17.0913

> <Gold.Chemscore.DG>
-20.3160

> <Gold.Chemscore.ZeroCoef>
-5.4800

> <Gold.Chemscore.Hbond>
1.8916

> <Gold.Chemscore.Metal>
0.0000

> <Gold.Chemscore.Lipo>
103.0613

> <Gold.Chemscore.Internal_Hbond>
0.0000

> <Gold.Chemscore.DEClash>
0.1231

> <Gold.Chemscore.DEInternal>
3.1016

> <Gold.Chemscore.Rot>
1.3828

> <Gold.Chemscore.Internal.Correction>
   9.000000E+99

> <Gold.Chemscore.Hbonds>
donor molecule, donor type, donor heavy atom, donor atom, acceptor molecule, acceptor atom, score
      L1  H    10    33       P1  7948  0.83
      L1  H    13    34       P1  7948  0.93

> <Gold.Chemscore.Hbond.Weighted>
-6.3178

> <Gold.Chemscore.Metal.Weighted>
-0.0000

> <Gold.Chemscore.Lipo.Weighted>
-12.0582

> <Gold.Chemscore.Internal_Hbond.Weighted>
0.0000

> <Gold.Chemscore.DEClash.Weighted>
0.1231

> <Gold.Chemscore.DEInternal.Weighted>
3.1016

> <Gold.Chemscore.Rot.Weighted>
3.5399

> <Gold.Chemscore.Internal.Correction.Weighted>
   9.000000E+99

> <Gold.Protein.RotatedTorsions>
[ 6907 6896 6895 6894 ] final -172.52 input  -60.11 | X-H torsion
[ 7974 7965 7964 7962 ] final  -16.60 input  175.53 | X-H torsion
[ 8008 7997 7996 7995 ] final -109.47 input   59.86 | X-H torsion
[ 10167 10162 10161 10158 ] final   64.09 input  -65.29 | X-H torsion
[ 10718 10713 10712 10709 ] final   52.25 input   66.30 | X-H torsion
[ 10763 10752 10751 10750 ] final -175.27 input  -60.55 | X-H torsion
[ 11005 11000 10999 10996 ] final   61.59 input  -57.11 | X-H torsion

> <Gold.Protein.ActiveResidues>
 VAL166  LYS551  ARG553  GLY616  TRP617  ASP618  TYR619  PRO620  LYS621  CYS622 
 ASP623  PHE694  ASN695  SER759  ASP760  ASP761  ALA762  ILE779  LEU786  VAL792 
 PHE793  MET794  SER795  GLU796  ALA797  LYS798  CYS799  TRP800  GLU811  SER814 

> <Gold.Protein.RotatedAtoms>
  151.5413  133.3432  159.2935 H   0  0  0  0  0  0  0  0  0  0  0  0  # atno 6907 bound_to 6896
  150.8534  134.7868  159.7038 H   0  0  0  0  0  0  0  0  0  0  0  0  # atno 6908 bound_to 6896
  152.4574  134.5269  159.9851 H   0  0  0  0  0  0  0  0  0  0  0  0  # atno 6909 bound_to 6896
  146.1980  140.3659  142.8433 H   0  0  0  0  0  0  0  0  0  0  0  0  # atno 7974 bound_to 7965
  154.9598  140.0399  157.2184 H   0  0  0  0  0  0  0  0  0  0  0  0  # atno 8008 bound_to 7997
  154.7899  140.2833  155.5977 H   0  0  0  0  0  0  0  0  0  0  0  0  # atno 8009 bound_to 7997
  156.2948  140.2575  156.2744 H   0  0  0  0  0  0  0  0  0  0  0  0  # atno 8010 bound_to 7997
  140.1259  144.4688  150.6893 H   0  0  0  0  0  0  0  0  0  0  0  0  # atno 10167 bound_to 10162
  157.5058  130.8467  149.8372 H   0  0  0  0  0  0  0  0  0  0  0  0  # atno 10718 bound_to 10713
  154.5864  135.2841  155.0680 H   0  0  0  0  0  0  0  0  0  0  0  0  # atno 10763 bound_to 10752
  154.1997  135.6426  153.5087 H   0  0  0  0  0  0  0  0  0  0  0  0  # atno 10764 bound_to 10752
  153.0106  135.5466  154.6535 H   0  0  0  0  0  0  0  0  0  0  0  0  # atno 10765 bound_to 10752
  140.0151  134.6238  155.9722 H   0  0  0  0  0  0  0  0  0  0  0  0  # atno 11005 bound_to 11000
  144.8621  140.7155  143.6100 LP  0  0  0  0  0  0  0  0  0  0  0  0  # atno 17320 bound_to 7965
  145.3579  139.1689  143.4399 LP  0  0  0  0  0  0  0  0  0  0  0  0  # atno 17321 bound_to 7965
  140.6845  143.2343  151.5297 LP  0  0  0  0  0  0  0  0  0  0  0  0  # atno 17342 bound_to 10162
  139.5544  144.2312  152.1587 LP  0  0  0  0  0  0  0  0  0  0  0  0  # atno 17343 bound_to 10162
  156.0257  130.3780  150.1830 LP  0  0  0  0  0  0  0  0  0  0  0  0  # atno 17370 bound_to 10713
  157.0020  130.9925  151.3388 LP  0  0  0  0  0  0  0  0  0  0  0  0  # atno 17371 bound_to 10713
  141.1737  133.6539  156.4747 LP  0  0  0  0  0  0  0  0  0  0  0  0  # atno 17394 bound_to 11000
  140.4486  134.6950  157.5028 LP  0  0  0  0  0  0  0  0  0  0  0  0  # atno 17395 bound_to 11000

$$$$
