AV-unprocessed.smi:1897|AV-procd|sdf|7687|dock3
  -GOLD-   22720 9423D 1   1.00000     0.00000
 Structure written by MMmdl.
 39 41  0  0  0  0  0  0  0  0  2 V2000
  152.2843  137.0845  157.8805 C   0  0  0  0  0  0  0  0  0  0  0  0
  151.2948  136.2965  157.0921 C   0  0  0  0  0  0  0  0  0  0  0  0
  150.5509  135.3228  157.6304 N   0  0  0  0  0  0  0  0  0  0  0  0
  149.6976  134.7410  156.7047 N   0  0  0  0  0  0  0  0  0  0  0  0
  149.8311  135.2842  155.4855 C   0  0  0  0  0  0  0  0  0  0  0  0
  149.0641  134.9019  154.3465 N   0  0  0  0  0  0  0  0  0  0  0  0
  147.9744  134.1135  154.2361 C   0  0  0  0  0  0  0  0  0  0  0  0
  147.4709  133.5807  155.2230 O   0  0  0  0  0  0  0  0  0  0  0  0
  147.4860  133.9542  152.9944 N   0  0  0  0  0  0  0  0  0  0  0  0
  146.3577  133.1055  152.6195 C   0  0  1  0  0  0  0  0  0  0  0  0
  146.0362  133.1734  151.1136 C   0  0  0  0  0  0  0  0  0  0  0  0
  145.7696  131.7208  150.7052 C   0  0  0  0  0  0  0  0  0  0  0  0
  146.6590  130.9610  151.5912 N   0  3  2  0  0  0  0  0  0  0  0  0
  146.4987  129.4942  151.6610 C   0  0  0  0  0  0  0  0  0  0  0  0
  147.6501  128.9161  152.5115 C   0  0  0  0  0  0  0  0  0  0  0  0
  147.7672  129.6109  153.8870 C   0  0  0  0  0  0  0  0  0  0  0  0
  147.8035  131.1484  153.7507 C   0  0  0  0  0  0  0  0  0  0  0  0
  146.5947  131.6058  152.9138 C   0  0  1  0  0  0  0  0  0  0  0  0
  151.0055  136.5854  155.3809 S   0  0  0  0  0  0  0  0  0  0  0  0
  152.6563  136.4988  158.7217 H   0  0  0  0  0  0  0  0  0  0  0  0
  151.8164  137.9915  158.2634 H   0  0  0  0  0  0  0  0  0  0  0  0
  153.1295  137.3644  157.2515 H   0  0  0  0  0  0  0  0  0  0  0  0
  149.3321  135.3680  153.4918 H   0  0  0  0  0  0  0  0  0  0  0  0
  147.9595  134.4373  152.2439 H   0  0  0  0  0  0  0  0  0  0  0  0
  145.4689  133.4266  153.1667 H   0  0  0  0  0  0  0  0  0  0  0  0
  145.1924  133.8281  150.8937 H   0  0  0  0  0  0  0  0  0  0  0  0
  146.8968  133.5503  150.5582 H   0  0  0  0  0  0  0  0  0  0  0  0
  144.7313  131.4504  150.9045 H   0  0  0  0  0  0  0  0  0  0  0  0
  145.9819  131.5328  149.6524 H   0  0  0  0  0  0  0  0  0  0  0  0
  145.5296  129.2416  152.0937 H   0  0  0  0  0  0  0  0  0  0  0  0
  146.5253  129.0723  150.6556 H   0  0  0  0  0  0  0  0  0  0  0  0
  147.5138  127.8426  152.6453 H   0  0  0  0  0  0  0  0  0  0  0  0
  148.5894  129.0392  151.9707 H   0  0  0  0  0  0  0  0  0  0  0  0
  146.9159  129.3249  154.5059 H   0  0  0  0  0  0  0  0  0  0  0  0
  148.6573  129.2595  154.4096 H   0  0  0  0  0  0  0  0  0  0  0  0
  147.7809  131.6076  154.7394 H   0  0  0  0  0  0  0  0  0  0  0  0
  148.7358  131.4589  153.2765 H   0  0  0  0  0  0  0  0  0  0  0  0
  145.6904  131.2454  153.4091 H   0  0  0  0  0  0  0  0  0  0  0  0
  147.5922  131.1308  151.2442 H   0  0  0  0  0  0  0  0  0  0  0  0
  1  2  1  0  0  0  0
  1 20  1  0  0  0  0
  1 21  1  0  0  0  0
  1 22  1  0  0  0  0
  2 19  1  0  0  0  0
  2  3  2  0  0  0  0
  3  4  1  0  0  0  0
  4  5  2  0  0  0  0
  5  6  1  0  0  0  0
  5 19  1  0  0  0  0
  6  7  1  0  0  0  0
  6 23  1  0  0  0  0
  7  8  2  0  0  0  0
  7  9  1  0  0  0  0
  9 10  1  0  0  0  0
  9 24  1  0  0  0  0
 10 18  1  0  0  0  0
 10 11  1  0  0  0  0
 10 25  1  0  0  0  0
 11 12  1  0  0  0  0
 11 26  1  0  0  0  0
 11 27  1  0  0  0  0
 12 13  1  0  0  0  0
 12 28  1  0  0  0  0
 12 29  1  0  0  0  0
 13 18  1  0  0  0  0
 13 14  1  0  0  0  0
 13 39  1  0  0  0  0
 14 15  1  0  0  0  0
 14 30  1  0  0  0  0
 14 31  1  0  0  0  0
 15 16  1  0  0  0  0
 15 32  1  0  0  0  0
 15 33  1  0  0  0  0
 16 17  1  0  0  0  0
 16 34  1  0  0  0  0
 16 35  1  0  0  0  0
 17 18  1  0  0  0  0
 17 36  1  0  0  0  0
 17 37  1  0  0  0  0
 18 38  1  0  0  0  0
M  CHG  1  13   1
M  END
> <s_m_source_file>
AV-unprocessed.smi

> <i_m_source_file_index>
1897

> <i_lp_mmshare_version>
43012

> <i_f3d_flags>
0

> <s_epik_input>
W0NIM11jMW5uYyhzMSlbTkhdQyg9TylbTkhdW0NASF0oW0NIMl1bQ0gyXTIpW0NAQEhdKE4yMylbQ0gyXVtDSDJdW0NIMl1bQ0gyXTM=

> <s_epik_cmdline>
J2VwaWtfcHl0aG9uJywgJy1waCcsICc3LjAnLCAnLXRuJywgJzgnLCAnLW1hJywgJzIwMCcsICctbWV0YWxfYmluZGluZycsICctaW1hZScsICc8aW5maWxlLm1hZT4nLCAnLW9tYWUnLCAnPG91dGZpbGUubWFlPic=

> <r_lp_tautomer_probability>
1

> <r_epik_Ionization_Penalty>
0.00228891

> <r_epik_Ionization_Penalty_Charging>
0.00107044

> <r_epik_Ionization_Penalty_Neutral>
0.00121847

> <r_epik_State_Penalty>
-0

> <r_epik_Charging_Adjusted_Penalty>
0.00107044

> <i_epik_Tot_Q>
1

> <i_epik_Tot_abs_Q>
1

> <r_epik_Metal_State_Penalty>
0.304057

> <b_epik_Metal_Only>
0

> <s_lp_Force_Field>
OPLS_2005

> <r_lp_Energy>
42.6082

> <b_lp_Chiralities_Consistent>
1

> <s_lp_Variant>
AV-unprocessed.smi:1897-4

> <Gold.Version>
5.8.1

> <Gold.Id.Protein>
6NUR|6NUR_protein|mol2

> <Gold.PLP.Fitness>
36.2052

> <Gold.PLP.PLP>
-26.1299

> <Gold.PLP.part.hbond>
-4.0000

> <Gold.PLP.part.metal>
0.0000

> <Gold.PLP.part.buried>
-3.3201

> <Gold.PLP.part.nonpolar>
-18.7770

> <Gold.PLP.part.repulsive>
0.0477

> <Gold.PLP.ligand.clash>
0.0000

> <Gold.PLP.ligand.torsion>
0.0326

> <Gold.PLP.Chemscore.Hbond>
3.3798

> <Gold.PLP.Chemscore.CHOScore>
0.0000

> <Gold.PLP.Chemscore.Metal>
0.0000

> <Gold.Chemscore.Hbonds>
donor molecule, donor type, donor heavy atom, donor atom, acceptor molecule, acceptor atom, score
      L1  H     6    23       P1  7948  0.95
      L1  H     9    24       P1  7948  0.84
      L1  H    13    39       P1 10747  1.00
      P1  H  6896  6907       L1     3  0.53

> <Gold.PLP.Chemscore.Internal.Correction>
0.0011

> <Gold.Rescore>
     Score         DG    S(hbond)    S(metal)    S(lipo)     H(rot)  DE(clash)    DE(int)     intcor
     16.91     -18.33       2.52        0.00      59.84       1.00       0.06       1.35       ----

> <Gold.Chemscore.Fitness>
16.9089

> <Gold.Chemscore.DG>
-18.3252

> <Gold.Chemscore.ZeroCoef>
-5.4800

> <Gold.Chemscore.Hbond>
2.5160

> <Gold.Chemscore.Metal>
0.0000

> <Gold.Chemscore.Lipo>
59.8434

> <Gold.Chemscore.Internal_Hbond>
0.0000

> <Gold.Chemscore.DEClash>
0.0624

> <Gold.Chemscore.DEInternal>
1.3539

> <Gold.Chemscore.Rot>
1.0000

> <Gold.Chemscore.Internal.Correction>
   9.000000E+99

> <Gold.Chemscore.Hbonds>
donor molecule, donor type, donor heavy atom, donor atom, acceptor molecule, acceptor atom, score
      L1  H     6    23       P1  7948  0.21
      L1  H     9    24       P1  7948  0.20
      L1  H    13    39       P1 10747  0.98
      P1  H  6896  6907       L1     3  0.47

> <Gold.Chemscore.Hbond.Weighted>
-8.4036

> <Gold.Chemscore.Metal.Weighted>
-0.0000

> <Gold.Chemscore.Lipo.Weighted>
-7.0017

> <Gold.Chemscore.Internal_Hbond.Weighted>
0.0000

> <Gold.Chemscore.DEClash.Weighted>
0.0624

> <Gold.Chemscore.DEInternal.Weighted>
1.3539

> <Gold.Chemscore.Rot.Weighted>
2.5600

> <Gold.Chemscore.Internal.Correction.Weighted>
   9.000000E+99

> <Gold.Protein.RotatedTorsions>
[ 6907 6896 6895 6894 ] final  -77.70 input  -60.11 | X-H torsion
[ 7974 7965 7964 7962 ] final  -13.13 input  175.53 | X-H torsion
[ 8008 7997 7996 7995 ] final   40.79 input   59.86 | X-H torsion
[ 10167 10162 10161 10158 ] final  168.33 input  -65.29 | X-H torsion
[ 10718 10713 10712 10709 ] final -120.72 input   66.30 | X-H torsion
[ 10763 10752 10751 10750 ] final   98.77 input  -60.55 | X-H torsion
[ 11005 11000 10999 10996 ] final  115.76 input  -57.11 | X-H torsion

> <Gold.Protein.ActiveResidues>
 VAL166  LYS551  ARG553  GLY616  TRP617  ASP618  TYR619  PRO620  LYS621  CYS622 
 ASP623  PHE694  ASN695  SER759  ASP760  ASP761  ALA762  ILE779  LEU786  VAL792 
 PHE793  MET794  SER795  GLU796  ALA797  LYS798  CYS799  TRP800  GLU811  SER814 

> <Gold.Protein.RotatedAtoms>
  150.6992  134.4383  159.5279 H   0  0  0  0  0  0  0  0  0  0  0  0  # atno 6907 bound_to 6896
  152.2097  134.8510  160.0508 H   0  0  0  0  0  0  0  0  0  0  0  0  # atno 6908 bound_to 6896
  151.9400  133.3600  159.3998 H   0  0  0  0  0  0  0  0  0  0  0  0  # atno 6909 bound_to 6896
  146.2126  140.3158  142.8386 H   0  0  0  0  0  0  0  0  0  0  0  0  # atno 7974 bound_to 7965
  155.2590  140.3358  155.4275 H   0  0  0  0  0  0  0  0  0  0  0  0  # atno 8008 bound_to 7997
  156.2183  140.1798  156.7580 H   0  0  0  0  0  0  0  0  0  0  0  0  # atno 8009 bound_to 7997
  154.5786  140.0657  156.9056 H   0  0  0  0  0  0  0  0  0  0  0  0  # atno 8010 bound_to 7997
  139.4965  144.3826  151.9606 H   0  0  0  0  0  0  0  0  0  0  0  0  # atno 10167 bound_to 10162
  156.1281  130.6374  150.9575 H   0  0  0  0  0  0  0  0  0  0  0  0  # atno 10718 bound_to 10713
  153.2931  135.4137  155.1185 H   0  0  0  0  0  0  0  0  0  0  0  0  # atno 10763 bound_to 10752
  154.8526  135.3523  154.5954 H   0  0  0  0  0  0  0  0  0  0  0  0  # atno 10764 bound_to 10752
  153.6377  135.7058  153.5311 H   0  0  0  0  0  0  0  0  0  0  0  0  # atno 10765 bound_to 10752
  139.9020  134.9588  156.7094 H   0  0  0  0  0  0  0  0  0  0  0  0  # atno 11005 bound_to 11000
  144.8955  140.7578  143.5899 LP  0  0  0  0  0  0  0  0  0  0  0  0  # atno 17320 bound_to 7965
  145.3082  139.1827  143.4653 LP  0  0  0  0  0  0  0  0  0  0  0  0  # atno 17321 bound_to 7965
  140.3262  144.3370  150.5998 LP  0  0  0  0  0  0  0  0  0  0  0  0  # atno 17342 bound_to 10162
  140.5682  143.2184  151.7646 LP  0  0  0  0  0  0  0  0  0  0  0  0  # atno 17343 bound_to 10162
  157.6461  131.0904  150.8151 LP  0  0  0  0  0  0  0  0  0  0  0  0  # atno 17370 bound_to 10713
  156.8239  130.4993  149.5340 LP  0  0  0  0  0  0  0  0  0  0  0  0  # atno 17371 bound_to 10713
  140.7088  133.9242  155.8071 LP  0  0  0  0  0  0  0  0  0  0  0  0  # atno 17394 bound_to 11000
  141.0316  134.0748  157.4007 LP  0  0  0  0  0  0  0  0  0  0  0  0  # atno 17395 bound_to 11000

$$$$
