AV-unprocessed.smi:1782|AV-procd|sdf|7188|dock3
  -GOLD-   22720 8433D 1   1.00000     0.00000
 Structure written by MMmdl.
 42 44  0  0  0  0  0  0  0  0  2 V2000
  148.7772  141.1812  156.7660 O   0  0  0  0  0  0  0  0  0  0  0  0
  149.5553  141.1244  155.8127 C   0  0  0  0  0  0  0  0  0  0  0  0
  151.0688  140.9952  156.0367 C   0  0  0  0  0  0  0  0  0  0  0  0
  151.5280  141.6345  157.2820 N   0  0  0  0  0  0  0  0  0  0  0  0
  151.0505  142.9305  157.5467 C   0  0  0  0  0  0  0  0  0  0  0  0
  151.4121  143.6041  158.6469 C   0  0  0  0  0  0  0  0  0  0  0  0
  152.3175  142.9659  159.5709 C   0  0  0  0  0  0  0  0  0  0  0  0
  152.7938  141.7200  159.3434 C   0  0  0  0  0  0  0  0  0  0  0  0
  153.7610  141.0345  160.3060 C   0  0  0  0  0  0  0  0  0  0  0  0
  153.4016  139.7656  160.5021 F   0  0  0  0  0  0  0  0  0  0  0  0
  155.0015  141.0453  159.8161 F   0  0  0  0  0  0  0  0  0  0  0  0
  153.7883  141.6397  161.4944 F   0  0  0  0  0  0  0  0  0  0  0  0
  152.3885  140.9861  158.1272 C   0  0  0  0  0  0  0  0  0  0  0  0
  152.7963  139.8510  157.8740 O   0  0  0  0  0  0  0  0  0  0  0  0
  149.1481  141.1564  154.5351 N   0  0  0  0  0  0  0  0  0  0  0  0
  147.7580  141.2790  154.1106 C   0  0  2  0  0  0  0  0  0  0  0  0
  147.1798  142.6806  154.3010 C   0  0  0  0  0  0  0  0  0  0  0  0
  145.6725  142.4480  154.5057 C   0  0  0  0  0  0  0  0  0  0  0  0
  145.4802  140.9881  154.6750 N   0  3  2  0  0  0  0  0  0  0  0  0
  144.4529  140.6201  155.6716 C   0  0  0  0  0  0  0  0  0  0  0  0
  143.3489  141.6416  155.8065 C   0  0  0  0  0  0  0  0  0  0  0  0
  144.4203  141.5374  156.8707 C   0  0  0  0  0  0  0  0  0  0  0  0
  146.8104  140.4144  154.9412 C   0  0  0  0  0  0  0  0  0  0  0  0
  151.3216  139.9342  156.0320 H   0  0  0  0  0  0  0  0  0  0  0  0
  151.6009  141.4181  155.1823 H   0  0  0  0  0  0  0  0  0  0  0  0
  150.3835  143.3399  156.8018 H   0  0  0  0  0  0  0  0  0  0  0  0
  151.0397  144.6005  158.8347 H   0  0  0  0  0  0  0  0  0  0  0  0
  152.6131  143.5090  160.4561 H   0  0  0  0  0  0  0  0  0  0  0  0
  149.8492  141.0968  153.8104 H   0  0  0  0  0  0  0  0  0  0  0  0
  147.6687  141.0041  153.0573 H   0  0  0  0  0  0  0  0  0  0  0  0
  147.5994  143.1480  155.1933 H   0  0  0  0  0  0  0  0  0  0  0  0
  147.3910  143.3345  153.4542 H   0  0  0  0  0  0  0  0  0  0  0  0
  145.3214  143.0008  155.3786 H   0  0  0  0  0  0  0  0  0  0  0  0
  145.0949  142.7865  153.6451 H   0  0  0  0  0  0  0  0  0  0  0  0
  144.2408  139.5580  155.7819 H   0  0  0  0  0  0  0  0  0  0  0  0
  143.3705  142.5134  155.1550 H   0  0  0  0  0  0  0  0  0  0  0  0
  142.3560  141.2772  156.0619 H   0  0  0  0  0  0  0  0  0  0  0  0
  144.1318  141.1048  157.8266 H   0  0  0  0  0  0  0  0  0  0  0  0
  145.1538  142.3399  156.9262 H   0  0  0  0  0  0  0  0  0  0  0  0
  146.8516  139.3595  154.6672 H   0  0  0  0  0  0  0  0  0  0  0  0
  147.0455  140.5010  156.0040 H   0  0  0  0  0  0  0  0  0  0  0  0
  145.1870  140.6281  153.7779 H   0  0  0  0  0  0  0  0  0  0  0  0
  1  2  2  0  0  0  0
  2  3  1  0  0  0  0
  2 15  1  0  0  0  0
  3  4  1  0  0  0  0
  3 24  1  0  0  0  0
  3 25  1  0  0  0  0
  4 13  1  0  0  0  0
  4  5  1  0  0  0  0
  5  6  2  0  0  0  0
  5 26  1  0  0  0  0
  6  7  1  0  0  0  0
  6 27  1  0  0  0  0
  7  8  2  0  0  0  0
  7 28  1  0  0  0  0
  8  9  1  0  0  0  0
  8 13  1  0  0  0  0
  9 10  1  0  0  0  0
  9 11  1  0  0  0  0
  9 12  1  0  0  0  0
 13 14  2  0  0  0  0
 15 16  1  0  0  0  0
 15 29  1  0  0  0  0
 16 23  1  0  0  0  0
 16 17  1  0  0  0  0
 16 30  1  0  0  0  0
 17 18  1  0  0  0  0
 17 31  1  0  0  0  0
 17 32  1  0  0  0  0
 18 19  1  0  0  0  0
 18 33  1  0  0  0  0
 18 34  1  0  0  0  0
 19 20  1  0  0  0  0
 19 23  1  0  0  0  0
 19 42  1  0  0  0  0
 20 22  1  0  0  0  0
 20 21  1  0  0  0  0
 20 35  1  0  0  0  0
 21 22  1  0  0  0  0
 21 36  1  0  0  0  0
 21 37  1  0  0  0  0
 22 38  1  0  0  0  0
 22 39  1  0  0  0  0
 23 40  1  0  0  0  0
 23 41  1  0  0  0  0
M  CHG  1  19   1
M  END
> <s_m_source_file>
AV-unprocessed.smi

> <i_m_source_file_index>
1782

> <i_lp_mmshare_version>
43012

> <i_f3d_flags>
0

> <s_epik_input>
W0NIMl0xW0NIMl1bQ0hdMU4oW0NIMl0yKVtDSDJdW0NIMl1bQ0BIXTJbTkhdQyg9TylbQ0gyXW4zW2NIXVtjSF1bY0hdYyhDKEYpKEYpRiljMz1P

> <s_epik_cmdline>
J2VwaWtfcHl0aG9uJywgJy1waCcsICc3LjAnLCAnLXRuJywgJzgnLCAnLW1hJywgJzIwMCcsICctbWV0YWxfYmluZGluZycsICctaW1hZScsICc8aW5maWxlLm1hZT4nLCAnLW9tYWUnLCAnPG91dGZpbGUubWFlPic=

> <r_lp_tautomer_probability>
1

> <r_epik_Ionization_Penalty>
0.00106789

> <r_epik_Ionization_Penalty_Charging>
0.00106781

> <r_epik_Ionization_Penalty_Neutral>
8.2288e-08

> <r_epik_State_Penalty>
0.000699156

> <r_epik_Charging_Adjusted_Penalty>
0.00176697

> <i_epik_Tot_Q>
1

> <i_epik_Tot_abs_Q>
1

> <r_epik_Metal_State_Penalty>
-0

> <b_epik_Metal_Only>
0

> <s_lp_Force_Field>
OPLS_2005

> <r_lp_Energy>
44.9554

> <b_lp_Chiralities_Consistent>
1

> <s_lp_Variant>
AV-unprocessed.smi:1782-1

> <Gold.Version>
5.8.1

> <Gold.Id.Protein>
6NUR|6NUR_protein|mol2

> <Gold.PLP.Fitness>
50.0331

> <Gold.PLP.PLP>
-40.9261

> <Gold.PLP.part.hbond>
-2.0000

> <Gold.PLP.part.metal>
0.0000

> <Gold.PLP.part.buried>
-4.2995

> <Gold.PLP.part.nonpolar>
-35.8372

> <Gold.PLP.part.repulsive>
0.2597

> <Gold.PLP.ligand.clash>
0.0000

> <Gold.PLP.ligand.torsion>
1.9640

> <Gold.PLP.Chemscore.Hbond>
2.7840

> <Gold.PLP.Chemscore.CHOScore>
1.0000

> <Gold.PLP.Chemscore.Metal>
0.0000

> <Gold.Chemscore.Hbonds>
donor molecule, donor type, donor heavy atom, donor atom, acceptor molecule, acceptor atom, score
      L1  H    19    42       P1 10175  1.79
      P1  H  7997  8008       L1    14  0.96
      L1  C     5    26       P1  8028  1.00

> <Gold.PLP.Chemscore.Internal.Correction>
1.6830

> <Gold.Rescore>
     Score         DG    S(hbond)    S(metal)    S(lipo)     H(rot)  DE(clash)    DE(int)     intcor
      9.98     -15.67       1.56        0.00      82.32       1.81       0.09       5.60       ----

> <Gold.Chemscore.Fitness>
9.9788

> <Gold.Chemscore.DG>
-15.6730

> <Gold.Chemscore.ZeroCoef>
-5.4800

> <Gold.Chemscore.Hbond>
1.5555

> <Gold.Chemscore.Metal>
0.0000

> <Gold.Chemscore.Lipo>
82.3209

> <Gold.Chemscore.Internal_Hbond>
0.0000

> <Gold.Chemscore.DEClash>
0.0936

> <Gold.Chemscore.DEInternal>
5.6006

> <Gold.Chemscore.Rot>
1.8101

> <Gold.Chemscore.Internal.Correction>
   9.000000E+99

> <Gold.Chemscore.Hbonds>
donor molecule, donor type, donor heavy atom, donor atom, acceptor molecule, acceptor atom, score
      L1  H    19    42       P1 10175  0.84
      P1  H  7997  8008       L1    14  0.52

> <Gold.Chemscore.Hbond.Weighted>
-5.1953

> <Gold.Chemscore.Metal.Weighted>
-0.0000

> <Gold.Chemscore.Lipo.Weighted>
-9.6315

> <Gold.Chemscore.Internal_Hbond.Weighted>
0.0000

> <Gold.Chemscore.DEClash.Weighted>
0.0936

> <Gold.Chemscore.DEInternal.Weighted>
5.6006

> <Gold.Chemscore.Rot.Weighted>
4.6338

> <Gold.Chemscore.Internal.Correction.Weighted>
   9.000000E+99

> <Gold.Protein.RotatedTorsions>
[ 6907 6896 6895 6894 ] final  -33.27 input  -60.11 | X-H torsion
[ 7974 7965 7964 7962 ] final  -69.19 input  175.53 | X-H torsion
[ 8008 7997 7996 7995 ] final  -92.04 input   59.86 | X-H torsion
[ 10167 10162 10161 10158 ] final  -97.45 input  -65.29 | X-H torsion
[ 10718 10713 10712 10709 ] final   66.42 input   66.30 | X-H torsion
[ 10763 10752 10751 10750 ] final  110.31 input  -60.55 | X-H torsion
[ 11005 11000 10999 10996 ] final   42.57 input  -57.11 | X-H torsion

> <Gold.Protein.ActiveResidues>
 VAL166  LYS551  ARG553  GLY616  TRP617  ASP618  TYR619  PRO620  LYS621  CYS622 
 ASP623  PHE694  ASN695  SER759  ASP760  ASP761  ALA762  ILE779  LEU786  VAL792 
 PHE793  MET794  SER795  GLU796  ALA797  LYS798  CYS799  TRP800  GLU811  SER814 

> <Gold.Protein.RotatedAtoms>
  151.0677  134.9778  159.8292 H   0  0  0  0  0  0  0  0  0  0  0  0  # atno 6907 bound_to 6896
  152.5404  134.2337  159.8845 H   0  0  0  0  0  0  0  0  0  0  0  0  # atno 6908 bound_to 6896
  151.2361  133.4381  159.2639 H   0  0  0  0  0  0  0  0  0  0  0  0  # atno 6909 bound_to 6896
  145.7069  140.9094  143.0701 H   0  0  0  0  0  0  0  0  0  0  0  0  # atno 7974 bound_to 7965
  154.7181  140.0513  157.0614 H   0  0  0  0  0  0  0  0  0  0  0  0  # atno 8008 bound_to 7997
  155.0463  140.3174  155.4688 H   0  0  0  0  0  0  0  0  0  0  0  0  # atno 8009 bound_to 7997
  156.2809  140.2124  156.5588 H   0  0  0  0  0  0  0  0  0  0  0  0  # atno 8010 bound_to 7997
  140.2833  143.3268  152.0420 H   0  0  0  0  0  0  0  0  0  0  0  0  # atno 10167 bound_to 10162
  157.6168  130.9266  150.0106 H   0  0  0  0  0  0  0  0  0  0  0  0  # atno 10718 bound_to 10713
  153.4471  135.3752  155.2262 H   0  0  0  0  0  0  0  0  0  0  0  0  # atno 10763 bound_to 10752
  154.8755  135.3877  154.4082 H   0  0  0  0  0  0  0  0  0  0  0  0  # atno 10764 bound_to 10752
  153.4636  135.7087  153.6099 H   0  0  0  0  0  0  0  0  0  0  0  0  # atno 10765 bound_to 10752
  140.1727  134.4202  155.8247 H   0  0  0  0  0  0  0  0  0  0  0  0  # atno 11005 bound_to 11000
  144.6952  139.9022  143.7459 LP  0  0  0  0  0  0  0  0  0  0  0  0  # atno 17320 bound_to 7965
  146.0747  139.3735  143.0501 LP  0  0  0  0  0  0  0  0  0  0  0  0  # atno 17321 bound_to 7965
  139.4957  144.6576  151.6536 LP  0  0  0  0  0  0  0  0  0  0  0  0  # atno 17342 bound_to 10162
  140.5794  143.9973  150.6259 LP  0  0  0  0  0  0  0  0  0  0  0  0  # atno 17343 bound_to 10162
  156.1293  130.3644  149.9757 LP  0  0  0  0  0  0  0  0  0  0  0  0  # atno 17370 bound_to 10713
  156.7822  130.9225  151.3646 LP  0  0  0  0  0  0  0  0  0  0  0  0  # atno 17371 bound_to 10713
  141.2218  133.6963  156.7792 LP  0  0  0  0  0  0  0  0  0  0  0  0  # atno 17394 bound_to 11000
  140.2359  134.8651  157.3524 LP  0  0  0  0  0  0  0  0  0  0  0  0  # atno 17395 bound_to 11000

$$$$
