AV-unprocessed.smi:2254|AV-procd|sdf|9123|dock7
  -GOLD-   2272012323D 1   1.00000     0.00000
 Structure written by MMmdl.
 41 42  0  0  0  0  0  0  0  0  1 V2000
  153.3924  137.3971  157.0981 C   0  0  0  0  0  0  0  0  0  0  0  0
  152.4525  138.5372  156.7479 C   0  0  0  0  0  0  0  0  0  0  0  0
  152.1736  139.4308  157.7862 N   0  0  0  0  0  0  0  0  0  0  0  0
  151.3726  140.4253  157.5833 C   0  0  0  0  0  0  0  0  0  0  0  0
  150.7643  140.6390  156.3362 N   0  0  0  0  0  0  0  0  0  0  0  0
  149.8692  141.8027  156.2383 C   0  0  0  0  0  0  0  0  0  0  0  0
  149.0408  142.0062  157.5283 C   0  0  2  0  0  0  0  0  0  0  0  0
  147.8860  142.7595  157.2174 O   0  0  0  0  0  0  0  0  0  0  0  0
  149.8184  142.7811  158.6027 C   0  0  0  0  0  0  0  0  0  0  0  0
  150.8324  143.5356  157.9611 O   0  0  0  0  0  0  0  0  0  0  0  0
  151.5608  144.3660  158.8496 C   0  0  0  0  0  0  0  0  0  0  0  0
  152.3164  143.5639  159.8932 C   0  0  0  0  0  0  0  0  0  0  0  0
  153.2151  142.5449  159.5077 C   0  0  0  0  0  0  0  0  0  0  0  0
  153.8994  141.7964  160.4850 C   0  0  0  0  0  0  0  0  0  0  0  0
  153.6841  142.0575  161.8521 C   0  0  0  0  0  0  0  0  0  0  0  0
  154.5215  141.1392  163.0492 Cl  0  0  0  0  0  0  0  0  0  0  0  0
  152.7821  143.0668  162.2414 C   0  0  0  0  0  0  0  0  0  0  0  0
  152.0980  143.8159  161.2640 C   0  0  0  0  0  0  0  0  0  0  0  0
  150.9989  139.8291  155.2633 C   0  0  0  0  0  0  0  0  0  0  0  0
  150.4812  140.0431  154.1652 O   0  0  0  0  0  0  0  0  0  0  0  0
  151.9059  138.6967  155.5115 C   0  0  0  0  0  0  0  0  0  0  0  0
  152.1711  137.7545  154.3439 C   0  0  0  0  0  0  0  0  0  0  0  0
  154.2909  137.4400  156.4822 H   0  0  0  0  0  0  0  0  0  0  0  0
  152.9038  136.4357  156.9371 H   0  0  0  0  0  0  0  0  0  0  0  0
  153.7008  137.4432  158.1433 H   0  0  0  0  0  0  0  0  0  0  0  0
  151.1250  141.1531  158.3580 H   0  0  0  0  0  0  0  0  0  0  0  0
  150.4833  142.6854  156.0500 H   0  0  0  0  0  0  0  0  0  0  0  0
  149.2189  141.7518  155.3622 H   0  0  0  0  0  0  0  0  0  0  0  0
  148.7232  141.0517  157.9503 H   0  0  0  0  0  0  0  0  0  0  0  0
  148.0646  143.2809  156.4498 H   0  0  0  0  0  0  0  0  0  0  0  0
  149.1513  143.4335  159.1690 H   0  0  0  0  0  0  0  0  0  0  0  0
  150.2795  142.0871  159.3077 H   0  0  0  0  0  0  0  0  0  0  0  0
  152.2689  144.9734  158.2832 H   0  0  0  0  0  0  0  0  0  0  0  0
  150.8819  145.0480  159.3637 H   0  0  0  0  0  0  0  0  0  0  0  0
  153.3857  142.3315  158.4626 H   0  0  0  0  0  0  0  0  0  0  0  0
  154.5877  141.0206  160.1833 H   0  0  0  0  0  0  0  0  0  0  0  0
  152.6128  143.2667  163.2892 H   0  0  0  0  0  0  0  0  0  0  0  0
  151.4052  144.5860  161.5706 H   0  0  0  0  0  0  0  0  0  0  0  0
  151.2423  137.2779  154.0285 H   0  0  0  0  0  0  0  0  0  0  0  0
  152.8826  136.9652  154.5808 H   0  0  0  0  0  0  0  0  0  0  0  0
  152.5707  138.3100  153.4949 H   0  0  0  0  0  0  0  0  0  0  0  0
  1  2  1  0  0  0  0
  1 23  1  0  0  0  0
  1 24  1  0  0  0  0
  1 25  1  0  0  0  0
  2 21  2  0  0  0  0
  2  3  1  0  0  0  0
  3  4  2  0  0  0  0
  4  5  1  0  0  0  0
  4 26  1  0  0  0  0
  5  6  1  0  0  0  0
  5 19  1  0  0  0  0
  6  7  1  0  0  0  0
  6 27  1  0  0  0  0
  6 28  1  0  0  0  0
  7  8  1  0  0  0  0
  7  9  1  0  0  0  0
  7 29  1  0  0  0  0
  8 30  1  0  0  0  0
  9 10  1  0  0  0  0
  9 31  1  0  0  0  0
  9 32  1  0  0  0  0
 10 11  1  0  0  0  0
 11 12  1  0  0  0  0
 11 33  1  0  0  0  0
 11 34  1  0  0  0  0
 12 18  1  0  0  0  0
 12 13  2  0  0  0  0
 13 14  1  0  0  0  0
 13 35  1  0  0  0  0
 14 15  2  0  0  0  0
 14 36  1  0  0  0  0
 15 16  1  0  0  0  0
 15 17  1  0  0  0  0
 17 18  2  0  0  0  0
 17 37  1  0  0  0  0
 18 38  1  0  0  0  0
 19 20  2  0  0  0  0
 19 21  1  0  0  0  0
 21 22  1  0  0  0  0
 22 39  1  0  0  0  0
 22 40  1  0  0  0  0
 22 41  1  0  0  0  0
M  END
> <s_m_source_file>
AV-unprocessed.smi

> <i_m_source_file_index>
2254

> <i_lp_mmshare_version>
43012

> <i_f3d_flags>
0

> <s_epik_input>
W0NIM11jMW5bY0hdbihjKD1PKWMxW0NIM10pW0NIMl1bQ0BIXShbT0hdKVtDSDJdT1tDSDJdYzJbY0hdW2NIXWMoQ2wpW2NIXVtjSF0y

> <s_epik_cmdline>
J2VwaWtfcHl0aG9uJywgJy1waCcsICc3LjAnLCAnLXRuJywgJzgnLCAnLW1hJywgJzIwMCcsICctbWV0YWxfYmluZGluZycsICctaW1hZScsICc8aW5maWxlLm1hZT4nLCAnLW9tYWUnLCAnPG91dGZpbGUubWFlPic=

> <r_lp_tautomer_probability>
1

> <r_epik_Ionization_Penalty>
5.36e-05

> <r_epik_Ionization_Penalty_Charging>
1.17753e-07

> <r_epik_Ionization_Penalty_Neutral>
5.34822e-05

> <r_epik_State_Penalty>
-0

> <r_epik_Charging_Adjusted_Penalty>
1.17753e-07

> <i_epik_Tot_Q>
0

> <i_epik_Tot_abs_Q>
0

> <r_epik_Metal_State_Penalty>
-0

> <b_epik_Metal_Only>
0

> <s_lp_Force_Field>
OPLS_2005

> <r_lp_Energy>
20.9698

> <b_lp_Chiralities_Consistent>
1

> <s_lp_Variant>
AV-unprocessed.smi:2254-1

> <Gold.Version>
5.8.1

> <Gold.Id.Protein>
6NUR|6NUR_protein|mol2

> <Gold.PLP.Fitness>
50.5384

> <Gold.PLP.PLP>
-46.8103

> <Gold.PLP.part.hbond>
-2.5850

> <Gold.PLP.part.metal>
0.0000

> <Gold.PLP.part.buried>
-0.1538

> <Gold.PLP.part.nonpolar>
-44.0967

> <Gold.PLP.part.repulsive>
0.4750

> <Gold.PLP.ligand.clash>
0.0000

> <Gold.PLP.ligand.torsion>
1.0972

> <Gold.PLP.Chemscore.Hbond>
1.9500

> <Gold.PLP.Chemscore.CHOScore>
0.0000

> <Gold.PLP.Chemscore.Metal>
0.0000

> <Gold.Chemscore.Hbonds>
donor molecule, donor type, donor heavy atom, donor atom, acceptor molecule, acceptor atom, score
      L1  H     8    30       P1  8028  0.95
      P1  H  7989  7998       L1    20  1.00

> <Gold.PLP.Chemscore.Internal.Correction>
0.0726

> <Gold.Rescore>
     Score         DG    S(hbond)    S(metal)    S(lipo)     H(rot)  DE(clash)    DE(int)     intcor
     15.73     -19.25       1.49        0.00     130.18       2.52       1.40       2.12       ----

> <Gold.Chemscore.Fitness>
15.7350

> <Gold.Chemscore.DG>
-19.2512

> <Gold.Chemscore.ZeroCoef>
-5.4800

> <Gold.Chemscore.Hbond>
1.4914

> <Gold.Chemscore.Metal>
0.0000

> <Gold.Chemscore.Lipo>
130.1829

> <Gold.Chemscore.Internal_Hbond>
0.0000

> <Gold.Chemscore.DEClash>
1.3956

> <Gold.Chemscore.DEInternal>
2.1206

> <Gold.Chemscore.Rot>
2.5162

> <Gold.Chemscore.Internal.Correction>
   9.000000E+99

> <Gold.Chemscore.Hbonds>
donor molecule, donor type, donor heavy atom, donor atom, acceptor molecule, acceptor atom, score
      L1  H     8    30       P1  8028  0.20
      P1  H  7989  7998       L1    20  0.24

> <Gold.Chemscore.Hbond.Weighted>
-4.9812

> <Gold.Chemscore.Metal.Weighted>
-0.0000

> <Gold.Chemscore.Lipo.Weighted>
-15.2314

> <Gold.Chemscore.Internal_Hbond.Weighted>
0.0000

> <Gold.Chemscore.DEClash.Weighted>
1.3956

> <Gold.Chemscore.DEInternal.Weighted>
2.1206

> <Gold.Chemscore.Rot.Weighted>
6.4414

> <Gold.Chemscore.Internal.Correction.Weighted>
   9.000000E+99

> <Gold.Protein.RotatedTorsions>
[ 6907 6896 6895 6894 ] final   16.05 input  -60.11 | X-H torsion
[ 7974 7965 7964 7962 ] final  -38.00 input  175.53 | X-H torsion
[ 8008 7997 7996 7995 ] final    1.77 input   59.86 | X-H torsion
[ 10167 10162 10161 10158 ] final  -51.24 input  -65.29 | X-H torsion
[ 10718 10713 10712 10709 ] final  -15.87 input   66.30 | X-H torsion
[ 10763 10752 10751 10750 ] final   60.22 input  -60.55 | X-H torsion
[ 11005 11000 10999 10996 ] final    3.18 input  -57.11 | X-H torsion

> <Gold.Protein.ActiveResidues>
 VAL166  LYS551  ARG553  GLY616  TRP617  ASP618  TYR619  PRO620  LYS621  CYS622 
 ASP623  PHE694  ASN695  SER759  ASP760  ASP761  ALA762  ILE779  LEU786  VAL792 
 PHE793  MET794  SER795  GLU796  ALA797  LYS798  CYS799  TRP800  GLU811  SER814 

> <Gold.Protein.RotatedAtoms>
  151.8278  135.0631  160.0432 H   0  0  0  0  0  0  0  0  0  0  0  0  # atno 6907 bound_to 6896
  152.2903  133.5550  159.5561 H   0  0  0  0  0  0  0  0  0  0  0  0  # atno 6908 bound_to 6896
  150.7227  134.0354  159.3790 H   0  0  0  0  0  0  0  0  0  0  0  0  # atno 6909 bound_to 6896
  146.0525  140.6461  142.9035 H   0  0  0  0  0  0  0  0  0  0  0  0  # atno 7974 bound_to 7965
  154.6836  140.2638  155.6883 H   0  0  0  0  0  0  0  0  0  0  0  0  # atno 8008 bound_to 7997
  156.2706  140.2805  156.1312 H   0  0  0  0  0  0  0  0  0  0  0  0  # atno 8009 bound_to 7997
  155.0996  140.0374  157.2683 H   0  0  0  0  0  0  0  0  0  0  0  0  # atno 8010 bound_to 7997
  140.6598  143.2627  151.4475 H   0  0  0  0  0  0  0  0  0  0  0  0  # atno 10167 bound_to 10162
  156.5956  130.4810  149.6261 H   0  0  0  0  0  0  0  0  0  0  0  0  # atno 10718 bound_to 10713
  152.9915  135.5544  154.5840 H   0  0  0  0  0  0  0  0  0  0  0  0  # atno 10763 bound_to 10752
  154.5215  135.2808  155.1260 H   0  0  0  0  0  0  0  0  0  0  0  0  # atno 10764 bound_to 10752
  154.2612  135.6381  153.5328 H   0  0  0  0  0  0  0  0  0  0  0  0  # atno 10765 bound_to 10752
  140.5960  133.9880  155.8110 H   0  0  0  0  0  0  0  0  0  0  0  0  # atno 11005 bound_to 11000
  144.7130  140.4109  143.7066 LP  0  0  0  0  0  0  0  0  0  0  0  0  # atno 17320 bound_to 7965
  145.6699  139.1597  143.2760 LP  0  0  0  0  0  0  0  0  0  0  0  0  # atno 17321 bound_to 7965
  139.5829  144.1669  152.1991 LP  0  0  0  0  0  0  0  0  0  0  0  0  # atno 17342 bound_to 10162
  140.1000  144.5548  150.6995 LP  0  0  0  0  0  0  0  0  0  0  0  0  # atno 17343 bound_to 10162
  156.2513  130.6908  151.1647 LP  0  0  0  0  0  0  0  0  0  0  0  0  # atno 17370 bound_to 10713
  157.7293  131.0625  150.5782 LP  0  0  0  0  0  0  0  0  0  0  0  0  # atno 17371 bound_to 10713
  141.0904  133.9926  157.3247 LP  0  0  0  0  0  0  0  0  0  0  0  0  # atno 17394 bound_to 11000
  139.9253  135.0201  156.8212 LP  0  0  0  0  0  0  0  0  0  0  0  0  # atno 17395 bound_to 11000

$$$$
