AV-unprocessed.smi:3103|AV-procd|sdf|11814|dock3
  -GOLD-   2272017183D 1   1.00000     0.00000
 Structure written by MMmdl.
 32 32  0  0  0  0  0  0  0  0  1 V2000
  151.2043  144.7805  159.7199 C   0  0  0  0  0  0  0  0  0  0  0  0
  151.3663  143.4354  159.0388 C   0  0  0  0  0  0  0  0  0  0  0  0
  150.8869  143.2129  157.7304 C   0  0  0  0  0  0  0  0  0  0  0  0
  151.0222  142.0182  157.1151 N   0  0  0  0  0  0  0  0  0  0  0  0
  151.6323  141.0485  157.8000 C   0  0  0  0  0  0  0  0  0  0  0  0
  151.7444  139.8376  157.1444 N   0  0  0  0  0  0  0  0  0  0  0  0
  152.1613  139.6989  155.7574 C   0  0  0  0  0  0  0  0  0  0  0  0
  151.0675  139.0508  154.9033 C   0  0  0  0  0  0  0  0  0  0  0  0
  150.4612  140.0504  154.1012 O   0  0  0  0  0  0  0  0  0  0  0  0
  149.0450  140.0179  154.1539 C   0  0  0  0  0  0  0  0  0  0  0  0
  148.5166  141.4564  154.2073 C   0  0  0  0  0  0  0  0  0  0  0  0
  149.1093  142.1516  155.2835 O   0  0  0  0  0  0  0  0  0  0  0  0
  152.1285  141.1456  159.0391 N   0  0  0  0  0  0  0  0  0  0  0  0
  151.9990  142.3365  159.6652 C   0  0  0  0  0  0  0  0  0  0  0  0
  152.5653  142.4259  161.0695 C   0  0  0  0  0  0  0  0  0  0  0  0
  150.6499  145.4763  159.0893 H   0  0  0  0  0  0  0  0  0  0  0  0
  152.1796  145.2189  159.9325 H   0  0  0  0  0  0  0  0  0  0  0  0
  150.6621  144.6697  160.6593 H   0  0  0  0  0  0  0  0  0  0  0  0
  150.3917  143.9940  157.1727 H   0  0  0  0  0  0  0  0  0  0  0  0
  151.6460  139.0004  157.6999 H   0  0  0  0  0  0  0  0  0  0  0  0
  152.3904  140.6908  155.3663 H   0  0  0  0  0  0  0  0  0  0  0  0
  153.0785  139.1113  155.7020 H   0  0  0  0  0  0  0  0  0  0  0  0
  151.4808  138.2520  154.2853 H   0  0  0  0  0  0  0  0  0  0  0  0
  150.3157  138.6048  155.5560 H   0  0  0  0  0  0  0  0  0  0  0  0
  148.6732  139.5329  153.2500 H   0  0  0  0  0  0  0  0  0  0  0  0
  148.6887  139.4346  155.0051 H   0  0  0  0  0  0  0  0  0  0  0  0
  148.6965  141.9805  153.2680 H   0  0  0  0  0  0  0  0  0  0  0  0
  147.4390  141.4488  154.3723 H   0  0  0  0  0  0  0  0  0  0  0  0
  148.8029  143.0453  155.2689 H   0  0  0  0  0  0  0  0  0  0  0  0
  153.2911  143.2367  161.1363 H   0  0  0  0  0  0  0  0  0  0  0  0
  153.0669  141.5008  161.3570 H   0  0  0  0  0  0  0  0  0  0  0  0
  151.7674  142.6155  161.7877 H   0  0  0  0  0  0  0  0  0  0  0  0
  1  2  1  0  0  0  0
  1 16  1  0  0  0  0
  1 17  1  0  0  0  0
  1 18  1  0  0  0  0
  2 14  1  0  0  0  0
  2  3  2  0  0  0  0
  3  4  1  0  0  0  0
  3 19  1  0  0  0  0
  4  5  2  0  0  0  0
  5  6  1  0  0  0  0
  5 13  1  0  0  0  0
  6  7  1  0  0  0  0
  6 20  1  0  0  0  0
  7  8  1  0  0  0  0
  7 21  1  0  0  0  0
  7 22  1  0  0  0  0
  8  9  1  0  0  0  0
  8 23  1  0  0  0  0
  8 24  1  0  0  0  0
  9 10  1  0  0  0  0
 10 11  1  0  0  0  0
 10 25  1  0  0  0  0
 10 26  1  0  0  0  0
 11 12  1  0  0  0  0
 11 27  1  0  0  0  0
 11 28  1  0  0  0  0
 12 29  1  0  0  0  0
 13 14  2  0  0  0  0
 14 15  1  0  0  0  0
 15 30  1  0  0  0  0
 15 31  1  0  0  0  0
 15 32  1  0  0  0  0
M  END
> <s_m_source_file>
AV-unprocessed.smi

> <i_m_source_file_index>
3103

> <i_lp_mmshare_version>
43012

> <i_f3d_flags>
0

> <s_epik_input>
W0NIM11jMVtjSF1uYyhuYzFbQ0gzXSlbTkhdW0NIMl1bQ0gyXU9bQ0gyXVtDSDJdW09IXQ==

> <s_epik_cmdline>
J2VwaWtfcHl0aG9uJywgJy1waCcsICc3LjAnLCAnLXRuJywgJzgnLCAnLW1hJywgJzIwMCcsICctbWV0YWxfYmluZGluZycsICctaW1hZScsICc8aW5maWxlLm1hZT4nLCAnLW9tYWUnLCAnPG91dGZpbGUubWFlPic=

> <r_lp_tautomer_probability>
1

> <r_epik_Ionization_Penalty>
0.00815169

> <r_epik_Ionization_Penalty_Charging>
0

> <r_epik_Ionization_Penalty_Neutral>
0.00815169

> <r_epik_State_Penalty>
0.00530275

> <r_epik_Charging_Adjusted_Penalty>
0.00530275

> <i_epik_Tot_Q>
0

> <i_epik_Tot_abs_Q>
0

> <r_epik_Metal_State_Penalty>
-0

> <b_epik_Metal_Only>
0

> <s_lp_Force_Field>
OPLS_2005

> <r_lp_Energy>
-2.90403

> <b_lp_Chiralities_Consistent>
1

> <s_lp_Variant>
AV-unprocessed.smi:3103-1

> <Gold.Version>
5.8.1

> <Gold.Id.Protein>
6NUR|6NUR_protein|mol2

> <Gold.PLP.Fitness>
42.1116

> <Gold.PLP.PLP>
-35.6864

> <Gold.PLP.part.hbond>
-1.7741

> <Gold.PLP.part.metal>
0.0000

> <Gold.PLP.part.buried>
-4.2095

> <Gold.PLP.part.nonpolar>
-29.7792

> <Gold.PLP.part.repulsive>
0.2796

> <Gold.PLP.ligand.clash>
0.0000

> <Gold.PLP.ligand.torsion>
1.3294

> <Gold.PLP.Chemscore.Hbond>
2.0000

> <Gold.PLP.Chemscore.CHOScore>
1.0000

> <Gold.PLP.Chemscore.Metal>
0.0000

> <Gold.Chemscore.Hbonds>
donor molecule, donor type, donor heavy atom, donor atom, acceptor molecule, acceptor atom, score
      L1  H    12    29       P1  8028  1.00
      P1  H  7989  7998       L1     9  1.00
      L1  C     3    19       P1  8028  1.00

> <Gold.PLP.Chemscore.Internal.Correction>
0.0841

> <Gold.Rescore>
     Score         DG    S(hbond)    S(metal)    S(lipo)     H(rot)  DE(clash)    DE(int)     intcor
     14.29     -15.78       1.98        0.00      88.57       2.61       0.20       1.28       ----

> <Gold.Chemscore.Fitness>
14.2867

> <Gold.Chemscore.DG>
-15.7760

> <Gold.Chemscore.ZeroCoef>
-5.4800

> <Gold.Chemscore.Hbond>
1.9815

> <Gold.Chemscore.Metal>
0.0000

> <Gold.Chemscore.Lipo>
88.5689

> <Gold.Chemscore.Internal_Hbond>
0.0000

> <Gold.Chemscore.DEClash>
0.2043

> <Gold.Chemscore.DEInternal>
1.2850

> <Gold.Chemscore.Rot>
2.6113

> <Gold.Chemscore.Internal.Correction>
   9.000000E+99

> <Gold.Chemscore.Hbonds>
donor molecule, donor type, donor heavy atom, donor atom, acceptor molecule, acceptor atom, score
      L1  H    12    29       P1  8028  0.98
      P1  H  7989  7998       L1     9  0.51

> <Gold.Chemscore.Hbond.Weighted>
-6.6183

> <Gold.Chemscore.Metal.Weighted>
-0.0000

> <Gold.Chemscore.Lipo.Weighted>
-10.3626

> <Gold.Chemscore.Internal_Hbond.Weighted>
0.0000

> <Gold.Chemscore.DEClash.Weighted>
0.2043

> <Gold.Chemscore.DEInternal.Weighted>
1.2850

> <Gold.Chemscore.Rot.Weighted>
6.6849

> <Gold.Chemscore.Internal.Correction.Weighted>
   9.000000E+99

> <Gold.Protein.RotatedTorsions>
[ 6907 6896 6895 6894 ] final -125.59 input  -60.11 | X-H torsion
[ 7974 7965 7964 7962 ] final -156.20 input  175.53 | X-H torsion
[ 8008 7997 7996 7995 ] final  -56.08 input   59.86 | X-H torsion
[ 10167 10162 10161 10158 ] final -144.44 input  -65.29 | X-H torsion
[ 10718 10713 10712 10709 ] final  -69.93 input   66.30 | X-H torsion
[ 10763 10752 10751 10750 ] final  -31.38 input  -60.55 | X-H torsion
[ 11005 11000 10999 10996 ] final  124.47 input  -57.11 | X-H torsion

> <Gold.Protein.ActiveResidues>
 VAL166  LYS551  ARG553  GLY616  TRP617  ASP618  TYR619  PRO620  LYS621  CYS622 
 ASP623  PHE694  ASN695  SER759  ASP760  ASP761  ALA762  ILE779  LEU786  VAL792 
 PHE793  MET794  SER795  GLU796  ALA797  LYS798  CYS799  TRP800  GLU811  SER814 

> <Gold.Protein.RotatedAtoms>
  150.8883  133.7278  159.2911 H   0  0  0  0  0  0  0  0  0  0  0  0  # atno 6907 bound_to 6896
  151.4836  135.1052  159.9794 H   0  0  0  0  0  0  0  0  0  0  0  0  # atno 6908 bound_to 6896
  152.4804  133.8193  159.7100 H   0  0  0  0  0  0  0  0  0  0  0  0  # atno 6909 bound_to 6896
  144.7604  140.4142  143.5981 H   0  0  0  0  0  0  0  0  0  0  0  0  # atno 7974 bound_to 7965
  154.4217  140.1138  156.5579 H   0  0  0  0  0  0  0  0  0  0  0  0  # atno 8008 bound_to 7997
  155.6342  140.3496  155.4674 H   0  0  0  0  0  0  0  0  0  0  0  0  # atno 8009 bound_to 7997
  155.9924  140.1182  157.0616 H   0  0  0  0  0  0  0  0  0  0  0  0  # atno 8010 bound_to 7997
  139.7899  143.7981  152.2649 H   0  0  0  0  0  0  0  0  0  0  0  0  # atno 10167 bound_to 10162
  156.0431  130.4322  150.2221 H   0  0  0  0  0  0  0  0  0  0  0  0  # atno 10718 bound_to 10713
  153.7963  135.6894  153.4863 H   0  0  0  0  0  0  0  0  0  0  0  0  # atno 10763 bound_to 10752
  153.1717  135.4540  154.9909 H   0  0  0  0  0  0  0  0  0  0  0  0  # atno 10764 bound_to 10752
  154.8024  135.3343  154.7455 H   0  0  0  0  0  0  0  0  0  0  0  0  # atno 10765 bound_to 10752
  139.9360  134.9639  156.8414 H   0  0  0  0  0  0  0  0  0  0  0  0  # atno 11005 bound_to 11000
  145.6639  139.1586  143.2793 LP  0  0  0  0  0  0  0  0  0  0  0  0  # atno 17320 bound_to 7965
  146.1660  140.6717  142.9255 LP  0  0  0  0  0  0  0  0  0  0  0  0  # atno 17321 bound_to 7965
  139.8069  144.7351  150.9749 LP  0  0  0  0  0  0  0  0  0  0  0  0  # atno 17342 bound_to 10162
  140.7820  143.4289  151.0725 LP  0  0  0  0  0  0  0  0  0  0  0  0  # atno 17343 bound_to 10162
  157.0313  131.0008  151.3311 LP  0  0  0  0  0  0  0  0  0  0  0  0  # atno 17370 bound_to 10713
  157.5275  130.8037  149.7878 LP  0  0  0  0  0  0  0  0  0  0  0  0  # atno 17371 bound_to 10713
  140.6075  134.0114  155.7562 LP  0  0  0  0  0  0  0  0  0  0  0  0  # atno 17394 bound_to 11000
  141.0974  133.9822  157.3137 LP  0  0  0  0  0  0  0  0  0  0  0  0  # atno 17395 bound_to 11000

$$$$
