AV-unprocessed.smi:2985|AV-procd|sdf|11379|dock1
  -GOLD-   2272016303D 1   1.00000     0.00000
 Structure written by MMmdl.
 33 34  0  0  0  0  0  0  0  0  1 V2000
  154.7934  140.4968  161.9813 C   0  0  0  0  0  0  0  0  0  0  0  0
  154.8733  141.1624  160.7331 O   0  0  0  0  0  0  0  0  0  0  0  0
  154.7141  140.2787  159.6370 C   0  0  0  0  0  0  0  0  0  0  0  0
  153.2556  139.8065  159.5864 C   0  0  0  0  0  0  0  0  0  0  0  0
  152.4216  140.7314  158.8361 N   0  0  0  0  0  0  0  0  0  0  0  0
  151.6108  140.4534  157.7869 C   0  0  0  0  0  0  0  0  0  0  0  0
  151.4415  138.8178  157.1532 S   0  0  0  0  0  0  0  0  0  0  0  0
  151.4824  139.2278  155.3852 C   0  0  0  0  0  0  0  0  0  0  0  0
  150.9002  138.1198  154.5112 C   0  0  0  0  0  0  0  0  0  0  0  0
  149.8478  138.4338  153.7507 N   0  0  0  0  0  0  0  0  0  0  0  0
  151.3854  136.9909  154.5285 O   0  0  0  0  0  0  0  0  0  0  0  0
  150.9613  141.4948  157.2664 N   0  0  0  0  0  0  0  0  0  0  0  0
  151.3937  142.5467  158.0502 C   0  0  0  0  0  0  0  0  0  0  0  0
  151.0712  143.9219  158.0017 C   0  0  0  0  0  0  0  0  0  0  0  0
  151.6521  144.8237  158.9173 C   0  0  0  0  0  0  0  0  0  0  0  0
  152.5622  144.3650  159.8917 C   0  0  0  0  0  0  0  0  0  0  0  0
  152.8966  142.9986  159.9579 C   0  0  0  0  0  0  0  0  0  0  0  0
  152.3124  142.1025  159.0428 C   0  0  0  0  0  0  0  0  0  0  0  0
  154.9256  141.2158  162.7896 H   0  0  0  0  0  0  0  0  0  0  0  0
  155.5720  139.7386  162.0748 H   0  0  0  0  0  0  0  0  0  0  0  0
  153.8218  140.0187  162.1115 H   0  0  0  0  0  0  0  0  0  0  0  0
  154.9768  140.7852  158.7066 H   0  0  0  0  0  0  0  0  0  0  0  0
  155.3847  139.4250  159.7480 H   0  0  0  0  0  0  0  0  0  0  0  0
  153.1865  138.8160  159.1361 H   0  0  0  0  0  0  0  0  0  0  0  0
  152.8563  139.7128  160.5967 H   0  0  0  0  0  0  0  0  0  0  0  0
  150.9341  140.1561  155.2194 H   0  0  0  0  0  0  0  0  0  0  0  0
  152.5153  139.4073  155.0837 H   0  0  0  0  0  0  0  0  0  0  0  0
  149.4209  137.7305  153.1654 H   0  0  0  0  0  0  0  0  0  0  0  0
  149.4753  139.3720  153.7740 H   0  0  0  0  0  0  0  0  0  0  0  0
  150.3765  144.2834  157.2579 H   0  0  0  0  0  0  0  0  0  0  0  0
  151.3991  145.8728  158.8707 H   0  0  0  0  0  0  0  0  0  0  0  0
  153.0037  145.0626  160.5883 H   0  0  0  0  0  0  0  0  0  0  0  0
  153.5946  142.6456  160.7023 H   0  0  0  0  0  0  0  0  0  0  0  0
  1  2  1  0  0  0  0
  1 19  1  0  0  0  0
  1 20  1  0  0  0  0
  1 21  1  0  0  0  0
  2  3  1  0  0  0  0
  3  4  1  0  0  0  0
  3 22  1  0  0  0  0
  3 23  1  0  0  0  0
  4  5  1  0  0  0  0
  4 24  1  0  0  0  0
  4 25  1  0  0  0  0
  5 18  1  0  0  0  0
  5  6  1  0  0  0  0
  6  7  1  0  0  0  0
  6 12  2  0  0  0  0
  7  8  1  0  0  0  0
  8  9  1  0  0  0  0
  8 26  1  0  0  0  0
  8 27  1  0  0  0  0
  9 10  1  0  0  0  0
  9 11  2  0  0  0  0
 10 28  1  0  0  0  0
 10 29  1  0  0  0  0
 12 13  1  0  0  0  0
 13 18  2  0  0  0  0
 13 14  1  0  0  0  0
 14 15  2  0  0  0  0
 14 30  1  0  0  0  0
 15 16  1  0  0  0  0
 15 31  1  0  0  0  0
 16 17  2  0  0  0  0
 16 32  1  0  0  0  0
 17 18  1  0  0  0  0
 17 33  1  0  0  0  0
M  END
> <s_m_source_file>
AV-unprocessed.smi

> <i_m_source_file_index>
2985

> <i_lp_mmshare_version>
43012

> <i_f3d_flags>
0

> <s_epik_input>
W2NIXTFbY0hdW2NIXVtjSF1jKGMxMiluKFtDSDJdW0NIMl1PW0NIM10pYyhuMilTW0NIMl1DKD1PKVtOSDJd

> <s_epik_cmdline>
J2VwaWtfcHl0aG9uJywgJy1waCcsICc3LjAnLCAnLXRuJywgJzgnLCAnLW1hJywgJzIwMCcsICctbWV0YWxfYmluZGluZycsICctaW1hZScsICc8aW5maWxlLm1hZT4nLCAnLW9tYWUnLCAnPG91dGZpbGUubWFlPic=

> <r_epik_Ionization_Penalty>
0.0273334

> <r_epik_Ionization_Penalty_Charging>
0

> <r_epik_Ionization_Penalty_Neutral>
0.0273334

> <r_epik_State_Penalty>
0.0223655

> <r_epik_Charging_Adjusted_Penalty>
0.0223655

> <i_epik_Tot_Q>
0

> <i_epik_Tot_abs_Q>
0

> <r_epik_Metal_State_Penalty>
0.0213644

> <b_epik_Metal_Only>
0

> <s_lp_Force_Field>
OPLS_2005

> <r_lp_Energy>
5.41897

> <b_lp_Chiralities_Consistent>
1

> <s_lp_Variant>
AV-unprocessed.smi:2985-1

> <Gold.Version>
5.8.1

> <Gold.Id.Protein>
6NUR|6NUR_protein|mol2

> <Gold.PLP.Fitness>
46.0913

> <Gold.PLP.PLP>
-41.1741

> <Gold.PLP.part.hbond>
-3.9763

> <Gold.PLP.part.metal>
0.0000

> <Gold.PLP.part.buried>
-5.4495

> <Gold.PLP.part.nonpolar>
-33.0448

> <Gold.PLP.part.repulsive>
0.2833

> <Gold.PLP.ligand.clash>
0.0000

> <Gold.PLP.ligand.torsion>
0.5559

> <Gold.PLP.Chemscore.Hbond>
2.0000

> <Gold.PLP.Chemscore.CHOScore>
0.0000

> <Gold.PLP.Chemscore.Metal>
0.0000

> <Gold.Chemscore.Hbonds>
donor molecule, donor type, donor heavy atom, donor atom, acceptor molecule, acceptor atom, score
      L1  H    10    28       P1  7948  1.00
      P1  H 10752 10763       L1    11  0.91

> <Gold.PLP.Chemscore.Internal.Correction>
0.0290

> <Gold.Rescore>
     Score         DG    S(hbond)    S(metal)    S(lipo)     H(rot)  DE(clash)    DE(int)     intcor
     15.20     -17.30       1.93        0.00     104.64       2.68       0.13       1.97       ----

> <Gold.Chemscore.Fitness>
15.1957

> <Gold.Chemscore.DG>
-17.2979

> <Gold.Chemscore.ZeroCoef>
-5.4800

> <Gold.Chemscore.Hbond>
1.9281

> <Gold.Chemscore.Metal>
0.0000

> <Gold.Chemscore.Lipo>
104.6374

> <Gold.Chemscore.Internal_Hbond>
0.0000

> <Gold.Chemscore.DEClash>
0.1327

> <Gold.Chemscore.DEInternal>
1.9696

> <Gold.Chemscore.Rot>
2.6814

> <Gold.Chemscore.Internal.Correction>
   9.000000E+99

> <Gold.Chemscore.Hbonds>
donor molecule, donor type, donor heavy atom, donor atom, acceptor molecule, acceptor atom, score
      L1  H    10    28       P1  7948  0.88
      P1  H 10752 10763       L1    11  0.88

> <Gold.Chemscore.Hbond.Weighted>
-6.4397

> <Gold.Chemscore.Metal.Weighted>
-0.0000

> <Gold.Chemscore.Lipo.Weighted>
-12.2426

> <Gold.Chemscore.Internal_Hbond.Weighted>
0.0000

> <Gold.Chemscore.DEClash.Weighted>
0.1327

> <Gold.Chemscore.DEInternal.Weighted>
1.9696

> <Gold.Chemscore.Rot.Weighted>
6.8644

> <Gold.Chemscore.Internal.Correction.Weighted>
   9.000000E+99

> <Gold.Protein.RotatedTorsions>
[ 6907 6896 6895 6894 ] final   65.30 input  -60.11 | X-H torsion
[ 7974 7965 7964 7962 ] final   72.24 input  175.53 | X-H torsion
[ 8008 7997 7996 7995 ] final  129.73 input   59.86 | X-H torsion
[ 10167 10162 10161 10158 ] final   -0.68 input  -65.29 | X-H torsion
[ 10718 10713 10712 10709 ] final   27.38 input   66.30 | X-H torsion
[ 10763 10752 10751 10750 ] final   54.68 input  -60.55 | X-H torsion
[ 11005 11000 10999 10996 ] final  100.73 input  -57.11 | X-H torsion

> <Gold.Protein.ActiveResidues>
 VAL166  LYS551  ARG553  GLY616  TRP617  ASP618  TYR619  PRO620  LYS621  CYS622 
 ASP623  PHE694  ASN695  SER759  ASP760  ASP761  ALA762  ILE779  LEU786  VAL792 
 PHE793  MET794  SER795  GLU796  ALA797  LYS798  CYS799  TRP800  GLU811  SER814 

> <Gold.Protein.RotatedAtoms>
  152.4397  134.5615  159.9895 H   0  0  0  0  0  0  0  0  0  0  0  0  # atno 6907 bound_to 6896
  151.5716  133.3383  159.2998 H   0  0  0  0  0  0  0  0  0  0  0  0  # atno 6908 bound_to 6896
  150.8301  134.7584  159.6910 H   0  0  0  0  0  0  0  0  0  0  0  0  # atno 6909 bound_to 6896
  145.7558  139.2779  143.1405 H   0  0  0  0  0  0  0  0  0  0  0  0  # atno 7974 bound_to 7965
  156.2941  140.2613  156.2646 H   0  0  0  0  0  0  0  0  0  0  0  0  # atno 8008 bound_to 7997
  154.9755  140.0390  157.2272 H   0  0  0  0  0  0  0  0  0  0  0  0  # atno 8009 bound_to 7997
  154.7820  140.2796  155.6061 H   0  0  0  0  0  0  0  0  0  0  0  0  # atno 8010 bound_to 7997
  140.6778  143.6865  150.8062 H   0  0  0  0  0  0  0  0  0  0  0  0  # atno 10167 bound_to 10162
  157.2194  130.6972  149.6263 H   0  0  0  0  0  0  0  0  0  0  0  0  # atno 10718 bound_to 10713
  152.9807  135.5736  154.4944 H   0  0  0  0  0  0  0  0  0  0  0  0  # atno 10763 bound_to 10752
  154.4473  135.2777  155.1808 H   0  0  0  0  0  0  0  0  0  0  0  0  # atno 10764 bound_to 10752
  154.3450  135.6221  153.5668 H   0  0  0  0  0  0  0  0  0  0  0  0  # atno 10765 bound_to 10752
  139.8771  134.9153  156.4800 H   0  0  0  0  0  0  0  0  0  0  0  0  # atno 11005 bound_to 11000
  146.0312  140.8255  142.9875 LP  0  0  0  0  0  0  0  0  0  0  0  0  # atno 17320 bound_to 7965
  144.6840  140.2772  143.7297 LP  0  0  0  0  0  0  0  0  0  0  0  0  # atno 17321 bound_to 7965
  140.0561  143.5201  152.2650 LP  0  0  0  0  0  0  0  0  0  0  0  0  # atno 17342 bound_to 10162
  139.6081  144.7601  151.3015 LP  0  0  0  0  0  0  0  0  0  0  0  0  # atno 17343 bound_to 10162
  155.9683  130.4525  150.5775 LP  0  0  0  0  0  0  0  0  0  0  0  0  # atno 17370 bound_to 10713
  157.3591  131.0746  151.1651 LP  0  0  0  0  0  0  0  0  0  0  0  0  # atno 17371 bound_to 10713
  140.8734  133.7971  155.9389 LP  0  0  0  0  0  0  0  0  0  0  0  0  # atno 17394 bound_to 11000
  140.8929  134.2473  157.5084 LP  0  0  0  0  0  0  0  0  0  0  0  0  # atno 17395 bound_to 11000

$$$$
