AV-unprocessed.smi:252|AV-procd|sdf|1939|dock7
  -GOLD-   2262021 63D 1   1.00000     0.00000
 Structure written by MMmdl.
 56 59  0  0  0  0  0  0  0  0  1 V2000
  155.0970  140.2047  161.5239 C   0  0  0  0  0  0  0  0  0  0  0  0
  154.3992  141.2204  162.4424 C   0  0  0  0  0  0  0  0  0  0  0  0
  153.3478  142.0759  161.7279 C   0  0  0  0  0  0  0  0  0  0  0  0
  152.8201  143.0356  162.2913 O   0  0  0  0  0  0  0  0  0  0  0  0
  153.0517  141.7079  160.4720 N   0  0  0  0  0  0  0  0  0  0  0  0
  152.0926  142.3795  159.6011 C   0  0  1  0  0  0  0  0  0  0  0  0
  152.7406  143.6346  158.9866 C   0  0  0  0  0  0  0  0  0  0  0  0
  151.7834  144.3053  157.9885 C   0  0  0  0  0  0  0  0  0  0  0  0
  151.3112  143.3018  156.9248 C   0  0  0  0  0  0  0  0  0  0  0  0
  150.7214  142.1267  157.5592 N   0  0  0  0  0  0  0  0  0  0  0  0
  150.0845  141.3074  156.6967 C   0  0  0  0  0  0  0  0  0  0  0  0
  150.0676  141.5983  155.3694 N   0  0  0  0  0  0  0  0  0  0  0  0
  149.4350  140.7833  154.5191 C   0  0  0  0  0  0  0  0  0  0  0  0
  148.7699  139.6553  154.7811 N   0  0  0  0  0  0  0  0  0  0  0  0
  148.7847  139.3674  156.1147 C   0  0  0  0  0  0  0  0  0  0  0  0
  149.4197  140.1323  157.1320 C   0  0  0  0  0  0  0  0  0  0  0  0
  149.2381  139.5292  158.3696 N   0  0  0  0  0  0  0  0  0  0  0  0
  148.5340  138.4641  158.0991 C   0  0  0  0  0  0  0  0  0  0  0  0
  148.2030  138.2973  156.7723 N   0  0  0  0  0  0  0  0  0  0  0  0
  147.4261  137.2086  156.1994 C   0  0  0  0  0  0  0  0  0  0  0  0
  148.1969  136.3481  155.1615 C   0  0  2  0  0  0  0  0  0  0  0  0
  148.5383  137.1723  154.0608 O   0  0  0  0  0  0  0  0  0  0  0  0
  147.4131  135.1448  154.6470 C   0  0  0  0  0  0  0  0  0  0  0  0
  147.7055  134.0944  155.7061 C   0  0  0  0  0  0  0  0  0  0  0  0
  149.0784  134.2984  156.0040 O   0  0  0  0  0  0  0  0  0  0  0  0
  149.4312  135.6692  155.8109 C   0  0  1  0  0  0  0  0  0  0  0  0
  150.7220  135.6807  154.9741 C   0  0  0  0  0  0  0  0  0  0  0  0
  151.6015  141.4270  158.4908 C   0  0  0  0  0  0  0  0  0  0  0  0
  155.8153  139.6079  162.0860 H   0  0  0  0  0  0  0  0  0  0  0  0
  155.6410  140.7027  160.7202 H   0  0  0  0  0  0  0  0  0  0  0  0
  154.3801  139.5181  161.0722 H   0  0  0  0  0  0  0  0  0  0  0  0
  153.9172  140.6915  163.2656 H   0  0  0  0  0  0  0  0  0  0  0  0
  155.1432  141.8822  162.8871 H   0  0  0  0  0  0  0  0  0  0  0  0
  153.5316  140.9069  160.0880 H   0  0  0  0  0  0  0  0  0  0  0  0
  151.2350  142.6973  160.1979 H   0  0  0  0  0  0  0  0  0  0  0  0
  153.0154  144.3415  159.7703 H   0  0  0  0  0  0  0  0  0  0  0  0
  153.6637  143.3623  158.4725 H   0  0  0  0  0  0  0  0  0  0  0  0
  150.9190  144.7028  158.5222 H   0  0  0  0  0  0  0  0  0  0  0  0
  152.2721  145.1549  157.5111 H   0  0  0  0  0  0  0  0  0  0  0  0
  150.5815  143.7744  156.2657 H   0  0  0  0  0  0  0  0  0  0  0  0
  152.1544  142.9962  156.3033 H   0  0  0  0  0  0  0  0  0  0  0  0
  149.4656  141.0761  153.4801 H   0  0  0  0  0  0  0  0  0  0  0  0
  148.2252  137.7698  158.8674 H   0  0  0  0  0  0  0  0  0  0  0  0
  147.0730  136.5781  157.0169 H   0  0  0  0  0  0  0  0  0  0  0  0
  146.5316  137.6388  155.7473 H   0  0  0  0  0  0  0  0  0  0  0  0
  148.7548  136.6177  153.3270 H   0  0  0  0  0  0  0  0  0  0  0  0
  146.3488  135.3205  154.4984 H   0  0  0  0  0  0  0  0  0  0  0  0
  147.8208  134.8042  153.6937 H   0  0  0  0  0  0  0  0  0  0  0  0
  147.1064  134.2637  156.6016 H   0  0  0  0  0  0  0  0  0  0  0  0
  147.5190  133.0792  155.3560 H   0  0  0  0  0  0  0  0  0  0  0  0
  149.6440  136.1139  156.7842 H   0  0  0  0  0  0  0  0  0  0  0  0
  151.0833  136.6969  154.8142 H   0  0  0  0  0  0  0  0  0  0  0  0
  150.5687  135.2171  153.9990 H   0  0  0  0  0  0  0  0  0  0  0  0
  151.5149  135.1295  155.4804 H   0  0  0  0  0  0  0  0  0  0  0  0
  152.4538  141.0189  157.9449 H   0  0  0  0  0  0  0  0  0  0  0  0
  151.0688  140.5817  158.9291 H   0  0  0  0  0  0  0  0  0  0  0  0
  1  2  1  0  0  0  0
  1 29  1  0  0  0  0
  1 30  1  0  0  0  0
  1 31  1  0  0  0  0
  2  3  1  0  0  0  0
  2 32  1  0  0  0  0
  2 33  1  0  0  0  0
  3  4  2  0  0  0  0
  3  5  1  0  0  0  0
  5  6  1  0  0  0  0
  5 34  1  0  0  0  0
  6 28  1  0  0  0  0
  6  7  1  0  0  0  0
  6 35  1  0  0  0  0
  7  8  1  0  0  0  0
  7 36  1  0  0  0  0
  7 37  1  0  0  0  0
  8  9  1  0  0  0  0
  8 38  1  0  0  0  0
  8 39  1  0  0  0  0
  9 10  1  0  0  0  0
  9 40  1  0  0  0  0
  9 41  1  0  0  0  0
 10 11  1  0  0  0  0
 10 28  1  0  0  0  0
 11 16  1  0  0  0  0
 11 12  2  0  0  0  0
 12 13  1  0  0  0  0
 13 14  2  0  0  0  0
 13 42  1  0  0  0  0
 14 15  1  0  0  0  0
 15 19  1  0  0  0  0
 15 16  2  0  0  0  0
 16 17  1  0  0  0  0
 17 18  2  0  0  0  0
 18 19  1  0  0  0  0
 18 43  1  0  0  0  0
 19 20  1  0  0  0  0
 20 21  1  0  0  0  0
 20 44  1  0  0  0  0
 20 45  1  0  0  0  0
 21 26  1  0  0  0  0
 21 22  1  0  0  0  0
 21 23  1  0  0  0  0
 22 46  1  0  0  0  0
 23 24  1  0  0  0  0
 23 47  1  0  0  0  0
 23 48  1  0  0  0  0
 24 25  1  0  0  0  0
 24 49  1  0  0  0  0
 24 50  1  0  0  0  0
 25 26  1  0  0  0  0
 26 27  1  0  0  0  0
 26 51  1  0  0  0  0
 27 52  1  0  0  0  0
 27 53  1  0  0  0  0
 27 54  1  0  0  0  0
 28 55  1  0  0  0  0
 28 56  1  0  0  0  0
M  END
> <s_m_source_file>
AV-unprocessed.smi

> <i_m_source_file_index>
252

> <i_lp_mmshare_version>
43012

> <i_f3d_flags>
0

> <s_epik_input>
W0NIM11bQ0gyXUMoPU8pW05IXVtDQEBIXTFbQ0gyXVtDSDJdW0NIMl1OKFtDSDJdMSljKG5bY0hdbjIpYyhjMjMpbltjSF1uM1tDSDJdW0NAQF00KFtPSF0pW0NIMl1bQ0gyXU9bQ0BIXTRbQ0gzXQ==

> <s_epik_cmdline>
J2VwaWtfcHl0aG9uJywgJy1waCcsICc3LjAnLCAnLXRuJywgJzgnLCAnLW1hJywgJzIwMCcsICctbWV0YWxfYmluZGluZycsICctaW1hZScsICc8aW5maWxlLm1hZT4nLCAnLW9tYWUnLCAnPG91dGZpbGUubWFlPic=

> <r_lp_tautomer_probability>
1

> <r_epik_Ionization_Penalty>
0.00182575

> <r_epik_Ionization_Penalty_Charging>
0

> <r_epik_Ionization_Penalty_Neutral>
0.00182575

> <r_epik_State_Penalty>
0.00104524

> <r_epik_Charging_Adjusted_Penalty>
0.00104524

> <i_epik_Tot_Q>
0

> <i_epik_Tot_abs_Q>
0

> <r_epik_Metal_State_Penalty>
-0

> <b_epik_Metal_Only>
0

> <s_lp_Force_Field>
OPLS_2005

> <r_lp_Energy>
37.9455

> <b_lp_Chiralities_Consistent>
1

> <s_lp_Variant>
AV-unprocessed.smi:252-4

> <Gold.Version>
5.8.1

> <Gold.Id.Protein>
6NUR|6NUR_protein|mol2

> <Gold.PLP.Fitness>
41.6111

> <Gold.PLP.PLP>
-36.4598

> <Gold.PLP.part.hbond>
-1.7194

> <Gold.PLP.part.metal>
0.0000

> <Gold.PLP.part.buried>
-2.6672

> <Gold.PLP.part.nonpolar>
-32.4508

> <Gold.PLP.part.repulsive>
0.5104

> <Gold.PLP.ligand.clash>
0.0875

> <Gold.PLP.ligand.torsion>
0.5128

> <Gold.PLP.Chemscore.Hbond>
1.0000

> <Gold.PLP.Chemscore.CHOScore>
0.9982

> <Gold.PLP.Chemscore.Metal>
0.0000

> <Gold.Chemscore.Hbonds>
donor molecule, donor type, donor heavy atom, donor atom, acceptor molecule, acceptor atom, score
      L1  H    22    46       P1  7948  0.98
      L1  C    13    42       P1  7957  0.98

> <Gold.PLP.Chemscore.Internal.Correction>
0.2698

> <Gold.Rescore>
     Score         DG    S(hbond)    S(metal)    S(lipo)     H(rot)  DE(clash)    DE(int)     intcor
     10.85     -12.36       0.98        0.00      90.07       2.70       0.14       1.37       ----

> <Gold.Chemscore.Fitness>
10.8528

> <Gold.Chemscore.DG>
-12.3634

> <Gold.Chemscore.ZeroCoef>
-5.4800

> <Gold.Chemscore.Hbond>
0.9784

> <Gold.Chemscore.Metal>
0.0000

> <Gold.Chemscore.Lipo>
90.0677

> <Gold.Chemscore.Internal_Hbond>
0.0000

> <Gold.Chemscore.DEClash>
0.1356

> <Gold.Chemscore.DEInternal>
1.3750

> <Gold.Chemscore.Rot>
2.7041

> <Gold.Chemscore.Internal.Correction>
   9.000000E+99

> <Gold.Chemscore.Hbonds>
donor molecule, donor type, donor heavy atom, donor atom, acceptor molecule, acceptor atom, score
      L1  H    22    46       P1  7948  0.90

> <Gold.Chemscore.Hbond.Weighted>
-3.2679

> <Gold.Chemscore.Metal.Weighted>
-0.0000

> <Gold.Chemscore.Lipo.Weighted>
-10.5379

> <Gold.Chemscore.Internal_Hbond.Weighted>
0.0000

> <Gold.Chemscore.DEClash.Weighted>
0.1356

> <Gold.Chemscore.DEInternal.Weighted>
1.3750

> <Gold.Chemscore.Rot.Weighted>
6.9225

> <Gold.Chemscore.Internal.Correction.Weighted>
   9.000000E+99

> <Gold.Protein.RotatedTorsions>
[ 6907 6896 6895 6894 ] final  151.25 input  -60.11 | X-H torsion
[ 7974 7965 7964 7962 ] final   77.06 input  175.53 | X-H torsion
[ 8008 7997 7996 7995 ] final  134.09 input   59.86 | X-H torsion
[ 10167 10162 10161 10158 ] final  108.65 input  -65.29 | X-H torsion
[ 10718 10713 10712 10709 ] final  -88.11 input   66.30 | X-H torsion
[ 10763 10752 10751 10750 ] final  103.50 input  -60.55 | X-H torsion
[ 11005 11000 10999 10996 ] final -163.23 input  -57.11 | X-H torsion

> <Gold.Protein.ActiveResidues>
 VAL166  LYS551  ARG553  GLY616  TRP617  ASP618  TYR619  PRO620  LYS621  CYS622 
 ASP623  PHE694  ASN695  SER759  ASP760  ASP761  ALA762  ILE779  LEU786  VAL792 
 PHE793  MET794  SER795  GLU796  ALA797  LYS798  CYS799  TRP800  GLU811  SER814 

> <Gold.Protein.RotatedAtoms>
  152.1032  133.4261  159.4596 H   0  0  0  0  0  0  0  0  0  0  0  0  # atno 6907 bound_to 6896
  150.6865  134.2735  159.4607 H   0  0  0  0  0  0  0  0  0  0  0  0  # atno 6908 bound_to 6896
  152.0598  134.9601  160.0625 H   0  0  0  0  0  0  0  0  0  0  0  0  # atno 6909 bound_to 6896
  145.6948  139.2564  143.1739 H   0  0  0  0  0  0  0  0  0  0  0  0  # atno 7974 bound_to 7965
  156.2997  140.2505  156.3359 H   0  0  0  0  0  0  0  0  0  0  0  0  # atno 8008 bound_to 7997
  154.9100  140.0403  157.1960 H   0  0  0  0  0  0  0  0  0  0  0  0  # atno 8009 bound_to 7997
  154.8414  140.2891  155.5661 H   0  0  0  0  0  0  0  0  0  0  0  0  # atno 8010 bound_to 7997
  139.6829  144.7116  151.1484 H   0  0  0  0  0  0  0  0  0  0  0  0  # atno 10167 bound_to 10162
  155.9984  130.4824  150.4970 H   0  0  0  0  0  0  0  0  0  0  0  0  # atno 10718 bound_to 10713
  153.3535  135.3974  155.1664 H   0  0  0  0  0  0  0  0  0  0  0  0  # atno 10763 bound_to 10752
  154.8666  135.3662  154.5191 H   0  0  0  0  0  0  0  0  0  0  0  0  # atno 10764 bound_to 10752
  153.5645  135.7080  153.5592 H   0  0  0  0  0  0  0  0  0  0  0  0  # atno 10765 bound_to 10752
  140.6004  134.4953  157.5204 H   0  0  0  0  0  0  0  0  0  0  0  0  # atno 11005 bound_to 11000
  146.0850  140.7721  142.9623 LP  0  0  0  0  0  0  0  0  0  0  0  0  # atno 17320 bound_to 7965
  144.6986  140.3547  143.7175 LP  0  0  0  0  0  0  0  0  0  0  0  0  # atno 17321 bound_to 7965
  140.7658  143.5673  150.9034 LP  0  0  0  0  0  0  0  0  0  0  0  0  # atno 17342 bound_to 10162
  139.9346  143.6453  152.3068 LP  0  0  0  0  0  0  0  0  0  0  0  0  # atno 17343 bound_to 10162
  157.2958  131.0635  151.2102 LP  0  0  0  0  0  0  0  0  0  0  0  0  # atno 17370 bound_to 10713
  157.3099  130.6884  149.6210 LP  0  0  0  0  0  0  0  0  0  0  0  0  # atno 17371 bound_to 10713
  139.9235  134.8102  156.1139 LP  0  0  0  0  0  0  0  0  0  0  0  0  # atno 17394 bound_to 11000
  141.0876  133.6727  156.2470 LP  0  0  0  0  0  0  0  0  0  0  0  0  # atno 17395 bound_to 11000

$$$$
