AV-unprocessed.smi:1703|AV-procd|sdf|6876|dock1
  -GOLD-   22720 8 73D 1   1.00000     0.00000
 Structure written by MMmdl.
 50 52  0  0  0  0  0  0  0  0  3 V2000
  140.8496  140.4292  155.1845 C   0  0  0  0  0  0  0  0  0  0  0  0
  140.2164  139.1324  154.6692 C   0  0  1  0  0  0  0  0  0  0  0  0
  140.7526  137.8932  155.4179 C   0  0  0  0  0  0  0  0  0  0  0  0
  140.0523  136.6509  154.9992 N   0  3  2  0  0  0  0  0  0  0  0  0
  140.4792  136.1048  153.6825 C   0  0  0  0  0  0  0  0  0  0  0  0
  141.9806  135.7401  153.6359 C   0  0  1  0  0  0  0  0  0  0  0  0
  142.1903  134.5398  154.3512 O   0  0  0  0  0  0  0  0  0  0  0  0
  142.5194  135.5285  152.2068 C   0  0  0  0  0  0  0  0  0  0  0  0
  143.9792  135.3287  152.1665 N   0  0  0  0  0  0  0  0  0  0  0  0
  144.9870  136.1624  152.5582 C   0  0  0  0  0  0  0  0  0  0  0  0
  144.8523  137.5373  153.1249 C   0  0  0  0  0  0  0  0  0  0  0  0
  145.3274  138.5281  152.2393 O   0  0  0  0  0  0  0  0  0  0  0  0
  146.1627  135.5185  152.3155 N   0  3  0  0  0  0  0  0  0  0  0  0
  145.9097  134.2624  151.7649 C   0  0  0  0  0  0  0  0  0  0  0  0
  146.7821  133.2586  151.3557 C   0  0  0  0  0  0  0  0  0  0  0  0
  146.1982  132.0896  150.8263 C   0  0  0  0  0  0  0  0  0  0  0  0
  144.7995  131.9536  150.7175 C   0  0  0  0  0  0  0  0  0  0  0  0
  143.9249  132.9784  151.1354 C   0  0  0  0  0  0  0  0  0  0  0  0
  144.5087  134.1315  151.6634 C   0  0  0  0  0  0  0  0  0  0  0  0
  138.5843  136.8281  155.1153 C   0  0  0  0  0  0  0  0  0  0  0  0
  138.1092  138.0846  154.3560 C   0  0  1  0  0  0  0  0  0  0  0  0
  136.6077  138.3328  154.5347 C   0  0  0  0  0  0  0  0  0  0  0  0
  138.8080  139.2193  154.8578 O   0  0  0  0  0  0  0  0  0  0  0  0
  141.9317  140.4167  155.0504 H   0  0  0  0  0  0  0  0  0  0  0  0
  140.6451  140.5755  156.2456 H   0  0  0  0  0  0  0  0  0  0  0  0
  140.4589  141.2940  154.6479 H   0  0  0  0  0  0  0  0  0  0  0  0
  140.4307  139.0557  153.6025 H   0  0  0  0  0  0  0  0  0  0  0  0
  141.8302  137.8062  155.2891 H   0  0  0  0  0  0  0  0  0  0  0  0
  140.5893  138.0227  156.4887 H   0  0  0  0  0  0  0  0  0  0  0  0
  139.9013  135.2095  153.4479 H   0  0  0  0  0  0  0  0  0  0  0  0
  140.2311  136.8260  152.9059 H   0  0  0  0  0  0  0  0  0  0  0  0
  142.5812  136.5149  154.1085 H   0  0  0  0  0  0  0  0  0  0  0  0
  141.4539  134.3884  154.9236 H   0  0  0  0  0  0  0  0  0  0  0  0
  142.0602  134.6453  151.7609 H   0  0  0  0  0  0  0  0  0  0  0  0
  142.2439  136.3620  151.5623 H   0  0  0  0  0  0  0  0  0  0  0  0
  143.8082  137.7401  153.3636 H   0  0  0  0  0  0  0  0  0  0  0  0
  145.4110  137.5980  154.0592 H   0  0  0  0  0  0  0  0  0  0  0  0
  144.7646  139.2851  152.3068 H   0  0  0  0  0  0  0  0  0  0  0  0
  147.8546  133.3611  151.4361 H   0  0  0  0  0  0  0  0  0  0  0  0
  146.8360  131.2819  150.4964 H   0  0  0  0  0  0  0  0  0  0  0  0
  144.3883  131.0430  150.3056 H   0  0  0  0  0  0  0  0  0  0  0  0
  142.8566  132.8548  151.0419 H   0  0  0  0  0  0  0  0  0  0  0  0
  138.0630  135.9373  154.7625 H   0  0  0  0  0  0  0  0  0  0  0  0
  138.3361  136.9264  156.1731 H   0  0  0  0  0  0  0  0  0  0  0  0
  138.3132  137.9789  153.2893 H   0  0  0  0  0  0  0  0  0  0  0  0
  136.0230  137.4938  154.1567 H   0  0  0  0  0  0  0  0  0  0  0  0
  136.2932  139.2261  153.9945 H   0  0  0  0  0  0  0  0  0  0  0  0
  136.3522  138.4728  155.5854 H   0  0  0  0  0  0  0  0  0  0  0  0
  140.2966  135.9386  155.6723 H   0  0  0  0  0  0  0  0  0  0  0  0
  147.0733  135.9145  152.5117 H   0  0  0  0  0  0  0  0  0  0  0  0
  1  2  1  0  0  0  0
  1 24  1  0  0  0  0
  1 25  1  0  0  0  0
  1 26  1  0  0  0  0
  2 23  1  0  0  0  0
  2  3  1  0  0  0  0
  2 27  1  0  0  0  0
  3  4  1  0  0  0  0
  3 28  1  0  0  0  0
  3 29  1  0  0  0  0
  4  5  1  0  0  0  0
  4 20  1  0  0  0  0
  4 49  1  0  0  0  0
  5  6  1  0  0  0  0
  5 30  1  0  0  0  0
  5 31  1  0  0  0  0
  6  7  1  0  0  0  0
  6  8  1  0  0  0  0
  6 32  1  0  0  0  0
  7 33  1  0  0  0  0
  8  9  1  0  0  0  0
  8 34  1  0  0  0  0
  8 35  1  0  0  0  0
  9 19  1  0  0  0  0
  9 10  1  0  0  0  0
 10 11  1  0  0  0  0
 10 13  2  0  0  0  0
 11 12  1  0  0  0  0
 11 36  1  0  0  0  0
 11 37  1  0  0  0  0
 12 38  1  0  0  0  0
 13 14  1  0  0  0  0
 13 50  1  0  0  0  0
 14 19  2  0  0  0  0
 14 15  1  0  0  0  0
 15 16  2  0  0  0  0
 15 39  1  0  0  0  0
 16 17  1  0  0  0  0
 16 40  1  0  0  0  0
 17 18  2  0  0  0  0
 17 41  1  0  0  0  0
 18 19  1  0  0  0  0
 18 42  1  0  0  0  0
 20 21  1  0  0  0  0
 20 43  1  0  0  0  0
 20 44  1  0  0  0  0
 21 22  1  0  0  0  0
 21 23  1  0  0  0  0
 21 45  1  0  0  0  0
 22 46  1  0  0  0  0
 22 47  1  0  0  0  0
 22 48  1  0  0  0  0
M  CHG  1   4   1
M  CHG  1  13   1
M  END
> <s_m_source_file>
AV-unprocessed.smi

> <i_m_source_file_index>
1703

> <i_lp_mmshare_version>
43012

> <i_f3d_flags>
0

> <s_epik_input>
W0NIM11bQ0BASF0xW0NIMl1OKFtDSDJdW0NASF0oTzEpW0NIM10pW0NIMl1bQ0BIXShbT0hdKVtDSDJdbihjKG4yKVtDSDJdW09IXSljKGMyMylbY0hdW2NIXVtjSF1bY0hdMw==

> <s_epik_cmdline>
J2VwaWtfcHl0aG9uJywgJy1waCcsICc3LjAnLCAnLXRuJywgJzgnLCAnLW1hJywgJzIwMCcsICctbWV0YWxfYmluZGluZycsICctaW1hZScsICc8aW5maWxlLm1hZT4nLCAnLW9tYWUnLCAnPG91dGZpbGUubWFlPic=

> <r_epik_Ionization_Penalty>
2.22579

> <r_epik_Ionization_Penalty_Charging>
2.22492

> <r_epik_Ionization_Penalty_Neutral>
0.000870007

> <r_epik_State_Penalty>
2.3141

> <r_epik_Charging_Adjusted_Penalty>
4.53902

> <i_epik_Tot_Q>
2

> <i_epik_Tot_abs_Q>
2

> <r_epik_Metal_State_Penalty>
6.36517

> <b_epik_Metal_Only>
0

> <s_lp_Force_Field>
OPLS_2005

> <r_lp_Energy>
31.3011

> <b_lp_Chiralities_Consistent>
1

> <s_lp_Variant>
AV-unprocessed.smi:1703-24

> <Gold.Version>
5.8.1

> <Gold.Id.Protein>
6NUR|6NUR_protein|mol2

> <Gold.PLP.Fitness>
51.2029

> <Gold.PLP.PLP>
-36.3239

> <Gold.PLP.part.hbond>
-6.0000

> <Gold.PLP.part.metal>
0.0000

> <Gold.PLP.part.buried>
-6.5515

> <Gold.PLP.part.nonpolar>
-23.8550

> <Gold.PLP.part.repulsive>
0.0732

> <Gold.PLP.ligand.clash>
0.0000

> <Gold.PLP.ligand.torsion>
0.2087

> <Gold.PLP.Chemscore.Hbond>
5.0000

> <Gold.PLP.Chemscore.CHOScore>
0.0000

> <Gold.PLP.Chemscore.Metal>
0.0000

> <Gold.Chemscore.Hbonds>
donor molecule, donor type, donor heavy atom, donor atom, acceptor molecule, acceptor atom, score
      L1  H     4    49       P1 11000  0.99
      L1  H     7    33       P1 11000  0.91
      L1  H    12    38       P1 10175  1.00
      L1  H    13    50       P1  7948  1.82

> <Gold.PLP.Chemscore.Internal.Correction>
0.2964

> <Gold.Rescore>
     Score         DG    S(hbond)    S(metal)    S(lipo)     H(rot)  DE(clash)    DE(int)     intcor
     18.75     -19.85       3.48        0.00      89.90       3.04       0.93       0.17       ----

> <Gold.Chemscore.Fitness>
18.7501

> <Gold.Chemscore.DG>
-19.8490

> <Gold.Chemscore.ZeroCoef>
-5.4800

> <Gold.Chemscore.Hbond>
3.4813

> <Gold.Chemscore.Metal>
0.0000

> <Gold.Chemscore.Lipo>
89.8994

> <Gold.Chemscore.Internal_Hbond>
0.0000

> <Gold.Chemscore.DEClash>
0.9316

> <Gold.Chemscore.DEInternal>
0.1673

> <Gold.Chemscore.Rot>
3.0378

> <Gold.Chemscore.Internal.Correction>
   9.000000E+99

> <Gold.Chemscore.Hbonds>
donor molecule, donor type, donor heavy atom, donor atom, acceptor molecule, acceptor atom, score
      L1  H     4    49       P1 11000  0.46
      L1  H     7    33       P1 11000  0.74
      L1  H    12    38       P1 10175  0.99
      L1  H    13    50       P1  7948  0.86

> <Gold.Chemscore.Hbond.Weighted>
-11.6275

> <Gold.Chemscore.Metal.Weighted>
-0.0000

> <Gold.Chemscore.Lipo.Weighted>
-10.5182

> <Gold.Chemscore.Internal_Hbond.Weighted>
0.0000

> <Gold.Chemscore.DEClash.Weighted>
0.9316

> <Gold.Chemscore.DEInternal.Weighted>
0.1673

> <Gold.Chemscore.Rot.Weighted>
7.7767

> <Gold.Chemscore.Internal.Correction.Weighted>
   9.000000E+99

> <Gold.Protein.RotatedTorsions>
[ 6907 6896 6895 6894 ] final  -27.41 input  -60.11 | X-H torsion
[ 7974 7965 7964 7962 ] final   71.98 input  175.53 | X-H torsion
[ 8008 7997 7996 7995 ] final  121.53 input   59.86 | X-H torsion
[ 10167 10162 10161 10158 ] final -136.95 input  -65.29 | X-H torsion
[ 10718 10713 10712 10709 ] final   37.38 input   66.30 | X-H torsion
[ 10763 10752 10751 10750 ] final  143.67 input  -60.55 | X-H torsion
[ 11005 11000 10999 10996 ] final -144.17 input  -57.11 | X-H torsion

> <Gold.Protein.ActiveResidues>
 VAL166  LYS551  ARG553  GLY616  TRP617  ASP618  TYR619  PRO620  LYS621  CYS622 
 ASP623  PHE694  ASN695  SER759  ASP760  ASP761  ALA762  ILE779  LEU786  VAL792 
 PHE793  MET794  SER795  GLU796  ALA797  LYS798  CYS799  TRP800  GLU811  SER814 

> <Gold.Protein.RotatedAtoms>
  151.1473  135.0210  159.8652 H   0  0  0  0  0  0  0  0  0  0  0  0  # atno 6907 bound_to 6896
  152.5453  134.1429  159.8496 H   0  0  0  0  0  0  0  0  0  0  0  0  # atno 6908 bound_to 6896
  151.1511  133.4861  159.2628 H   0  0  0  0  0  0  0  0  0  0  0  0  # atno 6909 bound_to 6896
  145.7591  139.2793  143.1386 H   0  0  0  0  0  0  0  0  0  0  0  0  # atno 7974 bound_to 7965
  156.2690  140.2806  156.1323 H   0  0  0  0  0  0  0  0  0  0  0  0  # atno 8008 bound_to 7997
  155.1041  140.0390  157.2723 H   0  0  0  0  0  0  0  0  0  0  0  0  # atno 8009 bound_to 7997
  154.6792  140.2605  155.6931 H   0  0  0  0  0  0  0  0  0  0  0  0  # atno 8010 bound_to 7997
  139.8626  143.7057  152.2648 H   0  0  0  0  0  0  0  0  0  0  0  0  # atno 10167 bound_to 10162
  157.3462  130.7574  149.6946 H   0  0  0  0  0  0  0  0  0  0  0  0  # atno 10718 bound_to 10713
  153.9761  135.2946  155.3424 H   0  0  0  0  0  0  0  0  0  0  0  0  # atno 10763 bound_to 10752
  154.7295  135.5074  153.8944 H   0  0  0  0  0  0  0  0  0  0  0  0  # atno 10764 bound_to 10752
  153.0876  135.6698  154.0030 H   0  0  0  0  0  0  0  0  0  0  0  0  # atno 10765 bound_to 10752
  140.8052  134.2810  157.4963 H   0  0  0  0  0  0  0  0  0  0  0  0  # atno 11005 bound_to 11000
  146.0281  140.8284  142.9889 LP  0  0  0  0  0  0  0  0  0  0  0  0  # atno 17320 bound_to 7965
  144.6834  140.2729  143.7303 LP  0  0  0  0  0  0  0  0  0  0  0  0  # atno 17321 bound_to 7965
  139.7359  144.7571  151.0728 LP  0  0  0  0  0  0  0  0  0  0  0  0  # atno 17342 bound_to 10162
  140.7773  143.5031  150.9746 LP  0  0  0  0  0  0  0  0  0  0  0  0  # atno 17343 bound_to 10162
  155.9714  130.4153  150.4177 LP  0  0  0  0  0  0  0  0  0  0  0  0  # atno 17370 bound_to 10713
  157.2233  131.0487  151.2534 LP  0  0  0  0  0  0  0  0  0  0  0  0  # atno 17371 bound_to 10713
  139.8718  134.9452  156.3902 LP  0  0  0  0  0  0  0  0  0  0  0  0  # atno 17394 bound_to 11000
  140.9254  133.7615  155.9959 LP  0  0  0  0  0  0  0  0  0  0  0  0  # atno 17395 bound_to 11000

$$$$
