AV-unprocessed.smi:155|AV-procd|sdf|1269|dock8
  -GOLD-   2262018523D 1   1.00000     0.00000
 Structure written by MMmdl.
 63 66  0  0  0  0  0  0  0  0  2 V2000
  145.5224  134.7918  151.2286 C   0  0  0  0  0  0  0  0  0  0  0  0
  146.1871  133.5032  151.0668 N   0  0  0  0  0  0  0  0  0  0  0  0
  145.2147  132.4517  151.3332 C   0  0  0  0  0  0  0  0  0  0  0  0
  147.3144  133.3602  151.9871 C   0  0  0  0  0  0  0  0  0  0  0  0
  146.9478  133.6482  153.4640 C   0  0  0  0  0  0  0  0  0  0  0  0
  148.0694  133.5049  154.4310 N   0  3  2  0  0  0  0  0  0  0  0  0
  148.9966  132.3788  154.1298 C   0  0  0  0  0  0  0  0  0  0  0  0
  150.1531  132.2283  155.1409 C   0  0  0  0  0  0  0  0  0  0  0  0
  150.8962  133.5379  155.4721 C   0  0  0  0  0  0  0  0  0  0  0  0
  150.0131  134.5726  156.0160 N   0  0  0  0  0  0  0  0  0  0  0  0
  150.3047  135.8792  155.7861 C   0  0  0  0  0  0  0  0  0  0  0  0
  150.9255  136.2035  154.6217 N   0  0  0  0  0  0  0  0  0  0  0  0
  151.2419  137.4735  154.3529 C   0  0  0  0  0  0  0  0  0  0  0  0
  151.0254  138.5611  155.0938 N   0  0  0  0  0  0  0  0  0  0  0  0
  150.3880  138.2474  156.2574 C   0  0  0  0  0  0  0  0  0  0  0  0
  149.9928  136.9458  156.6802 C   0  0  0  0  0  0  0  0  0  0  0  0
  149.3509  137.0305  157.9117 N   0  0  0  0  0  0  0  0  0  0  0  0
  149.3842  138.3010  158.2078 C   0  0  0  0  0  0  0  0  0  0  0  0
  149.9903  139.1026  157.2694 N   0  0  0  0  0  0  0  0  0  0  0  0
  150.1670  140.5421  157.3459 C   0  0  0  0  0  0  0  0  0  0  0  0
  151.4930  140.9346  158.0265 C   0  0  1  0  0  0  0  0  0  0  0  0
  152.5607  140.2415  157.4085 O   0  0  0  0  0  0  0  0  0  0  0  0
  151.7638  142.4479  157.9435 C   0  0  2  0  0  0  0  0  0  0  0  0
  152.8400  142.9558  158.9068 C   0  0  0  0  0  0  0  0  0  0  0  0
  152.4507  144.4042  159.1636 C   0  0  0  0  0  0  0  0  0  0  0  0
  151.0425  144.5225  158.5768 C   0  0  0  0  0  0  0  0  0  0  0  0
  150.6247  143.1824  158.3641 O   0  0  0  0  0  0  0  0  0  0  0  0
  148.8055  134.2017  156.7571 C   0  0  0  0  0  0  0  0  0  0  0  0
  147.6747  133.6375  155.8604 C   0  0  0  0  0  0  0  0  0  0  0  0
  146.1877  135.6207  150.9911 H   0  0  0  0  0  0  0  0  0  0  0  0
  145.1585  134.9271  152.2484 H   0  0  0  0  0  0  0  0  0  0  0  0
  144.6684  134.8645  150.5542 H   0  0  0  0  0  0  0  0  0  0  0  0
  145.6625  131.4681  151.1876 H   0  0  0  0  0  0  0  0  0  0  0  0
  144.3675  132.5300  150.6509 H   0  0  0  0  0  0  0  0  0  0  0  0
  144.8367  132.5077  152.3553 H   0  0  0  0  0  0  0  0  0  0  0  0
  147.7052  132.3448  151.9022 H   0  0  0  0  0  0  0  0  0  0  0  0
  148.1306  134.0135  151.6788 H   0  0  0  0  0  0  0  0  0  0  0  0
  146.4765  134.6223  153.5896 H   0  0  0  0  0  0  0  0  0  0  0  0
  146.1859  132.9282  153.7650 H   0  0  0  0  0  0  0  0  0  0  0  0
  148.4495  131.4380  154.1017 H   0  0  0  0  0  0  0  0  0  0  0  0
  149.4065  132.5329  153.1310 H   0  0  0  0  0  0  0  0  0  0  0  0
  149.7814  131.7719  156.0587 H   0  0  0  0  0  0  0  0  0  0  0  0
  150.8700  131.5094  154.7432 H   0  0  0  0  0  0  0  0  0  0  0  0
  151.6898  133.3410  156.1934 H   0  0  0  0  0  0  0  0  0  0  0  0
  151.3783  133.9038  154.5642 H   0  0  0  0  0  0  0  0  0  0  0  0
  151.7407  137.6419  153.4095 H   0  0  0  0  0  0  0  0  0  0  0  0
  148.9662  138.6916  159.1244 H   0  0  0  0  0  0  0  0  0  0  0  0
  150.1148  140.9575  156.3388 H   0  0  0  0  0  0  0  0  0  0  0  0
  149.3223  140.9573  157.8968 H   0  0  0  0  0  0  0  0  0  0  0  0
  151.4622  140.6321  159.0742 H   0  0  0  0  0  0  0  0  0  0  0  0
  152.2833  139.3544  157.2369 H   0  0  0  0  0  0  0  0  0  0  0  0
  152.0116  142.7383  156.9205 H   0  0  0  0  0  0  0  0  0  0  0  0
  152.8046  142.3988  159.8439 H   0  0  0  0  0  0  0  0  0  0  0  0
  153.8453  142.8554  158.4968 H   0  0  0  0  0  0  0  0  0  0  0  0
  152.4562  144.6187  160.2326 H   0  0  0  0  0  0  0  0  0  0  0  0
  153.1344  145.1008  158.6775 H   0  0  0  0  0  0  0  0  0  0  0  0
  150.3548  145.0524  159.2362 H   0  0  0  0  0  0  0  0  0  0  0  0
  151.0681  145.0456  157.6198 H   0  0  0  0  0  0  0  0  0  0  0  0
  149.0871  133.4497  157.4947 H   0  0  0  0  0  0  0  0  0  0  0  0
  148.4396  135.0428  157.3467 H   0  0  0  0  0  0  0  0  0  0  0  0
  146.8256  134.3182  155.9313 H   0  0  0  0  0  0  0  0  0  0  0  0
  147.3251  132.6783  156.2442 H   0  0  0  0  0  0  0  0  0  0  0  0
  148.6289  134.3296  154.2660 H   0  0  0  0  0  0  0  0  0  0  0  0
  1  2  1  0  0  0  0
  1 30  1  0  0  0  0
  1 31  1  0  0  0  0
  1 32  1  0  0  0  0
  2  3  1  0  0  0  0
  2  4  1  0  0  0  0
  3 33  1  0  0  0  0
  3 34  1  0  0  0  0
  3 35  1  0  0  0  0
  4  5  1  0  0  0  0
  4 36  1  0  0  0  0
  4 37  1  0  0  0  0
  5  6  1  0  0  0  0
  5 38  1  0  0  0  0
  5 39  1  0  0  0  0
  6 29  1  0  0  0  0
  6  7  1  0  0  0  0
  6 63  1  0  0  0  0
  7  8  1  0  0  0  0
  7 40  1  0  0  0  0
  7 41  1  0  0  0  0
  8  9  1  0  0  0  0
  8 42  1  0  0  0  0
  8 43  1  0  0  0  0
  9 10  1  0  0  0  0
  9 44  1  0  0  0  0
  9 45  1  0  0  0  0
 10 11  1  0  0  0  0
 10 28  1  0  0  0  0
 11 16  1  0  0  0  0
 11 12  2  0  0  0  0
 12 13  1  0  0  0  0
 13 14  2  0  0  0  0
 13 46  1  0  0  0  0
 14 15  1  0  0  0  0
 15 19  1  0  0  0  0
 15 16  2  0  0  0  0
 16 17  1  0  0  0  0
 17 18  2  0  0  0  0
 18 19  1  0  0  0  0
 18 47  1  0  0  0  0
 19 20  1  0  0  0  0
 20 21  1  0  0  0  0
 20 48  1  0  0  0  0
 20 49  1  0  0  0  0
 21 22  1  0  0  0  0
 21 23  1  0  0  0  0
 21 50  1  0  0  0  0
 22 51  1  0  0  0  0
 23 27  1  0  0  0  0
 23 24  1  0  0  0  0
 23 52  1  0  0  0  0
 24 25  1  0  0  0  0
 24 53  1  0  0  0  0
 24 54  1  0  0  0  0
 25 26  1  0  0  0  0
 25 55  1  0  0  0  0
 25 56  1  0  0  0  0
 26 27  1  0  0  0  0
 26 57  1  0  0  0  0
 26 58  1  0  0  0  0
 28 29  1  0  0  0  0
 28 59  1  0  0  0  0
 28 60  1  0  0  0  0
 29 61  1  0  0  0  0
 29 62  1  0  0  0  0
M  CHG  1   6   1
M  END
> <s_m_source_file>
AV-unprocessed.smi

> <i_m_source_file_index>
155

> <i_lp_mmshare_version>
43012

> <i_f3d_flags>
0

> <s_epik_input>
W0NIM11OKFtDSDNdKVtDSDJdW0NIMl1OMVtDSDJdW0NIMl1bQ0gyXU4oW0NIMl1bQ0gyXTEpYyhuW2NIXW4yKWMoYzIzKW5bY0hdbjNbQ0gyXVtDQEhdKFtPSF0pW0NAQEhdNFtDSDJdW0NIMl1bQ0gyXU80

> <s_epik_cmdline>
J2VwaWtfcHl0aG9uJywgJy1waCcsICc3LjAnLCAnLXRuJywgJzgnLCAnLW1hJywgJzIwMCcsICctbWV0YWxfYmluZGluZycsICctaW1hZScsICc8aW5maWxlLm1hZT4nLCAnLW9tYWUnLCAnPG91dGZpbGUubWFlPic=

> <r_epik_Ionization_Penalty>
0.0619615

> <r_epik_Ionization_Penalty_Charging>
0.0161638

> <r_epik_Ionization_Penalty_Neutral>
0.0457976

> <r_epik_State_Penalty>
0.403408

> <r_epik_Charging_Adjusted_Penalty>
0.419572

> <i_epik_Tot_Q>
1

> <i_epik_Tot_abs_Q>
1

> <r_epik_Metal_State_Penalty>
0.404222

> <b_epik_Metal_Only>
0

> <s_lp_Force_Field>
OPLS_2005

> <r_lp_Energy>
55.2712

> <b_lp_Chiralities_Consistent>
1

> <s_lp_Variant>
AV-unprocessed.smi:155-3

> <Gold.Version>
5.8.1

> <Gold.Id.Protein>
6NUR|6NUR_protein|mol2

> <Gold.PLP.Fitness>
45.4898

> <Gold.PLP.PLP>
-41.4595

> <Gold.PLP.part.hbond>
-1.9409

> <Gold.PLP.part.metal>
0.0000

> <Gold.PLP.part.buried>
-7.4656

> <Gold.PLP.part.nonpolar>
-32.0036

> <Gold.PLP.part.repulsive>
0.5890

> <Gold.PLP.ligand.clash>
0.0000

> <Gold.PLP.ligand.torsion>
1.1566

> <Gold.PLP.Chemscore.Hbond>
1.4624

> <Gold.PLP.Chemscore.CHOScore>
0.5860

> <Gold.PLP.Chemscore.Metal>
0.0000

> <Gold.Chemscore.Hbonds>
donor molecule, donor type, donor heavy atom, donor atom, acceptor molecule, acceptor atom, score
      P1  H  7997  8010       L1    22  0.88
      P1  H 10752 10764       L1    12  0.54
      L1  C    13    46       P1  7949  0.62

> <Gold.PLP.Chemscore.Internal.Correction>
0.1984

> <Gold.Rescore>
     Score         DG    S(hbond)    S(metal)    S(lipo)     H(rot)  DE(clash)    DE(int)     intcor
     11.56     -12.80       0.78        0.00      98.04       2.63       0.15       1.10       ----

> <Gold.Chemscore.Fitness>
11.5551

> <Gold.Chemscore.DG>
-12.8010

> <Gold.Chemscore.ZeroCoef>
-5.4800

> <Gold.Chemscore.Hbond>
0.7751

> <Gold.Chemscore.Metal>
0.0000

> <Gold.Chemscore.Lipo>
98.0448

> <Gold.Chemscore.Internal_Hbond>
0.0000

> <Gold.Chemscore.DEClash>
0.1485

> <Gold.Chemscore.DEInternal>
1.0974

> <Gold.Chemscore.Rot>
2.6324

> <Gold.Chemscore.Internal.Correction>
   9.000000E+99

> <Gold.Chemscore.Hbonds>
donor molecule, donor type, donor heavy atom, donor atom, acceptor molecule, acceptor atom, score
      P1  H  7997  8010       L1    22  0.19
      P1  H 10752 10764       L1    12  0.04

> <Gold.Chemscore.Hbond.Weighted>
-2.5887

> <Gold.Chemscore.Metal.Weighted>
-0.0000

> <Gold.Chemscore.Lipo.Weighted>
-11.4712

> <Gold.Chemscore.Internal_Hbond.Weighted>
0.0000

> <Gold.Chemscore.DEClash.Weighted>
0.1485

> <Gold.Chemscore.DEInternal.Weighted>
1.0974

> <Gold.Chemscore.Rot.Weighted>
6.7389

> <Gold.Chemscore.Internal.Correction.Weighted>
   9.000000E+99

> <Gold.Protein.RotatedTorsions>
[ 6907 6896 6895 6894 ] final  141.64 input  -60.11 | X-H torsion
[ 7974 7965 7964 7962 ] final  -92.69 input  175.53 | X-H torsion
[ 8008 7997 7996 7995 ] final   44.75 input   59.86 | X-H torsion
[ 10167 10162 10161 10158 ] final  -29.62 input  -65.29 | X-H torsion
[ 10718 10713 10712 10709 ] final  155.86 input   66.30 | X-H torsion
[ 10763 10752 10751 10750 ] final  -58.46 input  -60.55 | X-H torsion
[ 11005 11000 10999 10996 ] final   39.04 input  -57.11 | X-H torsion

> <Gold.Protein.ActiveResidues>
 VAL166  LYS551  ARG553  GLY616  TRP617  ASP618  TYR619  PRO620  LYS621  CYS622 
 ASP623  PHE694  ASN695  SER759  ASP760  ASP761  ALA762  ILE779  LEU786  VAL792 
 PHE793  MET794  SER795  GLU796  ALA797  LYS798  CYS799  TRP800  GLU811  SER814 

> <Gold.Protein.RotatedAtoms>
  152.2285  133.5039  159.5202 H   0  0  0  0  0  0  0  0  0  0  0  0  # atno 6907 bound_to 6896
  150.7031  134.1248  159.4057 H   0  0  0  0  0  0  0  0  0  0  0  0  # atno 6908 bound_to 6896
  151.9169  135.0315  160.0569 H   0  0  0  0  0  0  0  0  0  0  0  0  # atno 6909 bound_to 6896
  145.3965  140.9533  143.2311 H   0  0  0  0  0  0  0  0  0  0  0  0  # atno 7974 bound_to 7965
  155.3246  140.3399  155.4240 H   0  0  0  0  0  0  0  0  0  0  0  0  # atno 8008 bound_to 7997
  156.1892  140.1691  156.8162 H   0  0  0  0  0  0  0  0  0  0  0  0  # atno 8009 bound_to 7997
  154.5422  140.0722  156.8512 H   0  0  0  0  0  0  0  0  0  0  0  0  # atno 8010 bound_to 7997
  140.7258  143.3914  151.1423 H   0  0  0  0  0  0  0  0  0  0  0  0  # atno 10167 bound_to 10162
  157.2127  131.0701  151.1959 H   0  0  0  0  0  0  0  0  0  0  0  0  # atno 10718 bound_to 10713
  154.2385  135.6348  153.5199 H   0  0  0  0  0  0  0  0  0  0  0  0  # atno 10763 bound_to 10752
  152.9935  135.5536  154.5936 H   0  0  0  0  0  0  0  0  0  0  0  0  # atno 10764 bound_to 10752
  154.5436  135.2896  155.1047 H   0  0  0  0  0  0  0  0  0  0  0  0  # atno 10765 bound_to 10752
  140.2067  134.3804  155.8069 H   0  0  0  0  0  0  0  0  0  0  0  0  # atno 11005 bound_to 11000
  144.8404  139.5482  143.6903 LP  0  0  0  0  0  0  0  0  0  0  0  0  # atno 17320 bound_to 7965
  146.2773  139.6784  142.9254 LP  0  0  0  0  0  0  0  0  0  0  0  0  # atno 17321 bound_to 7965
  139.7520  143.8765  152.3079 LP  0  0  0  0  0  0  0  0  0  0  0  0  # atno 17342 bound_to 10162
  139.8621  144.7112  150.9087 LP  0  0  0  0  0  0  0  0  0  0  0  0  # atno 17343 bound_to 10162
  157.3656  130.7154  149.6530 LP  0  0  0  0  0  0  0  0  0  0  0  0  # atno 17370 bound_to 10713
  155.9689  130.4213  150.4464 LP  0  0  0  0  0  0  0  0  0  0  0  0  # atno 17371 bound_to 10713
  141.2227  133.7122  156.8350 LP  0  0  0  0  0  0  0  0  0  0  0  0  # atno 17394 bound_to 11000
  140.1995  134.8907  157.3152 LP  0  0  0  0  0  0  0  0  0  0  0  0  # atno 17395 bound_to 11000

$$$$
