AV-unprocessed.smi:2890|AV-procd|sdf|11116|dock9
  -GOLD-   2272015583D 1   1.00000     0.00000
 Structure written by MMmdl.
 38 39  0  0  0  0  0  0  0  0  1 V2000
  152.4103  138.4784  154.5266 C   0  0  0  0  0  0  0  0  0  0  0  0
  151.2255  139.3884  154.8679 C   0  0  0  0  0  0  0  0  0  0  0  0
  151.4867  140.2163  156.0964 C   0  0  0  0  0  0  0  0  0  0  0  0
  152.5534  139.9622  156.8360 N   0  0  0  0  0  0  0  0  0  0  0  0
  152.5187  140.8816  157.8883 O   0  0  0  0  0  0  0  0  0  0  0  0
  151.4172  141.6611  157.7419 C   0  0  0  0  0  0  0  0  0  0  0  0
  151.2019  142.7144  158.7780 C   0  0  0  0  0  0  0  0  0  0  0  0
  152.3502  142.8074  159.7876 C   0  0  0  0  0  0  0  0  0  0  0  0
  150.7137  141.2887  156.6289 C   0  0  0  0  0  0  0  0  0  0  0  0
  149.4301  141.8688  156.0908 C   0  0  0  0  0  0  0  0  0  0  0  0
  148.3406  141.7981  157.1605 C   0  0  0  0  0  0  0  0  0  0  0  0
  148.4645  141.0323  158.1155 O   0  0  0  0  0  0  0  0  0  0  0  0
  147.2808  142.6041  156.9901 N   0  0  0  0  0  0  0  0  0  0  0  0
  146.1540  142.7227  157.9100 C   0  0  0  0  0  0  0  0  0  0  0  0
  146.5500  142.7263  159.3320 C   0  0  0  0  0  0  0  0  0  0  0  0
  146.8597  142.7295  160.4466 N   0  0  0  0  0  0  0  0  0  0  0  0
  145.2120  143.8774  157.5327 C   0  0  0  0  0  0  0  0  0  0  0  0
  144.0410  142.9489  157.8813 C   0  0  0  0  0  0  0  0  0  0  0  0
  144.9843  141.7767  157.5822 C   0  0  0  0  0  0  0  0  0  0  0  0
  152.2010  137.8858  153.6360 H   0  0  0  0  0  0  0  0  0  0  0  0
  152.6232  137.7884  155.3438 H   0  0  0  0  0  0  0  0  0  0  0  0
  153.3123  139.0601  154.3348 H   0  0  0  0  0  0  0  0  0  0  0  0
  151.0133  140.0383  154.0181 H   0  0  0  0  0  0  0  0  0  0  0  0
  150.3315  138.7806  155.0076 H   0  0  0  0  0  0  0  0  0  0  0  0
  151.0730  143.6792  158.2870 H   0  0  0  0  0  0  0  0  0  0  0  0
  150.2700  142.5205  159.3093 H   0  0  0  0  0  0  0  0  0  0  0  0
  152.1555  143.5841  160.5274 H   0  0  0  0  0  0  0  0  0  0  0  0
  153.2921  143.0471  159.2931 H   0  0  0  0  0  0  0  0  0  0  0  0
  152.4811  141.8650  160.3202 H   0  0  0  0  0  0  0  0  0  0  0  0
  149.5557  142.9062  155.7793 H   0  0  0  0  0  0  0  0  0  0  0  0
  149.0957  141.3284  155.2043 H   0  0  0  0  0  0  0  0  0  0  0  0
  147.2671  143.2001  156.1754 H   0  0  0  0  0  0  0  0  0  0  0  0
  145.2937  144.7632  158.1636 H   0  0  0  0  0  0  0  0  0  0  0  0
  145.2390  144.1359  156.4722 H   0  0  0  0  0  0  0  0  0  0  0  0
  143.7470  143.0050  158.9309 H   0  0  0  0  0  0  0  0  0  0  0  0
  143.1815  143.0248  157.2145 H   0  0  0  0  0  0  0  0  0  0  0  0
  144.9506  141.4678  156.5357 H   0  0  0  0  0  0  0  0  0  0  0  0
  144.8808  140.9251  158.2556 H   0  0  0  0  0  0  0  0  0  0  0  0
  1  2  1  0  0  0  0
  1 20  1  0  0  0  0
  1 21  1  0  0  0  0
  1 22  1  0  0  0  0
  2  3  1  0  0  0  0
  2 23  1  0  0  0  0
  2 24  1  0  0  0  0
  3  9  1  0  0  0  0
  3  4  2  0  0  0  0
  4  5  1  0  0  0  0
  5  6  1  0  0  0  0
  6  7  1  0  0  0  0
  6  9  2  0  0  0  0
  7  8  1  0  0  0  0
  7 25  1  0  0  0  0
  7 26  1  0  0  0  0
  8 27  1  0  0  0  0
  8 28  1  0  0  0  0
  8 29  1  0  0  0  0
  9 10  1  0  0  0  0
 10 11  1  0  0  0  0
 10 30  1  0  0  0  0
 10 31  1  0  0  0  0
 11 12  2  0  0  0  0
 11 13  1  0  0  0  0
 13 14  1  0  0  0  0
 13 32  1  0  0  0  0
 14 19  1  0  0  0  0
 14 15  1  0  0  0  0
 14 17  1  0  0  0  0
 15 16  3  0  0  0  0
 17 18  1  0  0  0  0
 17 33  1  0  0  0  0
 17 34  1  0  0  0  0
 18 19  1  0  0  0  0
 18 35  1  0  0  0  0
 18 36  1  0  0  0  0
 19 37  1  0  0  0  0
 19 38  1  0  0  0  0
M  END
> <s_m_source_file>
AV-unprocessed.smi

> <i_m_source_file_index>
2890

> <i_lp_mmshare_version>
43012

> <i_f3d_flags>
0

> <s_epik_input>
W0NIM11bQ0gyXWMxbm9jKFtDSDJdW0NIM10pYzFbQ0gyXUMoPU8pW05IXUMyKEMjTilbQ0gyXVtDSDJdW0NIMl0y

> <s_epik_cmdline>
J2VwaWtfcHl0aG9uJywgJy1waCcsICc3LjAnLCAnLXRuJywgJzgnLCAnLW1hJywgJzIwMCcsICctbWV0YWxfYmluZGluZycsICctaW1hZScsICc8aW5maWxlLm1hZT4nLCAnLW9tYWUnLCAnPG91dGZpbGUubWFlPic=

> <r_lp_tautomer_probability>
1

> <r_epik_Ionization_Penalty>
5.40968e-07

> <r_epik_Ionization_Penalty_Charging>
0

> <r_epik_Ionization_Penalty_Neutral>
5.40968e-07

> <r_epik_State_Penalty>
-0

> <r_epik_Charging_Adjusted_Penalty>
0

> <i_epik_Tot_Q>
0

> <i_epik_Tot_abs_Q>
0

> <r_epik_Metal_State_Penalty>
-0

> <b_epik_Metal_Only>
0

> <s_lp_Force_Field>
OPLS_2005

> <r_lp_Energy>
4.95517

> <b_lp_Chiralities_Consistent>
1

> <s_lp_Variant>
AV-unprocessed.smi:2890-1

> <Gold.Version>
5.8.1

> <Gold.Id.Protein>
6NUR|6NUR_protein|mol2

> <Gold.PLP.Fitness>
35.7032

> <Gold.PLP.PLP>
-28.0998

> <Gold.PLP.part.hbond>
-4.9792

> <Gold.PLP.part.metal>
0.0000

> <Gold.PLP.part.buried>
0.9397

> <Gold.PLP.part.nonpolar>
-23.3538

> <Gold.PLP.part.repulsive>
0.0597

> <Gold.PLP.ligand.clash>
0.0000

> <Gold.PLP.ligand.torsion>
0.7212

> <Gold.PLP.Chemscore.Hbond>
2.9314

> <Gold.PLP.Chemscore.CHOScore>
0.0000

> <Gold.PLP.Chemscore.Metal>
0.0000

> <Gold.Chemscore.Hbonds>
donor molecule, donor type, donor heavy atom, donor atom, acceptor molecule, acceptor atom, score
      L1  H    13    32       P1  8028  0.10
      P1  H  6933  6944       L1    16  0.85
      P1  H  6934  6946       L1    16  0.87
      P1  H  7997  8009       L1     4  0.90

> <Gold.PLP.Chemscore.Internal.Correction>
0.2515

> <Gold.Rescore>
     Score         DG    S(hbond)    S(metal)    S(lipo)     H(rot)  DE(clash)    DE(int)     intcor
     11.41     -14.73       1.72        0.00      67.64       1.72       0.49       2.83       ----

> <Gold.Chemscore.Fitness>
11.4145

> <Gold.Chemscore.DG>
-14.7321

> <Gold.Chemscore.ZeroCoef>
-5.4800

> <Gold.Chemscore.Hbond>
1.7190

> <Gold.Chemscore.Metal>
0.0000

> <Gold.Chemscore.Lipo>
67.6448

> <Gold.Chemscore.Internal_Hbond>
0.0000

> <Gold.Chemscore.DEClash>
0.4856

> <Gold.Chemscore.DEInternal>
2.8320

> <Gold.Chemscore.Rot>
1.7202

> <Gold.Chemscore.Internal.Correction>
   9.000000E+99

> <Gold.Chemscore.Hbonds>
donor molecule, donor type, donor heavy atom, donor atom, acceptor molecule, acceptor atom, score
      P1  H  6933  6944       L1    16  0.82
      P1  H  6934  6946       L1    16  0.19
      P1  H  7997  8009       L1     4  0.18

> <Gold.Chemscore.Hbond.Weighted>
-5.7414

> <Gold.Chemscore.Metal.Weighted>
-0.0000

> <Gold.Chemscore.Lipo.Weighted>
-7.9144

> <Gold.Chemscore.Internal_Hbond.Weighted>
0.0000

> <Gold.Chemscore.DEClash.Weighted>
0.4856

> <Gold.Chemscore.DEInternal.Weighted>
2.8320

> <Gold.Chemscore.Rot.Weighted>
4.4037

> <Gold.Chemscore.Internal.Correction.Weighted>
   9.000000E+99

> <Gold.Protein.RotatedTorsions>
[ 6907 6896 6895 6894 ] final   18.38 input  -60.11 | X-H torsion
[ 7974 7965 7964 7962 ] final   37.52 input  175.53 | X-H torsion
[ 8008 7997 7996 7995 ] final -164.36 input   59.86 | X-H torsion
[ 10167 10162 10161 10158 ] final   15.27 input  -65.29 | X-H torsion
[ 10718 10713 10712 10709 ] final -162.11 input   66.30 | X-H torsion
[ 10763 10752 10751 10750 ] final   50.24 input  -60.55 | X-H torsion
[ 11005 11000 10999 10996 ] final   74.42 input  -57.11 | X-H torsion

> <Gold.Protein.ActiveResidues>
 VAL166  LYS551  ARG553  GLY616  TRP617  ASP618  TYR619  PRO620  LYS621  CYS622 
 ASP623  PHE694  ASN695  SER759  ASP760  ASP761  ALA762  ILE779  LEU786  VAL792 
 PHE793  MET794  SER795  GLU796  ALA797  LYS798  CYS799  TRP800  GLU811  SER814 

> <Gold.Protein.RotatedAtoms>
  151.8644  135.0512  160.0472 H   0  0  0  0  0  0  0  0  0  0  0  0  # atno 6907 bound_to 6896
  152.2637  133.5316  159.5406 H   0  0  0  0  0  0  0  0  0  0  0  0  # atno 6908 bound_to 6896
  150.7126  134.0710  159.3907 H   0  0  0  0  0  0  0  0  0  0  0  0  # atno 6909 bound_to 6896
  146.1131  139.5884  142.9339 H   0  0  0  0  0  0  0  0  0  0  0  0  # atno 7974 bound_to 7965
  155.8345  140.0939  157.1772 H   0  0  0  0  0  0  0  0  0  0  0  0  # atno 8008 bound_to 7997
  154.3980  140.1413  156.3715 H   0  0  0  0  0  0  0  0  0  0  0  0  # atno 8009 bound_to 7997
  155.8131  140.3449  155.5472 H   0  0  0  0  0  0  0  0  0  0  0  0  # atno 8010 bound_to 7997
  140.5879  143.8854  150.6846 H   0  0  0  0  0  0  0  0  0  0  0  0  # atno 10167 bound_to 10162
  156.6058  130.8829  151.2924 H   0  0  0  0  0  0  0  0  0  0  0  0  # atno 10718 bound_to 10713
  152.9785  135.5885  154.4219 H   0  0  0  0  0  0  0  0  0  0  0  0  # atno 10763 bound_to 10752
  154.3843  135.2767  155.2195 H   0  0  0  0  0  0  0  0  0  0  0  0  # atno 10764 bound_to 10752
  154.4095  135.6085  153.5999 H   0  0  0  0  0  0  0  0  0  0  0  0  # atno 10765 bound_to 10752
  139.9392  134.7431  156.1146 H   0  0  0  0  0  0  0  0  0  0  0  0  # atno 11005 bound_to 11000
  145.5622  141.0403  143.2220 LP  0  0  0  0  0  0  0  0  0  0  0  0  # atno 17320 bound_to 7965
  144.7529  139.7147  143.7266 LP  0  0  0  0  0  0  0  0  0  0  0  0  # atno 17321 bound_to 7965
  140.2369  143.3693  152.1519 LP  0  0  0  0  0  0  0  0  0  0  0  0  # atno 17342 bound_to 10162
  139.5209  144.7039  151.5414 LP  0  0  0  0  0  0  0  0  0  0  0  0  # atno 17343 bound_to 10162
  157.7267  130.9633  150.1669 LP  0  0  0  0  0  0  0  0  0  0  0  0  # atno 17370 bound_to 10713
  156.2431  130.3693  149.8315 LP  0  0  0  0  0  0  0  0  0  0  0  0  # atno 17371 bound_to 10713
  141.1019  133.6674  156.2774 LP  0  0  0  0  0  0  0  0  0  0  0  0  # atno 17394 bound_to 11000
  140.5996  134.5568  157.5515 LP  0  0  0  0  0  0  0  0  0  0  0  0  # atno 17395 bound_to 11000

$$$$
