AV-unprocessed.smi:189|AV-procd|sdf|1480|dock4
  -GOLD-   2262019303D 1   1.00000     0.00000
 Structure written by MMmdl.
 53 57  0  0  0  0  0  0  0  0  1 V2000
  154.1322  139.5107  159.1062 C   0  0  0  0  0  0  0  0  0  0  0  0
  152.8710  140.2603  159.5840 C   0  0  1  0  0  0  0  0  0  0  0  0
  153.2540  141.5513  160.3486 C   0  0  0  0  0  0  0  0  0  0  0  0
  152.2880  142.5955  159.7970 C   0  0  1  0  0  0  0  0  0  0  0  0
  152.6908  144.0740  159.8486 C   0  0  0  0  0  0  0  0  0  0  0  0
  151.5957  144.9174  159.1621 C   0  0  0  0  0  0  0  0  0  0  0  0
  151.2692  144.4124  157.7379 C   0  0  0  0  0  0  0  0  0  0  0  0
  150.9584  142.9009  157.7025 C   0  0  0  0  0  0  0  0  0  0  0  0
  152.1225  142.1342  158.3568 C   0  0  2  0  0  0  0  0  0  0  0  0
  151.9765  140.6940  158.5004 N   0  0  0  0  0  0  0  0  0  0  0  0
  151.7801  139.8747  157.4370 C   0  0  0  0  0  0  0  0  0  0  0  0
  152.6490  139.8963  156.3926 N   0  0  0  0  0  0  0  0  0  0  0  0
  152.4731  139.0750  155.3534 C   0  0  0  0  0  0  0  0  0  0  0  0
  151.5141  138.1671  155.1603 N   0  0  0  0  0  0  0  0  0  0  0  0
  150.6373  138.1434  156.2045 C   0  0  0  0  0  0  0  0  0  0  0  0
  150.6968  138.9554  157.3719 C   0  0  0  0  0  0  0  0  0  0  0  0
  149.6358  138.6512  158.2161 N   0  0  0  0  0  0  0  0  0  0  0  0
  148.9891  137.7090  157.5866 C   0  0  0  0  0  0  0  0  0  0  0  0
  149.5172  137.3465  156.3678 N   0  0  0  0  0  0  0  0  0  0  0  0
  148.9984  136.3290  155.4664 C   0  0  0  0  0  0  0  0  0  0  0  0
  150.0253  135.2239  155.1267 C   0  0  1  0  0  0  0  0  0  0  0  0
  151.0563  135.7799  154.3281 O   0  0  0  0  0  0  0  0  0  0  0  0
  150.6602  134.5627  156.3467 C   0  0  0  0  0  0  0  0  0  0  0  0
  150.9154  133.1412  155.8662 C   0  0  0  0  0  0  0  0  0  0  0  0
  149.7535  132.8630  155.1040 O   0  0  0  0  0  0  0  0  0  0  0  0
  149.4093  134.0317  154.3667 C   0  0  0  0  0  0  0  0  0  0  0  0
  154.7907  139.2897  159.9465 H   0  0  0  0  0  0  0  0  0  0  0  0
  154.6993  140.1039  158.3876 H   0  0  0  0  0  0  0  0  0  0  0  0
  153.8877  138.5593  158.6344 H   0  0  0  0  0  0  0  0  0  0  0  0
  152.2947  139.6160  160.2486 H   0  0  0  0  0  0  0  0  0  0  0  0
  153.1730  141.4371  161.4300 H   0  0  0  0  0  0  0  0  0  0  0  0
  154.2799  141.8477  160.1227 H   0  0  0  0  0  0  0  0  0  0  0  0
  151.3376  142.4758  160.3217 H   0  0  0  0  0  0  0  0  0  0  0  0
  152.8238  144.3960  160.8816 H   0  0  0  0  0  0  0  0  0  0  0  0
  153.6467  144.2219  159.3446 H   0  0  0  0  0  0  0  0  0  0  0  0
  150.6886  144.8862  159.7671 H   0  0  0  0  0  0  0  0  0  0  0  0
  151.9011  145.9634  159.1247 H   0  0  0  0  0  0  0  0  0  0  0  0
  150.4276  144.9729  157.3300 H   0  0  0  0  0  0  0  0  0  0  0  0
  152.1181  144.6170  157.0841 H   0  0  0  0  0  0  0  0  0  0  0  0
  150.0276  142.6984  158.2338 H   0  0  0  0  0  0  0  0  0  0  0  0
  150.8045  142.5854  156.6712 H   0  0  0  0  0  0  0  0  0  0  0  0
  153.0411  142.3278  157.7991 H   0  0  0  0  0  0  0  0  0  0  0  0
  153.2069  139.1554  154.5651 H   0  0  0  0  0  0  0  0  0  0  0  0
  148.0992  137.2517  157.9945 H   0  0  0  0  0  0  0  0  0  0  0  0
  148.1085  135.8907  155.9199 H   0  0  0  0  0  0  0  0  0  0  0  0
  148.6627  136.8224  154.5531 H   0  0  0  0  0  0  0  0  0  0  0  0
  150.9145  135.5165  153.4316 H   0  0  0  0  0  0  0  0  0  0  0  0
  151.5586  135.0661  156.7066 H   0  0  0  0  0  0  0  0  0  0  0  0
  149.9473  134.5257  157.1708 H   0  0  0  0  0  0  0  0  0  0  0  0
  151.7983  133.0945  155.2270 H   0  0  0  0  0  0  0  0  0  0  0  0
  151.0405  132.4327  156.6849 H   0  0  0  0  0  0  0  0  0  0  0  0
  148.3232  134.0999  154.2967 H   0  0  0  0  0  0  0  0  0  0  0  0
  149.7963  133.9484  153.3495 H   0  0  0  0  0  0  0  0  0  0  0  0
  1  2  1  0  0  0  0
  1 27  1  0  0  0  0
  1 28  1  0  0  0  0
  1 29  1  0  0  0  0
  2 10  1  0  0  0  0
  2  3  1  0  0  0  0
  2 30  1  0  0  0  0
  3  4  1  0  0  0  0
  3 31  1  0  0  0  0
  3 32  1  0  0  0  0
  4  9  1  0  0  0  0
  4  5  1  0  0  0  0
  4 33  1  0  0  0  0
  5  6  1  0  0  0  0
  5 34  1  0  0  0  0
  5 35  1  0  0  0  0
  6  7  1  0  0  0  0
  6 36  1  0  0  0  0
  6 37  1  0  0  0  0
  7  8  1  0  0  0  0
  7 38  1  0  0  0  0
  7 39  1  0  0  0  0
  8  9  1  0  0  0  0
  8 40  1  0  0  0  0
  8 41  1  0  0  0  0
  9 10  1  0  0  0  0
  9 42  1  0  0  0  0
 10 11  1  0  0  0  0
 11 16  1  0  0  0  0
 11 12  2  0  0  0  0
 12 13  1  0  0  0  0
 13 14  2  0  0  0  0
 13 43  1  0  0  0  0
 14 15  1  0  0  0  0
 15 19  1  0  0  0  0
 15 16  2  0  0  0  0
 16 17  1  0  0  0  0
 17 18  2  0  0  0  0
 18 19  1  0  0  0  0
 18 44  1  0  0  0  0
 19 20  1  0  0  0  0
 20 21  1  0  0  0  0
 20 45  1  0  0  0  0
 20 46  1  0  0  0  0
 21 26  1  0  0  0  0
 21 22  1  0  0  0  0
 21 23  1  0  0  0  0
 22 47  1  0  0  0  0
 23 24  1  0  0  0  0
 23 48  1  0  0  0  0
 23 49  1  0  0  0  0
 24 25  1  0  0  0  0
 24 50  1  0  0  0  0
 24 51  1  0  0  0  0
 25 26  1  0  0  0  0
 26 52  1  0  0  0  0
 26 53  1  0  0  0  0
M  END
> <s_m_source_file>
AV-unprocessed.smi

> <i_m_source_file_index>
189

> <i_lp_mmshare_version>
43012

> <i_f3d_flags>
0

> <s_epik_input>
W0NIMl0xW0NIMl1bQ0gyXVtDSDJdW0NASF0oW0NASF0xMilOKFtDQEhdKFtDSDNdKVtDSDJdMiljKG5bY0hdbjMpYyhjMzQpbltjSF1uNFtDSDJdW0NAQF01KFtPSF0pW0NIMl1bQ0gyXU9bQ0gyXTU=

> <s_epik_cmdline>
J2VwaWtfcHl0aG9uJywgJy1waCcsICc3LjAnLCAnLXRuJywgJzgnLCAnLW1hJywgJzIwMCcsICctbWV0YWxfYmluZGluZycsICctaW1hZScsICc8aW5maWxlLm1hZT4nLCAnLW9tYWUnLCAnPG91dGZpbGUubWFlPic=

> <r_lp_tautomer_probability>
1

> <r_epik_Ionization_Penalty>
0.00594261

> <r_epik_Ionization_Penalty_Charging>
0

> <r_epik_Ionization_Penalty_Neutral>
0.00594261

> <r_epik_State_Penalty>
0.00429776

> <r_epik_Charging_Adjusted_Penalty>
0.00429776

> <i_epik_Tot_Q>
0

> <i_epik_Tot_abs_Q>
0

> <r_epik_Metal_State_Penalty>
-0

> <b_epik_Metal_Only>
0

> <s_lp_Force_Field>
OPLS_2005

> <r_lp_Energy>
58.915

> <b_lp_Chiralities_Consistent>
1

> <s_lp_Variant>
AV-unprocessed.smi:189-6

> <Gold.Version>
5.8.1

> <Gold.Id.Protein>
6NUR|6NUR_protein|mol2

> <Gold.PLP.Fitness>
51.1423

> <Gold.PLP.PLP>
-43.9773

> <Gold.PLP.part.hbond>
-3.5426

> <Gold.PLP.part.metal>
0.0000

> <Gold.PLP.part.buried>
-2.9159

> <Gold.PLP.part.nonpolar>
-35.5655

> <Gold.PLP.part.repulsive>
0.0829

> <Gold.PLP.ligand.clash>
0.0000

> <Gold.PLP.ligand.torsion>
0.4580

> <Gold.PLP.Chemscore.Hbond>
2.5664

> <Gold.PLP.Chemscore.CHOScore>
0.0000

> <Gold.PLP.Chemscore.Metal>
0.0000

> <Gold.Chemscore.Hbonds>
donor molecule, donor type, donor heavy atom, donor atom, acceptor molecule, acceptor atom, score
      L1  H    22    47       P1  7949  0.61
      P1  H  7997  8010       L1    12  1.00
      P1  H 10752 10763       L1    22  1.00

> <Gold.PLP.Chemscore.Internal.Correction>
0.3818

> <Gold.Rescore>
     Score         DG    S(hbond)    S(metal)    S(lipo)     H(rot)  DE(clash)    DE(int)     intcor
     17.07     -18.72       1.34        0.00     119.40       2.03       1.08       0.57       ----

> <Gold.Chemscore.Fitness>
17.0696

> <Gold.Chemscore.DG>
-18.7185

> <Gold.Chemscore.ZeroCoef>
-5.4800

> <Gold.Chemscore.Hbond>
1.3367

> <Gold.Chemscore.Metal>
0.0000

> <Gold.Chemscore.Lipo>
119.4016

> <Gold.Chemscore.Internal_Hbond>
0.0000

> <Gold.Chemscore.DEClash>
1.0792

> <Gold.Chemscore.DEInternal>
0.5696

> <Gold.Chemscore.Rot>
2.0297

> <Gold.Chemscore.Internal.Correction>
   9.000000E+99

> <Gold.Chemscore.Hbonds>
donor molecule, donor type, donor heavy atom, donor atom, acceptor molecule, acceptor atom, score
      L1  H    22    47       P1  7949  0.05
      P1  H  7997  8010       L1    12  0.58
      P1  H 10752 10763       L1    22  0.34

> <Gold.Chemscore.Hbond.Weighted>
-4.4645

> <Gold.Chemscore.Metal.Weighted>
-0.0000

> <Gold.Chemscore.Lipo.Weighted>
-13.9700

> <Gold.Chemscore.Internal_Hbond.Weighted>
0.0000

> <Gold.Chemscore.DEClash.Weighted>
1.0792

> <Gold.Chemscore.DEInternal.Weighted>
0.5696

> <Gold.Chemscore.Rot.Weighted>
5.1960

> <Gold.Chemscore.Internal.Correction.Weighted>
   9.000000E+99

> <Gold.Protein.RotatedTorsions>
[ 6907 6896 6895 6894 ] final   38.83 input  -60.11 | X-H torsion
[ 7974 7965 7964 7962 ] final -110.19 input  175.53 | X-H torsion
[ 8008 7997 7996 7995 ] final   60.84 input   59.86 | X-H torsion
[ 10167 10162 10161 10158 ] final   96.24 input  -65.29 | X-H torsion
[ 10718 10713 10712 10709 ] final  148.77 input   66.30 | X-H torsion
[ 10763 10752 10751 10750 ] final   54.95 input  -60.55 | X-H torsion
[ 11005 11000 10999 10996 ] final -151.58 input  -57.11 | X-H torsion

> <Gold.Protein.ActiveResidues>
 VAL166  LYS551  ARG553  GLY616  TRP617  ASP618  TYR619  PRO620  LYS621  CYS622 
 ASP623  PHE694  ASN695  SER759  ASP760  ASP761  ALA762  ILE779  LEU786  VAL792 
 PHE793  MET794  SER795  GLU796  ALA797  LYS798  CYS799  TRP800  GLU811  SER814 

> <Gold.Protein.RotatedAtoms>
  152.1616  134.8907  160.0540 H   0  0  0  0  0  0  0  0  0  0  0  0  # atno 6907 bound_to 6896
  151.9901  133.3783  159.4149 H   0  0  0  0  0  0  0  0  0  0  0  0  # atno 6908 bound_to 6896
  150.6888  134.3869  159.5103 H   0  0  0  0  0  0  0  0  0  0  0  0  # atno 6909 bound_to 6896
  145.1712  140.8926  143.3534 H   0  0  0  0  0  0  0  0  0  0  0  0  # atno 7974 bound_to 7965
  155.5887  140.3492  155.4560 H   0  0  0  0  0  0  0  0  0  0  0  0  # atno 8008 bound_to 7997
  156.0318  140.1276  157.0275 H   0  0  0  0  0  0  0  0  0  0  0  0  # atno 8009 bound_to 7997
  154.4355  140.1042  156.6095 H   0  0  0  0  0  0  0  0  0  0  0  0  # atno 8010 bound_to 7997
  139.7913  144.6851  150.9889 H   0  0  0  0  0  0  0  0  0  0  0  0  # atno 10167 bound_to 10162
  157.3045  131.0877  151.1364 H   0  0  0  0  0  0  0  0  0  0  0  0  # atno 10718 bound_to 10713
  152.9810  135.5727  154.4987 H   0  0  0  0  0  0  0  0  0  0  0  0  # atno 10763 bound_to 10752
  154.4510  135.2778  155.1783 H   0  0  0  0  0  0  0  0  0  0  0  0  # atno 10764 bound_to 10752
  154.3410  135.6229  153.5650 H   0  0  0  0  0  0  0  0  0  0  0  0  # atno 10765 bound_to 10752
  140.7280  134.3653  157.5172 H   0  0  0  0  0  0  0  0  0  0  0  0  # atno 11005 bound_to 11000
  145.0231  139.3407  143.6062 LP  0  0  0  0  0  0  0  0  0  0  0  0  # atno 17320 bound_to 7965
  146.3468  139.9539  142.8725 LP  0  0  0  0  0  0  0  0  0  0  0  0  # atno 17321 bound_to 7965
  140.7820  143.4378  151.0597 LP  0  0  0  0  0  0  0  0  0  0  0  0  # atno 17342 bound_to 10162
  139.8055  143.8024  152.3167 LP  0  0  0  0  0  0  0  0  0  0  0  0  # atno 17343 bound_to 10162
  157.2710  130.6704  149.6019 LP  0  0  0  0  0  0  0  0  0  0  0  0  # atno 17370 bound_to 10713
  155.9673  130.4479  150.5598 LP  0  0  0  0  0  0  0  0  0  0  0  0  # atno 17371 bound_to 10713
  139.8833  134.8999  156.2778 LP  0  0  0  0  0  0  0  0  0  0  0  0  # atno 17394 bound_to 11000
  140.9946  133.7188  156.0865 LP  0  0  0  0  0  0  0  0  0  0  0  0  # atno 17395 bound_to 11000

$$$$
