AV-unprocessed.smi:53|AV-procd|sdf|522|dock8
  -GOLD-   2262016393D 1   1.00000     0.00000
 Structure written by MMmdl.
 30 31  0  0  0  0  0  0  0  0  1 V2000
  154.3237  141.4137  159.9396 N   0  0  0  0  0  0  0  0  0  0  0  0
  153.2694  141.0544  159.1940 C   0  0  0  0  0  0  0  0  0  0  0  0
  152.1272  141.9321  159.0739 C   0  0  0  0  0  0  0  0  0  0  0  0
  151.1022  141.4998  158.3067 C   0  0  0  0  0  0  0  0  0  0  0  0
  151.1303  140.2712  157.6589 N   0  0  0  0  0  0  0  0  0  0  0  0
  149.9796  139.7849  156.7963 C   0  0  1  0  0  0  0  0  0  0  0  0
  148.9276  140.7054  156.8507 O   0  0  0  0  0  0  0  0  0  0  0  0
  148.8099  141.3946  155.6089 C   0  0  2  0  0  0  0  0  0  0  0  0
  147.3745  141.9140  155.4376 C   0  0  0  0  0  0  0  0  0  0  0  0
  147.2999  142.7679  154.3160 O   0  0  0  0  0  0  0  0  0  0  0  0
  149.1916  140.3013  154.6120 C   0  0  1  0  0  0  0  0  0  0  0  0
  149.5104  140.8044  153.3276 O   0  0  0  0  0  0  0  0  0  0  0  0
  150.3636  139.6149  155.3063 C   0  0  1  0  0  0  0  0  0  0  0  0
  151.6072  140.2116  154.9674 O   0  0  0  0  0  0  0  0  0  0  0  0
  152.2670  139.4379  157.7907 C   0  0  0  0  0  0  0  0  0  0  0  0
  152.3412  138.3516  157.2174 O   0  0  0  0  0  0  0  0  0  0  0  0
  153.2944  139.8907  158.5738 N   0  0  0  0  0  0  0  0  0  0  0  0
  149.6247  138.8631  157.2614 H   0  0  0  0  0  0  0  0  0  0  0  0
  149.5354  142.2087  155.5573 H   0  0  0  0  0  0  0  0  0  0  0  0
  148.3684  139.5912  154.5183 H   0  0  0  0  0  0  0  0  0  0  0  0
  150.4115  138.5540  155.0589 H   0  0  0  0  0  0  0  0  0  0  0  0
  155.1201  140.7984  160.0203 H   0  0  0  0  0  0  0  0  0  0  0  0
  154.3188  142.3022  160.4197 H   0  0  0  0  0  0  0  0  0  0  0  0
  152.0632  142.8944  159.5615 H   0  0  0  0  0  0  0  0  0  0  0  0
  150.2474  142.1517  158.2125 H   0  0  0  0  0  0  0  0  0  0  0  0
  146.6926  141.0818  155.2600 H   0  0  0  0  0  0  0  0  0  0  0  0
  147.0292  142.4310  156.3333 H   0  0  0  0  0  0  0  0  0  0  0  0
  147.6229  143.6204  154.5651 H   0  0  0  0  0  0  0  0  0  0  0  0
  149.3728  140.1168  152.6942 H   0  0  0  0  0  0  0  0  0  0  0  0
  152.2749  139.5432  154.9990 H   0  0  0  0  0  0  0  0  0  0  0  0
  1  2  1  0  0  0  0
  1 22  1  0  0  0  0
  1 23  1  0  0  0  0
  2 17  2  0  0  0  0
  2  3  1  0  0  0  0
  3  4  2  0  0  0  0
  3 24  1  0  0  0  0
  4  5  1  0  0  0  0
  4 25  1  0  0  0  0
  5  6  1  0  0  0  0
  5 15  1  0  0  0  0
  6 18  1  0  0  0  0
  6 13  1  0  0  0  0
  6  7  1  0  0  0  0
  7  8  1  0  0  0  0
  8 19  1  0  0  0  0
  8  9  1  0  0  0  0
  8 11  1  0  0  0  0
  9 10  1  0  0  0  0
  9 26  1  0  0  0  0
  9 27  1  0  0  0  0
 10 28  1  0  0  0  0
 11 20  1  0  0  0  0
 11 12  1  0  0  0  0
 11 13  1  0  0  0  0
 12 29  1  0  0  0  0
 13 21  1  0  0  0  0
 13 14  1  0  0  0  0
 14 30  1  0  0  0  0
 15 16  2  0  0  0  0
 15 17  1  0  0  0  0
M  END
> <s_m_source_file>
AV-unprocessed.smi

> <i_m_source_file_index>
53

> <i_lp_mmshare_version>
43012

> <i_f3d_flags>
0

> <s_epik_input>
W05IMl1jMVtjSF1bY0hdbihjKD1PKW4xKVtDQEBIXTJPW0NASF0oW0NIMl1bT0hdKVtDQEBIXShbT0hdKVtDQEBIXTJbT0hd

> <s_epik_cmdline>
J2VwaWtfcHl0aG9uJywgJy1waCcsICc3LjAnLCAnLXRuJywgJzgnLCAnLW1hJywgJzIwMCcsICctbWV0YWxfYmluZGluZycsICctaW1hZScsICc8aW5maWxlLm1hZT4nLCAnLW9tYWUnLCAnPG91dGZpbGUubWFlPic=

> <r_lp_tautomer_probability>
0.99996

> <r_epik_Ionization_Penalty>
0.00069087

> <r_epik_Ionization_Penalty_Charging>
2.61959e-08

> <r_epik_Ionization_Penalty_Neutral>
0.000690844

> <r_epik_State_Penalty>
1.15523e-05

> <r_epik_Charging_Adjusted_Penalty>
1.15785e-05

> <i_epik_Tot_Q>
0

> <i_epik_Tot_abs_Q>
0

> <r_epik_Metal_State_Penalty>
-0

> <b_epik_Metal_Only>
0

> <s_epik_Chemistry_Notes>
This compound contains an acetal/aminal-like group ( X-CH(R)-Y where X, Y are N, S, or O) that may be acid/base labile, releasing an aldehyde.

> <s_lp_Force_Field>
OPLS_2005

> <r_lp_Energy>
37.6612

> <b_lp_Chiralities_Consistent>
1

> <s_lp_Variant>
AV-unprocessed.smi:53-10

> <Gold.Version>
5.8.1

> <Gold.Id.Protein>
6NUR|6NUR_protein|mol2

> <Gold.PLP.Fitness>
39.0402

> <Gold.PLP.PLP>
-25.2586

> <Gold.PLP.part.hbond>
-5.4483

> <Gold.PLP.part.metal>
0.0000

> <Gold.PLP.part.buried>
-5.0437

> <Gold.PLP.part.nonpolar>
-15.5586

> <Gold.PLP.part.repulsive>
0.1091

> <Gold.PLP.ligand.clash>
0.0000

> <Gold.PLP.ligand.torsion>
0.1074

> <Gold.PLP.Chemscore.Hbond>
4.6393

> <Gold.PLP.Chemscore.CHOScore>
0.0000

> <Gold.PLP.Chemscore.Metal>
0.0000

> <Gold.Chemscore.Hbonds>
donor molecule, donor type, donor heavy atom, donor atom, acceptor molecule, acceptor atom, score
      L1  H    10    28       P1  8028  1.00
      L1  H    12    29       P1  7957  0.64
      P1  H  7989  7998       L1    14  0.99
      P1  H  7997  8010       L1    17  1.00
      P1  H  8011  8017       L1    12  1.00

> <Gold.PLP.Chemscore.Internal.Correction>
0.0786

> <Gold.Rescore>
     Score         DG    S(hbond)    S(metal)    S(lipo)     H(rot)  DE(clash)    DE(int)     intcor
      9.23      -9.61       2.77        0.00      37.35       3.71       0.13       0.25       ----

> <Gold.Chemscore.Fitness>
9.2296

> <Gold.Chemscore.DG>
-9.6123

> <Gold.Chemscore.ZeroCoef>
-5.4800

> <Gold.Chemscore.Hbond>
2.7720

> <Gold.Chemscore.Metal>
0.0000

> <Gold.Chemscore.Lipo>
37.3532

> <Gold.Chemscore.Internal_Hbond>
0.0000

> <Gold.Chemscore.DEClash>
0.1338

> <Gold.Chemscore.DEInternal>
0.2489

> <Gold.Chemscore.Rot>
3.7095

> <Gold.Chemscore.Internal.Correction>
   9.000000E+99

> <Gold.Chemscore.Hbonds>
donor molecule, donor type, donor heavy atom, donor atom, acceptor molecule, acceptor atom, score
      L1  H    10    28       P1  8028  0.24
      L1  H    12    29       P1  7957  0.61
      P1  H  7989  7998       L1    14  0.51
      P1  H  7997  8010       L1    17  0.13
      P1  H  8011  8017       L1    12  0.55

> <Gold.Chemscore.Hbond.Weighted>
-9.2583

> <Gold.Chemscore.Metal.Weighted>
-0.0000

> <Gold.Chemscore.Lipo.Weighted>
-4.3703

> <Gold.Chemscore.Internal_Hbond.Weighted>
0.0000

> <Gold.Chemscore.DEClash.Weighted>
0.1338

> <Gold.Chemscore.DEInternal.Weighted>
0.2489

> <Gold.Chemscore.Rot.Weighted>
9.4964

> <Gold.Chemscore.Internal.Correction.Weighted>
   9.000000E+99

> <Gold.Protein.RotatedTorsions>
[ 6907 6896 6895 6894 ] final  127.52 input  -60.11 | X-H torsion
[ 7974 7965 7964 7962 ] final -142.67 input  175.53 | X-H torsion
[ 8008 7997 7996 7995 ] final   21.56 input   59.86 | X-H torsion
[ 10167 10162 10161 10158 ] final   47.03 input  -65.29 | X-H torsion
[ 10718 10713 10712 10709 ] final   -4.52 input   66.30 | X-H torsion
[ 10763 10752 10751 10750 ] final    9.87 input  -60.55 | X-H torsion
[ 11005 11000 10999 10996 ] final  120.78 input  -57.11 | X-H torsion

> <Gold.Protein.ActiveResidues>
 VAL166  LYS551  ARG553  GLY616  TRP617  ASP618  TYR619  PRO620  LYS621  CYS622 
 ASP623  PHE694  ASN695  SER759  ASP760  ASP761  ALA762  ILE779  LEU786  VAL792 
 PHE793  MET794  SER795  GLU796  ALA797  LYS798  CYS799  TRP800  GLU811  SER814 

> <Gold.Protein.RotatedAtoms>
  152.3804  133.6539  159.6156 H   0  0  0  0  0  0  0  0  0  0  0  0  # atno 6907 bound_to 6896
  150.7737  133.9122  159.3382 H   0  0  0  0  0  0  0  0  0  0  0  0  # atno 6908 bound_to 6896
  151.6929  135.0944  160.0288 H   0  0  0  0  0  0  0  0  0  0  0  0  # atno 6909 bound_to 6896
  144.8426  140.5929  143.5442 H   0  0  0  0  0  0  0  0  0  0  0  0  # atno 7974 bound_to 7965
  154.9525  140.3067  155.5068 H   0  0  0  0  0  0  0  0  0  0  0  0  # atno 8008 bound_to 7997
  156.2985  140.2316  156.4541 H   0  0  0  0  0  0  0  0  0  0  0  0  # atno 8009 bound_to 7997
  154.8041  140.0432  157.1283 H   0  0  0  0  0  0  0  0  0  0  0  0  # atno 8010 bound_to 7997
  140.3078  144.2857  150.6206 H   0  0  0  0  0  0  0  0  0  0  0  0  # atno 10167 bound_to 10162
  156.7600  130.5266  149.5787 H   0  0  0  0  0  0  0  0  0  0  0  0  # atno 10718 bound_to 10713
  153.2093  135.6867  153.8134 H   0  0  0  0  0  0  0  0  0  0  0  0  # atno 10763 bound_to 10752
  153.7372  135.3243  155.3298 H   0  0  0  0  0  0  0  0  0  0  0  0  # atno 10764 bound_to 10752
  154.8213  135.4650  154.0893 H   0  0  0  0  0  0  0  0  0  0  0  0  # atno 10765 bound_to 10752
  139.9199  134.9636  156.7859 H   0  0  0  0  0  0  0  0  0  0  0  0  # atno 11005 bound_to 11000
  145.4663  139.1508  143.3839 LP  0  0  0  0  0  0  0  0  0  0  0  0  # atno 17320 bound_to 7965
  146.2716  140.4795  142.8812 LP  0  0  0  0  0  0  0  0  0  0  0  0  # atno 17321 bound_to 7965
  140.5595  143.2194  151.7790 LP  0  0  0  0  0  0  0  0  0  0  0  0  # atno 17342 bound_to 10162
  139.4900  144.4368  151.9809 LP  0  0  0  0  0  0  0  0  0  0  0  0  # atno 17343 bound_to 10162
  156.1345  130.6201  151.0380 LP  0  0  0  0  0  0  0  0  0  0  0  0  # atno 17370 bound_to 10713
  157.6739  131.0855  150.7545 LP  0  0  0  0  0  0  0  0  0  0  0  0  # atno 17371 bound_to 10713
  140.6506  133.9735  155.7753 LP  0  0  0  0  0  0  0  0  0  0  0  0  # atno 17394 bound_to 11000
  141.0710  134.0205  157.3526 LP  0  0  0  0  0  0  0  0  0  0  0  0  # atno 17395 bound_to 11000

$$$$
