AV-unprocessed.smi:1280|AV-procd|sdf|5357|dock5
  -GOLD-   22720 4493D 1   1.00000     0.00000
 Structure written by MMmdl.
 45 46  0  0  0  0  0  0  0  0  1 V2000
  143.5984  137.0484  152.7184 C   0  0  0  0  0  0  0  0  0  0  0  0
  145.3129  137.5419  153.1590 S   0  0  0  0  0  0  0  0  0  0  0  0
  145.8322  136.5881  154.1509 O   0  0  0  0  0  0  0  0  0  0  0  0
  146.0665  137.8105  151.9249 O   0  0  0  0  0  0  0  0  0  0  0  0
  145.0726  139.0506  153.9571 N   0  0  0  0  0  0  0  0  0  0  0  0
  146.2552  139.8391  154.2955 C   0  0  0  0  0  0  0  0  0  0  0  0
  146.6304  140.7633  153.1306 C   0  0  0  0  0  0  0  0  0  0  0  0
  147.8208  141.6736  153.4702 C   0  0  0  0  0  0  0  0  0  0  0  0
  148.9886  140.9003  153.8716 N   0  0  0  0  0  0  0  0  0  0  0  0
  149.5519  140.9256  155.0906 C   0  0  0  0  0  0  0  0  0  0  0  0
  149.1036  141.5810  156.0314 O   0  0  0  0  0  0  0  0  0  0  0  0
  150.7516  140.0346  155.2817 C   0  0  0  0  0  0  0  0  0  0  0  0
  150.9282  138.9465  154.3976 C   0  0  0  0  0  0  0  0  0  0  0  0
  152.0428  138.1027  154.5455 C   0  0  0  0  0  0  0  0  0  0  0  0
  152.9475  138.3740  155.5856 C   0  0  0  0  0  0  0  0  0  0  0  0
  152.7884  139.3942  156.4521 N   0  0  0  0  0  0  0  0  0  0  0  0
  151.7125  140.2101  156.3245 C   0  0  0  0  0  0  0  0  0  0  0  0
  151.5723  141.2145  157.3036 N   0  0  0  0  0  0  0  0  0  0  0  0
  152.4183  141.0253  158.4756 C   0  0  0  0  0  0  0  0  0  0  0  0
  151.9762  141.9813  159.5966 C   0  0  0  0  0  0  0  0  0  0  0  0
  151.9925  143.3235  159.1172 O   0  0  0  0  0  0  0  0  0  0  0  0
  151.1072  143.5130  158.0165 C   0  0  0  0  0  0  0  0  0  0  0  0
  151.5293  142.6011  156.8517 C   0  0  0  0  0  0  0  0  0  0  0  0
  143.6204  136.0908  152.1987 H   0  0  0  0  0  0  0  0  0  0  0  0
  143.1555  137.8024  152.0685 H   0  0  0  0  0  0  0  0  0  0  0  0
  143.0022  136.9533  153.6257 H   0  0  0  0  0  0  0  0  0  0  0  0
  144.3929  139.6199  153.4530 H   0  0  0  0  0  0  0  0  0  0  0  0
  146.0530  140.4199  155.1962 H   0  0  0  0  0  0  0  0  0  0  0  0
  147.0805  139.1630  154.5219 H   0  0  0  0  0  0  0  0  0  0  0  0
  146.8692  140.1594  152.2539 H   0  0  0  0  0  0  0  0  0  0  0  0
  145.7699  141.3766  152.8594 H   0  0  0  0  0  0  0  0  0  0  0  0
  148.0951  142.2683  152.5984 H   0  0  0  0  0  0  0  0  0  0  0  0
  147.5515  142.3817  154.2558 H   0  0  0  0  0  0  0  0  0  0  0  0
  149.4133  140.3147  153.1670 H   0  0  0  0  0  0  0  0  0  0  0  0
  150.2225  138.7615  153.6005 H   0  0  0  0  0  0  0  0  0  0  0  0
  152.2017  137.2707  153.8757 H   0  0  0  0  0  0  0  0  0  0  0  0
  153.8182  137.7517  155.7306 H   0  0  0  0  0  0  0  0  0  0  0  0
  152.3721  139.9942  158.8265 H   0  0  0  0  0  0  0  0  0  0  0  0
  153.4559  141.2226  158.2023 H   0  0  0  0  0  0  0  0  0  0  0  0
  150.9775  141.7239  159.9536 H   0  0  0  0  0  0  0  0  0  0  0  0
  152.6507  141.8991  160.4489 H   0  0  0  0  0  0  0  0  0  0  0  0
  150.0809  143.3033  158.3223 H   0  0  0  0  0  0  0  0  0  0  0  0
  151.1415  144.5578  157.7078 H   0  0  0  0  0  0  0  0  0  0  0  0
  152.5126  142.9008  156.4861 H   0  0  0  0  0  0  0  0  0  0  0  0
  150.8275  142.7011  156.0229 H   0  0  0  0  0  0  0  0  0  0  0  0
  1  2  1  0  0  0  0
  1 24  1  0  0  0  0
  1 25  1  0  0  0  0
  1 26  1  0  0  0  0
  2  3  2  0  0  0  0
  2  4  2  0  0  0  0
  2  5  1  0  0  0  0
  5  6  1  0  0  0  0
  5 27  1  0  0  0  0
  6  7  1  0  0  0  0
  6 28  1  0  0  0  0
  6 29  1  0  0  0  0
  7  8  1  0  0  0  0
  7 30  1  0  0  0  0
  7 31  1  0  0  0  0
  8  9  1  0  0  0  0
  8 32  1  0  0  0  0
  8 33  1  0  0  0  0
  9 10  1  0  0  0  0
  9 34  1  0  0  0  0
 10 11  2  0  0  0  0
 10 12  1  0  0  0  0
 12 17  1  0  0  0  0
 12 13  2  0  0  0  0
 13 14  1  0  0  0  0
 13 35  1  0  0  0  0
 14 15  2  0  0  0  0
 14 36  1  0  0  0  0
 15 16  1  0  0  0  0
 15 37  1  0  0  0  0
 16 17  2  0  0  0  0
 17 18  1  0  0  0  0
 18 23  1  0  0  0  0
 18 19  1  0  0  0  0
 19 20  1  0  0  0  0
 19 38  1  0  0  0  0
 19 39  1  0  0  0  0
 20 21  1  0  0  0  0
 20 40  1  0  0  0  0
 20 41  1  0  0  0  0
 21 22  1  0  0  0  0
 22 23  1  0  0  0  0
 22 42  1  0  0  0  0
 22 43  1  0  0  0  0
 23 44  1  0  0  0  0
 23 45  1  0  0  0  0
M  END
> <s_m_source_file>
AV-unprocessed.smi

> <i_m_source_file_index>
1280

> <i_lp_mmshare_version>
43012

> <i_f3d_flags>
0

> <s_epik_input>
W0NIM11TKD1PKSg9TylbTkhdW0NIMl1bQ0gyXVtDSDJdW05IXUMoPU8pYzFbY0hdW2NIXVtjSF1uYzFOMltDSDJdW0NIMl1PW0NIMl1bQ0gyXTI=

> <s_epik_cmdline>
J2VwaWtfcHl0aG9uJywgJy1waCcsICc3LjAnLCAnLXRuJywgJzgnLCAnLW1hJywgJzIwMCcsICctbWV0YWxfYmluZGluZycsICctaW1hZScsICc8aW5maWxlLm1hZT4nLCAnLW9tYWUnLCAnPG91dGZpbGUubWFlPic=

> <r_lp_tautomer_probability>
1

> <r_epik_Ionization_Penalty>
2.29251e-05

> <r_epik_Ionization_Penalty_Charging>
0

> <r_epik_Ionization_Penalty_Neutral>
2.29251e-05

> <r_epik_State_Penalty>
-0

> <r_epik_Charging_Adjusted_Penalty>
0

> <i_epik_Tot_Q>
0

> <i_epik_Tot_abs_Q>
0

> <r_epik_Metal_State_Penalty>
0.00766126

> <b_epik_Metal_Only>
0

> <s_lp_Force_Field>
OPLS_2005

> <r_lp_Energy>
17.2463

> <b_lp_Chiralities_Consistent>
1

> <s_lp_Variant>
AV-unprocessed.smi:1280-1

> <Gold.Version>
5.8.1

> <Gold.Id.Protein>
6NUR|6NUR_protein|mol2

> <Gold.PLP.Fitness>
41.8649

> <Gold.PLP.PLP>
-34.1596

> <Gold.PLP.part.hbond>
-3.0000

> <Gold.PLP.part.metal>
0.0000

> <Gold.PLP.part.buried>
-2.1420

> <Gold.PLP.part.nonpolar>
-28.0601

> <Gold.PLP.part.repulsive>
0.6843

> <Gold.PLP.ligand.clash>
0.0000

> <Gold.PLP.ligand.torsion>
0.7069

> <Gold.PLP.Chemscore.Hbond>
2.8892

> <Gold.PLP.Chemscore.CHOScore>
0.0000

> <Gold.PLP.Chemscore.Metal>
0.0000

> <Gold.Chemscore.Hbonds>
donor molecule, donor type, donor heavy atom, donor atom, acceptor molecule, acceptor atom, score
      L1  H     5    27       P1 10175  0.86
      L1  H     9    34       P1  7957  0.87
      P1  H  7997  8008       L1    16  0.90

> <Gold.PLP.Chemscore.Internal.Correction>
0.4515

> <Gold.Rescore>
     Score         DG    S(hbond)    S(metal)    S(lipo)     H(rot)  DE(clash)    DE(int)     intcor
     11.25     -17.20       2.27        0.00      91.85       2.58       2.40       3.55       ----

> <Gold.Chemscore.Fitness>
11.2475

> <Gold.Chemscore.DG>
-17.1977

> <Gold.Chemscore.ZeroCoef>
-5.4800

> <Gold.Chemscore.Hbond>
2.2708

> <Gold.Chemscore.Metal>
0.0000

> <Gold.Chemscore.Lipo>
91.8542

> <Gold.Chemscore.Internal_Hbond>
0.0000

> <Gold.Chemscore.DEClash>
2.3996

> <Gold.Chemscore.DEInternal>
3.5506

> <Gold.Chemscore.Rot>
2.5835

> <Gold.Chemscore.Internal.Correction>
   9.000000E+99

> <Gold.Chemscore.Hbonds>
donor molecule, donor type, donor heavy atom, donor atom, acceptor molecule, acceptor atom, score
      L1  H     5    27       P1 10175  0.84
      L1  H     9    34       P1  7957  0.80
      P1  H  7997  8008       L1    16  0.17

> <Gold.Chemscore.Hbond.Weighted>
-7.5844

> <Gold.Chemscore.Metal.Weighted>
-0.0000

> <Gold.Chemscore.Lipo.Weighted>
-10.7469

> <Gold.Chemscore.Internal_Hbond.Weighted>
0.0000

> <Gold.Chemscore.DEClash.Weighted>
2.3996

> <Gold.Chemscore.DEInternal.Weighted>
3.5506

> <Gold.Chemscore.Rot.Weighted>
6.6137

> <Gold.Chemscore.Internal.Correction.Weighted>
   9.000000E+99

> <Gold.Protein.RotatedTorsions>
[ 6907 6896 6895 6894 ] final  141.38 input  -60.11 | X-H torsion
[ 7974 7965 7964 7962 ] final   73.09 input  175.53 | X-H torsion
[ 8008 7997 7996 7995 ] final  -35.91 input   59.86 | X-H torsion
[ 10167 10162 10161 10158 ] final  -75.47 input  -65.29 | X-H torsion
[ 10718 10713 10712 10709 ] final -104.58 input   66.30 | X-H torsion
[ 10763 10752 10751 10750 ] final   26.67 input  -60.55 | X-H torsion
[ 11005 11000 10999 10996 ] final   34.07 input  -57.11 | X-H torsion

> <Gold.Protein.ActiveResidues>
 VAL166  LYS551  ARG553  GLY616  TRP617  ASP618  TYR619  PRO620  LYS621  CYS622 
 ASP623  PHE694  ASN695  SER759  ASP760  ASP761  ALA762  ILE779  LEU786  VAL792 
 PHE793  MET794  SER795  GLU796  ALA797  LYS798  CYS799  TRP800  GLU811  SER814 

> <Gold.Protein.RotatedAtoms>
  152.2316  133.5063  159.5218 H   0  0  0  0  0  0  0  0  0  0  0  0  # atno 6907 bound_to 6896
  150.7039  134.1208  159.4043 H   0  0  0  0  0  0  0  0  0  0  0  0  # atno 6908 bound_to 6896
  151.9129  135.0331  160.0566 H   0  0  0  0  0  0  0  0  0  0  0  0  # atno 6909 bound_to 6896
  145.7452  139.2737  143.1463 H   0  0  0  0  0  0  0  0  0  0  0  0  # atno 7974 bound_to 7965
  154.4085  140.1645  156.2288 H   0  0  0  0  0  0  0  0  0  0  0  0  # atno 8008 bound_to 7997
  155.9300  140.3415  155.6219 H   0  0  0  0  0  0  0  0  0  0  0  0  # atno 8009 bound_to 7997
  155.7117  140.0757  157.2359 H   0  0  0  0  0  0  0  0  0  0  0  0  # atno 8010 bound_to 7997
  140.4940  143.2374  151.7861 H   0  0  0  0  0  0  0  0  0  0  0  0  # atno 10167 bound_to 10162
  156.0310  130.5522  150.7416 H   0  0  0  0  0  0  0  0  0  0  0  0  # atno 10718 bound_to 10713
  153.0607  135.6555  154.0470 H   0  0  0  0  0  0  0  0  0  0  0  0  # atno 10763 bound_to 10752
  154.0138  135.2926  155.3390 H   0  0  0  0  0  0  0  0  0  0  0  0  # atno 10764 bound_to 10752
  154.6944  135.5270  153.8505 H   0  0  0  0  0  0  0  0  0  0  0  0  # atno 10765 bound_to 10752
  140.2566  134.3241  155.7872 H   0  0  0  0  0  0  0  0  0  0  0  0  # atno 11005 bound_to 11000
  146.0410  140.8165  142.9829 LP  0  0  0  0  0  0  0  0  0  0  0  0  # atno 17320 bound_to 7965
  144.6862  140.2910  143.7278 LP  0  0  0  0  0  0  0  0  0  0  0  0  # atno 17321 bound_to 7965
  139.4857  144.4612  151.9539 LP  0  0  0  0  0  0  0  0  0  0  0  0  # atno 17342 bound_to 10162
  140.3699  144.2868  150.5921 LP  0  0  0  0  0  0  0  0  0  0  0  0  # atno 17343 bound_to 10162
  157.4983  131.0916  151.0344 LP  0  0  0  0  0  0  0  0  0  0  0  0  # atno 17370 bound_to 10713
  157.0732  130.5872  149.5406 LP  0  0  0  0  0  0  0  0  0  0  0  0  # atno 17371 bound_to 10713
  141.2195  133.7384  156.9120 LP  0  0  0  0  0  0  0  0  0  0  0  0  # atno 17394 bound_to 11000
  140.1506  134.9233  157.2587 LP  0  0  0  0  0  0  0  0  0  0  0  0  # atno 17395 bound_to 11000

$$$$
