AV-unprocessed.smi:3009|AV-procd|sdf|11450|dock1
  -GOLD-   2272016383D 1   1.00000     0.00000
 Structure written by MMmdl.
 44 45  0  0  0  0  0  0  0  0  2 V2000
  151.5250  140.5902  156.0861 C   0  0  0  0  0  0  0  0  0  0  0  0
  150.6509  141.8492  156.1901 C   0  0  0  0  0  0  0  0  0  0  0  0
  151.3270  142.8974  157.0899 C   0  0  0  0  0  0  0  0  0  0  0  0
  149.2353  141.4852  156.6892 C   0  0  0  0  0  0  0  0  0  0  0  0
  148.1483  142.0721  155.8581 N   0  3  2  0  0  0  0  0  0  0  0  0
  146.8439  142.1464  156.5596 C   0  0  0  0  0  0  0  0  0  0  0  0
  146.1520  140.7722  156.5894 C   0  0  0  0  0  0  0  0  0  0  0  0
  145.9986  140.2941  155.2594 O   0  0  0  0  0  0  0  0  0  0  0  0
  147.2443  140.0975  154.5964 C   0  0  1  0  0  0  0  0  0  0  0  0
  146.9751  139.5177  153.1963 C   0  0  0  0  0  0  0  0  0  0  0  0
  145.6277  138.9687  153.0847 N   0  0  0  0  0  0  0  0  0  0  0  0
  145.2430  137.7640  153.5283 C   0  0  0  0  0  0  0  0  0  0  0  0
  146.0005  136.9685  154.0838 O   0  0  0  0  0  0  0  0  0  0  0  0
  143.9395  137.5503  153.2860 N   0  0  0  0  0  0  0  0  0  0  0  0
  143.1786  136.4007  153.6165 C   0  0  0  0  0  0  0  0  0  0  0  0
  141.8132  136.4212  154.0106 C   0  0  0  0  0  0  0  0  0  0  0  0
  141.3629  135.1998  154.2588 N   0  0  0  0  0  0  0  0  0  0  0  0
  142.4282  134.3997  154.0273 N   0  0  0  0  0  0  0  0  0  0  0  0
  143.5552  135.0869  153.6335 C   0  0  0  0  0  0  0  0  0  0  0  0
  147.9776  141.4554  154.5167 C   0  0  0  0  0  0  0  0  0  0  0  0
  142.3711  133.3975  154.1416 H   0  0  0  0  0  0  0  0  0  0  0  0
  151.6562  140.1155  157.0593 H   0  0  0  0  0  0  0  0  0  0  0  0
  152.5151  140.8298  155.6972 H   0  0  0  0  0  0  0  0  0  0  0  0
  151.0798  139.8549  155.4151 H   0  0  0  0  0  0  0  0  0  0  0  0
  150.5834  142.2641  155.1851 H   0  0  0  0  0  0  0  0  0  0  0  0
  151.4330  142.5342  158.1127 H   0  0  0  0  0  0  0  0  0  0  0  0
  150.7559  143.8253  157.1234 H   0  0  0  0  0  0  0  0  0  0  0  0
  152.3230  143.1444  156.7214 H   0  0  0  0  0  0  0  0  0  0  0  0
  149.1195  140.4029  156.7445 H   0  0  0  0  0  0  0  0  0  0  0  0
  149.1372  141.8469  157.7138 H   0  0  0  0  0  0  0  0  0  0  0  0
  146.9675  142.5430  157.5680 H   0  0  0  0  0  0  0  0  0  0  0  0
  146.2087  142.8567  156.0286 H   0  0  0  0  0  0  0  0  0  0  0  0
  146.7150  140.0547  157.1879 H   0  0  0  0  0  0  0  0  0  0  0  0
  145.1661  140.8604  157.0459 H   0  0  0  0  0  0  0  0  0  0  0  0
  147.8453  139.3803  155.1574 H   0  0  0  0  0  0  0  0  0  0  0  0
  147.1561  140.2675  152.4242 H   0  0  0  0  0  0  0  0  0  0  0  0
  147.6701  138.7011  152.9988 H   0  0  0  0  0  0  0  0  0  0  0  0
  144.9337  139.5542  152.6433 H   0  0  0  0  0  0  0  0  0  0  0  0
  143.4348  138.2918  152.8227 H   0  0  0  0  0  0  0  0  0  0  0  0
  141.1478  137.2648  154.1229 H   0  0  0  0  0  0  0  0  0  0  0  0
  144.4874  134.5893  153.4110 H   0  0  0  0  0  0  0  0  0  0  0  0
  147.3921  142.1436  153.9052 H   0  0  0  0  0  0  0  0  0  0  0  0
  148.9349  141.3464  154.0094 H   0  0  0  0  0  0  0  0  0  0  0  0
  148.4297  143.0295  155.7010 H   0  0  0  0  0  0  0  0  0  0  0  0
  1  2  1  0  0  0  0
  1 22  1  0  0  0  0
  1 23  1  0  0  0  0
  1 24  1  0  0  0  0
  2  3  1  0  0  0  0
  2  4  1  0  0  0  0
  2 25  1  0  0  0  0
  3 26  1  0  0  0  0
  3 27  1  0  0  0  0
  3 28  1  0  0  0  0
  4  5  1  0  0  0  0
  4 29  1  0  0  0  0
  4 30  1  0  0  0  0
  5 20  1  0  0  0  0
  5  6  1  0  0  0  0
  5 44  1  0  0  0  0
  6  7  1  0  0  0  0
  6 31  1  0  0  0  0
  6 32  1  0  0  0  0
  7  8  1  0  0  0  0
  7 33  1  0  0  0  0
  7 34  1  0  0  0  0
  8  9  1  0  0  0  0
  9 10  1  0  0  0  0
  9 20  1  0  0  0  0
  9 35  1  0  0  0  0
 10 11  1  0  0  0  0
 10 36  1  0  0  0  0
 10 37  1  0  0  0  0
 11 12  1  0  0  0  0
 11 38  1  0  0  0  0
 12 13  2  0  0  0  0
 12 14  1  0  0  0  0
 14 15  1  0  0  0  0
 14 39  1  0  0  0  0
 15 19  2  0  0  0  0
 15 16  1  0  0  0  0
 16 17  2  0  0  0  0
 16 40  1  0  0  0  0
 17 18  1  0  0  0  0
 18 21  1  0  0  0  0
 18 19  1  0  0  0  0
 19 41  1  0  0  0  0
 20 42  1  0  0  0  0
 20 43  1  0  0  0  0
M  CHG  1   5   1
M  END
> <s_m_source_file>
AV-unprocessed.smi

> <i_m_source_file_index>
3009

> <i_lp_mmshare_version>
43012

> <i_f3d_flags>
0

> <s_epik_input>
W0NIM11bQ0hdKFtDSDNdKVtDSDJdTjFbQ0gyXVtDSDJdT1tDQEhdKFtDSDJdMSlbQ0gyXVtOSF1DKD1PKVtOSF1jMltjSF1uW25IXVtjSF0y

> <s_epik_cmdline>
J2VwaWtfcHl0aG9uJywgJy1waCcsICc3LjAnLCAnLXRuJywgJzgnLCAnLW1hJywgJzIwMCcsICctbWV0YWxfYmluZGluZycsICctaW1hZScsICc8aW5maWxlLm1hZT4nLCAnLW9tYWUnLCAnPG91dGZpbGUubWFlPic=

> <r_lp_tautomer_probability>
0.5

> <r_epik_Ionization_Penalty>
0.0974064

> <r_epik_Ionization_Penalty_Charging>
0.0973651

> <r_epik_Ionization_Penalty_Neutral>
4.13573e-05

> <r_epik_State_Penalty>
0.0874853

> <r_epik_Charging_Adjusted_Penalty>
0.18485

> <i_epik_Tot_Q>
1

> <i_epik_Tot_abs_Q>
1

> <r_epik_Metal_State_Penalty>
0.0874855

> <b_epik_Metal_Only>
0

> <s_lp_Force_Field>
OPLS_2005

> <r_lp_Energy>
22.9615

> <b_lp_Chiralities_Consistent>
1

> <s_lp_Variant>
AV-unprocessed.smi:3009-2

> <Gold.Version>
5.8.1

> <Gold.Id.Protein>
6NUR|6NUR_protein|mol2

> <Gold.PLP.Fitness>
41.3712

> <Gold.PLP.PLP>
-28.3673

> <Gold.PLP.part.hbond>
-4.9195

> <Gold.PLP.part.metal>
0.0000

> <Gold.PLP.part.buried>
-6.5469

> <Gold.PLP.part.nonpolar>
-17.6832

> <Gold.PLP.part.repulsive>
0.3898

> <Gold.PLP.ligand.clash>
0.0000

> <Gold.PLP.ligand.torsion>
1.8090

> <Gold.PLP.Chemscore.Hbond>
5.4826

> <Gold.PLP.Chemscore.CHOScore>
0.0000

> <Gold.PLP.Chemscore.Metal>
0.0000

> <Gold.Chemscore.Hbonds>
donor molecule, donor type, donor heavy atom, donor atom, acceptor molecule, acceptor atom, score
      L1  H     5    44       P1  8028  2.00
      L1  H    11    38       P1 10175  1.00
      L1  H    14    39       P1 10175  0.48
      L1  H    18    21       P1 10957  1.00
      P1  H 11000 11005       L1    17  0.86

> <Gold.PLP.Chemscore.Internal.Correction>
0.1742

> <Gold.Rescore>
     Score         DG    S(hbond)    S(metal)    S(lipo)     H(rot)  DE(clash)    DE(int)     intcor
     19.82     -21.64       4.13        0.00      59.37       1.80       0.01       1.81       ----

> <Gold.Chemscore.Fitness>
19.8238

> <Gold.Chemscore.DG>
-21.6385

> <Gold.Chemscore.ZeroCoef>
-5.4800

> <Gold.Chemscore.Hbond>
4.1349

> <Gold.Chemscore.Metal>
0.0000

> <Gold.Chemscore.Lipo>
59.3719

> <Gold.Chemscore.Internal_Hbond>
0.0000

> <Gold.Chemscore.DEClash>
0.0073

> <Gold.Chemscore.DEInternal>
1.8074

> <Gold.Chemscore.Rot>
1.7963

> <Gold.Chemscore.Internal.Correction>
   9.000000E+99

> <Gold.Chemscore.Hbonds>
donor molecule, donor type, donor heavy atom, donor atom, acceptor molecule, acceptor atom, score
      L1  H     5    44       P1  8028  0.98
      L1  H    11    38       P1 10175  0.96
      L1  H    14    39       P1 10175  0.49
      L1  H    18    21       P1 10957  1.00
      P1  H 11000 11005       L1    17  0.37

> <Gold.Chemscore.Hbond.Weighted>
-13.8104

> <Gold.Chemscore.Metal.Weighted>
-0.0000

> <Gold.Chemscore.Lipo.Weighted>
-6.9465

> <Gold.Chemscore.Internal_Hbond.Weighted>
0.0000

> <Gold.Chemscore.DEClash.Weighted>
0.0073

> <Gold.Chemscore.DEInternal.Weighted>
1.8074

> <Gold.Chemscore.Rot.Weighted>
4.5985

> <Gold.Chemscore.Internal.Correction.Weighted>
   9.000000E+99

> <Gold.Protein.RotatedTorsions>
[ 6907 6896 6895 6894 ] final -135.78 input  -60.11 | X-H torsion
[ 7974 7965 7964 7962 ] final   51.20 input  175.53 | X-H torsion
[ 8008 7997 7996 7995 ] final  -91.29 input   59.86 | X-H torsion
[ 10167 10162 10161 10158 ] final -111.99 input  -65.29 | X-H torsion
[ 10718 10713 10712 10709 ] final  -45.94 input   66.30 | X-H torsion
[ 10763 10752 10751 10750 ] final -116.29 input  -60.55 | X-H torsion
[ 11005 11000 10999 10996 ] final   27.00 input  -57.11 | X-H torsion

> <Gold.Protein.ActiveResidues>
 VAL166  LYS551  ARG553  GLY616  TRP617  ASP618  TYR619  PRO620  LYS621  CYS622 
 ASP623  PHE694  ASN695  SER759  ASP760  ASP761  ALA762  ILE779  LEU786  VAL792 
 PHE793  MET794  SER795  GLU796  ALA797  LYS798  CYS799  TRP800  GLU811  SER814 

> <Gold.Protein.RotatedAtoms>
  151.0020  133.6047  159.2693 H   0  0  0  0  0  0  0  0  0  0  0  0  # atno 6907 bound_to 6896
  151.3230  135.0822  159.9322 H   0  0  0  0  0  0  0  0  0  0  0  0  # atno 6908 bound_to 6896
  152.5276  133.9664  159.7795 H   0  0  0  0  0  0  0  0  0  0  0  0  # atno 6909 bound_to 6896
  145.9937  139.4365  143.0058 H   0  0  0  0  0  0  0  0  0  0  0  0  # atno 7974 bound_to 7965
  154.7089  140.0521  157.0531 H   0  0  0  0  0  0  0  0  0  0  0  0  # atno 8008 bound_to 7997
  155.0581  140.3186  155.4650 H   0  0  0  0  0  0  0  0  0  0  0  0  # atno 8009 bound_to 7997
  156.2783  140.2103  156.5708 H   0  0  0  0  0  0  0  0  0  0  0  0  # atno 8010 bound_to 7997
  140.1276  143.4389  152.1649 H   0  0  0  0  0  0  0  0  0  0  0  0  # atno 10167 bound_to 10162
  156.2233  130.4167  149.8965 H   0  0  0  0  0  0  0  0  0  0  0  0  # atno 10718 bound_to 10713
  154.8513  135.4351  154.1797 H   0  0  0  0  0  0  0  0  0  0  0  0  # atno 10763 bound_to 10752
  153.2891  135.6960  153.7317 H   0  0  0  0  0  0  0  0  0  0  0  0  # atno 10764 bound_to 10752
  153.6491  135.3454  155.3069 H   0  0  0  0  0  0  0  0  0  0  0  0  # atno 10765 bound_to 10752
  140.3310  134.2438  155.7702 H   0  0  0  0  0  0  0  0  0  0  0  0  # atno 11005 bound_to 11000
  145.7592  140.9942  143.1209 LP  0  0  0  0  0  0  0  0  0  0  0  0  # atno 17320 bound_to 7965
  144.6897  139.9309  143.7471 LP  0  0  0  0  0  0  0  0  0  0  0  0  # atno 17321 bound_to 7965
  139.5536  144.7356  151.4360 LP  0  0  0  0  0  0  0  0  0  0  0  0  # atno 17342 bound_to 10162
  140.6836  143.8026  150.7155 LP  0  0  0  0  0  0  0  0  0  0  0  0  # atno 17343 bound_to 10162
  156.6604  130.8780  151.3546 LP  0  0  0  0  0  0  0  0  0  0  0  0  # atno 17370 bound_to 10713
  157.7098  130.9427  150.1051 LP  0  0  0  0  0  0  0  0  0  0  0  0  # atno 17371 bound_to 10713
  141.2063  133.7836  157.0183 LP  0  0  0  0  0  0  0  0  0  0  0  0  # atno 17394 bound_to 11000
  140.0861  134.9620  157.1702 LP  0  0  0  0  0  0  0  0  0  0  0  0  # atno 17395 bound_to 11000

$$$$
