AV-unprocessed.smi:3000|AV-procd|sdf|11429|dock10
  -GOLD-   2272016353D 1   1.00000     0.00000
 Structure written by MMmdl.
 44 45  0  0  0  0  0  0  0  0  1 V2000
  144.5618  132.3934  149.2994 C   0  0  0  0  0  0  0  0  0  0  0  0
  145.3100  132.6630  150.5086 N   0  0  0  0  0  0  0  0  0  0  0  0
  146.0584  133.7799  150.8225 C   0  0  0  0  0  0  0  0  0  0  0  0
  146.5579  133.5529  152.0697 C   0  0  0  0  0  0  0  0  0  0  0  0
  147.3875  134.4528  152.7841 N   0  0  0  0  0  0  0  0  0  0  0  0
  147.5922  134.4925  154.1104 C   0  0  0  0  0  0  0  0  0  0  0  0
  147.0756  133.7281  154.9245 O   0  0  0  0  0  0  0  0  0  0  0  0
  148.4436  135.4801  154.4341 N   0  0  0  0  0  0  0  0  0  0  0  0
  148.9477  135.8704  155.7601 C   0  0  1  0  0  0  0  0  0  0  0  0
  147.7567  136.1131  156.7225 C   0  0  0  0  0  0  0  0  0  0  0  0
  149.8224  134.7179  156.3361 C   0  0  0  0  0  0  0  0  0  0  0  0
  150.0324  134.8465  157.7280 O   0  0  0  0  0  0  0  0  0  0  0  0
  149.7790  137.1900  155.5750 C   0  0  0  0  0  0  0  0  0  0  0  0
  150.9598  137.0458  154.5761 C   0  0  0  0  0  0  0  0  0  0  0  0
  151.7199  138.3670  154.3769 C   0  0  0  0  0  0  0  0  0  0  0  0
  152.2341  138.9213  155.7110 C   0  0  0  0  0  0  0  0  0  0  0  0
  151.0799  139.0926  156.7058 C   0  0  0  0  0  0  0  0  0  0  0  0
  150.3170  137.7741  156.9099 C   0  0  0  0  0  0  0  0  0  0  0  0
  146.0708  132.2722  152.4563 C   0  0  0  0  0  0  0  0  0  0  0  0
  145.3160  131.7439  151.5042 N   0  0  0  0  0  0  0  0  0  0  0  0
  144.7986  133.1382  148.5390 H   0  0  0  0  0  0  0  0  0  0  0  0
  143.4932  132.4307  149.5126 H   0  0  0  0  0  0  0  0  0  0  0  0
  144.8170  131.4045  148.9167 H   0  0  0  0  0  0  0  0  0  0  0  0
  146.1663  134.6168  150.1483 H   0  0  0  0  0  0  0  0  0  0  0  0
  147.8782  135.1365  152.2271 H   0  0  0  0  0  0  0  0  0  0  0  0
  148.7948  136.0357  153.6681 H   0  0  0  0  0  0  0  0  0  0  0  0
  148.0856  136.5905  157.6459 H   0  0  0  0  0  0  0  0  0  0  0  0
  147.2662  135.1820  157.0064 H   0  0  0  0  0  0  0  0  0  0  0  0
  146.9897  136.7463  156.2776 H   0  0  0  0  0  0  0  0  0  0  0  0
  149.3561  133.7475  156.1666 H   0  0  0  0  0  0  0  0  0  0  0  0
  150.7926  134.6711  155.8414 H   0  0  0  0  0  0  0  0  0  0  0  0
  149.6204  135.6451  158.0207 H   0  0  0  0  0  0  0  0  0  0  0  0
  149.1108  137.9397  155.1488 H   0  0  0  0  0  0  0  0  0  0  0  0
  151.6584  136.2829  154.9211 H   0  0  0  0  0  0  0  0  0  0  0  0
  150.6032  136.7179  153.6009 H   0  0  0  0  0  0  0  0  0  0  0  0
  152.5549  138.2153  153.6923 H   0  0  0  0  0  0  0  0  0  0  0  0
  151.0631  139.0988  153.9046 H   0  0  0  0  0  0  0  0  0  0  0  0
  152.9821  138.2452  156.1274 H   0  0  0  0  0  0  0  0  0  0  0  0
  152.7336  139.8770  155.5505 H   0  0  0  0  0  0  0  0  0  0  0  0
  151.4648  139.4499  157.6614 H   0  0  0  0  0  0  0  0  0  0  0  0
  150.3937  139.8590  156.3432 H   0  0  0  0  0  0  0  0  0  0  0  0
  149.5010  137.9667  157.6048 H   0  0  0  0  0  0  0  0  0  0  0  0
  150.9747  137.0549  157.3993 H   0  0  0  0  0  0  0  0  0  0  0  0
  146.2268  131.7145  153.3675 H   0  0  0  0  0  0  0  0  0  0  0  0
  1  2  1  0  0  0  0
  1 21  1  0  0  0  0
  1 22  1  0  0  0  0
  1 23  1  0  0  0  0
  2 20  1  0  0  0  0
  2  3  1  0  0  0  0
  3  4  2  0  0  0  0
  3 24  1  0  0  0  0
  4  5  1  0  0  0  0
  4 19  1  0  0  0  0
  5  6  1  0  0  0  0
  5 25  1  0  0  0  0
  6  7  2  0  0  0  0
  6  8  1  0  0  0  0
  8  9  1  0  0  0  0
  8 26  1  0  0  0  0
  9 10  1  0  0  0  0
  9 11  1  0  0  0  0
  9 13  1  0  0  0  0
 10 27  1  0  0  0  0
 10 28  1  0  0  0  0
 10 29  1  0  0  0  0
 11 12  1  0  0  0  0
 11 30  1  0  0  0  0
 11 31  1  0  0  0  0
 12 32  1  0  0  0  0
 13 18  1  0  0  0  0
 13 14  1  0  0  0  0
 13 33  1  0  0  0  0
 14 15  1  0  0  0  0
 14 34  1  0  0  0  0
 14 35  1  0  0  0  0
 15 16  1  0  0  0  0
 15 36  1  0  0  0  0
 15 37  1  0  0  0  0
 16 17  1  0  0  0  0
 16 38  1  0  0  0  0
 16 39  1  0  0  0  0
 17 18  1  0  0  0  0
 17 40  1  0  0  0  0
 17 41  1  0  0  0  0
 18 42  1  0  0  0  0
 18 43  1  0  0  0  0
 19 20  2  0  0  0  0
 19 44  1  0  0  0  0
M  END
> <s_m_source_file>
AV-unprocessed.smi

> <i_m_source_file_index>
3000

> <i_lp_mmshare_version>
43012

> <i_f3d_flags>
0

> <s_epik_input>
W0NIM11uMVtjSF1jKFtjSF1uMSlbTkhdQyg9TylbTkhdW0NAQF0oW0NIM10pKFtDSDJdW09IXSlbQ0hdMltDSDJdW0NIMl1bQ0gyXVtDSDJdW0NIMl0y

> <s_epik_cmdline>
J2VwaWtfcHl0aG9uJywgJy1waCcsICc3LjAnLCAnLXRuJywgJzgnLCAnLW1hJywgJzIwMCcsICctbWV0YWxfYmluZGluZycsICctaW1hZScsICc8aW5maWxlLm1hZT4nLCAnLW9tYWUnLCAnPG91dGZpbGUubWFlPic=

> <r_lp_tautomer_probability>
1

> <r_epik_Ionization_Penalty>
0.000189471

> <r_epik_Ionization_Penalty_Charging>
0

> <r_epik_Ionization_Penalty_Neutral>
0.000189471

> <r_epik_State_Penalty>
-0

> <r_epik_Charging_Adjusted_Penalty>
0

> <i_epik_Tot_Q>
0

> <i_epik_Tot_abs_Q>
0

> <r_epik_Metal_State_Penalty>
-0

> <b_epik_Metal_Only>
0

> <s_lp_Force_Field>
OPLS_2005

> <r_lp_Energy>
20.4121

> <b_lp_Chiralities_Consistent>
1

> <s_lp_Variant>
AV-unprocessed.smi:3000-1

> <Gold.Version>
5.8.1

> <Gold.Id.Protein>
6NUR|6NUR_protein|mol2

> <Gold.PLP.Fitness>
37.7815

> <Gold.PLP.PLP>
-27.1655

> <Gold.PLP.part.hbond>
-2.9320

> <Gold.PLP.part.metal>
0.0000

> <Gold.PLP.part.buried>
-3.7940

> <Gold.PLP.part.nonpolar>
-20.2855

> <Gold.PLP.part.repulsive>
0.1628

> <Gold.PLP.ligand.clash>
0.0000

> <Gold.PLP.ligand.torsion>
0.3683

> <Gold.PLP.Chemscore.Hbond>
2.7760

> <Gold.PLP.Chemscore.CHOScore>
1.0000

> <Gold.PLP.Chemscore.Metal>
0.0000

> <Gold.Chemscore.Hbonds>
donor molecule, donor type, donor heavy atom, donor atom, acceptor molecule, acceptor atom, score
      L1  H     5    25       P1  7948  1.00
      L1  H     8    26       P1  7948  0.94
      P1  H  6896  6908       L1    12  0.82
      L1  C     3    24       P1  7921  1.00

> <Gold.PLP.Chemscore.Internal.Correction>
0.0246

> <Gold.Rescore>
     Score         DG    S(hbond)    S(metal)    S(lipo)     H(rot)  DE(clash)    DE(int)     intcor
     16.05     -17.41       2.79        0.00      66.53       2.02       0.06       1.30       ----

> <Gold.Chemscore.Fitness>
16.0544

> <Gold.Chemscore.DG>
-17.4069

> <Gold.Chemscore.ZeroCoef>
-5.4800

> <Gold.Chemscore.Hbond>
2.7861

> <Gold.Chemscore.Metal>
0.0000

> <Gold.Chemscore.Lipo>
66.5259

> <Gold.Chemscore.Internal_Hbond>
0.0000

> <Gold.Chemscore.DEClash>
0.0551

> <Gold.Chemscore.DEInternal>
1.2974

> <Gold.Chemscore.Rot>
2.0165

> <Gold.Chemscore.Internal.Correction>
   9.000000E+99

> <Gold.Chemscore.Hbonds>
donor molecule, donor type, donor heavy atom, donor atom, acceptor molecule, acceptor atom, score
      L1  H     5    25       P1  7948  0.85
      L1  H     8    26       P1  7948  0.91
      P1  H  6896  6908       L1    12  0.24

> <Gold.Chemscore.Hbond.Weighted>
-9.3056

> <Gold.Chemscore.Metal.Weighted>
-0.0000

> <Gold.Chemscore.Lipo.Weighted>
-7.7835

> <Gold.Chemscore.Internal_Hbond.Weighted>
0.0000

> <Gold.Chemscore.DEClash.Weighted>
0.0551

> <Gold.Chemscore.DEInternal.Weighted>
1.2974

> <Gold.Chemscore.Rot.Weighted>
5.1622

> <Gold.Chemscore.Internal.Correction.Weighted>
   9.000000E+99

> <Gold.Protein.RotatedTorsions>
[ 6907 6896 6895 6894 ] final  142.80 input  -60.11 | X-H torsion
[ 7974 7965 7964 7962 ] final   77.51 input  175.53 | X-H torsion
[ 8008 7997 7996 7995 ] final   -0.08 input   59.86 | X-H torsion
[ 10167 10162 10161 10158 ] final  108.28 input  -65.29 | X-H torsion
[ 10718 10713 10712 10709 ] final   82.00 input   66.30 | X-H torsion
[ 10763 10752 10751 10750 ] final  140.93 input  -60.55 | X-H torsion
[ 11005 11000 10999 10996 ] final -102.82 input  -57.11 | X-H torsion

> <Gold.Protein.ActiveResidues>
 VAL166  LYS551  ARG553  GLY616  TRP617  ASP618  TYR619  PRO620  LYS621  CYS622 
 ASP623  PHE694  ASN695  SER759  ASP760  ASP761  ALA762  ILE779  LEU786  VAL792 
 PHE793  MET794  SER795  GLU796  ALA797  LYS798  CYS799  TRP800  GLU811  SER814 

> <Gold.Protein.RotatedAtoms>
  152.2142  133.4934  159.5126 H   0  0  0  0  0  0  0  0  0  0  0  0  # atno 6907 bound_to 6896
  150.6997  134.1427  159.4120 H   0  0  0  0  0  0  0  0  0  0  0  0  # atno 6908 bound_to 6896
  151.9347  135.0240  160.0582 H   0  0  0  0  0  0  0  0  0  0  0  0  # atno 6909 bound_to 6896
  145.6891  139.2547  143.1770 H   0  0  0  0  0  0  0  0  0  0  0  0  # atno 7974 bound_to 7965
  154.6621  140.2593  155.7097 H   0  0  0  0  0  0  0  0  0  0  0  0  # atno 8008 bound_to 7997
  156.2623  140.2846  156.1019 H   0  0  0  0  0  0  0  0  0  0  0  0  # atno 8009 bound_to 7997
  155.1293  140.0378  157.2760 H   0  0  0  0  0  0  0  0  0  0  0  0  # atno 8010 bound_to 7997
  139.6859  144.7113  151.1434 H   0  0  0  0  0  0  0  0  0  0  0  0  # atno 10167 bound_to 10162
  157.6847  131.0028  150.2310 H   0  0  0  0  0  0  0  0  0  0  0  0  # atno 10718 bound_to 10713
  153.9309  135.2990  155.3445 H   0  0  0  0  0  0  0  0  0  0  0  0  # atno 10763 bound_to 10752
  154.7527  135.4972  153.9322 H   0  0  0  0  0  0  0  0  0  0  0  0  # atno 10764 bound_to 10752
  153.1092  135.6755  153.9635 H   0  0  0  0  0  0  0  0  0  0  0  0  # atno 10765 bound_to 10752
  141.1173  133.8589  157.1408 H   0  0  0  0  0  0  0  0  0  0  0  0  # atno 11005 bound_to 11000
  146.0898  140.7669  142.9601 LP  0  0  0  0  0  0  0  0  0  0  0  0  # atno 17320 bound_to 7965
  144.7002  140.3619  143.7162 LP  0  0  0  0  0  0  0  0  0  0  0  0  # atno 17321 bound_to 7965
  140.7667  143.5631  150.9077 LP  0  0  0  0  0  0  0  0  0  0  0  0  # atno 17342 bound_to 10162
  139.9305  143.6498  152.3077 LP  0  0  0  0  0  0  0  0  0  0  0  0  # atno 17343 bound_to 10162
  156.2942  130.3750  149.7812 LP  0  0  0  0  0  0  0  0  0  0  0  0  # atno 17370 bound_to 10713
  156.5462  130.8321  151.3285 LP  0  0  0  0  0  0  0  0  0  0  0  0  # atno 17371 bound_to 10713
  140.0104  134.9990  157.0382 LP  0  0  0  0  0  0  0  0  0  0  0  0  # atno 17394 bound_to 11000
  140.4610  134.1484  155.7191 LP  0  0  0  0  0  0  0  0  0  0  0  0  # atno 17395 bound_to 11000

$$$$
