AV-unprocessed.smi:203|AV-procd|sdf|1592|dock6
  -GOLD-   2262019493D 1   1.00000     0.00000
 Structure written by MMmdl.
 57 61  0  0  0  0  0  0  0  0  1 V2000
  151.2962  137.0398  155.1847 O   0  0  0  0  0  0  0  0  0  0  0  0
  151.0970  137.6859  156.2107 C   0  0  0  0  0  0  0  0  0  0  0  0
  151.9067  138.9124  156.5998 C   0  0  0  0  0  0  0  0  0  0  0  0
  151.4767  139.1493  158.0593 C   0  0  1  0  0  0  0  0  0  0  0  0
  151.4843  140.6279  158.5590 C   0  0  1  0  0  0  0  0  0  0  0  0
  152.8888  141.1143  159.0061 C   0  0  0  0  0  0  0  0  0  0  0  0
  152.8604  142.5706  159.4886 C   0  0  0  0  0  0  0  0  0  0  0  0
  152.2785  143.4709  158.3946 C   0  0  0  0  0  0  0  0  0  0  0  0
  150.8873  142.9733  157.9838 C   0  0  0  0  0  0  0  0  0  0  0  0
  150.9228  141.5699  157.5724 N   0  0  0  0  0  0  0  0  0  0  0  0
  149.7446  141.2301  157.0021 C   0  0  0  0  0  0  0  0  0  0  0  0
  149.7740  140.8577  155.6989 N   0  0  0  0  0  0  0  0  0  0  0  0
  148.6421  140.5112  155.0785 C   0  0  0  0  0  0  0  0  0  0  0  0
  147.3998  140.4744  155.5655 N   0  0  0  0  0  0  0  0  0  0  0  0
  147.3683  140.8588  156.8740 C   0  0  0  0  0  0  0  0  0  0  0  0
  148.4843  141.2526  157.6637 C   0  0  0  0  0  0  0  0  0  0  0  0
  148.0646  141.5846  158.9464 N   0  0  0  0  0  0  0  0  0  0  0  0
  146.7727  141.4025  158.9154 C   0  0  0  0  0  0  0  0  0  0  0  0
  146.2706  140.9725  157.7086 N   0  0  0  0  0  0  0  0  0  0  0  0
  144.8781  140.7139  157.3926 C   0  0  0  0  0  0  0  0  0  0  0  0
  143.9903  141.9699  157.5195 C   0  0  2  0  0  0  0  0  0  0  0  0
  142.7616  141.5594  158.0851 O   0  0  0  0  0  0  0  0  0  0  0  0
  143.7166  142.6923  156.1813 C   0  0  1  0  0  0  0  0  0  0  0  0
  143.3800  144.1786  156.3117 C   0  0  0  0  0  0  0  0  0  0  0  0
  143.7190  144.7386  154.9396 C   0  0  0  0  0  0  0  0  0  0  0  0
  144.6532  143.6877  154.3343 C   0  0  0  0  0  0  0  0  0  0  0  0
  144.8878  142.7564  155.3806 O   0  0  0  0  0  0  0  0  0  0  0  0
  150.1480  138.3819  158.2145 C   0  0  0  0  0  0  0  0  0  0  0  0
  150.1639  137.4250  157.1257 N   0  0  0  0  0  0  0  0  0  0  0  0
  152.9781  138.7296  156.5117 H   0  0  0  0  0  0  0  0  0  0  0  0
  151.6417  139.7260  155.9281 H   0  0  0  0  0  0  0  0  0  0  0  0
  152.2160  138.5966  158.6408 H   0  0  0  0  0  0  0  0  0  0  0  0
  150.8450  140.6719  159.4413 H   0  0  0  0  0  0  0  0  0  0  0  0
  153.2813  140.4966  159.8116 H   0  0  0  0  0  0  0  0  0  0  0  0
  153.6010  141.0370  158.1854 H   0  0  0  0  0  0  0  0  0  0  0  0
  152.2572  142.6488  160.3940 H   0  0  0  0  0  0  0  0  0  0  0  0
  153.8661  142.8998  159.7517 H   0  0  0  0  0  0  0  0  0  0  0  0
  152.2192  144.5011  158.7462 H   0  0  0  0  0  0  0  0  0  0  0  0
  152.9397  143.4741  157.5269 H   0  0  0  0  0  0  0  0  0  0  0  0
  150.1948  143.0867  158.8193 H   0  0  0  0  0  0  0  0  0  0  0  0
  150.5065  143.5933  157.1703 H   0  0  0  0  0  0  0  0  0  0  0  0
  148.7467  140.2231  154.0429 H   0  0  0  0  0  0  0  0  0  0  0  0
  146.1447  141.5867  159.7749 H   0  0  0  0  0  0  0  0  0  0  0  0
  144.8209  140.3088  156.3813 H   0  0  0  0  0  0  0  0  0  0  0  0
  144.5206  139.9295  158.0611 H   0  0  0  0  0  0  0  0  0  0  0  0
  144.4522  142.6710  158.2159 H   0  0  0  0  0  0  0  0  0  0  0  0
  142.5514  140.6994  157.7546 H   0  0  0  0  0  0  0  0  0  0  0  0
  142.9274  142.1811  155.6265 H   0  0  0  0  0  0  0  0  0  0  0  0
  142.3422  144.3553  156.5958 H   0  0  0  0  0  0  0  0  0  0  0  0
  144.0192  144.6425  157.0644 H   0  0  0  0  0  0  0  0  0  0  0  0
  142.8234  144.8473  154.3268 H   0  0  0  0  0  0  0  0  0  0  0  0
  144.1959  145.7161  155.0174 H   0  0  0  0  0  0  0  0  0  0  0  0
  144.1712  143.1778  153.4990 H   0  0  0  0  0  0  0  0  0  0  0  0
  145.5911  144.1148  153.9789 H   0  0  0  0  0  0  0  0  0  0  0  0
  150.0789  137.8780  159.1791 H   0  0  0  0  0  0  0  0  0  0  0  0
  149.2726  139.0198  158.1038 H   0  0  0  0  0  0  0  0  0  0  0  0
  149.5113  136.6566  157.0668 H   0  0  0  0  0  0  0  0  0  0  0  0
  1  2  2  0  0  0  0
  2 29  1  0  0  0  0
  2  3  1  0  0  0  0
  3  4  1  0  0  0  0
  3 30  1  0  0  0  0
  3 31  1  0  0  0  0
  4  5  1  0  0  0  0
  4 28  1  0  0  0  0
  4 32  1  0  0  0  0
  5 10  1  0  0  0  0
  5  6  1  0  0  0  0
  5 33  1  0  0  0  0
  6  7  1  0  0  0  0
  6 34  1  0  0  0  0
  6 35  1  0  0  0  0
  7  8  1  0  0  0  0
  7 36  1  0  0  0  0
  7 37  1  0  0  0  0
  8  9  1  0  0  0  0
  8 38  1  0  0  0  0
  8 39  1  0  0  0  0
  9 10  1  0  0  0  0
  9 40  1  0  0  0  0
  9 41  1  0  0  0  0
 10 11  1  0  0  0  0
 11 16  1  0  0  0  0
 11 12  2  0  0  0  0
 12 13  1  0  0  0  0
 13 14  2  0  0  0  0
 13 42  1  0  0  0  0
 14 15  1  0  0  0  0
 15 19  1  0  0  0  0
 15 16  2  0  0  0  0
 16 17  1  0  0  0  0
 17 18  2  0  0  0  0
 18 19  1  0  0  0  0
 18 43  1  0  0  0  0
 19 20  1  0  0  0  0
 20 21  1  0  0  0  0
 20 44  1  0  0  0  0
 20 45  1  0  0  0  0
 21 22  1  0  0  0  0
 21 23  1  0  0  0  0
 21 46  1  0  0  0  0
 22 47  1  0  0  0  0
 23 27  1  0  0  0  0
 23 24  1  0  0  0  0
 23 48  1  0  0  0  0
 24 25  1  0  0  0  0
 24 49  1  0  0  0  0
 24 50  1  0  0  0  0
 25 26  1  0  0  0  0
 25 51  1  0  0  0  0
 25 52  1  0  0  0  0
 26 27  1  0  0  0  0
 26 53  1  0  0  0  0
 26 54  1  0  0  0  0
 28 29  1  0  0  0  0
 28 55  1  0  0  0  0
 28 56  1  0  0  0  0
 29 57  1  0  0  0  0
M  END
> <s_m_source_file>
AV-unprocessed.smi

> <i_m_source_file_index>
203

> <i_lp_mmshare_version>
43012

> <i_f3d_flags>
0

> <s_epik_input>
Tz1DMVtDSDJdW0NASF0oW0NIMl1bTkhdMSlbQ0BASF0yW0NIMl1bQ0gyXVtDSDJdW0NIMl1OMmMobltjSF1uMyljKGMzNCluW2NIXW40W0NIMl1bQ0BIXShbT0hdKVtDQEBIXTVbQ0gyXVtDSDJdW0NIMl1PNQ==

> <s_epik_cmdline>
J2VwaWtfcHl0aG9uJywgJy1waCcsICc3LjAnLCAnLXRuJywgJzgnLCAnLW1hJywgJzIwMCcsICctbWV0YWxfYmluZGluZycsICctaW1hZScsICc8aW5maWxlLm1hZT4nLCAnLW9tYWUnLCAnPG91dGZpbGUubWFlPic=

> <r_lp_tautomer_probability>
1

> <r_epik_Ionization_Penalty>
0.00175146

> <r_epik_Ionization_Penalty_Charging>
0

> <r_epik_Ionization_Penalty_Neutral>
0.00175146

> <r_epik_State_Penalty>
0.00109045

> <r_epik_Charging_Adjusted_Penalty>
0.00109045

> <i_epik_Tot_Q>
0

> <i_epik_Tot_abs_Q>
0

> <r_epik_Metal_State_Penalty>
-0

> <b_epik_Metal_Only>
0

> <s_lp_Force_Field>
OPLS_2005

> <r_lp_Energy>
55.4973

> <b_lp_Chiralities_Consistent>
1

> <s_lp_Variant>
AV-unprocessed.smi:203-11

> <Gold.Version>
5.8.1

> <Gold.Id.Protein>
6NUR|6NUR_protein|mol2

> <Gold.PLP.Fitness>
44.1608

> <Gold.PLP.PLP>
-40.2304

> <Gold.PLP.part.hbond>
-2.1289

> <Gold.PLP.part.metal>
0.0000

> <Gold.PLP.part.buried>
-8.3323

> <Gold.PLP.part.nonpolar>
-32.0584

> <Gold.PLP.part.repulsive>
0.6932

> <Gold.PLP.ligand.clash>
0.0000

> <Gold.PLP.ligand.torsion>
1.5555

> <Gold.PLP.Chemscore.Hbond>
1.2454

> <Gold.PLP.Chemscore.CHOScore>
1.0000

> <Gold.PLP.Chemscore.Metal>
0.0000

> <Gold.Chemscore.Hbonds>
donor molecule, donor type, donor heavy atom, donor atom, acceptor molecule, acceptor atom, score
      P1  H 10752 10763       L1     1  0.28

> <Gold.PLP.Chemscore.Internal.Correction>
0.3051

> <Gold.Rescore>
     Score         DG    S(hbond)    S(metal)    S(lipo)     H(rot)  DE(clash)    DE(int)     intcor
     10.63     -12.01       0.81        0.00      92.25       2.72       0.20       1.18       ----

> <Gold.Chemscore.Fitness>
10.6328

> <Gold.Chemscore.DG>
-12.0116

> <Gold.Chemscore.ZeroCoef>
-5.4800

> <Gold.Chemscore.Hbond>
0.8067

> <Gold.Chemscore.Metal>
0.0000

> <Gold.Chemscore.Lipo>
92.2477

> <Gold.Chemscore.Internal_Hbond>
0.0000

> <Gold.Chemscore.DEClash>
0.2009

> <Gold.Chemscore.DEInternal>
1.1779

> <Gold.Chemscore.Rot>
2.7171

> <Gold.Chemscore.Internal.Correction>
   9.000000E+99

> <Gold.Chemscore.Hbonds>
donor molecule, donor type, donor heavy atom, donor atom, acceptor molecule, acceptor atom, score
      P1  H 10752 10763       L1     1  0.26

> <Gold.Chemscore.Hbond.Weighted>
-2.6943

> <Gold.Chemscore.Metal.Weighted>
-0.0000

> <Gold.Chemscore.Lipo.Weighted>
-10.7930

> <Gold.Chemscore.Internal_Hbond.Weighted>
0.0000

> <Gold.Chemscore.DEClash.Weighted>
0.2009

> <Gold.Chemscore.DEInternal.Weighted>
1.1779

> <Gold.Chemscore.Rot.Weighted>
6.9557

> <Gold.Chemscore.Internal.Correction.Weighted>
   9.000000E+99

> <Gold.Protein.RotatedTorsions>
[ 6907 6896 6895 6894 ] final   84.43 input  -60.11 | X-H torsion
[ 7974 7965 7964 7962 ] final  -52.38 input  175.53 | X-H torsion
[ 8008 7997 7996 7995 ] final  -14.49 input   59.86 | X-H torsion
[ 10167 10162 10161 10158 ] final   49.47 input  -65.29 | X-H torsion
[ 10718 10713 10712 10709 ] final  139.31 input   66.30 | X-H torsion
[ 10763 10752 10751 10750 ] final   41.53 input  -60.55 | X-H torsion
[ 11005 11000 10999 10996 ] final  -25.92 input  -57.11 | X-H torsion

> <Gold.Protein.ActiveResidues>
 VAL166  LYS551  ARG553  GLY616  TRP617  ASP618  TYR619  PRO620  LYS621  CYS622 
 ASP623  PHE694  ASN695  SER759  ASP760  ASP761  ALA762  ILE779  LEU786  VAL792 
 PHE793  MET794  SER795  GLU796  ALA797  LYS798  CYS799  TRP800  GLU811  SER814 

> <Gold.Protein.RotatedAtoms>
  152.5352  134.2742  159.8982 H   0  0  0  0  0  0  0  0  0  0  0  0  # atno 6907 bound_to 6896
  151.2698  133.4254  159.2628 H   0  0  0  0  0  0  0  0  0  0  0  0  # atno 6908 bound_to 6896
  151.0378  134.9600  159.8202 H   0  0  0  0  0  0  0  0  0  0  0  0  # atno 6909 bound_to 6896
  145.9086  140.7934  142.9707 H   0  0  0  0  0  0  0  0  0  0  0  0  # atno 7974 bound_to 7965
  154.5206  140.2221  155.8983 H   0  0  0  0  0  0  0  0  0  0  0  0  # atno 8008 bound_to 7997
  156.1657  140.3132  155.8850 H   0  0  0  0  0  0  0  0  0  0  0  0  # atno 8009 bound_to 7997
  155.3660  140.0464  157.3036 H   0  0  0  0  0  0  0  0  0  0  0  0  # atno 8010 bound_to 7997
  140.2826  144.3139  150.6260 H   0  0  0  0  0  0  0  0  0  0  0  0  # atno 10167 bound_to 10162
  157.4158  131.1033  151.0406 H   0  0  0  0  0  0  0  0  0  0  0  0  # atno 10718 bound_to 10713
  152.9906  135.6159  154.2802 H   0  0  0  0  0  0  0  0  0  0  0  0  # atno 10763 bound_to 10752
  154.2531  135.2784  155.2810 H   0  0  0  0  0  0  0  0  0  0  0  0  # atno 10764 bound_to 10752
  154.5270  135.5798  153.6785 H   0  0  0  0  0  0  0  0  0  0  0  0  # atno 10765 bound_to 10752
  140.8982  133.7542  156.0508 H   0  0  0  0  0  0  0  0  0  0  0  0  # atno 11005 bound_to 11000
  144.6741  140.1789  143.7407 LP  0  0  0  0  0  0  0  0  0  0  0  0  # atno 17320 bound_to 7965
  145.8701  139.2267  143.1666 LP  0  0  0  0  0  0  0  0  0  0  0  0  # atno 17321 bound_to 7965
  140.5799  143.2173  151.7447 LP  0  0  0  0  0  0  0  0  0  0  0  0  # atno 17342 bound_to 10162
  139.4958  144.4095  152.0096 LP  0  0  0  0  0  0  0  0  0  0  0  0  # atno 17343 bound_to 10162
  157.1354  130.6120  149.5540 LP  0  0  0  0  0  0  0  0  0  0  0  0  # atno 17370 bound_to 10713
  155.9865  130.4899  150.7080 LP  0  0  0  0  0  0  0  0  0  0  0  0  # atno 17371 bound_to 10713
  140.8263  134.3230  157.5364 LP  0  0  0  0  0  0  0  0  0  0  0  0  # atno 17394 bound_to 11000
  139.8738  134.9338  156.3590 LP  0  0  0  0  0  0  0  0  0  0  0  0  # atno 17395 bound_to 11000

$$$$
