AV-unprocessed.smi:3165|AV-procd|sdf|12085|dock10
  -GOLD-   2272017513D 1   1.00000     0.00000
 Structure written by MMmdl.
 38 39  0  0  0  0  0  0  0  0  2 V2000
  149.1990  141.5137  156.0639 C   0  0  0  0  0  0  0  0  0  0  0  0
  150.6987  141.8469  156.1318 C   0  0  2  0  0  0  0  0  0  0  0  0
  151.5560  140.6216  156.5255 C   0  0  0  0  0  0  0  0  0  0  0  0
  151.4586  139.5330  155.5700 N   0  0  0  0  0  0  0  0  0  0  0  0
  152.0976  138.3108  155.5885 C   0  0  0  0  0  0  0  0  0  0  0  0
  151.6987  137.6279  154.4751 C   0  0  0  0  0  0  0  0  0  0  0  0
  150.8087  138.5285  153.8262 C   0  0  0  0  0  0  0  0  0  0  0  0
  150.6694  139.6690  154.4825 N   0  0  0  0  0  0  0  0  0  0  0  0
  150.9088  142.9702  157.0723 N   0  3  0  0  0  0  0  0  0  0  0  0
  150.5087  142.7057  158.4709 C   0  0  0  0  0  0  0  0  0  0  0  0
  151.6689  142.9768  159.4389 C   0  0  2  0  0  0  0  0  0  0  0  0
  152.5424  141.7242  159.6477 C   0  0  0  0  0  0  0  0  0  0  0  0
  153.6316  141.9922  160.6923 C   0  0  0  0  0  0  0  0  0  0  0  0
  152.9924  142.5298  161.9765 C   0  0  0  0  0  0  0  0  0  0  0  0
  152.0936  143.7353  161.6602 C   0  0  0  0  0  0  0  0  0  0  0  0
  151.1134  143.3703  160.6925 O   0  0  0  0  0  0  0  0  0  0  0  0
  148.9899  140.7527  155.3117 H   0  0  0  0  0  0  0  0  0  0  0  0
  148.6130  142.3949  155.7997 H   0  0  0  0  0  0  0  0  0  0  0  0
  148.8311  141.1442  157.0215 H   0  0  0  0  0  0  0  0  0  0  0  0
  150.9989  142.1851  155.1387 H   0  0  0  0  0  0  0  0  0  0  0  0
  152.6089  140.8905  156.6113 H   0  0  0  0  0  0  0  0  0  0  0  0
  151.2511  140.2482  157.5041 H   0  0  0  0  0  0  0  0  0  0  0  0
  152.7736  138.0301  156.3828 H   0  0  0  0  0  0  0  0  0  0  0  0
  151.9985  136.6368  154.1686 H   0  0  0  0  0  0  0  0  0  0  0  0
  150.2649  138.3894  152.9033 H   0  0  0  0  0  0  0  0  0  0  0  0
  151.8966  143.1810  157.0798 H   0  0  0  0  0  0  0  0  0  0  0  0
  149.6486  143.3172  158.7436 H   0  0  0  0  0  0  0  0  0  0  0  0
  150.2007  141.6625  158.5535 H   0  0  0  0  0  0  0  0  0  0  0  0
  152.2857  143.7859  159.0424 H   0  0  0  0  0  0  0  0  0  0  0  0
  151.9197  140.8913  159.9773 H   0  0  0  0  0  0  0  0  0  0  0  0
  152.9988  141.4190  158.7055 H   0  0  0  0  0  0  0  0  0  0  0  0
  154.1938  141.0811  160.8990 H   0  0  0  0  0  0  0  0  0  0  0  0
  154.3441  142.7206  160.3030 H   0  0  0  0  0  0  0  0  0  0  0  0
  152.3975  141.7458  162.4467 H   0  0  0  0  0  0  0  0  0  0  0  0
  153.7639  142.8101  162.6941 H   0  0  0  0  0  0  0  0  0  0  0  0
  151.5871  144.0714  162.5650 H   0  0  0  0  0  0  0  0  0  0  0  0
  152.6849  144.5767  161.2955 H   0  0  0  0  0  0  0  0  0  0  0  0
  150.4125  143.7819  156.7325 H   0  0  0  0  0  0  0  0  0  0  0  0
  1  2  1  0  0  0  0
  1 17  1  0  0  0  0
  1 18  1  0  0  0  0
  1 19  1  0  0  0  0
  2  3  1  0  0  0  0
  2  9  1  0  0  0  0
  2 20  1  0  0  0  0
  3  4  1  0  0  0  0
  3 21  1  0  0  0  0
  3 22  1  0  0  0  0
  4  8  1  0  0  0  0
  4  5  1  0  0  0  0
  5  6  2  0  0  0  0
  5 23  1  0  0  0  0
  6  7  1  0  0  0  0
  6 24  1  0  0  0  0
  7  8  2  0  0  0  0
  7 25  1  0  0  0  0
  9 10  1  0  0  0  0
  9 26  1  0  0  0  0
  9 38  1  0  0  0  0
 10 11  1  0  0  0  0
 10 27  1  0  0  0  0
 10 28  1  0  0  0  0
 11 16  1  0  0  0  0
 11 12  1  0  0  0  0
 11 29  1  0  0  0  0
 12 13  1  0  0  0  0
 12 30  1  0  0  0  0
 12 31  1  0  0  0  0
 13 14  1  0  0  0  0
 13 32  1  0  0  0  0
 13 33  1  0  0  0  0
 14 15  1  0  0  0  0
 14 34  1  0  0  0  0
 14 35  1  0  0  0  0
 15 16  1  0  0  0  0
 15 36  1  0  0  0  0
 15 37  1  0  0  0  0
M  CHG  1   9   1
M  END
> <s_m_source_file>
AV-unprocessed.smi

> <i_m_source_file_index>
3165

> <i_lp_mmshare_version>
43012

> <i_f3d_flags>
0

> <s_epik_input>
bjFbY0hdW2NIXVtjSF1uMVtDSDJdW0NAQEhdKFtDSDNdKVtOSF1bQ0gyXVtDQEBIXTJbQ0gyXVtDSDJdW0NIMl1bQ0gyXU8y

> <s_epik_cmdline>
J2VwaWtfcHl0aG9uJywgJy1waCcsICc3LjAnLCAnLXRuJywgJzgnLCAnLW1hJywgJzIwMCcsICctbWV0YWxfYmluZGluZycsICctaW1hZScsICc8aW5maWxlLm1hZT4nLCAnLW9tYWUnLCAnPG91dGZpbGUubWFlPic=

> <r_lp_tautomer_probability>
1

> <r_epik_Ionization_Penalty>
0.00849196

> <r_epik_Ionization_Penalty_Charging>
0.00848754

> <r_epik_Ionization_Penalty_Neutral>
4.42049e-06

> <r_epik_State_Penalty>
0.00639836

> <r_epik_Charging_Adjusted_Penalty>
0.0148859

> <i_epik_Tot_Q>
1

> <i_epik_Tot_abs_Q>
1

> <r_epik_Metal_State_Penalty>
0.00639878

> <b_epik_Metal_Only>
0

> <s_lp_Force_Field>
OPLS_2005

> <r_lp_Energy>
12.7964

> <b_lp_Chiralities_Consistent>
1

> <s_lp_Variant>
AV-unprocessed.smi:3165-1

> <Gold.Version>
5.8.1

> <Gold.Id.Protein>
6NUR|6NUR_protein|mol2

> <Gold.PLP.Fitness>
52.7550

> <Gold.PLP.PLP>
-40.0886

> <Gold.PLP.part.hbond>
-3.0000

> <Gold.PLP.part.metal>
0.0000

> <Gold.PLP.part.buried>
-5.4201

> <Gold.PLP.part.nonpolar>
-32.4967

> <Gold.PLP.part.repulsive>
0.2373

> <Gold.PLP.ligand.clash>
0.0000

> <Gold.PLP.ligand.torsion>
0.7342

> <Gold.PLP.Chemscore.Hbond>
2.9325

> <Gold.PLP.Chemscore.CHOScore>
1.7710

> <Gold.PLP.Chemscore.Metal>
0.0000

> <Gold.Chemscore.Hbonds>
donor molecule, donor type, donor heavy atom, donor atom, acceptor molecule, acceptor atom, score
      L1  H     9    38       P1  8028  1.79
      P1  H  7989  7998       L1     8  1.00
      L1  C     7    25       P1  7948  0.57
      L1  C     7    25       P1  7949  0.01
      L1  C     7    25       P1  7957  1.00

> <Gold.PLP.Chemscore.Internal.Correction>
0.0244

> <Gold.Rescore>
     Score         DG    S(hbond)    S(metal)    S(lipo)     H(rot)  DE(clash)    DE(int)     intcor
     15.44     -19.57       1.76        0.00     106.24       1.64       1.76       2.37       ----

> <Gold.Chemscore.Fitness>
15.4411

> <Gold.Chemscore.DG>
-19.5677

> <Gold.Chemscore.ZeroCoef>
-5.4800

> <Gold.Chemscore.Hbond>
1.7566

> <Gold.Chemscore.Metal>
0.0000

> <Gold.Chemscore.Lipo>
106.2428

> <Gold.Chemscore.Internal_Hbond>
0.0000

> <Gold.Chemscore.DEClash>
1.7584

> <Gold.Chemscore.DEInternal>
2.3682

> <Gold.Chemscore.Rot>
1.6444

> <Gold.Chemscore.Internal.Correction>
   9.000000E+99

> <Gold.Chemscore.Hbonds>
donor molecule, donor type, donor heavy atom, donor atom, acceptor molecule, acceptor atom, score
      L1  H     9    38       P1  8028  0.85
      P1  H  7989  7998       L1     8  0.13

> <Gold.Chemscore.Hbond.Weighted>
-5.8670

> <Gold.Chemscore.Metal.Weighted>
-0.0000

> <Gold.Chemscore.Lipo.Weighted>
-12.4304

> <Gold.Chemscore.Internal_Hbond.Weighted>
0.0000

> <Gold.Chemscore.DEClash.Weighted>
1.7584

> <Gold.Chemscore.DEInternal.Weighted>
2.3682

> <Gold.Chemscore.Rot.Weighted>
4.2097

> <Gold.Chemscore.Internal.Correction.Weighted>
   9.000000E+99

> <Gold.Protein.RotatedTorsions>
[ 6907 6896 6895 6894 ] final  -91.13 input  -60.11 | X-H torsion
[ 7974 7965 7964 7962 ] final   54.97 input  175.53 | X-H torsion
[ 8008 7997 7996 7995 ] final    2.35 input   59.86 | X-H torsion
[ 10167 10162 10161 10158 ] final   -2.74 input  -65.29 | X-H torsion
[ 10718 10713 10712 10709 ] final -137.75 input   66.30 | X-H torsion
[ 10763 10752 10751 10750 ] final   84.01 input  -60.55 | X-H torsion
[ 11005 11000 10999 10996 ] final  -88.01 input  -57.11 | X-H torsion

> <Gold.Protein.ActiveResidues>
 VAL166  LYS551  ARG553  GLY616  TRP617  ASP618  TYR619  PRO620  LYS621  CYS622 
 ASP623  PHE694  ASN695  SER759  ASP760  ASP761  ALA762  ILE779  LEU786  VAL792 
 PHE793  MET794  SER795  GLU796  ALA797  LYS798  CYS799  TRP800  GLU811  SER814 

> <Gold.Protein.RotatedAtoms>
  150.6889  134.2324  159.4439 H   0  0  0  0  0  0  0  0  0  0  0  0  # atno 6907 bound_to 6896
  152.0274  134.9785  160.0581 H   0  0  0  0  0  0  0  0  0  0  0  0  # atno 6908 bound_to 6896
  152.1338  133.4388  159.4770 H   0  0  0  0  0  0  0  0  0  0  0  0  # atno 6909 bound_to 6896
  145.9553  139.4009  143.0281 H   0  0  0  0  0  0  0  0  0  0  0  0  # atno 7974 bound_to 7965
  154.6906  140.2652  155.6817 H   0  0  0  0  0  0  0  0  0  0  0  0  # atno 8008 bound_to 7997
  156.2730  140.2792  156.1405 H   0  0  0  0  0  0  0  0  0  0  0  0  # atno 8009 bound_to 7997
  155.0903  140.0373  157.2656 H   0  0  0  0  0  0  0  0  0  0  0  0  # atno 8010 bound_to 7997
  140.6863  143.6621  150.8257 H   0  0  0  0  0  0  0  0  0  0  0  0  # atno 10167 bound_to 10162
  156.2916  130.7378  151.1405 H   0  0  0  0  0  0  0  0  0  0  0  0  # atno 10718 bound_to 10713
  153.1343  135.4670  154.9397 H   0  0  0  0  0  0  0  0  0  0  0  0  # atno 10763 bound_to 10752
  154.7692  135.3153  154.8227 H   0  0  0  0  0  0  0  0  0  0  0  0  # atno 10764 bound_to 10752
  153.8763  135.6898  153.4824 H   0  0  0  0  0  0  0  0  0  0  0  0  # atno 10765 bound_to 10752
  141.1608  133.7544  156.9389 H   0  0  0  0  0  0  0  0  0  0  0  0  # atno 11005 bound_to 11000
  145.8114  140.9724  143.0946 LP  0  0  0  0  0  0  0  0  0  0  0  0  # atno 17320 bound_to 7965
  144.6804  139.9926  143.7484 LP  0  0  0  0  0  0  0  0  0  0  0  0  # atno 17321 bound_to 7965
  140.0329  143.5425  152.2752 LP  0  0  0  0  0  0  0  0  0  0  0  0  # atno 17342 bound_to 10162
  139.6224  144.7631  151.2711 LP  0  0  0  0  0  0  0  0  0  0  0  0  # atno 17343 bound_to 10162
  157.7344  131.0582  150.5527 LP  0  0  0  0  0  0  0  0  0  0  0  0  # atno 17370 bound_to 10713
  156.5644  130.4264  149.6048 LP  0  0  0  0  0  0  0  0  0  0  0  0  # atno 17371 bound_to 10713
  140.1335  134.9340  157.2370 LP  0  0  0  0  0  0  0  0  0  0  0  0  # atno 17394 bound_to 11000
  140.2924  134.3225  155.7311 LP  0  0  0  0  0  0  0  0  0  0  0  0  # atno 17395 bound_to 11000

$$$$
