AV-unprocessed.smi:171|AV-procd|sdf|1414|dock5
  -GOLD-   2262019173D 1   1.00000     0.00000
 Structure written by MMmdl.
 56 59  0  0  0  0  0  0  0  0  1 V2000
  152.8808  142.3550  160.9495 C   0  0  0  0  0  0  0  0  0  0  0  0
  152.3615  142.7507  159.5573 C   0  0  0  0  0  0  0  0  0  0  0  0
  152.0862  144.2621  159.5043 C   0  0  0  0  0  0  0  0  0  0  0  0
  151.1029  141.9452  159.1369 C   0  0  0  0  0  0  0  0  0  0  0  0
  150.9962  141.5602  157.6321 C   0  0  2  0  0  0  0  0  0  0  0  0
  150.7536  142.7800  156.7139 C   0  0  0  0  0  0  0  0  0  0  0  0
  151.4207  143.8018  156.8649 O   0  0  0  0  0  0  0  0  0  0  0  0
  149.8329  142.6919  155.7385 N   0  0  0  0  0  0  0  0  0  0  0  0
  148.9877  141.5312  155.4734 C   0  0  0  0  0  0  0  0  0  0  0  0
  149.5712  140.2380  156.0597 C   0  0  0  0  0  0  0  0  0  0  0  0
  150.0238  140.4741  157.4241 N   0  0  0  0  0  0  0  0  0  0  0  0
  150.2396  139.3271  158.1059 C   0  0  0  0  0  0  0  0  0  0  0  0
  151.4996  138.9816  158.4779 N   0  0  0  0  0  0  0  0  0  0  0  0
  151.7021  137.8582  159.1735 C   0  0  0  0  0  0  0  0  0  0  0  0
  150.8049  136.9635  159.5951 N   0  0  0  0  0  0  0  0  0  0  0  0
  149.5408  137.3109  159.2166 C   0  0  0  0  0  0  0  0  0  0  0  0
  149.1755  138.4604  158.4644 C   0  0  0  0  0  0  0  0  0  0  0  0
  147.8027  138.4829  158.2571 N   0  0  0  0  0  0  0  0  0  0  0  0
  147.3762  137.4107  158.8663 C   0  0  0  0  0  0  0  0  0  0  0  0
  148.3506  136.6567  159.4822 N   0  0  0  0  0  0  0  0  0  0  0  0
  148.1554  135.4344  160.2456 C   0  0  0  0  0  0  0  0  0  0  0  0
  147.3637  135.6540  161.5620 C   0  0  1  0  0  0  0  0  0  0  0  0
  148.0734  136.5925  162.3530 O   0  0  0  0  0  0  0  0  0  0  0  0
  145.9566  136.2049  161.3408 C   0  0  0  0  0  0  0  0  0  0  0  0
  145.1770  135.6474  162.5215 C   0  0  0  0  0  0  0  0  0  0  0  0
  145.7051  134.3391  162.6424 O   0  0  0  0  0  0  0  0  0  0  0  0
  147.1142  134.3920  162.4362 C   0  0  1  0  0  0  0  0  0  0  0  0
  147.5545  133.0419  161.8492 C   0  0  0  0  0  0  0  0  0  0  0  0
  152.1208  142.5096  161.7160 H   0  0  0  0  0  0  0  0  0  0  0  0
  153.7527  142.9490  161.2243 H   0  0  0  0  0  0  0  0  0  0  0  0
  153.1841  141.3099  160.9856 H   0  0  0  0  0  0  0  0  0  0  0  0
  153.1655  142.5614  158.8470 H   0  0  0  0  0  0  0  0  0  0  0  0
  151.2877  144.5445  160.1911 H   0  0  0  0  0  0  0  0  0  0  0  0
  151.7906  144.5738  158.5017 H   0  0  0  0  0  0  0  0  0  0  0  0
  152.9750  144.8341  159.7718 H   0  0  0  0  0  0  0  0  0  0  0  0
  151.0148  141.0545  159.7603 H   0  0  0  0  0  0  0  0  0  0  0  0
  150.2138  142.5242  159.3898 H   0  0  0  0  0  0  0  0  0  0  0  0
  151.9739  141.1858  157.3241 H   0  0  0  0  0  0  0  0  0  0  0  0
  149.7013  143.4968  155.1430 H   0  0  0  0  0  0  0  0  0  0  0  0
  148.0090  141.7252  155.9137 H   0  0  0  0  0  0  0  0  0  0  0  0
  148.8368  141.4280  154.3987 H   0  0  0  0  0  0  0  0  0  0  0  0
  148.8209  139.4459  156.0269 H   0  0  0  0  0  0  0  0  0  0  0  0
  150.4170  139.9028  155.4568 H   0  0  0  0  0  0  0  0  0  0  0  0
  152.7290  137.6491  159.4348 H   0  0  0  0  0  0  0  0  0  0  0  0
  146.3296  137.1447  158.8922 H   0  0  0  0  0  0  0  0  0  0  0  0
  147.6368  134.7241  159.6012 H   0  0  0  0  0  0  0  0  0  0  0  0
  149.1353  135.0042  160.4565 H   0  0  0  0  0  0  0  0  0  0  0  0
  147.5331  136.8331  163.0900 H   0  0  0  0  0  0  0  0  0  0  0  0
  145.9126  137.2929  161.2704 H   0  0  0  0  0  0  0  0  0  0  0  0
  145.5345  135.7958  160.4220 H   0  0  0  0  0  0  0  0  0  0  0  0
  145.3770  136.2147  163.4317 H   0  0  0  0  0  0  0  0  0  0  0  0
  144.1009  135.6331  162.3486 H   0  0  0  0  0  0  0  0  0  0  0  0
  147.5834  134.5097  163.4149 H   0  0  0  0  0  0  0  0  0  0  0  0
  148.6305  133.0138  161.6765 H   0  0  0  0  0  0  0  0  0  0  0  0
  147.0503  132.8307  160.9060 H   0  0  0  0  0  0  0  0  0  0  0  0
  147.3143  132.2295  162.5354 H   0  0  0  0  0  0  0  0  0  0  0  0
  1  2  1  0  0  0  0
  1 29  1  0  0  0  0
  1 30  1  0  0  0  0
  1 31  1  0  0  0  0
  2  3  1  0  0  0  0
  2  4  1  0  0  0  0
  2 32  1  0  0  0  0
  3 33  1  0  0  0  0
  3 34  1  0  0  0  0
  3 35  1  0  0  0  0
  4  5  1  0  0  0  0
  4 36  1  0  0  0  0
  4 37  1  0  0  0  0
  5 11  1  0  0  0  0
  5  6  1  0  0  0  0
  5 38  1  0  0  0  0
  6  7  2  0  0  0  0
  6  8  1  0  0  0  0
  8  9  1  0  0  0  0
  8 39  1  0  0  0  0
  9 10  1  0  0  0  0
  9 40  1  0  0  0  0
  9 41  1  0  0  0  0
 10 11  1  0  0  0  0
 10 42  1  0  0  0  0
 10 43  1  0  0  0  0
 11 12  1  0  0  0  0
 12 17  1  0  0  0  0
 12 13  2  0  0  0  0
 13 14  1  0  0  0  0
 14 15  2  0  0  0  0
 14 44  1  0  0  0  0
 15 16  1  0  0  0  0
 16 20  1  0  0  0  0
 16 17  2  0  0  0  0
 17 18  1  0  0  0  0
 18 19  2  0  0  0  0
 19 20  1  0  0  0  0
 19 45  1  0  0  0  0
 20 21  1  0  0  0  0
 21 22  1  0  0  0  0
 21 46  1  0  0  0  0
 21 47  1  0  0  0  0
 22 27  1  0  0  0  0
 22 23  1  0  0  0  0
 22 24  1  0  0  0  0
 23 48  1  0  0  0  0
 24 25  1  0  0  0  0
 24 49  1  0  0  0  0
 24 50  1  0  0  0  0
 25 26  1  0  0  0  0
 25 51  1  0  0  0  0
 25 52  1  0  0  0  0
 26 27  1  0  0  0  0
 27 28  1  0  0  0  0
 27 53  1  0  0  0  0
 28 54  1  0  0  0  0
 28 55  1  0  0  0  0
 28 56  1  0  0  0  0
M  END
> <s_m_source_file>
AV-unprocessed.smi

> <i_m_source_file_index>
171

> <i_lp_mmshare_version>
43012

> <i_f3d_flags>
0

> <s_epik_input>
W0NIM11bQ0hdKFtDSDNdKVtDSDJdW0NAQEhdMUMoPU8pW05IXVtDSDJdW0NIMl1OMWMobltjSF1uMiljKGMyMyluW2NIXW4zW0NIMl1bQ0BAXTQoW09IXSlbQ0gyXVtDSDJdT1tDQEhdNFtDSDNd

> <s_epik_cmdline>
J2VwaWtfcHl0aG9uJywgJy1waCcsICc3LjAnLCAnLXRuJywgJzgnLCAnLW1hJywgJzIwMCcsICctbWV0YWxfYmluZGluZycsICctaW1hZScsICc8aW5maWxlLm1hZT4nLCAnLW9tYWUnLCAnPG91dGZpbGUubWFlPic=

> <r_lp_tautomer_probability>
1

> <r_epik_Ionization_Penalty>
0.000670584

> <r_epik_Ionization_Penalty_Charging>
0

> <r_epik_Ionization_Penalty_Neutral>
0.000670584

> <r_epik_State_Penalty>
0.000304767

> <r_epik_Charging_Adjusted_Penalty>
0.000304767

> <i_epik_Tot_Q>
0

> <i_epik_Tot_abs_Q>
0

> <r_epik_Metal_State_Penalty>
-0

> <b_epik_Metal_Only>
0

> <s_lp_Force_Field>
OPLS_2005

> <r_lp_Energy>
42.1077

> <b_lp_Chiralities_Consistent>
1

> <s_lp_Variant>
AV-unprocessed.smi:171-1

> <Gold.Version>
5.8.1

> <Gold.Id.Protein>
6NUR|6NUR_protein|mol2

> <Gold.PLP.Fitness>
51.9028

> <Gold.PLP.PLP>
-46.4327

> <Gold.PLP.part.hbond>
-3.0166

> <Gold.PLP.part.metal>
0.0000

> <Gold.PLP.part.buried>
-4.6423

> <Gold.PLP.part.nonpolar>
-39.6565

> <Gold.PLP.part.repulsive>
0.3515

> <Gold.PLP.ligand.clash>
0.0000

> <Gold.PLP.ligand.torsion>
1.0199

> <Gold.PLP.Chemscore.Hbond>
2.3520

> <Gold.PLP.Chemscore.CHOScore>
0.0000

> <Gold.PLP.Chemscore.Metal>
0.0000

> <Gold.Chemscore.Hbonds>
donor molecule, donor type, donor heavy atom, donor atom, acceptor molecule, acceptor atom, score
      L1  H     8    39       P1  8028  0.43
      P1  H  6896  6908       L1    15  1.00
      P1  H  6931  6943       L1    23  1.00

> <Gold.PLP.Chemscore.Internal.Correction>
0.4539

> <Gold.Rescore>
     Score         DG    S(hbond)    S(metal)    S(lipo)     H(rot)  DE(clash)    DE(int)     intcor
     15.07     -17.35       1.97        0.00     102.36       2.61       0.83       1.45       ----

> <Gold.Chemscore.Fitness>
15.0727

> <Gold.Chemscore.DG>
-17.3493

> <Gold.Chemscore.ZeroCoef>
-5.4800

> <Gold.Chemscore.Hbond>
1.9665

> <Gold.Chemscore.Metal>
0.0000

> <Gold.Chemscore.Lipo>
102.3591

> <Gold.Chemscore.Internal_Hbond>
0.0000

> <Gold.Chemscore.DEClash>
0.8286

> <Gold.Chemscore.DEInternal>
1.4480

> <Gold.Chemscore.Rot>
2.6074

> <Gold.Chemscore.Internal.Correction>
   9.000000E+99

> <Gold.Chemscore.Hbonds>
donor molecule, donor type, donor heavy atom, donor atom, acceptor molecule, acceptor atom, score
      L1  H     8    39       P1  8028  0.40
      P1  H  6896  6908       L1    15  0.96
      P1  H  6931  6943       L1    23  0.39

> <Gold.Chemscore.Hbond.Weighted>
-6.5681

> <Gold.Chemscore.Metal.Weighted>
-0.0000

> <Gold.Chemscore.Lipo.Weighted>
-11.9760

> <Gold.Chemscore.Internal_Hbond.Weighted>
0.0000

> <Gold.Chemscore.DEClash.Weighted>
0.8286

> <Gold.Chemscore.DEInternal.Weighted>
1.4480

> <Gold.Chemscore.Rot.Weighted>
6.6748

> <Gold.Chemscore.Internal.Correction.Weighted>
   9.000000E+99

> <Gold.Protein.RotatedTorsions>
[ 6907 6896 6895 6894 ] final -131.64 input  -60.11 | X-H torsion
[ 7974 7965 7964 7962 ] final  -64.68 input  175.53 | X-H torsion
[ 8008 7997 7996 7995 ] final   69.86 input   59.86 | X-H torsion
[ 10167 10162 10161 10158 ] final   76.85 input  -65.29 | X-H torsion
[ 10718 10713 10712 10709 ] final  -72.44 input   66.30 | X-H torsion
[ 10763 10752 10751 10750 ] final  139.80 input  -60.55 | X-H torsion
[ 11005 11000 10999 10996 ] final  -30.79 input  -57.11 | X-H torsion

> <Gold.Protein.ActiveResidues>
 VAL166  LYS551  ARG553  GLY616  TRP617  ASP618  TYR619  PRO620  LYS621  CYS622 
 ASP623  PHE694  ASN695  SER759  ASP760  ASP761  ALA762  ILE779  LEU786  VAL792 
 PHE793  MET794  SER795  GLU796  ALA797  LYS798  CYS799  TRP800  GLU811  SER814 

> <Gold.Protein.RotatedAtoms>
  150.9533  133.6525  159.2767 H   0  0  0  0  0  0  0  0  0  0  0  0  # atno 6907 bound_to 6896
  151.3873  135.0949  159.9525 H   0  0  0  0  0  0  0  0  0  0  0  0  # atno 6908 bound_to 6896
  152.5119  133.9055  159.7517 H   0  0  0  0  0  0  0  0  0  0  0  0  # atno 6909 bound_to 6896
  145.7637  140.8848  143.0416 H   0  0  0  0  0  0  0  0  0  0  0  0  # atno 7974 bound_to 7965
  155.7301  140.3492  155.5055 H   0  0  0  0  0  0  0  0  0  0  0  0  # atno 8008 bound_to 7997
  155.9191  140.1064  157.1242 H   0  0  0  0  0  0  0  0  0  0  0  0  # atno 8009 bound_to 7997
  154.4067  140.1253  156.4642 H   0  0  0  0  0  0  0  0  0  0  0  0  # atno 8010 bound_to 7997
  139.9878  144.5779  150.7844 H   0  0  0  0  0  0  0  0  0  0  0  0  # atno 10167 bound_to 10162
  156.0320  130.4372  150.2594 H   0  0  0  0  0  0  0  0  0  0  0  0  # atno 10718 bound_to 10713
  153.9121  135.3010  155.3448 H   0  0  0  0  0  0  0  0  0  0  0  0  # atno 10763 bound_to 10752
  154.7618  135.4930  153.9482 H   0  0  0  0  0  0  0  0  0  0  0  0  # atno 10764 bound_to 10752
  153.1187  135.6777  153.9474 H   0  0  0  0  0  0  0  0  0  0  0  0  # atno 10765 bound_to 10752
  140.9413  133.7277  156.1080 H   0  0  0  0  0  0  0  0  0  0  0  0  # atno 11005 bound_to 11000
  144.6825  139.9759  143.7483 LP  0  0  0  0  0  0  0  0  0  0  0  0  # atno 17320 bound_to 7965
  146.0238  139.3274  143.0796 LP  0  0  0  0  0  0  0  0  0  0  0  0  # atno 17321 bound_to 7965
  140.7466  143.2893  151.3376 LP  0  0  0  0  0  0  0  0  0  0  0  0  # atno 17342 bound_to 10162
  139.6362  144.0626  152.2517 LP  0  0  0  0  0  0  0  0  0  0  0  0  # atno 17343 bound_to 10162
  157.0695  131.0113  151.3195 LP  0  0  0  0  0  0  0  0  0  0  0  0  # atno 17370 bound_to 10713
  157.5010  130.7880  149.7604 LP  0  0  0  0  0  0  0  0  0  0  0  0  # atno 17371 bound_to 10713
  140.7730  134.3811  157.5504 LP  0  0  0  0  0  0  0  0  0  0  0  0  # atno 17394 bound_to 11000
  139.8821  134.9034  156.2854 LP  0  0  0  0  0  0  0  0  0  0  0  0  # atno 17395 bound_to 11000

$$$$
