AV-unprocessed.smi:3112|AV-procd|sdf|11848|dock1
  -GOLD-   2272017233D 1   1.00000     0.00000
 Structure written by MMmdl.
 36 36  0  0  0  0  0  0  0  0  1 V2000
  146.7797  141.8615  154.3014 C   0  0  0  0  0  0  0  0  0  0  0  0
  147.8689  140.9032  153.8003 C   0  0  0  0  0  0  0  0  0  0  0  0
  149.2844  141.2787  154.2825 C   0  0  2  0  0  0  0  0  0  0  0  0
  150.2082  140.3742  153.7127 O   0  0  0  0  0  0  0  0  0  0  0  0
  149.4404  141.1964  155.8102 C   0  0  0  0  0  0  0  0  0  0  0  0
  150.3743  142.2072  156.3030 N   0  0  0  0  0  0  0  0  0  0  0  0
  150.7429  142.1241  157.7239 C   0  0  2  0  0  0  0  0  0  0  0  0
  149.4575  142.2566  158.5576 C   0  0  0  0  0  0  0  0  0  0  0  0
  151.8236  143.1506  158.1851 C   0  0  1  0  0  0  0  0  0  0  0  0
  151.4248  144.6284  157.9900 C   0  0  0  0  0  0  0  0  0  0  0  0
  152.3739  142.8699  159.5103 N   0  0  0  0  0  0  0  0  0  0  0  0
  153.6197  142.3624  159.8202 C   0  0  0  0  0  0  0  0  0  0  0  0
  153.6891  142.2361  161.1778 C   0  0  0  0  0  0  0  0  0  0  0  0
  152.4175  142.6899  161.6231 C   0  0  0  0  0  0  0  0  0  0  0  0
  151.6335  143.0644  160.6263 N   0  0  0  0  0  0  0  0  0  0  0  0
  145.7947  141.5367  153.9660 H   0  0  0  0  0  0  0  0  0  0  0  0
  146.9363  142.8744  153.9300 H   0  0  0  0  0  0  0  0  0  0  0  0
  146.7622  141.9016  155.3908 H   0  0  0  0  0  0  0  0  0  0  0  0
  147.6204  139.9003  154.1485 H   0  0  0  0  0  0  0  0  0  0  0  0
  147.8455  140.8584  152.7106 H   0  0  0  0  0  0  0  0  0  0  0  0
  149.5427  142.2835  153.9445 H   0  0  0  0  0  0  0  0  0  0  0  0
  149.9127  140.1528  152.8428 H   0  0  0  0  0  0  0  0  0  0  0  0
  148.4667  141.3103  156.2882 H   0  0  0  0  0  0  0  0  0  0  0  0
  149.8047  140.2029  156.0612 H   0  0  0  0  0  0  0  0  0  0  0  0
  149.9998  143.1301  156.1085 H   0  0  0  0  0  0  0  0  0  0  0  0
  151.1277  141.1234  157.9240 H   0  0  0  0  0  0  0  0  0  0  0  0
  149.6626  142.1504  159.6233 H   0  0  0  0  0  0  0  0  0  0  0  0
  148.7361  141.4837  158.2896 H   0  0  0  0  0  0  0  0  0  0  0  0
  148.9754  143.2224  158.4050 H   0  0  0  0  0  0  0  0  0  0  0  0
  152.6633  143.0275  157.4994 H   0  0  0  0  0  0  0  0  0  0  0  0
  151.1103  144.8130  156.9626 H   0  0  0  0  0  0  0  0  0  0  0  0
  152.2722  145.2845  158.1910 H   0  0  0  0  0  0  0  0  0  0  0  0
  150.6134  144.9460  158.6410 H   0  0  0  0  0  0  0  0  0  0  0  0
  154.3469  142.1347  159.0549 H   0  0  0  0  0  0  0  0  0  0  0  0
  154.5201  141.8712  161.7629 H   0  0  0  0  0  0  0  0  0  0  0  0
  152.0420  142.7563  162.6335 H   0  0  0  0  0  0  0  0  0  0  0  0
  1  2  1  0  0  0  0
  1 16  1  0  0  0  0
  1 17  1  0  0  0  0
  1 18  1  0  0  0  0
  2  3  1  0  0  0  0
  2 19  1  0  0  0  0
  2 20  1  0  0  0  0
  3  4  1  0  0  0  0
  3  5  1  0  0  0  0
  3 21  1  0  0  0  0
  4 22  1  0  0  0  0
  5  6  1  0  0  0  0
  5 23  1  0  0  0  0
  5 24  1  0  0  0  0
  6  7  1  0  0  0  0
  6 25  1  0  0  0  0
  7  8  1  0  0  0  0
  7  9  1  0  0  0  0
  7 26  1  0  0  0  0
  8 27  1  0  0  0  0
  8 28  1  0  0  0  0
  8 29  1  0  0  0  0
  9 10  1  0  0  0  0
  9 11  1  0  0  0  0
  9 30  1  0  0  0  0
 10 31  1  0  0  0  0
 10 32  1  0  0  0  0
 10 33  1  0  0  0  0
 11 15  1  0  0  0  0
 11 12  1  0  0  0  0
 12 13  2  0  0  0  0
 12 34  1  0  0  0  0
 13 14  1  0  0  0  0
 13 35  1  0  0  0  0
 14 15  2  0  0  0  0
 14 36  1  0  0  0  0
M  END
> <s_m_source_file>
AV-unprocessed.smi

> <i_m_source_file_index>
3112

> <i_lp_mmshare_version>
43012

> <i_f3d_flags>
0

> <s_epik_input>
W0NIM11bQ0gyXVtDQEhdKFtPSF0pW0NIMl1bTkhdW0NASF0oW0NIM10pW0NASF0oW0NIM10pbjFbY0hdW2NIXVtjSF1uMQ==

> <s_epik_cmdline>
J2VwaWtfcHl0aG9uJywgJy1waCcsICc3LjAnLCAnLXRuJywgJzgnLCAnLW1hJywgJzIwMCcsICctbWV0YWxfYmluZGluZycsICctaW1hZScsICc8aW5maWxlLm1hZT4nLCAnLW9tYWUnLCAnPG91dGZpbGUubWFlPic=

> <r_lp_tautomer_probability>
1

> <r_epik_Ionization_Penalty>
2.16876

> <r_epik_Ionization_Penalty_Charging>
0

> <r_epik_Ionization_Penalty_Neutral>
2.16876

> <r_epik_State_Penalty>
2.30854

> <r_epik_Charging_Adjusted_Penalty>
2.30854

> <i_epik_Tot_Q>
0

> <i_epik_Tot_abs_Q>
0

> <r_epik_Metal_State_Penalty>
2.3073

> <b_epik_Metal_Only>
0

> <s_lp_Force_Field>
OPLS_2005

> <r_lp_Energy>
16.8249

> <b_lp_Chiralities_Consistent>
1

> <s_lp_Variant>
AV-unprocessed.smi:3112-13

> <Gold.Version>
5.8.1

> <Gold.Id.Protein>
6NUR|6NUR_protein|mol2

> <Gold.PLP.Fitness>
49.0575

> <Gold.PLP.PLP>
-41.5759

> <Gold.PLP.part.hbond>
-3.1394

> <Gold.PLP.part.metal>
0.0000

> <Gold.PLP.part.buried>
-5.2690

> <Gold.PLP.part.nonpolar>
-33.0228

> <Gold.PLP.part.repulsive>
0.0819

> <Gold.PLP.ligand.clash>
0.0000

> <Gold.PLP.ligand.torsion>
0.6681

> <Gold.PLP.Chemscore.Hbond>
2.8160

> <Gold.PLP.Chemscore.CHOScore>
0.0000

> <Gold.PLP.Chemscore.Metal>
0.0000

> <Gold.Chemscore.Hbonds>
donor molecule, donor type, donor heavy atom, donor atom, acceptor molecule, acceptor atom, score
      L1  H     4    22       P1  7957  1.00
      L1  H     6    25       P1  8028  1.00
      P1  H  7989  7998       L1     4  0.65

> <Gold.PLP.Chemscore.Internal.Correction>
0.3698

> <Gold.Rescore>
     Score         DG    S(hbond)    S(metal)    S(lipo)     H(rot)  DE(clash)    DE(int)     intcor
     16.55     -16.92       2.00        0.00      91.17       2.31       0.05       0.32       ----

> <Gold.Chemscore.Fitness>
16.5541

> <Gold.Chemscore.DG>
-16.9190

> <Gold.Chemscore.ZeroCoef>
-5.4800

> <Gold.Chemscore.Hbond>
2.0025

> <Gold.Chemscore.Metal>
0.0000

> <Gold.Chemscore.Lipo>
91.1654

> <Gold.Chemscore.Internal_Hbond>
0.0000

> <Gold.Chemscore.DEClash>
0.0473

> <Gold.Chemscore.DEInternal>
0.3177

> <Gold.Chemscore.Rot>
2.3108

> <Gold.Chemscore.Internal.Correction>
   9.000000E+99

> <Gold.Chemscore.Hbonds>
donor molecule, donor type, donor heavy atom, donor atom, acceptor molecule, acceptor atom, score
      L1  H     4    22       P1  7957  1.00
      L1  H     6    25       P1  8028  0.97
      P1  H  7989  7998       L1     4  0.20

> <Gold.Chemscore.Hbond.Weighted>
-6.6883

> <Gold.Chemscore.Metal.Weighted>
-0.0000

> <Gold.Chemscore.Lipo.Weighted>
-10.6664

> <Gold.Chemscore.Internal_Hbond.Weighted>
0.0000

> <Gold.Chemscore.DEClash.Weighted>
0.0473

> <Gold.Chemscore.DEInternal.Weighted>
0.3177

> <Gold.Chemscore.Rot.Weighted>
5.9157

> <Gold.Chemscore.Internal.Correction.Weighted>
   9.000000E+99

> <Gold.Protein.RotatedTorsions>
[ 6907 6896 6895 6894 ] final  172.15 input  -60.11 | X-H torsion
[ 7974 7965 7964 7962 ] final  -80.86 input  175.53 | X-H torsion
[ 8008 7997 7996 7995 ] final   25.98 input   59.86 | X-H torsion
[ 10167 10162 10161 10158 ] final  101.39 input  -65.29 | X-H torsion
[ 10718 10713 10712 10709 ] final  -46.69 input   66.30 | X-H torsion
[ 10763 10752 10751 10750 ] final   36.73 input  -60.55 | X-H torsion
[ 11005 11000 10999 10996 ] final  100.30 input  -57.11 | X-H torsion

> <Gold.Protein.ActiveResidues>
 VAL166  LYS551  ARG553  GLY616  TRP617  ASP618  TYR619  PRO620  LYS621  CYS622 
 ASP623  PHE694  ASN695  SER759  ASP760  ASP761  ALA762  ILE779  LEU786  VAL792 
 PHE793  MET794  SER795  GLU796  ALA797  LYS798  CYS799  TRP800  GLU811  SER814 

> <Gold.Protein.RotatedAtoms>
  151.7889  133.3357  159.3492 H   0  0  0  0  0  0  0  0  0  0  0  0  # atno 6907 bound_to 6896
  150.7399  134.5861  159.5973 H   0  0  0  0  0  0  0  0  0  0  0  0  # atno 6908 bound_to 6896
  152.3224  134.7365  160.0361 H   0  0  0  0  0  0  0  0  0  0  0  0  # atno 6909 bound_to 6896
  145.5544  140.9492  143.1481 H   0  0  0  0  0  0  0  0  0  0  0  0  # atno 7974 bound_to 7965
  155.0202  140.3147  155.4796 H   0  0  0  0  0  0  0  0  0  0  0  0  # atno 8008 bound_to 7997
  156.2893  140.2199  156.5262 H   0  0  0  0  0  0  0  0  0  0  0  0  # atno 8009 bound_to 7997
  154.7458  140.0470  157.0839 H   0  0  0  0  0  0  0  0  0  0  0  0  # atno 8010 bound_to 7997
  139.7443  144.7002  151.0528 H   0  0  0  0  0  0  0  0  0  0  0  0  # atno 10167 bound_to 10162
  156.2158  130.4163  149.9056 H   0  0  0  0  0  0  0  0  0  0  0  0  # atno 10718 bound_to 10713
  153.0065  135.6297  154.2032 H   0  0  0  0  0  0  0  0  0  0  0  0  # atno 10763 bound_to 10752
  154.1775  135.2815  155.3064 H   0  0  0  0  0  0  0  0  0  0  0  0  # atno 10764 bound_to 10752
  154.5860  135.5632  153.7291 H   0  0  0  0  0  0  0  0  0  0  0  0  # atno 10765 bound_to 10752
  139.8771  134.9134  156.4735 H   0  0  0  0  0  0  0  0  0  0  0  0  # atno 11005 bound_to 11000
  144.7513  139.7185  143.7272 LP  0  0  0  0  0  0  0  0  0  0  0  0  # atno 17320 bound_to 7965
  146.1895  139.5127  142.9814 LP  0  0  0  0  0  0  0  0  0  0  0  0  # atno 17321 bound_to 7965
  140.7790  143.4886  150.9922 LP  0  0  0  0  0  0  0  0  0  0  0  0  # atno 17342 bound_to 10162
  139.8575  143.7358  152.3175 LP  0  0  0  0  0  0  0  0  0  0  0  0  # atno 17343 bound_to 10162
  156.6719  130.8823  151.3563 LP  0  0  0  0  0  0  0  0  0  0  0  0  # atno 17370 bound_to 10713
  157.7062  130.9388  150.0939 LP  0  0  0  0  0  0  0  0  0  0  0  0  # atno 17371 bound_to 10713
  140.8778  133.7940  155.9434 LP  0  0  0  0  0  0  0  0  0  0  0  0  # atno 17394 bound_to 11000
  140.8885  134.2524  157.5107 LP  0  0  0  0  0  0  0  0  0  0  0  0  # atno 17395 bound_to 11000

$$$$
