AV-unprocessed.smi:2124|AV-procd|sdf|8668|dock6
  -GOLD-   2272011423D 1   1.00000     0.00000
 Structure written by MMmdl.
 46 48  0  0  0  0  0  0  0  0  2 V2000
  156.5585  134.5543  156.9420 C   0  0  0  0  0  0  0  0  0  0  0  0
  155.6615  135.5537  157.6409 C   0  0  0  0  0  0  0  0  0  0  0  0
  155.5187  135.4839  158.9095 N   0  0  0  0  0  0  0  0  0  0  0  0
  154.6882  136.4093  159.5639 C   0  0  0  0  0  0  0  0  0  0  0  0
  154.5769  136.2518  161.0702 C   0  0  0  0  0  0  0  0  0  0  0  0
  154.0310  137.3820  158.8697 C   0  0  0  0  0  0  0  0  0  0  0  0
  153.1150  138.4108  159.5337 C   0  0  0  0  0  0  0  0  0  0  0  0
  153.6727  139.8300  159.6702 C   0  0  0  0  0  0  0  0  0  0  0  0
  154.7660  140.1275  159.1876 O   0  0  0  0  0  0  0  0  0  0  0  0
  152.9036  140.6995  160.3430 N   0  0  0  0  0  0  0  0  0  0  0  0
  153.2324  142.1003  160.5992 C   0  0  2  0  0  0  0  0  0  0  0  0
  153.6211  142.2635  162.0801 C   0  0  0  0  0  0  0  0  0  0  0  0
  152.0403  143.0060  160.2036 C   0  0  1  0  0  0  0  0  0  0  0  0
  152.1821  144.4655  160.7018 C   0  0  0  0  0  0  0  0  0  0  0  0
  152.0039  145.2983  159.4201 C   0  0  2  0  0  0  0  0  0  0  0  0
  150.5418  145.2100  158.9479 C   0  0  0  0  0  0  0  0  0  0  0  0
  150.4487  143.7706  158.4087 C   0  0  0  0  0  0  0  0  0  0  0  0
  151.8605  143.2140  158.6769 C   0  0  1  0  0  0  0  0  0  0  0  0
  152.7252  144.4374  158.3922 C   0  0  0  0  0  0  0  0  0  0  0  0
  154.2274  137.4324  157.4099 C   0  0  0  0  0  0  0  0  0  0  0  0
  153.6711  138.3004  156.7384 O   0  0  0  0  0  0  0  0  0  0  0  0
  155.0415  136.4934  156.8482 N   0  5  0  0  0  0  0  0  0  0  0  0
  157.1536  133.9909  157.6619 H   0  0  0  0  0  0  0  0  0  0  0  0
  157.2418  135.0649  156.2627 H   0  0  0  0  0  0  0  0  0  0  0  0
  155.9588  133.8493  156.3657 H   0  0  0  0  0  0  0  0  0  0  0  0
  153.5610  135.9722  161.3499 H   0  0  0  0  0  0  0  0  0  0  0  0
  154.8334  137.1833  161.5750 H   0  0  0  0  0  0  0  0  0  0  0  0
  155.2518  135.4773  161.4366 H   0  0  0  0  0  0  0  0  0  0  0  0
  152.1582  138.4620  159.0132 H   0  0  0  0  0  0  0  0  0  0  0  0
  152.8665  138.0540  160.5335 H   0  0  0  0  0  0  0  0  0  0  0  0
  152.0195  140.3675  160.7005 H   0  0  0  0  0  0  0  0  0  0  0  0
  154.0918  142.3772  159.9860 H   0  0  0  0  0  0  0  0  0  0  0  0
  153.9114  143.2882  162.3100 H   0  0  0  0  0  0  0  0  0  0  0  0
  154.4668  141.6251  162.3385 H   0  0  0  0  0  0  0  0  0  0  0  0
  152.7931  141.9983  162.7383 H   0  0  0  0  0  0  0  0  0  0  0  0
  151.1315  142.5634  160.6151 H   0  0  0  0  0  0  0  0  0  0  0  0
  151.4454  144.7157  161.4661 H   0  0  0  0  0  0  0  0  0  0  0  0
  153.1704  144.6516  161.1239 H   0  0  0  0  0  0  0  0  0  0  0  0
  152.3754  146.3198  159.5075 H   0  0  0  0  0  0  0  0  0  0  0  0
  149.8351  145.3993  159.7567 H   0  0  0  0  0  0  0  0  0  0  0  0
  150.3441  145.9307  158.1535 H   0  0  0  0  0  0  0  0  0  0  0  0
  149.6682  143.1894  158.9009 H   0  0  0  0  0  0  0  0  0  0  0  0
  150.2333  143.7776  157.3394 H   0  0  0  0  0  0  0  0  0  0  0  0
  152.0921  142.3414  158.0658 H   0  0  0  0  0  0  0  0  0  0  0  0
  152.6264  144.8087  157.3706 H   0  0  0  0  0  0  0  0  0  0  0  0
  153.7825  144.2868  158.6153 H   0  0  0  0  0  0  0  0  0  0  0  0
  1  2  1  0  0  0  0
  1 23  1  0  0  0  0
  1 24  1  0  0  0  0
  1 25  1  0  0  0  0
  2 22  1  0  0  0  0
  2  3  2  0  0  0  0
  3  4  1  0  0  0  0
  4  5  1  0  0  0  0
  4  6  2  0  0  0  0
  5 26  1  0  0  0  0
  5 27  1  0  0  0  0
  5 28  1  0  0  0  0
  6  7  1  0  0  0  0
  6 20  1  0  0  0  0
  7  8  1  0  0  0  0
  7 29  1  0  0  0  0
  7 30  1  0  0  0  0
  8  9  2  0  0  0  0
  8 10  1  0  0  0  0
 10 11  1  0  0  0  0
 10 31  1  0  0  0  0
 11 12  1  0  0  0  0
 11 13  1  0  0  0  0
 11 32  1  0  0  0  0
 12 33  1  0  0  0  0
 12 34  1  0  0  0  0
 12 35  1  0  0  0  0
 13 18  1  0  0  0  0
 13 14  1  0  0  0  0
 13 36  1  0  0  0  0
 14 15  1  0  0  0  0
 14 37  1  0  0  0  0
 14 38  1  0  0  0  0
 15 19  1  0  0  0  0
 15 16  1  0  0  0  0
 15 39  1  0  0  0  0
 16 17  1  0  0  0  0
 16 40  1  0  0  0  0
 16 41  1  0  0  0  0
 17 18  1  0  0  0  0
 17 42  1  0  0  0  0
 17 43  1  0  0  0  0
 18 19  1  0  0  0  0
 18 44  1  0  0  0  0
 19 45  1  0  0  0  0
 19 46  1  0  0  0  0
 20 21  2  0  0  0  0
 20 22  1  0  0  0  0
M  CHG  1  22  -1
M  END
> <s_m_source_file>
AV-unprocessed.smi

> <i_m_source_file_index>
2124

> <i_lp_mmshare_version>
43012

> <i_f3d_flags>
0

> <s_epik_input>
W0NIM11jMW5jKFtDSDNdKWMoYyg9TylbbkhdMSlbQ0gyXUMoPU8pW05IXVtDQEhdKFtDSDNdKVtDQEhdKFtDSDJdW0NASF0yMylbQ0BIXShbQ0gyXTMpW0NIMl1bQ0gyXTI=

> <s_epik_cmdline>
J2VwaWtfcHl0aG9uJywgJy1waCcsICc3LjAnLCAnLXRuJywgJzgnLCAnLW1hJywgJzIwMCcsICctbWV0YWxfYmluZGluZycsICctaW1hZScsICc8aW5maWxlLm1hZT4nLCAnLW9tYWUnLCAnPG91dGZpbGUubWFlPic=

> <r_lp_tautomer_probability>
0.839158

> <r_epik_Ionization_Penalty>
6.63797

> <r_epik_Ionization_Penalty_Charging>
7.48558e-08

> <r_epik_Ionization_Penalty_Neutral>
6.63797

> <r_epik_State_Penalty>
4.49496

> <r_epik_Charging_Adjusted_Penalty>
4.49496

> <i_epik_Tot_Q>
-1

> <i_epik_Tot_abs_Q>
1

> <r_epik_Metal_State_Penalty>
0.841241

> <b_epik_Metal_Only>
1

> <s_lp_Force_Field>
OPLS_2005

> <r_lp_Energy>
55.6811

> <b_lp_Chiralities_Consistent>
1

> <s_lp_Variant>
AV-unprocessed.smi:2124-19

> <Gold.Version>
5.8.1

> <Gold.Id.Protein>
6NUR|6NUR_protein|mol2

> <Gold.PLP.Fitness>
49.1769

> <Gold.PLP.PLP>
-41.2329

> <Gold.PLP.part.hbond>
-3.0000

> <Gold.PLP.part.metal>
0.0000

> <Gold.PLP.part.buried>
-3.4792

> <Gold.PLP.part.nonpolar>
-34.3340

> <Gold.PLP.part.repulsive>
0.1237

> <Gold.PLP.ligand.clash>
0.0000

> <Gold.PLP.ligand.torsion>
0.5397

> <Gold.PLP.Chemscore.Hbond>
3.0000

> <Gold.PLP.Chemscore.CHOScore>
0.0000

> <Gold.PLP.Chemscore.Metal>
0.0000

> <Gold.Chemscore.Hbonds>
donor molecule, donor type, donor heavy atom, donor atom, acceptor molecule, acceptor atom, score
      P1  H  7997  8009       L1     9  0.98
      P1  H  7997  8010       L1    21  0.01
      P1  H 10752 10764       L1    22  1.46

> <Gold.PLP.Chemscore.Internal.Correction>
0.0235

> <Gold.Rescore>
     Score         DG    S(hbond)    S(metal)    S(lipo)     H(rot)  DE(clash)    DE(int)     intcor
     21.42     -22.10       1.87        0.00     123.88       1.61       0.08       0.60       ----

> <Gold.Chemscore.Fitness>
21.4241

> <Gold.Chemscore.DG>
-22.1009

> <Gold.Chemscore.ZeroCoef>
-5.4800

> <Gold.Chemscore.Hbond>
1.8670

> <Gold.Chemscore.Metal>
0.0000

> <Gold.Chemscore.Lipo>
123.8807

> <Gold.Chemscore.Internal_Hbond>
0.0000

> <Gold.Chemscore.DEClash>
0.0812

> <Gold.Chemscore.DEInternal>
0.5955

> <Gold.Chemscore.Rot>
1.6051

> <Gold.Chemscore.Internal.Correction>
   9.000000E+99

> <Gold.Chemscore.Hbonds>
donor molecule, donor type, donor heavy atom, donor atom, acceptor molecule, acceptor atom, score
      P1  H  7997  8009       L1     9  0.93
      P1  H  7997  8010       L1    21  0.02
      P1  H 10752 10764       L1    22  0.24

> <Gold.Chemscore.Hbond.Weighted>
-6.2358

> <Gold.Chemscore.Metal.Weighted>
-0.0000

> <Gold.Chemscore.Lipo.Weighted>
-14.4940

> <Gold.Chemscore.Internal_Hbond.Weighted>
0.0000

> <Gold.Chemscore.DEClash.Weighted>
0.0812

> <Gold.Chemscore.DEInternal.Weighted>
0.5955

> <Gold.Chemscore.Rot.Weighted>
4.1090

> <Gold.Chemscore.Internal.Correction.Weighted>
   9.000000E+99

> <Gold.Protein.RotatedTorsions>
[ 6907 6896 6895 6894 ] final -111.89 input  -60.11 | X-H torsion
[ 7974 7965 7964 7962 ] final  152.35 input  175.53 | X-H torsion
[ 8008 7997 7996 7995 ] final  118.51 input   59.86 | X-H torsion
[ 10167 10162 10161 10158 ] final -129.45 input  -65.29 | X-H torsion
[ 10718 10713 10712 10709 ] final   -6.00 input   66.30 | X-H torsion
[ 10763 10752 10751 10750 ] final   28.57 input  -60.55 | X-H torsion
[ 11005 11000 10999 10996 ] final -143.91 input  -57.11 | X-H torsion

> <Gold.Protein.ActiveResidues>
 VAL166  LYS551  ARG553  GLY616  TRP617  ASP618  TYR619  PRO620  LYS621  CYS622 
 ASP623  PHE694  ASN695  SER759  ASP760  ASP761  ALA762  ILE779  LEU786  VAL792 
 PHE793  MET794  SER795  GLU796  ALA797  LYS798  CYS799  TRP800  GLU811  SER814 

> <Gold.Protein.RotatedAtoms>
  150.7721  133.9169  159.3386 H   0  0  0  0  0  0  0  0  0  0  0  0  # atno 6907 bound_to 6896
  151.7053  135.0921  160.0267 H   0  0  0  0  0  0  0  0  0  0  0  0  # atno 6908 bound_to 6896
  152.3743  133.6422  159.6146 H   0  0  0  0  0  0  0  0  0  0  0  0  # atno 6909 bound_to 6896
  144.8228  139.6657  143.6093 H   0  0  0  0  0  0  0  0  0  0  0  0  # atno 7974 bound_to 7965
  156.2550  140.2873  156.0845 H   0  0  0  0  0  0  0  0  0  0  0  0  # atno 8008 bound_to 7997
  155.1530  140.0398  157.2843 H   0  0  0  0  0  0  0  0  0  0  0  0  # atno 8009 bound_to 7997
  154.6447  140.2530  155.7288 H   0  0  0  0  0  0  0  0  0  0  0  0  # atno 8010 bound_to 7997
  139.9396  143.6178  152.2507 H   0  0  0  0  0  0  0  0  0  0  0  0  # atno 10167 bound_to 10162
  156.7383  130.5202  149.5830 H   0  0  0  0  0  0  0  0  0  0  0  0  # atno 10718 bound_to 10713
  153.0484  135.6510  154.0757 H   0  0  0  0  0  0  0  0  0  0  0  0  # atno 10763 bound_to 10752
  154.0451  135.2900  155.3350 H   0  0  0  0  0  0  0  0  0  0  0  0  # atno 10764 bound_to 10752
  154.6756  135.5339  153.8262 H   0  0  0  0  0  0  0  0  0  0  0  0  # atno 10765 bound_to 10752
  140.8078  134.2780  157.4953 H   0  0  0  0  0  0  0  0  0  0  0  0  # atno 11005 bound_to 11000
  146.2534  139.6249  142.9411 LP  0  0  0  0  0  0  0  0  0  0  0  0  # atno 17320 bound_to 7965
  145.5066  141.0436  143.2511 LP  0  0  0  0  0  0  0  0  0  0  0  0  # atno 17321 bound_to 7965
  139.6715  144.7660  151.1774 LP  0  0  0  0  0  0  0  0  0  0  0  0  # atno 17342 bound_to 10162
  140.7615  143.5858  150.8848 LP  0  0  0  0  0  0  0  0  0  0  0  0  # atno 17343 bound_to 10162
  156.1481  130.6291  151.0559 LP  0  0  0  0  0  0  0  0  0  0  0  0  # atno 17370 bound_to 10713
  157.6829  131.0833  150.7321 LP  0  0  0  0  0  0  0  0  0  0  0  0  # atno 17371 bound_to 10713
  139.8716  134.9466  156.3943 LP  0  0  0  0  0  0  0  0  0  0  0  0  # atno 17394 bound_to 11000
  140.9229  133.7632  155.9928 LP  0  0  0  0  0  0  0  0  0  0  0  0  # atno 17395 bound_to 11000

$$$$
