AV-unprocessed.smi:191|AV-procd|sdf|1493|dock2
  -GOLD-   2262019313D 1   1.00000     0.00000
 Structure written by MMmdl.
 46 48  0  0  0  0  0  0  0  0  1 V2000
  147.9948  141.7819  154.3453 C   0  0  0  0  0  0  0  0  0  0  0  0
  148.5010  140.3437  154.5164 C   0  0  0  0  0  0  0  0  0  0  0  0
  149.6711  140.2642  155.3874 N   0  0  0  0  0  0  0  0  0  0  0  0
  149.4690  140.5828  156.8013 C   0  0  0  0  0  0  0  0  0  0  0  0
  150.6676  141.3016  157.4520 C   0  0  2  0  0  0  0  0  0  0  0  0
  151.0048  142.5985  156.7074 C   0  0  0  0  0  0  0  0  0  0  0  0
  151.8483  140.4252  157.5298 C   0  0  0  0  0  0  0  0  0  0  0  0
  152.7761  139.7369  157.5909 N   0  0  0  0  0  0  0  0  0  0  0  0
  150.3823  139.1347  155.1803 C   0  0  0  0  0  0  0  0  0  0  0  0
  151.5210  139.2407  154.4533 N   0  0  0  0  0  0  0  0  0  0  0  0
  152.2651  138.1556  154.2189 C   0  0  0  0  0  0  0  0  0  0  0  0
  152.0531  136.8971  154.6112 N   0  0  0  0  0  0  0  0  0  0  0  0
  150.9077  136.7892  155.3438 C   0  0  0  0  0  0  0  0  0  0  0  0
  150.0175  137.8500  155.6715 C   0  0  0  0  0  0  0  0  0  0  0  0
  148.9548  137.3652  156.4234 N   0  0  0  0  0  0  0  0  0  0  0  0
  149.1999  136.0879  156.5299 C   0  0  0  0  0  0  0  0  0  0  0  0
  150.3580  135.6575  155.9208 N   0  0  0  0  0  0  0  0  0  0  0  0
  150.8637  134.2933  155.8876 C   0  0  0  0  0  0  0  0  0  0  0  0
  149.8697  133.2617  155.3138 C   0  0  0  0  0  0  0  0  0  0  0  0
  149.4522  133.6383  153.8814 C   0  0  0  0  0  0  0  0  0  0  0  0
  148.6700  134.8155  153.8636 O   0  0  0  0  0  0  0  0  0  0  0  0
  150.2552  131.7881  155.5050 C   0  0  0  0  0  0  0  0  0  0  0  0
  148.9627  131.4638  156.0596 O   0  0  0  0  0  0  0  0  0  0  0  0
  148.6997  132.8727  156.2294 C   0  0  0  0  0  0  0  0  0  0  0  0
  147.1557  141.8118  153.6504 H   0  0  0  0  0  0  0  0  0  0  0  0
  148.7776  142.4281  153.9468 H   0  0  0  0  0  0  0  0  0  0  0  0
  147.6529  142.2086  155.2879 H   0  0  0  0  0  0  0  0  0  0  0  0
  147.7046  139.7200  154.9243 H   0  0  0  0  0  0  0  0  0  0  0  0
  148.7407  139.9382  153.5316 H   0  0  0  0  0  0  0  0  0  0  0  0
  148.5861  141.2133  156.9018 H   0  0  0  0  0  0  0  0  0  0  0  0
  149.2482  139.6646  157.3465 H   0  0  0  0  0  0  0  0  0  0  0  0
  150.4188  141.5688  158.4792 H   0  0  0  0  0  0  0  0  0  0  0  0
  151.8361  143.1177  157.1851 H   0  0  0  0  0  0  0  0  0  0  0  0
  150.1523  143.2782  156.6962 H   0  0  0  0  0  0  0  0  0  0  0  0
  151.2873  142.3982  155.6734 H   0  0  0  0  0  0  0  0  0  0  0  0
  153.1578  138.3191  153.6333 H   0  0  0  0  0  0  0  0  0  0  0  0
  148.5412  135.4200  157.0659 H   0  0  0  0  0  0  0  0  0  0  0  0
  151.7904  134.2888  155.3125 H   0  0  0  0  0  0  0  0  0  0  0  0
  151.1532  134.0217  156.9035 H   0  0  0  0  0  0  0  0  0  0  0  0
  150.3319  133.8148  153.2613 H   0  0  0  0  0  0  0  0  0  0  0  0
  148.9010  132.8328  153.3964 H   0  0  0  0  0  0  0  0  0  0  0  0
  148.6713  135.1642  152.9850 H   0  0  0  0  0  0  0  0  0  0  0  0
  150.4601  131.2550  154.5760 H   0  0  0  0  0  0  0  0  0  0  0  0
  151.0568  131.6301  156.2289 H   0  0  0  0  0  0  0  0  0  0  0  0
  148.8232  133.1771  157.2696 H   0  0  0  0  0  0  0  0  0  0  0  0
  147.7203  133.1682  155.8511 H   0  0  0  0  0  0  0  0  0  0  0  0
  1  2  1  0  0  0  0
  1 25  1  0  0  0  0
  1 26  1  0  0  0  0
  1 27  1  0  0  0  0
  2  3  1  0  0  0  0
  2 28  1  0  0  0  0
  2 29  1  0  0  0  0
  3  4  1  0  0  0  0
  3  9  1  0  0  0  0
  4  5  1  0  0  0  0
  4 30  1  0  0  0  0
  4 31  1  0  0  0  0
  5  6  1  0  0  0  0
  5  7  1  0  0  0  0
  5 32  1  0  0  0  0
  6 33  1  0  0  0  0
  6 34  1  0  0  0  0
  6 35  1  0  0  0  0
  7  8  3  0  0  0  0
  9 14  1  0  0  0  0
  9 10  2  0  0  0  0
 10 11  1  0  0  0  0
 11 12  2  0  0  0  0
 11 36  1  0  0  0  0
 12 13  1  0  0  0  0
 13 17  1  0  0  0  0
 13 14  2  0  0  0  0
 14 15  1  0  0  0  0
 15 16  2  0  0  0  0
 16 17  1  0  0  0  0
 16 37  1  0  0  0  0
 17 18  1  0  0  0  0
 18 19  1  0  0  0  0
 18 38  1  0  0  0  0
 18 39  1  0  0  0  0
 19 24  1  0  0  0  0
 19 20  1  0  0  0  0
 19 22  1  0  0  0  0
 20 21  1  0  0  0  0
 20 40  1  0  0  0  0
 20 41  1  0  0  0  0
 21 42  1  0  0  0  0
 22 23  1  0  0  0  0
 22 43  1  0  0  0  0
 22 44  1  0  0  0  0
 23 24  1  0  0  0  0
 24 45  1  0  0  0  0
 24 46  1  0  0  0  0
M  END
> <s_m_source_file>
AV-unprocessed.smi

> <i_m_source_file_index>
191

> <i_lp_mmshare_version>
43012

> <i_f3d_flags>
0

> <s_epik_input>
TiNDW0NAQEhdKFtDSDNdKVtDSDJdTihbQ0gyXVtDSDNdKWMobltjSF1uMSljKGMxMiluW2NIXW4yW0NIMl1DMyhbQ0gyXVtPSF0pW0NIMl1PW0NIMl0z

> <s_epik_cmdline>
J2VwaWtfcHl0aG9uJywgJy1waCcsICc3LjAnLCAnLXRuJywgJzgnLCAnLW1hJywgJzIwMCcsICctbWV0YWxfYmluZGluZycsICctaW1hZScsICc8aW5maWxlLm1hZT4nLCAnLW9tYWUnLCAnPG91dGZpbGUubWFlPic=

> <r_lp_tautomer_probability>
1

> <r_epik_Ionization_Penalty>
0.000569684

> <r_epik_Ionization_Penalty_Charging>
0

> <r_epik_Ionization_Penalty_Neutral>
0.000569684

> <r_epik_State_Penalty>
0.000286009

> <r_epik_Charging_Adjusted_Penalty>
0.000286009

> <i_epik_Tot_Q>
0

> <i_epik_Tot_abs_Q>
0

> <r_epik_Metal_State_Penalty>
-0

> <b_epik_Metal_Only>
0

> <s_lp_Force_Field>
OPLS_2005

> <r_lp_Energy>
28.3961

> <b_lp_Chiralities_Consistent>
1

> <s_lp_Variant>
AV-unprocessed.smi:191-1

> <Gold.Version>
5.8.1

> <Gold.Id.Protein>
6NUR|6NUR_protein|mol2

> <Gold.PLP.Fitness>
43.5214

> <Gold.PLP.PLP>
-32.4708

> <Gold.PLP.part.hbond>
-3.8078

> <Gold.PLP.part.metal>
0.0000

> <Gold.PLP.part.buried>
-4.5743

> <Gold.PLP.part.nonpolar>
-24.5510

> <Gold.PLP.part.repulsive>
0.3118

> <Gold.PLP.ligand.clash>
0.0000

> <Gold.PLP.ligand.torsion>
0.9523

> <Gold.PLP.Chemscore.Hbond>
4.0000

> <Gold.PLP.Chemscore.CHOScore>
0.0000

> <Gold.PLP.Chemscore.Metal>
0.0000

> <Gold.Chemscore.Hbonds>
donor molecule, donor type, donor heavy atom, donor atom, acceptor molecule, acceptor atom, score
      L1  H    21    42       P1  7948  1.00
      P1  H  7989  7998       L1    10  1.00
      P1  H  7997  8009       L1     8  1.00
      P1  H 10752 10764       L1    12  0.99

> <Gold.PLP.Chemscore.Internal.Correction>
0.9551

> <Gold.Rescore>
     Score         DG    S(hbond)    S(metal)    S(lipo)     H(rot)  DE(clash)    DE(int)     intcor
     13.49     -16.00       3.81        0.00      56.17       3.43       0.05       2.46       ----

> <Gold.Chemscore.Fitness>
13.4900

> <Gold.Chemscore.DG>
-16.0032

> <Gold.Chemscore.ZeroCoef>
-5.4800

> <Gold.Chemscore.Hbond>
3.8122

> <Gold.Chemscore.Metal>
0.0000

> <Gold.Chemscore.Lipo>
56.1732

> <Gold.Chemscore.Internal_Hbond>
0.0000

> <Gold.Chemscore.DEClash>
0.0538

> <Gold.Chemscore.DEInternal>
2.4594

> <Gold.Chemscore.Rot>
3.4303

> <Gold.Chemscore.Internal.Correction>
   9.000000E+99

> <Gold.Chemscore.Hbonds>
donor molecule, donor type, donor heavy atom, donor atom, acceptor molecule, acceptor atom, score
      L1  H    21    42       P1  7948  0.56
      P1  H  7989  7998       L1    10  0.87
      P1  H  7997  8009       L1     8  1.00
      P1  H 10752 10764       L1    12  0.88

> <Gold.Chemscore.Hbond.Weighted>
-12.7326

> <Gold.Chemscore.Metal.Weighted>
-0.0000

> <Gold.Chemscore.Lipo.Weighted>
-6.5723

> <Gold.Chemscore.Internal_Hbond.Weighted>
0.0000

> <Gold.Chemscore.DEClash.Weighted>
0.0538

> <Gold.Chemscore.DEInternal.Weighted>
2.4594

> <Gold.Chemscore.Rot.Weighted>
8.7817

> <Gold.Chemscore.Internal.Correction.Weighted>
   9.000000E+99

> <Gold.Protein.RotatedTorsions>
[ 6907 6896 6895 6894 ] final    4.52 input  -60.11 | X-H torsion
[ 7974 7965 7964 7962 ] final  -46.40 input  175.53 | X-H torsion
[ 8008 7997 7996 7995 ] final  170.68 input   59.86 | X-H torsion
[ 10167 10162 10161 10158 ] final   -2.34 input  -65.29 | X-H torsion
[ 10718 10713 10712 10709 ] final  176.32 input   66.30 | X-H torsion
[ 10763 10752 10751 10750 ] final  -76.84 input  -60.55 | X-H torsion
[ 11005 11000 10999 10996 ] final -125.47 input  -57.11 | X-H torsion

> <Gold.Protein.ActiveResidues>
 VAL166  LYS551  ARG553  GLY616  TRP617  ASP618  TYR619  PRO620  LYS621  CYS622 
 ASP623  PHE694  ASN695  SER759  ASP760  ASP761  ALA762  ILE779  LEU786  VAL792 
 PHE793  MET794  SER795  GLU796  ALA797  LYS798  CYS799  TRP800  GLU811  SER814 

> <Gold.Protein.RotatedAtoms>
  151.6427  135.1011  160.0144 H   0  0  0  0  0  0  0  0  0  0  0  0  # atno 6907 bound_to 6896
  152.4045  133.6864  159.6353 H   0  0  0  0  0  0  0  0  0  0  0  0  # atno 6908 bound_to 6896
  150.7941  133.8650  159.3283 H   0  0  0  0  0  0  0  0  0  0  0  0  # atno 6909 bound_to 6896
  145.9723  140.7370  142.9404 H   0  0  0  0  0  0  0  0  0  0  0  0  # atno 7974 bound_to 7965
  156.1342  140.1531  156.9019 H   0  0  0  0  0  0  0  0  0  0  0  0  # atno 8008 bound_to 7997
  154.4934  140.0845  156.7683 H   0  0  0  0  0  0  0  0  0  0  0  0  # atno 8009 bound_to 7997
  155.4199  140.3422  155.4273 H   0  0  0  0  0  0  0  0  0  0  0  0  # atno 8010 bound_to 7997
  140.6847  143.6668  150.8219 H   0  0  0  0  0  0  0  0  0  0  0  0  # atno 10167 bound_to 10162
  156.9219  130.9943  151.3003 H   0  0  0  0  0  0  0  0  0  0  0  0  # atno 10718 bound_to 10713
  154.5051  135.5784  153.6561 H   0  0  0  0  0  0  0  0  0  0  0  0  # atno 10763 bound_to 10752
  152.9886  135.6145  154.2951 H   0  0  0  0  0  0  0  0  0  0  0  0  # atno 10764 bound_to 10752
  154.2862  135.2849  155.2655 H   0  0  0  0  0  0  0  0  0  0  0  0  # atno 10765 bound_to 10752
  140.9759  134.0741  157.3819 H   0  0  0  0  0  0  0  0  0  0  0  0  # atno 11005 bound_to 11000
  144.6840  140.2769  143.7298 LP  0  0  0  0  0  0  0  0  0  0  0  0  # atno 17320 bound_to 7965
  145.7888  139.1919  143.2115 LP  0  0  0  0  0  0  0  0  0  0  0  0  # atno 17321 bound_to 7965
  140.0374  143.5381  152.2733 LP  0  0  0  0  0  0  0  0  0  0  0  0  # atno 17342 bound_to 10162
  139.6196  144.7626  151.2770 LP  0  0  0  0  0  0  0  0  0  0  0  0  # atno 17343 bound_to 10162
  157.5902  130.8438  149.8649 LP  0  0  0  0  0  0  0  0  0  0  0  0  # atno 17370 bound_to 10713
  156.0487  130.3722  150.1254 LP  0  0  0  0  0  0  0  0  0  0  0  0  # atno 17371 bound_to 10713
  139.8930  135.0128  156.6877 LP  0  0  0  0  0  0  0  0  0  0  0  0  # atno 17394 bound_to 11000
  140.7259  133.9100  155.8178 LP  0  0  0  0  0  0  0  0  0  0  0  0  # atno 17395 bound_to 11000

$$$$
