AV-unprocessed.smi:2802|AV-procd|sdf|10804|dock10
  -GOLD-   2272015243D 1   1.00000     0.00000
 Structure written by MMmdl.
 47 48  0  0  0  0  0  0  0  0  1 V2000
  147.5021  139.4903  153.2137 C   0  0  0  0  0  0  0  0  0  0  0  0
  148.6031  139.0293  154.1805 C   0  0  1  0  0  0  0  0  0  0  0  0
  149.0536  140.1819  155.0934 C   0  0  0  0  0  0  0  0  0  0  0  0
  150.1812  139.7847  156.0714 C   0  0  0  0  0  0  0  0  0  0  0  0
  151.5342  139.6631  155.3352 C   0  0  0  0  0  0  0  0  0  0  0  0
  150.3451  140.9166  157.1078 C   0  0  0  0  0  0  0  0  0  0  0  0
  149.8049  138.4819  156.8344 C   0  0  0  0  0  0  0  0  0  0  0  0
  149.1954  137.2955  156.0191 C   0  0  1  0  0  0  0  0  0  0  0  0
  150.2808  136.4626  155.2765 C   0  0  0  0  0  0  0  0  0  0  0  0
  149.7168  135.4599  154.4521 O   0  0  0  0  0  0  0  0  0  0  0  0
  148.4626  136.4206  156.9505 N   0  0  0  0  0  0  0  0  0  0  0  0
  148.9393  135.7121  157.9898 C   0  0  0  0  0  0  0  0  0  0  0  0
  150.1216  135.7163  158.3354 O   0  0  0  0  0  0  0  0  0  0  0  0
  147.8988  134.8751  158.7438 C   0  0  0  0  0  0  0  0  0  0  0  0
  147.6626  135.3811  160.1577 C   0  0  0  0  0  0  0  0  0  0  0  0
  147.4697  134.4815  161.2267 C   0  0  0  0  0  0  0  0  0  0  0  0
  147.2532  134.9992  162.5181 C   0  0  0  0  0  0  0  0  0  0  0  0
  147.2380  136.3985  162.6858 C   0  0  0  0  0  0  0  0  0  0  0  0
  147.4213  137.2695  161.6700 N   0  0  0  0  0  0  0  0  0  0  0  0
  147.6283  136.7647  160.4346 C   0  0  0  0  0  0  0  0  0  0  0  0
  148.1293  137.8386  155.0323 C   0  0  0  0  0  0  0  0  0  0  0  0
  146.6154  139.8264  153.7520 H   0  0  0  0  0  0  0  0  0  0  0  0
  147.2004  138.6818  152.5473 H   0  0  0  0  0  0  0  0  0  0  0  0
  147.8465  140.3167  152.5913 H   0  0  0  0  0  0  0  0  0  0  0  0
  149.4444  138.7105  153.5666 H   0  0  0  0  0  0  0  0  0  0  0  0
  149.3723  141.0318  154.4884 H   0  0  0  0  0  0  0  0  0  0  0  0
  148.1888  140.5294  155.6611 H   0  0  0  0  0  0  0  0  0  0  0  0
  152.3163  139.2968  156.0008 H   0  0  0  0  0  0  0  0  0  0  0  0
  151.8608  140.6327  154.9578 H   0  0  0  0  0  0  0  0  0  0  0  0
  151.4999  139.0032  154.4739 H   0  0  0  0  0  0  0  0  0  0  0  0
  151.1333  140.6862  157.8256 H   0  0  0  0  0  0  0  0  0  0  0  0
  149.4278  141.0833  157.6736 H   0  0  0  0  0  0  0  0  0  0  0  0
  150.6041  141.8618  156.6291 H   0  0  0  0  0  0  0  0  0  0  0  0
  150.6682  138.1421  157.4075 H   0  0  0  0  0  0  0  0  0  0  0  0
  149.0640  138.7620  157.5858 H   0  0  0  0  0  0  0  0  0  0  0  0
  150.8954  137.0825  154.6315 H   0  0  0  0  0  0  0  0  0  0  0  0
  150.9608  135.9851  155.9818 H   0  0  0  0  0  0  0  0  0  0  0  0
  149.4110  135.8643  153.6546 H   0  0  0  0  0  0  0  0  0  0  0  0
  147.4741  136.3315  156.7659 H   0  0  0  0  0  0  0  0  0  0  0  0
  146.9606  134.8859  158.1876 H   0  0  0  0  0  0  0  0  0  0  0  0
  148.2302  133.8366  158.7856 H   0  0  0  0  0  0  0  0  0  0  0  0
  147.4845  133.4141  161.0615 H   0  0  0  0  0  0  0  0  0  0  0  0
  147.1009  134.3401  163.3599 H   0  0  0  0  0  0  0  0  0  0  0  0
  147.0745  136.8294  163.6626 H   0  0  0  0  0  0  0  0  0  0  0  0
  147.7688  137.4866  159.6434 H   0  0  0  0  0  0  0  0  0  0  0  0
  147.2519  138.1615  155.5963 H   0  0  0  0  0  0  0  0  0  0  0  0
  147.7752  137.0382  154.3814 H   0  0  0  0  0  0  0  0  0  0  0  0
  1  2  1  0  0  0  0
  1 22  1  0  0  0  0
  1 23  1  0  0  0  0
  1 24  1  0  0  0  0
  2 21  1  0  0  0  0
  2  3  1  0  0  0  0
  2 25  1  0  0  0  0
  3  4  1  0  0  0  0
  3 26  1  0  0  0  0
  3 27  1  0  0  0  0
  4  5  1  0  0  0  0
  4  6  1  0  0  0  0
  4  7  1  0  0  0  0
  5 28  1  0  0  0  0
  5 29  1  0  0  0  0
  5 30  1  0  0  0  0
  6 31  1  0  0  0  0
  6 32  1  0  0  0  0
  6 33  1  0  0  0  0
  7  8  1  0  0  0  0
  7 34  1  0  0  0  0
  7 35  1  0  0  0  0
  8  9  1  0  0  0  0
  8 11  1  0  0  0  0
  8 21  1  0  0  0  0
  9 10  1  0  0  0  0
  9 36  1  0  0  0  0
  9 37  1  0  0  0  0
 10 38  1  0  0  0  0
 11 12  1  0  0  0  0
 11 39  1  0  0  0  0
 12 13  2  0  0  0  0
 12 14  1  0  0  0  0
 14 15  1  0  0  0  0
 14 40  1  0  0  0  0
 14 41  1  0  0  0  0
 15 20  1  0  0  0  0
 15 16  2  0  0  0  0
 16 17  1  0  0  0  0
 16 42  1  0  0  0  0
 17 18  2  0  0  0  0
 17 43  1  0  0  0  0
 18 19  1  0  0  0  0
 18 44  1  0  0  0  0
 19 20  2  0  0  0  0
 20 45  1  0  0  0  0
 21 46  1  0  0  0  0
 21 47  1  0  0  0  0
M  END
> <s_m_source_file>
AV-unprocessed.smi

> <i_m_source_file_index>
2802

> <i_lp_mmshare_version>
43012

> <i_f3d_flags>
0

> <s_epik_input>
W0NIM11DMShbQ0gzXSlbQ0gyXVtDQEBIXShbQ0gzXSlbQ0gyXVtDQF0oW0NIMl0xKShbQ0gyXVtPSF0pW05IXUMoPU8pW0NIMl1jMltjSF1bY0hdW2NIXW5bY0hdMg==

> <s_epik_cmdline>
J2VwaWtfcHl0aG9uJywgJy1waCcsICc3LjAnLCAnLXRuJywgJzgnLCAnLW1hJywgJzIwMCcsICctbWV0YWxfYmluZGluZycsICctaW1hZScsICc8aW5maWxlLm1hZT4nLCAnLW9tYWUnLCAnPG91dGZpbGUubWFlPic=

> <r_epik_Ionization_Penalty>
0.004793

> <r_epik_Ionization_Penalty_Charging>
0

> <r_epik_Ionization_Penalty_Neutral>
0.004793

> <r_epik_State_Penalty>
0.00347421

> <r_epik_Charging_Adjusted_Penalty>
0.00347421

> <i_epik_Tot_Q>
0

> <i_epik_Tot_abs_Q>
0

> <r_epik_Metal_State_Penalty>
-0

> <b_epik_Metal_Only>
0

> <s_lp_Force_Field>
OPLS_2005

> <r_lp_Energy>
22.6817

> <b_lp_Chiralities_Consistent>
1

> <s_lp_Variant>
AV-unprocessed.smi:2802-2

> <Gold.Version>
5.8.1

> <Gold.Id.Protein>
6NUR|6NUR_protein|mol2

> <Gold.PLP.Fitness>
42.6602

> <Gold.PLP.PLP>
-33.3158

> <Gold.PLP.part.hbond>
-3.9595

> <Gold.PLP.part.metal>
0.0000

> <Gold.PLP.part.buried>
-1.7545

> <Gold.PLP.part.nonpolar>
-27.1286

> <Gold.PLP.part.repulsive>
0.0102

> <Gold.PLP.ligand.clash>
0.0000

> <Gold.PLP.ligand.torsion>
0.3801

> <Gold.PLP.Chemscore.Hbond>
3.3640

> <Gold.PLP.Chemscore.CHOScore>
0.0000

> <Gold.PLP.Chemscore.Metal>
0.0000

> <Gold.Chemscore.Hbonds>
donor molecule, donor type, donor heavy atom, donor atom, acceptor molecule, acceptor atom, score
      L1  H    10    38       P1  7948  1.00
      P1  H  6896  6908       L1    13  0.90
      P1  H  6931  6943       L1    19  0.88
      P1  H  6934  6947       L1    19  0.45

> <Gold.PLP.Chemscore.Internal.Correction>
0.0127

> <Gold.Rescore>
     Score         DG    S(hbond)    S(metal)    S(lipo)     H(rot)  DE(clash)    DE(int)     intcor
     18.51     -19.05       2.58        0.00      86.12       2.00       0.13       0.41       ----

> <Gold.Chemscore.Fitness>
18.5055

> <Gold.Chemscore.DG>
-19.0488

> <Gold.Chemscore.ZeroCoef>
-5.4800

> <Gold.Chemscore.Hbond>
2.5806

> <Gold.Chemscore.Metal>
0.0000

> <Gold.Chemscore.Lipo>
86.1230

> <Gold.Chemscore.Internal_Hbond>
0.0000

> <Gold.Chemscore.DEClash>
0.1337

> <Gold.Chemscore.DEInternal>
0.4097

> <Gold.Chemscore.Rot>
2.0026

> <Gold.Chemscore.Internal.Correction>
   9.000000E+99

> <Gold.Chemscore.Hbonds>
donor molecule, donor type, donor heavy atom, donor atom, acceptor molecule, acceptor atom, score
      L1  H    10    38       P1  7948  0.50
      P1  H  6896  6908       L1    13  0.87
      P1  H  6931  6943       L1    19  0.20
      P1  H  6934  6947       L1    19  0.03

> <Gold.Chemscore.Hbond.Weighted>
-8.6191

> <Gold.Chemscore.Metal.Weighted>
-0.0000

> <Gold.Chemscore.Lipo.Weighted>
-10.0764

> <Gold.Chemscore.Internal_Hbond.Weighted>
0.0000

> <Gold.Chemscore.DEClash.Weighted>
0.1337

> <Gold.Chemscore.DEInternal.Weighted>
0.4097

> <Gold.Chemscore.Rot.Weighted>
5.1267

> <Gold.Chemscore.Internal.Correction.Weighted>
   9.000000E+99

> <Gold.Protein.RotatedTorsions>
[ 6907 6896 6895 6894 ] final  168.99 input  -60.11 | X-H torsion
[ 7974 7965 7964 7962 ] final  166.54 input  175.53 | X-H torsion
[ 8008 7997 7996 7995 ] final  -74.90 input   59.86 | X-H torsion
[ 10167 10162 10161 10158 ] final   -0.90 input  -65.29 | X-H torsion
[ 10718 10713 10712 10709 ] final  -63.58 input   66.30 | X-H torsion
[ 10763 10752 10751 10750 ] final   75.67 input  -60.55 | X-H torsion
[ 11005 11000 10999 10996 ] final   67.36 input  -57.11 | X-H torsion

> <Gold.Protein.ActiveResidues>
 VAL166  LYS551  ARG553  GLY616  TRP617  ASP618  TYR619  PRO620  LYS621  CYS622 
 ASP623  PHE694  ASN695  SER759  ASP760  ASP761  ALA762  ILE779  LEU786  VAL792 
 PHE793  MET794  SER795  GLU796  ALA797  LYS798  CYS799  TRP800  GLU811  SER814 

> <Gold.Protein.RotatedAtoms>
  151.8390  133.3420  159.3636 H   0  0  0  0  0  0  0  0  0  0  0  0  # atno 6907 bound_to 6896
  150.7241  134.5410  159.5756 H   0  0  0  0  0  0  0  0  0  0  0  0  # atno 6908 bound_to 6896
  152.2879  134.7755  160.0435 H   0  0  0  0  0  0  0  0  0  0  0  0  # atno 6909 bound_to 6896
  144.7458  139.8631  143.6382 H   0  0  0  0  0  0  0  0  0  0  0  0  # atno 7974 bound_to 7965
  154.5370  140.0753  156.8445 H   0  0  0  0  0  0  0  0  0  0  0  0  # atno 8008 bound_to 7997
  155.3257  140.3399  155.4222 H   0  0  0  0  0  0  0  0  0  0  0  0  # atno 8009 bound_to 7997
  156.1838  140.1661  156.8210 H   0  0  0  0  0  0  0  0  0  0  0  0  # atno 8010 bound_to 7997
  140.6787  143.6839  150.8083 H   0  0  0  0  0  0  0  0  0  0  0  0  # atno 10167 bound_to 10162
  156.0782  130.4222  150.1297 H   0  0  0  0  0  0  0  0  0  0  0  0  # atno 10718 bound_to 10713
  153.0671  135.4980  154.8224 H   0  0  0  0  0  0  0  0  0  0  0  0  # atno 10763 bound_to 10752
  154.6969  135.2994  154.9400 H   0  0  0  0  0  0  0  0  0  0  0  0  # atno 10764 bound_to 10752
  154.0136  135.6751  153.4820 H   0  0  0  0  0  0  0  0  0  0  0  0  # atno 10765 bound_to 10752
  139.9776  134.6797  156.0324 H   0  0  0  0  0  0  0  0  0  0  0  0  # atno 11005 bound_to 11000
  146.1334  139.4374  143.0154 LP  0  0  0  0  0  0  0  0  0  0  0  0  # atno 17320 bound_to 7965
  145.7128  141.0100  143.1444 LP  0  0  0  0  0  0  0  0  0  0  0  0  # atno 17321 bound_to 7965
  140.0536  143.5225  152.2662 LP  0  0  0  0  0  0  0  0  0  0  0  0  # atno 17342 bound_to 10162
  139.6096  144.7605  151.2983 LP  0  0  0  0  0  0  0  0  0  0  0  0  # atno 17343 bound_to 10162
  156.9334  130.9721  151.3529 LP  0  0  0  0  0  0  0  0  0  0  0  0  # atno 17370 bound_to 10713
  157.5887  130.8428  149.8628 LP  0  0  0  0  0  0  0  0  0  0  0  0  # atno 17371 bound_to 10713
  141.1451  133.6557  156.3844 LP  0  0  0  0  0  0  0  0  0  0  0  0  # atno 17394 bound_to 11000
  140.5163  134.6347  157.5302 LP  0  0  0  0  0  0  0  0  0  0  0  0  # atno 17395 bound_to 11000

$$$$
