AV-unprocessed.smi:1047|AV-procd|sdf|4587|dock8
  -GOLD-   22720 3 63D 1   1.00000     0.00000
 Structure written by MMmdl.
 58 60  0  0  0  0  0  0  0  0  4 V2000
  145.5265  143.2584  162.1381 C   0  0  0  0  0  0  0  0  0  0  0  0
  145.5892  142.3502  160.9020 C   0  0  0  0  0  0  0  0  0  0  0  0
  145.3646  143.0931  159.6365 N   0  3  2  0  0  0  0  0  0  0  0  0
  143.9548  143.5093  159.4351 C   0  0  0  0  0  0  0  0  0  0  0  0
  143.8061  144.2868  158.1170 C   0  0  0  0  0  0  0  0  0  0  0  0
  144.2824  143.4942  157.0355 O   0  0  0  0  0  0  0  0  0  0  0  0
  145.6641  143.1759  157.1658 C   0  0  2  0  0  0  0  0  0  0  0  0
  146.0976  142.3960  155.9147 C   0  0  0  0  0  0  0  0  0  0  0  0
  147.5572  142.1714  155.8990 N   0  3  0  0  0  0  0  0  0  0  0  0
  148.0365  141.4032  154.7321 C   0  0  0  0  0  0  0  0  0  0  0  0
  149.3844  140.7190  155.0296 C   0  0  1  0  0  0  0  0  0  0  0  0
  149.9306  140.2405  153.8175 O   0  0  0  0  0  0  0  0  0  0  0  0
  150.4334  141.6434  155.6795 C   0  0  0  0  0  0  0  0  0  0  0  0
  151.3047  140.9450  156.6351 N   0  0  0  0  0  0  0  0  0  0  0  0
  151.8839  139.7171  156.5384 C   0  0  0  0  0  0  0  0  0  0  0  0
  152.6103  139.5143  157.6718 N   0  3  0  0  0  0  0  0  0  0  0  0
  152.4987  140.6302  158.5032 C   0  0  0  0  0  0  0  0  0  0  0  0
  153.0519  140.8929  159.7506 C   0  0  0  0  0  0  0  0  0  0  0  0
  152.7435  142.1374  160.3441 C   0  0  0  0  0  0  0  0  0  0  0  0
  153.3340  142.4572  161.7068 C   0  0  0  0  0  0  0  0  0  0  0  0
  151.9028  143.0716  159.6855 C   0  0  0  0  0  0  0  0  0  0  0  0
  151.5768  144.4067  160.3338 C   0  0  0  0  0  0  0  0  0  0  0  0
  151.3501  142.7860  158.4164 C   0  0  0  0  0  0  0  0  0  0  0  0
  151.6644  141.5548  157.8442 C   0  0  0  0  0  0  0  0  0  0  0  0
  145.8563  142.3483  158.4524 C   0  0  0  0  0  0  0  0  0  0  0  0
  145.7901  142.6997  163.0364 H   0  0  0  0  0  0  0  0  0  0  0  0
  144.5292  143.6676  162.2954 H   0  0  0  0  0  0  0  0  0  0  0  0
  146.2246  144.0914  162.0520 H   0  0  0  0  0  0  0  0  0  0  0  0
  146.5789  141.8928  160.8747 H   0  0  0  0  0  0  0  0  0  0  0  0
  144.8730  141.5319  160.9897 H   0  0  0  0  0  0  0  0  0  0  0  0
  143.3107  142.6286  159.4219 H   0  0  0  0  0  0  0  0  0  0  0  0
  143.6207  144.1373  160.2605 H   0  0  0  0  0  0  0  0  0  0  0  0
  142.7579  144.5296  157.9416 H   0  0  0  0  0  0  0  0  0  0  0  0
  144.3489  145.2324  158.1585 H   0  0  0  0  0  0  0  0  0  0  0  0
  146.2491  144.0954  157.2352 H   0  0  0  0  0  0  0  0  0  0  0  0
  145.5999  141.4254  155.8949 H   0  0  0  0  0  0  0  0  0  0  0  0
  145.7964  142.9294  155.0119 H   0  0  0  0  0  0  0  0  0  0  0  0
  148.0224  143.0681  155.9061 H   0  0  0  0  0  0  0  0  0  0  0  0
  147.2893  140.6631  154.4418 H   0  0  0  0  0  0  0  0  0  0  0  0
  148.1412  142.0974  153.8980 H   0  0  0  0  0  0  0  0  0  0  0  0
  149.2164  139.8622  155.6840 H   0  0  0  0  0  0  0  0  0  0  0  0
  149.3793  140.5205  153.1021 H   0  0  0  0  0  0  0  0  0  0  0  0
  151.0835  142.0625  154.9100 H   0  0  0  0  0  0  0  0  0  0  0  0
  149.9625  142.4943  156.1719 H   0  0  0  0  0  0  0  0  0  0  0  0
  151.7874  139.0288  155.7108 H   0  0  0  0  0  0  0  0  0  0  0  0
  153.6918  140.1767  160.2458 H   0  0  0  0  0  0  0  0  0  0  0  0
  153.9611  143.3473  161.6530 H   0  0  0  0  0  0  0  0  0  0  0  0
  153.9508  141.6375  162.0768 H   0  0  0  0  0  0  0  0  0  0  0  0
  152.5428  142.6338  162.4358 H   0  0  0  0  0  0  0  0  0  0  0  0
  150.9251  145.0099  159.7007 H   0  0  0  0  0  0  0  0  0  0  0  0
  152.4878  144.9783  160.5132 H   0  0  0  0  0  0  0  0  0  0  0  0
  151.0689  144.2562  161.2869 H   0  0  0  0  0  0  0  0  0  0  0  0
  150.7114  143.5010  157.9199 H   0  0  0  0  0  0  0  0  0  0  0  0
  146.9137  142.1133  158.5825 H   0  0  0  0  0  0  0  0  0  0  0  0
  145.3244  141.3985  158.3733 H   0  0  0  0  0  0  0  0  0  0  0  0
  147.8188  141.6682  156.7353 H   0  0  0  0  0  0  0  0  0  0  0  0
  145.9183  143.9359  159.6952 H   0  0  0  0  0  0  0  0  0  0  0  0
  153.1470  138.6767  157.8593 H   0  0  0  0  0  0  0  0  0  0  0  0
  1  2  1  0  0  0  0
  1 26  1  0  0  0  0
  1 27  1  0  0  0  0
  1 28  1  0  0  0  0
  2  3  1  0  0  0  0
  2 29  1  0  0  0  0
  2 30  1  0  0  0  0
  3 25  1  0  0  0  0
  3  4  1  0  0  0  0
  3 57  1  0  0  0  0
  4  5  1  0  0  0  0
  4 31  1  0  0  0  0
  4 32  1  0  0  0  0
  5  6  1  0  0  0  0
  5 33  1  0  0  0  0
  5 34  1  0  0  0  0
  6  7  1  0  0  0  0
  7  8  1  0  0  0  0
  7 25  1  0  0  0  0
  7 35  1  0  0  0  0
  8  9  1  0  0  0  0
  8 36  1  0  0  0  0
  8 37  1  0  0  0  0
  9 10  1  0  0  0  0
  9 38  1  0  0  0  0
  9 56  1  0  0  0  0
 10 11  1  0  0  0  0
 10 39  1  0  0  0  0
 10 40  1  0  0  0  0
 11 12  1  0  0  0  0
 11 13  1  0  0  0  0
 11 41  1  0  0  0  0
 12 42  1  0  0  0  0
 13 14  1  0  0  0  0
 13 43  1  0  0  0  0
 13 44  1  0  0  0  0
 14 24  1  0  0  0  0
 14 15  1  0  0  0  0
 15 16  2  0  0  0  0
 15 45  1  0  0  0  0
 16 17  1  0  0  0  0
 16 58  1  0  0  0  0
 17 24  2  0  0  0  0
 17 18  1  0  0  0  0
 18 19  2  0  0  0  0
 18 46  1  0  0  0  0
 19 20  1  0  0  0  0
 19 21  1  0  0  0  0
 20 47  1  0  0  0  0
 20 48  1  0  0  0  0
 20 49  1  0  0  0  0
 21 22  1  0  0  0  0
 21 23  2  0  0  0  0
 22 50  1  0  0  0  0
 22 51  1  0  0  0  0
 22 52  1  0  0  0  0
 23 24  1  0  0  0  0
 23 53  1  0  0  0  0
 25 54  1  0  0  0  0
 25 55  1  0  0  0  0
M  CHG  1   3   1
M  CHG  1   9   1
M  CHG  1  16   1
M  END
> <s_m_source_file>
AV-unprocessed.smi

> <i_m_source_file_index>
1047

> <i_lp_mmshare_version>
43012

> <i_f3d_flags>
0

> <s_epik_input>
W0NIM11bQ0gyXU4xW0NIMl1bQ0gyXU9bQ0BIXShbQ0gyXTEpW0NIMl1bTkhdW0NIMl1bQ0BIXShbT0hdKVtDSDJdbihbY0hdbjIpYyhjMjMpW2NIXWMoW0NIM10pYyhbY0hdMylbQ0gzXQ==

> <s_epik_cmdline>
J2VwaWtfcHl0aG9uJywgJy1waCcsICc3LjAnLCAnLXRuJywgJzgnLCAnLW1hJywgJzIwMCcsICctbWV0YWxfYmluZGluZycsICctaW1hZScsICc8aW5maWxlLm1hZT4nLCAnLW9tYWUnLCAnPG91dGZpbGUubWFlPic=

> <r_epik_Ionization_Penalty>
1.6114

> <r_epik_Ionization_Penalty_Charging>
1.61139

> <r_epik_Ionization_Penalty_Neutral>
5.04732e-06

> <r_epik_State_Penalty>
1.63724

> <r_epik_Charging_Adjusted_Penalty>
3.24864

> <i_epik_Tot_Q>
3

> <i_epik_Tot_abs_Q>
3

> <r_epik_Metal_State_Penalty>
5.64594

> <b_epik_Metal_Only>
0

> <s_lp_Force_Field>
OPLS_2005

> <r_lp_Energy>
41.4775

> <b_lp_Chiralities_Consistent>
1

> <s_lp_Variant>
AV-unprocessed.smi:1047-28

> <Gold.Version>
5.8.1

> <Gold.Id.Protein>
6NUR|6NUR_protein|mol2

> <Gold.PLP.Fitness>
57.5514

> <Gold.PLP.PLP>
-49.1674

> <Gold.PLP.part.hbond>
-3.0000

> <Gold.PLP.part.metal>
0.0000

> <Gold.PLP.part.buried>
-8.2254

> <Gold.PLP.part.nonpolar>
-37.8949

> <Gold.PLP.part.repulsive>
0.2301

> <Gold.PLP.ligand.clash>
0.0000

> <Gold.PLP.ligand.torsion>
1.0550

> <Gold.PLP.Chemscore.Hbond>
3.4400

> <Gold.PLP.Chemscore.CHOScore>
0.0000

> <Gold.PLP.Chemscore.Metal>
0.0000

> <Gold.Chemscore.Hbonds>
donor molecule, donor type, donor heavy atom, donor atom, acceptor molecule, acceptor atom, score
      L1  H     9    38       P1  8028  2.00
      L1  H    12    42       P1  7957  0.53
      P1  H  7989  7998       L1    12  0.74

> <Gold.PLP.Chemscore.Internal.Correction>
0.1739

> <Gold.Rescore>
     Score         DG    S(hbond)    S(metal)    S(lipo)     H(rot)  DE(clash)    DE(int)     intcor
     17.71     -18.92       1.97        0.00     119.69       2.78       0.06       1.14       ----

> <Gold.Chemscore.Fitness>
17.7127

> <Gold.Chemscore.DG>
-18.9182

> <Gold.Chemscore.ZeroCoef>
-5.4800

> <Gold.Chemscore.Hbond>
1.9651

> <Gold.Chemscore.Metal>
0.0000

> <Gold.Chemscore.Lipo>
119.6895

> <Gold.Chemscore.Internal_Hbond>
0.0000

> <Gold.Chemscore.DEClash>
0.0620

> <Gold.Chemscore.DEInternal>
1.1435

> <Gold.Chemscore.Rot>
2.7848

> <Gold.Chemscore.Internal.Correction>
   9.000000E+99

> <Gold.Chemscore.Hbonds>
donor molecule, donor type, donor heavy atom, donor atom, acceptor molecule, acceptor atom, score
      L1  H     9    38       P1  8028  0.65
      L1  H    12    42       P1  7957  0.50
      P1  H  7989  7998       L1    12  0.36

> <Gold.Chemscore.Hbond.Weighted>
-6.5636

> <Gold.Chemscore.Metal.Weighted>
-0.0000

> <Gold.Chemscore.Lipo.Weighted>
-14.0037

> <Gold.Chemscore.Internal_Hbond.Weighted>
0.0000

> <Gold.Chemscore.DEClash.Weighted>
0.0620

> <Gold.Chemscore.DEInternal.Weighted>
1.1435

> <Gold.Chemscore.Rot.Weighted>
7.1291

> <Gold.Chemscore.Internal.Correction.Weighted>
   9.000000E+99

> <Gold.Protein.RotatedTorsions>
[ 6907 6896 6895 6894 ] final -143.42 input  -60.11 | X-H torsion
[ 7974 7965 7964 7962 ] final   56.04 input  175.53 | X-H torsion
[ 8008 7997 7996 7995 ] final   -8.54 input   59.86 | X-H torsion
[ 10167 10162 10161 10158 ] final   26.04 input  -65.29 | X-H torsion
[ 10718 10713 10712 10709 ] final  -64.62 input   66.30 | X-H torsion
[ 10763 10752 10751 10750 ] final  160.93 input  -60.55 | X-H torsion
[ 11005 11000 10999 10996 ] final -118.33 input  -57.11 | X-H torsion

> <Gold.Protein.ActiveResidues>
 VAL166  LYS551  ARG553  GLY616  TRP617  ASP618  TYR619  PRO620  LYS621  CYS622 
 ASP623  PHE694  ASN695  SER759  ASP760  ASP761  ALA762  ILE779  LEU786  VAL792 
 PHE793  MET794  SER795  GLU796  ALA797  LYS798  CYS799  TRP800  GLU811  SER814 

> <Gold.Protein.RotatedAtoms>
  151.1002  133.5249  159.2610 H   0  0  0  0  0  0  0  0  0  0  0  0  # atno 6907 bound_to 6896
  151.2083  135.0470  159.8910 H   0  0  0  0  0  0  0  0  0  0  0  0  # atno 6908 bound_to 6896
  152.5442  134.0821  159.8294 H   0  0  0  0  0  0  0  0  0  0  0  0  # atno 6909 bound_to 6896
  145.9440  139.3914  143.0346 H   0  0  0  0  0  0  0  0  0  0  0  0  # atno 7974 bound_to 7965
  154.5732  140.2378  155.8161 H   0  0  0  0  0  0  0  0  0  0  0  0  # atno 8008 bound_to 7997
  156.2123  140.3022  155.9717 H   0  0  0  0  0  0  0  0  0  0  0  0  # atno 8009 bound_to 7997
  155.2675  140.0417  157.2994 H   0  0  0  0  0  0  0  0  0  0  0  0  # atno 8010 bound_to 7997
  140.5056  144.0244  150.6350 H   0  0  0  0  0  0  0  0  0  0  0  0  # atno 10167 bound_to 10162
  156.0718  130.4236  150.1446 H   0  0  0  0  0  0  0  0  0  0  0  0  # atno 10718 bound_to 10713
  154.2551  135.2770  155.2801 H   0  0  0  0  0  0  0  0  0  0  0  0  # atno 10763 bound_to 10752
  154.5432  135.5696  153.6861 H   0  0  0  0  0  0  0  0  0  0  0  0  # atno 10764 bound_to 10752
  152.9973  135.6256  154.2699 H   0  0  0  0  0  0  0  0  0  0  0  0  # atno 10765 bound_to 10752
  141.0293  134.0005  157.3167 H   0  0  0  0  0  0  0  0  0  0  0  0  # atno 11005 bound_to 11000
  145.8261  140.9655  143.0873 LP  0  0  0  0  0  0  0  0  0  0  0  0  # atno 17320 bound_to 7965
  144.6784  140.0103  143.7484 LP  0  0  0  0  0  0  0  0  0  0  0  0  # atno 17321 bound_to 7965
  140.3552  143.2939  152.0443 LP  0  0  0  0  0  0  0  0  0  0  0  0  # atno 17342 bound_to 10162
  139.4883  144.6344  151.7006 LP  0  0  0  0  0  0  0  0  0  0  0  0  # atno 17343 bound_to 10162
  156.9496  130.9770  151.3501 LP  0  0  0  0  0  0  0  0  0  0  0  0  # atno 17370 bound_to 10713
  157.5793  130.8365  149.8499 LP  0  0  0  0  0  0  0  0  0  0  0  0  # atno 17371 bound_to 10713
  139.9197  135.0199  156.8017 LP  0  0  0  0  0  0  0  0  0  0  0  0  # atno 17394 bound_to 11000
  140.6435  133.9797  155.7719 LP  0  0  0  0  0  0  0  0  0  0  0  0  # atno 17395 bound_to 11000

$$$$
