AV-unprocessed.smi:1407|AV-procd|sdf|5725|dock5
  -GOLD-   22720 5353D 1   1.00000     0.00000
 Structure written by MMmdl.
 50 51  0  0  0  0  0  0  0  0  2 V2000
  149.8268  134.7669  154.6166 C   0  0  0  0  0  0  0  0  0  0  0  0
  149.2681  136.1459  154.6102 N   0  3  0  0  0  0  0  0  0  0  0  0
  147.8281  136.1084  154.9900 C   0  0  0  0  0  0  0  0  0  0  0  0
  150.1106  137.2030  155.2923 C   0  0  0  0  0  0  0  0  0  0  0  0
  150.3816  136.7328  156.7611 C   0  0  0  0  0  0  0  0  0  0  0  0
  149.1984  136.8057  157.6162 N   0  0  0  0  0  0  0  0  0  0  0  0
  149.1722  136.8688  158.9576 C   0  0  0  0  0  0  0  0  0  0  0  0
  150.1919  136.8866  159.6446 O   0  0  0  0  0  0  0  0  0  0  0  0
  147.7997  136.8941  159.6522 C   0  0  0  0  0  0  0  0  0  0  0  0
  147.6374  135.9000  160.7289 N   0  0  0  0  0  0  0  0  0  0  0  0
  147.7088  134.5424  160.3573 C   0  0  0  0  0  0  0  0  0  0  0  0
  147.5518  133.5525  161.2501 C   0  0  0  0  0  0  0  0  0  0  0  0
  147.3078  133.9088  162.6276 C   0  0  0  0  0  0  0  0  0  0  0  0
  147.2355  135.2040  162.9937 C   0  0  0  0  0  0  0  0  0  0  0  0
  147.3955  136.2892  162.0189 C   0  0  0  0  0  0  0  0  0  0  0  0
  147.3052  137.4742  162.3391 O   0  0  0  0  0  0  0  0  0  0  0  0
  151.4781  137.3389  154.5398 C   0  0  0  0  0  0  0  0  0  0  0  0
  152.1352  138.7250  154.3929 C   0  0  0  0  0  0  0  0  0  0  0  0
  152.2594  139.5682  155.6677 C   0  0  0  0  0  0  0  0  0  0  0  0
  151.0202  140.4374  155.9111 C   0  0  0  0  0  0  0  0  0  0  0  0
  149.7624  139.6599  156.3140 C   0  0  0  0  0  0  0  0  0  0  0  0
  149.3124  138.5566  155.3262 C   0  0  0  0  0  0  0  0  0  0  0  0
  150.0088  134.4113  155.6309 H   0  0  0  0  0  0  0  0  0  0  0  0
  150.7553  134.6930  154.0522 H   0  0  0  0  0  0  0  0  0  0  0  0
  149.1342  134.0700  154.1429 H   0  0  0  0  0  0  0  0  0  0  0  0
  147.6781  135.6865  155.9834 H   0  0  0  0  0  0  0  0  0  0  0  0
  147.2805  135.4781  154.2887 H   0  0  0  0  0  0  0  0  0  0  0  0
  147.3436  137.0810  154.9635 H   0  0  0  0  0  0  0  0  0  0  0  0
  150.8138  135.7347  156.8078 H   0  0  0  0  0  0  0  0  0  0  0  0
  151.1442  137.3521  157.2274 H   0  0  0  0  0  0  0  0  0  0  0  0
  148.3078  136.8024  157.1393 H   0  0  0  0  0  0  0  0  0  0  0  0
  147.6424  137.8971  160.0518 H   0  0  0  0  0  0  0  0  0  0  0  0
  147.0256  136.7717  158.8927 H   0  0  0  0  0  0  0  0  0  0  0  0
  147.8897  134.3628  159.3072 H   0  0  0  0  0  0  0  0  0  0  0  0
  147.6058  132.5174  160.9461 H   0  0  0  0  0  0  0  0  0  0  0  0
  147.1851  133.1330  163.3694 H   0  0  0  0  0  0  0  0  0  0  0  0
  147.0542  135.4515  164.0294 H   0  0  0  0  0  0  0  0  0  0  0  0
  152.2028  136.6584  154.9892 H   0  0  0  0  0  0  0  0  0  0  0  0
  151.3761  136.9841  153.5151 H   0  0  0  0  0  0  0  0  0  0  0  0
  153.1381  138.5654  153.9948 H   0  0  0  0  0  0  0  0  0  0  0  0
  151.6177  139.2980  153.6226 H   0  0  0  0  0  0  0  0  0  0  0  0
  152.5014  138.9538  156.5337 H   0  0  0  0  0  0  0  0  0  0  0  0
  153.1088  140.2411  155.5428 H   0  0  0  0  0  0  0  0  0  0  0  0
  151.2460  141.1582  156.6978 H   0  0  0  0  0  0  0  0  0  0  0  0
  150.8114  141.0317  155.0206 H   0  0  0  0  0  0  0  0  0  0  0  0
  149.8693  139.2803  157.3283 H   0  0  0  0  0  0  0  0  0  0  0  0
  148.9506  140.3848  156.3867 H   0  0  0  0  0  0  0  0  0  0  0  0
  149.2623  138.9932  154.3280 H   0  0  0  0  0  0  0  0  0  0  0  0
  148.2788  138.3319  155.5941 H   0  0  0  0  0  0  0  0  0  0  0  0
  149.2687  136.4169  153.6369 H   0  0  0  0  0  0  0  0  0  0  0  0
  1  2  1  0  0  0  0
  1 23  1  0  0  0  0
  1 24  1  0  0  0  0
  1 25  1  0  0  0  0
  2  3  1  0  0  0  0
  2  4  1  0  0  0  0
  2 50  1  0  0  0  0
  3 26  1  0  0  0  0
  3 27  1  0  0  0  0
  3 28  1  0  0  0  0
  4 22  1  0  0  0  0
  4  5  1  0  0  0  0
  4 17  1  0  0  0  0
  5  6  1  0  0  0  0
  5 29  1  0  0  0  0
  5 30  1  0  0  0  0
  6  7  1  0  0  0  0
  6 31  1  0  0  0  0
  7  8  2  0  0  0  0
  7  9  1  0  0  0  0
  9 10  1  0  0  0  0
  9 32  1  0  0  0  0
  9 33  1  0  0  0  0
 10 15  1  0  0  0  0
 10 11  1  0  0  0  0
 11 12  2  0  0  0  0
 11 34  1  0  0  0  0
 12 13  1  0  0  0  0
 12 35  1  0  0  0  0
 13 14  2  0  0  0  0
 13 36  1  0  0  0  0
 14 15  1  0  0  0  0
 14 37  1  0  0  0  0
 15 16  2  0  0  0  0
 17 18  1  0  0  0  0
 17 38  1  0  0  0  0
 17 39  1  0  0  0  0
 18 19  1  0  0  0  0
 18 40  1  0  0  0  0
 18 41  1  0  0  0  0
 19 20  1  0  0  0  0
 19 42  1  0  0  0  0
 19 43  1  0  0  0  0
 20 21  1  0  0  0  0
 20 44  1  0  0  0  0
 20 45  1  0  0  0  0
 21 22  1  0  0  0  0
 21 46  1  0  0  0  0
 21 47  1  0  0  0  0
 22 48  1  0  0  0  0
 22 49  1  0  0  0  0
M  CHG  1   2   1
M  END
> <s_m_source_file>
AV-unprocessed.smi

> <i_m_source_file_index>
1407

> <i_lp_mmshare_version>
43012

> <i_f3d_flags>
0

> <s_epik_input>
W0NIMl0xW0NIMl1bQ0gyXVtDSDJdW0NIMl1bQ0gyXUMxKE4oW0NIM10pW0NIM10pW0NIMl1bTkhdQyg9TylbQ0gyXW4yW2NIXVtjSF1bY0hdW2NIXWMyPU8=

> <s_epik_cmdline>
J2VwaWtfcHl0aG9uJywgJy1waCcsICc3LjAnLCAnLXRuJywgJzgnLCAnLW1hJywgJzIwMCcsICctbWV0YWxfYmluZGluZycsICctaW1hZScsICc8aW5maWxlLm1hZT4nLCAnLW9tYWUnLCAnPG91dGZpbGUubWFlPic=

> <r_lp_tautomer_probability>
1

> <r_epik_Ionization_Penalty>
0.00225809

> <r_epik_Ionization_Penalty_Charging>
0.00225802

> <r_epik_Ionization_Penalty_Neutral>
7.38919e-08

> <r_epik_State_Penalty>
0.00155497

> <r_epik_Charging_Adjusted_Penalty>
0.00381299

> <i_epik_Tot_Q>
1

> <i_epik_Tot_abs_Q>
1

> <r_epik_Metal_State_Penalty>
-0

> <b_epik_Metal_Only>
0

> <s_lp_Force_Field>
OPLS_2005

> <r_lp_Energy>
50.9808

> <b_lp_Chiralities_Consistent>
1

> <s_lp_Variant>
AV-unprocessed.smi:1407-1

> <Gold.Version>
5.8.1

> <Gold.Id.Protein>
6NUR|6NUR_protein|mol2

> <Gold.PLP.Fitness>
52.1578

> <Gold.PLP.PLP>
-40.9184

> <Gold.PLP.part.hbond>
-4.0145

> <Gold.PLP.part.metal>
0.0000

> <Gold.PLP.part.buried>
-3.0040

> <Gold.PLP.part.nonpolar>
-34.1758

> <Gold.PLP.part.repulsive>
0.0579

> <Gold.PLP.ligand.clash>
0.0000

> <Gold.PLP.ligand.torsion>
0.5378

> <Gold.PLP.Chemscore.Hbond>
4.0582

> <Gold.PLP.Chemscore.CHOScore>
0.0000

> <Gold.PLP.Chemscore.Metal>
0.0000

> <Gold.Chemscore.Hbonds>
donor molecule, donor type, donor heavy atom, donor atom, acceptor molecule, acceptor atom, score
      L1  H     2    50       P1  7948  2.00
      P1  H  6896  6908       L1     8  0.99
      P1  H  6931  6943       L1    16  0.69
      P1  H  6934  6947       L1    16  0.46

> <Gold.PLP.Chemscore.Internal.Correction>
0.1403

> <Gold.Rescore>
     Score         DG    S(hbond)    S(metal)    S(lipo)     H(rot)  DE(clash)    DE(int)     intcor
     19.27     -20.83       2.99        0.00      85.54       1.81       0.24       1.32       ----

> <Gold.Chemscore.Fitness>
19.2710

> <Gold.Chemscore.DG>
-20.8314

> <Gold.Chemscore.ZeroCoef>
-5.4800

> <Gold.Chemscore.Hbond>
2.9906

> <Gold.Chemscore.Metal>
0.0000

> <Gold.Chemscore.Lipo>
85.5369

> <Gold.Chemscore.Internal_Hbond>
0.0000

> <Gold.Chemscore.DEClash>
0.2399

> <Gold.Chemscore.DEInternal>
1.3204

> <Gold.Chemscore.Rot>
1.8145

> <Gold.Chemscore.Internal.Correction>
   9.000000E+99

> <Gold.Chemscore.Hbonds>
donor molecule, donor type, donor heavy atom, donor atom, acceptor molecule, acceptor atom, score
      L1  H     2    50       P1  7948  0.92
      P1  H  6896  6908       L1     8  0.79
      P1  H  6931  6943       L1    16  0.37
      P1  H  6934  6947       L1    16  0.46

> <Gold.Chemscore.Hbond.Weighted>
-9.9887

> <Gold.Chemscore.Metal.Weighted>
-0.0000

> <Gold.Chemscore.Lipo.Weighted>
-10.0078

> <Gold.Chemscore.Internal_Hbond.Weighted>
0.0000

> <Gold.Chemscore.DEClash.Weighted>
0.2399

> <Gold.Chemscore.DEInternal.Weighted>
1.3204

> <Gold.Chemscore.Rot.Weighted>
4.6451

> <Gold.Chemscore.Internal.Correction.Weighted>
   9.000000E+99

> <Gold.Protein.RotatedTorsions>
[ 6907 6896 6895 6894 ] final -151.50 input  -60.11 | X-H torsion
[ 7974 7965 7964 7962 ] final  -84.05 input  175.53 | X-H torsion
[ 8008 7997 7996 7995 ] final -112.20 input   59.86 | X-H torsion
[ 10167 10162 10161 10158 ] final   31.38 input  -65.29 | X-H torsion
[ 10718 10713 10712 10709 ] final  -34.32 input   66.30 | X-H torsion
[ 10763 10752 10751 10750 ] final  -69.45 input  -60.55 | X-H torsion
[ 11005 11000 10999 10996 ] final  -72.68 input  -57.11 | X-H torsion

> <Gold.Protein.ActiveResidues>
 VAL166  LYS551  ARG553  GLY616  TRP617  ASP618  TYR619  PRO620  LYS621  CYS622 
 ASP623  PHE694  ASN695  SER759  ASP760  ASP761  ALA762  ILE779  LEU786  VAL792 
 PHE793  MET794  SER795  GLU796  ALA797  LYS798  CYS799  TRP800  GLU811  SER814 

> <Gold.Protein.RotatedAtoms>
  151.2140  133.4539  159.2598 H   0  0  0  0  0  0  0  0  0  0  0  0  # atno 6907 bound_to 6896
  151.0948  134.9938  159.8430 H   0  0  0  0  0  0  0  0  0  0  0  0  # atno 6908 bound_to 6896
  152.5438  134.2071  159.8788 H   0  0  0  0  0  0  0  0  0  0  0  0  # atno 6909 bound_to 6896
  145.5118  140.9539  143.1703 H   0  0  0  0  0  0  0  0  0  0  0  0  # atno 7974 bound_to 7965
  155.0015  140.0394  157.2362 H   0  0  0  0  0  0  0  0  0  0  0  0  # atno 8008 bound_to 7997
  154.7539  140.2772  155.6247 H   0  0  0  0  0  0  0  0  0  0  0  0  # atno 8009 bound_to 7997
  156.2891  140.2641  156.2300 H   0  0  0  0  0  0  0  0  0  0  0  0  # atno 8010 bound_to 7997
  140.4594  144.0930  150.6209 H   0  0  0  0  0  0  0  0  0  0  0  0  # atno 10167 bound_to 10162
  156.3520  130.4310  149.7696 H   0  0  0  0  0  0  0  0  0  0  0  0  # atno 10718 bound_to 10713
  154.4035  135.6025  153.5911 H   0  0  0  0  0  0  0  0  0  0  0  0  # atno 10763 bound_to 10752
  152.9788  135.5912  154.4155 H   0  0  0  0  0  0  0  0  0  0  0  0  # atno 10764 bound_to 10752
  154.3957  135.2842  155.2105 H   0  0  0  0  0  0  0  0  0  0  0  0  # atno 10765 bound_to 10752
  141.1612  133.6854  156.7096 H   0  0  0  0  0  0  0  0  0  0  0  0  # atno 11005 bound_to 11000
  144.7723  139.6707  143.7189 LP  0  0  0  0  0  0  0  0  0  0  0  0  # atno 17320 bound_to 7965
  146.2162  139.5553  142.9649 LP  0  0  0  0  0  0  0  0  0  0  0  0  # atno 17321 bound_to 7965
  140.4112  143.2656  151.9830 LP  0  0  0  0  0  0  0  0  0  0  0  0  # atno 17342 bound_to 10162
  139.4804  144.5913  151.7766 LP  0  0  0  0  0  0  0  0  0  0  0  0  # atno 17343 bound_to 10162
  156.4893  130.8077  151.3088 LP  0  0  0  0  0  0  0  0  0  0  0  0  # atno 17370 bound_to 10713
  157.7462  130.9980  150.2838 LP  0  0  0  0  0  0  0  0  0  0  0  0  # atno 17371 bound_to 10713
  140.2897  134.8250  157.4006 LP  0  0  0  0  0  0  0  0  0  0  0  0  # atno 17394 bound_to 11000
  140.1358  134.5036  155.8070 LP  0  0  0  0  0  0  0  0  0  0  0  0  # atno 17395 bound_to 11000

$$$$
