AV-unprocessed.smi:716|AV-procd|sdf|3488|dock6
  -GOLD-   22720 0483D 1   1.00000     0.00000
 Structure written by MMmdl.
 48 50  0  0  0  0  0  0  0  0  1 V2000
  144.3723  144.7445  153.9406 C   0  0  0  0  0  0  0  0  0  0  0  0
  144.2848  143.6282  154.9833 C   0  0  0  0  0  0  0  0  0  0  0  0
  145.1320  142.5641  154.5852 O   0  0  0  0  0  0  0  0  0  0  0  0
  145.7155  141.8817  155.6840 C   0  0  2  0  0  0  0  0  0  0  0  0
  146.6384  142.7427  156.5521 C   0  0  0  0  0  0  0  0  0  0  0  0
  147.5158  141.4954  156.6678 C   0  0  2  0  0  0  0  0  0  0  0  0
  148.9386  141.8149  156.6721 N   0  0  0  0  0  0  0  0  0  0  0  0
  149.9047  140.9797  157.0792 C   0  0  0  0  0  0  0  0  0  0  0  0
  149.6834  139.8373  157.4832 O   0  0  0  0  0  0  0  0  0  0  0  0
  151.3405  141.5158  156.9900 C   0  0  0  0  0  0  0  0  0  0  0  0
  151.8786  141.9496  158.2872 N   0  0  0  0  0  0  0  0  0  0  0  0
  151.2797  143.0890  158.7991 N   0  0  0  0  0  0  0  0  0  0  0  0
  151.6562  143.5884  159.9306 C   0  0  0  0  0  0  0  0  0  0  0  0
  150.9574  144.8250  160.4121 C   0  0  0  0  0  0  0  0  0  0  0  0
  152.7207  142.9455  160.6772 C   0  0  0  0  0  0  0  0  0  0  0  0
  153.2990  141.8319  160.1787 C   0  0  0  0  0  0  0  0  0  0  0  0
  152.8809  141.2546  158.9033 C   0  0  0  0  0  0  0  0  0  0  0  0
  153.3818  140.2364  158.4264 O   0  0  0  0  0  0  0  0  0  0  0  0
  146.9527  141.0319  155.2996 C   0  0  0  0  0  0  0  0  0  0  0  0
  147.6919  141.4124  154.0097 C   0  0  0  0  0  0  0  0  0  0  0  0
  147.0835  140.5656  152.8892 C   0  0  0  0  0  0  0  0  0  0  0  0
  146.4840  139.3365  153.5809 C   0  0  0  0  0  0  0  0  0  0  0  0
  146.7218  139.5408  155.0809 C   0  0  0  0  0  0  0  0  0  0  0  0
  143.7297  145.5822  154.2118 H   0  0  0  0  0  0  0  0  0  0  0  0
  144.0611  144.3879  152.9585 H   0  0  0  0  0  0  0  0  0  0  0  0
  145.3925  145.1192  153.8538 H   0  0  0  0  0  0  0  0  0  0  0  0
  144.5856  144.0095  155.9600 H   0  0  0  0  0  0  0  0  0  0  0  0
  143.2556  143.2766  155.0678 H   0  0  0  0  0  0  0  0  0  0  0  0
  144.9902  141.3154  156.2730 H   0  0  0  0  0  0  0  0  0  0  0  0
  147.1046  143.5619  156.0013 H   0  0  0  0  0  0  0  0  0  0  0  0
  146.1982  143.0815  157.4902 H   0  0  0  0  0  0  0  0  0  0  0  0
  147.1967  140.8531  157.4925 H   0  0  0  0  0  0  0  0  0  0  0  0
  149.2051  142.7333  156.3481 H   0  0  0  0  0  0  0  0  0  0  0  0
  151.9655  140.7294  156.5630 H   0  0  0  0  0  0  0  0  0  0  0  0
  151.3837  142.3425  156.2780 H   0  0  0  0  0  0  0  0  0  0  0  0
  151.3053  145.1137  161.4043 H   0  0  0  0  0  0  0  0  0  0  0  0
  149.8805  144.6659  160.4700 H   0  0  0  0  0  0  0  0  0  0  0  0
  151.1409  145.6613  159.7371 H   0  0  0  0  0  0  0  0  0  0  0  0
  153.0412  143.3598  161.6218 H   0  0  0  0  0  0  0  0  0  0  0  0
  154.0916  141.3541  160.7352 H   0  0  0  0  0  0  0  0  0  0  0  0
  147.6331  142.4772  153.7823 H   0  0  0  0  0  0  0  0  0  0  0  0
  148.7513  141.1674  154.0904 H   0  0  0  0  0  0  0  0  0  0  0  0
  146.2957  141.1244  152.3826 H   0  0  0  0  0  0  0  0  0  0  0  0
  147.8278  140.2949  152.1398 H   0  0  0  0  0  0  0  0  0  0  0  0
  145.4152  139.2792  153.3712 H   0  0  0  0  0  0  0  0  0  0  0  0
  146.9373  138.4088  153.2307 H   0  0  0  0  0  0  0  0  0  0  0  0
  147.6072  138.9815  155.3863 H   0  0  0  0  0  0  0  0  0  0  0  0
  145.8898  139.1558  155.6709 H   0  0  0  0  0  0  0  0  0  0  0  0
  1  2  1  0  0  0  0
  1 24  1  0  0  0  0
  1 25  1  0  0  0  0
  1 26  1  0  0  0  0
  2  3  1  0  0  0  0
  2 27  1  0  0  0  0
  2 28  1  0  0  0  0
  3  4  1  0  0  0  0
  4 19  1  0  0  0  0
  4  5  1  0  0  0  0
  4 29  1  0  0  0  0
  5  6  1  0  0  0  0
  5 30  1  0  0  0  0
  5 31  1  0  0  0  0
  6  7  1  0  0  0  0
  6 19  1  0  0  0  0
  6 32  1  0  0  0  0
  7  8  1  0  0  0  0
  7 33  1  0  0  0  0
  8  9  2  0  0  0  0
  8 10  1  0  0  0  0
 10 11  1  0  0  0  0
 10 34  1  0  0  0  0
 10 35  1  0  0  0  0
 11 17  1  0  0  0  0
 11 12  1  0  0  0  0
 12 13  2  0  0  0  0
 13 14  1  0  0  0  0
 13 15  1  0  0  0  0
 14 36  1  0  0  0  0
 14 37  1  0  0  0  0
 14 38  1  0  0  0  0
 15 16  2  0  0  0  0
 15 39  1  0  0  0  0
 16 17  1  0  0  0  0
 16 40  1  0  0  0  0
 17 18  2  0  0  0  0
 19 23  1  0  0  0  0
 19 20  1  0  0  0  0
 20 21  1  0  0  0  0
 20 41  1  0  0  0  0
 20 42  1  0  0  0  0
 21 22  1  0  0  0  0
 21 43  1  0  0  0  0
 21 44  1  0  0  0  0
 22 23  1  0  0  0  0
 22 45  1  0  0  0  0
 22 46  1  0  0  0  0
 23 47  1  0  0  0  0
 23 48  1  0  0  0  0
M  END
> <s_m_source_file>
AV-unprocessed.smi

> <i_m_source_file_index>
716

> <i_lp_mmshare_version>
43012

> <i_f3d_flags>
0

> <s_epik_input>
W0NIMl0xW0NIMl1bQ0gyXVtDSDJdQzEyW0NASF0oT1tDSDJdW0NIM10pW0NIMl1bQ0BIXTJbTkhdQyg9TylbQ0gyXW4zbmMoW0NIM10pW2NIXVtjSF1jMz1P

> <s_epik_cmdline>
J2VwaWtfcHl0aG9uJywgJy1waCcsICc3LjAnLCAnLXRuJywgJzgnLCAnLW1hJywgJzIwMCcsICctbWV0YWxfYmluZGluZycsICctaW1hZScsICc8aW5maWxlLm1hZT4nLCAnLW9tYWUnLCAnPG91dGZpbGUubWFlPic=

> <r_lp_tautomer_probability>
1

> <r_epik_Ionization_Penalty>
4.75561e-08

> <r_epik_Ionization_Penalty_Charging>
2.86617e-08

> <r_epik_Ionization_Penalty_Neutral>
1.88944e-08

> <r_epik_State_Penalty>
-0

> <r_epik_Charging_Adjusted_Penalty>
2.86617e-08

> <i_epik_Tot_Q>
0

> <i_epik_Tot_abs_Q>
0

> <r_epik_Metal_State_Penalty>
-0

> <b_epik_Metal_Only>
0

> <s_lp_Force_Field>
OPLS_2005

> <r_lp_Energy>
50.3273

> <b_lp_Chiralities_Consistent>
1

> <s_lp_Variant>
AV-unprocessed.smi:716-3

> <Gold.Version>
5.8.1

> <Gold.Id.Protein>
6NUR|6NUR_protein|mol2

> <Gold.PLP.Fitness>
40.9110

> <Gold.PLP.PLP>
-36.7289

> <Gold.PLP.part.hbond>
-2.0000

> <Gold.PLP.part.metal>
0.0000

> <Gold.PLP.part.buried>
-2.4758

> <Gold.PLP.part.nonpolar>
-32.0708

> <Gold.PLP.part.repulsive>
0.2808

> <Gold.PLP.ligand.clash>
0.0000

> <Gold.PLP.ligand.torsion>
0.8993

> <Gold.PLP.Chemscore.Hbond>
1.8790

> <Gold.PLP.Chemscore.CHOScore>
0.0000

> <Gold.PLP.Chemscore.Metal>
0.0000

> <Gold.Chemscore.Hbonds>
donor molecule, donor type, donor heavy atom, donor atom, acceptor molecule, acceptor atom, score
      L1  H     7    33       P1  8028  0.76
      P1  H  7997  8008       L1    18  0.91

> <Gold.PLP.Chemscore.Internal.Correction>
0.3436

> <Gold.Rescore>
     Score         DG    S(hbond)    S(metal)    S(lipo)     H(rot)  DE(clash)    DE(int)     intcor
     16.23     -17.71       1.63        0.00      96.01       1.73       0.75       0.73       ----

> <Gold.Chemscore.Fitness>
16.2319

> <Gold.Chemscore.DG>
-17.7122

> <Gold.Chemscore.ZeroCoef>
-5.4800

> <Gold.Chemscore.Hbond>
1.6287

> <Gold.Chemscore.Metal>
0.0000

> <Gold.Chemscore.Lipo>
96.0133

> <Gold.Chemscore.Internal_Hbond>
0.0000

> <Gold.Chemscore.DEClash>
0.7540

> <Gold.Chemscore.DEInternal>
0.7264

> <Gold.Chemscore.Rot>
1.7348

> <Gold.Chemscore.Internal.Correction>
   9.000000E+99

> <Gold.Chemscore.Hbonds>
donor molecule, donor type, donor heavy atom, donor atom, acceptor molecule, acceptor atom, score
      L1  H     7    33       P1  8028  0.74
      P1  H  7997  8008       L1    18  0.88

> <Gold.Chemscore.Hbond.Weighted>
-5.4398

> <Gold.Chemscore.Metal.Weighted>
-0.0000

> <Gold.Chemscore.Lipo.Weighted>
-11.2336

> <Gold.Chemscore.Internal_Hbond.Weighted>
0.0000

> <Gold.Chemscore.DEClash.Weighted>
0.7540

> <Gold.Chemscore.DEInternal.Weighted>
0.7264

> <Gold.Chemscore.Rot.Weighted>
4.4411

> <Gold.Chemscore.Internal.Correction.Weighted>
   9.000000E+99

> <Gold.Protein.RotatedTorsions>
[ 6907 6896 6895 6894 ] final  101.20 input  -60.11 | X-H torsion
[ 7974 7965 7964 7962 ] final -117.51 input  175.53 | X-H torsion
[ 8008 7997 7996 7995 ] final  -95.77 input   59.86 | X-H torsion
[ 10167 10162 10161 10158 ] final   77.15 input  -65.29 | X-H torsion
[ 10718 10713 10712 10709 ] final   74.97 input   66.30 | X-H torsion
[ 10763 10752 10751 10750 ] final -179.92 input  -60.55 | X-H torsion
[ 11005 11000 10999 10996 ] final   51.20 input  -57.11 | X-H torsion

> <Gold.Protein.ActiveResidues>
 VAL166  LYS551  ARG553  GLY616  TRP617  ASP618  TYR619  PRO620  LYS621  CYS622 
 ASP623  PHE694  ASN695  SER759  ASP760  ASP761  ALA762  ILE779  LEU786  VAL792 
 PHE793  MET794  SER795  GLU796  ALA797  LYS798  CYS799  TRP800  GLU811  SER814 

> <Gold.Protein.RotatedAtoms>
  152.5355  134.0161  159.7960 H   0  0  0  0  0  0  0  0  0  0  0  0  # atno 6907 bound_to 6896
  151.0355  133.5744  159.2663 H   0  0  0  0  0  0  0  0  0  0  0  0  # atno 6908 bound_to 6896
  151.2733  135.0698  159.9195 H   0  0  0  0  0  0  0  0  0  0  0  0  # atno 6909 bound_to 6896
  145.0844  140.8447  143.4020 H   0  0  0  0  0  0  0  0  0  0  0  0  # atno 7974 bound_to 7965
  154.7657  140.0477  157.1010 H   0  0  0  0  0  0  0  0  0  0  0  0  # atno 8008 bound_to 7997
  154.9883  140.3110  155.4897 H   0  0  0  0  0  0  0  0  0  0  0  0  # atno 8009 bound_to 7997
  156.2912  140.2223  156.4986 H   0  0  0  0  0  0  0  0  0  0  0  0  # atno 8010 bound_to 7997
  139.9846  144.5801  150.7870 H   0  0  0  0  0  0  0  0  0  0  0  0  # atno 10167 bound_to 10162
  157.6614  130.9703  150.1286 H   0  0  0  0  0  0  0  0  0  0  0  0  # atno 10718 bound_to 10713
  154.5289  135.2798  155.1197 H   0  0  0  0  0  0  0  0  0  0  0  0  # atno 10763 bound_to 10752
  154.2725  135.6301  153.5319 H   0  0  0  0  0  0  0  0  0  0  0  0  # atno 10764 bound_to 10752
  152.9952  135.5632  154.5797 H   0  0  0  0  0  0  0  0  0  0  0  0  # atno 10765 bound_to 10752
  140.0952  134.5155  155.8813 H   0  0  0  0  0  0  0  0  0  0  0  0  # atno 11005 bound_to 11000
  145.1140  139.2738  143.5623 LP  0  0  0  0  0  0  0  0  0  0  0  0  # atno 17320 bound_to 7965
  146.3531  140.0744  142.8621 LP  0  0  0  0  0  0  0  0  0  0  0  0  # atno 17321 bound_to 7965
  140.7477  143.2910  151.3331 LP  0  0  0  0  0  0  0  0  0  0  0  0  # atno 17342 bound_to 10162
  139.6384  144.0586  152.2535 LP  0  0  0  0  0  0  0  0  0  0  0  0  # atno 17343 bound_to 10162
  156.2139  130.3669  149.8637 LP  0  0  0  0  0  0  0  0  0  0  0  0  # atno 17370 bound_to 10713
  156.6508  130.8743  151.3531 LP  0  0  0  0  0  0  0  0  0  0  0  0  # atno 17371 bound_to 10713
  141.2090  133.6679  156.6409 LP  0  0  0  0  0  0  0  0  0  0  0  0  # atno 17394 bound_to 11000
  140.3296  134.7940  157.4316 LP  0  0  0  0  0  0  0  0  0  0  0  0  # atno 17395 bound_to 11000

$$$$
