AV-unprocessed.smi:866|AV-procd|sdf|3993|dock1
  -GOLD-   22720 1473D 1   1.00000     0.00000
 Structure written by MMmdl.
 34 34  0  0  0  0  0  0  0  0  2 V2000
  153.5805  143.0660  162.6186 C   0  0  0  0  0  0  0  0  0  0  0  0
  153.3080  142.8709  161.1547 C   0  0  0  0  0  0  0  0  0  0  0  0
  154.0306  142.0636  160.2306 C   0  0  0  0  0  0  0  0  0  0  0  0
  153.5292  142.1087  159.0069 N   0  0  0  0  0  0  0  0  0  0  0  0
  152.4746  142.9451  159.1054 N   0  0  0  0  0  0  0  0  0  0  0  0
  151.6703  143.2287  157.9329 C   0  0  0  0  0  0  0  0  0  0  0  0
  151.0996  141.9474  157.3083 C   0  0  0  0  0  0  0  0  0  0  0  0
  150.3816  142.2500  156.0523 N   0  3  0  0  0  0  0  0  0  0  0  0
  149.5735  141.1407  155.4962 C   0  0  1  0  0  0  0  0  0  0  0  0
  148.5304  141.6661  154.4896 C   0  0  0  0  0  0  0  0  0  0  0  0
  150.5193  140.0931  154.8649 C   0  0  0  0  0  0  0  0  0  0  0  0
  149.8448  138.7567  154.5308 C   0  0  0  0  0  0  0  0  0  0  0  0
  149.6092  138.5027  153.2414 N   0  0  0  0  0  0  0  0  0  0  0  0
  149.5448  137.9615  155.4189 O   0  0  0  0  0  0  0  0  0  0  0  0
  152.3164  143.4181  160.3907 C   0  0  0  0  0  0  0  0  0  0  0  0
  154.2069  142.2708  163.0234 H   0  0  0  0  0  0  0  0  0  0  0  0
  152.6600  143.0767  163.2028 H   0  0  0  0  0  0  0  0  0  0  0  0
  154.0943  144.0082  162.8092 H   0  0  0  0  0  0  0  0  0  0  0  0
  154.8999  141.4487  160.4126 H   0  0  0  0  0  0  0  0  0  0  0  0
  150.8654  143.9061  158.2223 H   0  0  0  0  0  0  0  0  0  0  0  0
  152.2886  143.7614  157.2090 H   0  0  0  0  0  0  0  0  0  0  0  0
  151.9086  141.2450  157.1029 H   0  0  0  0  0  0  0  0  0  0  0  0
  150.4224  141.4638  158.0121 H   0  0  0  0  0  0  0  0  0  0  0  0
  149.7832  143.0508  156.1965 H   0  0  0  0  0  0  0  0  0  0  0  0
  149.0501  140.6716  156.3310 H   0  0  0  0  0  0  0  0  0  0  0  0
  147.9285  140.8559  154.0776 H   0  0  0  0  0  0  0  0  0  0  0  0
  149.0092  142.1781  153.6542 H   0  0  0  0  0  0  0  0  0  0  0  0
  147.8349  142.3653  154.9531 H   0  0  0  0  0  0  0  0  0  0  0  0
  150.9838  140.5060  153.9677 H   0  0  0  0  0  0  0  0  0  0  0  0
  151.3335  139.8724  155.5566 H   0  0  0  0  0  0  0  0  0  0  0  0
  149.1639  137.6394  152.9652 H   0  0  0  0  0  0  0  0  0  0  0  0
  149.8757  139.1813  152.5420 H   0  0  0  0  0  0  0  0  0  0  0  0
  151.5196  144.0981  160.6541 H   0  0  0  0  0  0  0  0  0  0  0  0
  151.0788  142.4922  155.3629 H   0  0  0  0  0  0  0  0  0  0  0  0
  1  2  1  0  0  0  0
  1 16  1  0  0  0  0
  1 17  1  0  0  0  0
  1 18  1  0  0  0  0
  2 15  2  0  0  0  0
  2  3  1  0  0  0  0
  3  4  2  0  0  0  0
  3 19  1  0  0  0  0
  4  5  1  0  0  0  0
  5  6  1  0  0  0  0
  5 15  1  0  0  0  0
  6  7  1  0  0  0  0
  6 20  1  0  0  0  0
  6 21  1  0  0  0  0
  7  8  1  0  0  0  0
  7 22  1  0  0  0  0
  7 23  1  0  0  0  0
  8  9  1  0  0  0  0
  8 24  1  0  0  0  0
  8 34  1  0  0  0  0
  9 10  1  0  0  0  0
  9 11  1  0  0  0  0
  9 25  1  0  0  0  0
 10 26  1  0  0  0  0
 10 27  1  0  0  0  0
 10 28  1  0  0  0  0
 11 12  1  0  0  0  0
 11 29  1  0  0  0  0
 11 30  1  0  0  0  0
 12 13  1  0  0  0  0
 12 14  2  0  0  0  0
 13 31  1  0  0  0  0
 13 32  1  0  0  0  0
 15 33  1  0  0  0  0
M  CHG  1   8   1
M  END
> <s_m_source_file>
AV-unprocessed.smi

> <i_m_source_file_index>
866

> <i_lp_mmshare_version>
43012

> <i_f3d_flags>
0

> <s_epik_input>
W0NIM11jMVtjSF1ubihbY0hdMSlbQ0gyXVtDSDJdW05IXVtDQEhdKFtDSDNdKVtDSDJdQyg9TylbTkgyXQ==

> <s_epik_cmdline>
J2VwaWtfcHl0aG9uJywgJy1waCcsICc3LjAnLCAnLXRuJywgJzgnLCAnLW1hJywgJzIwMCcsICctbWV0YWxfYmluZGluZycsICctaW1hZScsICc8aW5maWxlLm1hZT4nLCAnLW9tYWUnLCAnPG91dGZpbGUubWFlPic=

> <r_lp_tautomer_probability>
1

> <r_epik_Ionization_Penalty>
0.0061413

> <r_epik_Ionization_Penalty_Charging>
0.00613574

> <r_epik_Ionization_Penalty_Neutral>
5.56035e-06

> <r_epik_State_Penalty>
0.00452343

> <r_epik_Charging_Adjusted_Penalty>
0.0106592

> <i_epik_Tot_Q>
1

> <i_epik_Tot_abs_Q>
1

> <r_epik_Metal_State_Penalty>
-0

> <b_epik_Metal_Only>
0

> <s_lp_Force_Field>
OPLS_2005

> <r_lp_Energy>
3.04196

> <b_lp_Chiralities_Consistent>
1

> <s_lp_Variant>
AV-unprocessed.smi:866-2

> <Gold.Version>
5.8.1

> <Gold.Id.Protein>
6NUR|6NUR_protein|mol2

> <Gold.PLP.Fitness>
49.3711

> <Gold.PLP.PLP>
-38.1323

> <Gold.PLP.part.hbond>
-3.0000

> <Gold.PLP.part.metal>
0.0000

> <Gold.PLP.part.buried>
-1.9979

> <Gold.PLP.part.nonpolar>
-32.4678

> <Gold.PLP.part.repulsive>
0.2827

> <Gold.PLP.ligand.clash>
0.0000

> <Gold.PLP.ligand.torsion>
0.4062

> <Gold.PLP.Chemscore.Hbond>
3.9520

> <Gold.PLP.Chemscore.CHOScore>
0.0000

> <Gold.PLP.Chemscore.Metal>
0.0000

> <Gold.Chemscore.Hbonds>
donor molecule, donor type, donor heavy atom, donor atom, acceptor molecule, acceptor atom, score
      L1  H     8    24       P1  8028  2.00
      L1  H    13    31       P1  7948  1.00
      L1  H    13    32       P1  7957  1.00

> <Gold.PLP.Chemscore.Internal.Correction>
0.1951

> <Gold.Rescore>
     Score         DG    S(hbond)    S(metal)    S(lipo)     H(rot)  DE(clash)    DE(int)     intcor
     16.86     -17.34       2.73        0.00      84.18       2.77       0.01       0.47       ----

> <Gold.Chemscore.Fitness>
16.8614

> <Gold.Chemscore.DG>
-17.3444

> <Gold.Chemscore.ZeroCoef>
-5.4800

> <Gold.Chemscore.Hbond>
2.7295

> <Gold.Chemscore.Metal>
0.0000

> <Gold.Chemscore.Lipo>
84.1812

> <Gold.Chemscore.Internal_Hbond>
0.0000

> <Gold.Chemscore.DEClash>
0.0106

> <Gold.Chemscore.DEInternal>
0.4724

> <Gold.Chemscore.Rot>
2.7740

> <Gold.Chemscore.Internal.Correction>
   9.000000E+99

> <Gold.Chemscore.Hbonds>
donor molecule, donor type, donor heavy atom, donor atom, acceptor molecule, acceptor atom, score
      L1  H     8    24       P1  8028  0.96
      L1  H    13    31       P1  7948  0.94
      L1  H    13    32       P1  7957  0.82

> <Gold.Chemscore.Hbond.Weighted>
-9.1166

> <Gold.Chemscore.Metal.Weighted>
-0.0000

> <Gold.Chemscore.Lipo.Weighted>
-9.8492

> <Gold.Chemscore.Internal_Hbond.Weighted>
0.0000

> <Gold.Chemscore.DEClash.Weighted>
0.0106

> <Gold.Chemscore.DEInternal.Weighted>
0.4724

> <Gold.Chemscore.Rot.Weighted>
7.1014

> <Gold.Chemscore.Internal.Correction.Weighted>
   9.000000E+99

> <Gold.Protein.RotatedTorsions>
[ 6907 6896 6895 6894 ] final   40.24 input  -60.11 | X-H torsion
[ 7974 7965 7964 7962 ] final  -81.81 input  175.53 | X-H torsion
[ 8008 7997 7996 7995 ] final  126.22 input   59.86 | X-H torsion
[ 10167 10162 10161 10158 ] final  141.33 input  -65.29 | X-H torsion
[ 10718 10713 10712 10709 ] final  -63.44 input   66.30 | X-H torsion
[ 10763 10752 10751 10750 ] final  -39.03 input  -60.55 | X-H torsion
[ 11005 11000 10999 10996 ] final  -91.60 input  -57.11 | X-H torsion

> <Gold.Protein.ActiveResidues>
 VAL166  LYS551  ARG553  GLY616  TRP617  ASP618  TYR619  PRO620  LYS621  CYS622 
 ASP623  PHE694  ASN695  SER759  ASP760  ASP761  ALA762  ILE779  LEU786  VAL792 
 PHE793  MET794  SER795  GLU796  ALA797  LYS798  CYS799  TRP800  GLU811  SER814 

> <Gold.Protein.RotatedAtoms>
  152.1799  134.8763  160.0527 H   0  0  0  0  0  0  0  0  0  0  0  0  # atno 6907 bound_to 6896
  151.9691  133.3715  159.4072 H   0  0  0  0  0  0  0  0  0  0  0  0  # atno 6908 bound_to 6896
  150.6916  134.4082  159.5194 H   0  0  0  0  0  0  0  0  0  0  0  0  # atno 6909 bound_to 6896
  145.5416  140.9509  143.1548 H   0  0  0  0  0  0  0  0  0  0  0  0  # atno 7974 bound_to 7965
  156.2857  140.2698  156.2075 H   0  0  0  0  0  0  0  0  0  0  0  0  # atno 8008 bound_to 7997
  155.0298  140.0386  157.2487 H   0  0  0  0  0  0  0  0  0  0  0  0  # atno 8009 bound_to 7997
  154.7364  140.2716  155.6416 H   0  0  0  0  0  0  0  0  0  0  0  0  # atno 8010 bound_to 7997
  139.5023  144.6178  151.6123 H   0  0  0  0  0  0  0  0  0  0  0  0  # atno 10167 bound_to 10162
  156.0791  130.4221  150.1277 H   0  0  0  0  0  0  0  0  0  0  0  0  # atno 10718 bound_to 10713
  153.9226  135.6780  153.4747 H   0  0  0  0  0  0  0  0  0  0  0  0  # atno 10763 bound_to 10752
  153.1021  135.4823  154.8882 H   0  0  0  0  0  0  0  0  0  0  0  0  # atno 10764 bound_to 10752
  154.7470  135.3175  154.8583 H   0  0  0  0  0  0  0  0  0  0  0  0  # atno 10765 bound_to 10752
  141.1541  133.7766  156.9902 H   0  0  0  0  0  0  0  0  0  0  0  0  # atno 11005 bound_to 11000
  144.7574  139.7041  143.7248 LP  0  0  0  0  0  0  0  0  0  0  0  0  # atno 17320 bound_to 7965
  146.1977  139.5253  142.9764 LP  0  0  0  0  0  0  0  0  0  0  0  0  # atno 17321 bound_to 7965
  140.5871  143.9845  150.6302 LP  0  0  0  0  0  0  0  0  0  0  0  0  # atno 17342 bound_to 10162
  140.3013  143.3259  152.0969 LP  0  0  0  0  0  0  0  0  0  0  0  0  # atno 17343 bound_to 10162
  156.9313  130.9714  151.3532 LP  0  0  0  0  0  0  0  0  0  0  0  0  # atno 17370 bound_to 10713
  157.5900  130.8437  149.8645 LP  0  0  0  0  0  0  0  0  0  0  0  0  # atno 17371 bound_to 10713
  140.1008  134.9536  157.1920 LP  0  0  0  0  0  0  0  0  0  0  0  0  # atno 17394 bound_to 11000
  140.3321  134.2798  155.7226 LP  0  0  0  0  0  0  0  0  0  0  0  0  # atno 17395 bound_to 11000

$$$$
