AV-unprocessed.smi:1586|AV-procd|sdf|6383|dock8
  -GOLD-   22720 7 13D 1   1.00000     0.00000
 Structure written by MMmdl.
 46 47  0  0  0  0  0  0  0  0  3 V2000
  144.3334  131.8464  150.5816 C   0  0  0  0  0  0  0  0  0  0  0  0
  144.3182  133.3321  150.9703 C   0  0  0  0  0  0  0  0  0  0  0  0
  145.5868  133.9938  150.6561 N   0  0  0  0  0  0  0  0  0  0  0  0
  145.5978  135.4444  150.8622 C   0  0  0  0  0  0  0  0  0  0  0  0
  145.5403  135.8296  152.3557 C   0  0  0  0  0  0  0  0  0  0  0  0
  146.6748  135.2251  153.1072 N   0  3  0  0  0  0  0  0  0  0  0  0
  146.7721  135.5892  154.5584 C   0  0  2  0  0  0  0  0  0  0  0  0
  146.4044  137.0644  154.8542 C   0  0  0  0  0  0  0  0  0  0  0  0
  148.1935  135.2761  155.0839 C   0  0  0  0  0  0  0  0  0  0  0  0
  149.1911  136.1944  154.5461 N   0  0  0  0  0  0  0  0  0  0  0  0
  150.2500  136.6688  155.2156 C   0  0  0  0  0  0  0  0  0  0  0  0
  150.4238  136.3503  156.3940 O   0  0  0  0  0  0  0  0  0  0  0  0
  151.0411  137.4791  154.4760 N   0  5  0  0  0  0  0  0  0  0  0  0
  151.1735  138.7745  154.8018 C   0  0  0  0  0  0  0  0  0  0  0  0
  150.1946  139.7892  154.6178 C   0  0  0  0  0  0  0  0  0  0  0  0
  150.8134  140.9100  155.0942 C   0  0  0  0  0  0  0  0  0  0  0  0
  150.3784  142.3301  155.2206 C   0  0  0  0  0  0  0  0  0  0  0  0
  152.0693  140.6099  155.5222 O   0  0  0  0  0  0  0  0  0  0  0  0
  152.2942  139.2423  155.3252 N   0  0  0  0  0  0  0  0  0  0  0  0
  146.6764  133.7531  152.8870 C   0  0  0  0  0  0  0  0  0  0  0  0
  146.7182  133.4151  151.3820 C   0  0  0  0  0  0  0  0  0  0  0  0
  143.4346  131.3487  150.9459 H   0  0  0  0  0  0  0  0  0  0  0  0
  145.1919  131.3319  151.0143 H   0  0  0  0  0  0  0  0  0  0  0  0
  144.3616  131.7056  149.5017 H   0  0  0  0  0  0  0  0  0  0  0  0
  143.4733  133.8348  150.5012 H   0  0  0  0  0  0  0  0  0  0  0  0
  144.1559  133.3951  152.0471 H   0  0  0  0  0  0  0  0  0  0  0  0
  146.5125  135.8450  150.4232 H   0  0  0  0  0  0  0  0  0  0  0  0
  144.7796  135.9140  150.3180 H   0  0  0  0  0  0  0  0  0  0  0  0
  145.5931  136.9168  152.3997 H   0  0  0  0  0  0  0  0  0  0  0  0
  144.5903  135.5381  152.8047 H   0  0  0  0  0  0  0  0  0  0  0  0
  146.0557  134.9733  155.1051 H   0  0  0  0  0  0  0  0  0  0  0  0
  146.5012  137.3010  155.9139 H   0  0  0  0  0  0  0  0  0  0  0  0
  145.3687  137.2878  154.5985 H   0  0  0  0  0  0  0  0  0  0  0  0
  147.0497  137.7534  154.3083 H   0  0  0  0  0  0  0  0  0  0  0  0
  148.2470  135.3440  156.1694 H   0  0  0  0  0  0  0  0  0  0  0  0
  148.4565  134.2498  154.8205 H   0  0  0  0  0  0  0  0  0  0  0  0
  149.0835  136.4819  153.5843 H   0  0  0  0  0  0  0  0  0  0  0  0
  149.1990  139.7059  154.2085 H   0  0  0  0  0  0  0  0  0  0  0  0
  149.5445  142.4162  155.9170 H   0  0  0  0  0  0  0  0  0  0  0  0
  150.0564  142.7217  154.2557 H   0  0  0  0  0  0  0  0  0  0  0  0
  151.1898  142.9597  155.5866 H   0  0  0  0  0  0  0  0  0  0  0  0
  147.5445  133.2964  153.3586 H   0  0  0  0  0  0  0  0  0  0  0  0
  145.8028  133.3044  153.3614 H   0  0  0  0  0  0  0  0  0  0  0  0
  146.7331  132.3342  151.2369 H   0  0  0  0  0  0  0  0  0  0  0  0
  147.6443  133.7940  150.9476 H   0  0  0  0  0  0  0  0  0  0  0  0
  147.5117  135.5874  152.6730 H   0  0  0  0  0  0  0  0  0  0  0  0
  1  2  1  0  0  0  0
  1 22  1  0  0  0  0
  1 23  1  0  0  0  0
  1 24  1  0  0  0  0
  2  3  1  0  0  0  0
  2 25  1  0  0  0  0
  2 26  1  0  0  0  0
  3 21  1  0  0  0  0
  3  4  1  0  0  0  0
  4  5  1  0  0  0  0
  4 27  1  0  0  0  0
  4 28  1  0  0  0  0
  5  6  1  0  0  0  0
  5 29  1  0  0  0  0
  5 30  1  0  0  0  0
  6  7  1  0  0  0  0
  6 20  1  0  0  0  0
  6 46  1  0  0  0  0
  7  8  1  0  0  0  0
  7  9  1  0  0  0  0
  7 31  1  0  0  0  0
  8 32  1  0  0  0  0
  8 33  1  0  0  0  0
  8 34  1  0  0  0  0
  9 10  1  0  0  0  0
  9 35  1  0  0  0  0
  9 36  1  0  0  0  0
 10 11  1  0  0  0  0
 10 37  1  0  0  0  0
 11 12  2  0  0  0  0
 11 13  1  0  0  0  0
 13 14  1  0  0  0  0
 14 19  2  0  0  0  0
 14 15  1  0  0  0  0
 15 16  2  0  0  0  0
 15 38  1  0  0  0  0
 16 17  1  0  0  0  0
 16 18  1  0  0  0  0
 17 39  1  0  0  0  0
 17 40  1  0  0  0  0
 17 41  1  0  0  0  0
 18 19  1  0  0  0  0
 20 21  1  0  0  0  0
 20 42  1  0  0  0  0
 20 43  1  0  0  0  0
 21 44  1  0  0  0  0
 21 45  1  0  0  0  0
M  CHG  1   6   1
M  CHG  1  13  -1
M  END
> <s_m_source_file>
AV-unprocessed.smi

> <i_m_source_file_index>
1586

> <i_lp_mmshare_version>
43012

> <i_f3d_flags>
0

> <s_epik_input>
W0NIM11bQ0gyXU4xW0NIMl1bQ0gyXU4oW0NIMl1bQ0gyXTEpW0NASF0oW0NIM10pW0NIMl1bTkhdQyg9TylbTkhdYzJbY0hdYyhbQ0gzXSlvbjI=

> <s_epik_cmdline>
J2VwaWtfcHl0aG9uJywgJy1waCcsICc3LjAnLCAnLXRuJywgJzgnLCAnLW1hJywgJzIwMCcsICctbWV0YWxfYmluZGluZycsICctaW1hZScsICc8aW5maWxlLm1hZT4nLCAnLW9tYWUnLCAnPG91dGZpbGUubWFlPic=

> <r_epik_Ionization_Penalty>
6.35599

> <r_epik_Ionization_Penalty_Charging>
6.35441

> <r_epik_Ionization_Penalty_Neutral>
0.00158318

> <r_epik_State_Penalty>
7.1902

> <r_epik_Charging_Adjusted_Penalty>
13.5446

> <i_epik_Tot_Q>
0

> <i_epik_Tot_abs_Q>
2

> <r_epik_Metal_State_Penalty>
3.12491

> <b_epik_Metal_Only>
1

> <s_lp_Force_Field>
OPLS_2005

> <r_lp_Energy>
12.1212

> <b_lp_Chiralities_Consistent>
1

> <s_lp_Variant>
AV-unprocessed.smi:1586-11

> <Gold.Version>
5.8.1

> <Gold.Id.Protein>
6NUR|6NUR_protein|mol2

> <Gold.PLP.Fitness>
50.1877

> <Gold.PLP.PLP>
-35.6463

> <Gold.PLP.part.hbond>
-4.0000

> <Gold.PLP.part.metal>
0.0000

> <Gold.PLP.part.buried>
-6.7988

> <Gold.PLP.part.nonpolar>
-25.5534

> <Gold.PLP.part.repulsive>
1.9004

> <Gold.PLP.ligand.clash>
0.0000

> <Gold.PLP.ligand.torsion>
1.7814

> <Gold.PLP.Chemscore.Hbond>
6.0000

> <Gold.PLP.Chemscore.CHOScore>
0.0000

> <Gold.PLP.Chemscore.Metal>
0.0000

> <Gold.Chemscore.Hbonds>
donor molecule, donor type, donor heavy atom, donor atom, acceptor molecule, acceptor atom, score
      L1  H     6    46       P1  7948  2.00
      L1  H    10    37       P1  7948  1.00

> <Gold.PLP.Chemscore.Internal.Correction>
0.1043

> <Gold.Rescore>
     Score         DG    S(hbond)    S(metal)    S(lipo)     H(rot)  DE(clash)    DE(int)     intcor
     17.16     -18.89       3.17        0.00      61.80       1.73       0.13       1.61       ----

> <Gold.Chemscore.Fitness>
17.1551

> <Gold.Chemscore.DG>
-18.8933

> <Gold.Chemscore.ZeroCoef>
-5.4800

> <Gold.Chemscore.Hbond>
3.1731

> <Gold.Chemscore.Metal>
0.0000

> <Gold.Chemscore.Lipo>
61.8038

> <Gold.Chemscore.Internal_Hbond>
0.0000

> <Gold.Chemscore.DEClash>
0.1276

> <Gold.Chemscore.DEInternal>
1.6105

> <Gold.Chemscore.Rot>
1.7250

> <Gold.Chemscore.Internal.Correction>
   9.000000E+99

> <Gold.Chemscore.Hbonds>
donor molecule, donor type, donor heavy atom, donor atom, acceptor molecule, acceptor atom, score
      L1  H     6    46       P1  7948  1.00
      L1  H    10    37       P1  7948  0.97

> <Gold.Chemscore.Hbond.Weighted>
-10.5983

> <Gold.Chemscore.Metal.Weighted>
-0.0000

> <Gold.Chemscore.Lipo.Weighted>
-7.2310

> <Gold.Chemscore.Internal_Hbond.Weighted>
0.0000

> <Gold.Chemscore.DEClash.Weighted>
0.1276

> <Gold.Chemscore.DEInternal.Weighted>
1.6105

> <Gold.Chemscore.Rot.Weighted>
4.4161

> <Gold.Chemscore.Internal.Correction.Weighted>
   9.000000E+99

> <Gold.Protein.RotatedTorsions>
[ 6907 6896 6895 6894 ] final  134.93 input  -60.11 | X-H torsion
[ 7974 7965 7964 7962 ] final  -39.70 input  175.53 | X-H torsion
[ 8008 7997 7996 7995 ] final -154.86 input   59.86 | X-H torsion
[ 10167 10162 10161 10158 ] final -120.39 input  -65.29 | X-H torsion
[ 10718 10713 10712 10709 ] final -164.79 input   66.30 | X-H torsion
[ 10763 10752 10751 10750 ] final  151.72 input  -60.55 | X-H torsion
[ 11005 11000 10999 10996 ] final   51.19 input  -57.11 | X-H torsion

> <Gold.Protein.ActiveResidues>
 VAL166  LYS551  ARG553  GLY616  TRP617  ASP618  TYR619  PRO620  LYS621  CYS622 
 ASP623  PHE694  ASN695  SER759  ASP760  ASP761  ALA762  ILE779  LEU786  VAL792 
 PHE793  MET794  SER795  GLU796  ALA797  LYS798  CYS799  TRP800  GLU811  SER814 

> <Gold.Protein.RotatedAtoms>
  152.3060  133.5704  159.5649 H   0  0  0  0  0  0  0  0  0  0  0  0  # atno 6907 bound_to 6896
  150.7300  134.0222  159.3714 H   0  0  0  0  0  0  0  0  0  0  0  0  # atno 6908 bound_to 6896
  151.8118  135.0679  160.0465 H   0  0  0  0  0  0  0  0  0  0  0  0  # atno 6909 bound_to 6896
  146.0373  140.6655  142.9104 H   0  0  0  0  0  0  0  0  0  0  0  0  # atno 7974 bound_to 7965
  155.6929  140.0757  157.2441 H   0  0  0  0  0  0  0  0  0  0  0  0  # atno 8008 bound_to 7997
  154.4085  140.1661  156.2158 H   0  0  0  0  0  0  0  0  0  0  0  0  # atno 8009 bound_to 7997
  155.9436  140.3382  155.6351 H   0  0  0  0  0  0  0  0  0  0  0  0  # atno 8010 bound_to 7997
  140.0363  143.5197  152.2152 H   0  0  0  0  0  0  0  0  0  0  0  0  # atno 10167 bound_to 10162
  156.6441  130.8980  151.3001 H   0  0  0  0  0  0  0  0  0  0  0  0  # atno 10718 bound_to 10713
  154.1083  135.2841  155.3236 H   0  0  0  0  0  0  0  0  0  0  0  0  # atno 10763 bound_to 10752
  154.6507  135.5370  153.7902 H   0  0  0  0  0  0  0  0  0  0  0  0  # atno 10764 bound_to 10752
  153.0354  135.6509  154.1243 H   0  0  0  0  0  0  0  0  0  0  0  0  # atno 10765 bound_to 10752
  140.0954  134.5153  155.8812 H   0  0  0  0  0  0  0  0  0  0  0  0  # atno 11005 bound_to 11000
  144.7057  140.3843  143.7120 LP  0  0  0  0  0  0  0  0  0  0  0  0  # atno 17320 bound_to 7965
  145.6943  139.1646  143.2629 LP  0  0  0  0  0  0  0  0  0  0  0  0  # atno 17321 bound_to 7965
  139.6043  144.7591  151.3099 LP  0  0  0  0  0  0  0  0  0  0  0  0  # atno 17342 bound_to 10162
  140.7280  143.6948  150.7892 LP  0  0  0  0  0  0  0  0  0  0  0  0  # atno 17343 bound_to 10162
  157.7162  130.9500  150.1263 LP  0  0  0  0  0  0  0  0  0  0  0  0  # atno 17370 bound_to 10713
  156.2136  130.3668  149.8640 LP  0  0  0  0  0  0  0  0  0  0  0  0  # atno 17371 bound_to 10713
  141.2090  133.6679  156.6411 LP  0  0  0  0  0  0  0  0  0  0  0  0  # atno 17394 bound_to 11000
  140.3294  134.7941  157.4314 LP  0  0  0  0  0  0  0  0  0  0  0  0  # atno 17395 bound_to 11000

$$$$
