AV-unprocessed.smi:1554|AV-procd|sdf|6247|dock5
  -GOLD-   22720 6433D 1   1.00000     0.00000
 Structure written by MMmdl.
 48 50  0  0  0  0  0  0  0  0  2 V2000
  152.3281  142.8298  160.8533 C   0  0  0  0  0  0  0  0  0  0  0  0
  152.1244  142.0914  159.5420 C   0  0  0  0  0  0  0  0  0  0  0  0
  152.8356  140.8924  159.3107 C   0  0  0  0  0  0  0  0  0  0  0  0
  152.6716  140.1736  158.1064 C   0  0  0  0  0  0  0  0  0  0  0  0
  153.2561  138.9945  157.6768 N   0  0  0  0  0  0  0  0  0  0  0  0
  152.6993  138.8398  156.4794 C   0  0  0  0  0  0  0  0  0  0  0  0
  151.8203  139.7795  156.0818 N   0  0  0  0  0  0  0  0  0  0  0  0
  151.0912  139.8150  154.8266 C   0  0  0  0  0  0  0  0  0  0  0  0
  150.1015  138.6421  154.6880 C   0  0  1  0  0  0  0  0  0  0  0  0
  149.4087  138.7535  153.4590 O   0  0  0  0  0  0  0  0  0  0  0  0
  150.8172  137.2779  154.7328 C   0  0  0  0  0  0  0  0  0  0  0  0
  149.8636  136.1372  154.6708 N   0  3  2  0  0  0  0  0  0  0  0  0
  148.7245  136.2269  155.6205 C   0  0  0  0  0  0  0  0  0  0  0  0
  149.1439  135.8234  157.0478 C   0  0  0  0  0  0  0  0  0  0  0  0
  149.7376  134.5310  157.0312 O   0  0  0  0  0  0  0  0  0  0  0  0
  150.9059  134.4769  156.2198 C   0  0  1  0  0  0  0  0  0  0  0  0
  151.5122  133.0752  156.3490 C   0  0  0  0  0  0  0  0  0  0  0  0
  150.5157  134.8082  154.7649 C   0  0  0  0  0  0  0  0  0  0  0  0
  151.7694  140.6913  157.1313 C   0  0  0  0  0  0  0  0  0  0  0  0
  151.0566  141.8837  157.3496 C   0  0  0  0  0  0  0  0  0  0  0  0
  151.2324  142.5891  158.5584 C   0  0  0  0  0  0  0  0  0  0  0  0
  150.4584  143.8758  158.7844 C   0  0  0  0  0  0  0  0  0  0  0  0
  153.0750  142.3368  161.4765 H   0  0  0  0  0  0  0  0  0  0  0  0
  151.3955  142.8694  161.4164 H   0  0  0  0  0  0  0  0  0  0  0  0
  152.6665  143.8501  160.6710 H   0  0  0  0  0  0  0  0  0  0  0  0
  153.5145  140.5129  160.0601 H   0  0  0  0  0  0  0  0  0  0  0  0
  152.9418  137.9923  155.8548 H   0  0  0  0  0  0  0  0  0  0  0  0
  150.5707  140.7704  154.7499 H   0  0  0  0  0  0  0  0  0  0  0  0
  151.8174  139.7916  154.0130 H   0  0  0  0  0  0  0  0  0  0  0  0
  149.3705  138.7106  155.4932 H   0  0  0  0  0  0  0  0  0  0  0  0
  149.3240  137.8926  153.0781 H   0  0  0  0  0  0  0  0  0  0  0  0
  151.5120  137.2260  153.8931 H   0  0  0  0  0  0  0  0  0  0  0  0
  151.4296  137.2010  155.6312 H   0  0  0  0  0  0  0  0  0  0  0  0
  148.2840  137.2232  155.6188 H   0  0  0  0  0  0  0  0  0  0  0  0
  147.9432  135.5490  155.2746 H   0  0  0  0  0  0  0  0  0  0  0  0
  149.8337  136.5475  157.4825 H   0  0  0  0  0  0  0  0  0  0  0  0
  148.2693  135.7966  157.6978 H   0  0  0  0  0  0  0  0  0  0  0  0
  151.6350  135.2012  156.5874 H   0  0  0  0  0  0  0  0  0  0  0  0
  152.4182  132.9830  155.7494 H   0  0  0  0  0  0  0  0  0  0  0  0
  150.8113  132.3087  156.0168 H   0  0  0  0  0  0  0  0  0  0  0  0
  151.7765  132.8585  157.3843 H   0  0  0  0  0  0  0  0  0  0  0  0
  149.8134  134.0590  154.3965 H   0  0  0  0  0  0  0  0  0  0  0  0
  151.3839  134.7608  154.1065 H   0  0  0  0  0  0  0  0  0  0  0  0
  150.3790  142.2520  156.5941 H   0  0  0  0  0  0  0  0  0  0  0  0
  149.8097  144.1035  157.9381 H   0  0  0  0  0  0  0  0  0  0  0  0
  151.1427  144.7143  158.9162 H   0  0  0  0  0  0  0  0  0  0  0  0
  149.8327  143.7949  159.6734 H   0  0  0  0  0  0  0  0  0  0  0  0
  149.4687  136.1838  153.7417 H   0  0  0  0  0  0  0  0  0  0  0  0
  1  2  1  0  0  0  0
  1 23  1  0  0  0  0
  1 24  1  0  0  0  0
  1 25  1  0  0  0  0
  2 21  1  0  0  0  0
  2  3  2  0  0  0  0
  3  4  1  0  0  0  0
  3 26  1  0  0  0  0
  4 19  2  0  0  0  0
  4  5  1  0  0  0  0
  5  6  2  0  0  0  0
  6  7  1  0  0  0  0
  6 27  1  0  0  0  0
  7  8  1  0  0  0  0
  7 19  1  0  0  0  0
  8  9  1  0  0  0  0
  8 28  1  0  0  0  0
  8 29  1  0  0  0  0
  9 10  1  0  0  0  0
  9 11  1  0  0  0  0
  9 30  1  0  0  0  0
 10 31  1  0  0  0  0
 11 12  1  0  0  0  0
 11 32  1  0  0  0  0
 11 33  1  0  0  0  0
 12 18  1  0  0  0  0
 12 13  1  0  0  0  0
 12 48  1  0  0  0  0
 13 14  1  0  0  0  0
 13 34  1  0  0  0  0
 13 35  1  0  0  0  0
 14 15  1  0  0  0  0
 14 36  1  0  0  0  0
 14 37  1  0  0  0  0
 15 16  1  0  0  0  0
 16 17  1  0  0  0  0
 16 18  1  0  0  0  0
 16 38  1  0  0  0  0
 17 39  1  0  0  0  0
 17 40  1  0  0  0  0
 17 41  1  0  0  0  0
 18 42  1  0  0  0  0
 18 43  1  0  0  0  0
 19 20  1  0  0  0  0
 20 21  2  0  0  0  0
 20 44  1  0  0  0  0
 21 22  1  0  0  0  0
 22 45  1  0  0  0  0
 22 46  1  0  0  0  0
 22 47  1  0  0  0  0
M  CHG  1  12   1
M  END
> <s_m_source_file>
AV-unprocessed.smi

> <i_m_source_file_index>
1554

> <i_lp_mmshare_version>
43012

> <i_f3d_flags>
0

> <s_epik_input>
W0NIM11jKFtjSF0xKWMoW0NIM10pW2NIXWMoYzEyKW4oW2NIXW4yKVtDSDJdW0NASF0oW09IXSlbQ0gyXU4zW0NIMl1bQ0gyXU9bQ0BASF0oW0NIM10pW0NIMl0z

> <s_epik_cmdline>
J2VwaWtfcHl0aG9uJywgJy1waCcsICc3LjAnLCAnLXRuJywgJzgnLCAnLW1hJywgJzIwMCcsICctbWV0YWxfYmluZGluZycsICctaW1hZScsICc8aW5maWxlLm1hZT4nLCAnLW9tYWUnLCAnPG91dGZpbGUubWFlPic=

> <r_epik_Ionization_Penalty>
0.695251

> <r_epik_Ionization_Penalty_Charging>
0.608065

> <r_epik_Ionization_Penalty_Neutral>
0.0871863

> <r_epik_State_Penalty>
0.731955

> <r_epik_Charging_Adjusted_Penalty>
1.34002

> <i_epik_Tot_Q>
1

> <i_epik_Tot_abs_Q>
1

> <r_epik_Metal_State_Penalty>
0.652186

> <b_epik_Metal_Only>
0

> <s_lp_Force_Field>
OPLS_2005

> <r_lp_Energy>
22.6642

> <b_lp_Chiralities_Consistent>
1

> <s_lp_Variant>
AV-unprocessed.smi:1554-8

> <Gold.Version>
5.8.1

> <Gold.Id.Protein>
6NUR|6NUR_protein|mol2

> <Gold.PLP.Fitness>
48.5992

> <Gold.PLP.PLP>
-38.1824

> <Gold.PLP.part.hbond>
-4.0000

> <Gold.PLP.part.metal>
0.0000

> <Gold.PLP.part.buried>
-1.6903

> <Gold.PLP.part.nonpolar>
-32.4159

> <Gold.PLP.part.repulsive>
0.0338

> <Gold.PLP.ligand.clash>
0.0000

> <Gold.PLP.ligand.torsion>
0.0593

> <Gold.PLP.Chemscore.Hbond>
3.5000

> <Gold.PLP.Chemscore.CHOScore>
0.0000

> <Gold.PLP.Chemscore.Metal>
0.0000

> <Gold.Chemscore.Hbonds>
donor molecule, donor type, donor heavy atom, donor atom, acceptor molecule, acceptor atom, score
      L1  H    10    31       P1  7948  0.93
      L1  H    12    48       P1  7948  2.00
      P1  H  7997  8008       L1     5  0.25

> <Gold.PLP.Chemscore.Internal.Correction>
0.0354

> <Gold.Rescore>
     Score         DG    S(hbond)    S(metal)    S(lipo)     H(rot)  DE(clash)    DE(int)     intcor
     18.09     -19.25       1.92        0.00     107.91       2.05       0.01       1.14       ----

> <Gold.Chemscore.Fitness>
18.0881

> <Gold.Chemscore.DG>
-19.2476

> <Gold.Chemscore.ZeroCoef>
-5.4800

> <Gold.Chemscore.Hbond>
1.9168

> <Gold.Chemscore.Metal>
0.0000

> <Gold.Chemscore.Lipo>
107.9068

> <Gold.Chemscore.Internal_Hbond>
0.0000

> <Gold.Chemscore.DEClash>
0.0149

> <Gold.Chemscore.DEInternal>
1.1447

> <Gold.Chemscore.Rot>
2.0546

> <Gold.Chemscore.Internal.Correction>
   9.000000E+99

> <Gold.Chemscore.Hbonds>
donor molecule, donor type, donor heavy atom, donor atom, acceptor molecule, acceptor atom, score
      L1  H    10    31       P1  7948  0.85
      L1  H    12    48       P1  7948  0.65

> <Gold.Chemscore.Hbond.Weighted>
-6.4022

> <Gold.Chemscore.Metal.Weighted>
-0.0000

> <Gold.Chemscore.Lipo.Weighted>
-12.6251

> <Gold.Chemscore.Internal_Hbond.Weighted>
0.0000

> <Gold.Chemscore.DEClash.Weighted>
0.0149

> <Gold.Chemscore.DEInternal.Weighted>
1.1447

> <Gold.Chemscore.Rot.Weighted>
5.2597

> <Gold.Chemscore.Internal.Correction.Weighted>
   9.000000E+99

> <Gold.Protein.RotatedTorsions>
[ 6907 6896 6895 6894 ] final -128.06 input  -60.11 | X-H torsion
[ 7974 7965 7964 7962 ] final -154.45 input  175.53 | X-H torsion
[ 8008 7997 7996 7995 ] final  -88.59 input   59.86 | X-H torsion
[ 10167 10162 10161 10158 ] final   46.86 input  -65.29 | X-H torsion
[ 10718 10713 10712 10709 ] final  147.38 input   66.30 | X-H torsion
[ 10763 10752 10751 10750 ] final  -29.75 input  -60.55 | X-H torsion
[ 11005 11000 10999 10996 ] final -166.53 input  -57.11 | X-H torsion

> <Gold.Protein.ActiveResidues>
 VAL166  LYS551  ARG553  GLY616  TRP617  ASP618  TYR619  PRO620  LYS621  CYS622 
 ASP623  PHE694  ASN695  SER759  ASP760  ASP761  ALA762  ILE779  LEU786  VAL792 
 PHE793  MET794  SER795  GLU796  ALA797  LYS798  CYS799  TRP800  GLU811  SER814 

> <Gold.Protein.RotatedAtoms>
  150.9139  133.6963  159.2847 H   0  0  0  0  0  0  0  0  0  0  0  0  # atno 6907 bound_to 6896
  151.4440  135.1022  159.9688 H   0  0  0  0  0  0  0  0  0  0  0  0  # atno 6908 bound_to 6896
  152.4944  133.8540  159.7271 H   0  0  0  0  0  0  0  0  0  0  0  0  # atno 6909 bound_to 6896
  144.7689  140.4387  143.5922 H   0  0  0  0  0  0  0  0  0  0  0  0  # atno 7974 bound_to 7965
  154.6766  140.0552  157.0221 H   0  0  0  0  0  0  0  0  0  0  0  0  # atno 8008 bound_to 7997
  155.1012  140.3229  155.4528 H   0  0  0  0  0  0  0  0  0  0  0  0  # atno 8009 bound_to 7997
  156.2678  140.2031  156.6138 H   0  0  0  0  0  0  0  0  0  0  0  0  # atno 8010 bound_to 7997
  140.3095  144.2837  150.6202 H   0  0  0  0  0  0  0  0  0  0  0  0  # atno 10167 bound_to 10162
  157.3216  131.0905  151.1236 H   0  0  0  0  0  0  0  0  0  0  0  0  # atno 10718 bound_to 10713
  153.7697  135.6913  153.4909 H   0  0  0  0  0  0  0  0  0  0  0  0  # atno 10763 bound_to 10752
  153.1883  135.4480  155.0115 H   0  0  0  0  0  0  0  0  0  0  0  0  # atno 10764 bound_to 10752
  154.8122  135.3383  154.7207 H   0  0  0  0  0  0  0  0  0  0  0  0  # atno 10765 bound_to 10752
  140.5634  134.5310  157.5148 H   0  0  0  0  0  0  0  0  0  0  0  0  # atno 11005 bound_to 11000
  145.6385  139.1546  143.2929 LP  0  0  0  0  0  0  0  0  0  0  0  0  # atno 17320 bound_to 7965
  146.1819  140.6483  142.9185 LP  0  0  0  0  0  0  0  0  0  0  0  0  # atno 17321 bound_to 7965
  140.5580  143.2196  151.7814 LP  0  0  0  0  0  0  0  0  0  0  0  0  # atno 17342 bound_to 10162
  139.4897  144.4387  151.9789 LP  0  0  0  0  0  0  0  0  0  0  0  0  # atno 17343 bound_to 10162
  157.2518  130.6618  149.5935 LP  0  0  0  0  0  0  0  0  0  0  0  0  # atno 17370 bound_to 10713
  155.9686  130.4536  150.5817 LP  0  0  0  0  0  0  0  0  0  0  0  0  # atno 17371 bound_to 10713
  139.9397  134.7810  156.0711 LP  0  0  0  0  0  0  0  0  0  0  0  0  # atno 17394 bound_to 11000
  141.1100  133.6646  156.2957 LP  0  0  0  0  0  0  0  0  0  0  0  0  # atno 17395 bound_to 11000

$$$$
