AV-unprocessed.smi:1723|AV-procd|sdf|6945|dock8
  -GOLD-   22720 8153D 1   1.00000     0.00000
 Structure written by MMmdl.
 38 38  0  0  0  0  0  0  0  0  1 V2000
  144.8917  145.5859  152.4496 C   0  0  0  0  0  0  0  0  0  0  0  0
  144.8470  144.7344  153.7232 C   0  0  0  0  0  0  0  0  0  0  0  0
  145.7083  143.4683  153.6160 C   0  0  0  0  0  0  0  0  0  0  0  0
  146.0558  142.8735  154.9852 C   0  0  0  0  0  0  0  0  0  0  0  0
  146.3838  141.5002  154.8103 O   0  0  0  0  0  0  0  0  0  0  0  0
  147.4526  141.2355  153.9055 C   0  0  2  0  0  0  0  0  0  0  0  0
  147.1627  139.8871  153.2288 C   0  0  0  0  0  0  0  0  0  0  0  0
  148.7928  141.2078  154.6583 C   0  0  0  0  0  0  0  0  0  0  0  0
  149.8239  140.9352  154.0444 O   0  0  0  0  0  0  0  0  0  0  0  0
  148.7180  141.4620  155.9801 N   0  0  0  0  0  0  0  0  0  0  0  0
  149.7388  141.5097  156.9450 C   0  0  0  0  0  0  0  0  0  0  0  0
  150.2262  142.6447  157.5115 C   0  0  0  0  0  0  0  0  0  0  0  0
  151.2789  142.6171  158.5132 C   0  0  0  0  0  0  0  0  0  0  0  0
  151.8761  143.8979  159.0757 C   0  0  0  0  0  0  0  0  0  0  0  0
  150.9367  144.6707  159.6226 F   0  0  0  0  0  0  0  0  0  0  0  0
  152.7919  143.6301  160.0069 F   0  0  0  0  0  0  0  0  0  0  0  0
  152.4655  144.5885  158.1006 F   0  0  0  0  0  0  0  0  0  0  0  0
  151.7543  141.4045  158.8514 C   0  0  0  0  0  0  0  0  0  0  0  0
  151.2431  140.2317  158.2920 N   0  0  0  0  0  0  0  0  0  0  0  0
  150.2663  140.1983  157.3580 C   0  0  0  0  0  0  0  0  0  0  0  0
  149.8730  139.1218  156.9097 O   0  0  0  0  0  0  0  0  0  0  0  0
  151.6399  139.3600  158.6121 H   0  0  0  0  0  0  0  0  0  0  0  0
  144.2748  146.4783  152.5570 H   0  0  0  0  0  0  0  0  0  0  0  0
  144.5215  145.0273  151.5895 H   0  0  0  0  0  0  0  0  0  0  0  0
  145.9088  145.9095  152.2271 H   0  0  0  0  0  0  0  0  0  0  0  0
  145.1833  145.3344  154.5695 H   0  0  0  0  0  0  0  0  0  0  0  0
  143.8131  144.4572  153.9320 H   0  0  0  0  0  0  0  0  0  0  0  0
  145.1825  142.7192  153.0227 H   0  0  0  0  0  0  0  0  0  0  0  0
  146.6290  143.6982  153.0786 H   0  0  0  0  0  0  0  0  0  0  0  0
  146.9032  143.4051  155.4206 H   0  0  0  0  0  0  0  0  0  0  0  0
  145.2087  142.9926  155.6617 H   0  0  0  0  0  0  0  0  0  0  0  0
  147.4734  142.0073  153.1335 H   0  0  0  0  0  0  0  0  0  0  0  0
  147.9582  139.6116  152.5355 H   0  0  0  0  0  0  0  0  0  0  0  0
  146.2335  139.9331  152.6606 H   0  0  0  0  0  0  0  0  0  0  0  0
  147.0609  139.0838  153.9597 H   0  0  0  0  0  0  0  0  0  0  0  0
  147.7894  141.6101  156.3490 H   0  0  0  0  0  0  0  0  0  0  0  0
  149.8331  143.6128  157.2494 H   0  0  0  0  0  0  0  0  0  0  0  0
  152.5537  141.2403  159.5589 H   0  0  0  0  0  0  0  0  0  0  0  0
  1  2  1  0  0  0  0
  1 23  1  0  0  0  0
  1 24  1  0  0  0  0
  1 25  1  0  0  0  0
  2  3  1  0  0  0  0
  2 26  1  0  0  0  0
  2 27  1  0  0  0  0
  3  4  1  0  0  0  0
  3 28  1  0  0  0  0
  3 29  1  0  0  0  0
  4  5  1  0  0  0  0
  4 30  1  0  0  0  0
  4 31  1  0  0  0  0
  5  6  1  0  0  0  0
  6  7  1  0  0  0  0
  6  8  1  0  0  0  0
  6 32  1  0  0  0  0
  7 33  1  0  0  0  0
  7 34  1  0  0  0  0
  7 35  1  0  0  0  0
  8  9  2  0  0  0  0
  8 10  1  0  0  0  0
 10 11  1  0  0  0  0
 10 36  1  0  0  0  0
 11 20  1  0  0  0  0
 11 12  2  0  0  0  0
 12 13  1  0  0  0  0
 12 37  1  0  0  0  0
 13 14  1  0  0  0  0
 13 18  2  0  0  0  0
 14 15  1  0  0  0  0
 14 16  1  0  0  0  0
 14 17  1  0  0  0  0
 18 19  1  0  0  0  0
 18 38  1  0  0  0  0
 19 22  1  0  0  0  0
 19 20  1  0  0  0  0
 20 21  2  0  0  0  0
M  END
> <s_m_source_file>
AV-unprocessed.smi

> <i_m_source_file_index>
1723

> <i_lp_mmshare_version>
43012

> <i_f3d_flags>
0

> <s_epik_input>
W0NIM11bQ0gyXVtDSDJdW0NIMl1PW0NASF0oW0NIM10pQyg9TylbTkhdYzFbY0hdYyhDKEYpKEYpRilbY0hdW25IXWMxPU8=

> <s_epik_cmdline>
J2VwaWtfcHl0aG9uJywgJy1waCcsICc3LjAnLCAnLXRuJywgJzgnLCAnLW1hJywgJzIwMCcsICctbWV0YWxfYmluZGluZycsICctaW1hZScsICc8aW5maWxlLm1hZT4nLCAnLW9tYWUnLCAnPG91dGZpbGUubWFlPic=

> <r_lp_tautomer_probability>
0.999

> <r_epik_Ionization_Penalty>
0.00763408

> <r_epik_Ionization_Penalty_Charging>
0.00763398

> <r_epik_Ionization_Penalty_Neutral>
9.29819e-08

> <r_epik_State_Penalty>
0.00571302

> <r_epik_Charging_Adjusted_Penalty>
0.013347

> <i_epik_Tot_Q>
0

> <i_epik_Tot_abs_Q>
0

> <r_epik_Metal_State_Penalty>
0.392814

> <b_epik_Metal_Only>
0

> <s_lp_Force_Field>
OPLS_2005

> <r_lp_Energy>
19.1413

> <b_lp_Chiralities_Consistent>
1

> <s_lp_Variant>
AV-unprocessed.smi:1723-1

> <Gold.Version>
5.8.1

> <Gold.Id.Protein>
6NUR|6NUR_protein|mol2

> <Gold.PLP.Fitness>
44.6599

> <Gold.PLP.PLP>
-45.9190

> <Gold.PLP.part.hbond>
-2.0607

> <Gold.PLP.part.metal>
0.0000

> <Gold.PLP.part.buried>
-3.1957

> <Gold.PLP.part.nonpolar>
-41.9324

> <Gold.PLP.part.repulsive>
1.2235

> <Gold.PLP.ligand.clash>
1.3075

> <Gold.PLP.ligand.torsion>
1.3837

> <Gold.PLP.Chemscore.Hbond>
0.8770

> <Gold.PLP.Chemscore.CHOScore>
0.0000

> <Gold.PLP.Chemscore.Metal>
0.0000

> <Gold.Chemscore.Hbonds>
donor molecule, donor type, donor heavy atom, donor atom, acceptor molecule, acceptor atom, score
      P1  H  7989  7998       L1     9  0.50
      P1  H  8011  8017       L1     9  0.36

> <Gold.PLP.Chemscore.Internal.Correction>
0.1847

> <Gold.Rescore>
     Score         DG    S(hbond)    S(metal)    S(lipo)     H(rot)  DE(clash)    DE(int)     intcor
     11.19     -12.90       0.74        0.00      85.97       1.99       0.47       1.24       ----

> <Gold.Chemscore.Fitness>
11.1905

> <Gold.Chemscore.DG>
-12.8987

> <Gold.Chemscore.ZeroCoef>
-5.4800

> <Gold.Chemscore.Hbond>
0.7385

> <Gold.Chemscore.Metal>
0.0000

> <Gold.Chemscore.Lipo>
85.9683

> <Gold.Chemscore.Internal_Hbond>
0.0000

> <Gold.Chemscore.DEClash>
0.4658

> <Gold.Chemscore.DEInternal>
1.2424

> <Gold.Chemscore.Rot>
1.9946

> <Gold.Chemscore.Internal.Correction>
   9.000000E+99

> <Gold.Chemscore.Hbonds>
donor molecule, donor type, donor heavy atom, donor atom, acceptor molecule, acceptor atom, score
      P1  H  7989  7998       L1     9  0.50
      P1  H  8011  8017       L1     9  0.15

> <Gold.Chemscore.Hbond.Weighted>
-2.4666

> <Gold.Chemscore.Metal.Weighted>
-0.0000

> <Gold.Chemscore.Lipo.Weighted>
-10.0583

> <Gold.Chemscore.Internal_Hbond.Weighted>
0.0000

> <Gold.Chemscore.DEClash.Weighted>
0.4658

> <Gold.Chemscore.DEInternal.Weighted>
1.2424

> <Gold.Chemscore.Rot.Weighted>
5.1062

> <Gold.Chemscore.Internal.Correction.Weighted>
   9.000000E+99

> <Gold.Protein.RotatedTorsions>
[ 6907 6896 6895 6894 ] final  -99.35 input  -60.11 | X-H torsion
[ 7974 7965 7964 7962 ] final  104.45 input  175.53 | X-H torsion
[ 8008 7997 7996 7995 ] final    9.84 input   59.86 | X-H torsion
[ 10167 10162 10161 10158 ] final  -12.52 input  -65.29 | X-H torsion
[ 10718 10713 10712 10709 ] final  119.09 input   66.30 | X-H torsion
[ 10763 10752 10751 10750 ] final  -36.86 input  -60.55 | X-H torsion
[ 11005 11000 10999 10996 ] final  151.05 input  -57.11 | X-H torsion

> <Gold.Protein.ActiveResidues>
 VAL166  LYS551  ARG553  GLY616  TRP617  ASP618  TYR619  PRO620  LYS621  CYS622 
 ASP623  PHE694  ASN695  SER759  ASP760  ASP761  ALA762  ILE779  LEU786  VAL792 
 PHE793  MET794  SER795  GLU796  ALA797  LYS798  CYS799  TRP800  GLU811  SER814 

> <Gold.Protein.RotatedAtoms>
  150.7077  134.1054  159.3980 H   0  0  0  0  0  0  0  0  0  0  0  0  # atno 6907 bound_to 6896
  151.9041  135.0364  160.0518 H   0  0  0  0  0  0  0  0  0  0  0  0  # atno 6908 bound_to 6896
  152.2390  133.5084  159.5296 H   0  0  0  0  0  0  0  0  0  0  0  0  # atno 6909 bound_to 6896
  145.3326  139.2482  143.3652 H   0  0  0  0  0  0  0  0  0  0  0  0  # atno 7974 bound_to 7965
  154.7854  140.2826  155.6032 H   0  0  0  0  0  0  0  0  0  0  0  0  # atno 8008 bound_to 7997
  156.2956  140.2615  156.2617 H   0  0  0  0  0  0  0  0  0  0  0  0  # atno 8009 bound_to 7997
  154.9734  140.0376  157.2234 H   0  0  0  0  0  0  0  0  0  0  0  0  # atno 8010 bound_to 7997
  140.7163  143.5523  150.9287 H   0  0  0  0  0  0  0  0  0  0  0  0  # atno 10167 bound_to 10162
  157.5985  131.1054  150.7848 H   0  0  0  0  0  0  0  0  0  0  0  0  # atno 10718 bound_to 10713
  153.8868  135.6816  153.4763 H   0  0  0  0  0  0  0  0  0  0  0  0  # atno 10763 bound_to 10752
  153.1203  135.4743  154.9182 H   0  0  0  0  0  0  0  0  0  0  0  0  # atno 10764 bound_to 10752
  154.7642  135.3219  154.8271 H   0  0  0  0  0  0  0  0  0  0  0  0  # atno 10765 bound_to 10752
  140.1185  134.8879  157.2038 H   0  0  0  0  0  0  0  0  0  0  0  0  # atno 11005 bound_to 11000
  146.3039  140.3907  142.8694 LP  0  0  0  0  0  0  0  0  0  0  0  0  # atno 17320 bound_to 7965
  144.8852  140.7452  143.5961 LP  0  0  0  0  0  0  0  0  0  0  0  0  # atno 17321 bound_to 7965
  139.9248  143.6563  152.3089 LP  0  0  0  0  0  0  0  0  0  0  0  0  # atno 17342 bound_to 10162
  139.6993  144.7637  151.1301 LP  0  0  0  0  0  0  0  0  0  0  0  0  # atno 17343 bound_to 10162
  156.8252  130.4997  149.5338 LP  0  0  0  0  0  0  0  0  0  0  0  0  # atno 17370 bound_to 10713
  156.1053  130.6000  150.9961 LP  0  0  0  0  0  0  0  0  0  0  0  0  # atno 17371 bound_to 10713
  140.2997  134.3146  155.7293 LP  0  0  0  0  0  0  0  0  0  0  0  0  # atno 17394 bound_to 11000
  141.2146  133.7584  156.9623 LP  0  0  0  0  0  0  0  0  0  0  0  0  # atno 17395 bound_to 11000

$$$$
