AV-unprocessed.smi:1444|AV-procd|sdf|5881|dock4
  -GOLD-   22720 5563D 1   1.00000     0.00000
 Structure written by MMmdl.
 43 44  0  0  0  0  0  0  0  0  1 V2000
  146.6155  133.0147  150.5089 C   0  0  0  0  0  0  0  0  0  0  0  0
  146.5048  134.2120  151.2709 O   0  0  0  0  0  0  0  0  0  0  0  0
  145.2562  134.5924  151.7257 C   0  0  0  0  0  0  0  0  0  0  0  0
  144.1946  133.8021  151.4270 N   0  0  0  0  0  0  0  0  0  0  0  0
  142.9759  134.1663  151.8748 C   0  0  0  0  0  0  0  0  0  0  0  0
  142.7523  135.3232  152.6425 C   0  0  0  0  0  0  0  0  0  0  0  0
  143.8516  136.1451  152.9535 C   0  0  0  0  0  0  0  0  0  0  0  0
  145.1370  135.7838  152.4797 C   0  0  0  0  0  0  0  0  0  0  0  0
  146.3238  136.5265  152.7388 N   0  0  0  0  0  0  0  0  0  0  0  0
  146.4838  137.6645  153.4361 C   0  0  0  0  0  0  0  0  0  0  0  0
  145.5868  138.2946  153.9949 O   0  0  0  0  0  0  0  0  0  0  0  0
  147.7698  138.0446  153.4445 N   0  0  0  0  0  0  0  0  0  0  0  0
  148.3036  139.2300  154.1122 C   0  0  2  0  0  0  0  0  0  0  0  0
  147.6056  140.4585  153.5075 C   0  0  0  0  0  0  0  0  0  0  0  0
  149.8474  139.2202  153.9850 C   0  0  0  0  0  0  0  0  0  0  0  0
  150.5934  138.5704  155.0670 N   0  0  0  0  0  0  0  0  0  0  0  0
  152.0413  138.7372  154.9373 C   0  0  0  0  0  0  0  0  0  0  0  0
  152.8085  138.0225  156.0637 C   0  0  0  0  0  0  0  0  0  0  0  0
  152.4695  136.6402  156.0703 O   0  0  0  0  0  0  0  0  0  0  0  0
  151.0724  136.4221  156.2313 C   0  0  0  0  0  0  0  0  0  0  0  0
  150.3060  137.1384  155.1057 C   0  0  0  0  0  0  0  0  0  0  0  0
  147.6591  132.8538  150.2393 H   0  0  0  0  0  0  0  0  0  0  0  0
  146.0406  133.0747  149.5837 H   0  0  0  0  0  0  0  0  0  0  0  0
  146.2853  132.1463  151.0809 H   0  0  0  0  0  0  0  0  0  0  0  0
  142.1553  133.5127  151.6181 H   0  0  0  0  0  0  0  0  0  0  0  0
  141.7602  135.5728  152.9886 H   0  0  0  0  0  0  0  0  0  0  0  0
  143.6814  137.0226  153.5559 H   0  0  0  0  0  0  0  0  0  0  0  0
  147.1553  136.1630  152.2966 H   0  0  0  0  0  0  0  0  0  0  0  0
  148.4359  137.4659  152.9540 H   0  0  0  0  0  0  0  0  0  0  0  0
  148.0359  139.1829  155.1695 H   0  0  0  0  0  0  0  0  0  0  0  0
  147.7346  141.3406  154.1320 H   0  0  0  0  0  0  0  0  0  0  0  0
  146.5292  140.2983  153.4317 H   0  0  0  0  0  0  0  0  0  0  0  0
  147.9789  140.6818  152.5076 H   0  0  0  0  0  0  0  0  0  0  0  0
  150.0716  138.6883  153.0589 H   0  0  0  0  0  0  0  0  0  0  0  0
  150.2219  140.2324  153.8246 H   0  0  0  0  0  0  0  0  0  0  0  0
  152.3736  138.3447  153.9750 H   0  0  0  0  0  0  0  0  0  0  0  0
  152.3174  139.7866  154.9503 H   0  0  0  0  0  0  0  0  0  0  0  0
  153.8836  138.1242  155.9143 H   0  0  0  0  0  0  0  0  0  0  0  0
  152.5756  138.4668  157.0328 H   0  0  0  0  0  0  0  0  0  0  0  0
  150.8739  135.3508  156.2033 H   0  0  0  0  0  0  0  0  0  0  0  0
  150.7503  136.7836  157.2090 H   0  0  0  0  0  0  0  0  0  0  0  0
  149.2368  136.9792  155.2504 H   0  0  0  0  0  0  0  0  0  0  0  0
  150.5622  136.6827  154.1479 H   0  0  0  0  0  0  0  0  0  0  0  0
  1  2  1  0  0  0  0
  1 22  1  0  0  0  0
  1 23  1  0  0  0  0
  1 24  1  0  0  0  0
  2  3  1  0  0  0  0
  3  8  1  0  0  0  0
  3  4  2  0  0  0  0
  4  5  1  0  0  0  0
  5  6  2  0  0  0  0
  5 25  1  0  0  0  0
  6  7  1  0  0  0  0
  6 26  1  0  0  0  0
  7  8  2  0  0  0  0
  7 27  1  0  0  0  0
  8  9  1  0  0  0  0
  9 10  1  0  0  0  0
  9 28  1  0  0  0  0
 10 11  2  0  0  0  0
 10 12  1  0  0  0  0
 12 13  1  0  0  0  0
 12 29  1  0  0  0  0
 13 14  1  0  0  0  0
 13 15  1  0  0  0  0
 13 30  1  0  0  0  0
 14 31  1  0  0  0  0
 14 32  1  0  0  0  0
 14 33  1  0  0  0  0
 15 16  1  0  0  0  0
 15 34  1  0  0  0  0
 15 35  1  0  0  0  0
 16 21  1  0  0  0  0
 16 17  1  0  0  0  0
 17 18  1  0  0  0  0
 17 36  1  0  0  0  0
 17 37  1  0  0  0  0
 18 19  1  0  0  0  0
 18 38  1  0  0  0  0
 18 39  1  0  0  0  0
 19 20  1  0  0  0  0
 20 21  1  0  0  0  0
 20 40  1  0  0  0  0
 20 41  1  0  0  0  0
 21 42  1  0  0  0  0
 21 43  1  0  0  0  0
M  END
> <s_m_source_file>
AV-unprocessed.smi

> <i_m_source_file_index>
1444

> <i_lp_mmshare_version>
43012

> <i_f3d_flags>
0

> <s_epik_input>
W0NIM11PYzFuW2NIXVtjSF1bY0hdYzFbTkhdQyg9TylbTkhdW0NASF0oW0NIM10pW0NIMl1OMltDSDJdW0NIMl1PW0NIMl1bQ0gyXTI=

> <s_epik_cmdline>
J2VwaWtfcHl0aG9uJywgJy1waCcsICc3LjAnLCAnLXRuJywgJzgnLCAnLW1hJywgJzIwMCcsICctbWV0YWxfYmluZGluZycsICctaW1hZScsICc8aW5maWxlLm1hZT4nLCAnLW9tYWUnLCAnPG91dGZpbGUubWFlPic=

> <r_lp_tautomer_probability>
1

> <r_epik_Ionization_Penalty>
0.266086

> <r_epik_Ionization_Penalty_Charging>
0

> <r_epik_Ionization_Penalty_Neutral>
0.266086

> <r_epik_State_Penalty>
0.257924

> <r_epik_Charging_Adjusted_Penalty>
0.257924

> <i_epik_Tot_Q>
0

> <i_epik_Tot_abs_Q>
0

> <r_epik_Metal_State_Penalty>
0.25792

> <b_epik_Metal_Only>
0

> <s_lp_Force_Field>
OPLS_2005

> <r_lp_Energy>
29.2367

> <b_lp_Chiralities_Consistent>
1

> <s_lp_Variant>
AV-unprocessed.smi:1444-1

> <Gold.Version>
5.8.1

> <Gold.Id.Protein>
6NUR|6NUR_protein|mol2

> <Gold.PLP.Fitness>
36.7391

> <Gold.PLP.PLP>
-27.2574

> <Gold.PLP.part.hbond>
-3.0000

> <Gold.PLP.part.metal>
0.0000

> <Gold.PLP.part.buried>
-1.3835

> <Gold.PLP.part.nonpolar>
-24.1742

> <Gold.PLP.part.repulsive>
0.6321

> <Gold.PLP.ligand.clash>
0.0000

> <Gold.PLP.ligand.torsion>
0.4406

> <Gold.PLP.Chemscore.Hbond>
2.9760

> <Gold.PLP.Chemscore.CHOScore>
0.4557

> <Gold.PLP.Chemscore.Metal>
0.0000

> <Gold.Chemscore.Hbonds>
donor molecule, donor type, donor heavy atom, donor atom, acceptor molecule, acceptor atom, score
      L1  H     9    28       P1  7948  1.00
      L1  H    12    29       P1  7948  1.00
      P1  H 10752 10764       L1    19  1.00
      L1  C     5    25       P1 10186  0.57

> <Gold.PLP.Chemscore.Internal.Correction>
0.0680

> <Gold.Rescore>
     Score         DG    S(hbond)    S(metal)    S(lipo)     H(rot)  DE(clash)    DE(int)     intcor
     16.18     -18.53       2.88        0.00      66.98       1.72       0.04       2.31       ----

> <Gold.Chemscore.Fitness>
16.1784

> <Gold.Chemscore.DG>
-18.5262

> <Gold.Chemscore.ZeroCoef>
-5.4800

> <Gold.Chemscore.Hbond>
2.8771

> <Gold.Chemscore.Metal>
0.0000

> <Gold.Chemscore.Lipo>
66.9834

> <Gold.Chemscore.Internal_Hbond>
0.0000

> <Gold.Chemscore.DEClash>
0.0368

> <Gold.Chemscore.DEInternal>
2.3109

> <Gold.Chemscore.Rot>
1.7189

> <Gold.Chemscore.Internal.Correction>
   9.000000E+99

> <Gold.Chemscore.Hbonds>
donor molecule, donor type, donor heavy atom, donor atom, acceptor molecule, acceptor atom, score
      L1  H     9    28       P1  7948  0.98
      L1  H    12    29       P1  7948  0.99
      P1  H 10752 10764       L1    19  0.74

> <Gold.Chemscore.Hbond.Weighted>
-9.6096

> <Gold.Chemscore.Metal.Weighted>
-0.0000

> <Gold.Chemscore.Lipo.Weighted>
-7.8371

> <Gold.Chemscore.Internal_Hbond.Weighted>
0.0000

> <Gold.Chemscore.DEClash.Weighted>
0.0368

> <Gold.Chemscore.DEInternal.Weighted>
2.3109

> <Gold.Chemscore.Rot.Weighted>
4.4004

> <Gold.Chemscore.Internal.Correction.Weighted>
   9.000000E+99

> <Gold.Protein.RotatedTorsions>
[ 6907 6896 6895 6894 ] final  111.24 input  -60.11 | X-H torsion
[ 7974 7965 7964 7962 ] final -172.64 input  175.53 | X-H torsion
[ 8008 7997 7996 7995 ] final -162.88 input   59.86 | X-H torsion
[ 10167 10162 10161 10158 ] final -147.48 input  -65.29 | X-H torsion
[ 10718 10713 10712 10709 ] final  160.78 input   66.30 | X-H torsion
[ 10763 10752 10751 10750 ] final  -31.98 input  -60.55 | X-H torsion
[ 11005 11000 10999 10996 ] final   25.49 input  -57.11 | X-H torsion

> <Gold.Protein.ActiveResidues>
 VAL166  LYS551  ARG553  GLY616  TRP617  ASP618  TYR619  PRO620  LYS621  CYS622 
 ASP623  PHE694  ASN695  SER759  ASP760  ASP761  ALA762  ILE779  LEU786  VAL792 
 PHE793  MET794  SER795  GLU796  ALA797  LYS798  CYS799  TRP800  GLU811  SER814 

> <Gold.Protein.RotatedAtoms>
  152.4980  133.8686  159.7286 H   0  0  0  0  0  0  0  0  0  0  0  0  # atno 6907 bound_to 6896
  150.9179  133.6908  159.2846 H   0  0  0  0  0  0  0  0  0  0  0  0  # atno 6908 bound_to 6896
  151.4295  135.1012  159.9690 H   0  0  0  0  0  0  0  0  0  0  0  0  # atno 6909 bound_to 6896
  144.7144  140.1742  143.6364 H   0  0  0  0  0  0  0  0  0  0  0  0  # atno 7974 bound_to 7965
  155.8133  140.0908  157.1891 H   0  0  0  0  0  0  0  0  0  0  0  0  # atno 8008 bound_to 7997
  154.3979  140.1450  156.3472 H   0  0  0  0  0  0  0  0  0  0  0  0  # atno 8009 bound_to 7997
  155.8343  140.3441  155.5594 H   0  0  0  0  0  0  0  0  0  0  0  0  # atno 8010 bound_to 7997
  139.7618  143.8366  152.2608 H   0  0  0  0  0  0  0  0  0  0  0  0  # atno 10167 bound_to 10162
  157.1456  131.0551  151.2305 H   0  0  0  0  0  0  0  0  0  0  0  0  # atno 10718 bound_to 10713
  153.8063  135.6886  153.4848 H   0  0  0  0  0  0  0  0  0  0  0  0  # atno 10763 bound_to 10752
  153.1656  135.4562  154.9831 H   0  0  0  0  0  0  0  0  0  0  0  0  # atno 10764 bound_to 10752
  154.7986  135.3328  154.7547 H   0  0  0  0  0  0  0  0  0  0  0  0  # atno 10765 bound_to 10752
  140.3472  134.2268  155.7683 H   0  0  0  0  0  0  0  0  0  0  0  0  # atno 11005 bound_to 11000
  145.8916  139.2379  143.1546 LP  0  0  0  0  0  0  0  0  0  0  0  0  # atno 17320 bound_to 7965
  145.9898  140.8612  143.0072 LP  0  0  0  0  0  0  0  0  0  0  0  0  # atno 17321 bound_to 7965
  139.8374  144.7226  150.9373 LP  0  0  0  0  0  0  0  0  0  0  0  0  # atno 17342 bound_to 10162
  140.7807  143.4014  151.1143 LP  0  0  0  0  0  0  0  0  0  0  0  0  # atno 17343 bound_to 10162
  157.4267  130.7468  149.6957 LP  0  0  0  0  0  0  0  0  0  0  0  0  # atno 17370 bound_to 10713
  155.9780  130.4056  150.3676 LP  0  0  0  0  0  0  0  0  0  0  0  0  # atno 17371 bound_to 10713
  141.2022  133.7943  157.0402 LP  0  0  0  0  0  0  0  0  0  0  0  0  # atno 17394 bound_to 11000
  140.0732  134.9690  157.1502 LP  0  0  0  0  0  0  0  0  0  0  0  0  # atno 17395 bound_to 11000

$$$$
