AV-unprocessed.smi:3181|AV-procd|sdf|12144|dock5
  -GOLD-   2272017583D 1   1.00000     0.00000
 Structure written by MMmdl.
 42 43  0  0  0  0  0  0  0  0  2 V2000
  149.5007  141.3568  154.7074 C   0  0  0  0  0  0  0  0  0  0  0  0
  150.3806  141.2679  155.9652 C   0  0  1  0  0  0  0  0  0  0  0  0
  151.7271  140.5631  155.6917 C   0  0  0  0  0  0  0  0  0  0  0  0
  151.5664  139.1869  155.2610 N   0  0  0  0  0  0  0  0  0  0  0  0
  152.4313  138.1710  155.2518 C   0  0  0  0  0  0  0  0  0  0  0  0
  151.9212  137.0390  154.7879 N   0  0  0  0  0  0  0  0  0  0  0  0
  150.6477  137.4549  154.5190 C   0  0  0  0  0  0  0  0  0  0  0  0
  150.3821  138.7335  154.7882 N   0  0  0  0  0  0  0  0  0  0  0  0
  150.6164  142.6284  156.5003 N   0  3  0  0  0  0  0  0  0  0  0  0
  150.8294  142.7280  157.9631 C   0  0  2  0  0  0  0  0  0  0  0  0
  151.0873  144.1930  158.3475 C   0  0  0  0  0  0  0  0  0  0  0  0
  151.3182  144.3382  159.8572 C   0  0  0  0  0  0  0  0  0  0  0  0
  152.4896  143.4639  160.3476 C   0  0  1  0  0  0  0  0  0  0  0  0
  152.6900  143.6609  161.8607 C   0  0  0  0  0  0  0  0  0  0  0  0
  152.2621  141.9800  159.9551 C   0  0  2  0  0  0  0  0  0  0  0  0
  153.4299  141.0652  160.3661 C   0  0  0  0  0  0  0  0  0  0  0  0
  152.0006  141.8450  158.4400 C   0  0  0  0  0  0  0  0  0  0  0  0
  149.2362  140.3676  154.3328 H   0  0  0  0  0  0  0  0  0  0  0  0
  150.0083  141.8915  153.9040 H   0  0  0  0  0  0  0  0  0  0  0  0
  148.5677  141.8805  154.9186 H   0  0  0  0  0  0  0  0  0  0  0  0
  149.8245  140.6888  156.7041 H   0  0  0  0  0  0  0  0  0  0  0  0
  152.2834  141.1003  154.9222 H   0  0  0  0  0  0  0  0  0  0  0  0
  152.3552  140.5635  156.5829 H   0  0  0  0  0  0  0  0  0  0  0  0
  153.4544  138.2610  155.5873 H   0  0  0  0  0  0  0  0  0  0  0  0
  149.8937  136.7955  154.1146 H   0  0  0  0  0  0  0  0  0  0  0  0
  151.4007  143.0439  156.0183 H   0  0  0  0  0  0  0  0  0  0  0  0
  149.9127  142.4054  158.4597 H   0  0  0  0  0  0  0  0  0  0  0  0
  151.9571  144.5728  157.8093 H   0  0  0  0  0  0  0  0  0  0  0  0
  150.2421  144.8135  158.0472 H   0  0  0  0  0  0  0  0  0  0  0  0
  151.5111  145.3857  160.0925 H   0  0  0  0  0  0  0  0  0  0  0  0
  150.4063  144.0676  160.3915 H   0  0  0  0  0  0  0  0  0  0  0  0
  153.3954  143.8128  159.8490 H   0  0  0  0  0  0  0  0  0  0  0  0
  151.8499  143.2597  162.4285 H   0  0  0  0  0  0  0  0  0  0  0  0
  152.7810  144.7187  162.1089 H   0  0  0  0  0  0  0  0  0  0  0  0
  153.5983  143.1747  162.2159 H   0  0  0  0  0  0  0  0  0  0  0  0
  151.3712  141.6258  160.4761 H   0  0  0  0  0  0  0  0  0  0  0  0
  154.3719  141.4056  159.9351 H   0  0  0  0  0  0  0  0  0  0  0  0
  153.2627  140.0416  160.0292 H   0  0  0  0  0  0  0  0  0  0  0  0
  153.5514  141.0233  161.4482 H   0  0  0  0  0  0  0  0  0  0  0  0
  151.7923  140.7991  158.2136 H   0  0  0  0  0  0  0  0  0  0  0  0
  152.9051  142.1063  157.8883 H   0  0  0  0  0  0  0  0  0  0  0  0
  149.7927  143.1736  156.2886 H   0  0  0  0  0  0  0  0  0  0  0  0
  1  2  1  0  0  0  0
  1 18  1  0  0  0  0
  1 19  1  0  0  0  0
  1 20  1  0  0  0  0
  2  3  1  0  0  0  0
  2  9  1  0  0  0  0
  2 21  1  0  0  0  0
  3  4  1  0  0  0  0
  3 22  1  0  0  0  0
  3 23  1  0  0  0  0
  4  8  1  0  0  0  0
  4  5  1  0  0  0  0
  5  6  2  0  0  0  0
  5 24  1  0  0  0  0
  6  7  1  0  0  0  0
  7  8  2  0  0  0  0
  7 25  1  0  0  0  0
  9 10  1  0  0  0  0
  9 26  1  0  0  0  0
  9 42  1  0  0  0  0
 10 17  1  0  0  0  0
 10 11  1  0  0  0  0
 10 27  1  0  0  0  0
 11 12  1  0  0  0  0
 11 28  1  0  0  0  0
 11 29  1  0  0  0  0
 12 13  1  0  0  0  0
 12 30  1  0  0  0  0
 12 31  1  0  0  0  0
 13 14  1  0  0  0  0
 13 15  1  0  0  0  0
 13 32  1  0  0  0  0
 14 33  1  0  0  0  0
 14 34  1  0  0  0  0
 14 35  1  0  0  0  0
 15 16  1  0  0  0  0
 15 17  1  0  0  0  0
 15 36  1  0  0  0  0
 16 37  1  0  0  0  0
 16 38  1  0  0  0  0
 16 39  1  0  0  0  0
 17 40  1  0  0  0  0
 17 41  1  0  0  0  0
M  CHG  1   9   1
M  END
> <s_m_source_file>
AV-unprocessed.smi

> <i_m_source_file_index>
3181

> <i_lp_mmshare_version>
43012

> <i_f3d_flags>
0

> <s_epik_input>
bjFbY0hdbltjSF1uMVtDSDJdW0NAQEhdKFtDSDNdKVtOSF1bQ0BASF0yW0NIMl1bQ0gyXVtDQEBIXShbQ0gzXSlbQ0BASF0oW0NIM10pW0NIMl0y

> <s_epik_cmdline>
J2VwaWtfcHl0aG9uJywgJy1waCcsICc3LjAnLCAnLXRuJywgJzgnLCAnLW1hJywgJzIwMCcsICctbWV0YWxfYmluZGluZycsICctaW1hZScsICc8aW5maWxlLm1hZT4nLCAnLW9tYWUnLCAnPG91dGZpbGUubWFlPic=

> <r_lp_tautomer_probability>
1

> <r_epik_Ionization_Penalty>
0.000617007

> <r_epik_Ionization_Penalty_Charging>
0.000616215

> <r_epik_Ionization_Penalty_Neutral>
7.92544e-07

> <r_epik_State_Penalty>
0.000388807

> <r_epik_Charging_Adjusted_Penalty>
0.00100502

> <i_epik_Tot_Q>
1

> <i_epik_Tot_abs_Q>
1

> <r_epik_Metal_State_Penalty>
-0

> <b_epik_Metal_Only>
0

> <s_lp_Force_Field>
OPLS_2005

> <r_lp_Energy>
19.3641

> <b_lp_Chiralities_Consistent>
1

> <s_lp_Variant>
AV-unprocessed.smi:3181-10

> <Gold.Version>
5.8.1

> <Gold.Id.Protein>
6NUR|6NUR_protein|mol2

> <Gold.PLP.Fitness>
52.9026

> <Gold.PLP.PLP>
-42.0430

> <Gold.PLP.part.hbond>
-2.0000

> <Gold.PLP.part.metal>
0.0000

> <Gold.PLP.part.buried>
-4.0101

> <Gold.PLP.part.nonpolar>
-36.0930

> <Gold.PLP.part.repulsive>
0.3298

> <Gold.PLP.ligand.clash>
0.0000

> <Gold.PLP.ligand.torsion>
0.5789

> <Gold.PLP.Chemscore.Hbond>
3.0000

> <Gold.PLP.Chemscore.CHOScore>
1.0000

> <Gold.PLP.Chemscore.Metal>
0.0000

> <Gold.Chemscore.Hbonds>
donor molecule, donor type, donor heavy atom, donor atom, acceptor molecule, acceptor atom, score
      L1  H     9    42       P1  8028  2.00
      P1  H 10752 10765       L1     6  1.00
      L1  C     7    25       P1  7948  1.00

> <Gold.PLP.Chemscore.Internal.Correction>
0.0175

> <Gold.Rescore>
     Score         DG    S(hbond)    S(metal)    S(lipo)     H(rot)  DE(clash)    DE(int)     intcor
     15.31     -18.80       1.92        0.00     105.22       2.11       1.43       2.06       ----

> <Gold.Chemscore.Fitness>
15.3087

> <Gold.Chemscore.DG>
-18.8035

> <Gold.Chemscore.ZeroCoef>
-5.4800

> <Gold.Chemscore.Hbond>
1.9201

> <Gold.Chemscore.Metal>
0.0000

> <Gold.Chemscore.Lipo>
105.2183

> <Gold.Chemscore.Internal_Hbond>
0.0000

> <Gold.Chemscore.DEClash>
1.4304

> <Gold.Chemscore.DEInternal>
2.0644

> <Gold.Chemscore.Rot>
2.1095

> <Gold.Chemscore.Internal.Correction>
   9.000000E+99

> <Gold.Chemscore.Hbonds>
donor molecule, donor type, donor heavy atom, donor atom, acceptor molecule, acceptor atom, score
      L1  H     9    42       P1  8028  0.97
      P1  H 10752 10765       L1     6  0.93

> <Gold.Chemscore.Hbond.Weighted>
-6.4133

> <Gold.Chemscore.Metal.Weighted>
-0.0000

> <Gold.Chemscore.Lipo.Weighted>
-12.3105

> <Gold.Chemscore.Internal_Hbond.Weighted>
0.0000

> <Gold.Chemscore.DEClash.Weighted>
1.4304

> <Gold.Chemscore.DEInternal.Weighted>
2.0644

> <Gold.Chemscore.Rot.Weighted>
5.4003

> <Gold.Chemscore.Internal.Correction.Weighted>
   9.000000E+99

> <Gold.Protein.RotatedTorsions>
[ 6907 6896 6895 6894 ] final  138.96 input  -60.11 | X-H torsion
[ 7974 7965 7964 7962 ] final  -43.04 input  175.53 | X-H torsion
[ 8008 7997 7996 7995 ] final   17.25 input   59.86 | X-H torsion
[ 10167 10162 10161 10158 ] final   19.40 input  -65.29 | X-H torsion
[ 10718 10713 10712 10709 ] final -143.06 input   66.30 | X-H torsion
[ 10763 10752 10751 10750 ] final  177.49 input  -60.55 | X-H torsion
[ 11005 11000 10999 10996 ] final  -63.28 input  -57.11 | X-H torsion

> <Gold.Protein.ActiveResidues>
 VAL166  LYS551  ARG553  GLY616  TRP617  ASP618  TYR619  PRO620  LYS621  CYS622 
 ASP623  PHE694  ASN695  SER759  ASP760  ASP761  ALA762  ILE779  LEU786  VAL792 
 PHE793  MET794  SER795  GLU796  ALA797  LYS798  CYS799  TRP800  GLU811  SER814 

> <Gold.Protein.RotatedAtoms>
  152.2605  133.5293  159.5378 H   0  0  0  0  0  0  0  0  0  0  0  0  # atno 6907 bound_to 6896
  150.7124  134.0836  159.3915 H   0  0  0  0  0  0  0  0  0  0  0  0  # atno 6908 bound_to 6896
  151.8753  135.0474  160.0534 H   0  0  0  0  0  0  0  0  0  0  0  0  # atno 6909 bound_to 6896
  146.0057  140.7022  142.9248 H   0  0  0  0  0  0  0  0  0  0  0  0  # atno 7974 bound_to 7965
  154.8888  140.2984  155.5383 H   0  0  0  0  0  0  0  0  0  0  0  0  # atno 8008 bound_to 7997
  156.3021  140.2428  156.3834 H   0  0  0  0  0  0  0  0  0  0  0  0  # atno 8009 bound_to 7997
  154.8640  140.0404  157.1672 H   0  0  0  0  0  0  0  0  0  0  0  0  # atno 8010 bound_to 7997
  140.5582  143.9386  150.6624 H   0  0  0  0  0  0  0  0  0  0  0  0  # atno 10167 bound_to 10162
  156.3534  130.7700  151.1856 H   0  0  0  0  0  0  0  0  0  0  0  0  # atno 10718 bound_to 10713
  154.4952  135.2781  155.1465 H   0  0  0  0  0  0  0  0  0  0  0  0  # atno 10763 bound_to 10752
  154.3121  135.6227  153.5474 H   0  0  0  0  0  0  0  0  0  0  0  0  # atno 10764 bound_to 10752
  152.9894  135.5722  154.5382 H   0  0  0  0  0  0  0  0  0  0  0  0  # atno 10765 bound_to 10752
  141.1388  133.6650  156.5656 H   0  0  0  0  0  0  0  0  0  0  0  0  # atno 11005 bound_to 11000
  144.6935  140.3311  143.7216 LP  0  0  0  0  0  0  0  0  0  0  0  0  # atno 17320 bound_to 7965
  145.7419  139.1767  143.2371 LP  0  0  0  0  0  0  0  0  0  0  0  0  # atno 17321 bound_to 7965
  140.2830  143.3376  152.1134 LP  0  0  0  0  0  0  0  0  0  0  0  0  # atno 17342 bound_to 10162
  139.5058  144.6801  151.6030 LP  0  0  0  0  0  0  0  0  0  0  0  0  # atno 17343 bound_to 10162
  157.7464  131.0421  150.4677 LP  0  0  0  0  0  0  0  0  0  0  0  0  # atno 17370 bound_to 10713
  156.4876  130.4088  149.6425 LP  0  0  0  0  0  0  0  0  0  0  0  0  # atno 17371 bound_to 10713
  140.3953  134.7404  157.4747 LP  0  0  0  0  0  0  0  0  0  0  0  0  # atno 17394 bound_to 11000
  140.0536  134.6096  155.8832 LP  0  0  0  0  0  0  0  0  0  0  0  0  # atno 17395 bound_to 11000

$$$$
