AV-unprocessed.smi:1398|AV-procd|sdf|5680|dock1
  -GOLD-   22720 5303D 1   1.00000     0.00000
 Structure written by MMmdl.
 41 42  0  0  0  0  0  0  0  0  1 V2000
  151.7732  138.2748  154.6017 C   0  0  0  0  0  0  0  0  0  0  0  0
  150.3961  138.1713  154.2570 O   0  0  0  0  0  0  0  0  0  0  0  0
  149.6189  139.3133  154.2946 C   0  0  0  0  0  0  0  0  0  0  0  0
  150.2027  140.4794  154.6690 N   0  0  0  0  0  0  0  0  0  0  0  0
  149.4456  141.5953  154.7025 C   0  0  0  0  0  0  0  0  0  0  0  0
  148.0808  141.6112  154.3614 C   0  0  0  0  0  0  0  0  0  0  0  0
  147.4727  140.4030  153.9737 C   0  0  0  0  0  0  0  0  0  0  0  0
  148.2506  139.2205  153.9487 C   0  0  0  0  0  0  0  0  0  0  0  0
  147.7387  137.9544  153.5537 N   0  0  0  0  0  0  0  0  0  0  0  0
  146.4805  137.4954  153.6587 C   0  0  0  0  0  0  0  0  0  0  0  0
  145.5315  138.1210  154.1315 O   0  0  0  0  0  0  0  0  0  0  0  0
  146.3849  136.2391  153.2017 N   0  0  0  0  0  0  0  0  0  0  0  0
  145.1700  135.4325  153.2136 C   0  0  0  0  0  0  0  0  0  0  0  0
  145.4914  133.9384  153.4209 C   0  0  0  0  0  0  0  0  0  0  0  0
  146.2774  133.3062  152.2604 C   0  0  0  0  0  0  0  0  0  0  0  0
  147.4756  133.0542  152.3955 O   0  0  0  0  0  0  0  0  0  0  0  0
  145.6150  133.0393  151.1157 N   0  0  0  0  0  0  0  0  0  0  0  0
  146.1873  132.4146  149.9231 C   0  0  0  0  0  0  0  0  0  0  0  0
  145.0035  132.1189  149.0014 C   0  0  0  0  0  0  0  0  0  0  0  0
  143.9436  133.1292  149.4178 C   0  0  0  0  0  0  0  0  0  0  0  0
  144.2015  133.3488  150.9087 C   0  0  0  0  0  0  0  0  0  0  0  0
  152.2385  137.2924  154.5238 H   0  0  0  0  0  0  0  0  0  0  0  0
  151.9033  138.6213  155.6279 H   0  0  0  0  0  0  0  0  0  0  0  0
  152.3043  138.9466  153.9260 H   0  0  0  0  0  0  0  0  0  0  0  0
  149.9449  142.5041  155.0040 H   0  0  0  0  0  0  0  0  0  0  0  0
  147.5146  142.5303  154.3912 H   0  0  0  0  0  0  0  0  0  0  0  0
  146.4316  140.4088  153.6899 H   0  0  0  0  0  0  0  0  0  0  0  0
  148.4290  137.2920  153.2306 H   0  0  0  0  0  0  0  0  0  0  0  0
  147.2169  135.8028  152.8320 H   0  0  0  0  0  0  0  0  0  0  0  0
  144.4882  135.7939  153.9856 H   0  0  0  0  0  0  0  0  0  0  0  0
  144.6670  135.5822  152.2573 H   0  0  0  0  0  0  0  0  0  0  0  0
  146.0725  133.8237  154.3367 H   0  0  0  0  0  0  0  0  0  0  0  0
  144.5651  133.3797  153.5587 H   0  0  0  0  0  0  0  0  0  0  0  0
  146.8741  133.1156  149.4467 H   0  0  0  0  0  0  0  0  0  0  0  0
  146.7368  131.5018  150.1567 H   0  0  0  0  0  0  0  0  0  0  0  0
  145.2627  132.1887  147.9445 H   0  0  0  0  0  0  0  0  0  0  0  0
  144.6373  131.1087  149.1893 H   0  0  0  0  0  0  0  0  0  0  0  0
  144.0998  134.0644  148.8782 H   0  0  0  0  0  0  0  0  0  0  0  0
  142.9290  132.7887  149.2094 H   0  0  0  0  0  0  0  0  0  0  0  0
  143.5974  132.6656  151.5076 H   0  0  0  0  0  0  0  0  0  0  0  0
  143.9558  134.3695  151.2067 H   0  0  0  0  0  0  0  0  0  0  0  0
  1  2  1  0  0  0  0
  1 22  1  0  0  0  0
  1 23  1  0  0  0  0
  1 24  1  0  0  0  0
  2  3  1  0  0  0  0
  3  8  1  0  0  0  0
  3  4  2  0  0  0  0
  4  5  1  0  0  0  0
  5  6  2  0  0  0  0
  5 25  1  0  0  0  0
  6  7  1  0  0  0  0
  6 26  1  0  0  0  0
  7  8  2  0  0  0  0
  7 27  1  0  0  0  0
  8  9  1  0  0  0  0
  9 10  1  0  0  0  0
  9 28  1  0  0  0  0
 10 11  2  0  0  0  0
 10 12  1  0  0  0  0
 12 13  1  0  0  0  0
 12 29  1  0  0  0  0
 13 14  1  0  0  0  0
 13 30  1  0  0  0  0
 13 31  1  0  0  0  0
 14 15  1  0  0  0  0
 14 32  1  0  0  0  0
 14 33  1  0  0  0  0
 15 16  2  0  0  0  0
 15 17  1  0  0  0  0
 17 21  1  0  0  0  0
 17 18  1  0  0  0  0
 18 19  1  0  0  0  0
 18 34  1  0  0  0  0
 18 35  1  0  0  0  0
 19 20  1  0  0  0  0
 19 36  1  0  0  0  0
 19 37  1  0  0  0  0
 20 21  1  0  0  0  0
 20 38  1  0  0  0  0
 20 39  1  0  0  0  0
 21 40  1  0  0  0  0
 21 41  1  0  0  0  0
M  END
> <s_m_source_file>
AV-unprocessed.smi

> <i_m_source_file_index>
1398

> <i_lp_mmshare_version>
43012

> <i_f3d_flags>
0

> <s_epik_input>
W0NIM11PYzFuW2NIXVtjSF1bY0hdYzFbTkhdQyg9TylbTkhdW0NIMl1bQ0gyXUMoPU8pTjJbQ0gyXVtDSDJdW0NIMl1bQ0gyXTI=

> <s_epik_cmdline>
J2VwaWtfcHl0aG9uJywgJy1waCcsICc3LjAnLCAnLXRuJywgJzgnLCAnLW1hJywgJzIwMCcsICctbWV0YWxfYmluZGluZycsICctaW1hZScsICc8aW5maWxlLm1hZT4nLCAnLW9tYWUnLCAnPG91dGZpbGUubWFlPic=

> <r_lp_tautomer_probability>
1

> <r_epik_Ionization_Penalty>
8.61088e-05

> <r_epik_Ionization_Penalty_Charging>
0

> <r_epik_Ionization_Penalty_Neutral>
8.61088e-05

> <r_epik_State_Penalty>
-0

> <r_epik_Charging_Adjusted_Penalty>
0

> <i_epik_Tot_Q>
0

> <i_epik_Tot_abs_Q>
0

> <r_epik_Metal_State_Penalty>
-0

> <b_epik_Metal_Only>
0

> <s_lp_Force_Field>
OPLS_2005

> <r_lp_Energy>
29.8369

> <b_lp_Chiralities_Consistent>
1

> <s_lp_Variant>
AV-unprocessed.smi:1398-1

> <Gold.Version>
5.8.1

> <Gold.Id.Protein>
6NUR|6NUR_protein|mol2

> <Gold.PLP.Fitness>
45.5165

> <Gold.PLP.PLP>
-35.6390

> <Gold.PLP.part.hbond>
-3.0000

> <Gold.PLP.part.metal>
0.0000

> <Gold.PLP.part.buried>
-1.0868

> <Gold.PLP.part.nonpolar>
-29.9951

> <Gold.PLP.part.repulsive>
0.6489

> <Gold.PLP.ligand.clash>
0.0000

> <Gold.PLP.ligand.torsion>
0.5352

> <Gold.PLP.Chemscore.Hbond>
2.6560

> <Gold.PLP.Chemscore.CHOScore>
0.9563

> <Gold.PLP.Chemscore.Metal>
0.0000

> <Gold.Chemscore.Hbonds>
donor molecule, donor type, donor heavy atom, donor atom, acceptor molecule, acceptor atom, score
      L1  H     9    28       P1  7948  0.91
      L1  H    12    29       P1  7948  0.85
      P1  H  7989  7998       L1     4  0.96
      L1  C     5    25       P1  8028  0.95

> <Gold.PLP.Chemscore.Internal.Correction>
0.1111

> <Gold.Rescore>
     Score         DG    S(hbond)    S(metal)    S(lipo)     H(rot)  DE(clash)    DE(int)     intcor
     15.85     -18.55       2.22        0.00      88.24       1.83       0.90       1.81       ----

> <Gold.Chemscore.Fitness>
15.8470

> <Gold.Chemscore.DG>
-18.5522

> <Gold.Chemscore.ZeroCoef>
-5.4800

> <Gold.Chemscore.Hbond>
2.2224

> <Gold.Chemscore.Metal>
0.0000

> <Gold.Chemscore.Lipo>
88.2377

> <Gold.Chemscore.Internal_Hbond>
0.0000

> <Gold.Chemscore.DEClash>
0.8977

> <Gold.Chemscore.DEInternal>
1.8074

> <Gold.Chemscore.Rot>
1.8260

> <Gold.Chemscore.Internal.Correction>
   9.000000E+99

> <Gold.Chemscore.Hbonds>
donor molecule, donor type, donor heavy atom, donor atom, acceptor molecule, acceptor atom, score
      L1  H     9    28       P1  7948  0.90
      L1  H    12    29       P1  7948  0.79
      P1  H  7989  7998       L1     4  0.34

> <Gold.Chemscore.Hbond.Weighted>
-7.4228

> <Gold.Chemscore.Metal.Weighted>
-0.0000

> <Gold.Chemscore.Lipo.Weighted>
-10.3238

> <Gold.Chemscore.Internal_Hbond.Weighted>
0.0000

> <Gold.Chemscore.DEClash.Weighted>
0.8977

> <Gold.Chemscore.DEInternal.Weighted>
1.8074

> <Gold.Chemscore.Rot.Weighted>
4.6744

> <Gold.Chemscore.Internal.Correction.Weighted>
   9.000000E+99

> <Gold.Protein.RotatedTorsions>
[ 6907 6896 6895 6894 ] final   39.53 input  -60.11 | X-H torsion
[ 7974 7965 7964 7962 ] final -160.67 input  175.53 | X-H torsion
[ 8008 7997 7996 7995 ] final   42.30 input   59.86 | X-H torsion
[ 10167 10162 10161 10158 ] final  135.55 input  -65.29 | X-H torsion
[ 10718 10713 10712 10709 ] final -146.82 input   66.30 | X-H torsion
[ 10763 10752 10751 10750 ] final -167.33 input  -60.55 | X-H torsion
[ 11005 11000 10999 10996 ] final   65.52 input  -57.11 | X-H torsion

> <Gold.Protein.ActiveResidues>
 VAL166  LYS551  ARG553  GLY616  TRP617  ASP618  TYR619  PRO620  LYS621  CYS622 
 ASP623  PHE694  ASN695  SER759  ASP760  ASP761  ALA762  ILE779  LEU786  VAL792 
 PHE793  MET794  SER795  GLU796  ALA797  LYS798  CYS799  TRP800  GLU811  SER814 

> <Gold.Protein.RotatedAtoms>
  152.1708  134.8836  160.0534 H   0  0  0  0  0  0  0  0  0  0  0  0  # atno 6907 bound_to 6896
  151.9796  133.3748  159.4110 H   0  0  0  0  0  0  0  0  0  0  0  0  # atno 6908 bound_to 6896
  150.6901  134.3976  159.5148 H   0  0  0  0  0  0  0  0  0  0  0  0  # atno 6909 bound_to 6896
  144.7418  140.3508  143.6116 H   0  0  0  0  0  0  0  0  0  0  0  0  # atno 7974 bound_to 7965
  155.2838  140.3374  155.4256 H   0  0  0  0  0  0  0  0  0  0  0  0  # atno 8008 bound_to 7997
  156.2077  140.1757  156.7803 H   0  0  0  0  0  0  0  0  0  0  0  0  # atno 8009 bound_to 7997
  154.5644  140.0681  156.8852 H   0  0  0  0  0  0  0  0  0  0  0  0  # atno 8010 bound_to 7997
  139.5213  144.6511  151.5300 H   0  0  0  0  0  0  0  0  0  0  0  0  # atno 10167 bound_to 10162
  156.3998  130.7928  151.2137 H   0  0  0  0  0  0  0  0  0  0  0  0  # atno 10718 bound_to 10713
  154.6742  135.2944  154.9700 H   0  0  0  0  0  0  0  0  0  0  0  0  # atno 10763 bound_to 10752
  154.0717  135.6617  153.4829 H   0  0  0  0  0  0  0  0  0  0  0  0  # atno 10764 bound_to 10752
  153.0506  135.5176  154.7753 H   0  0  0  0  0  0  0  0  0  0  0  0  # atno 10765 bound_to 10752
  139.9889  134.6623  156.0126 H   0  0  0  0  0  0  0  0  0  0  0  0  # atno 11005 bound_to 11000
  145.7278  139.1727  143.2447 LP  0  0  0  0  0  0  0  0  0  0  0  0  # atno 17320 bound_to 7965
  146.1229  140.7286  142.9449 LP  0  0  0  0  0  0  0  0  0  0  0  0  # atno 17321 bound_to 7965
  140.6316  143.9065  150.6610 LP  0  0  0  0  0  0  0  0  0  0  0  0  # atno 17342 bound_to 10162
  140.2371  143.3692  152.1518 LP  0  0  0  0  0  0  0  0  0  0  0  0  # atno 17343 bound_to 10162
  157.7503  131.0290  150.4075 LP  0  0  0  0  0  0  0  0  0  0  0  0  # atno 17370 bound_to 10713
  156.4352  130.3980  149.6734 LP  0  0  0  0  0  0  0  0  0  0  0  0  # atno 17371 bound_to 10713
  141.1549  133.6544  156.4129 LP  0  0  0  0  0  0  0  0  0  0  0  0  # atno 17394 bound_to 11000
  140.4947  134.6542  157.5225 LP  0  0  0  0  0  0  0  0  0  0  0  0  # atno 17395 bound_to 11000

$$$$
