AV-unprocessed.smi:54|AV-procd|sdf|547|dock5
  -GOLD-   2262016443D 1   1.00000     0.00000
 Structure written by MMmdl.
 43 45  0  0  0  0  0  0  0  0  2 V2000
  145.9900  133.9457  152.1074 C   0  0  0  0  0  0  0  0  0  0  0  0
  146.9508  132.7463  152.0551 C   0  0  0  0  0  0  0  0  0  0  0  0
  146.1849  131.4144  152.1170 C   0  0  0  0  0  0  0  0  0  0  0  0
  147.9879  132.8280  153.1844 C   0  0  0  0  0  0  0  0  0  0  0  0
  148.4576  131.7844  153.6430 O   0  0  0  0  0  0  0  0  0  0  0  0
  148.3132  134.0795  153.5785 N   0  0  0  0  0  0  0  0  0  0  0  0
  149.2273  134.4931  154.5551 C   0  0  0  0  0  0  0  0  0  0  0  0
  149.6201  135.7337  154.3954 N   0  0  0  0  0  0  0  0  0  0  0  0
  150.5109  136.1384  155.3711 C   0  0  0  0  0  0  0  0  0  0  0  0
  150.9886  135.4093  156.4249 C   0  0  0  0  0  0  0  0  0  0  0  0
  151.8782  136.1508  157.1927 N   0  0  0  0  0  0  0  0  0  0  0  0
  151.8940  137.3188  156.5518 C   0  0  0  0  0  0  0  0  0  0  0  0
  151.0951  137.3965  155.4664 N   0  0  0  0  0  0  0  0  0  0  0  0
  150.8932  138.5518  154.5318 C   0  0  2  0  0  0  0  0  0  0  0  0
  151.4642  139.6910  155.1048 O   0  0  0  0  0  0  0  0  0  0  0  0
  150.4610  140.4241  155.7997 C   0  0  1  0  0  0  0  0  0  0  0  0
  150.9221  141.8615  156.0988 C   0  0  0  0  0  0  0  0  0  0  0  0
  149.8723  142.5919  156.6969 O   0  0  0  0  0  0  0  0  0  0  0  0
  149.2650  140.2905  154.8490 C   0  0  1  0  0  0  0  0  0  0  0  0
  149.3652  141.2288  153.7887 O   0  0  0  0  0  0  0  0  0  0  0  0
  149.3877  138.8414  154.3744 C   0  0  1  0  0  0  0  0  0  0  0  0
  148.9166  138.6498  153.0537 O   0  0  0  0  0  0  0  0  0  0  0  0
  150.4960  134.0176  156.5531 C   0  0  0  0  0  0  0  0  0  0  0  0
  150.8945  133.3245  157.4873 O   0  0  0  0  0  0  0  0  0  0  0  0
  149.6117  133.6175  155.5907 N   0  5  0  0  0  0  0  0  0  0  0  0
  151.4077  138.2623  153.6146 H   0  0  0  0  0  0  0  0  0  0  0  0
  150.2166  139.9099  156.7313 H   0  0  0  0  0  0  0  0  0  0  0  0
  148.3202  140.4638  155.3653 H   0  0  0  0  0  0  0  0  0  0  0  0
  148.8201  138.1948  155.0460 H   0  0  0  0  0  0  0  0  0  0  0  0
  146.5334  134.8906  152.0662 H   0  0  0  0  0  0  0  0  0  0  0  0
  145.3931  133.9436  153.0206 H   0  0  0  0  0  0  0  0  0  0  0  0
  145.3003  133.9285  151.2632 H   0  0  0  0  0  0  0  0  0  0  0  0
  147.4774  132.7841  151.0999 H   0  0  0  0  0  0  0  0  0  0  0  0
  146.8672  130.5637  152.0944 H   0  0  0  0  0  0  0  0  0  0  0  0
  145.5093  131.3138  151.2673 H   0  0  0  0  0  0  0  0  0  0  0  0
  145.5861  131.3371  153.0255 H   0  0  0  0  0  0  0  0  0  0  0  0
  147.8683  134.8150  153.0501 H   0  0  0  0  0  0  0  0  0  0  0  0
  152.5065  138.1420  156.8887 H   0  0  0  0  0  0  0  0  0  0  0  0
  151.8035  141.8725  156.7412 H   0  0  0  0  0  0  0  0  0  0  0  0
  151.1861  142.3718  155.1721 H   0  0  0  0  0  0  0  0  0  0  0  0
  149.7989  143.4258  156.2588 H   0  0  0  0  0  0  0  0  0  0  0  0
  149.6604  140.7773  153.0134 H   0  0  0  0  0  0  0  0  0  0  0  0
  149.5129  139.0811  152.4607 H   0  0  0  0  0  0  0  0  0  0  0  0
  1  2  1  0  0  0  0
  1 30  1  0  0  0  0
  1 31  1  0  0  0  0
  1 32  1  0  0  0  0
  2  3  1  0  0  0  0
  2  4  1  0  0  0  0
  2 33  1  0  0  0  0
  3 34  1  0  0  0  0
  3 35  1  0  0  0  0
  3 36  1  0  0  0  0
  4  5  2  0  0  0  0
  4  6  1  0  0  0  0
  6 37  1  0  0  0  0
  6  7  1  0  0  0  0
  7 25  1  0  0  0  0
  7  8  2  0  0  0  0
  8  9  1  0  0  0  0
  9 13  1  0  0  0  0
  9 10  2  0  0  0  0
 10 11  1  0  0  0  0
 10 23  1  0  0  0  0
 11 12  2  0  0  0  0
 12 13  1  0  0  0  0
 12 38  1  0  0  0  0
 13 14  1  0  0  0  0
 14 26  1  0  0  0  0
 14 21  1  0  0  0  0
 14 15  1  0  0  0  0
 15 16  1  0  0  0  0
 16 27  1  0  0  0  0
 16 17  1  0  0  0  0
 16 19  1  0  0  0  0
 17 18  1  0  0  0  0
 17 39  1  0  0  0  0
 17 40  1  0  0  0  0
 18 41  1  0  0  0  0
 19 28  1  0  0  0  0
 19 20  1  0  0  0  0
 19 21  1  0  0  0  0
 20 42  1  0  0  0  0
 21 29  1  0  0  0  0
 21 22  1  0  0  0  0
 22 43  1  0  0  0  0
 23 24  2  0  0  0  0
 23 25  1  0  0  0  0
M  CHG  1  25  -1
M  END
> <s_m_source_file>
AV-unprocessed.smi

> <i_m_source_file_index>
54

> <i_lp_mmshare_version>
43012

> <i_f3d_flags>
0

> <s_epik_input>
W0NIM11bQ0hdKFtDSDNdKUMoPU8pW05IXWMobjEpW25IXWMoPU8pYyhjMTIpbltjSF1uMltDQEBIXTNPW0NASF0oW0NIMl1bT0hdKVtDQEBIXShbT0hdKVtDQEhdM1tPSF0=

> <s_epik_cmdline>
J2VwaWtfcHl0aG9uJywgJy1waCcsICc3LjAnLCAnLXRuJywgJzgnLCAnLW1hJywgJzIwMCcsICctbWV0YWxfYmluZGluZycsICctaW1hZScsICc8aW5maWxlLm1hZT4nLCAnLW9tYWUnLCAnPG91dGZpbGUubWFlPic=

> <r_lp_tautomer_probability>
0.85571

> <r_epik_Ionization_Penalty>
1.75936

> <r_epik_Ionization_Penalty_Charging>
4.55893e-11

> <r_epik_Ionization_Penalty_Neutral>
1.75936

> <r_epik_State_Penalty>
1.72072

> <r_epik_Charging_Adjusted_Penalty>
1.72072

> <i_epik_Tot_Q>
-1

> <i_epik_Tot_abs_Q>
1

> <r_epik_Metal_State_Penalty>
0.400338

> <b_epik_Metal_Only>
1

> <s_epik_Chemistry_Notes>
This compound contains an acetal/aminal-like group ( X-CH(R)-Y where X, Y are N, S, or O) that may be acid/base labile, releasing an aldehyde.

> <s_lp_Force_Field>
OPLS_2005

> <r_lp_Energy>
64.1359

> <b_lp_Chiralities_Consistent>
1

> <s_lp_Variant>
AV-unprocessed.smi:54-19

> <Gold.Version>
5.8.1

> <Gold.Id.Protein>
6NUR|6NUR_protein|mol2

> <Gold.PLP.Fitness>
52.0833

> <Gold.PLP.PLP>
-38.6507

> <Gold.PLP.part.hbond>
-8.6954

> <Gold.PLP.part.metal>
0.0000

> <Gold.PLP.part.buried>
-7.2480

> <Gold.PLP.part.nonpolar>
-25.8226

> <Gold.PLP.part.repulsive>
3.4612

> <Gold.PLP.ligand.clash>
0.0000

> <Gold.PLP.ligand.torsion>
1.0208

> <Gold.PLP.Chemscore.Hbond>
5.1400

> <Gold.PLP.Chemscore.CHOScore>
0.0000

> <Gold.PLP.Chemscore.Metal>
0.0000

> <Gold.Chemscore.Hbonds>
donor molecule, donor type, donor heavy atom, donor atom, acceptor molecule, acceptor atom, score
      L1  H     6    37       P1  7948  0.35
      L1  H    18    41       P1  8028  1.00
      L1  H    20    42       P1  7957  1.00
      L1  H    22    43       P1  7957  0.90
      P1  H  6896  6907       L1    24  0.86
      P1  H  7989  7998       L1    15  0.95

> <Gold.PLP.Chemscore.Internal.Correction>
0.0542

> <Gold.Rescore>
     Score         DG    S(hbond)    S(metal)    S(lipo)     H(rot)  DE(clash)    DE(int)     intcor
     11.04     -14.76       4.20        0.00      47.46       4.02       1.52       2.20       ----

> <Gold.Chemscore.Fitness>
11.0414

> <Gold.Chemscore.DG>
-14.7637

> <Gold.Chemscore.ZeroCoef>
-5.4800

> <Gold.Chemscore.Hbond>
4.1976

> <Gold.Chemscore.Metal>
0.0000

> <Gold.Chemscore.Lipo>
47.4620

> <Gold.Chemscore.Internal_Hbond>
0.0000

> <Gold.Chemscore.DEClash>
1.5239

> <Gold.Chemscore.DEInternal>
2.1984

> <Gold.Chemscore.Rot>
4.0192

> <Gold.Chemscore.Internal.Correction>
   9.000000E+99

> <Gold.Chemscore.Hbonds>
donor molecule, donor type, donor heavy atom, donor atom, acceptor molecule, acceptor atom, score
      L1  H     6    37       P1  7948  0.34
      L1  H    18    41       P1  8028  0.96
      L1  H    20    42       P1  7957  0.97
      L1  H    22    43       P1  7957  0.81
      P1  H  6896  6907       L1    24  0.85
      P1  H  7989  7998       L1    15  0.06

> <Gold.Chemscore.Hbond.Weighted>
-14.0199

> <Gold.Chemscore.Metal.Weighted>
-0.0000

> <Gold.Chemscore.Lipo.Weighted>
-5.5531

> <Gold.Chemscore.Internal_Hbond.Weighted>
0.0000

> <Gold.Chemscore.DEClash.Weighted>
1.5239

> <Gold.Chemscore.DEInternal.Weighted>
2.1984

> <Gold.Chemscore.Rot.Weighted>
10.2893

> <Gold.Chemscore.Internal.Correction.Weighted>
   9.000000E+99

> <Gold.Protein.RotatedTorsions>
[ 6907 6896 6895 6894 ] final -146.48 input  -60.11 | X-H torsion
[ 7974 7965 7964 7962 ] final -139.61 input  175.53 | X-H torsion
[ 8008 7997 7996 7995 ] final   36.25 input   59.86 | X-H torsion
[ 10167 10162 10161 10158 ] final   72.44 input  -65.29 | X-H torsion
[ 10718 10713 10712 10709 ] final  111.55 input   66.30 | X-H torsion
[ 10763 10752 10751 10750 ] final  177.23 input  -60.55 | X-H torsion
[ 11005 11000 10999 10996 ] final   97.29 input  -57.11 | X-H torsion

> <Gold.Protein.ActiveResidues>
 VAL166  LYS551  ARG553  GLY616  TRP617  ASP618  TYR619  PRO620  LYS621  CYS622 
 ASP623  PHE694  ASN695  SER759  ASP760  ASP761  ALA762  ILE779  LEU786  VAL792 
 PHE793  MET794  SER795  GLU796  ALA797  LYS798  CYS799  TRP800  GLU811  SER814 

> <Gold.Protein.RotatedAtoms>
  151.1422  133.4963  159.2596 H   0  0  0  0  0  0  0  0  0  0  0  0  # atno 6907 bound_to 6896
  151.1642  135.0287  159.8734 H   0  0  0  0  0  0  0  0  0  0  0  0  # atno 6908 bound_to 6896
  152.5462  134.1293  159.8485 H   0  0  0  0  0  0  0  0  0  0  0  0  # atno 6909 bound_to 6896
  144.8663  140.6299  143.5295 H   0  0  0  0  0  0  0  0  0  0  0  0  # atno 7974 bound_to 7965
  155.1843  140.3302  155.4369 H   0  0  0  0  0  0  0  0  0  0  0  0  # atno 8008 bound_to 7997
  156.2465  140.1921  156.6889 H   0  0  0  0  0  0  0  0  0  0  0  0  # atno 8009 bound_to 7997
  154.6250  140.0590  156.9648 H   0  0  0  0  0  0  0  0  0  0  0  0  # atno 8010 bound_to 7997
  140.0352  144.5433  150.7476 H   0  0  0  0  0  0  0  0  0  0  0  0  # atno 10167 bound_to 10162
  157.6439  131.0952  150.6765 H   0  0  0  0  0  0  0  0  0  0  0  0  # atno 10718 bound_to 10713
  154.4917  135.2779  155.1491 H   0  0  0  0  0  0  0  0  0  0  0  0  # atno 10763 bound_to 10752
  154.3160  135.6219  153.5490 H   0  0  0  0  0  0  0  0  0  0  0  0  # atno 10764 bound_to 10752
  152.9889  135.5731  154.5340 H   0  0  0  0  0  0  0  0  0  0  0  0  # atno 10765 bound_to 10752
  139.8777  134.8993  156.4284 H   0  0  0  0  0  0  0  0  0  0  0  0  # atno 11005 bound_to 11000
  145.4215  139.1563  143.4072 LP  0  0  0  0  0  0  0  0  0  0  0  0  # atno 17320 bound_to 7965
  146.2898  140.4325  142.8744 LP  0  0  0  0  0  0  0  0  0  0  0  0  # atno 17321 bound_to 7965
  140.7284  143.2662  151.4038 LP  0  0  0  0  0  0  0  0  0  0  0  0  # atno 17342 bound_to 10162
  139.6050  144.1217  152.2239 LP  0  0  0  0  0  0  0  0  0  0  0  0  # atno 17343 bound_to 10162
  156.7085  130.4645  149.5553 LP  0  0  0  0  0  0  0  0  0  0  0  0  # atno 17370 bound_to 10713
  156.1746  130.6459  151.0878 LP  0  0  0  0  0  0  0  0  0  0  0  0  # atno 17371 bound_to 10713
  140.9084  133.7729  155.9762 LP  0  0  0  0  0  0  0  0  0  0  0  0  # atno 17394 bound_to 11000
  140.8574  134.2882  157.5249 LP  0  0  0  0  0  0  0  0  0  0  0  0  # atno 17395 bound_to 11000

$$$$
