AV-unprocessed.smi:330|AV-procd|sdf|2349|dock3
  -GOLD-   2262022263D 1   1.00000     0.00000
 Structure written by MMmdl.
 36 38  0  0  0  0  0  0  0  0  1 V2000
  148.0329  140.9136  154.5323 C   0  0  0  0  0  0  0  0  0  0  0  0
  149.2025  140.0131  154.8917 C   0  0  0  0  0  0  0  0  0  0  0  0
  149.3586  138.7450  154.4976 C   0  0  0  0  0  0  0  0  0  0  0  0
  150.8438  138.0342  155.0807 S   0  0  0  0  0  0  0  0  0  0  0  0
  151.2672  139.5760  155.9082 C   0  0  0  0  0  0  0  0  0  0  0  0
  152.3030  139.7232  156.5551 O   0  0  0  0  0  0  0  0  0  0  0  0
  150.2501  140.5038  155.6837 N   0  0  0  0  0  0  0  0  0  0  0  0
  150.2800  141.8663  156.2314 C   0  0  0  0  0  0  0  0  0  0  0  0
  150.5233  141.9061  157.7459 C   0  0  0  0  0  0  0  0  0  0  0  0
  149.7292  141.3857  158.5308 O   0  0  0  0  0  0  0  0  0  0  0  0
  151.6390  142.5397  158.1386 N   0  0  0  0  0  0  0  0  0  0  0  0
  152.0817  142.7067  159.5188 C   0  0  0  0  0  0  0  0  0  0  0  0
  152.1350  144.1665  159.9371 C   0  0  0  0  0  0  0  0  0  0  0  0
  150.9363  145.0731  159.7832 C   0  0  0  0  0  0  0  0  0  0  0  0
  152.1564  145.2779  158.9145 C   0  0  0  0  0  0  0  0  0  0  0  0
  153.4223  142.0374  159.7594 C   0  0  0  0  0  0  0  0  0  0  0  0
  153.5134  140.5586  160.0499 C   0  0  0  0  0  0  0  0  0  0  0  0
  153.8302  141.5634  161.1345 C   0  0  0  0  0  0  0  0  0  0  0  0
  147.4793  140.4977  153.6900 H   0  0  0  0  0  0  0  0  0  0  0  0
  148.3656  141.9108  154.2444 H   0  0  0  0  0  0  0  0  0  0  0  0
  147.3490  141.0015  155.3767 H   0  0  0  0  0  0  0  0  0  0  0  0
  148.6783  138.1785  153.8791 H   0  0  0  0  0  0  0  0  0  0  0  0
  151.0321  142.4692  155.7218 H   0  0  0  0  0  0  0  0  0  0  0  0
  149.3292  142.3618  156.0291 H   0  0  0  0  0  0  0  0  0  0  0  0
  152.2300  142.9386  157.4239 H   0  0  0  0  0  0  0  0  0  0  0  0
  151.3630  142.2069  160.1717 H   0  0  0  0  0  0  0  0  0  0  0  0
  152.7373  144.3370  160.8278 H   0  0  0  0  0  0  0  0  0  0  0  0
  150.0469  144.6690  159.3039 H   0  0  0  0  0  0  0  0  0  0  0  0
  150.7519  145.7998  160.5715 H   0  0  0  0  0  0  0  0  0  0  0  0
  152.7864  146.1396  159.1246 H   0  0  0  0  0  0  0  0  0  0  0  0
  152.0741  145.0056  157.8641 H   0  0  0  0  0  0  0  0  0  0  0  0
  154.2250  142.4448  159.1472 H   0  0  0  0  0  0  0  0  0  0  0  0
  152.5830  140.0009  160.1382 H   0  0  0  0  0  0  0  0  0  0  0  0
  154.3452  140.0115  159.6107 H   0  0  0  0  0  0  0  0  0  0  0  0
  154.8731  141.6857  161.4190 H   0  0  0  0  0  0  0  0  0  0  0  0
  153.1107  141.6645  161.9447 H   0  0  0  0  0  0  0  0  0  0  0  0
  1  2  1  0  0  0  0
  1 19  1  0  0  0  0
  1 20  1  0  0  0  0
  1 21  1  0  0  0  0
  2  7  1  0  0  0  0
  2  3  2  0  0  0  0
  3  4  1  0  0  0  0
  3 22  1  0  0  0  0
  4  5  1  0  0  0  0
  5  6  2  0  0  0  0
  5  7  1  0  0  0  0
  7  8  1  0  0  0  0
  8  9  1  0  0  0  0
  8 23  1  0  0  0  0
  8 24  1  0  0  0  0
  9 10  2  0  0  0  0
  9 11  1  0  0  0  0
 11 12  1  0  0  0  0
 11 25  1  0  0  0  0
 12 13  1  0  0  0  0
 12 16  1  0  0  0  0
 12 26  1  0  0  0  0
 13 15  1  0  0  0  0
 13 14  1  0  0  0  0
 13 27  1  0  0  0  0
 14 15  1  0  0  0  0
 14 28  1  0  0  0  0
 14 29  1  0  0  0  0
 15 30  1  0  0  0  0
 15 31  1  0  0  0  0
 16 18  1  0  0  0  0
 16 17  1  0  0  0  0
 16 32  1  0  0  0  0
 17 18  1  0  0  0  0
 17 33  1  0  0  0  0
 17 34  1  0  0  0  0
 18 35  1  0  0  0  0
 18 36  1  0  0  0  0
M  END
> <s_m_source_file>
AV-unprocessed.smi

> <i_m_source_file_index>
330

> <i_lp_mmshare_version>
43012

> <i_f3d_flags>
0

> <s_epik_input>
W0NIM11jMVtjSF1zYyg9TyluMVtDSDJdQyg9TylbTkhdW0NIXShbQ0hdMltDSDJdW0NIMl0yKVtDSF0zW0NIMl1bQ0gyXTM=

> <s_epik_cmdline>
J2VwaWtfcHl0aG9uJywgJy1waCcsICc3LjAnLCAnLXRuJywgJzgnLCAnLW1hJywgJzIwMCcsICctbWV0YWxfYmluZGluZycsICctaW1hZScsICc8aW5maWxlLm1hZT4nLCAnLW9tYWUnLCAnPG91dGZpbGUubWFlPic=

> <r_lp_tautomer_probability>
1

> <r_epik_Ionization_Penalty>
1.36851e-06

> <r_epik_Ionization_Penalty_Charging>
1.26835e-06

> <r_epik_Ionization_Penalty_Neutral>
1.00162e-07

> <r_epik_State_Penalty>
-0

> <r_epik_Charging_Adjusted_Penalty>
1.26835e-06

> <i_epik_Tot_Q>
0

> <i_epik_Tot_abs_Q>
0

> <r_epik_Metal_State_Penalty>
-0

> <b_epik_Metal_Only>
0

> <s_lp_Force_Field>
OPLS_2005

> <r_lp_Energy>
27.3766

> <b_lp_Chiralities_Consistent>
1

> <s_lp_Variant>
AV-unprocessed.smi:330-1

> <Gold.Version>
5.8.1

> <Gold.Id.Protein>
6NUR|6NUR_protein|mol2

> <Gold.PLP.Fitness>
54.3274

> <Gold.PLP.PLP>
-48.6323

> <Gold.PLP.part.hbond>
-1.0000

> <Gold.PLP.part.metal>
0.0000

> <Gold.PLP.part.buried>
-2.3850

> <Gold.PLP.part.nonpolar>
-43.7803

> <Gold.PLP.part.repulsive>
0.0804

> <Gold.PLP.ligand.clash>
0.0000

> <Gold.PLP.ligand.torsion>
1.2364

> <Gold.PLP.Chemscore.Hbond>
1.0000

> <Gold.PLP.Chemscore.CHOScore>
1.0000

> <Gold.PLP.Chemscore.Metal>
0.0000

> <Gold.Chemscore.Hbonds>
donor molecule, donor type, donor heavy atom, donor atom, acceptor molecule, acceptor atom, score
      P1  H  7997  8008       L1     6  0.88
      L1  C     3    22       P1  7948  0.32

> <Gold.PLP.Chemscore.Internal.Correction>
2.1678

> <Gold.Rescore>
     Score         DG    S(hbond)    S(metal)    S(lipo)     H(rot)  DE(clash)    DE(int)     intcor
     16.29     -17.61       1.00        0.00     112.04       1.69       0.05       1.27       ----

> <Gold.Chemscore.Fitness>
16.2927

> <Gold.Chemscore.DG>
-17.6088

> <Gold.Chemscore.ZeroCoef>
-5.4800

> <Gold.Chemscore.Hbond>
0.9998

> <Gold.Chemscore.Metal>
0.0000

> <Gold.Chemscore.Lipo>
112.0366

> <Gold.Chemscore.Internal_Hbond>
0.0000

> <Gold.Chemscore.DEClash>
0.0452

> <Gold.Chemscore.DEInternal>
1.2710

> <Gold.Chemscore.Rot>
1.6871

> <Gold.Chemscore.Internal.Correction>
   9.000000E+99

> <Gold.Chemscore.Hbonds>
donor molecule, donor type, donor heavy atom, donor atom, acceptor molecule, acceptor atom, score
      P1  H  7997  8008       L1     6  0.86

> <Gold.Chemscore.Hbond.Weighted>
-3.3395

> <Gold.Chemscore.Metal.Weighted>
-0.0000

> <Gold.Chemscore.Lipo.Weighted>
-13.1083

> <Gold.Chemscore.Internal_Hbond.Weighted>
0.0000

> <Gold.Chemscore.DEClash.Weighted>
0.0452

> <Gold.Chemscore.DEInternal.Weighted>
1.2710

> <Gold.Chemscore.Rot.Weighted>
4.3189

> <Gold.Chemscore.Internal.Correction.Weighted>
   9.000000E+99

> <Gold.Protein.RotatedTorsions>
[ 6907 6896 6895 6894 ] final   57.75 input  -60.11 | X-H torsion
[ 7974 7965 7964 7962 ] final   81.10 input  175.53 | X-H torsion
[ 8008 7997 7996 7995 ] final  -42.23 input   59.86 | X-H torsion
[ 10167 10162 10161 10158 ] final -130.10 input  -65.29 | X-H torsion
[ 10718 10713 10712 10709 ] final  113.87 input   66.30 | X-H torsion
[ 10763 10752 10751 10750 ] final   55.22 input  -60.55 | X-H torsion
[ 11005 11000 10999 10996 ] final -139.73 input  -57.11 | X-H torsion

> <Gold.Protein.ActiveResidues>
 VAL166  LYS551  ARG553  GLY616  TRP617  ASP618  TYR619  PRO620  LYS621  CYS622 
 ASP623  PHE694  ASN695  SER759  ASP760  ASP761  ALA762  ILE779  LEU786  VAL792 
 PHE793  MET794  SER795  GLU796  ALA797  LYS798  CYS799  TRP800  GLU811  SER814 

> <Gold.Protein.RotatedAtoms>
  152.3760  134.6662  160.0159 H   0  0  0  0  0  0  0  0  0  0  0  0  # atno 6907 bound_to 6896
  151.6940  133.3305  159.3258 H   0  0  0  0  0  0  0  0  0  0  0  0  # atno 6908 bound_to 6896
  150.7710  134.6609  159.6384 H   0  0  0  0  0  0  0  0  0  0  0  0  # atno 6909 bound_to 6896
  145.6426  139.2429  143.2022 H   0  0  0  0  0  0  0  0  0  0  0  0  # atno 7974 bound_to 7965
  154.4000  140.1479  156.3321 H   0  0  0  0  0  0  0  0  0  0  0  0  # atno 8008 bound_to 7997
  155.8434  140.3461  155.5625 H   0  0  0  0  0  0  0  0  0  0  0  0  # atno 8009 bound_to 7997
  155.8063  140.0877  157.1920 H   0  0  0  0  0  0  0  0  0  0  0  0  # atno 8010 bound_to 7997
  139.9329  143.6251  152.2525 H   0  0  0  0  0  0  0  0  0  0  0  0  # atno 10167 bound_to 10162
  157.6314  131.0990  150.7104 H   0  0  0  0  0  0  0  0  0  0  0  0  # atno 10718 bound_to 10713
  152.9814  135.5718  154.5031 H   0  0  0  0  0  0  0  0  0  0  0  0  # atno 10763 bound_to 10752
  154.4547  135.2779  155.1758 H   0  0  0  0  0  0  0  0  0  0  0  0  # atno 10764 bound_to 10752
  154.3371  135.6237  153.5632 H   0  0  0  0  0  0  0  0  0  0  0  0  # atno 10765 bound_to 10752
  140.8491  134.2307  157.4770 H   0  0  0  0  0  0  0  0  0  0  0  0  # atno 11005 bound_to 11000
  146.1269  140.7237  142.9431 LP  0  0  0  0  0  0  0  0  0  0  0  0  # atno 17320 bound_to 7965
  144.7152  140.4183  143.7050 LP  0  0  0  0  0  0  0  0  0  0  0  0  # atno 17321 bound_to 7965
  139.6768  144.7658  151.1682 LP  0  0  0  0  0  0  0  0  0  0  0  0  # atno 17342 bound_to 10162
  140.7632  143.5784  150.8921 LP  0  0  0  0  0  0  0  0  0  0  0  0  # atno 17343 bound_to 10162
  156.7442  130.4748  149.5470 LP  0  0  0  0  0  0  0  0  0  0  0  0  # atno 17370 bound_to 10713
  156.1520  130.6316  151.0607 LP  0  0  0  0  0  0  0  0  0  0  0  0  # atno 17371 bound_to 10713
  139.8704  134.9674  156.4597 LP  0  0  0  0  0  0  0  0  0  0  0  0  # atno 17394 bound_to 11000
  140.8810  133.7918  155.9466 LP  0  0  0  0  0  0  0  0  0  0  0  0  # atno 17395 bound_to 11000

$$$$
